data_PCOD9287212
_publ_section_title
;
Structure prediction by ZEFSAII (Michael W. Deem and Ramdas Pophale) SiO2 
 PCOD9287212
Probable space group: C 2/C
;
_chemical_formula_sum "Si O2"
_cell_formula_units_Z 56
_cell_length_a 27.425208
_cell_length_b 4.981842
_cell_length_c 17.026525
_cell_angle_alpha 90.000000
_cell_angle_beta 116.384493
_cell_angle_gamma 90.000000
_cell_volume 2083.974999
_symmetry_space_group_name_H-M "C 2/C"
_symmetry_group_IT_number 15
_symmetry_cell_setting 'monoclinic'
loop_
_space_group_symop_operation_xyz
x,y,z
-x,y,1/2-z
-x,-y,-z
x,-y,1/2+z
1/2+x,1/2+y,z
1/2-x,1/2+y,1/2-z
1/2-x,1/2-y,-z
1/2+x,1/2-y,1/2+z
loop_
_atom_site_type_symbol
_atom_site_label
_atom_site_fract_x
_atom_site_fract_y
_atom_site_fract_z
Si Si1 0.859419 0.070267 0.547216
Si Si2 0.715666 0.124118 0.740903
Si Si3 0.364555 0.759453 0.904787
Si Si4 0.538066 0.326676 0.926671
Si Si5 0.500000 0.340546 0.750000
Si Si6 0.000000 0.500000 0.000000
Si Si7 0.567331 0.267870 0.186933
Si Si8 0.350034 0.940493 0.149890
O O1 0.837167 0.928519 0.451373
O O2 0.923103 0.072440 0.567008
O O3 0.853957 0.848377 0.611816
O O4 0.840136 0.346232 0.571683
O O5 0.766638 0.928484 0.759902
O O6 0.670597 0.010654 0.647947
O O7 0.695719 0.075754 0.815371
O O8 0.385674 0.625924 0.839179
O O9 0.421885 0.856298 0.988289
O O10 0.531957 0.185608 0.838624
O O11 0.486229 0.288385 0.943520
O O12 0.461567 0.524093 0.776273
O O13 0.978535 0.346829 0.903147
O O14 0.598292 0.050294 0.263339
#
# Coordination Sequence:
#
# PCOD9287212 Si02
#       8
#     8   8   8   8   4   4   8   8
#     4  10  22  44  65  95 130 185 217 268 345 402
#     4  11  24  46  73 103 128 169 222 276 339 423
#     4   8  21  44  61  94 138 172 217 275 353 392
#     4   9  22  40  57  95 135 180 228 281 330 394
#     4  12  22  36  64  96 132 188 244 284 318 410
#     4  10  22  34  56  88 128 178 234 274 328 388
#     4  10  22  37  59  92 134 185 224 289 327 397
#     4  11  23  44  69  96 136 176 221 276 352 399
#
# _framework density 26.87172
#
# number of rings (size 3 to 8) (size 9 to 14) (size 15 to 20)
#    0.857    1.143    1.429    0.857    4.000    3.429 
#    2.571    8.571    0.000    0.000    0.000    0.000 
#    0.000    0.000    0.000    0.000    0.000    0.000 
#
# Total GULP energy -155929.137832 kJ/mol
# GULP energy per Si atom -5568.897780 kJ/mol
# Density = 2.681056 g / cm^3
# Si number density = 26.871720 Si / 1000 Ang^3
#
#
#
# Elastic Constant Matrix: (Units=GPa)
#
#
# Indices 1 2 3 4 5 6 
#
# 1 102.0490 33.5010 31.8044 0.0006 -34.7813 -0.0004
# 2 33.5010 109.2859 17.6244 0.0021 -24.3200 -0.0015
# 3 31.8044 17.6244 129.9042 0.0016 -20.2148 -0.0015
# 4 0.0006 0.0021 0.0016 37.0167 -0.0005 -12.1769
# 5 -34.7813 -24.3200 -20.2148 -0.0005 47.8327 0.0004
# 6 -0.0004 -0.0015 -0.0015 -12.1769 0.0004 21.4979
#
#
#
# Elastic Compliance Matrix: (Units=1/GPa)
#
#
# Indices 1 2 3 4 5 6 
#
# 1 0.013873 -0.002126 -0.001827 0.000000 0.008235 0.000000
# 2 -0.002126 0.010691 -0.000348 0.000000 0.003743 0.000000
# 3 -0.001827 -0.000348 0.008518 0.000000 0.002095 0.000000
# 4 0.000000 0.000000 0.000000 0.033201 0.000000 0.018806
# 5 0.008235 0.003743 0.002095 0.000000 0.029683 0.000000
# 6 0.000000 0.000000 0.000000 0.018806 0.000000 0.057168
#
#
# Mechanical properties :
#
#
# Convention : Reuss Voigt Hill
#
# Bulk Modulus (GPa) = 40.84505 56.34429 48.59467
# Shear Modulus (GPa) = 29.42997 38.49009 33.96003
#
# Velocity S-wave (km/s) = 3.31297 3.78876 3.55883
# Velocity P-wave (km/s) = 5.46511 6.33664 5.91694
#
# Compressibility (1/GPa) = 0.02448277
#
# Stress axis : x y z
#
# Youngs Moduli (GPa) = 72.08238 93.53721 117.39334
#
# Poissons Ratio (x) = 0.19882 0.21444
# Poissons Ratio (y) = 0.15321 0.04080
# Poissons Ratio (z) = 0.13167 0.03251
#
# Static dielectric constant tensor:
#      x y z
#    x 1.764460 0.000000 0.285780 
#    y 0.000000 2.289330 0.000000 
#    z 0.285780 0.000000 2.208570 
# 
# From -- ./inp_files/223682.got.cif
#   From: 2010.05.17/outbox.cif.g08.bks.cpg/sg15_112_cif.got.tgz:223682.got - 2010.06.03 18:47:42.
