data_PCOD9287156
_publ_section_title
;
Structure prediction by ZEFSAII (Michael W. Deem and Ramdas Pophale) SiO2 
 PCOD9287156
Probable space group: C 2/C
;
_chemical_formula_sum "Si O2"
_cell_formula_units_Z 56
_cell_length_a 15.679497
_cell_length_b 15.969353
_cell_length_c 13.729515
_cell_angle_alpha 90.000000
_cell_angle_beta 62.141384
_cell_angle_gamma 90.000000
_cell_volume 3039.328859
_symmetry_space_group_name_H-M "C 2/C"
_symmetry_group_IT_number 15
_symmetry_cell_setting 'monoclinic'
loop_
_space_group_symop_operation_xyz
x,y,z
-x,y,1/2-z
-x,-y,-z
x,-y,1/2+z
1/2+x,1/2+y,z
1/2-x,1/2+y,1/2-z
1/2-x,1/2-y,-z
1/2+x,1/2-y,1/2+z
loop_
_atom_site_type_symbol
_atom_site_label
_atom_site_fract_x
_atom_site_fract_y
_atom_site_fract_z
Si Si1 0.907211 0.839535 0.686365
Si Si2 0.693984 0.365851 0.238277
Si Si3 0.883788 0.232583 0.401453
Si Si4 0.212169 0.953279 0.031100
Si Si5 0.232207 0.372842 0.091169
Si Si6 0.014094 0.976929 0.380329
Si Si7 0.746010 0.703907 0.396217
O O1 0.856324 0.811312 0.813230
O O2 0.848094 0.812869 0.622227
O O3 0.008025 0.790873 0.631763
O O4 0.935629 0.937359 0.683965
O O5 0.735680 0.419629 0.125776
O O6 0.759868 0.381528 0.297516
O O7 0.588498 0.401991 0.321761
O O8 0.693129 0.268840 0.203294
O O9 0.864997 0.329780 0.393861
O O10 0.815569 0.194069 0.519560
O O11 0.094075 0.954008 0.094962
O O12 0.260684 0.891071 0.925860
O O13 0.243669 0.044526 0.981284
O O14 0.000000 0.000000 0.500000
O O15 0.750000 0.750000 0.500000
#
# Coordination Sequence:
#
# PCOD9287156 Si02
#       7
#     8   8   8   8   8   8   8
#     4  11  19  37  57  88 117 152 196 244 303 348
#     4  11  22  36  54  83 123 158 191 244 306 359
#     4  10  22  32  59  86 121 149 187 251 293 357
#     4  11  22  37  59  86 118 159 199 245 303 371
#     4  11  20  38  54  91 120 150 196 242 302 357
#     4  12  20  33  60  91 118 147 191 256 305 355
#     4  10  22  38  56  81 119 165 203 240 300 367
#
# _framework density 18.42512
#
# number of rings (size 3 to 8) (size 9 to 14) (size 15 to 20)
#    0.000    1.143    5.714    1.286    2.000    0.000 
#    0.000    0.000    0.000    3.429   22.286    0.000 
#    0.000    0.000    0.000    0.000    0.000    0.000 
#
# Total GULP energy -155887.601163 kJ/mol
# GULP energy per Si atom -5567.414327 kJ/mol
# Density = 1.838318 g / cm^3
# Si number density = 18.425120 Si / 1000 Ang^3
#
#
#
# Elastic Constant Matrix: (Units=GPa)
#
#
# Indices 1 2 3 4 5 6 
#
# 1 59.7736 36.7809 27.9140 0.0000 17.7188 0.0000
# 2 36.7809 124.8978 32.9153 0.0000 -10.9269 0.0000
# 3 27.9140 32.9153 78.9137 0.0000 18.5154 0.0000
# 4 0.0000 0.0000 0.0000 43.2937 0.0000 -7.3210
# 5 17.7188 -10.9269 18.5154 0.0000 34.1845 0.0000
# 6 0.0000 0.0000 0.0000 -7.3210 0.0000 24.6566
#
#
#
# Elastic Compliance Matrix: (Units=1/GPa)
#
#
# Indices 1 2 3 4 5 6 
#
# 1 0.028287 -0.009130 -0.002375 0.000000 -0.016294 0.000000
# 2 -0.009130 0.012996 -0.004899 0.000000 0.011539 0.000000
# 3 -0.002375 -0.004899 0.017910 0.000000 -0.010035 0.000000
# 4 0.000000 0.000000 0.000000 0.024319 0.000000 0.007221
# 5 -0.016294 0.011539 -0.010035 0.000000 0.046823 0.000000
# 6 0.000000 0.000000 0.000000 0.007221 0.000000 0.042701
#
#
# Mechanical properties :
#
#
# Convention : Reuss Voigt Hill
#
# Bulk Modulus (GPa) = 37.89873 50.97838 44.43856
# Shear Modulus (GPa) = 23.29520 31.49195 27.39358
#
# Velocity S-wave (km/s) = 3.55958 4.13871 3.86002
# Velocity P-wave (km/s) = 6.12437 7.11102 6.63605
#
# Compressibility (1/GPa) = 0.02638611
#
# Stress axis : x y z
#
# Youngs Moduli (GPa) = 35.35241 76.94888 55.83494
#
# Poissons Ratio (x) = 0.70252 0.13259
# Poissons Ratio (y) = 0.32276 0.27351
# Poissons Ratio (z) = 0.08395 0.37694
#
# Static dielectric constant tensor:
#      x y z
#    x 1.662170 0.000000 0.005560 
#    y 0.000000 1.680480 0.000000 
#    z 0.005560 0.000000 1.729910 
# 
# From -- ./inp_files/161870.got.cif
#   From: 2010.05.17/outbox.cif.g08.bks.cpg/sg15_81_cif.got.tgz:161870.got - 2010.06.03 18:47:42.
