data_PCOD9287213
_publ_section_title
;
Structure prediction by ZEFSAII (Michael W. Deem and Ramdas Pophale) SiO2 
 PCOD9287213
Probable space group: C 2/C
;
_chemical_formula_sum "Si O2"
_cell_formula_units_Z 64
_cell_length_a 22.174016
_cell_length_b 17.797121
_cell_length_c 7.886194
_cell_angle_alpha 90.000000
_cell_angle_beta 89.308720
_cell_angle_gamma 90.000000
_cell_volume 3111.930979
_symmetry_space_group_name_H-M "C 2/C"
_symmetry_group_IT_number 15
_symmetry_cell_setting 'monoclinic'
loop_
_space_group_symop_operation_xyz
x,y,z
-x,y,1/2-z
-x,-y,-z
x,-y,1/2+z
1/2+x,1/2+y,z
1/2-x,1/2+y,1/2-z
1/2-x,1/2-y,-z
1/2+x,1/2-y,1/2+z
loop_
_atom_site_type_symbol
_atom_site_label
_atom_site_fract_x
_atom_site_fract_y
_atom_site_fract_z
Si Si1 0.703037 0.837166 0.655683
Si Si2 0.561279 0.400267 0.147064
Si Si3 0.185822 0.265981 0.283927
Si Si4 0.772456 0.039143 0.006921
Si Si5 0.101637 0.051185 0.306416
Si Si6 0.231680 0.118613 0.861913
Si Si7 0.379904 0.727382 0.680714
Si Si8 0.064293 0.197391 0.157138
O O1 0.764330 0.800104 0.727633
O O2 0.692477 0.798404 0.472844
O O3 0.717736 0.923187 0.613727
O O4 0.647464 0.807422 0.768174
O O5 0.500000 0.393592 0.250000
O O6 0.596333 0.467482 0.239690
O O7 0.595695 0.321414 0.161904
O O8 0.554340 0.427419 0.955543
O O9 0.208789 0.330314 0.154162
O O10 0.118676 0.239359 0.251683
O O11 0.834275 0.059646 0.103012
O O12 0.768096 0.949181 0.005309
O O13 0.773482 0.077319 0.822203
O O14 0.085860 0.110312 0.161338
O O15 0.176206 0.176169 0.883335
O O16 0.430731 0.726614 0.535009
O O17 0.000000 0.206913 0.250000
#
# Coordination Sequence:
#
# PCOD9287213 Si02
#       8
#     8   8   8   8   8   8   8   8
#     4   9  19  36  60  78 108 143 181 228 284 326
#     4  12  23  36  51  72 108 154 197 225 259 314
#     4   9  19  38  56  80 108 144 182 227 277 328
#     4  11  19  35  56  84 111 145 171 224 283 325
#     4  12  21  36  51  75 109 153 186 229 261 321
#     4  10  22  34  57  82 110 140 182 224 279 330
#     4  11  22  36  52  82 106 146 191 226 273 320
#     4  12  25  38  54  79 113 151 189 228 273 322
#
# _framework density 20.566009000000001
#
# number of rings (size 3 to 8) (size 9 to 14) (size 15 to 20)
#    0.000    1.250    3.750    3.750    1.750    3.000 
#    0.000    0.000    0.000    0.000    0.000    8.750 
#    0.000    0.000    0.000    0.000    0.000    0.000 
#
# Total GULP energy -178973.506788 kJ/mol
# GULP energy per Si atom -5592.922087 kJ/mol
# Density = 2.051920 g / cm^3
# Si number density = 20.566009 Si / 1000 Ang^3
#
#
#
# Elastic Constant Matrix: (Units=GPa)
#
#
# Indices 1 2 3 4 5 6 
#
# 1 82.8199 33.2156 5.8622 0.0000 -17.6251 0.0000
# 2 33.2156 53.7102 -0.5010 0.0000 -8.7739 0.0000
# 3 5.8622 -0.5010 59.8075 0.0000 -17.5332 0.0000
# 4 0.0000 0.0000 0.0000 24.2056 0.0000 -1.1973
# 5 -17.6251 -8.7739 -17.5332 0.0000 32.2017 0.0000
# 6 0.0000 0.0000 0.0000 -1.1973 0.0000 22.7642
#
#
#
# Elastic Compliance Matrix: (Units=1/GPa)
#
#
# Indices 1 2 3 4 5 6 
#
# 1 0.017413 -0.009611 0.000284 0.000000 0.007067 0.000000
# 2 -0.009611 0.025004 0.001912 0.000000 0.002593 0.000000
# 3 0.000284 0.001912 0.020118 0.000000 0.011630 0.000000
# 4 0.000000 0.000000 0.000000 0.041421 0.000000 0.002179
# 5 0.007067 0.002593 0.011630 0.000000 0.041961 0.000000
# 6 0.000000 0.000000 0.000000 0.002179 0.000000 0.044043
#
#
# Mechanical properties :
#
#
# Convention : Reuss Voigt Hill
#
# Bulk Modulus (GPa) = 20.96264 30.38790 25.67527
# Shear Modulus (GPa) = 22.65604 26.35169 24.50387
#
# Velocity S-wave (km/s) = 3.32268 3.58344 3.45552
# Velocity P-wave (km/s) = 4.99352 5.65060 5.33219
#
# Compressibility (1/GPa) = 0.04770393
#
# Stress axis : x y z
#
# Youngs Moduli (GPa) = 57.42871 39.99396 49.70666
#
# Poissons Ratio (x) = 0.38440 -0.01414
# Poissons Ratio (y) = 0.55197 -0.09502
# Poissons Ratio (z) = -0.01633 -0.07646
#
# Static dielectric constant tensor:
#      x y z
#    x 1.750480 0.000000 -0.006080 
#    y 0.000000 1.734290 0.000000 
#    z -0.006080 0.000000 1.833400 
# 
# From -- ./inp_files/56615.got.cif
#   From: 2010.05.17/outbox.cif.g08.bks.cpg/sg15_29_cif.got.tgz:56615.got - 2010.06.03 18:47:42.
