data_PCOD9287988
_publ_section_title
;
Structure prediction by ZEFSAII (Michael W. Deem and Ramdas Pophale) SiO2 
 PCOD9287988
Probable space group: C 2/C
;
_chemical_formula_sum "Si O2"
_cell_formula_units_Z 56
_cell_length_a 29.709360
_cell_length_b 11.852922
_cell_length_c 8.673671
_cell_angle_alpha 90.000000
_cell_angle_beta 118.326624
_cell_angle_gamma 90.000000
_cell_volume 2688.630592
_symmetry_space_group_name_H-M "C 2/C"
_symmetry_group_IT_number 15
_symmetry_cell_setting 'monoclinic'
loop_
_space_group_symop_operation_xyz
x,y,z
-x,y,1/2-z
-x,-y,-z
x,-y,1/2+z
1/2+x,1/2+y,z
1/2-x,1/2+y,1/2-z
1/2-x,1/2-y,-z
1/2+x,1/2-y,1/2+z
loop_
_atom_site_type_symbol
_atom_site_label
_atom_site_fract_x
_atom_site_fract_y
_atom_site_fract_z
Si Si1 0.844331 0.378407 0.541022
Si Si2 0.792540 0.051758 0.216024
Si Si3 0.949082 0.551028 0.062915
Si Si4 0.012171 0.682888 0.943368
Si Si5 0.352813 0.620397 0.599997
Si Si6 0.967990 0.091651 0.851524
Si Si7 0.218080 0.554560 0.845206
O O1 0.899936 0.421258 0.580938
O O2 0.848672 0.254444 0.621320
O O3 0.816905 0.468739 0.610038
O O4 0.814402 0.371310 0.327485
O O5 0.836426 0.105272 0.393844
O O6 0.816534 0.946428 0.160760
O O7 0.752382 0.015893 0.281439
O O8 0.758060 0.112311 0.029004
O O9 0.000000 0.558876 0.250000
O O10 0.949773 0.423890 0.000459
O O11 0.960968 0.637149 0.944172
O O12 0.000000 0.714693 0.750000
O O13 0.033292 0.790320 0.062230
O O14 0.409139 0.567837 0.715435
O O15 0.000000 0.110102 0.750000
O O16 0.000000 0.000000 0.000000
#
# Coordination Sequence:
#
# PCOD9287988 Si02
#       7
#     8   8   8   8   8   8   8
#     4  11  23  39  66 101 130 176 220 272 350 394
#     4   9  21  44  62  93 126 169 229 274 341 392
#     4  10  22  39  62  93 139 174 213 265 322 411
#     4  10  22  38  61  93 133 179 210 264 325 381
#     4  11  23  41  71  92 128 182 219 273 336 407
#     4  12  25  43  66  98 136 174 224 275 323 393
#     4   9  22  40  64  94 132 163 219 298 323 403
#
# _framework density 20.828448000000002
#
# number of rings (size 3 to 8) (size 9 to 14) (size 15 to 20)
#    0.000    1.714    0.000    3.429    8.000    6.286 
#    0.000    5.714    0.000    0.000    0.000    0.000 
#    0.000    0.000    0.000    0.000    0.000    0.000 
#
# Total GULP energy -156230.216593 kJ/mol
# GULP energy per Si atom -5579.650593 kJ/mol
# Density = 2.078104 g / cm^3
# Si number density = 20.828448 Si / 1000 Ang^3
#
#
#
# Elastic Constant Matrix: (Units=GPa)
#
#
# Indices 1 2 3 4 5 6 
#
# 1 130.5054 32.3932 43.6859 0.0000 -2.8566 0.0000
# 2 32.3932 83.3963 28.7582 0.0000 2.9413 0.0000
# 3 43.6859 28.7582 133.0870 0.0000 -0.8888 0.0000
# 4 0.0000 0.0000 0.0000 -1.7729 0.0000 2.3756
# 5 -2.8566 2.9413 -0.8888 0.0000 40.5181 0.0000
# 6 0.0000 0.0000 0.0000 2.3756 0.0000 6.4905
#
#
#
# Elastic Compliance Matrix: (Units=1/GPa)
#
#
# Indices 1 2 3 4 5 6 
#
# 1 0.009171 -0.002760 -0.002409 0.000000 0.000794 0.000000
# 2 -0.002760 0.013828 -0.002090 0.000000 -0.001244 0.000000
# 3 -0.002409 -0.002090 0.008757 0.000000 0.000174 0.000000
# 4 0.000000 0.000000 0.000000 -0.378451 0.000000 0.138515
# 5 0.000794 -0.001244 0.000174 0.000000 0.024830 0.000000
# 6 0.000000 0.000000 0.000000 0.138515 0.000000 0.103374
#
#
# Mechanical properties :
#
#
# Convention : Reuss Voigt Hill
#
# Bulk Modulus (GPa) = 58.00978 61.85146 59.93062
# Shear Modulus (GPa) = -25.22373 25.19056 -0.01659
#
# Velocity S-wave (km/s) = -3.48375 3.48146 -0.08934
# Velocity P-wave (km/s) = 3.42486 6.77649 5.36892
#
# Compressibility (1/GPa) = 0.01723847
#
# Stress axis : x y z
#
# Youngs Moduli (GPa) = 109.03659 72.31911 114.18852
#
# Poissons Ratio (x) = 0.19958 0.27506
# Poissons Ratio (y) = 0.30091 0.23870
# Poissons Ratio (z) = 0.26265 0.15118
#
# Static dielectric constant tensor:
#      x y z
#    x 1.719030 0.000000 0.040830 
#    y 0.000000 1.785400 0.000000 
#    z 0.040830 0.000000 1.842980 
# 
# From -- ./inp_files/69441.got.cif
#   From: 2010.05.17/outbox.cif.g08.bks.cpg/sg15_35_cif.got.tgz:69441.got - 2010.06.03 18:47:42.
