data_PCOD9287321
_publ_section_title
;
Structure prediction by ZEFSAII (Michael W. Deem and Ramdas Pophale) SiO2 
 PCOD9287321
Probable space group: C 2/C
;
_chemical_formula_sum "Si O2"
_cell_formula_units_Z 48
_cell_length_a 12.226354
_cell_length_b 23.180036
_cell_length_c 13.257972
_cell_angle_alpha 90.000000
_cell_angle_beta 136.036519
_cell_angle_gamma 90.000000
_cell_volume 2608.390536
_symmetry_space_group_name_H-M "C 2/C"
_symmetry_group_IT_number 15
_symmetry_cell_setting 'monoclinic'
loop_
_space_group_symop_operation_xyz
x,y,z
-x,y,1/2-z
-x,-y,-z
x,-y,1/2+z
1/2+x,1/2+y,z
1/2-x,1/2+y,1/2-z
1/2-x,1/2-y,-z
1/2+x,1/2-y,1/2+z
loop_
_atom_site_type_symbol
_atom_site_label
_atom_site_fract_x
_atom_site_fract_y
_atom_site_fract_z
Si Si1 0.252667 0.080057 0.613714
Si Si2 0.769578 0.790071 0.414676
Si Si3 0.827694 0.542321 0.096596
Si Si4 0.674353 0.971730 0.124726
Si Si5 0.873266 0.073090 0.344950
Si Si6 0.410527 0.306380 0.798879
O O1 0.295846 0.145499 0.613894
O O2 0.323856 0.027905 0.596124
O O3 0.307187 0.067870 0.764422
O O4 0.062875 0.072743 0.476685
O O5 0.750000 0.750000 0.500000
O O6 0.687969 0.751857 0.275917
O O7 0.955719 0.798201 0.528133
O O8 0.700672 0.562979 0.093824
O O9 0.000000 0.560180 0.250000
O O10 0.796529 0.559824 0.961544
O O11 0.801533 0.022425 0.228845
O O12 0.500000 0.000000 0.000000
O O13 0.822411 0.134735 0.265807
O O14 0.500000 0.315704 0.750000
#
# Coordination Sequence:
#
# PCOD9287321 Si02
#       6
#     8   8   8   8   8   8
#     4  10  22  37  54  85 118 142 187 231 280 345
#     4   9  19  34  53  81 109 143 177 225 282 327
#     4  11  21  36  54  82 115 143 190 230 274 339
#     4  11  21  35  55  82 110 154 187 228 286 325
#     4  10  22  36  53  82 113 148 183 226 282 333
#     4   9  19  35  53  80 110 139 179 223 278 335
#
# _framework density 18.402152000000001
#
# number of rings (size 3 to 8) (size 9 to 14) (size 15 to 20)
#    0.000    2.000    3.333    2.000    7.000    5.333 
#    0.000    0.000    0.000    1.000    0.000    0.000 
#    0.000    0.000    0.000    0.000    0.000    0.000 
#
# Total GULP energy -133787.055792 kJ/mol
# GULP energy per Si atom -5574.460658 kJ/mol
# Density = 1.836027 g / cm^3
# Si number density = 18.402152 Si / 1000 Ang^3
#
#
#
# Elastic Constant Matrix: (Units=GPa)
#
#
# Indices 1 2 3 4 5 6 
#
# 1 45.0046 2.2497 12.0365 0.0000 -5.7854 0.0000
# 2 2.2497 97.2899 9.7560 0.0000 1.3361 0.0000
# 3 12.0365 9.7560 75.8186 0.0000 -1.9432 0.0000
# 4 0.0000 0.0000 0.0000 24.1295 0.0000 -0.8814
# 5 -5.7854 1.3361 -1.9432 0.0000 28.1874 0.0000
# 6 0.0000 0.0000 0.0000 -0.8814 0.0000 14.2630
#
#
#
# Elastic Compliance Matrix: (Units=1/GPa)
#
#
# Indices 1 2 3 4 5 6 
#
# 1 0.023800 -0.000250 -0.003627 0.000000 0.004647 0.000000
# 2 -0.000250 0.010425 -0.001318 0.000000 -0.000636 0.000000
# 3 -0.003627 -0.001318 0.013942 0.000000 0.000279 0.000000
# 4 0.000000 0.000000 0.000000 0.041537 0.000000 0.002567
# 5 0.004647 -0.000636 0.000279 0.000000 0.036480 0.000000
# 6 0.000000 0.000000 0.000000 0.002567 0.000000 0.070270
#
#
# Mechanical properties :
#
#
# Convention : Reuss Voigt Hill
#
# Bulk Modulus (GPa) = 26.47177 29.57751 28.02464
# Shear Modulus (GPa) = 22.78559 26.25404 24.51982
#
# Velocity S-wave (km/s) = 3.52263 3.78124 3.65422
# Velocity P-wave (km/s) = 5.56431 5.93056 5.75035
#
# Compressibility (1/GPa) = 0.03777609
#
# Stress axis : x y z
#
# Youngs Moduli (GPa) = 42.01704 95.92088 71.72601
#
# Poissons Ratio (x) = 0.02402 0.26015
# Poissons Ratio (y) = 0.01052 0.09454
# Poissons Ratio (z) = 0.15240 0.12643
#
# Static dielectric constant tensor:
#      x y z
#    x 1.676860 0.000000 -0.008000 
#    y 0.000000 1.690750 0.000000 
#    z -0.008000 0.000000 1.710170 
# 
# From -- ./inp_files/147469.got.cif
#   From: 2010.05.17/outbox.cif.g08.bks.cpg/sg15_74_cif.got.tgz:147469.got - 2010.06.03 18:47:42.
