data_PCOD9287284
_publ_section_title
;
Structure prediction by ZEFSAII (Michael W. Deem and Ramdas Pophale) SiO2 
 PCOD9287284
Probable space group: C 2/C
;
_chemical_formula_sum "Si O2"
_cell_formula_units_Z 36
_cell_length_a 11.390335
_cell_length_b 27.524942
_cell_length_c 5.605012
_cell_angle_alpha 90.000000
_cell_angle_beta 85.290790
_cell_angle_gamma 90.000000
_cell_volume 1751.341691
_symmetry_space_group_name_H-M "C 2/C"
_symmetry_group_IT_number 15
_symmetry_cell_setting 'monoclinic'
loop_
_space_group_symop_operation_xyz
x,y,z
-x,y,1/2-z
-x,-y,-z
x,-y,1/2+z
1/2+x,1/2+y,z
1/2-x,1/2+y,1/2-z
1/2-x,1/2-y,-z
1/2+x,1/2-y,1/2+z
loop_
_atom_site_type_symbol
_atom_site_label
_atom_site_fract_x
_atom_site_fract_y
_atom_site_fract_z
Si Si1 0.858588 0.526783 0.788084
Si Si2 0.500000 0.344680 0.750000
Si Si3 0.779679 0.122503 0.533135
Si Si4 0.635095 0.798695 0.771890
Si Si5 0.156350 0.194938 0.620960
O O1 0.830856 0.508855 0.520751
O O2 0.791525 0.575486 0.878647
O O3 0.000000 0.534326 0.750000
O O4 0.612125 0.378664 0.670100
O O5 0.444168 0.308398 0.561694
O O6 0.691655 0.164849 0.453009
O O7 0.846725 0.144247 0.746976
O O8 0.500000 0.811579 0.750000
O O9 0.716157 0.803478 0.524060
O O10 0.643613 0.740444 0.801853
#
# Coordination Sequence:
#
# PCOD9287284 Si02
#       5
#     8   4   8   8   8
#     4  10  25  46  72 100 136 170 218 288 356 404
#     4  10  22  40  62  92 130 180 216 272 332 392
#     4  11  23  39  68  91 128 173 224 271 334 404
#     4  10  22  35  59  95 130 170 222 270 326 391
#     4  10  22  39  59  89 136 174 218 268 328 392
#
# _framework density 20.555671
#
# number of rings (size 3 to 8) (size 9 to 14) (size 15 to 20)
#    0.000    1.778    0.000    2.667    9.333    4.444 
#    0.000    1.111    0.000    0.000    0.000    0.000 
#    0.000    0.000    0.000    0.000    0.000    0.000 
#
# Total GULP energy -100247.974477 kJ/mol
# GULP energy per Si atom -5569.331915 kJ/mol
# Density = 2.050889 g / cm^3
# Si number density = 20.555671 Si / 1000 Ang^3
#
#
#
# Elastic Constant Matrix: (Units=GPa)
#
#
# Indices 1 2 3 4 5 6 
#
# 1 136.8764 49.1799 48.5006 0.0000 -10.2404 0.0000
# 2 49.1799 109.2833 48.3864 0.0000 -9.6555 0.0000
# 3 48.5006 48.3864 85.0918 0.0000 -6.9221 0.0000
# 4 0.0000 0.0000 0.0000 25.4378 0.0000 -12.1391
# 5 -10.2404 -9.6555 -6.9221 0.0000 40.2777 0.0000
# 6 0.0000 0.0000 0.0000 -12.1391 0.0000 35.9410
#
#
#
# Elastic Compliance Matrix: (Units=1/GPa)
#
#
# Indices 1 2 3 4 5 6 
#
# 1 0.009714 -0.002483 -0.004028 0.000000 0.001182 0.000000
# 2 -0.002483 0.012989 -0.005850 0.000000 0.001477 0.000000
# 3 -0.004028 -0.005850 0.017421 0.000000 0.000567 0.000000
# 4 0.000000 0.000000 0.000000 0.046865 0.000000 0.015829
# 5 0.001182 0.001477 0.000567 0.000000 0.025580 0.000000
# 6 0.000000 0.000000 0.000000 0.015829 0.000000 0.033170
#
#
# Mechanical properties :
#
#
# Convention : Reuss Voigt Hill
#
# Bulk Modulus (GPa) = 64.93718 69.26505 67.10112
# Shear Modulus (GPa) = 28.47443 32.67693 30.57568
#
# Velocity S-wave (km/s) = 3.72591 3.99140 3.86094
# Velocity P-wave (km/s) = 7.08303 7.41695 7.25192
#
# Compressibility (1/GPa) = 0.01539950
#
# Stress axis : x y z
#
# Youngs Moduli (GPa) = 102.94368 76.98863 57.40194
#
# Poissons Ratio (x) = 0.19120 0.23124
# Poissons Ratio (y) = 0.25566 0.33582
# Poissons Ratio (z) = 0.41470 0.45041
#
# Static dielectric constant tensor:
#      x y z
#    x 1.744890 0.000000 -0.034990 
#    y 0.000000 1.726390 0.000000 
#    z -0.034990 0.000000 1.868950 
# 
# From -- ./inp_files/4272.got.cif
#   From: 2010.05.17/outbox.cif.g08.bks.cpg/sg15_3_cif.got.tgz:4272.got - 2010.06.03 18:47:42.
