data_PCOD9287723
_publ_section_title
;
Structure prediction by ZEFSAII (Michael W. Deem and Ramdas Pophale) SiO2 
 PCOD9287723
Probable space group: C 2/C
;
_chemical_formula_sum "Si O2"
_cell_formula_units_Z 48
_cell_length_a 17.421578
_cell_length_b 8.954956
_cell_length_c 26.465009
_cell_angle_alpha 90.000000
_cell_angle_beta 41.522404
_cell_angle_gamma 90.000000
_cell_volume 2737.029221
_symmetry_space_group_name_H-M "C 2/C"
_symmetry_group_IT_number 15
_symmetry_cell_setting 'monoclinic'
loop_
_space_group_symop_operation_xyz
x,y,z
-x,y,1/2-z
-x,-y,-z
x,-y,1/2+z
1/2+x,1/2+y,z
1/2-x,1/2+y,1/2-z
1/2-x,1/2-y,-z
1/2+x,1/2-y,1/2+z
loop_
_atom_site_type_symbol
_atom_site_label
_atom_site_fract_x
_atom_site_fract_y
_atom_site_fract_z
Si Si1 0.737454 0.760025 0.835555
Si Si2 0.474209 0.550696 0.569407
Si Si3 0.197611 0.200416 0.312956
Si Si4 0.206387 0.195426 0.468322
Si Si5 0.632281 0.053482 0.924754
Si Si6 0.637694 0.964371 0.690337
O O1 0.609386 0.691472 0.893481
O O2 0.778055 0.781378 0.757931
O O3 0.817494 0.633302 0.821732
O O4 0.718196 0.912315 0.875927
O O5 0.500000 0.500000 0.500000
O O6 0.402379 0.422340 0.631633
O O7 0.595121 0.593117 0.533401
O O8 0.151686 0.348596 0.364075
O O9 0.308436 0.133984 0.289565
O O10 0.250000 0.250000 0.500000
O O11 0.167680 0.334070 0.452139
O O12 0.298630 0.102141 0.390254
O O13 0.500000 0.000000 0.000000
O O14 0.500000 0.956423 0.750000
#
# Coordination Sequence:
#
# PCOD9287723 Si02
#       6
#     8   8   8   8   8   8
#     4  11  21  38  63  90 119 155 205 247 300 355
#     4  11  18  41  63  85 120 160 204 246 290 361
#     4  10  22  37  65  93 116 162 203 245 303 363
#     4  11  24  40  61  89 119 164 201 245 307 359
#     4  11  20  37  64  93 117 150 207 252 289 359
#     4  10  23  42  59  84 128 159 195 250 310 354
#
# _framework density 17.537261000000001
#
# number of rings (size 3 to 8) (size 9 to 14) (size 15 to 20)
#    0.000    1.333    6.667    2.000    2.333    1.333 
#    3.000    1.667    0.000    0.000    0.000    0.000 
#    0.000    0.000    0.000    0.000    0.000    0.000 
#
# Total GULP energy -133879.376348 kJ/mol
# GULP energy per Si atom -5578.307348 kJ/mol
# Density = 1.749735 g / cm^3
# Si number density = 17.537261 Si / 1000 Ang^3
#
#
#
# Elastic Constant Matrix: (Units=GPa)
#
#
# Indices 1 2 3 4 5 6 
#
# 1 119.5593 45.5106 74.5549 0.0000 -18.1954 0.0001
# 2 45.5106 107.4978 56.3351 0.0000 -8.1004 0.0001
# 3 74.5549 56.3351 127.3866 0.0000 -2.6258 0.0000
# 4 0.0000 0.0000 0.0000 33.2628 0.0000 -3.5711
# 5 -18.1954 -8.1004 -2.6258 0.0000 38.3730 0.0000
# 6 0.0001 0.0001 0.0000 -3.5711 0.0000 21.8021
#
#
#
# Elastic Compliance Matrix: (Units=1/GPa)
#
#
# Indices 1 2 3 4 5 6 
#
# 1 0.014800 -0.001733 -0.007769 0.000000 0.006120 0.000000
# 2 -0.001733 0.012499 -0.004482 0.000000 0.001510 0.000000
# 3 -0.007769 -0.004482 0.014304 0.000000 -0.003651 0.000000
# 4 0.000000 0.000000 0.000000 0.030602 0.000000 0.005012
# 5 0.006120 0.001510 -0.003651 0.000000 0.029031 0.000000
# 6 0.000000 0.000000 0.000000 0.005012 0.000000 0.046688
#
#
# Mechanical properties :
#
#
# Convention : Reuss Voigt Hill
#
# Bulk Modulus (GPa) = 73.34540 78.58274 75.96407
# Shear Modulus (GPa) = 27.71045 30.55711 29.13378
#
# Velocity S-wave (km/s) = 3.97935 4.17875 4.08027
# Velocity P-wave (km/s) = 7.93895 8.25765 8.09987
#
# Compressibility (1/GPa) = 0.01363412
#
# Stress axis : x y z
#
# Youngs Moduli (GPa) = 67.56778 80.00728 69.90985
#
# Poissons Ratio (x) = 0.13865 0.54315
# Poissons Ratio (y) = 0.11709 0.31334
# Poissons Ratio (z) = 0.52496 0.35860
#
# Static dielectric constant tensor:
#      x y z
#    x 1.572590 0.000000 0.008610 
#    y 0.000000 1.619110 0.000000 
#    z 0.008610 0.000000 1.596600 
# 
# From -- ./inp_files/247265.got.cif
#   From: 2010.05.17/outbox.cif.g08.bks.cpg/sg15_124_cif.got.tgz:247265.got - 2010.06.03 18:47:42.
