data_PCOD9287873
_publ_section_title
;
Structure prediction by ZEFSAII (Michael W. Deem and Ramdas Pophale) SiO2 
 PCOD9287873
Probable space group: C 2/C
;
_chemical_formula_sum "Si O2"
_cell_formula_units_Z 52
_cell_length_a 15.578607
_cell_length_b 25.937281
_cell_length_c 9.051092
_cell_angle_alpha 90.000000
_cell_angle_beta 141.734307
_cell_angle_gamma 90.000000
_cell_volume 2264.964781
_symmetry_space_group_name_H-M "C 2/C"
_symmetry_group_IT_number 15
_symmetry_cell_setting 'monoclinic'
loop_
_space_group_symop_operation_xyz
x,y,z
-x,y,1/2-z
-x,-y,-z
x,-y,1/2+z
1/2+x,1/2+y,z
1/2-x,1/2+y,1/2-z
1/2-x,1/2-y,-z
1/2+x,1/2-y,1/2+z
loop_
_atom_site_type_symbol
_atom_site_label
_atom_site_fract_x
_atom_site_fract_y
_atom_site_fract_z
Si Si1 0.202393 0.627528 0.683444
Si Si2 0.802858 0.635429 0.163666
Si Si3 0.124240 0.791470 0.800849
Si Si4 0.993866 0.719058 0.068617
Si Si5 0.485402 0.398301 0.893696
Si Si6 0.495134 0.055282 0.918353
Si Si7 0.500000 0.400528 0.250000
O O1 0.155959 0.622284 0.450232
O O2 0.126958 0.678688 0.636797
O O3 0.142364 0.582328 0.702732
O O4 0.366364 0.630598 0.902423
O O5 0.865077 0.690911 0.291243
O O6 0.877582 0.591899 0.361005
O O7 0.639645 0.631891 0.941142
O O8 0.000000 0.782504 0.750000
O O9 0.049122 0.772773 0.551721
O O10 0.134261 0.853958 0.788859
O O11 0.250000 0.750000 0.000000
O O12 0.000000 0.722680 0.250000
O O13 0.500000 0.426480 0.750000
O O14 0.486745 0.425007 0.061053
O O15 0.500000 0.050616 0.750000
O O16 0.500000 0.000000 0.000000
#
# Coordination Sequence:
#
# PCOD9287873 Si02
#       7
#     8   8   8   8   8   8   4
#     4   9  19  40  57  86 123 162 197 263 319 368
#     4   9  20  38  60  88 122 158 206 256 308 383
#     4  11  24  38  53  84 121 166 212 277 323 371
#     4   9  18  34  58  81 112 156 208 258 315 365
#     4  10  22  38  59  82 127 164 211 264 314 378
#     4  11  22  37  68  99 123 158 201 256 314 386
#     4  10  22  38  62  88 116 172 206 254 316 378
#
# _framework density 22.958414000000001
#
# number of rings (size 3 to 8) (size 9 to 14) (size 15 to 20)
#    0.000    2.154    0.000    4.154    5.385    2.462 
#    0.000    3.077    1.692    2.769    0.000    0.000 
#    0.000    0.000    0.000    0.000    0.000    0.000 
#
# Total GULP energy -144753.718349 kJ/mol
# GULP energy per Si atom -5567.450706 kJ/mol
# Density = 2.290616 g / cm^3
# Si number density = 22.958414 Si / 1000 Ang^3
#
#
#
# Elastic Constant Matrix: (Units=GPa)
#
#
# Indices 1 2 3 4 5 6 
#
# 1 102.0028 27.2059 41.1531 0.0000 -16.3669 0.0000
# 2 27.2059 67.6078 22.9870 0.0000 -20.6436 0.0000
# 3 41.1531 22.9870 107.7743 0.0000 -10.5414 0.0000
# 4 0.0000 0.0000 0.0000 13.8660 0.0000 -8.5160
# 5 -16.3669 -20.6436 -10.5414 0.0000 70.4612 0.0000
# 6 0.0000 0.0000 0.0000 -8.5160 0.0000 17.6044
#
#
#
# Elastic Compliance Matrix: (Units=1/GPa)
#
#
# Indices 1 2 3 4 5 6 
#
# 1 0.012481 -0.003271 -0.003936 0.000000 0.001352 0.000000
# 2 -0.003271 0.018149 -0.002208 0.000000 0.004227 0.000000
# 3 -0.003936 -0.002208 0.011265 0.000000 0.000124 0.000000
# 4 0.000000 0.000000 0.000000 0.102601 0.000000 0.049633
# 5 0.001352 0.004227 0.000124 0.000000 0.015763 0.000000
# 6 0.000000 0.000000 0.000000 0.049633 0.000000 0.080813
#
#
# Mechanical properties :
#
#
# Convention : Reuss Voigt Hill
#
# Bulk Modulus (GPa) = 43.35844 51.11965 47.23905
# Shear Modulus (GPa) = 18.68516 32.78892 25.73704
#
# Velocity S-wave (km/s) = 2.85594 3.78324 3.35181
# Velocity P-wave (km/s) = 5.45910 6.43416 5.96658
#
# Compressibility (1/GPa) = 0.02306356
#
# Stress axis : x y z
#
# Youngs Moduli (GPa) = 80.12155 55.09879 88.77303
#
# Poissons Ratio (x) = 0.18026 0.34940
# Poissons Ratio (y) = 0.26212 0.19604
# Poissons Ratio (z) = 0.31534 0.12168
#
# Static dielectric constant tensor:
#      x y z
#    x 2.041090 0.000000 -0.036650 
#    y 0.000000 1.834480 0.000000 
#    z -0.036650 0.000000 1.959560 
# 
# From -- ./inp_files/44916.got.cif
#   From: 2010.05.17/outbox.cif.g08.bks.cpg/sg15_23_cif.got.tgz:44916.got - 2010.06.03 18:47:42.
