data_PCOD9287750
_publ_section_title
;
Structure prediction by ZEFSAII (Michael W. Deem and Ramdas Pophale) SiO2 
 PCOD9287750
Probable space group: C 2/C
;
_chemical_formula_sum "Si O2"
_cell_formula_units_Z 48
_cell_length_a 27.516901
_cell_length_b 14.780989
_cell_length_c 5.040037
_cell_angle_alpha 90.000000
_cell_angle_beta 90.444213
_cell_angle_gamma 90.000000
_cell_volume 2049.857576
_symmetry_space_group_name_H-M "C 2/C"
_symmetry_group_IT_number 15
_symmetry_cell_setting 'monoclinic'
loop_
_space_group_symop_operation_xyz
x,y,z
-x,y,1/2-z
-x,-y,-z
x,-y,1/2+z
1/2+x,1/2+y,z
1/2-x,1/2+y,1/2-z
1/2-x,1/2-y,-z
1/2+x,1/2-y,1/2+z
loop_
_atom_site_type_symbol
_atom_site_label
_atom_site_fract_x
_atom_site_fract_y
_atom_site_fract_z
Si Si1 0.899567 0.440166 0.197839
Si Si2 0.606507 0.646428 0.708762
Si Si3 0.227321 0.445079 0.684775
Si Si4 0.666790 0.617115 0.192199
Si Si5 0.000000 0.799034 0.250000
Si Si6 0.000000 0.665182 0.750000
Si Si7 0.661407 0.802498 0.965946
O O1 0.892958 0.525567 0.397347
O O2 0.865081 0.363868 0.318853
O O3 0.953252 0.398820 0.226383
O O4 0.627843 0.626414 0.423285
O O5 0.548900 0.641794 0.729879
O O6 0.621351 0.750114 0.785307
O O7 0.637063 0.588948 0.927120
O O8 0.214992 0.473920 0.387678
O O9 0.285120 0.433490 0.717361
O O10 0.198461 0.358973 0.790476
O O11 0.685696 0.717995 0.116555
O O12 0.003315 0.732277 0.500800
#
# Coordination Sequence:
#
# PCOD9287750 Si02
#       7
#     8   8   8   8   4   4   8
#     4  12  24  36  52  80 121 168 212 251 295 346
#     4  10  22  37  67  88 126 154 210 259 298 358
#     4  12  26  42  65  94 127 162 204 256 312 376
#     4  10  23  42  64  93 120 168 203 255 314 356
#     4  12  20  39  62  96 114 165 210 260 300 353
#     4  12  22  37  54  76 126 171 214 246 304 347
#     4  10  24  40  63  88 124 165 209 253 301 355
#
# _framework density 23.416262
#
# number of rings (size 3 to 8) (size 9 to 14) (size 15 to 20)
#    1.000    0.000    1.667    6.000    4.667    0.667 
#    0.000    0.000    0.000    0.000    0.000   11.667 
#    0.000    0.000    0.000    0.000    0.000    0.000 
#
# Total GULP energy -134385.302070 kJ/mol
# GULP energy per Si atom -5599.387586 kJ/mol
# Density = 2.336297 g / cm^3
# Si number density = 23.416262 Si / 1000 Ang^3
#
#
#
# Elastic Constant Matrix: (Units=GPa)
#
#
# Indices 1 2 3 4 5 6 
#
# 1 131.7745 15.3643 8.4120 0.0000 -18.3898 0.0000
# 2 15.3643 52.6424 -0.2080 0.0000 -3.2001 0.0000
# 3 8.4120 -0.2080 98.8490 0.0000 -4.1096 0.0000
# 4 0.0000 0.0000 0.0000 10.7372 0.0000 11.2537
# 5 -18.3898 -3.2001 -4.1096 0.0000 34.0605 0.0000
# 6 0.0000 0.0000 0.0000 11.2537 0.0000 32.1531
#
#
#
# Elastic Compliance Matrix: (Units=1/GPa)
#
#
# Indices 1 2 3 4 5 6 
#
# 1 0.008483 -0.002216 -0.000548 0.000000 0.004306 0.000000
# 2 -0.002216 0.019686 0.000258 0.000000 0.000684 0.000000
# 3 -0.000548 0.000258 0.010203 0.000000 0.000960 0.000000
# 4 0.000000 0.000000 0.000000 0.147093 0.000000 -0.051483
# 5 0.004306 0.000684 0.000960 0.000000 0.031864 0.000000
# 6 0.000000 0.000000 0.000000 -0.051483 0.000000 0.049120
#
#
# Mechanical properties :
#
#
# Convention : Reuss Voigt Hill
#
# Bulk Modulus (GPa) = 29.97486 36.71140 33.34313
# Shear Modulus (GPa) = 17.69404 32.70333 25.19868
#
# Velocity S-wave (km/s) = 2.75186 3.74118 3.28398
# Velocity P-wave (km/s) = 4.78807 5.86290 5.35253
#
# Compressibility (1/GPa) = 0.03336129
#
# Stress axis : x y z
#
# Youngs Moduli (GPa) = 117.88308 50.79871 98.00578
#
# Poissons Ratio (x) = 0.11258 0.05366
# Poissons Ratio (y) = 0.26126 -0.02533
# Poissons Ratio (z) = 0.06455 -0.01313
#
# Static dielectric constant tensor:
#      x y z
#    x 1.855640 0.000000 0.020260 
#    y 0.000000 1.898340 0.000000 
#    z 0.020260 0.000000 1.814550 
# 
# From -- ./inp_files/18131.got.cif
#   From: 2010.05.17/outbox.cif.g08.bks.cpg/sg15_10_cif.got.tgz:18131.got - 2010.06.03 18:47:42.
