data_PCOD9287462
_publ_section_title
;
Structure prediction by ZEFSAII (Michael W. Deem and Ramdas Pophale) SiO2 
 PCOD9287462
Probable space group: C 2/C
;
_chemical_formula_sum "Si O2"
_cell_formula_units_Z 44
_cell_length_a 24.299763
_cell_length_b 16.987801
_cell_length_c 15.217169
_cell_angle_alpha 90.000000
_cell_angle_beta 20.884597
_cell_angle_gamma 90.000000
_cell_volume 2239.322122
_symmetry_space_group_name_H-M "C 2/C"
_symmetry_group_IT_number 15
_symmetry_cell_setting 'monoclinic'
loop_
_space_group_symop_operation_xyz
x,y,z
-x,y,1/2-z
-x,-y,-z
x,-y,1/2+z
1/2+x,1/2+y,z
1/2-x,1/2+y,1/2-z
1/2-x,1/2-y,-z
1/2+x,1/2-y,1/2+z
loop_
_atom_site_type_symbol
_atom_site_label
_atom_site_fract_x
_atom_site_fract_y
_atom_site_fract_z
Si Si1 0.711814 0.892881 0.918438
Si Si2 0.657858 0.046886 0.780410
Si Si3 0.163106 0.571803 0.979222
Si Si4 0.970712 0.851529 0.982786
Si Si5 0.000000 0.941237 0.750000
Si Si6 0.027272 0.327327 0.349770
O O1 0.892144 0.880630 0.658723
O O2 0.676431 0.983241 0.998707
O O3 0.636546 0.833263 0.101162
O O4 0.627039 0.873255 0.953354
O O5 0.660580 0.059502 0.879314
O O6 0.625002 0.127658 0.777640
O O7 0.830612 0.016974 0.496683
O O8 0.500000 0.000000 0.000000
O O9 0.313670 0.624201 0.766092
O O10 0.000000 0.607077 0.250000
O O11 0.986715 0.892310 0.861817
O O12 0.984766 0.759246 0.943235
#
# Coordination Sequence:
#
# PCOD9287462 Si02
#       6
#     8   8   8   8   4   8
#     4  11  20  39  65  93 130 158 214 253 327 371
#     4  11  21  40  61  90 129 160 217 260 317 375
#     4  11  23  42  62  88 127 178 204 254 316 394
#     4  11  24  37  65  95 131 156 214 264 323 378
#     4  10  22  36  62  98 120 162 204 268 314 370
#     4  11  22  37  65  96 122 162 201 272 319 362
#
# _framework density 19.648803999999998
#
# number of rings (size 3 to 8) (size 9 to 14) (size 15 to 20)
#    0.000    1.091    5.455    2.182    5.091    0.000 
#    0.000    0.909    2.000    0.000    0.000    0.000 
#    0.000    0.000    0.000    0.000    0.000    0.000 
#
# Total GULP energy -122613.917926 kJ/mol
# GULP energy per Si atom -5573.359906 kJ/mol
# Density = 1.960408 g / cm^3
# Si number density = 19.648804 Si / 1000 Ang^3
#
#
#
# Elastic Constant Matrix: (Units=GPa)
#
#
# Indices 1 2 3 4 5 6 
#
# 1 25.5672 -1.2019 24.6160 0.0005 -22.0194 -0.0005
# 2 -1.2019 49.5305 39.0313 -0.0015 -13.4761 0.0008
# 3 24.6160 39.0313 199.8917 -0.0020 -35.0274 0.0012
# 4 0.0005 -0.0015 -0.0020 30.7847 -0.0006 -15.1457
# 5 -22.0194 -13.4761 -35.0274 -0.0006 37.0997 0.0005
# 6 -0.0005 0.0008 0.0012 -15.1457 0.0005 25.3258
#
#
#
# Elastic Compliance Matrix: (Units=1/GPa)
#
#
# Indices 1 2 3 4 5 6 
#
# 1 0.099635 0.024126 -0.006090 0.000001 0.062149 0.000001
# 2 0.024126 0.030542 -0.005370 0.000001 0.020343 0.000000
# 3 -0.006090 -0.005370 0.006981 0.000000 0.001026 0.000000
# 4 0.000001 0.000001 0.000000 0.046026 0.000002 0.027525
# 5 0.062149 0.020343 0.001026 0.000002 0.072199 0.000000
# 6 0.000001 0.000000 0.000000 0.027525 0.000000 0.055946
#
#
# Mechanical properties :
#
#
# Convention : Reuss Voigt Hill
#
# Bulk Modulus (GPa) = 6.15421 44.43113 25.29267
# Shear Modulus (GPa) = 14.69898 32.81165 23.75532
#
# Velocity S-wave (km/s) = 2.73808 4.09088 3.48083
# Velocity P-wave (km/s) = 3.62423 6.70638 5.39029
#
# Compressibility (1/GPa) = 0.16249043
#
# Stress axis : x y z
#
# Youngs Moduli (GPa) = 10.03660 32.74222 143.24607
#
# Poissons Ratio (x) = -0.78995 0.87240
# Poissons Ratio (y) = -0.24215 0.76922
# Poissons Ratio (z) = 0.06113 0.17582
#
# Static dielectric constant tensor:
#      x y z
#    x 1.721370 0.000000 -0.048330 
#    y 0.000000 1.707410 0.000000 
#    z -0.048330 0.000000 1.757680 
# 
# From -- ./inp_files/86109.got.cif
#   From: 2010.05.17/outbox.cif.g08.bks.cpg/sg15_44_cif.got.tgz:86109.got - 2010.06.03 18:47:42.
