data_PCOD9287726
_publ_section_title
;
Structure prediction by ZEFSAII (Michael W. Deem and Ramdas Pophale) SiO2 
 PCOD9287726
Probable space group: C 2/C
;
_chemical_formula_sum "Si O2"
_cell_formula_units_Z 52
_cell_length_a 21.119672
_cell_length_b 10.998227
_cell_length_c 20.179794
_cell_angle_alpha 90.000000
_cell_angle_beta 32.702462
_cell_angle_gamma 90.000000
_cell_volume 2532.460255
_symmetry_space_group_name_H-M "C 2/C"
_symmetry_group_IT_number 15
_symmetry_cell_setting 'monoclinic'
loop_
_space_group_symop_operation_xyz
x,y,z
-x,y,1/2-z
-x,-y,-z
x,-y,1/2+z
1/2+x,1/2+y,z
1/2-x,1/2+y,1/2-z
1/2-x,1/2-y,-z
1/2+x,1/2-y,1/2+z
loop_
_atom_site_type_symbol
_atom_site_label
_atom_site_fract_x
_atom_site_fract_y
_atom_site_fract_z
Si Si1 0.886584 0.283131 0.901148
Si Si2 0.332337 0.665815 0.293702
Si Si3 0.386726 0.880486 0.148494
Si Si4 0.454539 0.320224 0.481600
Si Si5 0.649472 0.486963 0.332850
Si Si6 0.500000 0.766909 0.250000
Si Si7 0.095834 0.552502 0.554585
O O1 0.884101 0.422385 0.929348
O O2 0.000000 0.271826 0.750000
O O3 0.750000 0.250000 0.000000
O O4 0.920699 0.205029 0.936103
O O5 0.330077 0.791386 0.254454
O O6 0.391772 0.569966 0.191842
O O7 0.405801 0.686620 0.294887
O O8 0.209089 0.610154 0.421414
O O9 0.423170 0.793399 0.055948
O O10 0.287577 0.971828 0.212387
O O11 0.493204 0.948267 0.090298
O O12 0.589468 0.356779 0.375193
O O13 0.388771 0.439494 0.568388
O O14 0.441955 0.853385 0.355406
#
# Coordination Sequence:
#
# PCOD9287726 Si02
#       7
#     8   8   8   8   8   4   8
#     4  12  30  47  70 100 142 191 232 278 346 421
#     4  10  22  37  65  95 125 172 220 272 347 398
#     4  10  22  40  70  98 127 170 223 290 345 402
#     4  10  24  43  67  97 135 171 227 285 338 412
#     4  10  22  41  66  98 130 168 220 287 344 400
#     4  10  22  42  64  92 134 172 224 282 328 414
#     4  11  23  43  65  97 130 175 230 282 338 408
#
# _framework density 20.533391999999999
#
# number of rings (size 3 to 8) (size 9 to 14) (size 15 to 20)
#    0.000    1.538    0.769    2.308    6.462    6.154 
#    0.000    0.000    0.000    0.000    0.000    0.000 
#    0.000    0.000    0.000    0.000    0.000    0.000 
#
# Total GULP energy -145192.299468 kJ/mol
# GULP energy per Si atom -5584.319210 kJ/mol
# Density = 2.048666 g / cm^3
# Si number density = 20.533392 Si / 1000 Ang^3
#
#
#
# Elastic Constant Matrix: (Units=GPa)
#
#
# Indices 1 2 3 4 5 6 
#
# 1 170.6436 59.5592 69.7903 0.0000 -15.9957 0.0000
# 2 59.5592 70.4157 47.3606 0.0000 -15.2696 0.0000
# 3 69.7903 47.3606 117.3770 0.0000 -8.3999 0.0000
# 4 0.0000 0.0000 0.0000 25.7077 0.0000 -2.3960
# 5 -15.9957 -15.2696 -8.3999 0.0000 32.4231 0.0000
# 6 0.0000 0.0000 0.0000 -2.3960 0.0000 28.7244
#
#
#
# Elastic Compliance Matrix: (Units=1/GPa)
#
#
# Indices 1 2 3 4 5 6 
#
# 1 0.009136 -0.005320 -0.003202 0.000000 0.001172 0.000000
# 2 -0.005320 0.024433 -0.006174 0.000000 0.007283 0.000000
# 3 -0.003202 -0.006174 0.012831 0.000000 -0.001163 0.000000
# 4 0.000000 0.000000 0.000000 0.039204 0.000000 0.003270
# 5 0.001172 0.007283 -0.001163 0.000000 0.034549 0.000000
# 6 0.000000 0.000000 0.000000 0.003270 0.000000 0.035086
#
#
# Mechanical properties :
#
#
# Convention : Reuss Voigt Hill
#
# Bulk Modulus (GPa) = 58.79353 79.09517 68.94435
# Shear Modulus (GPa) = 26.27411 29.48612 27.88012
#
# Velocity S-wave (km/s) = 3.58100 3.79358 3.68882
# Velocity P-wave (km/s) = 6.76708 7.60212 7.19672
#
# Compressibility (1/GPa) = 0.01700867
#
# Stress axis : x y z
#
# Youngs Moduli (GPa) = 109.45227 40.92817 77.93428
#
# Poissons Ratio (x) = 0.21774 0.24954
# Poissons Ratio (y) = 0.58229 0.48118
# Poissons Ratio (z) = 0.35045 0.25270
#
# Static dielectric constant tensor:
#      x y z
#    x 1.721720 0.000000 0.024890 
#    y 0.000000 1.733200 0.000000 
#    z 0.024890 0.000000 1.811920 
# 
# From -- ./inp_files/252714.got.cif
#   From: 2010.05.17/outbox.cif.g08.bks.cpg/sg15_127_cif.got.tgz:252714.got - 2010.06.03 18:47:42.
