data_PCOD9287144
_publ_section_title
;
Structure prediction by ZEFSAII (Michael W. Deem and Ramdas Pophale) SiO2 
 PCOD9287144
Probable space group: C 2/C
;
_chemical_formula_sum "Si O2"
_cell_formula_units_Z 48
_cell_length_a 15.589762
_cell_length_b 15.965866
_cell_length_c 8.889442
_cell_angle_alpha 90.000000
_cell_angle_beta 82.702956
_cell_angle_gamma 90.000000
_cell_volume 2194.698124
_symmetry_space_group_name_H-M "C 2/C"
_symmetry_group_IT_number 15
_symmetry_cell_setting 'monoclinic'
loop_
_space_group_symop_operation_xyz
x,y,z
-x,y,1/2-z
-x,-y,-z
x,-y,1/2+z
1/2+x,1/2+y,z
1/2-x,1/2+y,1/2-z
1/2-x,1/2-y,-z
1/2+x,1/2-y,1/2+z
loop_
_atom_site_type_symbol
_atom_site_label
_atom_site_fract_x
_atom_site_fract_y
_atom_site_fract_z
Si Si1 0.650684 0.030656 0.773611
Si Si2 0.500000 0.107034 0.250000
Si Si3 0.382030 0.540907 0.023492
Si Si4 0.500000 0.521312 0.750000
Si Si5 0.726068 0.683526 0.320220
Si Si6 0.113392 0.684254 0.997643
Si Si7 0.753765 0.915332 0.963439
O O1 0.619094 0.099617 0.898208
O O2 0.685722 0.075149 0.614468
O O3 0.580425 0.957315 0.757708
O O4 0.727423 0.985196 0.846029
O O5 0.475964 0.167930 0.394251
O O6 0.448555 0.535682 0.144534
O O7 0.304574 0.599901 0.086780
O O8 0.431296 0.571573 0.864232
O O9 0.345544 0.447576 0.003933
O O10 0.816482 0.701739 0.383703
O O11 0.646892 0.746108 0.372515
O O12 0.740190 0.666879 0.140386
#
# Coordination Sequence:
#
# PCOD9287144 Si02
#       7
#     8   4   8   4   8   8   8
#     4  12  22  38  68 102 123 171 226 277 331 395
#     4  12  22  41  71  98 136 172 224 280 340 401
#     4  11  19  37  60  89 121 164 219 273 320 398
#     4  10  22  31  61  92 112 156 218 272 318 365
#     4  11  23  42  63  93 133 175 223 268 337 410
#     4  11  25  41  65  97 135 173 217 281 341 392
#     4  12  20  39  69  95 123 175 227 272 327 406
#
# _framework density 21.870889999999999
#
# number of rings (size 3 to 8) (size 9 to 14) (size 15 to 20)
#    0.000    0.667    8.333    0.500    0.000    1.333 
#    0.000    0.833    0.000    0.000    0.000    0.000 
#    0.000    0.000    0.000    0.000    0.000    0.000 
#
# Total GULP energy -133758.766355 kJ/mol
# GULP energy per Si atom -5573.281931 kJ/mol
# Density = 2.182111 g / cm^3
# Si number density = 21.870890 Si / 1000 Ang^3
#
#
#
# Elastic Constant Matrix: (Units=GPa)
#
#
# Indices 1 2 3 4 5 6 
#
# 1 57.0971 -2.4585 39.3437 0.0000 -13.2474 0.0000
# 2 -2.4585 33.6438 27.3965 0.0000 -10.2102 0.0000
# 3 39.3437 27.3965 131.7528 0.0000 -35.1141 0.0000
# 4 0.0000 0.0000 0.0000 40.5732 0.0000 -13.3354
# 5 -13.2474 -10.2102 -35.1141 0.0000 48.6624 0.0000
# 6 0.0000 0.0000 0.0000 -13.3354 0.0000 15.9215
#
#
#
# Elastic Compliance Matrix: (Units=1/GPa)
#
#
# Indices 1 2 3 4 5 6 
#
# 1 0.024442 0.009557 -0.008640 0.000000 0.002425 0.000000
# 2 0.009557 0.039797 -0.010165 0.000000 0.003617 0.000000
# 3 -0.008640 -0.010165 0.013729 0.000000 0.005421 0.000000
# 4 0.000000 0.000000 0.000000 0.034009 0.000000 0.028485
# 5 0.002425 0.003617 0.005421 0.000000 0.025881 0.000000
# 6 0.000000 0.000000 0.000000 0.028485 0.000000 0.086666
#
#
# Mechanical properties :
#
#
# Convention : Reuss Voigt Hill
#
# Bulk Modulus (GPa) = 16.81479 39.00634 27.91057
# Shear Modulus (GPa) = 19.02276 31.57889 25.30083
#
# Velocity S-wave (km/s) = 2.95239 3.80396 3.40491
# Velocity P-wave (km/s) = 4.39626 6.09648 5.31480
#
# Compressibility (1/GPa) = 0.05947145
#
# Stress axis : x y z
#
# Youngs Moduli (GPa) = 40.91395 25.12756 72.84023
#
# Poissons Ratio (x) = -0.24015 0.62933
# Poissons Ratio (y) = -0.39103 0.74045
# Poissons Ratio (z) = 0.35349 0.25543
#
# Static dielectric constant tensor:
#      x y z
#    x 1.851820 0.000000 -0.029000 
#    y 0.000000 1.877830 0.000000 
#    z -0.029000 0.000000 1.835120 
# 
# From -- ./inp_files/39699.got.cif
#   From: 2010.05.17/outbox.cif.g08.bks.cpg/sg15_20_cif.got.tgz:39699.got - 2010.06.03 18:47:42.
