data_PCOD9287011
_publ_section_title
;
Structure prediction by ZEFSAII (Michael W. Deem and Ramdas Pophale) SiO2 
 PCOD9287011
Probable space group: C 2/C
;
_chemical_formula_sum "Si O2"
_cell_formula_units_Z 36
_cell_length_a 7.026616
_cell_length_b 23.084107
_cell_length_c 10.680841
_cell_angle_alpha 90.000000
_cell_angle_beta 96.935138
_cell_angle_gamma 90.000000
_cell_volume 1719.790489
_symmetry_space_group_name_H-M "C 2/C"
_symmetry_group_IT_number 15
_symmetry_cell_setting 'monoclinic'
loop_
_space_group_symop_operation_xyz
x,y,z
-x,y,1/2-z
-x,-y,-z
x,-y,1/2+z
1/2+x,1/2+y,z
1/2-x,1/2+y,1/2-z
1/2-x,1/2-y,-z
1/2+x,1/2-y,1/2+z
loop_
_atom_site_type_symbol
_atom_site_label
_atom_site_fract_x
_atom_site_fract_y
_atom_site_fract_z
Si Si1 0.500000 0.264102 0.750000
Si Si2 0.645136 0.838884 0.646160
Si Si3 0.412513 0.579977 0.603845
Si Si4 0.846437 0.047210 0.122964
Si Si5 0.668080 0.805977 0.061864
O O1 0.351074 0.307313 0.670208
O O2 0.357343 0.219033 0.803564
O O3 0.500000 0.825355 0.750000
O O4 0.683482 0.907409 0.645462
O O5 0.537649 0.819388 0.513265
O O6 0.500000 0.588233 0.750000
O O7 0.560837 0.567917 0.501873
O O8 0.291838 0.520115 0.602707
O O9 0.294638 0.637106 0.560793
O O10 0.000000 0.049104 0.250000
O O11 0.750000 0.750000 0.000000
#
# Coordination Sequence:
#
# PCOD9287011 Si02
#       5
#     4   8   8   8   8
#     4  12  26  44  66  96 140 176 224 280 346 396
#     4  12  24  44  71  97 131 183 230 279 334 413
#     4  10  24  43  70 103 142 178 225 290 345 400
#     4  10  21  45  72 100 136 181 229 286 344 400
#     4  12  26  42  66 101 137 179 227 278 337 414
#
# _framework density 20.932783000000001
#
# number of rings (size 3 to 8) (size 9 to 14) (size 15 to 20)
#    0.000    0.889    3.333    3.333    6.222    0.889 
#    2.000    0.000    0.000    0.000    0.000    0.000 
#    0.000    0.000    0.000    0.000    0.000    0.000 
#
# Total GULP energy -100417.520219 kJ/mol
# GULP energy per Si atom -5578.751123 kJ/mol
# Density = 2.088514 g / cm^3
# Si number density = 20.932783 Si / 1000 Ang^3
#
#
#
# Elastic Constant Matrix: (Units=GPa)
#
#
# Indices 1 2 3 4 5 6 
#
# 1 47.3944 51.2967 4.7102 0.0000 14.4964 0.0000
# 2 51.2967 175.0609 20.6113 0.0000 18.8563 0.0000
# 3 4.7102 20.6113 68.8822 0.0000 3.3840 0.0000
# 4 0.0000 0.0000 0.0000 31.9162 0.0000 -5.6517
# 5 14.4964 18.8563 3.3840 0.0000 39.7525 0.0000
# 6 0.0000 0.0000 0.0000 -5.6517 0.0000 15.2869
#
#
#
# Elastic Compliance Matrix: (Units=1/GPa)
#
#
# Indices 1 2 3 4 5 6 
#
# 1 0.033123 -0.008949 0.000801 0.000000 -0.007902 0.000000
# 2 -0.008949 0.008635 -0.001939 0.000000 -0.000667 0.000000
# 3 0.000801 -0.001939 0.015075 0.000000 -0.000656 0.000000
# 4 0.000000 0.000000 0.000000 0.033527 0.000000 0.012395
# 5 -0.007902 -0.000667 -0.000656 0.000000 0.028410 0.000000
# 6 0.000000 0.000000 0.000000 0.012395 0.000000 0.069998
#
#
# Mechanical properties :
#
#
# Convention : Reuss Voigt Hill
#
# Bulk Modulus (GPa) = 27.27862 49.39711 38.33786
# Shear Modulus (GPa) = 22.60803 31.70574 27.15688
#
# Velocity S-wave (km/s) = 3.28995 3.89607 3.60576
# Velocity P-wave (km/s) = 5.24323 6.62482 5.97410
#
# Compressibility (1/GPa) = 0.03665875
#
# Stress axis : x y z
#
# Youngs Moduli (GPa) = 30.19096 115.81214 66.33418
#
# Poissons Ratio (x) = 1.03638 -0.05313
# Poissons Ratio (y) = 0.27017 0.12862
# Poissons Ratio (z) = -0.02418 0.22456
#
# Static dielectric constant tensor:
#      x y z
#    x 1.683230 0.000000 0.025170 
#    y 0.000000 1.733930 0.000000 
#    z 0.025170 0.000000 1.756750 
# 
# From -- ./inp_files/72465.got.cif
#   From: 2010.05.17/outbox.cif.g08.bks.cpg/sg15_37_cif.got.tgz:72465.got - 2010.06.03 18:47:42.
