data_PCOD9287863
_publ_section_title
;
Structure prediction by ZEFSAII (Michael W. Deem and Ramdas Pophale) SiO2 
 PCOD9287863
Probable space group: C 2/C
;
_chemical_formula_sum "Si O2"
_cell_formula_units_Z 36
_cell_length_a 11.537956
_cell_length_b 8.651680
_cell_length_c 14.583239
_cell_angle_alpha 90.000000
_cell_angle_beta 107.957478
_cell_angle_gamma 90.000000
_cell_volume 1384.822905
_symmetry_space_group_name_H-M "C 2/C"
_symmetry_group_IT_number 15
_symmetry_cell_setting 'monoclinic'
loop_
_space_group_symop_operation_xyz
x,y,z
-x,y,1/2-z
-x,-y,-z
x,-y,1/2+z
1/2+x,1/2+y,z
1/2-x,1/2+y,1/2-z
1/2-x,1/2-y,-z
1/2+x,1/2-y,1/2+z
loop_
_atom_site_type_symbol
_atom_site_label
_atom_site_fract_x
_atom_site_fract_y
_atom_site_fract_z
Si Si1 0.472212 0.695486 0.428356
Si Si2 0.309877 0.118597 0.115445
Si Si3 0.892660 0.032731 0.652254
Si Si4 0.500000 0.098517 0.750000
Si Si5 0.821835 0.621516 0.458659
O O1 0.333326 0.646724 0.405511
O O2 0.551484 0.544081 0.424866
O O3 0.547422 0.798148 0.521541
O O4 0.481809 0.800589 0.337517
O O5 0.364728 0.288759 0.134448
O O6 0.381886 0.008160 0.203324
O O7 0.328550 0.030599 0.023453
O O8 0.000000 0.014295 0.750000
O O9 0.769828 0.933484 0.643383
O O10 0.750000 0.750000 0.500000
#
# Coordination Sequence:
#
# PCOD9287863 Si02
#       5
#     8   8   8   4   8
#     4  10  23  41  65  91 128 175 209 262 325 377
#     4  11  23  40  66  95 125 174 214 259 323 379
#     4  11  22  41  64  96 129 162 215 270 310 377
#     4  10  22  38  58  94 132 160 218 268 310 380
#     4   9  22  44  64  93 135 167 212 265 314 384
#
# _framework density 25.996105
#
# number of rings (size 3 to 8) (size 9 to 14) (size 15 to 20)
#    0.000    1.778    2.222    0.667    3.111    4.444 
#    0.000   13.333    0.000    0.000    0.000    0.000 
#    0.000    0.000    0.000    0.000    0.000    0.000 
#
# Total GULP energy -100818.834095 kJ/mol
# GULP energy per Si atom -5601.046339 kJ/mol
# Density = 2.593694 g / cm^3
# Si number density = 25.996105 Si / 1000 Ang^3
#
#
#
# Elastic Constant Matrix: (Units=GPa)
#
#
# Indices 1 2 3 4 5 6 
#
# 1 184.6238 63.5669 43.2458 0.0000 40.9823 0.0000
# 2 63.5669 157.1918 31.7602 0.0000 30.9272 0.0000
# 3 43.2458 31.7602 103.5274 0.0000 50.0020 0.0000
# 4 0.0000 0.0000 0.0000 39.4588 0.0000 31.5903
# 5 40.9823 30.9272 50.0020 0.0000 44.9839 0.0000
# 6 0.0000 0.0000 0.0000 31.5903 0.0000 38.3347
#
#
#
# Elastic Compliance Matrix: (Units=1/GPa)
#
#
# Indices 1 2 3 4 5 6 
#
# 1 0.007245 -0.001882 0.000246 0.000000 -0.005581 0.000000
# 2 -0.001882 0.007853 0.000338 0.000000 -0.004061 0.000000
# 3 0.000246 0.000338 0.020886 0.000000 -0.023673 0.000000
# 4 0.000000 0.000000 0.000000 0.074480 0.000000 -0.061376
# 5 -0.005581 -0.004061 -0.023673 0.000000 0.056420 0.000000
# 6 0.000000 0.000000 0.000000 -0.061376 0.000000 0.076664
#
#
# Mechanical properties :
#
#
# Convention : Reuss Voigt Hill
#
# Bulk Modulus (GPa) = 29.94905 80.27653 55.11279
# Shear Modulus (GPa) = 19.43452 45.00683 32.22067
#
# Velocity S-wave (km/s) = 2.73718 4.16539 3.52439
# Velocity P-wave (km/s) = 4.64060 7.35400 6.14884
#
# Compressibility (1/GPa) = 0.03339004
#
# Stress axis : x y z
#
# Youngs Moduli (GPa) = 138.01735 127.33623 47.87792
#
# Poissons Ratio (x) = 0.23961 -0.01178
# Poissons Ratio (y) = 0.25971 -0.01619
# Poissons Ratio (z) = -0.03397 -0.04305
#
# Static dielectric constant tensor:
#      x y z
#    x 2.098530 0.000000 -0.024750 
#    y 0.000000 2.016010 0.000000 
#    z -0.024750 0.000000 2.165570 
# 
# From -- ./inp_files/194897.got.cif
#   From: 2010.05.17/outbox.cif.g08.bks.cpg/sg15_98_cif.got.tgz:194897.got - 2010.06.03 18:47:42.
