data_PCOD9287124
_publ_section_title
;
Structure prediction by ZEFSAII (Michael W. Deem and Ramdas Pophale) SiO2 
 PCOD9287124
Probable space group: C 2/C
;
_chemical_formula_sum "Si O2"
_cell_formula_units_Z 48
_cell_length_a 19.551106
_cell_length_b 9.973835
_cell_length_c 8.738151
_cell_angle_alpha 90.000000
_cell_angle_beta 89.147876
_cell_angle_gamma 90.000000
_cell_volume 1703.746681
_symmetry_space_group_name_H-M "C 2/C"
_symmetry_group_IT_number 15
_symmetry_cell_setting 'monoclinic'
loop_
_space_group_symop_operation_xyz
x,y,z
-x,y,1/2-z
-x,-y,-z
x,-y,1/2+z
1/2+x,1/2+y,z
1/2-x,1/2+y,1/2-z
1/2-x,1/2-y,-z
1/2+x,1/2-y,1/2+z
loop_
_atom_site_type_symbol
_atom_site_label
_atom_site_fract_x
_atom_site_fract_y
_atom_site_fract_z
Si Si1 0.466439 0.170639 0.096155
Si Si2 0.586629 0.246687 0.885437
Si Si3 0.305548 0.741020 0.864213
Si Si4 0.163199 0.512007 0.359097
Si Si5 0.427974 0.468244 0.085744
Si Si6 0.778921 0.892332 0.055321
O O1 0.500000 0.112908 0.250000
O O2 0.402608 0.079009 0.057498
O O3 0.441197 0.318820 0.146585
O O4 0.514451 0.189015 0.946331
O O5 0.634093 0.133054 0.807825
O O6 0.581578 0.395158 0.813855
O O7 0.624508 0.278071 0.045377
O O8 0.315784 0.877799 0.766954
O O9 0.250000 0.750000 0.000000
O O10 0.213717 0.870520 0.262371
O O11 0.223349 0.512842 0.480518
O O12 0.500000 0.500000 0.000000
O O13 0.354607 0.440918 0.007070
O O14 0.750000 0.750000 0.000000
#
# Coordination Sequence:
#
# PCOD9287124 Si02
#       6
#     8   8   8   8   8   8
#     4  11  20  47  79 110 158 212 265 332 416 498
#     4  11  25  43  74 116 157 204 266 343 421 481
#     4  11  25  48  75 112 159 219 266 327 409 502
#     4  11  24  46  82 116 159 207 276 344 403 495
#     4  10  22  42  76 119 162 206 268 340 414 498
#     4  10  21  47  79 114 157 215 275 338 404 497
#
# _framework density 28.173202
#
# number of rings (size 3 to 8) (size 9 to 14) (size 15 to 20)
#    0.000    1.333    5.000    0.500    2.333    1.333 
#    3.000    7.500   11.000    1.000    0.000    0.000 
#    0.000    0.000    0.000    0.000    0.000    0.000 
#
# Total GULP energy -134289.608048 kJ/mol
# GULP energy per Si atom -5595.400335 kJ/mol
# Density = 2.810908 g / cm^3
# Si number density = 28.173202 Si / 1000 Ang^3
#
#
#
# Elastic Constant Matrix: (Units=GPa)
#
#
# Indices 1 2 3 4 5 6 
#
# 1 212.8721 42.9963 38.9880 0.0000 -5.3244 0.0000
# 2 42.9963 198.5642 31.4016 0.0000 -11.2384 0.0000
# 3 38.9880 31.4016 115.1875 0.0000 -13.0583 0.0000
# 4 0.0000 0.0000 0.0000 41.5587 0.0000 -10.8760
# 5 -5.3244 -11.2384 -13.0583 0.0000 49.1521 0.0000
# 6 0.0000 0.0000 0.0000 -10.8760 0.0000 50.7132
#
#
#
# Elastic Compliance Matrix: (Units=1/GPa)
#
#
# Indices 1 2 3 4 5 6 
#
# 1 0.005150 -0.000879 -0.001509 0.000000 -0.000044 0.000000
# 2 -0.000879 0.005448 -0.001090 0.000000 0.000861 0.000000
# 3 -0.001509 -0.001090 0.009736 0.000000 0.002174 0.000000
# 4 0.000000 0.000000 0.000000 0.025493 0.000000 0.005467
# 5 -0.000044 0.000861 0.002174 0.000000 0.021115 0.000000
# 6 0.000000 0.000000 0.000000 0.005467 0.000000 0.020891
#
#
# Mechanical properties :
#
#
# Convention : Reuss Voigt Hill
#
# Bulk Modulus (GPa) = 74.74761 83.71061 79.22911
# Shear Modulus (GPa) = 50.37905 55.83398 53.10652
#
# Velocity S-wave (km/s) = 4.23329 4.45658 4.34637
# Velocity P-wave (km/s) = 7.10516 7.50059 7.30555
#
# Compressibility (1/GPa) = 0.01337835
#
# Stress axis : x y z
#
# Youngs Moduli (GPa) = 194.15827 183.56678 102.71485
#
# Poissons Ratio (x) = 0.16139 0.15496
# Poissons Ratio (y) = 0.17070 0.11195
# Poissons Ratio (z) = 0.29291 0.20008
#
# Static dielectric constant tensor:
#      x y z
#    x 2.292770 0.000000 -0.030460 
#    y 0.000000 2.271040 0.000000 
#    z -0.030460 0.000000 2.154130 
# 
# From -- ./inp_files/154341.got.cif
#   From: 2010.05.17/outbox.cif.g08.bks.cpg/sg15_78_cif.got.tgz:154341.got - 2010.06.03 18:47:42.
