data_PCOD9287497
_publ_section_title
;
Structure prediction by ZEFSAII (Michael W. Deem and Ramdas Pophale) SiO2 
 PCOD9287497
Probable space group: C 2/C
;
_chemical_formula_sum "Si O2"
_cell_formula_units_Z 56
_cell_length_a 30.079934
_cell_length_b 11.005329
_cell_length_c 9.574095
_cell_angle_alpha 90.000000
_cell_angle_beta 57.161704
_cell_angle_gamma 90.000000
_cell_volume 2662.947250
_symmetry_space_group_name_H-M "C 2/C"
_symmetry_group_IT_number 15
_symmetry_cell_setting 'monoclinic'
loop_
_space_group_symop_operation_xyz
x,y,z
-x,y,1/2-z
-x,-y,-z
x,-y,1/2+z
1/2+x,1/2+y,z
1/2-x,1/2+y,1/2-z
1/2-x,1/2-y,-z
1/2+x,1/2-y,1/2+z
loop_
_atom_site_type_symbol
_atom_site_label
_atom_site_fract_x
_atom_site_fract_y
_atom_site_fract_z
Si Si1 0.758190 0.900031 0.592421
Si Si2 0.978886 0.590997 0.427354
Si Si3 0.766562 0.634370 0.676177
Si Si4 0.532306 0.312430 0.481935
Si Si5 0.375611 0.786883 0.126127
Si Si6 0.076917 0.166974 0.189999
Si Si7 0.881990 0.907882 0.377087
O O1 0.741639 0.771675 0.695591
O O2 0.727527 0.909336 0.496106
O O3 0.820437 0.889279 0.444209
O O4 0.755676 0.018425 0.698077
O O5 0.007524 0.716788 0.416743
O O6 0.000000 0.542223 0.250000
O O7 0.000000 0.500000 0.500000
O O8 0.916830 0.605866 0.533900
O O9 0.818707 0.669340 0.675129
O O10 0.478142 0.370560 0.637040
O O11 0.560228 0.264517 0.576608
O O12 0.577564 0.380349 0.317675
O O13 0.386503 0.739549 0.263810
O O14 0.391965 0.679964 0.991195
O O15 0.106984 0.045170 0.096918
#
# Coordination Sequence:
#
# PCOD9287497 Si02
#       7
#     8   8   8   8   8   8   8
#     4  10  25  45  73  97 142 173 236 290 352 404
#     4  11  24  41  63  88 128 174 217 271 322 395
#     4  10  24  49  67 103 133 181 230 293 344 416
#     4  10  22  40  60  96 137 160 215 265 330 403
#     4  10  23  43  64  95 133 174 225 267 345 402
#     4  10  22  36  65 100 130 172 208 269 326 416
#     4  11  21  40  67  97 131 175 211 274 340 402
#
# _framework density 21.029330999999999
#
# number of rings (size 3 to 8) (size 9 to 14) (size 15 to 20)
#    0.000    1.714    1.429    1.286   10.000    5.143 
#    2.571    0.000    0.000    0.000    0.000    0.000 
#    0.000    0.000    0.000    0.000    0.000    0.000 
#
# Total GULP energy -155964.105837 kJ/mol
# GULP energy per Si atom -5570.146637 kJ/mol
# Density = 2.098147 g / cm^3
# Si number density = 21.029331 Si / 1000 Ang^3
#
#
#
# Elastic Constant Matrix: (Units=GPa)
#
#
# Indices 1 2 3 4 5 6 
#
# 1 115.8208 15.3374 31.5375 0.0000 25.9513 0.0000
# 2 15.3374 42.0186 14.1712 0.0000 -3.0355 0.0000
# 3 31.5375 14.1712 54.3141 0.0000 25.3204 0.0000
# 4 0.0000 0.0000 0.0000 26.1784 0.0000 8.5233
# 5 25.9513 -3.0355 25.3204 0.0000 28.8526 0.0000
# 6 0.0000 0.0000 0.0000 8.5233 0.0000 26.1613
#
#
#
# Elastic Compliance Matrix: (Units=1/GPa)
#
#
# Indices 1 2 3 4 5 6 
#
# 1 0.011825 -0.004847 -0.000687 0.000000 -0.010544 0.000000
# 2 -0.004847 0.032411 -0.015678 0.000000 0.021528 0.000000
# 3 -0.000687 -0.015678 0.039571 0.000000 -0.035759 0.000000
# 4 0.000000 0.000000 0.000000 0.042732 0.000000 -0.013922
# 5 -0.010544 0.021528 -0.035759 0.000000 0.077788 0.000000
# 6 0.000000 0.000000 0.000000 -0.013922 0.000000 0.042760
#
#
# Mechanical properties :
#
#
# Convention : Reuss Voigt Hill
#
# Bulk Modulus (GPa) = 24.16385 37.13840 30.65113
# Shear Modulus (GPa) = 16.48504 26.31229 21.39866
#
# Velocity S-wave (km/s) = 2.80287 3.54109 3.19339
# Velocity P-wave (km/s) = 4.68938 5.86667 5.31075
#
# Compressibility (1/GPa) = 0.04138414
#
# Stress axis : x y z
#
# Youngs Moduli (GPa) = 84.56526 30.85373 25.27110
#
# Poissons Ratio (x) = 0.14953 0.01735
# Poissons Ratio (y) = 0.40985 0.39621
# Poissons Ratio (z) = 0.05806 0.48374
#
# Static dielectric constant tensor:
#      x y z
#    x 1.749160 0.000000 -0.011270 
#    y 0.000000 1.740920 0.000000 
#    z -0.011270 0.000000 1.758620 
# 
# From -- ./inp_files/69288.got.cif
#   From: 2010.05.17/outbox.cif.g08.bks.cpg/sg15_35_cif.got.tgz:69288.got - 2010.06.03 18:47:42.
