data_PCOD9287631
_publ_section_title
;
Structure prediction by ZEFSAII (Michael W. Deem and Ramdas Pophale) SiO2 
 PCOD9287631
Probable space group: C 2/C
;
_chemical_formula_sum "Si O2"
_cell_formula_units_Z 48
_cell_length_a 23.890917
_cell_length_b 12.346448
_cell_length_c 8.333317
_cell_angle_alpha 90.000000
_cell_angle_beta 116.565945
_cell_angle_gamma 90.000000
_cell_volume 2198.539940
_symmetry_space_group_name_H-M "C 2/C"
_symmetry_group_IT_number 15
_symmetry_cell_setting 'monoclinic'
loop_
_space_group_symop_operation_xyz
x,y,z
-x,y,1/2-z
-x,-y,-z
x,-y,1/2+z
1/2+x,1/2+y,z
1/2-x,1/2+y,1/2-z
1/2-x,1/2-y,-z
1/2+x,1/2-y,1/2+z
loop_
_atom_site_type_symbol
_atom_site_label
_atom_site_fract_x
_atom_site_fract_y
_atom_site_fract_z
Si Si1 0.242090 0.410993 0.098313
Si Si2 0.150825 0.263395 0.813134
Si Si3 0.071752 0.841371 0.468728
Si Si4 0.964366 0.246431 0.049297
Si Si5 0.100302 0.943071 0.846282
Si Si6 0.742027 0.374377 0.038056
O O1 0.308435 0.346127 0.166624
O O2 0.220219 0.386423 0.249430
O O3 0.200222 0.357638 0.906804
O O4 0.240104 0.539360 0.073441
O O5 0.099386 0.291271 0.611919
O O6 0.115870 0.243858 0.937244
O O7 0.097193 0.902998 0.659012
O O8 0.011470 0.780533 0.463682
O O9 0.072265 0.938064 0.337908
O O10 0.941060 0.134268 0.096234
O O11 0.000000 0.300404 0.250000
O O12 0.171863 0.919014 0.985680
O O13 0.750000 0.250000 0.000000
#
# Coordination Sequence:
#
# PCOD9287631 Si02
#       6
#     8   8   8   8   8   8
#     4  11  26  41  67  97 141 183 225 282 346 404
#     4  11  22  42  61  95 140 178 223 281 342 411
#     4  11  21  34  58  90 133 175 219 274 340 402
#     4  10  22  37  60  94 134 180 224 279 342 410
#     4  11  20  35  54  93 136 169 223 273 342 407
#     4  12  25  43  69 101 138 186 232 277 346 416
#
# _framework density 21.832671999999999
#
# number of rings (size 3 to 8) (size 9 to 14) (size 15 to 20)
#    0.000    1.000    3.333    4.000    4.667    2.667 
#    0.000    0.000    0.000    0.000    0.000   39.667 
#    0.000    0.000    0.000    0.000    0.000    0.000 
#
# Total GULP energy -133855.552894 kJ/mol
# GULP energy per Si atom -5577.314704 kJ/mol
# Density = 2.178298 g / cm^3
# Si number density = 21.832672 Si / 1000 Ang^3
#
#
#
# Elastic Constant Matrix: (Units=GPa)
#
#
# Indices 1 2 3 4 5 6 
#
# 1 43.2007 5.5265 28.8029 0.0000 -5.3361 0.0000
# 2 5.5265 97.5489 35.6763 0.0000 -7.1939 0.0000
# 3 28.8029 35.6763 142.6552 0.0000 15.6475 0.0000
# 4 0.0000 0.0000 0.0000 10.9769 0.0000 3.4239
# 5 -5.3361 -7.1939 15.6475 0.0000 44.5219 0.0000
# 6 0.0000 0.0000 0.0000 3.4239 0.0000 11.8600
#
#
#
# Elastic Compliance Matrix: (Units=1/GPa)
#
#
# Indices 1 2 3 4 5 6 
#
# 1 0.028150 0.001274 -0.006651 0.000000 0.005917 0.000000
# 2 0.001274 0.011720 -0.003550 0.000000 0.003294 0.000000
# 3 -0.006651 -0.003550 0.009767 0.000000 -0.004804 0.000000
# 4 0.000000 0.000000 0.000000 0.100116 0.000000 -0.028903
# 5 0.005917 0.003294 -0.004804 0.000000 0.025391 0.000000
# 6 0.000000 0.000000 0.000000 -0.028903 0.000000 0.092661
#
#
# Mechanical properties :
#
#
# Convention : Reuss Voigt Hill
#
# Bulk Modulus (GPa) = 31.46217 47.04625 39.25421
# Shear Modulus (GPa) = 16.87738 27.69836 22.28787
#
# Velocity S-wave (km/s) = 2.78336 3.56570 3.19854
# Velocity P-wave (km/s) = 4.97708 6.20867 5.62668
#
# Compressibility (1/GPa) = 0.03178420
#
# Stress axis : x y z
#
# Youngs Moduli (GPa) = 35.52356 85.32268 102.38050
#
# Poissons Ratio (x) = -0.10872 0.68098
# Poissons Ratio (y) = -0.04526 0.36342
# Poissons Ratio (z) = 0.23628 0.30287
#
# Static dielectric constant tensor:
#      x y z
#    x 1.864680 0.000000 0.034980 
#    y 0.000000 1.775520 0.000000 
#    z 0.034980 0.000000 1.899370 
# 
# From -- ./inp_files/65240.got.cif
#   From: 2010.05.17/outbox.cif.g08.bks.cpg/sg15_33_cif.got.tgz:65240.got - 2010.06.03 18:47:42.
