data_PCOD9287367
_publ_section_title
;
Structure prediction by ZEFSAII (Michael W. Deem and Ramdas Pophale) SiO2 
 PCOD9287367
Probable space group: C 2/C
;
_chemical_formula_sum "Si O2"
_cell_formula_units_Z 60
_cell_length_a 5.291252
_cell_length_b 30.387531
_cell_length_c 18.044764
_cell_angle_alpha 90.000000
_cell_angle_beta 89.707036
_cell_angle_gamma 90.000000
_cell_volume 2901.345105
_symmetry_space_group_name_H-M "C 2/C"
_symmetry_group_IT_number 15
_symmetry_cell_setting 'monoclinic'
loop_
_space_group_symop_operation_xyz
x,y,z
-x,y,1/2-z
-x,-y,-z
x,-y,1/2+z
1/2+x,1/2+y,z
1/2-x,1/2+y,1/2-z
1/2-x,1/2-y,-z
1/2+x,1/2-y,1/2+z
loop_
_atom_site_type_symbol
_atom_site_label
_atom_site_fract_x
_atom_site_fract_y
_atom_site_fract_z
Si Si1 0.615952 0.101369 0.542881
Si Si2 0.500000 0.598965 0.750000
Si Si3 0.046720 0.732629 0.333058
Si Si4 0.602486 0.333701 0.352635
Si Si5 0.306224 0.178189 0.542770
Si Si6 0.751163 0.019712 0.460903
Si Si7 0.479352 0.270619 0.576153
Si Si8 0.131102 0.460466 0.330864
O O1 0.777517 0.140240 0.578985
O O2 0.391633 0.131504 0.510583
O O3 0.743323 0.071187 0.480775
O O4 0.529991 0.068619 0.609982
O O5 0.314699 0.633787 0.712745
O O6 0.624694 0.568670 0.688675
O O7 0.141366 0.783586 0.329627
O O8 0.276881 0.712598 0.380091
O O9 0.000000 0.716501 0.250000
O O10 0.778973 0.729036 0.375169
O O11 0.305372 0.332961 0.375995
O O12 0.499230 0.219490 0.549741
O O13 0.086208 0.200294 0.494697
O O14 0.500000 0.000000 0.500000
O O15 0.721860 0.003484 0.376149
O O16 0.000000 0.000000 0.500000
O O17 0.000000 0.467611 0.250000
#
# Coordination Sequence:
#
# PCOD9287367 Si02
#       8
#     8   4   8   8   8   8   8   8
#     4  11  21  38  60  88 123 164 211 255 313 377
#     4  12  20  34  54  92 134 154 192 248 324 388
#     4  11  22  38  57  85 123 164 205 254 316 378
#     4  11  21  32  57  90 125 157 198 250 313 377
#     4  10  22  36  58  89 122 161 208 254 307 372
#     4  10  24  42  60  87 128 165 207 251 304 378
#     4  10  23  38  57  86 126 163 205 258 311 366
#     4  11  23  37  60  92 126 163 198 251 320 386
#
# _framework density 20.680063000000001
#
# number of rings (size 3 to 8) (size 9 to 14) (size 15 to 20)
#    0.000    1.333    4.667    1.200    5.600    1.600 
#    2.400    0.000    0.000    0.800    0.000    0.000 
#    0.000    0.000    0.000    0.000    0.000    0.000 
#
# Total GULP energy -167101.853776 kJ/mol
# GULP energy per Si atom -5570.061793 kJ/mol
# Density = 2.063299 g / cm^3
# Si number density = 20.680063 Si / 1000 Ang^3
#
#
#
# Elastic Constant Matrix: (Units=GPa)
#
#
# Indices 1 2 3 4 5 6 
#
# 1 77.6888 15.5631 28.6012 0.0000 14.8490 0.0000
# 2 15.5631 75.8632 45.6264 0.0000 4.9598 0.0000
# 3 28.6012 45.6264 105.8449 0.0000 7.9927 0.0000
# 4 0.0000 0.0000 0.0000 29.7398 0.0000 -2.8239
# 5 14.8490 4.9598 7.9927 0.0000 34.2202 0.0000
# 6 0.0000 0.0000 0.0000 -2.8239 0.0000 24.7733
#
#
#
# Elastic Compliance Matrix: (Units=1/GPa)
#
#
# Indices 1 2 3 4 5 6 
#
# 1 0.015374 -0.000729 -0.003404 0.000000 -0.005770 0.000000
# 2 -0.000729 0.017851 -0.007458 0.000000 -0.000529 0.000000
# 3 -0.003404 -0.007458 0.013630 0.000000 -0.000625 0.000000
# 4 0.000000 0.000000 0.000000 0.033993 0.000000 0.003875
# 5 -0.005770 -0.000529 -0.000625 0.000000 0.031949 0.000000
# 6 0.000000 0.000000 0.000000 0.003875 0.000000 0.040808
#
#
# Mechanical properties :
#
#
# Convention : Reuss Voigt Hill
#
# Bulk Modulus (GPa) = 42.24401 48.77536 45.50968
# Shear Modulus (GPa) = 27.07396 29.05373 28.06385
#
# Velocity S-wave (km/s) = 3.62219 3.75229 3.68781
# Velocity P-wave (km/s) = 6.16161 6.51228 6.33937
#
# Compressibility (1/GPa) = 0.02367200
#
# Stress axis : x y z
#
# Youngs Moduli (GPa) = 65.04422 56.01815 73.36826
#
# Poissons Ratio (x) = 0.04085 0.24976
# Poissons Ratio (y) = 0.04744 0.54719
# Poissons Ratio (z) = 0.22143 0.41779
#
# Static dielectric constant tensor:
#      x y z
#    x 1.917120 0.000000 0.018870 
#    y 0.000000 1.720990 0.000000 
#    z 0.018870 0.000000 1.839640 
# 
# From -- ./inp_files/186530.got.cif
#   From: 2010.05.17/outbox.cif.g08.bks.cpg/sg15_94_cif.got.tgz:186530.got - 2010.06.03 18:47:42.
