data_PCOD9287026
_publ_section_title
;
Structure prediction by ZEFSAII (Michael W. Deem and Ramdas Pophale) SiO2 
 PCOD9287026
Probable space group: C 2/C
;
_chemical_formula_sum "Si O2"
_cell_formula_units_Z 56
_cell_length_a 13.109445
_cell_length_b 16.796575
_cell_length_c 19.173887
_cell_angle_alpha 90.000000
_cell_angle_beta 144.978123
_cell_angle_gamma 90.000000
_cell_volume 2422.943184
_symmetry_space_group_name_H-M "C 2/C"
_symmetry_group_IT_number 15
_symmetry_cell_setting 'monoclinic'
loop_
_space_group_symop_operation_xyz
x,y,z
-x,y,1/2-z
-x,-y,-z
x,-y,1/2+z
1/2+x,1/2+y,z
1/2-x,1/2+y,1/2-z
1/2-x,1/2-y,-z
1/2+x,1/2-y,1/2+z
loop_
_atom_site_type_symbol
_atom_site_label
_atom_site_fract_x
_atom_site_fract_y
_atom_site_fract_z
Si Si1 0.101074 0.722205 0.024635
Si Si2 0.567973 0.103467 0.669507
Si Si3 0.482703 0.442498 0.389640
Si Si4 0.923896 0.113794 0.406872
Si Si5 0.500000 0.632695 0.750000
Si Si6 0.335510 0.802407 0.487778
Si Si7 0.977356 0.573912 0.318520
Si Si8 0.000000 0.267385 0.250000
O O1 0.313627 0.721115 0.138766
O O2 0.018679 0.640677 0.948168
O O3 0.023095 0.803590 0.945715
O O4 0.014416 0.729557 0.052745
O O5 0.775995 0.082944 0.781109
O O6 0.530959 0.173196 0.703189
O O7 0.492879 0.019793 0.653952
O O8 0.512121 0.536443 0.420357
O O9 0.573167 0.401281 0.507531
O O10 0.524202 0.417080 0.334194
O O11 0.718599 0.105703 0.270935
O O12 0.322002 0.685642 0.656291
O O13 0.250000 0.750000 0.500000
O O14 0.389317 0.882796 0.555914
O O15 0.000000 0.593418 0.250000
#
# Coordination Sequence:
#
# PCOD9287026 Si02
#       8
#     8   8   8   8   4   8   8   4
#     4  12  26  47  71 109 152 187 254 309 371 445
#     4  11  24  47  71 101 146 192 247 315 359 443
#     4  10  21  45  73 109 145 190 252 306 382 445
#     4  10  23  42  77 103 143 198 241 305 375 458
#     4  12  24  46  74 110 148 190 236 328 373 446
#     4  12  29  45  76 112 152 188 241 311 392 447
#     4  11  24  46  74 105 143 197 248 298 379 463
#     4  12  26  46  74 100 142 206 250 306 357 438
#
# _framework density 23.112386000000001
#
# number of rings (size 3 to 8) (size 9 to 14) (size 15 to 20)
#    0.000    0.857    3.571    3.000    5.000    1.714 
#    0.000    1.429    0.000    0.000    0.000    0.000 
#    0.000    0.000    0.000    0.000    0.000    0.000 
#
# Total GULP energy -156533.551570 kJ/mol
# GULP energy per Si atom -5590.483985 kJ/mol
# Density = 2.305978 g / cm^3
# Si number density = 23.112386 Si / 1000 Ang^3
#
#
#
# Elastic Constant Matrix: (Units=GPa)
#
#
# Indices 1 2 3 4 5 6 
#
# 1 81.6873 7.9009 23.4853 0.0000 10.2094 0.0000
# 2 7.9009 70.2679 48.5199 0.0001 2.2209 0.0001
# 3 23.4853 48.5199 126.6822 0.0003 22.3198 0.0001
# 4 0.0000 0.0001 0.0003 25.6162 0.0001 -3.3810
# 5 10.2094 2.2209 22.3198 0.0001 33.3042 0.0000
# 6 0.0000 0.0001 0.0001 -3.3810 0.0000 29.9277
#
#
#
# Elastic Compliance Matrix: (Units=1/GPa)
#
#
# Indices 1 2 3 4 5 6 
#
# 1 0.013145 -0.000056 -0.001935 0.000000 -0.002729 0.000000
# 2 -0.000056 0.019873 -0.008357 0.000000 0.004293 0.000000
# 3 -0.001935 -0.008357 0.012757 0.000000 -0.007399 0.000000
# 4 0.000000 0.000000 0.000000 0.039629 0.000000 0.004477
# 5 -0.002729 0.004293 -0.007399 0.000000 0.035535 0.000000
# 6 0.000000 0.000000 0.000000 0.004477 0.000000 0.033920
#
#
# Mechanical properties :
#
#
# Convention : Reuss Voigt Hill
#
# Bulk Modulus (GPa) = 39.87474 48.71663 44.29568
# Shear Modulus (GPa) = 27.18684 31.01838 29.10261
#
# Velocity S-wave (km/s) = 3.43343 3.66740 3.55234
# Velocity P-wave (km/s) = 5.74525 6.24956 6.00270
#
# Compressibility (1/GPa) = 0.02507853
#
# Stress axis : x y z
#
# Youngs Moduli (GPa) = 76.07735 50.32070 78.38885
#
# Poissons Ratio (x) = 0.00281 0.15165
# Poissons Ratio (y) = 0.00425 0.65512
# Poissons Ratio (z) = 0.14718 0.42054
#
# Static dielectric constant tensor:
#      x y z
#    x 1.825220 0.000000 -0.036860 
#    y 0.000000 1.863120 0.000000 
#    z -0.036860 0.000000 1.854690 
# 
# From -- ./inp_files/245198.got.cif
#   From: 2010.05.17/outbox.cif.g08.bks.cpg/sg15_123_cif.got.tgz:245198.got - 2010.06.03 18:47:42.
