data_PCOD9287712
_publ_section_title
;
Structure prediction by ZEFSAII (Michael W. Deem and Ramdas Pophale) SiO2 
 PCOD9287712
Probable space group: C 2/C
;
_chemical_formula_sum "Si O2"
_cell_formula_units_Z 48
_cell_length_a 11.518914
_cell_length_b 23.581772
_cell_length_c 10.828195
_cell_angle_alpha 90.000000
_cell_angle_beta 52.105965
_cell_angle_gamma 90.000000
_cell_volume 2321.146321
_symmetry_space_group_name_H-M "C 2/C"
_symmetry_group_IT_number 15
_symmetry_cell_setting 'monoclinic'
loop_
_space_group_symop_operation_xyz
x,y,z
-x,y,1/2-z
-x,-y,-z
x,-y,1/2+z
1/2+x,1/2+y,z
1/2-x,1/2+y,1/2-z
1/2-x,1/2-y,-z
1/2+x,1/2-y,1/2+z
loop_
_atom_site_type_symbol
_atom_site_label
_atom_site_fract_x
_atom_site_fract_y
_atom_site_fract_z
Si Si1 0.889955 0.558403 0.426250
Si Si2 0.175821 0.722623 0.755218
Si Si3 0.592633 0.487617 0.319092
Si Si4 0.357895 0.054952 0.045508
Si Si5 0.837901 0.686667 0.012937
Si Si6 0.159897 0.867743 0.192358
O O1 0.851211 0.491715 0.440137
O O2 0.757343 0.602026 0.522818
O O3 0.000000 0.576813 0.250000
O O4 0.982803 0.557873 0.492983
O O5 0.210627 0.697709 0.596191
O O6 0.238424 0.785500 0.686380
O O7 0.262893 0.685703 0.797444
O O8 0.003850 0.713633 0.902415
O O9 0.500000 0.492720 0.250000
O O10 0.500000 0.500000 0.500000
O O11 0.731902 0.529609 0.217368
O O12 0.643050 0.422086 0.293311
O O13 0.332177 0.119376 0.028617
O O14 0.000000 0.851788 0.250000
#
# Coordination Sequence:
#
# PCOD9287712 Si02
#       6
#     8   8   8   8   8   8
#     4  10  22  38  63  95 127 163 211 260 325 389
#     4  10  22  42  64  89 123 163 215 269 326 375
#     4  10  24  39  59  98 138 170 211 264 332 401
#     4  10  22  37  64  92 123 170 212 263 324 384
#     4  10  22  41  65  92 121 162 217 274 320 386
#     4  10  22  42  62  91 131 170 208 267 327 391
#
# _framework density 20.679437
#
# number of rings (size 3 to 8) (size 9 to 14) (size 15 to 20)
#    0.000    2.000    1.667    0.000   11.667    1.333 
#    3.000    1.667    0.000    0.000    0.000    0.000 
#    0.000    0.000    0.000    0.000    0.000    0.000 
#
# Total GULP energy -133784.193898 kJ/mol
# GULP energy per Si atom -5574.341412 kJ/mol
# Density = 2.063237 g / cm^3
# Si number density = 20.679437 Si / 1000 Ang^3
#
#
#
# Elastic Constant Matrix: (Units=GPa)
#
#
# Indices 1 2 3 4 5 6 
#
# 1 69.8295 18.9520 9.1144 0.0000 -16.2457 0.0000
# 2 18.9520 83.6196 -0.8118 0.0000 1.8716 0.0000
# 3 9.1144 -0.8118 97.5903 0.0000 -10.2538 0.0000
# 4 0.0000 0.0000 0.0000 8.0415 0.0000 -9.3373
# 5 -16.2457 1.8716 -10.2538 0.0000 20.4735 0.0000
# 6 0.0000 0.0000 0.0000 -9.3373 0.0000 19.5249
#
#
#
# Elastic Compliance Matrix: (Units=1/GPa)
#
#
# Indices 1 2 3 4 5 6 
#
# 1 0.019259 -0.004716 -0.000197 0.000000 0.015614 0.000000
# 2 -0.004716 0.013138 0.000032 0.000000 -0.004927 0.000000
# 3 -0.000197 0.000032 0.010818 0.000000 0.005259 0.000000
# 4 0.000000 0.000000 0.000000 0.279629 0.000000 0.133725
# 5 0.015614 -0.004927 0.005259 0.000000 0.064318 0.000000
# 6 0.000000 0.000000 0.000000 0.133725 0.000000 0.115167
#
#
# Mechanical properties :
#
#
# Convention : Reuss Voigt Hill
#
# Bulk Modulus (GPa) = 29.89328 33.94985 31.92156
# Shear Modulus (GPa) = 9.55578 24.52696 17.04137
#
# Velocity S-wave (km/s) = 2.15196 3.44765 2.87378
# Velocity P-wave (km/s) = 4.54550 5.68342 5.14601
#
# Compressibility (1/GPa) = 0.03345234
#
# Stress axis : x y z
#
# Youngs Moduli (GPa) = 51.92369 76.11243 92.43738
#
# Poissons Ratio (x) = 0.35897 0.01824
# Poissons Ratio (y) = 0.24489 -0.00296
# Poissons Ratio (z) = 0.01025 -0.00244
#
# Static dielectric constant tensor:
#      x y z
#    x 1.797060 0.000000 -0.031700 
#    y 0.000000 1.782410 0.000000 
#    z -0.031700 0.000000 1.761460 
# 
# From -- ./inp_files/89380.got.cif
#   From: 2010.05.17/outbox.cif.g08.bks.cpg/sg15_45_cif.got.tgz:89380.got - 2010.06.03 18:47:42.
