data_PCOD9287688
_publ_section_title
;
Structure prediction by ZEFSAII (Michael W. Deem and Ramdas Pophale) SiO2 
 PCOD9287688
Probable space group: C 2/C
;
_chemical_formula_sum "Si O2"
_cell_formula_units_Z 40
_cell_length_a 11.816037
_cell_length_b 24.016512
_cell_length_c 19.342346
_cell_angle_alpha 90.000000
_cell_angle_beta 157.247924
_cell_angle_gamma 90.000000
_cell_volume 2122.828600
_symmetry_space_group_name_H-M "C 2/C"
_symmetry_group_IT_number 15
_symmetry_cell_setting 'monoclinic'
loop_
_space_group_symop_operation_xyz
x,y,z
-x,y,1/2-z
-x,-y,-z
x,-y,1/2+z
1/2+x,1/2+y,z
1/2-x,1/2+y,1/2-z
1/2-x,1/2-y,-z
1/2+x,1/2-y,1/2+z
loop_
_atom_site_type_symbol
_atom_site_label
_atom_site_fract_x
_atom_site_fract_y
_atom_site_fract_z
Si Si1 0.662810 0.141917 0.201167
Si Si2 0.344393 0.289127 0.452942
Si Si3 0.358959 0.691892 0.529498
Si Si4 0.308023 0.945374 0.892948
Si Si5 0.542525 0.168999 0.561459
O O1 0.706036 0.081358 0.191971
O O2 0.968773 0.170527 0.392304
O O3 0.418901 0.150513 0.122571
O O4 0.514214 0.173566 0.052365
O O5 0.506805 0.298293 0.470673
O O6 0.389519 0.225030 0.503409
O O7 0.000000 0.300597 0.250000
O O8 0.250000 0.750000 0.500000
O O9 0.625200 0.670641 0.727035
O O10 0.000000 0.961592 0.750000
O O11 0.415592 0.892960 0.001241
O O12 0.500000 0.000000 0.000000
#
# Coordination Sequence:
#
# PCOD9287688 Si02
#       5
#     8   8   8   8   8
#     4  10  24  38  61  91 129 163 216 252 317 375
#     4  12  24  36  60  95 138 169 199 262 325 384
#     4  12  21  37  61  91 132 171 208 249 322 391
#     4  10  24  42  66  93 123 161 221 267 311 367
#     4  10  22  37  63  91 129 164 217 257 317 371
#
# _framework density 18.842784000000002
#
# number of rings (size 3 to 8) (size 9 to 14) (size 15 to 20)
#    1.200    0.000    4.000    1.800    5.600    1.600 
#    0.000    0.000    0.000    1.200    0.000    0.000 
#    0.000    0.000    0.000    0.000    0.000    0.000 
#
# Total GULP energy -111404.932918 kJ/mol
# GULP energy per Si atom -5570.246646 kJ/mol
# Density = 1.879990 g / cm^3
# Si number density = 18.842784 Si / 1000 Ang^3
#
#
#
# Elastic Constant Matrix: (Units=GPa)
#
#
# Indices 1 2 3 4 5 6 
#
# 1 74.6724 51.7965 38.4189 -0.0032 20.0873 0.0104
# 2 51.7965 135.2972 74.5473 -0.0032 15.1799 -0.0065
# 3 38.4189 74.5473 157.7633 -0.0130 18.1687 0.0076
# 4 -0.0032 -0.0032 -0.0130 32.6075 -0.0198 7.4224
# 5 20.0873 15.1799 18.1687 -0.0198 39.7234 0.0009
# 6 0.0104 -0.0065 0.0076 7.4224 0.0009 12.9631
#
#
#
# Elastic Compliance Matrix: (Units=1/GPa)
#
#
# Indices 1 2 3 4 5 6 
#
# 1 0.020348 -0.006356 -0.001105 0.000001 -0.007355 -0.000019
# 2 -0.006356 0.012095 -0.004228 -0.000004 0.000526 0.000016
# 3 -0.001105 -0.004228 0.008820 0.000004 -0.001860 -0.000008
# 4 0.000001 -0.000004 0.000004 0.035264 0.000018 -0.020191
# 5 -0.007355 0.000526 -0.001860 0.000018 0.029543 -0.000005
# 6 -0.000019 0.000016 -0.000008 -0.020191 -0.000005 0.088703
#
#
# Mechanical properties :
#
#
# Convention : Reuss Voigt Hill
#
# Bulk Modulus (GPa) = 55.91250 77.47315 66.69283
# Shear Modulus (GPa) = 22.31039 30.59014 26.45027
#
# Velocity S-wave (km/s) = 3.44470 4.03357 3.75071
# Velocity P-wave (km/s) = 6.74973 7.93081 7.36399
#
# Compressibility (1/GPa) = 0.01788509
#
# Stress axis : x y z
#
# Youngs Moduli (GPa) = 49.14593 82.67924 113.38371
#
# Poissons Ratio (x) = 0.52550 0.12526
# Poissons Ratio (y) = 0.31236 0.47938
# Poissons Ratio (z) = 0.05429 0.34956
#
# Static dielectric constant tensor:
#      x y z
#    x 1.752680 -0.000140 0.005270 
#    y -0.000140 1.543440 0.000560 
#    z 0.005270 0.000560 1.645820 
# 
# From -- ./inp_files/240833.got.cif
#   From: 2010.05.17/outbox.cif.g08.bks.cpg/sg15_121_cif.got.tgz:240833.got - 2010.06.03 18:47:42.
