data_PCOD9287736
_publ_section_title
;
Structure prediction by ZEFSAII (Michael W. Deem and Ramdas Pophale) SiO2 
 PCOD9287736
Probable space group: C 2/C
;
_chemical_formula_sum "Si O2"
_cell_formula_units_Z 56
_cell_length_a 9.136067
_cell_length_b 21.449675
_cell_length_c 15.148543
_cell_angle_alpha 90.000000
_cell_angle_beta 83.928204
_cell_angle_gamma 90.000000
_cell_volume 2951.940926
_symmetry_space_group_name_H-M "C 2/C"
_symmetry_group_IT_number 15
_symmetry_cell_setting 'monoclinic'
loop_
_space_group_symop_operation_xyz
x,y,z
-x,y,1/2-z
-x,-y,-z
x,-y,1/2+z
1/2+x,1/2+y,z
1/2-x,1/2+y,1/2-z
1/2-x,1/2-y,-z
1/2+x,1/2-y,1/2+z
loop_
_atom_site_type_symbol
_atom_site_label
_atom_site_fract_x
_atom_site_fract_y
_atom_site_fract_z
Si Si1 0.533784 0.791996 0.067849
Si Si2 0.500000 0.864819 0.250000
Si Si3 0.800808 0.459366 0.178611
Si Si4 0.000000 0.995272 0.750000
Si Si5 0.308219 0.336158 0.933477
Si Si6 0.913656 0.400391 0.669907
Si Si7 0.960377 0.059956 0.062505
Si Si8 0.842984 0.388655 0.994760
O O1 0.520006 0.822517 0.164017
O O2 0.572716 0.719422 0.076584
O O3 0.678743 0.818650 0.009528
O O4 0.391341 0.818749 0.023628
O O5 0.364679 0.911867 0.245787
O O6 0.627209 0.462834 0.200289
O O7 0.854977 0.529795 0.188941
O O8 0.850099 0.432578 0.080891
O O9 0.942937 0.956752 0.668076
O O10 0.219217 0.354888 0.850440
O O11 0.396809 0.396953 0.954855
O O12 0.000000 0.377431 0.750000
O O13 0.031248 0.405436 0.583368
O O14 0.815857 0.096538 0.037249
O O15 0.000000 0.000000 0.000000
#
# Coordination Sequence:
#
# PCOD9287736 Si02
#       8
#     8   4   8   4   8   8   8   8
#     4   9  22  43  64  86 116 169 211 255 306 370
#     4  10  22  37  66  88 117 164 212 256 296 386
#     4  11  21  37  58  91 126 163 202 256 314 372
#     4  12  24  37  56  94 133 162 202 250 332 374
#     4  10  22  42  64  86 125 162 210 257 318 377
#     4  11  20  38  61  92 123 160 205 258 316 379
#     4  12  24  38  61  96 128 167 203 267 326 375
#     4  10  22  38  61  89 125 163 212 252 313 379
#
# _framework density 18.970569999999999
#
# number of rings (size 3 to 8) (size 9 to 14) (size 15 to 20)
#    0.000    1.429    3.571    1.286    2.000    2.286 
#    0.000    0.000    7.857    0.000    0.000    0.000 
#    0.000    0.000    0.000    0.000    0.000    0.000 
#
# Total GULP energy -156126.774603 kJ/mol
# GULP energy per Si atom -5575.956236 kJ/mol
# Density = 1.892739 g / cm^3
# Si number density = 18.970570 Si / 1000 Ang^3
#
#
#
# Elastic Constant Matrix: (Units=GPa)
#
#
# Indices 1 2 3 4 5 6 
#
# 1 97.7304 45.3456 25.7019 0.0000 24.2189 0.0000
# 2 45.3456 105.6681 45.6137 0.0000 12.5523 0.0000
# 3 25.7019 45.6137 79.1804 0.0000 11.5787 0.0000
# 4 0.0000 0.0000 0.0000 -36.0811 0.0000 23.4128
# 5 24.2189 12.5523 11.5787 0.0000 25.0061 0.0000
# 6 0.0000 0.0000 0.0000 23.4128 0.0000 25.1767
#
#
#
# Elastic Compliance Matrix: (Units=1/GPa)
#
#
# Indices 1 2 3 4 5 6 
#
# 1 0.015832 -0.005157 -0.000327 0.000000 -0.012593 0.000000
# 2 -0.005157 0.014516 -0.006814 0.000000 0.000864 0.000000
# 3 -0.000327 -0.006814 0.017285 0.000000 -0.004267 0.000000
# 4 0.000000 0.000000 0.000000 -0.017285 0.000000 0.016074
# 5 -0.012593 0.000864 -0.004267 0.000000 0.053729 0.000000
# 6 0.000000 0.000000 0.000000 0.016074 0.000000 0.024771
#
#
# Mechanical properties :
#
#
# Convention : Reuss Voigt Hill
#
# Bulk Modulus (GPa) = 43.40967 57.32237 50.36602
# Shear Modulus (GPa) = 35.43020 13.88152 24.65586
#
# Velocity S-wave (km/s) = 4.32631 2.70800 3.60903
# Velocity P-wave (km/s) = 6.92013 6.32928 6.63129
#
# Compressibility (1/GPa) = 0.02303634
#
# Stress axis : x y z
#
# Youngs Moduli (GPa) = 63.16444 68.89152 57.85394
#
# Poissons Ratio (x) = 0.35527 0.01890
# Poissons Ratio (y) = 0.32573 0.39424
# Poissons Ratio (z) = 0.02063 0.46945
#
# Static dielectric constant tensor:
#      x y z
#    x 1.684200 0.000000 0.046250 
#    y 0.000000 1.648390 0.000000 
#    z 0.046250 0.000000 1.680010 
# 
# From -- ./inp_files/136496.got.cif
#   From: 2010.05.17/outbox.cif.g08.bks.cpg/sg15_69_cif.got.tgz:136496.got - 2010.06.03 18:47:42.
