data_PCOD9287752
_publ_section_title
;
Structure prediction by ZEFSAII (Michael W. Deem and Ramdas Pophale) SiO2 
 PCOD9287752
Probable space group: C 2/C
;
_chemical_formula_sum "Si O2"
_cell_formula_units_Z 44
_cell_length_a 20.927587
_cell_length_b 11.763128
_cell_length_c 26.903439
_cell_angle_alpha 90.000000
_cell_angle_beta 18.114085
_cell_angle_gamma 90.000000
_cell_volume 2059.133892
_symmetry_space_group_name_H-M "C 2/C"
_symmetry_group_IT_number 15
_symmetry_cell_setting 'monoclinic'
loop_
_space_group_symop_operation_xyz
x,y,z
-x,y,1/2-z
-x,-y,-z
x,-y,1/2+z
1/2+x,1/2+y,z
1/2-x,1/2+y,1/2-z
1/2-x,1/2-y,-z
1/2+x,1/2-y,1/2+z
loop_
_atom_site_type_symbol
_atom_site_label
_atom_site_fract_x
_atom_site_fract_y
_atom_site_fract_z
Si Si1 0.748123 0.463683 0.373991
Si Si2 0.948633 0.673162 0.905016
Si Si3 0.000000 0.110368 0.250000
Si Si4 0.549388 0.567347 0.321735
Si Si5 0.313188 0.884711 0.175585
Si Si6 0.457579 0.327344 0.512458
O O1 0.656769 0.468430 0.496454
O O2 0.583010 0.384629 0.465644
O O3 0.726797 0.586756 0.364480
O O4 0.963537 0.404402 0.204118
O O5 0.054688 0.796112 0.822657
O O6 0.021128 0.613381 0.902628
O O7 0.704188 0.682737 0.087575
O O8 0.960211 0.040440 0.229343
O O9 0.738156 0.503634 0.208617
O O10 0.387705 0.796541 0.079436
O O11 0.112910 0.832873 0.351444
#
# Coordination Sequence:
#
# PCOD9287752 Si02
#       6
#     8   8   4   8   8   8
#     4   9  19  37  62  89 129 165 207 253 323 384
#     4  11  23  40  64  98 128 168 211 266 324 380
#     4  12  28  40  60  94 140 176 210 260 316 384
#     4  11  23  42  61  95 130 168 215 259 323 381
#     4  10  22  37  67  94 129 161 212 272 315 373
#     4   9  18  36  61  98 125 159 202 269 327 367
#
# _framework density 21.368206000000001
#
# number of rings (size 3 to 8) (size 9 to 14) (size 15 to 20)
#    0.000    1.818    1.818    2.727    2.545    2.909 
#    0.000    0.000    0.000    9.818    0.000    1.273 
#    0.000    0.000    0.000    0.000    0.000    0.000 
#
# Total GULP energy -122981.209728 kJ/mol
# GULP energy per Si atom -5590.054988 kJ/mol
# Density = 2.131957 g / cm^3
# Si number density = 21.368206 Si / 1000 Ang^3
#
#
#
# Elastic Constant Matrix: (Units=GPa)
#
#
# Indices 1 2 3 4 5 6 
#
# 1 100.6558 24.8462 29.1426 0.0121 8.9058 0.0027
# 2 24.8462 65.7309 49.1760 0.0005 -10.1191 0.0056
# 3 29.1426 49.1760 103.8766 -0.0326 -0.4126 -0.0016
# 4 0.0121 0.0005 -0.0326 27.0207 0.0136 8.7194
# 5 8.9058 -10.1191 -0.4126 0.0136 34.1257 0.0011
# 6 0.0027 0.0056 -0.0016 8.7194 0.0011 17.4131
#
#
#
# Elastic Compliance Matrix: (Units=1/GPa)
#
#
# Indices 1 2 3 4 5 6 
#
# 1 0.011714 -0.004048 -0.001387 -0.000005 -0.004274 0.000002
# 2 -0.004048 0.026674 -0.011457 -0.000016 0.008828 -0.000001
# 3 -0.001387 -0.011457 0.015428 0.000023 -0.002849 -0.000006
# 4 -0.000005 -0.000016 0.000023 0.044141 -0.000020 -0.022103
# 5 -0.004274 0.008828 -0.002849 -0.000020 0.033002 0.000005
# 6 0.000002 -0.000001 -0.000006 -0.022103 0.000005 0.068496
#
#
# Mechanical properties :
#
#
# Convention : Reuss Voigt Hill
#
# Bulk Modulus (GPa) = 49.91940 52.95477 51.43708
# Shear Modulus (GPa) = 20.84053 26.85179 23.84616
#
# Velocity S-wave (km/s) = 3.12638 3.54873 3.34423
# Velocity P-wave (km/s) = 6.03693 6.45191 6.24787
#
# Compressibility (1/GPa) = 0.02003229
#
# Stress axis : x y z
#
# Youngs Moduli (GPa) = 85.36921 37.48946 64.81556
#
# Poissons Ratio (x) = 0.15177 0.08989
# Poissons Ratio (y) = 0.34560 0.74259
# Poissons Ratio (z) = 0.11839 0.42952
#
# Static dielectric constant tensor:
#      x y z
#    x 1.825990 0.000000 0.008650 
#    y 0.000000 1.750840 0.000030 
#    z 0.008650 0.000030 1.825300 
# 
# From -- ./inp_files/300803.got.cif
#   From: 2010.05.17/outbox.cif.g08.bks.cpg/sg15_151_cif.got.tgz:300803.got - 2010.06.03 18:47:42.
