data_PCOD9287348
_publ_section_title
;
Structure prediction by ZEFSAII (Michael W. Deem and Ramdas Pophale) SiO2 
 PCOD9287348
Probable space group: C 2/C
;
_chemical_formula_sum "Si O2"
_cell_formula_units_Z 60
_cell_length_a 14.126899
_cell_length_b 21.580276
_cell_length_c 8.656881
_cell_angle_alpha 90.000000
_cell_angle_beta 78.879616
_cell_angle_gamma 90.000000
_cell_volume 2589.604809
_symmetry_space_group_name_H-M "C 2/C"
_symmetry_group_IT_number 15
_symmetry_cell_setting 'monoclinic'
loop_
_space_group_symop_operation_xyz
x,y,z
-x,y,1/2-z
-x,-y,-z
x,-y,1/2+z
1/2+x,1/2+y,z
1/2-x,1/2+y,1/2-z
1/2-x,1/2-y,-z
1/2+x,1/2-y,1/2+z
loop_
_atom_site_type_symbol
_atom_site_label
_atom_site_fract_x
_atom_site_fract_y
_atom_site_fract_z
Si Si1 0.533496 0.795595 0.078471
Si Si2 0.323453 0.678922 0.454883
Si Si3 0.753539 0.953725 0.576883
Si Si4 0.166381 0.130108 0.724440
Si Si5 0.143761 0.949115 0.631046
Si Si6 0.856319 0.641185 0.202099
Si Si7 0.635204 0.249708 0.064643
Si Si8 0.000000 0.957071 0.250000
O O1 0.500000 0.822238 0.250000
O O2 0.619278 0.743508 0.062341
O O3 0.565597 0.851087 0.956369
O O4 0.438657 0.759384 0.049742
O O5 0.285543 0.661785 0.640327
O O6 0.389204 0.619916 0.394312
O O7 0.241055 0.667262 0.352249
O O8 0.772694 0.907563 0.424210
O O9 0.829365 0.952219 0.695592
O O10 0.663936 0.922535 0.699361
O O11 0.765134 0.022553 0.497281
O O12 0.115289 0.185714 0.651585
O O13 0.081360 0.084565 0.802092
O O14 0.061467 0.998183 0.623858
O O15 0.883442 0.692981 0.316622
O O16 0.750000 0.250000 0.000000
#
# Coordination Sequence:
#
# PCOD9287348 Si02
#       8
#     8   8   8   8   8   8   8   4
#     4  12  27  40  65 101 136 182 231 279 348 411
#     4  11  24  41  66  99 142 185 225 281 337 414
#     4  10  22  40  63  93 131 182 228 277 335 409
#     4  11  22  36  61  90 132 183 224 265 336 395
#     4  10  22  38  60  95 138 181 227 271 342 410
#     4  11  24  44  65  95 139 185 231 281 337 406
#     4  12  24  42  64  92 134 178 222 283 339 411
#     4  10  22  36  56  92 140 176 220 272 326 418
#
# _framework density 23.169560000000001
#
# number of rings (size 3 to 8) (size 9 to 14) (size 15 to 20)
#    0.000    1.067    2.667    4.000    4.667    4.800 
#    0.000    0.000    0.000    0.000    0.000   26.133 
#    0.000    0.000    0.000    0.000    0.000    0.000 
#
# Total GULP energy -167263.887946 kJ/mol
# GULP energy per Si atom -5575.462932 kJ/mol
# Density = 2.311682 g / cm^3
# Si number density = 23.169560 Si / 1000 Ang^3
#
#
#
# Elastic Constant Matrix: (Units=GPa)
#
#
# Indices 1 2 3 4 5 6 
#
# 1 57.1640 3.7612 9.1695 0.0000 -2.0078 0.0000
# 2 3.7612 74.0748 11.6787 0.0000 -26.1766 0.0000
# 3 9.1695 11.6787 118.3492 0.0000 -11.7403 0.0000
# 4 0.0000 0.0000 0.0000 31.7394 0.0000 -6.6824
# 5 -2.0078 -26.1766 -11.7403 0.0000 34.5351 0.0000
# 6 0.0000 0.0000 0.0000 -6.6824 0.0000 21.5781
#
#
#
# Elastic Compliance Matrix: (Units=1/GPa)
#
#
# Indices 1 2 3 4 5 6 
#
# 1 0.017749 -0.000666 -0.001301 0.000000 0.000085 0.000000
# 2 -0.000666 0.018487 -0.000400 0.000000 0.013838 0.000000
# 3 -0.001301 -0.000400 0.008851 0.000000 0.002630 0.000000
# 4 0.000000 0.000000 0.000000 0.033704 0.000000 0.010438
# 5 0.000085 0.013838 0.002630 0.000000 0.040344 0.000000
# 6 0.000000 0.000000 0.000000 0.010438 0.000000 0.049576
#
#
# Mechanical properties :
#
#
# Convention : Reuss Voigt Hill
#
# Bulk Modulus (GPa) = 24.78180 33.20075 28.99128
# Shear Modulus (GPa) = 26.75300 32.56910 29.66105
#
# Velocity S-wave (km/s) = 3.40172 3.75331 3.58183
# Velocity P-wave (km/s) = 5.11351 5.75706 5.44480
#
# Compressibility (1/GPa) = 0.04035220
#
# Stress axis : x y z
#
# Youngs Moduli (GPa) = 56.34113 54.09283 112.98485
#
# Poissons Ratio (x) = 0.03604 0.14700
# Poissons Ratio (y) = 0.03753 0.04519
# Poissons Ratio (z) = 0.07330 0.02163
#
# Static dielectric constant tensor:
#      x y z
#    x 1.896430 0.000000 -0.142060 
#    y 0.000000 1.881790 0.000000 
#    z -0.142060 0.000000 1.860210 
# 
# From -- ./inp_files/42170.got.cif
#   From: 2010.05.17/outbox.cif.g08.bks.cpg/sg15_22_cif.got.tgz:42170.got - 2010.06.03 18:47:42.
