data_PCOD9287001
_publ_section_title
;
Structure prediction by ZEFSAII (Michael W. Deem and Ramdas Pophale) SiO2 
 PCOD9287001
Probable space group: C 2/C
;
_chemical_formula_sum "Si O2"
_cell_formula_units_Z 60
_cell_length_a 19.578573
_cell_length_b 14.944497
_cell_length_c 13.303251
_cell_angle_alpha 90.000000
_cell_angle_beta 35.591015
_cell_angle_gamma 90.000000
_cell_volume 2265.372972
_symmetry_space_group_name_H-M "C 2/C"
_symmetry_group_IT_number 15
_symmetry_cell_setting 'monoclinic'
loop_
_space_group_symop_operation_xyz
x,y,z
-x,y,1/2-z
-x,-y,-z
x,-y,1/2+z
1/2+x,1/2+y,z
1/2-x,1/2+y,1/2-z
1/2-x,1/2-y,-z
1/2+x,1/2-y,1/2+z
loop_
_atom_site_type_symbol
_atom_site_label
_atom_site_fract_x
_atom_site_fract_y
_atom_site_fract_z
Si Si1 0.493529 0.224980 0.365695
Si Si2 0.473323 0.489370 0.915456
Si Si3 0.217691 0.867136 0.891974
Si Si4 0.638529 0.848108 0.155929
Si Si5 0.621943 0.905797 0.966350
Si Si6 0.664460 0.098920 0.837326
Si Si7 0.500000 0.679951 0.250000
Si Si8 0.679639 0.377545 0.151720
O O1 0.500000 0.178244 0.250000
O O2 0.385650 0.294674 0.484405
O O3 0.450945 0.157550 0.499853
O O4 0.604945 0.286765 0.251347
O O5 0.254223 0.388858 0.322843
O O6 0.350190 0.539989 0.049246
O O7 0.476052 0.389221 0.869747
O O8 0.582730 0.546663 0.740955
O O9 0.261072 0.873593 0.954988
O O10 0.305716 0.843979 0.696799
O O11 0.509825 0.884127 0.343655
O O12 0.706893 0.867738 0.177329
O O13 0.605861 0.746845 0.158702
O O14 0.683842 0.900834 0.002868
O O15 0.625831 0.997382 0.900218
O O16 0.500000 0.500000 0.500000
#
# Coordination Sequence:
#
# PCOD9287001 Si02
#       8
#     8   8   8   8   8   8   4   8
#     4   9  23  43  70 108 150 195 246 323 376 447
#     4  11  21  42  78 111 152 200 243 315 387 458
#     4  10  21  45  71 108 154 190 255 314 381 455
#     4  10  27  50  74 113 152 208 259 318 400 448
#     4  10  24  48  73 102 152 204 260 315 375 476
#     4  12  25  44  79 108 146 204 262 311 387 464
#     4  10  22  48  80 108 158 202 242 322 386 462
#     4  10  23  44  72 115 152 191 261 307 389 447
#
# _framework density 26.485703999999998
#
# number of rings (size 3 to 8) (size 9 to 14) (size 15 to 20)
#    0.000    1.867    1.333    2.000    7.467    4.267 
#    7.200    0.667    0.000    0.800    0.000    0.000 
#    0.000    0.000    0.000    0.000    0.000    0.000 
#
# Total GULP energy -167923.570613 kJ/mol
# GULP energy per Si atom -5597.452354 kJ/mol
# Density = 2.642542 g / cm^3
# Si number density = 26.485704 Si / 1000 Ang^3
#
#
#
# Elastic Constant Matrix: (Units=GPa)
#
#
# Indices 1 2 3 4 5 6 
#
# 1 165.1864 32.9034 65.7711 0.0000 33.7741 0.0000
# 2 32.9034 126.8902 27.2972 0.0000 17.2360 0.0000
# 3 65.7711 27.2972 160.9428 0.0000 39.9627 0.0000
# 4 0.0000 0.0000 0.0000 41.5036 0.0000 5.8224
# 5 33.7741 17.2360 39.9627 0.0000 55.1597 0.0000
# 6 0.0000 0.0000 0.0000 5.8224 0.0000 34.8352
#
#
#
# Elastic Compliance Matrix: (Units=1/GPa)
#
#
# Indices 1 2 3 4 5 6 
#
# 1 0.007754 -0.001146 -0.002298 0.000000 -0.002725 0.000000
# 2 -0.001146 0.008514 -0.000597 0.000000 -0.001526 0.000000
# 3 -0.002298 -0.000597 0.008362 0.000000 -0.004465 0.000000
# 4 0.000000 0.000000 0.000000 0.024673 0.000000 -0.004124
# 5 -0.002725 -0.001526 -0.004465 0.000000 0.023509 0.000000
# 6 0.000000 0.000000 0.000000 -0.004124 0.000000 0.029396
#
#
# Mechanical properties :
#
#
# Convention : Reuss Voigt Hill
#
# Bulk Modulus (GPa) = 60.42716 78.32922 69.37819
# Shear Modulus (GPa) = 43.17575 48.10288 45.63932
#
# Velocity S-wave (km/s) = 4.04190 4.26629 4.15561
# Velocity P-wave (km/s) = 6.68185 7.34212 7.01975
#
# Compressibility (1/GPa) = 0.01654885
#
# Stress axis : x y z
#
# Youngs Moduli (GPa) = 128.96371 117.45752 119.58458
#
# Poissons Ratio (x) = 0.13464 0.27478
# Poissons Ratio (y) = 0.14782 0.07134
# Poissons Ratio (z) = 0.29633 0.07007
#
# Static dielectric constant tensor:
#      x y z
#    x 2.300580 0.000000 0.204730 
#    y 0.000000 2.106270 0.000000 
#    z 0.204730 0.000000 2.592690 
# 
# From -- ./inp_files/182307.got.cif
#   From: 2010.05.17/outbox.cif.g08.bks.cpg/sg15_92_cif.got.tgz:182307.got - 2010.06.03 18:47:42.
