data_PCOD9287599
_publ_section_title
;
Structure prediction by ZEFSAII (Michael W. Deem and Ramdas Pophale) SiO2 
 PCOD9287599
Probable space group: C 2/C
;
_chemical_formula_sum "Si O2"
_cell_formula_units_Z 60
_cell_length_a 21.784821
_cell_length_b 8.728132
_cell_length_c 15.547937
_cell_angle_alpha 90.000000
_cell_angle_beta 80.277521
_cell_angle_gamma 90.000000
_cell_volume 2913.836636
_symmetry_space_group_name_H-M "C 2/C"
_symmetry_group_IT_number 15
_symmetry_cell_setting 'monoclinic'
loop_
_space_group_symop_operation_xyz
x,y,z
-x,y,1/2-z
-x,-y,-z
x,-y,1/2+z
1/2+x,1/2+y,z
1/2-x,1/2+y,1/2-z
1/2-x,1/2-y,-z
1/2+x,1/2-y,1/2+z
loop_
_atom_site_type_symbol
_atom_site_label
_atom_site_fract_x
_atom_site_fract_y
_atom_site_fract_z
Si Si1 0.774648 0.886826 0.935899
Si Si2 0.525331 0.500104 0.090718
Si Si3 0.620882 0.900190 0.667692
Si Si4 0.346333 0.668336 0.981551
Si Si5 0.404062 0.746479 0.331999
Si Si6 0.227104 0.492212 0.771632
Si Si7 0.000000 0.793612 0.250000
Si Si8 0.336726 0.312117 0.684689
O O1 0.839457 0.821866 0.883518
O O2 0.730181 0.923976 0.866494
O O3 0.790267 0.049052 0.977408
O O4 0.750000 0.750000 0.000000
O O5 0.592111 0.418892 0.064709
O O6 0.540636 0.663038 0.130843
O O7 0.488041 0.399249 0.169017
O O8 0.500000 0.500000 0.000000
O O9 0.652527 0.818784 0.577964
O O10 0.674324 0.913263 0.726810
O O11 0.561166 0.806107 0.715235
O O12 0.597560 0.072130 0.654723
O O13 0.351572 0.698596 0.081180
O O14 0.396349 0.704905 0.232708
O O15 0.295280 0.461782 0.715098
O O16 0.208352 0.669621 0.780958
#
# Coordination Sequence:
#
# PCOD9287599 Si02
#       8
#     8   8   8   8   8   8   4   8
#     4  10  22  37  58  91 126 166 208 256 308 382
#     4  10  23  45  66  95 118 172 214 262 321 386
#     4  10  22  43  63  92 126 166 209 269 322 378
#     4  10  23  40  62  90 129 160 215 260 319 377
#     4   9  22  42  61  93 129 155 215 259 318 382
#     4  10  22  37  59  90 125 166 207 241 323 372
#     4  10  24  44  66  90 130 162 216 266 326 374
#     4  10  22  39  62  93 125 167 201 258 314 380
#
# _framework density 20.591408999999999
#
# number of rings (size 3 to 8) (size 9 to 14) (size 15 to 20)
#    0.000    2.133    0.000    0.800    9.333    4.800 
#    4.800    1.333    0.000    0.000    0.000    0.000 
#    0.000    0.000    0.000    0.000    0.000    0.000 
#
# Total GULP energy -167555.829813 kJ/mol
# GULP energy per Si atom -5585.194327 kJ/mol
# Density = 2.054454 g / cm^3
# Si number density = 20.591409 Si / 1000 Ang^3
#
#
#
# Elastic Constant Matrix: (Units=GPa)
#
#
# Indices 1 2 3 4 5 6 
#
# 1 54.1492 45.7597 34.7048 0.0000 4.7915 0.0000
# 2 45.7597 129.3025 73.5345 0.0000 15.8174 0.0000
# 3 34.7048 73.5345 160.2116 0.0000 19.5619 0.0000
# 4 0.0000 0.0000 0.0000 32.7765 0.0000 0.0191
# 5 4.7915 15.8174 19.5619 0.0000 32.7735 0.0000
# 6 0.0000 0.0000 0.0000 0.0191 0.0000 27.6075
#
#
#
# Elastic Compliance Matrix: (Units=1/GPa)
#
#
# Indices 1 2 3 4 5 6 
#
# 1 0.026857 -0.008486 -0.002096 0.000000 0.001420 0.000000
# 2 -0.008486 0.013318 -0.003928 0.000000 -0.002843 0.000000
# 3 -0.002096 -0.003928 0.008877 0.000000 -0.003096 0.000000
# 4 0.000000 0.000000 0.000000 0.030510 0.000000 -0.000021
# 5 0.001420 -0.002843 -0.003096 0.000000 0.033525 0.000000
# 6 0.000000 0.000000 0.000000 -0.000021 0.000000 0.036222
#
#
# Mechanical properties :
#
#
# Convention : Reuss Voigt Hill
#
# Bulk Modulus (GPa) = 49.92022 72.40682 61.16352
# Shear Modulus (GPa) = 27.02632 31.27580 29.15106
#
# Velocity S-wave (km/s) = 3.62678 3.90150 3.76665
# Velocity P-wave (km/s) = 6.46791 7.45222 6.97745
#
# Compressibility (1/GPa) = 0.02003196
#
# Stress axis : x y z
#
# Youngs Moduli (GPa) = 37.23490 75.08413 112.65683
#
# Poissons Ratio (x) = 0.63718 0.23613
# Poissons Ratio (y) = 0.31598 0.44247
# Poissons Ratio (z) = 0.07805 0.29490
#
# Static dielectric constant tensor:
#      x y z
#    x 1.736920 0.000000 0.000310 
#    y 0.000000 1.760690 0.000000 
#    z 0.000310 0.000000 1.750570 
# 
# From -- ./inp_files/171894.got.cif
#   From: 2010.05.17/outbox.cif.g08.bks.cpg/sg15_86_cif.got.tgz:171894.got - 2010.06.03 18:47:42.
