data_PCOD9287118
_publ_section_title
;
Structure prediction by ZEFSAII (Michael W. Deem and Ramdas Pophale) SiO2 
 PCOD9287118
Probable space group: C 2/C
;
_chemical_formula_sum "Si O2"
_cell_formula_units_Z 44
_cell_length_a 6.723963
_cell_length_b 15.267943
_cell_length_c 18.409698
_cell_angle_alpha 90.000000
_cell_angle_beta 78.917815
_cell_angle_gamma 90.000000
_cell_volume 1854.716486
_symmetry_space_group_name_H-M "C 2/C"
_symmetry_group_IT_number 15
_symmetry_cell_setting 'monoclinic'
loop_
_space_group_symop_operation_xyz
x,y,z
-x,y,1/2-z
-x,-y,-z
x,-y,1/2+z
1/2+x,1/2+y,z
1/2-x,1/2+y,1/2-z
1/2-x,1/2-y,-z
1/2+x,1/2-y,1/2+z
loop_
_atom_site_type_symbol
_atom_site_label
_atom_site_fract_x
_atom_site_fract_y
_atom_site_fract_z
Si Si1 0.884079 0.056150 0.325177
Si Si2 0.500000 0.881554 0.250000
Si Si3 0.028422 0.525691 0.605210
Si Si4 0.197468 0.261450 0.783761
Si Si5 0.681274 0.682264 0.945726
Si Si6 0.619109 0.419113 0.955060
O O1 0.789348 0.143088 0.294806
O O2 0.000000 0.009727 0.250000
O O3 0.030274 0.087070 0.379880
O O4 0.709218 0.995736 0.373574
O O5 0.418160 0.947075 0.316195
O O6 0.663533 0.810979 0.267514
O O7 0.146636 0.605795 0.558815
O O8 0.145459 0.440467 0.568317
O O9 0.172760 0.217627 0.864785
O O10 0.000000 0.273541 0.750000
O O11 0.750000 0.750000 0.000000
O O12 0.456171 0.656311 0.987356
O O13 0.500000 0.500000 0.000000
#
# Coordination Sequence:
#
# PCOD9287118 Si02
#       6
#     8   4   8   8   8   8
#     4  12  25  43  73 103 142 183 233 291 348 418
#     4  10  22  44  64  98 146 180 226 300 342 410
#     4  10  24  41  72 103 140 182 236 282 353 414
#     4  11  25  43  71 102 136 187 241 285 354 415
#     4  10  21  47  73 100 144 187 224 296 351 413
#     4  10  23  44  72 102 140 182 233 280 354 421
#
# _framework density 23.723303999999999
#
# number of rings (size 3 to 8) (size 9 to 14) (size 15 to 20)
#    0.000    1.455    2.727    1.091    3.818    8.000 
#    0.000    2.727    0.000    0.000    0.000    0.000 
#    0.000    0.000    0.000    0.000    0.000    0.000 
#
# Total GULP energy -122803.048755 kJ/mol
# GULP energy per Si atom -5581.956762 kJ/mol
# Density = 2.366931 g / cm^3
# Si number density = 23.723304 Si / 1000 Ang^3
#
#
#
# Elastic Constant Matrix: (Units=GPa)
#
#
# Indices 1 2 3 4 5 6 
#
# 1 80.0580 17.9198 49.3562 0.0000 -0.2449 0.0000
# 2 17.9198 61.3118 32.9594 0.0000 -9.3225 0.0000
# 3 49.3562 32.9594 103.3419 0.0000 -23.3067 0.0000
# 4 0.0000 0.0000 0.0000 29.0305 0.0000 -2.3274
# 5 -0.2449 -9.3225 -23.3067 0.0000 41.5724 0.0000
# 6 0.0000 0.0000 0.0000 -2.3274 0.0000 30.2880
#
#
#
# Elastic Compliance Matrix: (Units=1/GPa)
#
#
# Indices 1 2 3 4 5 6 
#
# 1 0.018842 -0.001020 -0.009959 0.000000 -0.005701 0.000000
# 2 -0.001020 0.019778 -0.005520 0.000000 0.001335 0.000000
# 3 -0.009959 -0.005520 0.018203 0.000000 0.008909 0.000000
# 4 0.000000 0.000000 0.000000 0.034660 0.000000 0.002663
# 5 -0.005701 0.001335 0.008909 0.000000 0.029315 0.000000
# 6 0.000000 0.000000 0.000000 0.002663 0.000000 0.033221
#
#
# Mechanical properties :
#
#
# Convention : Reuss Voigt Hill
#
# Bulk Modulus (GPa) = 41.97339 49.46473 45.71906
# Shear Modulus (GPa) = 25.64644 29.80993 27.72818
#
# Velocity S-wave (km/s) = 3.29152 3.54865 3.42250
# Velocity P-wave (km/s) = 5.67246 6.13894 5.91030
#
# Compressibility (1/GPa) = 0.02382462
#
# Stress axis : x y z
#
# Youngs Moduli (GPa) = 53.07344 50.56008 54.93645
#
# Poissons Ratio (x) = 0.05157 0.54713
# Poissons Ratio (y) = 0.05413 0.30324
# Poissons Ratio (z) = 0.52858 0.27909
#
# Static dielectric constant tensor:
#      x y z
#    x 1.868160 0.000000 -0.052930 
#    y 0.000000 1.862780 0.000000 
#    z -0.052930 0.000000 1.914150 
# 
# From -- ./inp_files/226915.got.cif
#   From: 2010.05.17/outbox.cif.g08.bks.cpg/sg15_114_cif.got.tgz:226915.got - 2010.06.03 18:47:42.
