data_PCOD9287957
_publ_section_title
;
Structure prediction by ZEFSAII (Michael W. Deem and Ramdas Pophale) SiO2 
 PCOD9287957
Probable space group: C 2/C
;
_chemical_formula_sum "Si O2"
_cell_formula_units_Z 32
_cell_length_a 22.205134
_cell_length_b 9.372770
_cell_length_c 8.132377
_cell_angle_alpha 90.000000
_cell_angle_beta 48.850682
_cell_angle_gamma 90.000000
_cell_volume 1274.477766
_symmetry_space_group_name_H-M "C 2/C"
_symmetry_group_IT_number 15
_symmetry_cell_setting 'monoclinic'
loop_
_space_group_symop_operation_xyz
x,y,z
-x,y,1/2-z
-x,-y,-z
x,-y,1/2+z
1/2+x,1/2+y,z
1/2-x,1/2+y,1/2-z
1/2-x,1/2-y,-z
1/2+x,1/2-y,1/2+z
loop_
_atom_site_type_symbol
_atom_site_label
_atom_site_fract_x
_atom_site_fract_y
_atom_site_fract_z
Si Si1 0.500000 0.000000 0.000000
Si Si2 0.416614 0.302368 0.615346
Si Si3 0.333776 0.871215 0.742941
Si Si4 0.500000 0.465393 0.750000
Si Si5 0.275523 0.842676 0.216447
O O1 0.422969 0.078258 0.046193
O O2 0.465115 0.844207 0.005467
O O3 0.446365 0.367639 0.731280
O O4 0.440677 0.426875 0.448519
O O5 0.325202 0.257394 0.751551
O O6 0.305230 0.731966 0.698294
O O7 0.275041 0.000178 0.793863
O O8 0.325511 0.851958 0.954133
#
# Coordination Sequence:
#
# PCOD9287957 Si02
#       5
#     4   8   8   4   8
#     4  10  22  42  66  94 130 178 230 278 332 406
#     4  10  22  39  62  90 127 170 221 278 338 402
#     4  10  23  41  65  95 132 174 225 280 342 406
#     4  10  22  38  60  92 128 170 218 276 342 404
#     4  10  23  42  64  94 130 173 222 281 343 410
#
# _framework density 25.108322999999999
#
# number of rings (size 3 to 8) (size 9 to 14) (size 15 to 20)
#    0.000    2.000    0.000    1.500    0.000   21.000 
#    0.000    0.000    0.000    0.000    0.000    0.000 
#    0.000    0.000    0.000    0.000    0.000    0.000 
#
# Total GULP energy -89136.318555 kJ/mol
# GULP energy per Si atom -5571.019910 kJ/mol
# Density = 2.505118 g / cm^3
# Si number density = 25.108323 Si / 1000 Ang^3
#
#
#
# Elastic Constant Matrix: (Units=GPa)
#
#
# Indices 1 2 3 4 5 6 
#
# 1 81.8046 48.3455 -2.4521 0.0000 -11.4456 0.0000
# 2 48.3455 97.0028 35.7456 0.0000 -14.7288 0.0000
# 3 -2.4521 35.7456 34.7957 0.0000 -4.4947 0.0000
# 4 0.0000 0.0000 0.0000 11.2764 0.0000 1.5848
# 5 -11.4456 -14.7288 -4.4947 0.0000 16.4818 0.0000
# 6 0.0000 0.0000 0.0000 1.5848 0.0000 80.5604
#
#
#
# Elastic Compliance Matrix: (Units=1/GPa)
#
#
# Indices 1 2 3 4 5 6 
#
# 1 0.026331 -0.021213 0.024421 0.000000 0.005988 0.000000
# 2 -0.021213 0.035660 -0.037226 0.000000 0.006984 0.000000
# 3 0.024421 -0.037226 0.069027 0.000000 0.002517 0.000000
# 4 0.000000 0.000000 0.000000 0.088926 0.000000 -0.001749
# 5 0.005988 0.006984 0.002517 0.000000 0.071759 0.000000
# 6 0.000000 0.000000 0.000000 -0.001749 0.000000 0.012447
#
#
# Mechanical properties :
#
#
# Convention : Reuss Voigt Hill
#
# Bulk Modulus (GPa) = 15.87750 41.87567 28.87659
# Shear Modulus (GPa) = 12.71685 30.46135 21.58910
#
# Velocity S-wave (km/s) = 2.25295 3.48688 2.93548
# Velocity P-wave (km/s) = 3.62009 5.73806 4.79741
#
# Compressibility (1/GPa) = 0.06298220
#
# Stress axis : x y z
#
# Youngs Moduli (GPa) = 37.97850 28.04301 14.48704
#
# Poissons Ratio (x) = 0.59488 -0.35379
# Poissons Ratio (y) = 0.80564 0.53929
# Poissons Ratio (z) = -0.92748 1.04392
#
# Static dielectric constant tensor:
#      x y z
#    x 1.920770 0.000000 -0.018030 
#    y 0.000000 1.871680 0.000000 
#    z -0.018030 0.000000 2.123660 
# 
# From -- ./inp_files/45653.got.cif
#   From: 2010.05.17/outbox.cif.g08.bks.cpg/sg15_23_cif.got.tgz:45653.got - 2010.06.03 18:47:42.
