data_PCOD9287542
_publ_section_title
;
Structure prediction by ZEFSAII (Michael W. Deem and Ramdas Pophale) SiO2 
 PCOD9287542
Probable space group: C 2/C
;
_chemical_formula_sum "Si O2"
_cell_formula_units_Z 48
_cell_length_a 21.413111
_cell_length_b 20.235217
_cell_length_c 18.989693
_cell_angle_alpha 90.000000
_cell_angle_beta 20.769694
_cell_angle_gamma 90.000000
_cell_volume 2917.827095
_symmetry_space_group_name_H-M "C 2/C"
_symmetry_group_IT_number 15
_symmetry_cell_setting 'monoclinic'
loop_
_space_group_symop_operation_xyz
x,y,z
-x,y,1/2-z
-x,-y,-z
x,-y,1/2+z
1/2+x,1/2+y,z
1/2-x,1/2+y,1/2-z
1/2-x,1/2-y,-z
1/2+x,1/2-y,1/2+z
loop_
_atom_site_type_symbol
_atom_site_label
_atom_site_fract_x
_atom_site_fract_y
_atom_site_fract_z
Si Si1 0.175265 0.966494 0.904942
Si Si2 0.220555 0.962690 0.211821
Si Si3 0.193402 0.865767 0.059618
Si Si4 0.704699 0.180993 0.186653
Si Si5 0.787505 0.676593 0.617564
Si Si6 0.062616 0.516495 0.253454
O O1 0.216497 0.887724 0.867430
O O2 0.234256 0.992974 0.766632
O O3 0.287984 0.002634 0.847077
O O4 0.965359 0.977196 0.130121
O O5 0.215967 0.885070 0.237488
O O6 0.387956 0.971126 0.984259
O O7 0.217257 0.838942 0.112650
O O8 0.000000 0.895257 0.250000
O O9 0.212536 0.810907 0.978660
O O10 0.340267 0.919703 0.884477
O O11 0.738309 0.249322 0.191010
O O12 0.497291 0.172699 0.397222
O O13 0.000000 0.476606 0.250000
#
# Coordination Sequence:
#
# PCOD9287542 Si02
#       6
#     8   8   8   8   8   8
#     4  10  22  37  52  74  98 145 173 217 256 303
#     4  11  21  36  55  70 104 139 178 213 257 304
#     4  11  19  31  45  69 104 137 173 204 247 295
#     4  11  22  32  48  68 102 135 177 208 250 296
#     4  12  20  33  47  72  99 138 170 215 247 302
#     4  11  20  32  52  74 102 136 172 213 253 302
#
# _framework density 16.450597999999999
#
# number of rings (size 3 to 8) (size 9 to 14) (size 15 to 20)
#    0.000    1.000    5.000    5.500    0.000    0.000 
#    0.000    0.000    0.000    0.000    0.000    0.000 
#    0.000    1.333    0.667    0.000    0.000    0.000 
#
# Total GULP energy -133719.682503 kJ/mol
# GULP energy per Si atom -5571.653438 kJ/mol
# Density = 1.641316 g / cm^3
# Si number density = 16.450598 Si / 1000 Ang^3
#
#
#
# Elastic Constant Matrix: (Units=GPa)
#
#
# Indices 1 2 3 4 5 6 
#
# 1 100.9789 32.8752 36.1015 -0.0040 -19.5650 0.0072
# 2 32.8752 60.3943 9.1164 -0.0211 8.9405 0.0069
# 3 36.1015 9.1164 95.5334 -0.0135 -23.0463 0.0008
# 4 -0.0040 -0.0211 -0.0135 18.4980 0.0087 0.8018
# 5 -19.5650 8.9405 -23.0463 0.0087 27.4043 0.0000
# 6 0.0072 0.0069 0.0008 0.8018 0.0000 22.0352
#
#
#
# Elastic Compliance Matrix: (Units=1/GPa)
#
#
# Indices 1 2 3 4 5 6 
#
# 1 0.016882 -0.010963 -0.001961 -0.000017 0.013981 -0.000001
# 2 -0.010963 0.025692 -0.002784 0.000034 -0.018550 -0.000006
# 3 -0.001961 -0.002784 0.014246 0.000001 0.011488 0.000001
# 4 -0.000017 0.000034 0.000001 0.054145 -0.000039 -0.001970
# 5 0.013981 -0.018550 0.011488 -0.000039 0.062185 0.000002
# 6 -0.000001 -0.000006 0.000001 -0.001970 0.000002 0.045454
#
#
# Mechanical properties :
#
#
# Convention : Reuss Voigt Hill
#
# Bulk Modulus (GPa) = 39.36383 45.89919 42.63151
# Shear Modulus (GPa) = 19.34331 25.50841 22.42586
#
# Velocity S-wave (km/s) = 3.43278 3.94205 3.69619
# Velocity P-wave (km/s) = 6.30019 6.97721 6.64732
#
# Compressibility (1/GPa) = 0.02540403
#
# Stress axis : x y z
#
# Youngs Moduli (GPa) = 59.23430 38.92278 70.19693
#
# Poissons Ratio (x) = 0.42672 0.13764
# Poissons Ratio (y) = 0.64940 0.19541
# Poissons Ratio (z) = 0.11615 0.10835
#
# Static dielectric constant tensor:
#      x y z
#    x 1.608720 -0.000010 -0.027620 
#    y -0.000010 1.587970 0.000020 
#    z -0.027620 0.000020 1.590240 
# 
# From -- ./inp_files/216530.got.cif
#   From: 2010.05.17/outbox.cif.g08.bks.cpg/sg15_109_cif.got.tgz:216530.got - 2010.06.03 18:47:42.
