data_PCOD9287727
_publ_section_title
;
Structure prediction by ZEFSAII (Michael W. Deem and Ramdas Pophale) SiO2 
 PCOD9287727
Probable space group: C 2/C
;
_chemical_formula_sum "Si O2"
_cell_formula_units_Z 40
_cell_length_a 23.742844
_cell_length_b 7.869828
_cell_length_c 14.278183
_cell_angle_alpha 90.000000
_cell_angle_beta 138.517049
_cell_angle_gamma 90.000000
_cell_volume 1767.214981
_symmetry_space_group_name_H-M "C 2/C"
_symmetry_group_IT_number 15
_symmetry_cell_setting 'monoclinic'
loop_
_space_group_symop_operation_xyz
x,y,z
-x,y,1/2-z
-x,-y,-z
x,-y,1/2+z
1/2+x,1/2+y,z
1/2-x,1/2+y,1/2-z
1/2-x,1/2-y,-z
1/2+x,1/2-y,1/2+z
loop_
_atom_site_type_symbol
_atom_site_label
_atom_site_fract_x
_atom_site_fract_y
_atom_site_fract_z
Si Si1 0.842542 0.134095 0.412168
Si Si2 0.296369 0.136459 0.418701
Si Si3 0.466180 0.672631 0.103364
Si Si4 0.080899 0.607514 0.623677
Si Si5 0.233965 0.501740 0.423752
O O1 0.764381 0.092837 0.244011
O O2 0.877512 0.310546 0.416566
O O3 0.916351 0.991567 0.501991
O O4 0.801995 0.130119 0.465014
O O5 0.394407 0.178035 0.517572
O O6 0.266246 0.318864 0.423918
O O7 0.278374 0.009695 0.481467
O O8 0.500000 0.638991 0.250000
O O9 0.546974 0.734887 0.144399
O O10 0.143172 0.488780 0.760875
O O11 0.000000 0.500000 0.500000
#
# Coordination Sequence:
#
# PCOD9287727 Si02
#       5
#     8   8   8   8   8
#     4  10  22  37  65  96 125 170 226 267 321 401
#     4   9  18  36  63  91 123 172 215 256 325 392
#     4  11  21  39  68  96 129 174 224 270 329 391
#     4  11  22  39  64  94 133 170 213 277 335 388
#     4   9  18  36  62  88 122 168 218 255 314 404
#
# _framework density 22.634482999999999
#
# number of rings (size 3 to 8) (size 9 to 14) (size 15 to 20)
#    0.000    2.000    2.000    1.800    2.800    0.000 
#    0.000    1.000    8.800   13.200    0.000    0.000 
#    0.000    0.000    0.000    0.000    0.000    0.000 
#
# Total GULP energy -111777.250739 kJ/mol
# GULP energy per Si atom -5588.862537 kJ/mol
# Density = 2.258297 g / cm^3
# Si number density = 22.634483 Si / 1000 Ang^3
#
#
#
# Elastic Constant Matrix: (Units=GPa)
#
#
# Indices 1 2 3 4 5 6 
#
# 1 59.2966 12.5973 12.6371 0.0000 3.7415 0.0000
# 2 12.5973 68.5968 17.5456 0.0000 -10.4375 0.0000
# 3 12.6371 17.5456 81.0051 0.0000 2.4070 0.0000
# 4 0.0000 0.0000 0.0000 39.2362 0.0000 13.5764
# 5 3.7415 -10.4375 2.4070 0.0000 30.1537 0.0000
# 6 0.0000 0.0000 0.0000 13.5764 0.0000 37.5627
#
#
#
# Elastic Compliance Matrix: (Units=1/GPa)
#
#
# Indices 1 2 3 4 5 6 
#
# 1 0.018206 -0.003319 -0.002025 0.000000 -0.003246 0.000000
# 2 -0.003319 0.017051 -0.003371 0.000000 0.006583 0.000000
# 3 -0.002025 -0.003371 0.013450 0.000000 -0.001989 0.000000
# 4 0.000000 0.000000 0.000000 0.029130 0.000000 -0.010528
# 5 -0.003246 0.006583 -0.001989 0.000000 0.036004 0.000000
# 6 0.000000 0.000000 0.000000 -0.010528 0.000000 0.030428
#
#
# Mechanical properties :
#
#
# Convention : Reuss Voigt Hill
#
# Bulk Modulus (GPa) = 31.97252 32.71761 32.34507
# Shear Modulus (GPa) = 29.04871 32.46507 30.75689
#
# Velocity S-wave (km/s) = 3.58632 3.79135 3.69026
# Velocity P-wave (km/s) = 5.59510 5.80103 5.69899
#
# Compressibility (1/GPa) = 0.03127686
#
# Stress axis : x y z
#
# Youngs Moduli (GPa) = 54.92720 58.64595 74.34912
#
# Poissons Ratio (x) = 0.19467 0.15054
# Poissons Ratio (y) = 0.18233 0.25064
# Poissons Ratio (z) = 0.11121 0.19770
#
# Static dielectric constant tensor:
#      x y z
#    x 1.890490 0.000000 0.022520 
#    y 0.000000 1.872610 0.000000 
#    z 0.022520 0.000000 1.802520 
# 
# From -- ./inp_files/172133.got.cif
#   From: 2010.05.17/outbox.cif.g08.bks.cpg/sg15_87_cif.got.tgz:172133.got - 2010.06.03 18:47:42.
