data_PCOD9287995
_publ_section_title
;
Structure prediction by ZEFSAII (Michael W. Deem and Ramdas Pophale) SiO2 
 PCOD9287995
Probable space group: C 2/C
;
_chemical_formula_sum "Si O2"
_cell_formula_units_Z 48
_cell_length_a 5.408056
_cell_length_b 24.238345
_cell_length_c 19.914856
_cell_angle_alpha 90.000000
_cell_angle_beta 57.144606
_cell_angle_gamma 90.000000
_cell_volume 2192.918863
_symmetry_space_group_name_H-M "C 2/C"
_symmetry_group_IT_number 15
_symmetry_cell_setting 'monoclinic'
loop_
_space_group_symop_operation_xyz
x,y,z
-x,y,1/2-z
-x,-y,-z
x,-y,1/2+z
1/2+x,1/2+y,z
1/2-x,1/2+y,1/2-z
1/2-x,1/2-y,-z
1/2+x,1/2-y,1/2+z
loop_
_atom_site_type_symbol
_atom_site_label
_atom_site_fract_x
_atom_site_fract_y
_atom_site_fract_z
Si Si1 0.466218 0.290948 0.116855
Si Si2 0.500000 0.963458 0.250000
Si Si3 0.524026 0.828647 0.552785
Si Si4 0.024654 0.103572 0.057117
Si Si5 0.500000 0.653326 0.750000
Si Si6 0.802137 0.067670 0.221438
Si Si7 0.890595 0.389427 0.379282
O O1 0.459769 0.226355 0.104191
O O2 0.407724 0.308035 0.201694
O O3 0.237246 0.327552 0.107718
O O4 0.780592 0.311447 0.041073
O O5 0.307382 0.925282 0.326444
O O6 0.693135 0.007747 0.262793
O O7 0.218665 0.852440 0.570447
O O8 0.734266 0.870480 0.564226
O O9 0.945475 0.060762 0.127243
O O10 0.246465 0.084399 0.966075
O O11 0.762073 0.616595 0.681374
O O12 0.500000 0.100099 0.250000
O O13 0.000000 0.093127 0.250000
#
# Coordination Sequence:
#
# PCOD9287995 Si02
#       7
#     8   4   8   8   4   8   8
#     4  10  22  38  61  95 135 169 218 261 318 389
#     4  10  24  42  65  98 128 173 208 286 330 384
#     4  10  23  40  67  94 131 176 212 263 319 380
#     4  11  23  45  68  97 130 177 217 267 325 390
#     4  12  20  38  59  96 134 171 216 270 310 382
#     4  10  24  46  67  92 128 169 217 282 326 391
#     4  11  23  39  67  97 133 171 218 271 327 384
#
# _framework density 21.888636000000002
#
# number of rings (size 3 to 8) (size 9 to 14) (size 15 to 20)
#    0.500    1.000    3.333    1.000    3.500    2.667 
#    4.500    0.833    0.000    0.000    0.000    0.000 
#    0.000    0.000    0.000    0.000    0.000    0.000 
#
# Total GULP energy -133793.607562 kJ/mol
# GULP energy per Si atom -5574.733648 kJ/mol
# Density = 2.183882 g / cm^3
# Si number density = 21.888636 Si / 1000 Ang^3
#
#
#
# Elastic Constant Matrix: (Units=GPa)
#
#
# Indices 1 2 3 4 5 6 
#
# 1 98.2785 -3.0789 13.5912 0.0000 8.7278 0.0000
# 2 -3.0789 29.1821 4.8761 0.0000 0.1503 0.0000
# 3 13.5912 4.8761 141.1584 0.0000 12.4425 0.0000
# 4 0.0000 0.0000 0.0000 6.6688 0.0000 -4.1089
# 5 8.7278 0.1503 12.4425 0.0000 32.2200 0.0000
# 6 0.0000 0.0000 0.0000 -4.1089 0.0000 10.2156
#
#
#
# Elastic Compliance Matrix: (Units=1/GPa)
#
#
# Indices 1 2 3 4 5 6 
#
# 1 0.010556 0.001267 -0.000836 0.000000 -0.002543 0.000000
# 2 0.001267 0.034622 -0.001318 0.000000 0.000005 0.000000
# 3 -0.000836 -0.001318 0.007443 0.000000 -0.002642 0.000000
# 4 0.000000 0.000000 0.000000 0.199357 0.000000 0.080186
# 5 -0.002543 0.000005 -0.002642 0.000000 0.032745 0.000000
# 6 0.000000 0.000000 0.000000 0.080186 0.000000 0.130142
#
#
# Mechanical properties :
#
#
# Convention : Reuss Voigt Hill
#
# Bulk Modulus (GPa) = 19.66747 33.26618 26.46682
# Shear Modulus (GPa) = 11.53165 26.70294 19.11730
#
# Velocity S-wave (km/s) = 2.29777 3.49656 2.95852
# Velocity P-wave (km/s) = 4.00555 5.61535 4.87733
#
# Compressibility (1/GPa) = 0.05084538
#
# Stress axis : x y z
#
# Youngs Moduli (GPa) = 94.73058 28.88378 134.35209
#
# Poissons Ratio (x) = -0.03658 0.11232
# Poissons Ratio (y) = -0.11998 0.17711
# Poissons Ratio (z) = 0.07920 0.03808
#
# Static dielectric constant tensor:
#      x y z
#    x 1.902630 0.000000 -0.012290 
#    y 0.000000 1.775630 0.000000 
#    z -0.012290 0.000000 1.846330 
# 
# From -- ./inp_files/228308.got.cif
#   From: 2010.05.17/outbox.cif.g08.bks.cpg/sg15_115_cif.got.tgz:228308.got - 2010.06.03 18:47:42.
