data_PCOD9287054
_publ_section_title
;
Structure prediction by ZEFSAII (Michael W. Deem and Ramdas Pophale) SiO2 
 PCOD9287054
Probable space group: C 2/C
;
_chemical_formula_sum "Si O2"
_cell_formula_units_Z 56
_cell_length_a 29.987049
_cell_length_b 9.636231
_cell_length_c 9.341319
_cell_angle_alpha 90.000000
_cell_angle_beta 123.818635
_cell_angle_gamma 90.000000
_cell_volume 2242.577443
_symmetry_space_group_name_H-M "C 2/C"
_symmetry_group_IT_number 15
_symmetry_cell_setting 'monoclinic'
loop_
_space_group_symop_operation_xyz
x,y,z
-x,y,1/2-z
-x,-y,-z
x,-y,1/2+z
1/2+x,1/2+y,z
1/2-x,1/2+y,1/2-z
1/2-x,1/2-y,-z
1/2+x,1/2-y,1/2+z
loop_
_atom_site_type_symbol
_atom_site_label
_atom_site_fract_x
_atom_site_fract_y
_atom_site_fract_z
Si Si1 0.000000 0.833819 0.250000
Si Si2 0.712483 0.464785 0.721376
Si Si3 0.444546 0.373229 0.426377
Si Si4 0.000000 0.327789 0.250000
Si Si5 0.162145 0.752334 0.241436
Si Si6 0.712117 0.014768 0.909230
Si Si7 0.897296 0.155871 0.428908
Si Si8 0.113321 0.659732 0.850234
O O1 0.023451 0.916548 0.156847
O O2 0.053305 0.759590 0.410622
O O3 0.690247 0.602678 0.758039
O O4 0.747679 0.517024 0.652178
O O5 0.662608 0.359732 0.613367
O O6 0.755622 0.406638 0.909577
O O7 0.478250 0.271071 0.585251
O O8 0.393287 0.286610 0.280172
O O9 0.419428 0.498701 0.469819
O O10 0.945918 0.398983 0.216227
O O11 0.198910 0.648704 0.395934
O O12 0.143386 0.686875 0.054588
O O13 0.651880 0.075161 0.811299
O O14 0.893730 0.200326 0.256018
#
# Coordination Sequence:
#
# PCOD9287054 Si02
#       8
#     4   8   8   4   8   8   8   8
#     4  12  23  38  65 112 134 173 226 285 344 418
#     4  11  26  42  72  98 140 179 232 282 347 402
#     4  10  23  39  66  99 138 176 224 281 351 404
#     4  10  21  46  67 100 142 187 218 287 352 412
#     4  10  24  45  67  95 136 178 231 286 343 408
#     4  12  25  47  68 101 133 188 229 286 333 417
#     4  11  25  39  69 105 143 178 222 287 352 412
#     4  11  24  44  71 100 139 181 228 281 356 410
#
# _framework density 24.971267999999998
#
# number of rings (size 3 to 8) (size 9 to 14) (size 15 to 20)
#    0.000    1.143    2.857    2.143   12.000    2.286 
#    0.000    3.571    0.000    0.000    0.000    0.000 
#    0.000    0.000    0.000    0.000    0.000    0.000 
#
# Total GULP energy -156260.321090 kJ/mol
# GULP energy per Si atom -5580.725753 kJ/mol
# Density = 2.491443 g / cm^3
# Si number density = 24.971268 Si / 1000 Ang^3
#
#
#
# Elastic Constant Matrix: (Units=GPa)
#
#
# Indices 1 2 3 4 5 6 
#
# 1 219.2456 20.0641 50.2766 0.0000 17.2890 0.0000
# 2 20.0641 28.9988 -5.0812 0.0000 15.1929 0.0000
# 3 50.2766 -5.0812 101.7763 0.0000 12.0899 0.0000
# 4 0.0000 0.0000 0.0000 10.7508 0.0000 4.6947
# 5 17.2890 15.1929 12.0899 0.0000 48.2485 0.0000
# 6 0.0000 0.0000 0.0000 4.6947 0.0000 33.4596
#
#
#
# Elastic Compliance Matrix: (Units=1/GPa)
#
#
# Indices 1 2 3 4 5 6 
#
# 1 0.005661 -0.004534 -0.003042 0.000000 0.000162 0.000000
# 2 -0.004534 0.046340 0.006281 0.000000 -0.014541 0.000000
# 3 -0.003042 0.006281 0.012108 0.000000 -0.003922 0.000000
# 4 0.000000 0.000000 0.000000 0.099088 0.000000 -0.013903
# 5 0.000162 -0.014541 -0.003922 0.000000 0.026230 0.000000
# 6 0.000000 0.000000 0.000000 -0.013903 0.000000 0.031838
#
#
# Mechanical properties :
#
#
# Convention : Reuss Voigt Hill
#
# Bulk Modulus (GPa) = 16.25550 53.39329 34.82439
# Shear Modulus (GPa) = 20.46156 37.47587 28.96871
#
# Velocity S-wave (km/s) = 2.86563 3.87817 3.40969
# Velocity P-wave (km/s) = 4.18006 6.44064 5.42931
#
# Compressibility (1/GPa) = 0.06151765
#
# Stress axis : x y z
#
# Youngs Moduli (GPa) = 176.65029 21.57947 82.59265
#
# Poissons Ratio (x) = 0.09785 0.25125
# Poissons Ratio (y) = 0.80101 -0.51875
# Poissons Ratio (z) = 0.53737 -0.13554
#
# Static dielectric constant tensor:
#      x y z
#    x 2.269240 0.000000 0.051900 
#    y 0.000000 1.965610 0.000000 
#    z 0.051900 0.000000 2.079650 
# 
# From -- ./inp_files/69483.got.cif
#   From: 2010.05.17/outbox.cif.g08.bks.cpg/sg15_35_cif.got.tgz:69483.got - 2010.06.03 18:47:42.
