data_PCOD9287864
_publ_section_title
;
Structure prediction by ZEFSAII (Michael W. Deem and Ramdas Pophale) SiO2 
 PCOD9287864
Probable space group: C 2/C
;
_chemical_formula_sum "Si O2"
_cell_formula_units_Z 52
_cell_length_a 11.857848
_cell_length_b 16.425911
_cell_length_c 14.087415
_cell_angle_alpha 90.000000
_cell_angle_beta 54.750507
_cell_angle_gamma 90.000000
_cell_volume 2240.788384
_symmetry_space_group_name_H-M "C 2/C"
_symmetry_group_IT_number 15
_symmetry_cell_setting 'monoclinic'
loop_
_space_group_symop_operation_xyz
x,y,z
-x,y,1/2-z
-x,-y,-z
x,-y,1/2+z
1/2+x,1/2+y,z
1/2-x,1/2+y,1/2-z
1/2-x,1/2-y,-z
1/2+x,1/2-y,1/2+z
loop_
_atom_site_type_symbol
_atom_site_label
_atom_site_fract_x
_atom_site_fract_y
_atom_site_fract_z
Si Si1 0.483821 0.514474 0.868826
Si Si2 0.143605 0.712867 0.976223
Si Si3 0.500000 0.261510 0.750000
Si Si4 0.500902 0.345969 0.924985
Si Si5 0.822259 0.622864 0.908727
Si Si6 0.167182 0.535657 0.992485
Si Si7 0.246574 0.599302 0.769239
O O1 0.500000 0.487635 0.750000
O O2 0.535435 0.441769 0.911845
O O3 0.324758 0.540611 0.956862
O O4 0.591414 0.587249 0.824737
O O5 0.040648 0.782549 0.987977
O O6 0.094646 0.623901 0.041493
O O7 0.219456 0.680180 0.843595
O O8 0.250000 0.750000 0.000000
O O9 0.574191 0.316141 0.791997
O O10 0.411688 0.203627 0.861365
O O11 0.335082 0.354606 0.988703
O O12 0.820715 0.596297 0.799850
O O13 0.882346 0.549735 0.942013
O O14 0.189150 0.530598 0.868399
#
# Coordination Sequence:
#
# PCOD9287864 Si02
#       7
#     8   8   4   8   8   8   8
#     4   9  17  33  63  91 121 163 223 267 311 390
#     4  10  22  38  58  94 140 167 209 276 337 385
#     4  12  22  44  64  90 130 160 224 288 322 390
#     4  11  23  38  65 100 125 172 220 280 331 387
#     4  11  23  40  68  92 127 179 221 265 342 398
#     4   8  20  37  59  93 124 172 214 265 325 398
#     4   9  20  37  60  93 127 174 213 270 323 394
#
# _framework density 23.206119000000001
#
# number of rings (size 3 to 8) (size 9 to 14) (size 15 to 20)
#    0.923    1.231    2.308    0.462    4.308    1.231 
#    0.000    3.077    3.385    0.000    0.000    0.000 
#    0.000    0.000    0.000    0.000    0.000    0.000 
#
# Total GULP energy -144850.648727 kJ/mol
# GULP energy per Si atom -5571.178797 kJ/mol
# Density = 2.315330 g / cm^3
# Si number density = 23.206119 Si / 1000 Ang^3
#
#
#
# Elastic Constant Matrix: (Units=GPa)
#
#
# Indices 1 2 3 4 5 6 
#
# 1 75.0591 38.1356 10.8863 0.0000 13.0794 0.0000
# 2 38.1356 162.5302 44.5856 0.0000 13.0982 0.0000
# 3 10.8863 44.5856 64.8272 0.0000 15.3874 0.0000
# 4 0.0000 0.0000 0.0000 53.7382 0.0000 12.8910
# 5 13.0794 13.0982 15.3874 0.0000 38.4027 0.0000
# 6 0.0000 0.0000 0.0000 12.8910 0.0000 41.1683
#
#
#
# Elastic Compliance Matrix: (Units=1/GPa)
#
#
# Indices 1 2 3 4 5 6 
#
# 1 0.015803 -0.003587 0.000884 0.000000 -0.004513 0.000000
# 2 -0.003587 0.008408 -0.005293 0.000000 0.000475 0.000000
# 3 0.000884 -0.005293 0.020511 0.000000 -0.006714 0.000000
# 4 0.000000 0.000000 0.000000 0.020120 0.000000 -0.006300
# 5 -0.004513 0.000475 -0.006714 0.000000 0.030106 0.000000
# 6 0.000000 0.000000 0.000000 -0.006300 0.000000 0.026263
#
#
# Mechanical properties :
#
#
# Convention : Reuss Voigt Hill
#
# Bulk Modulus (GPa) = 34.80498 54.40353 44.60426
# Shear Modulus (GPa) = 34.06455 40.58242 37.32349
#
# Velocity S-wave (km/s) = 3.83549 4.18638 4.01477
# Velocity P-wave (km/s) = 5.88603 6.84560 6.38387
#
# Compressibility (1/GPa) = 0.02873152
#
# Stress axis : x y z
#
# Youngs Moduli (GPa) = 63.27716 118.93306 48.75382
#
# Poissons Ratio (x) = 0.42661 -0.04312
# Poissons Ratio (y) = 0.22697 0.25806
# Poissons Ratio (z) = -0.05596 0.62952
#
# Static dielectric constant tensor:
#      x y z
#    x 1.927590 0.000000 0.006430 
#    y 0.000000 1.954290 0.000000 
#    z 0.006430 0.000000 1.940860 
# 
# From -- ./inp_files/145490.got.cif
#   From: 2010.05.17/outbox.cif.g08.bks.cpg/sg15_73_cif.got.tgz:145490.got - 2010.06.03 18:47:42.
