data_PCOD9287904
_publ_section_title
;
Structure prediction by ZEFSAII (Michael W. Deem and Ramdas Pophale) SiO2 
 PCOD9287904
Probable space group: C 2/C
;
_chemical_formula_sum "Si O2"
_cell_formula_units_Z 56
_cell_length_a 16.759148
_cell_length_b 15.817047
_cell_length_c 9.550438
_cell_angle_alpha 90.000000
_cell_angle_beta 97.538268
_cell_angle_gamma 90.000000
_cell_volume 2509.752587
_symmetry_space_group_name_H-M "C 2/C"
_symmetry_group_IT_number 15
_symmetry_cell_setting 'monoclinic'
loop_
_space_group_symop_operation_xyz
x,y,z
-x,y,1/2-z
-x,-y,-z
x,-y,1/2+z
1/2+x,1/2+y,z
1/2-x,1/2+y,1/2-z
1/2-x,1/2-y,-z
1/2+x,1/2-y,1/2+z
loop_
_atom_site_type_symbol
_atom_site_label
_atom_site_fract_x
_atom_site_fract_y
_atom_site_fract_z
Si Si1 0.091931 0.383480 0.752361
Si Si2 0.210261 0.929486 0.215048
Si Si3 0.734364 0.850181 0.990995
Si Si4 0.437968 0.691605 0.846666
Si Si5 0.063802 0.251283 0.361983
Si Si6 0.830150 0.114954 0.248072
Si Si7 0.313001 0.114184 0.484886
O O1 0.152482 0.382837 0.897614
O O2 0.087807 0.282830 0.718694
O O3 0.130091 0.426437 0.622103
O O4 0.000000 0.412260 0.750000
O O5 0.257610 0.885952 0.352358
O O6 0.138955 0.867264 0.151068
O O7 0.269577 0.939888 0.095686
O O8 0.170816 0.014169 0.269159
O O9 0.806229 0.877168 0.903945
O O10 0.750000 0.750000 0.000000
O O11 0.500000 0.653653 0.750000
O O12 0.474710 0.714337 0.005222
O O13 0.096260 0.171888 0.281141
O O14 0.135028 0.313591 0.426839
O O15 0.000000 0.298262 0.250000
O O16 0.757868 0.149037 0.131821
#
# Coordination Sequence:
#
# PCOD9287904 Si02
#       7
#     8   8   8   8   8   8   8
#     4   9  20  39  63  93 129 163 209 275 325 370
#     4  12  23  39  64  94 133 178 212 268 327 392
#     4  11  22  36  64  94 121 164 230 266 306 390
#     4  10  22  38  59  92 136 169 205 261 330 382
#     4  11  24  41  69  96 127 170 223 270 326 392
#     4  11  24  41  62  95 132 171 214 265 332 390
#     4  10  22  42  67  91 130 172 219 271 321 382
#
# _framework density 22.312954999999999
#
# number of rings (size 3 to 8) (size 9 to 14) (size 15 to 20)
#    0.000    1.429    2.857    2.143    4.000    5.143 
#    0.000    1.429    0.000   22.286    0.000    0.000 
#    0.000    0.000    0.000    0.000    0.000    0.000 
#
# Total GULP energy -156335.244943 kJ/mol
# GULP energy per Si atom -5583.401605 kJ/mol
# Density = 2.226217 g / cm^3
# Si number density = 22.312955 Si / 1000 Ang^3
#
#
#
# Elastic Constant Matrix: (Units=GPa)
#
#
# Indices 1 2 3 4 5 6 
#
# 1 69.3692 0.2898 29.1341 0.0000 -7.6495 0.0000
# 2 0.2898 50.8490 5.2851 0.0000 1.9634 0.0000
# 3 29.1341 5.2851 116.1913 0.0000 3.7370 0.0000
# 4 0.0000 0.0000 0.0000 17.6850 0.0000 -5.5411
# 5 -7.6495 1.9634 3.7370 0.0000 26.2312 0.0000
# 6 0.0000 0.0000 0.0000 -5.5411 0.0000 9.4101
#
#
#
# Elastic Compliance Matrix: (Units=1/GPa)
#
#
# Indices 1 2 3 4 5 6 
#
# 1 0.016881 0.000149 -0.004418 0.000000 0.005541 0.000000
# 2 0.000149 0.019809 -0.000896 0.000000 -0.001312 0.000000
# 3 -0.004418 -0.000896 0.009839 0.000000 -0.002623 0.000000
# 4 0.000000 0.000000 0.000000 0.069338 0.000000 0.040829
# 5 0.005541 -0.001312 -0.002623 0.000000 0.040210 0.000000
# 6 0.000000 0.000000 0.000000 0.040829 0.000000 0.130311
#
#
# Mechanical properties :
#
#
# Convention : Reuss Voigt Hill
#
# Bulk Modulus (GPa) = 27.62459 33.98085 30.80272
# Shear Modulus (GPa) = 16.19245 24.11196 20.15221
#
# Velocity S-wave (km/s) = 2.69680 3.29085 3.00853
# Velocity P-wave (km/s) = 4.70153 5.44994 5.08951
#
# Compressibility (1/GPa) = 0.03619963
#
# Stress axis : x y z
#
# Youngs Moduli (GPa) = 59.23648 50.48211 101.63242
#
# Poissons Ratio (x) = -0.00752 0.44900
# Poissons Ratio (y) = -0.00883 0.09108
# Poissons Ratio (z) = 0.26170 0.04524
#
# Static dielectric constant tensor:
#      x y z
#    x 1.917910 0.000000 0.074980 
#    y 0.000000 1.858980 0.000000 
#    z 0.074980 0.000000 2.018560 
# 
# From -- ./inp_files/49160.got.cif
#   From: 2010.05.17/outbox.cif.g08.bks.cpg/sg15_25_cif.got.tgz:49160.got - 2010.06.03 18:47:42.
