data_PCOD9287627
_publ_section_title
;
Structure prediction by ZEFSAII (Michael W. Deem and Ramdas Pophale) SiO2 
 PCOD9287627
Probable space group: C 2/C
;
_chemical_formula_sum "Si O2"
_cell_formula_units_Z 52
_cell_length_a 14.051421
_cell_length_b 11.056957
_cell_length_c 23.931933
_cell_angle_alpha 90.000000
_cell_angle_beta 128.880263
_cell_angle_gamma 90.000000
_cell_volume 2894.473805
_symmetry_space_group_name_H-M "C 2/C"
_symmetry_group_IT_number 15
_symmetry_cell_setting 'monoclinic'
loop_
_space_group_symop_operation_xyz
x,y,z
-x,y,1/2-z
-x,-y,-z
x,-y,1/2+z
1/2+x,1/2+y,z
1/2-x,1/2+y,1/2-z
1/2-x,1/2-y,-z
1/2+x,1/2-y,1/2+z
loop_
_atom_site_type_symbol
_atom_site_label
_atom_site_fract_x
_atom_site_fract_y
_atom_site_fract_z
Si Si1 0.120615 0.392415 0.451932
Si Si2 0.156464 0.411240 0.117823
Si Si3 0.613917 0.193526 0.128626
Si Si4 0.342467 0.154437 0.008014
Si Si5 0.000000 0.051619 0.250000
Si Si6 0.196803 0.215583 0.387028
Si Si7 0.102015 0.183764 0.743681
O O1 0.144415 0.533862 0.450242
O O2 0.133676 0.318970 0.399909
O O3 0.216932 0.349676 0.534752
O O4 0.983937 0.374208 0.424803
O O5 0.154389 0.552145 0.136590
O O6 0.257858 0.329749 0.185170
O O7 0.190644 0.394650 0.065503
O O8 0.478679 0.207074 0.053860
O O9 0.713135 0.263047 0.128075
O O10 0.603127 0.242377 0.187171
O O11 0.250000 0.250000 0.000000
O O12 0.902091 0.131034 0.180313
O O13 0.940559 0.957635 0.272713
O O14 0.000000 0.235083 0.750000
#
# Coordination Sequence:
#
# PCOD9287627 Si02
#       7
#     8   8   8   8   4   8   8
#     4  10  22  38  62  93 117 157 204 248 294 364
#     4  11  20  41  61  87 119 165 198 238 313 353
#     4  11  20  38  63  88 119 161 196 253 294 363
#     4  11  21  38  66  88 119 161 201 245 302 359
#     4  10  22  40  62  84 118 170 190 246 308 358
#     4  11  21  40  63  88 123 155 200 248 301 356
#     4  10  22  37  60  91 120 155 207 242 298 366
#
# _framework density 17.965267999999998
#
# number of rings (size 3 to 8) (size 9 to 14) (size 15 to 20)
#    0.462    0.923    4.615    1.846    4.308    0.000 
#    0.000    6.923    0.000    0.000    0.000    0.000 
#    0.000    0.000    0.000    0.000    0.000    0.000 
#
# Total GULP energy -144780.474388 kJ/mol
# GULP energy per Si atom -5568.479784 kJ/mol
# Density = 1.792438 g / cm^3
# Si number density = 17.965268 Si / 1000 Ang^3
#
#
#
# Elastic Constant Matrix: (Units=GPa)
#
#
# Indices 1 2 3 4 5 6 
#
# 1 122.2355 66.1370 44.6338 0.0000 -15.7720 0.0000
# 2 66.1370 71.4415 41.1687 0.0000 -14.1084 0.0000
# 3 44.6338 41.1687 96.3145 0.0000 -6.4943 0.0000
# 4 0.0000 0.0000 0.0000 24.9727 0.0000 -10.1276
# 5 -15.7720 -14.1084 -6.4943 0.0000 39.0666 0.0000
# 6 0.0000 0.0000 0.0000 -10.1276 0.0000 25.8184
#
#
#
# Elastic Compliance Matrix: (Units=1/GPa)
#
#
# Indices 1 2 3 4 5 6 
#
# 1 0.016612 -0.014243 -0.001522 0.000000 0.001310 0.000000
# 2 -0.014243 0.032006 -0.006764 0.000000 0.004684 0.000000
# 3 -0.001522 -0.006764 0.013929 0.000000 -0.000742 0.000000
# 4 0.000000 0.000000 0.000000 0.047619 0.000000 0.018679
# 5 0.001310 0.004684 -0.000742 0.000000 0.027694 0.000000
# 6 0.000000 0.000000 0.000000 0.018679 0.000000 0.046059
#
#
# Mechanical properties :
#
#
# Convention : Reuss Voigt Hill
#
# Bulk Modulus (GPa) = 57.17968 65.98562 61.58265
# Shear Modulus (GPa) = 21.29407 27.17499 24.23453
#
# Velocity S-wave (km/s) = 3.44654 3.89349 3.67681
# Velocity P-wave (km/s) = 6.90907 7.55127 7.23729
#
# Compressibility (1/GPa) = 0.01748873
#
# Stress axis : x y z
#
# Youngs Moduli (GPa) = 60.19785 31.24446 71.79093
#
# Poissons Ratio (x) = 0.44501 0.10927
# Poissons Ratio (y) = 0.85738 0.48562
# Poissons Ratio (z) = 0.09162 0.21135
#
# Static dielectric constant tensor:
#      x y z
#    x 1.624380 0.000000 0.013790 
#    y 0.000000 1.623770 0.000000 
#    z 0.013790 0.000000 1.644820 
# 
# From -- ./inp_files/237695.got.cif
#   From: 2010.05.17/outbox.cif.g08.bks.cpg/sg15_119_cif.got.tgz:237695.got - 2010.06.03 18:47:42.
