data_PCOD9287288
_publ_section_title
;
Structure prediction by ZEFSAII (Michael W. Deem and Ramdas Pophale) SiO2 
 PCOD9287288
Probable space group: C 2/C
;
_chemical_formula_sum "Si O2"
_cell_formula_units_Z 52
_cell_length_a 27.220021
_cell_length_b 15.290082
_cell_length_c 8.733123
_cell_angle_alpha 90.000000
_cell_angle_beta 39.906356
_cell_angle_gamma 90.000000
_cell_volume 2331.782404
_symmetry_space_group_name_H-M "C 2/C"
_symmetry_group_IT_number 15
_symmetry_cell_setting 'monoclinic'
loop_
_space_group_symop_operation_xyz
x,y,z
-x,y,1/2-z
-x,-y,-z
x,-y,1/2+z
1/2+x,1/2+y,z
1/2-x,1/2+y,1/2-z
1/2-x,1/2-y,-z
1/2+x,1/2-y,1/2+z
loop_
_atom_site_type_symbol
_atom_site_label
_atom_site_fract_x
_atom_site_fract_y
_atom_site_fract_z
Si Si1 0.298360 0.281862 0.592312
Si Si2 0.474634 0.261563 0.147840
Si Si3 0.500000 0.658348 0.250000
Si Si4 0.249305 0.438138 0.877314
Si Si5 0.049555 0.579540 0.325659
Si Si6 0.353385 0.983796 0.641204
Si Si7 0.182201 0.869468 0.286530
O O1 0.383614 0.243317 0.382107
O O2 0.295446 0.349741 0.740720
O O3 0.232299 0.207447 0.750313
O O4 0.298934 0.342140 0.435826
O O5 0.500000 0.302135 0.250000
O O6 0.503485 0.163266 0.060363
O O7 0.494928 0.304762 0.937818
O O8 0.409443 0.627548 0.463204
O O9 0.181942 0.429679 0.913261
O O10 0.290589 0.531140 0.749136
O O11 0.210096 0.454266 0.132105
O O12 0.113683 0.580657 0.307964
O O13 0.000000 0.500000 0.500000
O O14 0.087019 0.547967 0.080095
#
# Coordination Sequence:
#
# PCOD9287288 Si02
#       7
#     8   8   4   8   8   8   8
#     4  10  22  42  72  94 139 188 224 301 348 424
#     4  11  25  45  64 100 140 181 236 290 353 425
#     4  10  26  44  72  96 140 184 230 298 350 422
#     4  11  21  40  66  98 128 176 230 285 345 410
#     4  11  23  38  58  93 137 179 220 280 353 428
#     4  10  22  35  60  94 128 168 229 278 335 422
#     4  10  22  44  67 103 135 183 243 281 361 426
#
# _framework density 22.300538
#
# number of rings (size 3 to 8) (size 9 to 14) (size 15 to 20)
#    0.000    1.538    1.538    3.231    6.462    3.692 
#    1.385    3.846    0.000    0.000    0.000    0.000 
#    0.000    0.000    0.000    0.000    0.000    0.000 
#
# Total GULP energy -144740.448901 kJ/mol
# GULP energy per Si atom -5566.940342 kJ/mol
# Density = 2.224978 g / cm^3
# Si number density = 22.300538 Si / 1000 Ang^3
#
#
#
# Elastic Constant Matrix: (Units=GPa)
#
#
# Indices 1 2 3 4 5 6 
#
# 1 86.7515 12.2428 27.1744 0.0000 10.1428 0.0000
# 2 12.2428 68.6112 40.1034 0.0000 -4.5033 0.0000
# 3 27.1744 40.1034 133.9930 0.0000 -1.0608 0.0000
# 4 0.0000 0.0000 0.0000 23.6383 0.0000 3.1789
# 5 10.1428 -4.5033 -1.0608 0.0000 43.4646 0.0000
# 6 0.0000 0.0000 0.0000 3.1789 0.0000 22.7792
#
#
#
# Elastic Compliance Matrix: (Units=1/GPa)
#
#
# Indices 1 2 3 4 5 6 
#
# 1 0.012770 -0.001160 -0.002268 0.000000 -0.003156 0.000000
# 2 -0.001160 0.017897 -0.005105 0.000000 0.002000 0.000000
# 3 -0.002268 -0.005105 0.009453 0.000000 0.000231 0.000000
# 4 0.000000 0.000000 0.000000 0.043113 0.000000 -0.006017
# 5 -0.003156 0.002000 0.000231 0.000000 0.023957 0.000000
# 6 0.000000 0.000000 0.000000 -0.006017 0.000000 0.044739
#
#
# Mechanical properties :
#
#
# Convention : Reuss Voigt Hill
#
# Bulk Modulus (GPa) = 43.37710 49.82185 46.59948
# Shear Modulus (GPa) = 28.29962 31.96542 30.13252
#
# Velocity S-wave (km/s) = 3.56618 3.79012 3.67986
# Velocity P-wave (km/s) = 6.03740 6.44539 6.24473
#
# Compressibility (1/GPa) = 0.02305364
#
# Stress axis : x y z
#
# Youngs Moduli (GPa) = 78.30739 55.87416 105.78888
#
# Poissons Ratio (x) = 0.06484 0.23988
# Poissons Ratio (y) = 0.09087 0.54010
# Poissons Ratio (z) = 0.17756 0.28526
#
# Static dielectric constant tensor:
#      x y z
#    x 1.983260 0.000000 -0.057950 
#    y 0.000000 1.860220 0.000000 
#    z -0.057950 0.000000 1.884490 
# 
# From -- ./inp_files/70088.got.cif
#   From: 2010.05.17/outbox.cif.g08.bks.cpg/sg15_36_cif.got.tgz:70088.got - 2010.06.03 18:47:42.
