data_PCOD9287536
_publ_section_title
;
Structure prediction by ZEFSAII (Michael W. Deem and Ramdas Pophale) SiO2 
 PCOD9287536
Probable space group: C 2/C
;
_chemical_formula_sum "Si O2"
_cell_formula_units_Z 44
_cell_length_a 13.028909
_cell_length_b 23.037947
_cell_length_c 8.682457
_cell_angle_alpha 90.000000
_cell_angle_beta 126.501345
_cell_angle_gamma 90.000000
_cell_volume 2094.911329
_symmetry_space_group_name_H-M "C 2/C"
_symmetry_group_IT_number 15
_symmetry_cell_setting 'monoclinic'
loop_
_space_group_symop_operation_xyz
x,y,z
-x,y,1/2-z
-x,-y,-z
x,-y,1/2+z
1/2+x,1/2+y,z
1/2-x,1/2+y,1/2-z
1/2-x,1/2-y,-z
1/2+x,1/2-y,1/2+z
loop_
_atom_site_type_symbol
_atom_site_label
_atom_site_fract_x
_atom_site_fract_y
_atom_site_fract_z
Si Si1 0.597320 0.482529 0.454616
Si Si2 0.000000 0.496490 0.250000
Si Si3 0.365522 0.215073 0.182263
Si Si4 0.141669 0.295675 0.453835
Si Si5 0.726753 0.914712 0.372568
Si Si6 0.196126 0.410387 0.997333
O O1 0.500000 0.454832 0.250000
O O2 0.500000 0.500000 0.500000
O O3 0.663559 0.543146 0.462069
O O4 0.713436 0.437089 0.556744
O O5 0.900049 0.453878 0.239658
O O6 0.087255 0.541100 0.422451
O O7 0.500000 0.241974 0.250000
O O8 0.365341 0.209424 0.367164
O O9 0.250000 0.250000 0.000000
O O10 0.356774 0.150514 0.104756
O O11 0.250000 0.250000 0.500000
O O12 0.194060 0.357852 0.440677
O O13 0.000000 0.286875 0.250000
O O14 0.758772 0.902317 0.221951
#
# Coordination Sequence:
#
# PCOD9287536 Si02
#       6
#     8   4   8   8   8   8
#     4  11  24  43  64  99 145 186 233 285 357 428
#     4  10  22  36  72 102 142 172 230 276 354 408
#     4  12  27  49  75 105 142 188 242 302 367 431
#     4  12  27  49  75 105 142 187 245 300 364 433
#     4  11  23  41  69 100 140 183 230 291 348 425
#     4  11  23  41  69 100 139 183 231 288 354 423
#
# _framework density 21.003274000000001
#
# number of rings (size 3 to 8) (size 9 to 14) (size 15 to 20)
#    0.000    0.727    3.636    3.818    2.545    2.909 
#    3.273    0.000    0.000    0.000    0.000    0.000 
#    0.000    0.000    0.000    0.000    0.000    0.000 
#
# Total GULP energy -122618.056477 kJ/mol
# GULP energy per Si atom -5573.548022 kJ/mol
# Density = 2.095547 g / cm^3
# Si number density = 21.003274 Si / 1000 Ang^3
#
#
#
# Elastic Constant Matrix: (Units=GPa)
#
#
# Indices 1 2 3 4 5 6 
#
# 1 119.5048 61.0810 44.2097 0.0000 18.9039 0.0000
# 2 61.0810 113.1517 41.1317 0.0000 10.4317 0.0000
# 3 44.2097 41.1317 87.1558 0.0000 0.2338 0.0000
# 4 0.0000 0.0000 0.0000 19.2842 0.0000 5.5117
# 5 18.9039 10.4317 0.2338 0.0000 43.9325 0.0000
# 6 0.0000 0.0000 0.0000 5.5117 0.0000 25.4166
#
#
#
# Elastic Compliance Matrix: (Units=1/GPa)
#
#
# Indices 1 2 3 4 5 6 
#
# 1 0.013332 -0.005227 -0.004284 0.000000 -0.004473 0.000000
# 2 -0.005227 0.013001 -0.003482 0.000000 -0.000819 0.000000
# 3 -0.004284 -0.003482 0.015283 0.000000 0.002589 0.000000
# 4 0.000000 0.000000 0.000000 0.055282 0.000000 -0.011988
# 5 -0.004473 -0.000819 0.002589 0.000000 0.024867 0.000000
# 6 0.000000 0.000000 0.000000 -0.011988 0.000000 0.041944
#
#
# Mechanical properties :
#
#
# Convention : Reuss Voigt Hill
#
# Bulk Modulus (GPa) = 63.97950 68.07300 66.02625
# Shear Modulus (GPa) = 25.65366 29.28601 27.46984
#
# Velocity S-wave (km/s) = 3.49866 3.73816 3.62039
# Velocity P-wave (km/s) = 6.84461 7.14932 6.99862
#
# Compressibility (1/GPa) = 0.01563001
#
# Stress axis : x y z
#
# Youngs Moduli (GPa) = 75.00880 76.91972 65.43326
#
# Poissons Ratio (x) = 0.40208 0.28029
# Poissons Ratio (y) = 0.39209 0.22782
# Poissons Ratio (z) = 0.32131 0.26781
#
# Static dielectric constant tensor:
#      x y z
#    x 1.748460 0.000000 -0.035340 
#    y 0.000000 1.706550 0.000000 
#    z -0.035340 0.000000 1.815470 
# 
# From -- ./inp_files/32743.got.cif
#   From: 2010.05.17/outbox.cif.g08.bks.cpg/sg15_17_cif.got.tgz:32743.got - 2010.06.03 18:47:42.
