data_PCOD9287796
_publ_section_title
;
Structure prediction by ZEFSAII (Michael W. Deem and Ramdas Pophale) SiO2 
 PCOD9287796
Probable space group: C 2/C
;
_chemical_formula_sum "Si O2"
_cell_formula_units_Z 40
_cell_length_a 16.314318
_cell_length_b 18.389710
_cell_length_c 5.232813
_cell_angle_alpha 90.000000
_cell_angle_beta 95.019536
_cell_angle_gamma 90.000000
_cell_volume 1563.904626
_symmetry_space_group_name_H-M "C 2/C"
_symmetry_group_IT_number 15
_symmetry_cell_setting 'monoclinic'
loop_
_space_group_symop_operation_xyz
x,y,z
-x,y,1/2-z
-x,-y,-z
x,-y,1/2+z
1/2+x,1/2+y,z
1/2-x,1/2+y,1/2-z
1/2-x,1/2-y,-z
1/2+x,1/2-y,1/2+z
loop_
_atom_site_type_symbol
_atom_site_label
_atom_site_fract_x
_atom_site_fract_y
_atom_site_fract_z
Si Si1 0.331030 0.660989 0.042702
Si Si2 0.500000 0.781778 0.750000
Si Si3 0.500000 0.681187 0.250000
Si Si4 0.851464 0.668013 0.477543
Si Si5 0.684758 0.542000 0.823800
Si Si6 0.382496 0.959133 0.342269
O O1 0.415199 0.637946 0.199467
O O2 0.240120 0.639246 0.119264
O O3 0.334234 0.625366 0.760628
O O4 0.336105 0.748405 0.052326
O O5 0.492237 0.731333 0.499052
O O6 0.582497 0.827723 0.728905
O O7 0.891334 0.619721 0.712140
O O8 0.655229 0.505849 0.074814
O O9 0.783682 0.536511 0.849671
O O10 0.412239 0.013564 0.125128
#
# Coordination Sequence:
#
# PCOD9287796 Si02
#       6
#     8   4   4   8   8   8
#     4   9  19  37  61  86 113 150 193 233 279 337
#     4  10  22  38  56  84 118 146 184 240 288 328
#     4  10  22  38  56  84 118 146 184 240 288 328
#     4   9  19  37  61  86 113 150 193 233 279 337
#     4   9  18  33  53  79 112 146 181 227 280 330
#     4   9  18  33  53  79 112 146 181 227 280 330
#
# _framework density 25.577007999999999
#
# number of rings (size 3 to 8) (size 9 to 14) (size 15 to 20)
#    0.000    2.800    0.000    0.000    0.000    7.200 
#    0.000   14.000    0.000    0.000    0.000    0.000 
#    0.000    0.000    0.000    0.000    0.000    0.000 
#
# Total GULP energy -111727.342307 kJ/mol
# GULP energy per Si atom -5586.367115 kJ/mol
# Density = 2.551879 g / cm^3
# Si number density = 25.577008 Si / 1000 Ang^3
#
#
#
# Elastic Constant Matrix: (Units=GPa)
#
#
# Indices 1 2 3 4 5 6 
#
# 1 168.3690 -1.9240 29.4145 0.0000 6.3419 0.0000
# 2 -1.9240 126.4995 28.3315 0.0000 -8.0808 0.0000
# 3 29.4145 28.3315 138.5395 0.0000 -5.6610 0.0000
# 4 0.0000 0.0000 0.0000 47.4238 0.0000 -10.3629
# 5 6.3419 -8.0808 -5.6610 0.0000 35.2757 0.0000
# 6 0.0000 0.0000 0.0000 -10.3629 0.0000 1.5205
#
#
#
# Elastic Compliance Matrix: (Units=1/GPa)
#
#
# Indices 1 2 3 4 5 6 
#
# 1 0.006244 0.000337 -0.001447 0.000000 -0.001277 0.000000
# 2 0.000337 0.008398 -0.001724 0.000000 0.001586 0.000000
# 3 -0.001447 -0.001724 0.007924 0.000000 0.001137 0.000000
# 4 0.000000 0.000000 0.000000 -0.043095 0.000000 -0.293716
# 5 -0.001277 0.001586 0.001137 0.000000 0.029124 0.000000
# 6 0.000000 0.000000 0.000000 -0.293716 0.000000 -1.344130
#
#
# Mechanical properties :
#
#
# Convention : Reuss Voigt Hill
#
# Bulk Modulus (GPa) = 59.17535 60.56133 59.86834
# Shear Modulus (GPa) = -3.77577 42.01640 19.12032
#
# Velocity S-wave (km/s) = -1.21632 4.05747 2.73712
# Velocity P-wave (km/s) = 4.60584 6.75871 5.78334
#
# Compressibility (1/GPa) = 0.01689893
#
# Stress axis : x y z
#
# Youngs Moduli (GPa) = 160.15137 119.07884 126.19217
#
# Poissons Ratio (x) = -0.04018 0.18259
# Poissons Ratio (y) = -0.05404 0.21758
# Poissons Ratio (z) = 0.23173 0.20531
#
# Static dielectric constant tensor:
#      x y z
#    x 2.047750 0.000000 0.031800 
#    y 0.000000 2.087820 0.000000 
#    z 0.031800 0.000000 2.032930 
# 
# From -- ./inp_files/9839.got.cif
#   From: 2010.05.17/outbox.cif.g08.bks.cpg/sg15_5_cif.got.tgz:9839.got - 2010.06.03 18:47:42.
