data_PCOD9287455
_publ_section_title
;
Structure prediction by ZEFSAII (Michael W. Deem and Ramdas Pophale) SiO2 
 PCOD9287455
Probable space group: C 2/C
;
_chemical_formula_sum "Si O2"
_cell_formula_units_Z 60
_cell_length_a 21.522379
_cell_length_b 17.202923
_cell_length_c 8.112580
_cell_angle_alpha 90.000000
_cell_angle_beta 83.499073
_cell_angle_gamma 90.000000
_cell_volume 2984.351636
_symmetry_space_group_name_H-M "C 2/C"
_symmetry_group_IT_number 15
_symmetry_cell_setting 'monoclinic'
loop_
_space_group_symop_operation_xyz
x,y,z
-x,y,1/2-z
-x,-y,-z
x,-y,1/2+z
1/2+x,1/2+y,z
1/2-x,1/2+y,1/2-z
1/2-x,1/2-y,-z
1/2+x,1/2-y,1/2+z
loop_
_atom_site_type_symbol
_atom_site_label
_atom_site_fract_x
_atom_site_fract_y
_atom_site_fract_z
Si Si1 0.903615 0.106009 0.512752
Si Si2 0.860980 0.351303 0.783368
Si Si3 0.844458 0.241252 0.104477
Si Si4 0.843084 0.976293 0.313796
Si Si5 0.000000 0.676565 0.250000
Si Si6 0.175764 0.739388 0.534773
Si Si7 0.734881 0.592472 0.390574
Si Si8 0.983687 0.210773 0.070489
O O1 0.885795 0.084192 0.703589
O O2 0.859015 0.177590 0.472895
O O3 0.973535 0.135503 0.467446
O O4 0.886047 0.029809 0.415606
O O5 0.847368 0.313002 0.609661
O O6 0.807848 0.415484 0.830076
O O7 0.934622 0.369678 0.770079
O O8 0.847566 0.290965 0.937504
O O9 0.840548 0.289732 0.275800
O O10 0.787631 0.180909 0.129127
O O11 0.910001 0.194760 0.088782
O O12 0.788415 0.929838 0.422162
O O13 0.806313 0.036521 0.209977
O O14 0.999168 0.730755 0.415065
O O15 0.250000 0.750000 0.500000
O O16 0.000000 0.241689 0.250000
#
# Coordination Sequence:
#
# PCOD9287455 Si02
#       8
#     8   8   8   8   4   8   8   8
#     4  11  21  40  54  79 117 157 197 241 276 342
#     4  11  22  37  61  92 116 144 187 246 304 351
#     4  11  22  35  59  89 115 149 192 242 298 343
#     4  10  23  37  58  78 113 162 204 233 278 328
#     4  10  22  36  62  92 112 152 178 238 312 356
#     4  12  21  35  61  87 113 150 188 244 309 343
#     4  11  21  40  55  83 116 146 197 246 280 346
#     4  11  20  37  56  78 120 153 186 234 288 338
#
# _framework density 20.104869999999998
#
# number of rings (size 3 to 8) (size 9 to 14) (size 15 to 20)
#    0.000    1.067    5.333    1.200    3.733    0.000 
#    0.000    7.333    0.000    0.800    0.000    0.000 
#    0.000    0.000    0.000    0.000    0.000    0.000 
#
# Total GULP energy -167493.057816 kJ/mol
# GULP energy per Si atom -5583.101927 kJ/mol
# Density = 2.005911 g / cm^3
# Si number density = 20.104870 Si / 1000 Ang^3
#
#
#
# Elastic Constant Matrix: (Units=GPa)
#
#
# Indices 1 2 3 4 5 6 
#
# 1 148.6763 2.8238 22.0736 0.0000 -21.8241 0.0000
# 2 2.8238 9.8918 10.3334 0.0000 -2.5653 0.0000
# 3 22.0736 10.3334 110.1859 0.0000 -12.3378 0.0000
# 4 0.0000 0.0000 0.0000 7.9696 0.0000 -18.7930
# 5 -21.8241 -2.5653 -12.3378 0.0000 30.1466 0.0000
# 6 0.0000 0.0000 0.0000 -18.7930 0.0000 3.4988
#
#
#
# Elastic Compliance Matrix: (Units=1/GPa)
#
#
# Indices 1 2 3 4 5 6 
#
# 1 0.007620 0.000167 -0.000967 0.000000 0.005135 0.000000
# 2 0.000167 0.112950 -0.009994 0.000000 0.005642 0.000000
# 3 -0.000967 -0.009994 0.010515 0.000000 0.002753 0.000000
# 4 0.000000 0.000000 0.000000 -0.010756 0.000000 -0.057773
# 5 0.005135 0.005642 0.002753 0.000000 0.038495 0.000000
# 6 0.000000 0.000000 0.000000 -0.057773 0.000000 -0.024500
#
#
# Mechanical properties :
#
#
# Convention : Reuss Voigt Hill
#
# Bulk Modulus (GPa) = 9.13279 37.69062 23.41171
# Shear Modulus (GPa) = 25.98580 23.89122 24.93851
#
# Velocity S-wave (km/s) = 3.59905 3.45096 3.52578
# Velocity P-wave (km/s) = 4.67155 5.88783 5.31460
#
# Compressibility (1/GPa) = 0.10949556
#
# Stress axis : x y z
#
# Youngs Moduli (GPa) = 131.23020 8.85346 95.10370
#
# Poissons Ratio (x) = -0.00148 0.09199
# Poissons Ratio (y) = -0.02188 0.95050
# Poissons Ratio (z) = 0.12693 0.08848
#
# Static dielectric constant tensor:
#      x y z
#    x 1.723550 0.000000 0.017540 
#    y 0.000000 1.692930 0.000000 
#    z 0.017540 0.000000 1.787950 
# 
# From -- ./inp_files/56592.got.cif
#   From: 2010.05.17/outbox.cif.g08.bks.cpg/sg15_29_cif.got.tgz:56592.got - 2010.06.03 18:47:42.
