data_PCOD9287206
_publ_section_title
;
Structure prediction by ZEFSAII (Michael W. Deem and Ramdas Pophale) SiO2 
 PCOD9287206
Probable space group: C 2/C
;
_chemical_formula_sum "Si O2"
_cell_formula_units_Z 56
_cell_length_a 30.920287
_cell_length_b 15.929313
_cell_length_c 9.039522
_cell_angle_alpha 90.000000
_cell_angle_beta 136.173904
_cell_angle_gamma 90.000000
_cell_volume 3083.103774
_symmetry_space_group_name_H-M "C 2/C"
_symmetry_group_IT_number 15
_symmetry_cell_setting 'monoclinic'
loop_
_space_group_symop_operation_xyz
x,y,z
-x,y,1/2-z
-x,-y,-z
x,-y,1/2+z
1/2+x,1/2+y,z
1/2-x,1/2+y,1/2-z
1/2-x,1/2-y,-z
1/2+x,1/2-y,1/2+z
loop_
_atom_site_type_symbol
_atom_site_label
_atom_site_fract_x
_atom_site_fract_y
_atom_site_fract_z
Si Si1 0.811880 0.801015 0.104088
Si Si2 0.198657 0.030265 0.743677
Si Si3 0.449160 0.316344 0.494535
Si Si4 0.334494 0.252684 0.818136
Si Si5 0.244133 0.110450 0.549591
Si Si6 0.959697 0.816208 0.011225
Si Si7 0.437227 0.495692 0.997398
O O1 0.799235 0.894889 0.130602
O O2 0.879873 0.779472 0.346768
O O3 0.750000 0.750000 0.000000
O O4 0.823660 0.787900 0.957851
O O5 0.217218 0.067074 0.630786
O O6 0.127348 0.995948 0.569370
O O7 0.243119 0.957396 0.915820
O O8 0.500000 0.317877 0.750000
O O9 0.490650 0.273205 0.472336
O O10 0.436870 0.413785 0.415264
O O11 0.307783 0.158811 0.743745
O O12 0.299093 0.314053 0.616324
O O13 0.404485 0.259503 0.933266
O O14 0.935914 0.909085 0.899895
O O15 0.000000 0.840170 0.250000
O O16 0.500000 0.500990 0.250000
#
# Coordination Sequence:
#
# PCOD9287206 Si02
#       7
#     8   8   8   8   8   8   8
#     4  11  22  40  61  88 124 162 203 251 298 357
#     4  11  22  37  58  83 119 161 205 248 295 361
#     4  10  22  34  54  86 121 161 200 240 292 354
#     4  11  23  39  57  85 120 158 202 249 303 346
#     4  11  24  38  58  83 117 158 203 251 299 357
#     4  11  20  34  55  81 118 155 196 235 291 358
#     4   9  20  30  50  77 116 158 191 222 273 347
#
# _framework density 18.163515
#
# number of rings (size 3 to 8) (size 9 to 14) (size 15 to 20)
#    0.000    1.429    4.286    1.286    6.000    1.143 
#    0.000    0.000    0.000    0.000    0.000    5.000 
#    0.000    0.000    0.000    0.000    0.000    0.000 
#
# Total GULP energy -155913.178677 kJ/mol
# GULP energy per Si atom -5568.327810 kJ/mol
# Density = 1.812217 g / cm^3
# Si number density = 18.163515 Si / 1000 Ang^3
#
#
#
# Elastic Constant Matrix: (Units=GPa)
#
#
# Indices 1 2 3 4 5 6 
#
# 1 103.4089 30.5492 30.7825 0.0000 19.3116 0.0000
# 2 30.5492 56.3717 32.3144 0.0000 10.8796 0.0000
# 3 30.7825 32.3144 71.6415 0.0000 11.4550 0.0000
# 4 0.0000 0.0000 0.0000 44.0708 0.0000 13.4451
# 5 19.3116 10.8796 11.4550 0.0000 33.8647 0.0000
# 6 0.0000 0.0000 0.0000 13.4451 0.0000 27.7013
#
#
#
# Elastic Compliance Matrix: (Units=1/GPa)
#
#
# Indices 1 2 3 4 5 6 
#
# 1 0.012683 -0.004385 -0.002686 0.000000 -0.004915 0.000000
# 2 -0.004385 0.026040 -0.009434 0.000000 -0.002674 0.000000
# 3 -0.002686 -0.009434 0.019704 0.000000 -0.002103 0.000000
# 4 0.000000 0.000000 0.000000 0.026635 0.000000 -0.012927
# 5 -0.004915 -0.002674 -0.002103 0.000000 0.033903 0.000000
# 6 0.000000 0.000000 0.000000 -0.012927 0.000000 0.042374
#
#
# Mechanical properties :
#
#
# Convention : Reuss Voigt Hill
#
# Bulk Modulus (GPa) = 39.34293 46.52380 42.93336
# Shear Modulus (GPa) = 24.65253 30.31245 27.48249
#
# Velocity S-wave (km/s) = 3.68809 4.08961 3.89403
# Velocity P-wave (km/s) = 6.31217 6.92599 6.62619
#
# Compressibility (1/GPa) = 0.02541753
#
# Stress axis : x y z
#
# Youngs Moduli (GPa) = 78.84411 38.40308 50.75188
#
# Poissons Ratio (x) = 0.16840 0.13631
# Poissons Ratio (y) = 0.34574 0.47877
# Poissons Ratio (z) = 0.21176 0.36228
#
# Static dielectric constant tensor:
#      x y z
#    x 1.660780 0.000000 0.026850 
#    y 0.000000 1.651760 0.000000 
#    z 0.026850 0.000000 1.716360 
# 
# From -- ./inp_files/69988.got.cif
#   From: 2010.05.17/outbox.cif.g08.bks.cpg/sg15_35_cif.got.tgz:69988.got - 2010.06.03 18:47:42.
