data_PCOD9287521
_publ_section_title
;
Structure prediction by ZEFSAII (Michael W. Deem and Ramdas Pophale) SiO2 
 PCOD9287521
Probable space group: C 2/C
;
_chemical_formula_sum "Si O2"
_cell_formula_units_Z 36
_cell_length_a 9.977379
_cell_length_b 17.602108
_cell_length_c 9.325094
_cell_angle_alpha 90.000000
_cell_angle_beta 109.579248
_cell_angle_gamma 90.000000
_cell_volume 1543.006438
_symmetry_space_group_name_H-M "C 2/C"
_symmetry_group_IT_number 15
_symmetry_cell_setting 'monoclinic'
loop_
_space_group_symop_operation_xyz
x,y,z
-x,y,1/2-z
-x,-y,-z
x,-y,1/2+z
1/2+x,1/2+y,z
1/2-x,1/2+y,1/2-z
1/2-x,1/2-y,-z
1/2+x,1/2-y,1/2+z
loop_
_atom_site_type_symbol
_atom_site_label
_atom_site_fract_x
_atom_site_fract_y
_atom_site_fract_z
Si Si1 0.085092 0.766134 0.485699
Si Si2 0.645034 0.999928 0.249313
Si Si3 0.188539 0.962182 0.945377
Si Si4 0.000000 0.902999 0.250000
Si Si5 0.000000 0.170642 0.250000
Si Si6 0.000000 0.643602 0.250000
O O1 0.250000 0.750000 0.500000
O O2 0.016041 0.838677 0.382186
O O3 0.999247 0.694844 0.389991
O O4 0.067267 0.779265 0.647746
O O5 0.500000 0.961408 0.250000
O O6 0.668677 0.015533 0.091700
O O7 0.631606 0.085514 0.306703
O O8 0.775473 0.959022 0.373744
O O9 0.117978 0.886326 0.859402
O O10 0.093795 0.033675 0.869357
#
# Coordination Sequence:
#
# PCOD9287521 Si02
#       6
#     8   8   8   4   4   4
#     4  11  22  43  61  89 130 168 214 258 307 379
#     4  10  22  38  63  92 128 168 202 258 323 372
#     4  11  20  40  61  98 129 153 214 263 317 385
#     4  10  22  36  68  90 124 174 198 266 328 366
#     4  11  24  37  70  99 120 167 214 266 318 367
#     4   9  22  39  60  83 122 175 210 242 314 363
#
# _framework density 23.331075999999999
#
# number of rings (size 3 to 8) (size 9 to 14) (size 15 to 20)
#    0.667    0.889    0.000    6.000    0.000    3.556 
#    0.000   14.444    0.000    0.000    0.000    0.000 
#    0.000    0.000    0.000    0.000    0.000    0.000 
#
# Total GULP energy -100208.434760 kJ/mol
# GULP energy per Si atom -5567.135264 kJ/mol
# Density = 2.327797 g / cm^3
# Si number density = 23.331076 Si / 1000 Ang^3
#
#
#
# Elastic Constant Matrix: (Units=GPa)
#
#
# Indices 1 2 3 4 5 6 
#
# 1 83.2032 10.2158 24.0535 0.0000 -1.2909 0.0000
# 2 10.2158 93.7551 25.0002 0.0000 2.1769 0.0000
# 3 24.0535 25.0002 133.7671 0.0000 -5.1627 0.0000
# 4 0.0000 0.0000 0.0000 10.0482 0.0000 -4.0652
# 5 -1.2909 2.1769 -5.1627 0.0000 31.2766 0.0000
# 6 0.0000 0.0000 0.0000 -4.0652 0.0000 10.8640
#
#
#
# Elastic Compliance Matrix: (Units=1/GPa)
#
#
# Indices 1 2 3 4 5 6 
#
# 1 0.012739 -0.000826 -0.002127 0.000000 0.000232 0.000000
# 2 -0.000826 0.011319 -0.002011 0.000000 -0.001154 0.000000
# 3 -0.002127 -0.002011 0.008289 0.000000 0.001420 0.000000
# 4 0.000000 0.000000 0.000000 0.117274 0.000000 0.043883
# 5 0.000232 -0.001154 0.001420 0.000000 0.032297 0.000000
# 6 0.000000 0.000000 0.000000 0.043883 0.000000 0.108468
#
#
# Mechanical properties :
#
#
# Convention : Reuss Voigt Hill
#
# Bulk Modulus (GPa) = 44.60876 47.69607 46.15241
# Shear Modulus (GPa) = 16.24495 27.20150 21.72323
#
# Velocity S-wave (km/s) = 2.64157 3.41822 3.05468
# Velocity P-wave (km/s) = 5.33529 6.00554 5.68031
#
# Compressibility (1/GPa) = 0.02241712
#
# Stress axis : x y z
#
# Youngs Moduli (GPa) = 78.50043 88.34492 120.64261
#
# Poissons Ratio (x) = 0.07299 0.25664
# Poissons Ratio (y) = 0.06486 0.24267
# Poissons Ratio (z) = 0.16699 0.17770
#
# Static dielectric constant tensor:
#      x y z
#    x 2.120250 0.000000 0.000820 
#    y 0.000000 1.803890 0.000000 
#    z 0.000820 0.000000 1.851540 
# 
# From -- ./inp_files/29455.got.cif
#   From: 2010.05.17/outbox.cif.g08.bks.cpg/sg15_15_cif.got.tgz:29455.got - 2010.06.03 18:47:42.
