data_PCOD9287783
_publ_section_title
;
Structure prediction by ZEFSAII (Michael W. Deem and Ramdas Pophale) SiO2 
 PCOD9287783
Probable space group: C 2/C
;
_chemical_formula_sum "Si O2"
_cell_formula_units_Z 32
_cell_length_a 11.936964
_cell_length_b 8.205800
_cell_length_c 17.592608
_cell_angle_alpha 90.000000
_cell_angle_beta 48.969383
_cell_angle_gamma 90.000000
_cell_volume 1299.939241
_symmetry_space_group_name_H-M "C 2/C"
_symmetry_group_IT_number 15
_symmetry_cell_setting 'monoclinic'
loop_
_space_group_symop_operation_xyz
x,y,z
-x,y,1/2-z
-x,-y,-z
x,-y,1/2+z
1/2+x,1/2+y,z
1/2-x,1/2+y,1/2-z
1/2-x,1/2-y,-z
1/2+x,1/2-y,1/2+z
loop_
_atom_site_type_symbol
_atom_site_label
_atom_site_fract_x
_atom_site_fract_y
_atom_site_fract_z
Si Si1 0.703072 0.979878 0.972214
Si Si2 0.025846 0.994547 0.397631
Si Si3 0.905668 0.357397 0.635592
Si Si4 0.469612 0.179484 0.677221
O O1 0.692365 0.907899 0.892797
O O2 0.866765 0.019254 0.926146
O O3 0.624904 0.854694 0.064979
O O4 0.579781 0.125133 0.029441
O O5 0.113036 0.830415 0.337198
O O6 0.095674 0.164801 0.337579
O O7 0.000000 0.000000 0.500000
O O8 0.895979 0.500903 0.701652
O O9 0.500000 0.218957 0.750000
#
# Coordination Sequence:
#
# PCOD9287783 Si02
#       4
#     8   8   8   8
#     4   9  19  39  60  84 114 150 203 239 278 360
#     4  12  20  35  67  87 110 158 208 233 289 360
#     4   9  20  36  62  80 115 152 200 235 295 343
#     4  10  22  38  55  86 124 145 188 253 299 342
#
# _framework density 24.616534999999999
#
# number of rings (size 3 to 8) (size 9 to 14) (size 15 to 20)
#    1.500    0.500    2.500    1.500    0.000    1.000 
#    0.000    2.500    0.000    0.000    0.000    0.000 
#    0.000    0.000    0.000    0.000    0.000    0.000 
#
# Total GULP energy -89433.935668 kJ/mol
# GULP energy per Si atom -5589.620979 kJ/mol
# Density = 2.456051 g / cm^3
# Si number density = 24.616535 Si / 1000 Ang^3
#
#
#
# Elastic Constant Matrix: (Units=GPa)
#
#
# Indices 1 2 3 4 5 6 
#
# 1 115.0276 29.8810 9.2863 0.0000 10.7179 0.0000
# 2 29.8810 219.8861 43.8293 0.0000 8.1718 0.0000
# 3 9.2863 43.8293 63.7327 0.0000 26.4269 0.0000
# 4 0.0000 0.0000 0.0000 37.1566 0.0000 -3.8051
# 5 10.7179 8.1718 26.4269 0.0000 45.5552 0.0000
# 6 0.0000 0.0000 0.0000 -3.8051 0.0000 17.5416
#
#
#
# Elastic Compliance Matrix: (Units=1/GPa)
#
#
# Indices 1 2 3 4 5 6 
#
# 1 0.009188 -0.001253 0.000429 0.000000 -0.002186 0.000000
# 2 -0.001253 0.005523 -0.004381 0.000000 0.001845 0.000000
# 3 0.000429 -0.004381 0.024171 0.000000 -0.013337 0.000000
# 4 0.000000 0.000000 0.000000 0.027525 0.000000 0.005971
# 5 -0.002186 0.001845 -0.013337 0.000000 0.029871 0.000000
# 6 0.000000 0.000000 0.000000 0.005971 0.000000 0.058303
#
#
# Mechanical properties :
#
#
# Convention : Reuss Voigt Hill
#
# Bulk Modulus (GPa) = 35.12099 62.73771 48.92935
# Shear Modulus (GPa) = 28.65670 41.09400 34.87535
#
# Velocity S-wave (km/s) = 3.41563 4.09022 3.76805
# Velocity P-wave (km/s) = 5.46384 6.91721 6.23303
#
# Compressibility (1/GPa) = 0.02847300
#
# Stress axis : x y z
#
# Youngs Moduli (GPa) = 108.83681 181.07221 41.37254
#
# Poissons Ratio (x) = 0.22687 -0.01776
# Poissons Ratio (y) = 0.13636 0.18123
# Poissons Ratio (z) = -0.04672 0.79320
#
# Static dielectric constant tensor:
#      x y z
#    x 1.992180 0.000000 -0.123060 
#    y 0.000000 2.046900 0.000000 
#    z -0.123060 0.000000 1.932380 
# 
# From -- ./inp_files/194720.got.cif
#   From: 2010.05.17/outbox.cif.g08.bks.cpg/sg15_98_cif.got.tgz:194720.got - 2010.06.03 18:47:42.
