data_PCOD9287053
_publ_section_title
;
Structure prediction by ZEFSAII (Michael W. Deem and Ramdas Pophale) SiO2 
 PCOD9287053
Probable space group: C 2/C
;
_chemical_formula_sum "Si O2"
_cell_formula_units_Z 32
_cell_length_a 5.182772
_cell_length_b 18.793179
_cell_length_c 12.330263
_cell_angle_alpha 90.000000
_cell_angle_beta 85.292811
_cell_angle_gamma 90.000000
_cell_volume 1196.926233
_symmetry_space_group_name_H-M "C 2/C"
_symmetry_group_IT_number 15
_symmetry_cell_setting 'monoclinic'
loop_
_space_group_symop_operation_xyz
x,y,z
-x,y,1/2-z
-x,-y,-z
x,-y,1/2+z
1/2+x,1/2+y,z
1/2-x,1/2+y,1/2-z
1/2-x,1/2-y,-z
1/2+x,1/2-y,1/2+z
loop_
_atom_site_type_symbol
_atom_site_label
_atom_site_fract_x
_atom_site_fract_y
_atom_site_fract_z
Si Si1 0.774153 0.427468 0.444507
Si Si2 0.500000 0.306595 0.750000
Si Si3 0.143389 0.059821 0.349838
Si Si4 0.000000 0.145959 0.750000
Si Si5 0.587360 0.790518 0.416939
O O1 0.851829 0.506147 0.396371
O O2 0.574193 0.432599 0.549830
O O3 0.622905 0.396139 0.345767
O O4 0.981999 0.366285 0.459863
O O5 0.703254 0.362266 0.799224
O O6 0.602821 0.264027 0.639533
O O7 0.000000 0.026384 0.250000
O O8 0.223349 0.191575 0.688243
O O9 0.750000 0.750000 0.500000
#
# Coordination Sequence:
#
# PCOD9287053 Si02
#       5
#     8   4   8   4   8
#     4  11  22  47  74 105 151 207 256 317 400 468
#     4  10  21  46  66 113 152 184 258 324 371 460
#     4   9  22  42  77 103 154 194 255 329 383 464
#     4  12  23  44  74 101 156 196 254 316 387 462
#     4  12  27  42  75 115 154 207 253 320 399 469
#
# _framework density 26.735149
#
# number of rings (size 3 to 8) (size 9 to 14) (size 15 to 20)
#    0.750    0.500    3.750    1.500    3.500    2.000 
#    0.000   11.250   11.000    0.000    0.000    0.000 
#    0.000    0.000    0.000    0.000    0.000    0.000 
#
# Total GULP energy -89389.508331 kJ/mol
# GULP energy per Si atom -5586.844271 kJ/mol
# Density = 2.667430 g / cm^3
# Si number density = 26.735149 Si / 1000 Ang^3
#
#
#
# Elastic Constant Matrix: (Units=GPa)
#
#
# Indices 1 2 3 4 5 6 
#
# 1 57.3840 28.3912 33.5082 0.0000 -3.0840 0.0000
# 2 28.3912 163.2609 70.5762 0.0000 24.1392 0.0000
# 3 33.5082 70.5762 195.5330 0.0000 12.2399 0.0000
# 4 0.0000 0.0000 0.0000 155.1126 0.0000 -104.0071
# 5 -3.0840 24.1392 12.2399 0.0000 31.1624 0.0000
# 6 0.0000 0.0000 0.0000 -104.0071 0.0000 153.4254
#
#
#
# Elastic Compliance Matrix: (Units=1/GPa)
#
#
# Indices 1 2 3 4 5 6 
#
# 1 0.020979 -0.003300 -0.002762 0.000000 0.005717 0.000000
# 2 -0.003300 0.008519 -0.002128 0.000000 -0.006090 0.000000
# 3 -0.002762 -0.002128 0.006428 0.000000 -0.001149 0.000000
# 4 0.000000 0.000000 0.000000 0.011819 0.000000 0.008012
# 5 0.005717 -0.006090 -0.001149 0.000000 0.037825 0.000000
# 6 0.000000 0.000000 0.000000 0.008012 0.000000 0.011949
#
#
# Mechanical properties :
#
#
# Convention : Reuss Voigt Hill
#
# Bulk Modulus (GPa) = 51.16074 75.68101 63.42087
# Shear Modulus (GPa) = 41.52301 86.85358 64.18829
#
# Velocity S-wave (km/s) = 3.94525 5.70589 4.90521
# Velocity P-wave (km/s) = 6.31909 8.47223 7.47361
#
# Compressibility (1/GPa) = 0.01954624
#
# Stress axis : x y z
#
# Youngs Moduli (GPa) = 47.66660 117.37792 155.57603
#
# Poissons Ratio (x) = 0.38730 0.42971
# Poissons Ratio (y) = 0.15728 0.33113
# Poissons Ratio (z) = 0.13166 0.24983
#
# Static dielectric constant tensor:
#      x y z
#    x 2.015910 0.000000 0.047000 
#    y 0.000000 2.436080 0.000000 
#    z 0.047000 0.000000 2.009590 
# 
# From -- ./inp_files/128520.got.cif
#   From: 2010.05.17/outbox.cif.g08.bks.cpg/sg15_65_cif.got.tgz:128520.got - 2010.06.03 18:47:42.
