data_PCOD9287436
_publ_section_title
;
Structure prediction by ZEFSAII (Michael W. Deem and Ramdas Pophale) SiO2 
 PCOD9287436
Probable space group: C 2/C
;
_chemical_formula_sum "Si O2"
_cell_formula_units_Z 48
_cell_length_a 11.218300
_cell_length_b 28.044640
_cell_length_c 8.616640
_cell_angle_alpha 90.000000
_cell_angle_beta 120.346789
_cell_angle_gamma 90.000000
_cell_volume 2339.468686
_symmetry_space_group_name_H-M "C 2/C"
_symmetry_group_IT_number 15
_symmetry_cell_setting 'monoclinic'
loop_
_space_group_symop_operation_xyz
x,y,z
-x,y,1/2-z
-x,-y,-z
x,-y,1/2+z
1/2+x,1/2+y,z
1/2-x,1/2+y,1/2-z
1/2-x,1/2-y,-z
1/2+x,1/2-y,1/2+z
loop_
_atom_site_type_symbol
_atom_site_label
_atom_site_fract_x
_atom_site_fract_y
_atom_site_fract_z
Si Si1 0.232882 0.893803 0.613242
Si Si2 0.213238 0.801550 0.796794
Si Si3 0.587078 0.287168 0.039913
Si Si4 0.500000 0.971901 0.250000
Si Si5 0.397019 0.480047 0.805504
Si Si6 0.000000 0.147991 0.750000
Si Si7 0.661101 0.048004 0.565267
O O1 0.261223 0.849252 0.741637
O O2 0.209507 0.941559 0.697874
O O3 0.338235 0.906408 0.545293
O O4 0.091566 0.882194 0.428565
O O5 0.333419 0.762290 0.879973
O O6 0.074713 0.782876 0.615970
O O7 0.162748 0.810489 0.940286
O O8 0.591956 0.318684 0.198349
O O9 0.404304 0.943903 0.308644
O O10 0.585994 0.006517 0.418708
O O11 0.500000 0.456439 0.750000
O O12 0.312703 0.525262 0.686542
O O13 0.500000 0.500000 0.000000
#
# Coordination Sequence:
#
# PCOD9287436 Si02
#       7
#     8   8   8   4   8   4   8
#     4  11  22  36  57  94 118 157 211 255 297 366
#     4   9  20  39  65  87 122 159 202 249 309 383
#     4   9  19  39  61  89 118 165 191 247 326 373
#     4  10  22  40  63  72 120 180 210 247 306 368
#     4  12  22  36  59  90 124 160 202 257 311 361
#     4  10  22  36  61  90 126 150 192 261 312 370
#     4  11  21  41  59  86 118 171 212 253 310 360
#
# _framework density 20.517481
#
# number of rings (size 3 to 8) (size 9 to 14) (size 15 to 20)
#    0.000    1.667    3.333    1.000    4.667    2.667 
#    0.000    2.500    0.000    0.000    0.000    0.000 
#    0.000    0.000    0.000    0.000    0.000    0.000 
#
# Total GULP energy -133942.788200 kJ/mol
# GULP energy per Si atom -5580.949508 kJ/mol
# Density = 2.047078 g / cm^3
# Si number density = 20.517481 Si / 1000 Ang^3
#
#
#
# Elastic Constant Matrix: (Units=GPa)
#
#
# Indices 1 2 3 4 5 6 
#
# 1 100.4183 41.9484 20.2307 0.0000 -34.6739 0.0000
# 2 41.9484 87.5876 28.5415 0.0000 -24.1213 0.0000
# 3 20.2307 28.5415 74.4892 0.0000 -14.1771 0.0000
# 4 0.0000 0.0000 0.0000 35.1140 0.0000 -9.1902
# 5 -34.6739 -24.1213 -14.1771 0.0000 39.1974 0.0000
# 6 0.0000 0.0000 0.0000 -9.1902 0.0000 7.2791
#
#
#
# Elastic Compliance Matrix: (Units=1/GPa)
#
#
# Indices 1 2 3 4 5 6 
#
# 1 0.015664 -0.004300 -0.000508 0.000000 0.011027 0.000000
# 2 -0.004300 0.016087 -0.004120 0.000000 0.004606 0.000000
# 3 -0.000508 -0.004120 0.015651 0.000000 0.002676 0.000000
# 4 0.000000 0.000000 0.000000 0.042533 0.000000 0.053701
# 5 0.011027 0.004606 0.002676 0.000000 0.039069 0.000000
# 6 0.000000 0.000000 0.000000 0.053701 0.000000 0.205179
#
#
# Mechanical properties :
#
#
# Convention : Reuss Voigt Hill
#
# Bulk Modulus (GPa) = 33.84406 49.32626 41.58516
# Shear Modulus (GPa) = 13.81644 27.76974 20.79309
#
# Velocity S-wave (km/s) = 2.59781 3.68294 3.18690
# Velocity P-wave (km/s) = 5.05264 6.49451 5.81841
#
# Compressibility (1/GPa) = 0.02954728
#
# Stress axis : x y z
#
# Youngs Moduli (GPa) = 63.83893 62.16023 63.89549
#
# Poissons Ratio (x) = 0.26728 0.03247
# Poissons Ratio (y) = 0.27450 0.26323
# Poissons Ratio (z) = 0.03244 0.25608
#
# Static dielectric constant tensor:
#      x y z
#    x 1.711420 0.000000 -0.005970 
#    y 0.000000 1.698930 0.000000 
#    z -0.005970 0.000000 1.749250 
# 
# From -- ./inp_files/33848.got.cif
#   From: 2010.05.17/outbox.cif.g08.bks.cpg/sg15_17_cif.got.tgz:33848.got - 2010.06.03 18:47:42.
