data_PCOD9287042
_publ_section_title
;
Structure prediction by ZEFSAII (Michael W. Deem and Ramdas Pophale) SiO2 
 PCOD9287042
Probable space group: C 2/C
;
_chemical_formula_sum "Si O2"
_cell_formula_units_Z 40
_cell_length_a 9.655891
_cell_length_b 9.598689
_cell_length_c 16.109843
_cell_angle_alpha 90.000000
_cell_angle_beta 111.651948
_cell_angle_gamma 90.000000
_cell_volume 1387.771726
_symmetry_space_group_name_H-M "C 2/C"
_symmetry_group_IT_number 15
_symmetry_cell_setting 'monoclinic'
loop_
_space_group_symop_operation_xyz
x,y,z
-x,y,1/2-z
-x,-y,-z
x,-y,1/2+z
1/2+x,1/2+y,z
1/2-x,1/2+y,1/2-z
1/2-x,1/2-y,-z
1/2+x,1/2-y,1/2+z
loop_
_atom_site_type_symbol
_atom_site_label
_atom_site_fract_x
_atom_site_fract_y
_atom_site_fract_z
Si Si1 0.407150 0.668633 0.811288
Si Si2 0.101810 0.863565 0.509890
Si Si3 0.902450 0.571176 0.906661
Si Si4 0.674940 0.944644 0.371132
Si Si5 0.328575 0.648373 0.183066
O O1 0.500000 0.648222 0.750000
O O2 0.528004 0.695000 0.909806
O O3 0.293557 0.548914 0.820384
O O4 0.288319 0.791966 0.775540
O O5 0.259756 0.940392 0.552012
O O6 0.395563 0.765542 0.426496
O O7 0.000000 0.000000 0.500000
O O8 0.745314 0.491527 0.867223
O O9 0.997037 0.545271 0.842358
O O10 0.000000 0.500000 0.000000
O O11 0.690049 0.775415 0.388639
O O12 0.500000 0.644216 0.250000
#
# Coordination Sequence:
#
# PCOD9287042 Si02
#       5
#     8   8   8   8   8
#     4   9  20  46  89 120 174 238 283 360 457 535
#     4  10  21  45  85 132 166 219 306 361 436 533
#     4  12  23  48  89 127 171 230 295 378 447 518
#     4   9  24  49  85 126 173 223 304 367 432 544
#     4  10  24  51  85 123 177 234 291 369 456 538
#
# _framework density 28.823184999999999
#
# number of rings (size 3 to 8) (size 9 to 14) (size 15 to 20)
#    1.200    0.800    2.000    0.000    0.000    8.000 
#    3.600    8.000   13.200    6.000    0.000    0.000 
#    0.000    0.000    0.000    0.000    0.000    0.000 
#
# Total GULP energy -111689.621630 kJ/mol
# GULP energy per Si atom -5584.481081 kJ/mol
# Density = 2.875758 g / cm^3
# Si number density = 28.823185 Si / 1000 Ang^3
#
#
#
# Elastic Constant Matrix: (Units=GPa)
#
#
# Indices 1 2 3 4 5 6 
#
# 1 255.9249 113.9160 96.5263 0.0000 14.7363 0.0000
# 2 113.9160 212.1134 75.9423 0.0000 37.3361 0.0000
# 3 96.5263 75.9423 162.2088 0.0000 16.0570 0.0000
# 4 0.0000 0.0000 0.0000 28.2375 0.0000 21.6397
# 5 14.7363 37.3361 16.0570 0.0000 53.2658 0.0000
# 6 0.0000 0.0000 0.0000 21.6397 0.0000 64.1100
#
#
#
# Elastic Compliance Matrix: (Units=1/GPa)
#
#
# Indices 1 2 3 4 5 6 
#
# 1 0.005853 -0.002414 -0.002432 0.000000 0.000806 0.000000
# 2 -0.002414 0.007271 -0.001576 0.000000 -0.003954 0.000000
# 3 -0.002432 -0.001576 0.008426 0.000000 -0.000762 0.000000
# 4 0.000000 0.000000 0.000000 0.047771 0.000000 -0.016125
# 5 0.000806 -0.003954 -0.000762 0.000000 0.021552 0.000000
# 6 0.000000 0.000000 0.000000 -0.016125 0.000000 0.021041
#
#
# Mechanical properties :
#
#
# Convention : Reuss Voigt Hill
#
# Bulk Modulus (GPa) = 114.88807 133.66849 124.27828
# Shear Modulus (GPa) = 39.16613 52.04683 45.60648
#
# Velocity S-wave (km/s) = 3.69025 4.25400 3.98211
# Velocity P-wave (km/s) = 7.62256 8.40266 8.02209
#
# Compressibility (1/GPa) = 0.00870412
#
# Stress axis : x y z
#
# Youngs Moduli (GPa) = 170.84862 137.52543 118.68392
#
# Poissons Ratio (x) = 0.33205 0.28869
# Poissons Ratio (y) = 0.41251 0.18706
# Poissons Ratio (z) = 0.41558 0.21676
#
# Static dielectric constant tensor:
#      x y z
#    x 2.235250 0.000000 -0.128970 
#    y 0.000000 2.334830 0.000000 
#    z -0.128970 0.000000 2.495070 
# 
# From -- ./inp_files/188504.got.cif
#   From: 2010.05.17/outbox.cif.g08.bks.cpg/sg15_95_cif.got.tgz:188504.got - 2010.06.03 18:47:42.
