data_PCOD9287476
_publ_section_title
;
Structure prediction by ZEFSAII (Michael W. Deem and Ramdas Pophale) SiO2 
 PCOD9287476
Probable space group: C 2/C
;
_chemical_formula_sum "Si O2"
_cell_formula_units_Z 60
_cell_length_a 13.019866
_cell_length_b 13.170818
_cell_length_c 13.809687
_cell_angle_alpha 90.000000
_cell_angle_beta 117.002083
_cell_angle_gamma 90.000000
_cell_volume 2109.968332
_symmetry_space_group_name_H-M "C 2/C"
_symmetry_group_IT_number 15
_symmetry_cell_setting 'monoclinic'
loop_
_space_group_symop_operation_xyz
x,y,z
-x,y,1/2-z
-x,-y,-z
x,-y,1/2+z
1/2+x,1/2+y,z
1/2-x,1/2+y,1/2-z
1/2-x,1/2-y,-z
1/2+x,1/2-y,1/2+z
loop_
_atom_site_type_symbol
_atom_site_label
_atom_site_fract_x
_atom_site_fract_y
_atom_site_fract_z
Si Si1 0.500000 0.497908 0.750000
Si Si2 0.372950 0.881430 0.609732
Si Si3 0.279420 0.158287 0.422366
Si Si4 0.749580 0.860007 0.278549
Si Si5 0.848953 0.842391 0.104724
Si Si6 0.595140 0.553065 0.105574
Si Si7 0.906911 0.479476 0.833010
Si Si8 0.041595 0.775643 0.879726
O O1 0.558624 0.571855 0.850139
O O2 0.415175 0.440242 0.782026
O O3 0.242467 0.876805 0.515318
O O4 0.407249 0.764817 0.610531
O O5 0.380764 0.913097 0.724608
O O6 0.460715 0.952451 0.590414
O O7 0.266099 0.258722 0.347869
O O8 0.323349 0.064168 0.378664
O O9 0.154047 0.146381 0.418780
O O10 0.383727 0.184291 0.541108
O O11 0.796280 0.837999 0.190211
O O12 0.808661 0.960173 0.352757
O O13 0.621757 0.904550 0.203722
O O14 0.553514 0.675684 0.085504
O O15 0.500000 0.500000 0.000000
O O16 0.000000 0.758538 0.750000
#
# Coordination Sequence:
#
# PCOD9287476 Si02
#       8
#     4   8   8   8   8   8   8   8
#     4  10  22  36  64 102 140 164 236 304 350 410
#     4  10  23  43  69  97 140 186 236 287 354 421
#     4  11  25  46  71 103 145 189 239 299 357 434
#     4  11  24  44  71 102 143 184 233 294 361 422
#     4  10  22  41  67 101 132 185 234 293 349 417
#     4  11  22  38  68 102 135 183 232 293 353 421
#     4  11  24  45  69 104 143 185 239 297 350 432
#     4  11  24  46  69 103 143 187 237 302 365 424
#
# _framework density 28.436444999999999
#
# number of rings (size 3 to 8) (size 9 to 14) (size 15 to 20)
#    0.000    1.333    3.333    1.600    5.600    1.600 
#    7.200    0.000    0.000    0.000    0.000    0.000 
#    0.000    0.000    0.000    0.000    0.000    0.000 
#
# Total GULP energy -167542.221289 kJ/mol
# GULP energy per Si atom -5584.740710 kJ/mol
# Density = 2.837172 g / cm^3
# Si number density = 28.436445 Si / 1000 Ang^3
#
#
#
# Elastic Constant Matrix: (Units=GPa)
#
#
# Indices 1 2 3 4 5 6 
#
# 1 81.6144 19.2033 23.5373 0.0000 14.3029 0.0000
# 2 19.2033 126.9083 35.1375 0.0000 -2.9698 0.0000
# 3 23.5373 35.1375 130.6613 0.0000 10.6736 0.0000
# 4 0.0000 0.0000 0.0000 53.8531 0.0000 -4.2831
# 5 14.3029 -2.9698 10.6736 0.0000 44.2634 0.0000
# 6 0.0000 0.0000 0.0000 -4.2831 0.0000 28.1234
#
#
#
# Elastic Compliance Matrix: (Units=1/GPa)
#
#
# Indices 1 2 3 4 5 6 
#
# 1 0.013883 -0.001730 -0.001693 0.000000 -0.004194 0.000000
# 2 -0.001730 0.008787 -0.002188 0.000000 0.001676 0.000000
# 3 -0.001693 -0.002188 0.008685 0.000000 -0.001694 0.000000
# 4 0.000000 0.000000 0.000000 0.018797 0.000000 0.002863
# 5 -0.004194 0.001676 -0.001694 0.000000 0.024468 0.000000
# 6 0.000000 0.000000 0.000000 0.002863 0.000000 0.035994
#
#
# Mechanical properties :
#
#
# Convention : Reuss Voigt Hill
#
# Bulk Modulus (GPa) = 49.67167 54.99335 52.33251
# Shear Modulus (GPa) = 38.89638 42.66837 40.78238
#
# Velocity S-wave (km/s) = 3.70244 3.87781 3.79114
# Velocity P-wave (km/s) = 5.98188 6.27940 6.13245
#
# Compressibility (1/GPa) = 0.02013220
#
# Stress axis : x y z
#
# Youngs Moduli (GPa) = 72.03021 113.81005 115.13861
#
# Poissons Ratio (x) = 0.19690 0.19493
# Poissons Ratio (y) = 0.12462 0.25194
# Poissons Ratio (z) = 0.12195 0.24903
#
# Static dielectric constant tensor:
#      x y z
#    x 1.950860 0.000000 -0.117160 
#    y 0.000000 2.237110 0.000000 
#    z -0.117160 0.000000 2.227790 
# 
# From -- ./inp_files/154277.got.cif
#   From: 2010.05.17/outbox.cif.g08.bks.cpg/sg15_78_cif.got.tgz:154277.got - 2010.06.03 18:47:42.
