data_PCOD9287908
_publ_section_title
;
Structure prediction by ZEFSAII (Michael W. Deem and Ramdas Pophale) SiO2 
 PCOD9287908
Probable space group: C 2/C
;
_chemical_formula_sum "Si O2"
_cell_formula_units_Z 56
_cell_length_a 7.985021
_cell_length_b 12.302123
_cell_length_c 23.465007
_cell_angle_alpha 90.000000
_cell_angle_beta 99.452619
_cell_angle_gamma 90.000000
_cell_volume 2273.732952
_symmetry_space_group_name_H-M "C 2/C"
_symmetry_group_IT_number 15
_symmetry_cell_setting 'monoclinic'
loop_
_space_group_symop_operation_xyz
x,y,z
-x,y,1/2-z
-x,-y,-z
x,-y,1/2+z
1/2+x,1/2+y,z
1/2-x,1/2+y,1/2-z
1/2-x,1/2-y,-z
1/2+x,1/2-y,1/2+z
loop_
_atom_site_type_symbol
_atom_site_label
_atom_site_fract_x
_atom_site_fract_y
_atom_site_fract_z
Si Si1 0.372719 0.112014 0.001746
Si Si2 0.029095 0.493622 0.882601
Si Si3 0.533315 0.796139 0.189305
Si Si4 0.174139 0.923544 0.817715
Si Si5 0.081839 0.975824 0.416168
Si Si6 0.684116 0.872822 0.789624
Si Si7 0.004431 0.167929 0.009332
O O1 0.571626 0.980226 0.951078
O O2 0.265454 0.074460 0.941339
O O3 0.514807 0.203660 0.999161
O O4 0.209783 0.160840 0.028629
O O5 0.004792 0.615469 0.859761
O O6 0.857476 0.428336 0.857758
O O7 0.164931 0.437725 0.847302
O O8 0.500000 0.847287 0.250000
O O9 0.407785 0.693990 0.179442
O O10 0.718427 0.741017 0.195616
O O11 0.066285 0.009830 0.848317
O O12 0.207196 0.937083 0.752585
O O13 0.963867 0.897443 0.448143
O O14 0.072340 0.095062 0.444983
O O15 0.500000 0.857072 0.750000
#
# Coordination Sequence:
#
# PCOD9287908 Si02
#       7
#     8   8   8   8   8   8   8
#     4   9  19  36  59  87 127 174 211 260 315 382
#     4  11  23  40  64  94 130 171 214 264 323 382
#     4  10  22  42  64  89 129 162 207 268 323 376
#     4  10  22  38  59  95 125 161 214 266 314 386
#     4   9  18  35  60  88 130 166 214 261 322 372
#     4   9  21  43  66  90 123 164 213 263 325 386
#     4   8  18  36  57  89 126 168 212 263 312 379
#
# _framework density 24.629102
#
# number of rings (size 3 to 8) (size 9 to 14) (size 15 to 20)
#    0.857    1.714    0.000    1.286    2.000    4.000 
#    0.000    9.286    0.000    0.000    0.000    0.000 
#    0.000    0.000    0.000    0.000    0.000    0.000 
#
# Total GULP energy -156313.523287 kJ/mol
# GULP energy per Si atom -5582.625832 kJ/mol
# Density = 2.457304 g / cm^3
# Si number density = 24.629102 Si / 1000 Ang^3
#
#
#
# Elastic Constant Matrix: (Units=GPa)
#
#
# Indices 1 2 3 4 5 6 
#
# 1 50.9539 23.0764 13.0643 0.0000 -8.4844 0.0000
# 2 23.0764 106.9477 62.7180 0.0000 -3.2878 0.0000
# 3 13.0643 62.7180 157.6004 0.0000 -0.9162 0.0000
# 4 0.0000 0.0000 0.0000 28.6656 0.0000 -3.4043
# 5 -8.4844 -3.2878 -0.9162 0.0000 28.8240 0.0000
# 6 0.0000 0.0000 0.0000 -3.4043 0.0000 32.1099
#
#
#
# Elastic Compliance Matrix: (Units=1/GPa)
#
#
# Indices 1 2 3 4 5 6 
#
# 1 0.022795 -0.004750 0.000037 0.000000 0.006169 0.000000
# 2 -0.004750 0.013231 -0.004872 0.000000 -0.000044 0.000000
# 3 0.000037 -0.004872 0.008279 0.000000 -0.000282 0.000000
# 4 0.000000 0.000000 0.000000 0.035330 0.000000 0.003746
# 5 0.006169 -0.000044 -0.000282 0.000000 0.036495 0.000000
# 6 0.000000 0.000000 0.000000 0.003746 0.000000 0.031540
#
#
# Mechanical properties :
#
#
# Convention : Reuss Voigt Hill
#
# Bulk Modulus (GPa) = 39.78664 57.02438 48.40551
# Shear Modulus (GPa) = 28.53569 32.36280 30.44925
#
# Velocity S-wave (km/s) = 3.40754 3.62886 3.51994
# Velocity P-wave (km/s) = 5.62771 6.38448 6.01801
#
# Compressibility (1/GPa) = 0.02513407
#
# Stress axis : x y z
#
# Youngs Moduli (GPa) = 43.86976 75.57986 120.78380
#
# Poissons Ratio (x) = 0.35903 -0.00444
# Poissons Ratio (y) = 0.20840 0.58844
# Poissons Ratio (z) = -0.00161 0.36821
#
# Static dielectric constant tensor:
#      x y z
#    x 2.059500 0.000000 -0.089800 
#    y 0.000000 2.044630 0.000000 
#    z -0.089800 0.000000 2.003070 
# 
# From -- ./inp_files/307643.got.cif
#   From: 2010.05.17/outbox.cif.g08.bks.cpg/sg15_154_cif.got.tgz:307643.got - 2010.06.03 18:47:42.
