data_PCOD9287019
_publ_section_title
;
Structure prediction by ZEFSAII (Michael W. Deem and Ramdas Pophale) SiO2 
 PCOD9287019
Probable space group: C 2/C
;
_chemical_formula_sum "Si O2"
_cell_formula_units_Z 52
_cell_length_a 15.347390
_cell_length_b 28.186926
_cell_length_c 9.529614
_cell_angle_alpha 90.000000
_cell_angle_beta 138.495721
_cell_angle_gamma 90.000000
_cell_volume 2731.862167
_symmetry_space_group_name_H-M "C 2/C"
_symmetry_group_IT_number 15
_symmetry_cell_setting 'monoclinic'
loop_
_space_group_symop_operation_xyz
x,y,z
-x,y,1/2-z
-x,-y,-z
x,-y,1/2+z
1/2+x,1/2+y,z
1/2-x,1/2+y,1/2-z
1/2-x,1/2-y,-z
1/2+x,1/2-y,1/2+z
loop_
_atom_site_type_symbol
_atom_site_label
_atom_site_fract_x
_atom_site_fract_y
_atom_site_fract_z
Si Si1 0.118245 0.035908 0.111915
Si Si2 0.625976 0.816380 0.305059
Si Si3 0.729511 0.014609 0.928268
Si Si4 0.201133 0.601948 0.685375
Si Si5 0.000000 0.455540 0.750000
Si Si6 0.977966 0.868266 0.389248
Si Si7 0.904528 0.206312 0.268525
O O1 0.227357 0.026316 0.361795
O O2 0.173166 0.023415 0.025056
O O3 0.065745 0.088863 0.055741
O O4 0.000000 0.000000 0.000000
O O5 0.500000 0.827164 0.250000
O O6 0.641526 0.854474 0.201018
O O7 0.761199 0.814646 0.557830
O O8 0.609341 0.762742 0.227698
O O9 0.738616 0.061241 0.843535
O O10 0.587981 0.990172 0.760602
O O11 0.329209 0.619719 0.755868
O O12 0.097693 0.577271 0.456975
O O13 0.000000 0.866858 0.250000
O O14 0.028601 0.820351 0.522202
O O15 0.000000 0.198955 0.250000
#
# Coordination Sequence:
#
# PCOD9287019 Si02
#       7
#     8   8   8   8   4   8   8
#     4  12  23  39  64  96 129 168 222 272 322 393
#     4  10  23  41  72 105 130 174 223 274 337 401
#     4  12  25  42  63  91 133 179 214 269 331 391
#     4  12  25  43  67  94 135 181 220 277 334 400
#     4  12  26  44  58  94 140 176 222 268 332 408
#     4  12  25  43  68 100 132 175 227 277 338 390
#     4  10  21  45  72  99 138 169 224 282 328 401
#
# _framework density 19.034635000000002
#
# number of rings (size 3 to 8) (size 9 to 14) (size 15 to 20)
#    0.000    0.615    4.615    3.692    1.077    2.462 
#    1.385    0.769    0.000    0.000    0.000    0.000 
#    0.000    0.000    0.000    0.000    0.000    0.000 
#
# Total GULP energy -145416.704398 kJ/mol
# GULP energy per Si atom -5592.950169 kJ/mol
# Density = 1.899131 g / cm^3
# Si number density = 19.034635 Si / 1000 Ang^3
#
#
#
# Elastic Constant Matrix: (Units=GPa)
#
#
# Indices 1 2 3 4 5 6 
#
# 1 136.8999 57.8941 39.4313 0.0000 17.6905 0.0000
# 2 57.8941 81.8179 48.9563 0.0000 -2.0601 0.0000
# 3 39.4313 48.9563 101.9442 0.0000 1.5051 0.0000
# 4 0.0000 0.0000 0.0000 36.9159 0.0000 -2.7646
# 5 17.6905 -2.0601 1.5051 0.0000 32.8730 0.0000
# 6 0.0000 0.0000 0.0000 -2.7646 0.0000 26.5150
#
#
#
# Elastic Compliance Matrix: (Units=1/GPa)
#
#
# Indices 1 2 3 4 5 6 
#
# 1 0.011817 -0.008223 -0.000521 0.000000 -0.006851 0.000000
# 2 -0.008223 0.022941 -0.007929 0.000000 0.006226 0.000000
# 3 -0.000521 -0.007929 0.013831 0.000000 -0.000850 0.000000
# 4 0.000000 0.000000 0.000000 0.027302 0.000000 0.002847
# 5 -0.006851 0.006226 -0.000850 0.000000 0.034536 0.000000
# 6 0.000000 0.000000 0.000000 0.002847 0.000000 0.038011
#
#
# Mechanical properties :
#
#
# Convention : Reuss Voigt Hill
#
# Bulk Modulus (GPa) = 65.59419 68.13615 66.86517
# Shear Modulus (GPa) = 26.75736 30.88615 28.82176
#
# Velocity S-wave (km/s) = 3.75336 4.03256 3.89546
# Velocity P-wave (km/s) = 7.30198 7.58654 7.44562
#
# Compressibility (1/GPa) = 0.01524525
#
# Stress axis : x y z
#
# Youngs Moduli (GPa) = 84.62213 43.58924 72.30225
#
# Poissons Ratio (x) = 0.35842 0.03767
# Poissons Ratio (y) = 0.69582 0.57325
# Poissons Ratio (z) = 0.04408 0.34560
#
# Static dielectric constant tensor:
#      x y z
#    x 1.655130 0.000000 0.014710 
#    y 0.000000 1.645320 0.000000 
#    z 0.014710 0.000000 1.654310 
# 
# From -- ./inp_files/34459.got.cif
#   From: 2010.05.17/outbox.cif.g08.bks.cpg/sg15_18_cif.got.tgz:34459.got - 2010.06.03 18:47:42.
