data_PCOD9287795
_publ_section_title
;
Structure prediction by ZEFSAII (Michael W. Deem and Ramdas Pophale) SiO2 
 PCOD9287795
Probable space group: C 2/C
;
_chemical_formula_sum "Si O2"
_cell_formula_units_Z 52
_cell_length_a 17.009163
_cell_length_b 21.476734
_cell_length_c 11.317128
_cell_angle_alpha 90.000000
_cell_angle_beta 136.602925
_cell_angle_gamma 90.000000
_cell_volume 2840.377195
_symmetry_space_group_name_H-M "C 2/C"
_symmetry_group_IT_number 15
_symmetry_cell_setting 'monoclinic'
loop_
_space_group_symop_operation_xyz
x,y,z
-x,y,1/2-z
-x,-y,-z
x,-y,1/2+z
1/2+x,1/2+y,z
1/2-x,1/2+y,1/2-z
1/2-x,1/2-y,-z
1/2+x,1/2-y,1/2+z
loop_
_atom_site_type_symbol
_atom_site_label
_atom_site_fract_x
_atom_site_fract_y
_atom_site_fract_z
Si Si1 0.289476 0.319144 0.583576
Si Si2 0.718072 0.361659 0.188911
Si Si3 0.554536 0.067608 0.543324
Si Si4 0.010698 0.802474 0.512418
Si Si5 0.445140 0.823026 0.065992
Si Si6 0.000000 0.630200 0.250000
Si Si7 0.332304 0.233103 0.982864
O O1 0.250000 0.250000 0.500000
O O2 0.297580 0.356193 0.469352
O O3 0.403290 0.318732 0.786337
O O4 0.185048 0.341433 0.551483
O O5 0.807516 0.418086 0.314850
O O6 0.778446 0.298996 0.306983
O O7 0.590757 0.353377 0.105478
O O8 0.515053 0.117461 0.598307
O O9 0.492447 0.089571 0.356833
O O10 0.500000 0.000000 0.500000
O O11 0.084916 0.787297 0.476333
O O12 0.956527 0.734946 0.489143
O O13 0.500000 0.802299 0.250000
O O14 0.101994 0.676262 0.386606
O O15 0.250000 0.250000 0.000000
#
# Coordination Sequence:
#
# PCOD9287795 Si02
#       7
#     8   8   8   8   8   4   8
#     4  12  19  30  55  91 125 153 186 241 314 379
#     4  11  21  36  53  85 121 160 199 247 310 362
#     4  11  25  41  60  82 117 161 211 262 299 355
#     4  12  20  33  57  90 131 157 187 250 312 381
#     4  12  19  34  56  87 119 152 195 244 310 358
#     4  10  22  38  56  84 112 156 208 252 294 368
#     4  11  21  34  52  83 125 162 196 240 307 379
#
# _framework density 18.307427000000001
#
# number of rings (size 3 to 8) (size 9 to 14) (size 15 to 20)
#    0.000    0.615    9.231    1.385    3.231    0.000 
#    0.000    0.000    0.000    0.923    0.000    2.154 
#    0.000    0.000    0.000    0.308    0.000    0.000 
#
# Total GULP energy -144874.067808 kJ/mol
# GULP energy per Si atom -5572.079531 kJ/mol
# Density = 1.826576 g / cm^3
# Si number density = 18.307427 Si / 1000 Ang^3
#
#
#
# Elastic Constant Matrix: (Units=GPa)
#
#
# Indices 1 2 3 4 5 6 
#
# 1 121.3831 29.6693 33.1437 0.0000 4.7585 0.0000
# 2 29.6693 59.9438 29.6340 0.0000 5.3177 0.0000
# 3 33.1437 29.6340 90.8619 0.0000 11.7251 0.0000
# 4 0.0000 0.0000 0.0000 -12.0799 0.0000 30.5411
# 5 4.7585 5.3177 11.7251 0.0000 34.3142 0.0000
# 6 0.0000 0.0000 0.0000 30.5411 0.0000 -6.4100
#
#
#
# Elastic Compliance Matrix: (Units=1/GPa)
#
#
# Indices 1 2 3 4 5 6 
#
# 1 0.009783 -0.003670 -0.002375 0.000000 0.000024 0.000000
# 2 -0.003670 0.021293 -0.005488 0.000000 -0.000916 0.000000
# 3 -0.002375 -0.005488 0.014133 0.000000 -0.003649 0.000000
# 4 0.000000 0.000000 0.000000 0.007494 0.000000 0.035707
# 5 0.000024 -0.000916 -0.003649 0.000000 0.030528 0.000000
# 6 0.000000 0.000000 0.000000 0.035707 0.000000 0.014123
#
#
# Mechanical properties :
#
#
# Convention : Reuss Voigt Hill
#
# Bulk Modulus (GPa) = 45.15964 50.78699 47.97332
# Shear Modulus (GPa) = 39.12363 15.14764 27.13564
#
# Velocity S-wave (km/s) = 4.62782 2.87958 3.85414
# Velocity P-wave (km/s) = 7.29908 6.23357 6.78727
#
# Compressibility (1/GPa) = 0.02214367
#
# Stress axis : x y z
#
# Youngs Moduli (GPa) = 102.21869 46.96380 70.75870
#
# Poissons Ratio (x) = 0.17237 0.16802
# Poissons Ratio (y) = 0.37517 0.38829
# Poissons Ratio (z) = 0.24272 0.25772
#
# Static dielectric constant tensor:
#      x y z
#    x 1.631980 0.000000 0.086890 
#    y 0.000000 1.544240 0.000000 
#    z 0.086890 0.000000 1.724330 
# 
# From -- ./inp_files/100713.got.cif
#   From: 2010.05.17/outbox.cif.g08.bks.cpg/sg15_51_cif.got.tgz:100713.got - 2010.06.03 18:47:42.
