data_PCOD9287700
_publ_section_title
;
Structure prediction by ZEFSAII (Michael W. Deem and Ramdas Pophale) SiO2 
 PCOD9287700
Probable space group: C 2/C
;
_chemical_formula_sum "Si O2"
_cell_formula_units_Z 56
_cell_length_a 14.287822
_cell_length_b 20.608484
_cell_length_c 8.056635
_cell_angle_alpha 90.000000
_cell_angle_beta 96.472911
_cell_angle_gamma 90.000000
_cell_volume 2357.156357
_symmetry_space_group_name_H-M "C 2/C"
_symmetry_group_IT_number 15
_symmetry_cell_setting 'monoclinic'
loop_
_space_group_symop_operation_xyz
x,y,z
-x,y,1/2-z
-x,-y,-z
x,-y,1/2+z
1/2+x,1/2+y,z
1/2-x,1/2+y,1/2-z
1/2-x,1/2-y,-z
1/2+x,1/2-y,1/2+z
loop_
_atom_site_type_symbol
_atom_site_label
_atom_site_fract_x
_atom_site_fract_y
_atom_site_fract_z
Si Si1 0.725391 0.532402 0.092383
Si Si2 0.891087 0.423356 0.865094
Si Si3 0.107685 0.207771 0.819022
Si Si4 0.565719 0.926505 0.098638
Si Si5 0.097395 0.862651 0.674294
Si Si6 0.760384 0.097481 0.749846
Si Si7 0.222620 0.301970 0.632544
O O1 0.818209 0.566468 0.194648
O O2 0.633107 0.563479 0.157910
O O3 0.737581 0.455663 0.106338
O O4 0.711860 0.553892 0.902471
O O5 0.897612 0.499432 0.922201
O O6 0.842607 0.361186 0.942370
O O7 0.002217 0.407081 0.927489
O O8 0.163167 0.153202 0.722961
O O9 0.168515 0.270903 0.781196
O O10 0.000000 0.219201 0.750000
O O11 0.102776 0.177652 0.002440
O O12 0.500000 0.929907 0.250000
O O13 0.654624 0.882873 0.171642
O O14 0.178606 0.830487 0.796462
O O15 0.000000 0.858472 0.750000
O O16 0.250000 0.250000 0.500000
#
# Coordination Sequence:
#
# PCOD9287700 Si02
#       7
#     8   8   8   8   8   8   8
#     4   9  21  38  64  94 125 170 208 275 332 394
#     4   9  22  38  60  93 131 168 218 263 335 401
#     4  11  25  45  64  94 127 175 223 273 331 400
#     4  10  22  37  63  96 132 171 212 273 337 403
#     4  10  22  46  68  92 129 169 223 277 331 396
#     4  10  23  39  62  93 133 165 219 270 330 396
#     4  11  24  44  68  97 132 178 222 278 336 404
#
# _framework density 23.757439000000002
#
# number of rings (size 3 to 8) (size 9 to 14) (size 15 to 20)
#    0.000    2.000    0.000    1.286   14.000    3.429 
#   10.286    2.857    0.000    0.000    0.000    0.000 
#    0.000    0.000    0.000    0.000    0.000    0.000 
#
# Total GULP energy -156173.474591 kJ/mol
# GULP energy per Si atom -5577.624093 kJ/mol
# Density = 2.370337 g / cm^3
# Si number density = 23.757439 Si / 1000 Ang^3
#
#
#
# Elastic Constant Matrix: (Units=GPa)
#
#
# Indices 1 2 3 4 5 6 
#
# 1 175.9821 46.5302 8.7077 0.0000 -22.3802 0.0000
# 2 46.5302 79.8844 15.3284 0.0000 -17.1929 0.0000
# 3 8.7077 15.3284 68.6358 0.0000 -12.3695 0.0000
# 4 0.0000 0.0000 0.0000 32.8334 0.0000 -14.3556
# 5 -22.3802 -17.1929 -12.3695 0.0000 30.8825 0.0000
# 6 0.0000 0.0000 0.0000 -14.3556 0.0000 12.8139
#
#
#
# Elastic Compliance Matrix: (Units=1/GPa)
#
#
# Indices 1 2 3 4 5 6 
#
# 1 0.006995 -0.003448 0.000485 0.000000 0.003344 0.000000
# 2 -0.003448 0.016152 -0.002155 0.000000 0.005630 0.000000
# 3 0.000485 -0.002155 0.015991 0.000000 0.005557 0.000000
# 4 0.000000 0.000000 0.000000 0.059700 0.000000 0.066883
# 5 0.003344 0.005630 0.005557 0.000000 0.040164 0.000000
# 6 0.000000 0.000000 0.000000 0.066883 0.000000 0.152971
#
#
# Mechanical properties :
#
#
# Convention : Reuss Voigt Hill
#
# Bulk Modulus (GPa) = 34.59927 51.73721 43.16824
# Shear Modulus (GPa) = 16.03373 32.23502 24.13437
#
# Velocity S-wave (km/s) = 2.60069 3.68753 3.19072
# Velocity P-wave (km/s) = 4.85935 6.32100 5.63774
#
# Compressibility (1/GPa) = 0.02890234
#
# Stress axis : x y z
#
# Youngs Moduli (GPa) = 142.95261 61.91323 62.53582
#
# Poissons Ratio (x) = 0.21347 -0.03035
# Poissons Ratio (y) = 0.49289 0.13477
# Poissons Ratio (z) = -0.06937 0.13343
#
# Static dielectric constant tensor:
#      x y z
#    x 1.940060 0.000000 -0.096490 
#    y 0.000000 1.925720 0.000000 
#    z -0.096490 0.000000 2.038190 
# 
# From -- ./inp_files/41251.got.cif
#   From: 2010.05.17/outbox.cif.g08.bks.cpg/sg15_21_cif.got.tgz:41251.got - 2010.06.03 18:47:42.
