data_PCOD9287623
_publ_section_title
;
Structure prediction by ZEFSAII (Michael W. Deem and Ramdas Pophale) SiO2 
 PCOD9287623
Probable space group: C 2/C
;
_chemical_formula_sum "Si O2"
_cell_formula_units_Z 40
_cell_length_a 23.835884
_cell_length_b 11.125105
_cell_length_c 17.706533
_cell_angle_alpha 90.000000
_cell_angle_beta 158.895816
_cell_angle_gamma 90.000000
_cell_volume 1690.634571
_symmetry_space_group_name_H-M "C 2/C"
_symmetry_group_IT_number 15
_symmetry_cell_setting 'monoclinic'
loop_
_space_group_symop_operation_xyz
x,y,z
-x,y,1/2-z
-x,-y,-z
x,-y,1/2+z
1/2+x,1/2+y,z
1/2-x,1/2+y,1/2-z
1/2-x,1/2-y,-z
1/2+x,1/2-y,1/2+z
loop_
_atom_site_type_symbol
_atom_site_label
_atom_site_fract_x
_atom_site_fract_y
_atom_site_fract_z
Si Si1 0.415081 0.680280 0.220694
Si Si2 0.027896 0.589745 0.641492
Si Si3 0.776288 0.945042 0.042617
Si Si4 0.749267 0.724041 0.121750
Si Si5 0.106570 0.639630 0.580614
O O1 0.500000 0.655947 0.250000
O O2 0.520691 0.778002 0.394990
O O3 0.250000 0.750000 0.000000
O O4 0.383705 0.548470 0.213608
O O5 0.122208 0.518513 0.824350
O O6 0.141744 0.618701 0.713080
O O7 0.893067 0.496792 0.450617
O O8 0.826202 0.879474 0.026469
O O9 0.744916 0.841200 0.062836
O O10 0.925303 0.679608 0.353950
O O11 0.682854 0.766743 0.118715
#
# Coordination Sequence:
#
# PCOD9287623 Si02
#       5
#     8   8   8   8   8
#     4  10  22  37  60  89 120 156 205 259 305 368
#     4   9  21  41  60  89 124 170 204 250 319 386
#     4   9  21  39  61  93 120 160 212 262 304 375
#     4  10  22  39  66  90 123 165 212 256 317 373
#     4  10  22  40  64  90 126 165 208 259 317 380
#
# _framework density 23.659755000000001
#
# number of rings (size 3 to 8) (size 9 to 14) (size 15 to 20)
#    0.000    2.400    0.000    0.000    8.400    8.800 
#    7.200    1.000    0.000    0.000    0.000    0.000 
#    0.000    0.000    0.000    0.000    0.000    0.000 
#
# Total GULP energy -111510.839877 kJ/mol
# GULP energy per Si atom -5575.541994 kJ/mol
# Density = 2.360590 g / cm^3
# Si number density = 23.659755 Si / 1000 Ang^3
#
#
#
# Elastic Constant Matrix: (Units=GPa)
#
#
# Indices 1 2 3 4 5 6 
#
# 1 40.7734 8.9639 12.8091 0.0000 1.0013 0.0000
# 2 8.9639 148.0558 5.5165 0.0000 -3.4110 0.0000
# 3 12.8091 5.5165 49.5297 0.0000 2.8048 0.0000
# 4 0.0000 0.0000 0.0000 4.6292 0.0000 -5.3883
# 5 1.0013 -3.4110 2.8048 0.0000 29.4987 0.0000
# 6 0.0000 0.0000 0.0000 -5.3883 0.0000 51.3319
#
#
#
# Elastic Compliance Matrix: (Units=1/GPa)
#
#
# Indices 1 2 3 4 5 6 
#
# 1 0.026977 -0.001390 -0.006798 0.000000 -0.000430 0.000000
# 2 -0.001390 0.006876 -0.000456 0.000000 0.000886 0.000000
# 3 -0.006798 -0.000456 0.022108 0.000000 -0.001924 0.000000
# 4 0.000000 0.000000 0.000000 0.246088 0.000000 0.025832
# 5 -0.000430 0.000886 -0.001924 0.000000 0.034200 0.000000
# 6 0.000000 0.000000 0.000000 0.025832 0.000000 0.022193
#
#
# Mechanical properties :
#
#
# Convention : Reuss Voigt Hill
#
# Bulk Modulus (GPa) = 25.85800 32.54866 29.20333
# Shear Modulus (GPa) = 12.86603 31.16326 22.01464
#
# Velocity S-wave (km/s) = 2.33447 3.63318 3.05367
# Velocity P-wave (km/s) = 4.26839 5.60240 4.98026
#
# Compressibility (1/GPa) = 0.03867275
#
# Stress axis : x y z
#
# Youngs Moduli (GPa) = 37.06805 145.43815 45.23321
#
# Poissons Ratio (x) = 0.20215 0.30748
# Poissons Ratio (y) = 0.05152 0.02065
# Poissons Ratio (z) = 0.25197 0.06639
#
# Static dielectric constant tensor:
#      x y z
#    x 1.842430 0.000000 0.021630 
#    y 0.000000 1.946090 0.000000 
#    z 0.021630 0.000000 1.915960 
# 
# From -- ./inp_files/103186.got.cif
#   From: 2010.05.17/outbox.cif.g08.bks.cpg/sg15_52_cif.got.tgz:103186.got - 2010.06.03 18:47:42.
