data_PCOD9287938
_publ_section_title
;
Structure prediction by ZEFSAII (Michael W. Deem and Ramdas Pophale) SiO2 
 PCOD9287938
Probable space group: C 2/C
;
_chemical_formula_sum "Si O2"
_cell_formula_units_Z 52
_cell_length_a 5.435870
_cell_length_b 29.297638
_cell_length_c 17.713862
_cell_angle_alpha 90.000000
_cell_angle_beta 114.132859
_cell_angle_gamma 90.000000
_cell_volume 2574.514373
_symmetry_space_group_name_H-M "C 2/C"
_symmetry_group_IT_number 15
_symmetry_cell_setting 'monoclinic'
loop_
_space_group_symop_operation_xyz
x,y,z
-x,y,1/2-z
-x,-y,-z
x,-y,1/2+z
1/2+x,1/2+y,z
1/2-x,1/2+y,1/2-z
1/2-x,1/2-y,-z
1/2+x,1/2-y,1/2+z
loop_
_atom_site_type_symbol
_atom_site_label
_atom_site_fract_x
_atom_site_fract_y
_atom_site_fract_z
Si Si1 0.694753 0.979739 0.459945
Si Si2 0.575810 0.943993 0.845546
Si Si3 0.870806 0.739390 0.889109
Si Si4 0.050488 0.801548 0.054383
Si Si5 0.250215 0.636873 0.161996
Si Si6 0.500000 0.200620 0.250000
Si Si7 0.587239 0.612992 0.469801
O O1 0.713801 0.925658 0.472746
O O2 0.500000 0.000000 0.500000
O O3 0.585781 0.003635 0.370699
O O4 0.000000 0.000000 0.500000
O O5 0.500000 0.938555 0.750000
O O6 0.346160 0.915273 0.858416
O O7 0.844666 0.915935 0.901320
O O8 0.621427 0.711320 0.893514
O O9 0.755436 0.768730 0.804685
O O10 0.132414 0.710322 0.898567
O O11 0.953174 0.771393 0.970411
O O12 0.998345 0.853944 0.025492
O O13 0.500000 0.637678 0.250000
O O14 0.045814 0.669158 0.181650
O O15 0.304727 0.647436 0.081867
#
# Coordination Sequence:
#
# PCOD9287938 Si02
#       7
#     8   8   8   8   8   4   8
#     4  10  22  38  60  89 128 166 202 246 310 374
#     4  11  21  38  57  96 129 160 198 263 319 369
#     4  10  24  41  61  87 127 162 206 259 318 374
#     4  10  23  41  61  90 122 166 208 257 306 378
#     4  12  21  33  59  94 129 150 198 265 320 376
#     4  12  26  38  60  96 122 166 204 264 334 374
#     4  11  23  38  63  91 123 169 214 253 311 379
#
# _framework density 20.197984000000002
#
# number of rings (size 3 to 8) (size 9 to 14) (size 15 to 20)
#    0.000    1.231    3.846    1.846   10.769    0.000 
#    0.000    0.000    3.385    0.000    0.000    0.000 
#    0.000    0.000    0.000    0.000    0.000    0.000 
#
# Total GULP energy -145037.774057 kJ/mol
# GULP energy per Si atom -5578.375925 kJ/mol
# Density = 2.015201 g / cm^3
# Si number density = 20.197984 Si / 1000 Ang^3
#
#
#
# Elastic Constant Matrix: (Units=GPa)
#
#
# Indices 1 2 3 4 5 6 
#
# 1 101.7548 35.7820 14.1956 0.0000 -0.7204 0.0000
# 2 35.7820 95.8593 39.4665 0.0000 -6.5786 0.0000
# 3 14.1956 39.4665 46.7724 0.0000 9.3069 0.0000
# 4 0.0000 0.0000 0.0000 29.9122 0.0000 1.4181
# 5 -0.7204 -6.5786 9.3069 0.0000 25.5552 0.0000
# 6 0.0000 0.0000 0.0000 1.4181 0.0000 22.0613
#
#
#
# Elastic Compliance Matrix: (Units=1/GPa)
#
#
# Indices 1 2 3 4 5 6 
#
# 1 0.011338 -0.004564 0.000626 0.000000 -0.001083 0.000000
# 2 -0.004564 0.020435 -0.018198 0.000000 0.011759 0.000000
# 3 0.000626 -0.018198 0.040402 0.000000 -0.019381 0.000000
# 4 0.000000 0.000000 0.000000 0.033533 0.000000 -0.002156
# 5 -0.001083 0.011759 -0.019381 0.000000 0.049186 0.000000
# 6 0.000000 0.000000 0.000000 -0.002156 0.000000 0.045467
#
#
# Mechanical properties :
#
#
# Convention : Reuss Voigt Hill
#
# Bulk Modulus (GPa) = 35.83934 47.03054 41.43494
# Shear Modulus (GPa) = 19.69025 25.83522 22.76274
#
# Velocity S-wave (km/s) = 3.12567 3.58033 3.36070
# Velocity P-wave (km/s) = 5.55058 6.35822 5.96808
#
# Compressibility (1/GPa) = 0.02790230
#
# Stress axis : x y z
#
# Youngs Moduli (GPa) = 88.20282 48.93629 24.75135
#
# Poissons Ratio (x) = 0.22334 -0.01548
# Poissons Ratio (y) = 0.40255 0.45041
# Poissons Ratio (z) = -0.05518 0.89052
#
# Static dielectric constant tensor:
#      x y z
#    x 1.865530 0.000000 -0.028380 
#    y 0.000000 1.727190 0.000000 
#    z -0.028380 0.000000 1.707810 
# 
# From -- ./inp_files/186281.got.cif
#   From: 2010.05.17/outbox.cif.g08.bks.cpg/sg15_94_cif.got.tgz:186281.got - 2010.06.03 18:47:42.
