data_PCOD9287507
_publ_section_title
;
Structure prediction by ZEFSAII (Michael W. Deem and Ramdas Pophale) SiO2 
 PCOD9287507
Probable space group: C 2/C
;
_chemical_formula_sum "Si O2"
_cell_formula_units_Z 44
_cell_length_a 14.887586
_cell_length_b 13.205354
_cell_length_c 19.156100
_cell_angle_alpha 90.000000
_cell_angle_beta 152.096927
_cell_angle_gamma 90.000000
_cell_volume 1762.406695
_symmetry_space_group_name_H-M "C 2/C"
_symmetry_group_IT_number 15
_symmetry_cell_setting 'monoclinic'
loop_
_space_group_symop_operation_xyz
x,y,z
-x,y,1/2-z
-x,-y,-z
x,-y,1/2+z
1/2+x,1/2+y,z
1/2-x,1/2+y,1/2-z
1/2-x,1/2-y,-z
1/2+x,1/2-y,1/2+z
loop_
_atom_site_type_symbol
_atom_site_label
_atom_site_fract_x
_atom_site_fract_y
_atom_site_fract_z
Si Si1 0.500000 0.345177 0.250000
Si Si2 0.200242 0.656368 0.901912
Si Si3 0.191808 0.210513 0.752153
Si Si4 0.890390 0.690519 0.444564
Si Si5 0.354185 0.999756 0.009153
Si Si6 0.218044 0.022999 0.675127
O O1 0.467827 0.279434 0.298107
O O2 0.311386 0.416433 0.110830
O O3 0.352363 0.743410 0.989188
O O4 0.212474 0.586929 0.842745
O O5 0.000000 0.713255 0.750000
O O6 0.205112 0.577725 0.968606
O O7 0.215527 0.276247 0.698184
O O8 0.184621 0.095719 0.718069
O O9 0.394682 0.219509 0.929224
O O10 0.858348 0.575874 0.445546
O O11 0.577988 0.037206 0.171892
O O12 0.000000 0.000000 0.500000
#
# Coordination Sequence:
#
# PCOD9287507 Si02
#       6
#     4   8   8   8   8   8
#     4  12  26  42  62  98 144 166 230 278 336 384
#     4   9  18  34  62 101 130 161 219 274 325 393
#     4  10  24  44  63  96 131 178 225 278 321 410
#     4  10  22  41  68  95 131 176 226 264 339 396
#     4  10  22  36  66 101 133 174 221 278 329 402
#     4   9  18  38  63  95 137 171 216 269 344 397
#
# _framework density 24.965861
#
# number of rings (size 3 to 8) (size 9 to 14) (size 15 to 20)
#    0.000    2.182    0.000    2.727    3.818    3.636 
#    6.545    0.000    0.000    0.000    0.000    0.000 
#    0.000    0.000    0.000    0.000    0.000    0.000 
#
# Total GULP energy -122507.818544 kJ/mol
# GULP energy per Si atom -5568.537207 kJ/mol
# Density = 2.490904 g / cm^3
# Si number density = 24.965861 Si / 1000 Ang^3
#
#
#
# Elastic Constant Matrix: (Units=GPa)
#
#
# Indices 1 2 3 4 5 6 
#
# 1 131.0508 17.6947 10.3513 -0.0013 1.2181 -0.0006
# 2 17.6947 43.2448 18.0516 0.0102 4.5415 -0.0003
# 3 10.3513 18.0516 127.8680 0.0136 32.5479 -0.0001
# 4 -0.0013 0.0102 0.0136 12.5685 0.0023 4.6703
# 5 1.2181 4.5415 32.5479 0.0023 37.5343 -0.0003
# 6 -0.0006 -0.0003 -0.0001 4.6703 -0.0003 40.5329
#
#
#
# Elastic Compliance Matrix: (Units=1/GPa)
#
#
# Indices 1 2 3 4 5 6 
#
# 1 0.008086 -0.003225 -0.000298 0.000004 0.000386 0.000000
# 2 -0.003225 0.025858 -0.003362 -0.000018 -0.000109 0.000002
# 3 -0.000298 -0.003362 0.010540 -0.000007 -0.008723 0.000001
# 4 0.000004 -0.000018 -0.000007 0.083123 0.000003 -0.009578
# 5 0.000386 -0.000109 -0.008723 0.000003 0.034207 0.000000
# 6 0.000000 0.000002 0.000001 -0.009578 0.000000 0.025775
#
#
# Mechanical properties :
#
#
# Convention : Reuss Voigt Hill
#
# Bulk Modulus (GPa) = 32.55654 43.81764 38.18709
# Shear Modulus (GPa) = 23.62998 35.19821 29.41410
#
# Velocity S-wave (km/s) = 3.07985 3.75888 3.43618
# Velocity P-wave (km/s) = 5.07110 6.03556 5.57423
#
# Compressibility (1/GPa) = 0.03071579
#
# Stress axis : x y z
#
# Youngs Moduli (GPa) = 123.67101 38.67206 94.88002
#
# Poissons Ratio (x) = 0.12471 0.02823
# Poissons Ratio (y) = 0.39883 0.31896
# Poissons Ratio (z) = 0.03679 0.13001
#
# Static dielectric constant tensor:
#      x y z
#    x 1.953140 0.000020 0.114790 
#    y 0.000020 2.047960 0.000090 
#    z 0.114790 0.000090 2.369860 
# 
# From -- ./inp_files/244610.got.cif
#   From: 2010.05.17/outbox.cif.g08.bks.cpg/sg15_123_cif.got.tgz:244610.got - 2010.06.03 18:47:42.
