data_PCOD9287165
_publ_section_title
;
Structure prediction by ZEFSAII (Michael W. Deem and Ramdas Pophale) SiO2 
 PCOD9287165
Probable space group: C 2/C
;
_chemical_formula_sum "Si O2"
_cell_formula_units_Z 28
_cell_length_a 7.988315
_cell_length_b 12.826423
_cell_length_c 10.704729
_cell_angle_alpha 90.000000
_cell_angle_beta 56.713515
_cell_angle_gamma 90.000000
_cell_volume 916.874478
_symmetry_space_group_name_H-M "C 2/C"
_symmetry_group_IT_number 15
_symmetry_cell_setting 'monoclinic'
loop_
_space_group_symop_operation_xyz
x,y,z
-x,y,1/2-z
-x,-y,-z
x,-y,1/2+z
1/2+x,1/2+y,z
1/2-x,1/2+y,1/2-z
1/2-x,1/2-y,-z
1/2+x,1/2-y,1/2+z
loop_
_atom_site_type_symbol
_atom_site_label
_atom_site_fract_x
_atom_site_fract_y
_atom_site_fract_z
Si Si1 0.676605 0.557039 0.051828
Si Si2 0.920145 0.233541 0.066874
Si Si3 0.500000 0.205441 0.250000
Si Si4 0.744594 0.049990 0.748648
O O1 0.581480 0.672236 0.082533
O O2 0.798978 0.534483 0.126118
O O3 0.488736 0.475328 0.131165
O O4 0.810571 0.550396 0.874158
O O5 0.722560 0.160308 0.151307
O O6 0.833808 0.342368 0.155507
O O7 0.992980 0.244685 0.894158
#
# Coordination Sequence:
#
# PCOD9287165 Si02
#       4
#     8   8   4   8
#     4  10  22  41  69 104 130 183 224 276 338 411
#     4  11  21  42  69 100 135 182 222 282 331 406
#     4  10  22  32  68 104 124 184 232 254 352 402
#     4  10  22  41  70 100 132 182 229 265 345 404
#
# _framework density 30.538530999999999
#
# number of rings (size 3 to 8) (size 9 to 14) (size 15 to 20)
#    0.000    1.714    2.857    1.714   16.000    0.000 
#    0.000   14.286    0.000    0.000    0.000    0.000 
#    0.000    0.000    0.000    0.000    0.000    0.000 
#
# Total GULP energy -78222.337932 kJ/mol
# GULP energy per Si atom -5587.309852 kJ/mol
# Density = 3.046902 g / cm^3
# Si number density = 30.538531 Si / 1000 Ang^3
#
#
#
# Elastic Constant Matrix: (Units=GPa)
#
#
# Indices 1 2 3 4 5 6 
#
# 1 78.9888 65.6704 89.1922 0.0000 7.7440 0.0000
# 2 65.6704 200.0616 97.7687 0.0000 12.8957 0.0000
# 3 89.1922 97.7687 385.5704 0.0000 27.6776 0.0000
# 4 0.0000 0.0000 0.0000 45.6316 0.0000 -12.0162
# 5 7.7440 12.8957 27.6776 0.0000 93.1533 0.0000
# 6 0.0000 0.0000 0.0000 -12.0162 0.0000 49.6295
#
#
#
# Elastic Compliance Matrix: (Units=1/GPa)
#
#
# Indices 1 2 3 4 5 6 
#
# 1 0.020929 -0.005142 -0.003539 0.000000 0.000024 0.000000
# 2 -0.005142 0.006981 -0.000554 0.000000 -0.000374 0.000000
# 3 -0.003539 -0.000554 0.003603 0.000000 -0.000700 0.000000
# 4 0.000000 0.000000 0.000000 0.023407 0.000000 0.005667
# 5 0.000024 -0.000374 -0.000700 0.000000 0.010993 0.000000
# 6 0.000000 0.000000 0.000000 0.005667 0.000000 0.021521
#
#
# Mechanical properties :
#
#
# Convention : Reuss Voigt Hill
#
# Bulk Modulus (GPa) = 76.66913 129.98703 103.32808
# Shear Modulus (GPa) = 45.35059 65.14883 55.24971
#
# Velocity S-wave (km/s) = 3.85779 4.62381 4.25806
# Velocity P-wave (km/s) = 6.70847 8.43585 7.62126
#
# Compressibility (1/GPa) = 0.01304306
#
# Stress axis : x y z
#
# Youngs Moduli (GPa) = 47.78031 143.24398 277.55022
#
# Poissons Ratio (x) = 0.73655 0.98233
# Poissons Ratio (y) = 0.24568 0.15372
# Poissons Ratio (z) = 0.16911 0.07934
#
# Static dielectric constant tensor:
#      x y z
#    x 2.497530 0.000000 0.070470 
#    y 0.000000 2.463000 0.000000 
#    z 0.070470 0.000000 2.307130 
# 
# From -- ./inp_files/84881.got.cif
#   From: 2010.05.17/outbox.cif.g08.bks.cpg/sg15_43_cif.got.tgz:84881.got - 2010.06.03 18:47:42.
