data_PCOD9287286
_publ_section_title
;
Structure prediction by ZEFSAII (Michael W. Deem and Ramdas Pophale) SiO2 
 PCOD9287286
Probable space group: C 2/C
;
_chemical_formula_sum "Si O2"
_cell_formula_units_Z 64
_cell_length_a 17.704694
_cell_length_b 12.413443
_cell_length_c 14.624828
_cell_angle_alpha 90.000000
_cell_angle_beta 91.439157
_cell_angle_gamma 90.000000
_cell_volume 3213.175379
_symmetry_space_group_name_H-M "C 2/C"
_symmetry_group_IT_number 15
_symmetry_cell_setting 'monoclinic'
loop_
_space_group_symop_operation_xyz
x,y,z
-x,y,1/2-z
-x,-y,-z
x,-y,1/2+z
1/2+x,1/2+y,z
1/2-x,1/2+y,1/2-z
1/2-x,1/2-y,-z
1/2+x,1/2-y,1/2+z
loop_
_atom_site_type_symbol
_atom_site_label
_atom_site_fract_x
_atom_site_fract_y
_atom_site_fract_z
Si Si1 0.597676 0.827870 0.439798
Si Si2 0.955357 0.771763 0.843656
Si Si3 0.830960 0.834199 0.265630
Si Si4 0.589608 0.493377 0.090536
Si Si5 0.661023 0.893386 0.631288
Si Si6 0.656381 0.104358 0.746738
Si Si7 0.443711 0.556768 0.662508
Si Si8 0.334371 0.595265 0.079711
O O1 0.513182 0.787849 0.414398
O O2 0.611259 0.885282 0.537228
O O3 0.627782 0.891261 0.351169
O O4 0.646998 0.717814 0.444407
O O5 0.888207 0.693303 0.812684
O O6 0.000000 0.789349 0.750000
O O7 0.926158 0.884424 0.881927
O O8 0.862652 0.925862 0.334352
O O9 0.841004 0.719837 0.314902
O O10 0.744176 0.862499 0.246131
O O11 0.884193 0.847879 0.177875
O O12 0.505866 0.437715 0.083910
O O13 0.639433 0.480606 0.002080
O O14 0.747845 0.913113 0.603494
O O15 0.641194 0.989971 0.698970
O O16 0.500000 0.553445 0.750000
O O17 0.392553 0.449287 0.657144
#
# Coordination Sequence:
#
# PCOD9287286 Si02
#       8
#     8   8   8   8   8   8   8   8
#     4  11  23  43  67  97 129 177 231 273 325 405
#     4  10  23  41  66  95 131 177 229 266 332 400
#     4  11  22  39  64  95 135 170 214 276 336 393
#     4  11  22  37  65 102 129 167 212 288 337 386
#     4  12  25  44  66 100 135 178 229 269 336 407
#     4  11  25  42  66  94 132 186 219 273 329 399
#     4  10  22  35  59  98 130 164 209 271 344 381
#     4  12  21  38  65  98 133 164 217 279 337 398
#
# _framework density 19.917992000000002
#
# number of rings (size 3 to 8) (size 9 to 14) (size 15 to 20)
#    0.000    1.000    5.000    2.625    5.250    0.500 
#    0.000    7.500    0.000    0.000    0.000    0.000 
#    0.000    0.000    0.000    0.000    0.000    0.000 
#
# Total GULP energy -178697.675824 kJ/mol
# GULP energy per Si atom -5584.302370 kJ/mol
# Density = 1.987266 g / cm^3
# Si number density = 19.917992 Si / 1000 Ang^3
#
#
#
# Elastic Constant Matrix: (Units=GPa)
#
#
# Indices 1 2 3 4 5 6 
#
# 1 115.2214 62.6060 40.3167 0.0000 7.6099 0.0000
# 2 62.6060 132.4766 75.1124 0.0000 4.4917 0.0000
# 3 40.3167 75.1124 93.6571 0.0000 3.9080 0.0000
# 4 0.0000 0.0000 0.0000 33.9146 0.0000 -3.2873
# 5 7.6099 4.4917 3.9080 0.0000 27.6327 0.0000
# 6 0.0000 0.0000 0.0000 -3.2873 0.0000 31.3867
#
#
#
# Elastic Compliance Matrix: (Units=1/GPa)
#
#
# Indices 1 2 3 4 5 6 
#
# 1 0.011886 -0.004937 -0.001060 0.000000 -0.002321 0.000000
# 2 -0.004937 0.015907 -0.010644 0.000000 0.000279 0.000000
# 3 -0.001060 -0.010644 0.019702 0.000000 -0.000764 0.000000
# 4 0.000000 0.000000 0.000000 0.029788 0.000000 0.003120
# 5 -0.002321 0.000279 -0.000764 0.000000 0.036891 0.000000
# 6 0.000000 0.000000 0.000000 0.003120 0.000000 0.032187
#
#
# Mechanical properties :
#
#
# Convention : Reuss Voigt Hill
#
# Bulk Modulus (GPa) = 70.36022 77.49173 73.92597
# Shear Modulus (GPa) = 27.11781 29.47480 28.29630
#
# Velocity S-wave (km/s) = 3.69382 3.85100 3.77323
# Velocity P-wave (km/s) = 7.32079 7.66573 7.49525
#
# Compressibility (1/GPa) = 0.01421258
#
# Stress axis : x y z
#
# Youngs Moduli (GPa) = 84.13370 62.86468 50.75732
#
# Poissons Ratio (x) = 0.31039 0.05380
# Poissons Ratio (y) = 0.41540 0.54025
# Poissons Ratio (z) = 0.08918 0.66911
#
# Static dielectric constant tensor:
#      x y z
#    x 1.706190 0.000000 -0.004540 
#    y 0.000000 1.687480 0.000000 
#    z -0.004540 0.000000 1.873350 
# 
# From -- ./inp_files/161338.got.cif
#   From: 2010.05.17/outbox.cif.g08.bks.cpg/sg15_81_cif.got.tgz:161338.got - 2010.06.03 18:47:42.
