data_PCOD9287378
_publ_section_title
;
Structure prediction by ZEFSAII (Michael W. Deem and Ramdas Pophale) SiO2 
 PCOD9287378
Probable space group: C 2/C
;
_chemical_formula_sum "Si O2"
_cell_formula_units_Z 60
_cell_length_a 20.687193
_cell_length_b 10.009999
_cell_length_c 24.187128
_cell_angle_alpha 90.000000
_cell_angle_beta 146.274382
_cell_angle_gamma 90.000000
_cell_volume 2780.879388
_symmetry_space_group_name_H-M "C 2/C"
_symmetry_group_IT_number 15
_symmetry_cell_setting 'monoclinic'
loop_
_space_group_symop_operation_xyz
x,y,z
-x,y,1/2-z
-x,-y,-z
x,-y,1/2+z
1/2+x,1/2+y,z
1/2-x,1/2+y,1/2-z
1/2-x,1/2-y,-z
1/2+x,1/2-y,1/2+z
loop_
_atom_site_type_symbol
_atom_site_label
_atom_site_fract_x
_atom_site_fract_y
_atom_site_fract_z
Si Si1 0.288013 0.363184 0.848187
Si Si2 0.500000 0.358173 0.750000
Si Si3 0.920879 0.395168 0.477232
Si Si4 0.251371 0.906961 0.905157
Si Si5 0.085931 0.772213 0.158602
Si Si6 0.029656 0.958411 0.585386
Si Si7 0.765799 0.653221 0.686912
Si Si8 0.526536 0.209172 0.884691
O O1 0.385617 0.250708 0.929035
O O2 0.170331 0.281092 0.765282
O O3 0.333596 0.416152 0.820821
O O4 0.267558 0.507227 0.862075
O O5 0.621080 0.438019 0.831868
O O6 0.519221 0.267456 0.817954
O O7 0.803945 0.473762 0.406866
O O8 0.000000 0.500000 0.500000
O O9 0.998958 0.347549 0.583759
O O10 0.237544 0.772194 0.859422
O O11 0.356818 0.876437 0.023039
O O12 0.172492 0.803453 0.167734
O O13 0.019369 0.912063 0.116426
O O14 0.966667 0.832905 0.567245
O O15 0.000000 0.000000 0.500000
O O16 0.898982 0.642667 0.804148
#
# Coordination Sequence:
#
# PCOD9287378 Si02
#       8
#     8   4   8   8   8   8   8   8
#     4  11  23  35  55  89 140 167 205 248 332 404
#     4  10  26  42  66  98 114 180 228 284 326 364
#     4  12  24  37  59  98 135 171 206 266 335 406
#     4  11  23  41  68  89 128 163 227 278 323 384
#     4  11  22  33  55  90 135 171 203 240 340 389
#     4  11  21  37  59  96 131 173 203 262 328 396
#     4  10  22  36  58  94 129 176 206 264 320 400
#     4  11  21  42  66  94 127 166 230 276 320 384
#
# _framework density 21.575907999999998
#
# number of rings (size 3 to 8) (size 9 to 14) (size 15 to 20)
#    0.000    1.067    4.000    3.600    7.467    0.000 
#    0.000    0.000    0.000    4.000    0.000    0.000 
#    0.000    0.000    0.000    0.000    0.000    0.000 
#
# Total GULP energy -167109.883263 kJ/mol
# GULP energy per Si atom -5570.329442 kJ/mol
# Density = 2.152680 g / cm^3
# Si number density = 21.575908 Si / 1000 Ang^3
#
#
#
# Elastic Constant Matrix: (Units=GPa)
#
#
# Indices 1 2 3 4 5 6 
#
# 1 51.9748 20.3493 18.1671 0.0000 16.3541 0.0000
# 2 20.3493 142.5129 46.2967 0.0000 10.8429 0.0000
# 3 18.1671 46.2967 105.8283 0.0000 22.1690 0.0000
# 4 0.0000 0.0000 0.0000 35.9879 0.0000 2.2897
# 5 16.3541 10.8429 22.1690 0.0000 40.2421 0.0000
# 6 0.0000 0.0000 0.0000 2.2897 0.0000 12.9689
#
#
#
# Elastic Compliance Matrix: (Units=1/GPa)
#
#
# Indices 1 2 3 4 5 6 
#
# 1 0.023119 -0.002270 -0.001284 0.000000 -0.008076 0.000000
# 2 -0.002270 0.008405 -0.003398 0.000000 0.000530 0.000000
# 3 -0.001284 -0.003398 0.012271 0.000000 -0.005323 0.000000
# 4 0.000000 0.000000 0.000000 0.028103 0.000000 -0.004962
# 5 -0.008076 0.000530 -0.005323 0.000000 0.030921 0.000000
# 6 0.000000 0.000000 0.000000 -0.004962 0.000000 0.077984
#
#
# Mechanical properties :
#
#
# Convention : Reuss Voigt Hill
#
# Bulk Modulus (GPa) = 33.45452 52.21582 42.83517
# Shear Modulus (GPa) = 24.42965 32.20665 28.31815
#
# Velocity S-wave (km/s) = 3.36857 3.86776 3.62676
# Velocity P-wave (km/s) = 5.53794 6.64828 6.11835
#
# Compressibility (1/GPa) = 0.02989133
#
# Stress axis : x y z
#
# Youngs Moduli (GPa) = 43.25494 118.98281 81.49116
#
# Poissons Ratio (x) = 0.27003 0.10463
# Poissons Ratio (y) = 0.09817 0.27692
# Poissons Ratio (z) = 0.05554 0.40432
#
# Static dielectric constant tensor:
#      x y z
#    x 1.790560 0.000000 0.012980 
#    y 0.000000 1.831580 0.000000 
#    z 0.012980 0.000000 1.957760 
# 
# From -- ./inp_files/318517.got.cif
#   From: 2010.05.17/outbox.cif.g08.bks.cpg/sg15_160_cif.got.tgz:318517.got - 2010.06.03 18:47:42.
