data_PCOD9287997
_publ_section_title
;
Structure prediction by ZEFSAII (Michael W. Deem and Ramdas Pophale) SiO2 
 PCOD9287997
Probable space group: C 2/C
;
_chemical_formula_sum "Si O2"
_cell_formula_units_Z 52
_cell_length_a 20.168524
_cell_length_b 22.311054
_cell_length_c 5.236500
_cell_angle_alpha 90.000000
_cell_angle_beta 87.597537
_cell_angle_gamma 90.000000
_cell_volume 2354.254512
_symmetry_space_group_name_H-M "C 2/C"
_symmetry_group_IT_number 15
_symmetry_cell_setting 'monoclinic'
loop_
_space_group_symop_operation_xyz
x,y,z
-x,y,1/2-z
-x,-y,-z
x,-y,1/2+z
1/2+x,1/2+y,z
1/2-x,1/2+y,1/2-z
1/2-x,1/2-y,-z
1/2+x,1/2-y,1/2+z
loop_
_atom_site_type_symbol
_atom_site_label
_atom_site_fract_x
_atom_site_fract_y
_atom_site_fract_z
Si Si1 0.576938 0.524490 0.460867
Si Si2 0.500000 0.042038 0.750000
Si Si3 0.062689 0.636453 0.052471
Si Si4 0.933049 0.758182 0.741670
Si Si5 0.229062 0.175386 0.786820
Si Si6 0.841263 0.299069 0.627793
Si Si7 0.658106 0.360704 0.819708
O O1 0.500000 0.500000 0.500000
O O2 0.605473 0.481250 0.239104
O O3 0.601323 0.588812 0.356906
O O4 0.440958 0.087902 0.675682
O O5 0.500000 0.000000 0.500000
O O6 0.130332 0.648220 0.199538
O O7 0.000000 0.623455 0.250000
O O8 0.051292 0.700571 0.926435
O O9 0.878059 0.798111 0.622874
O O10 0.000000 0.795439 0.750000
O O11 0.905283 0.736734 0.016204
O O12 0.303759 0.176273 0.882355
O O13 0.187868 0.146174 0.030909
O O14 0.207468 0.246109 0.764341
O O15 0.213754 0.138999 0.531703
#
# Coordination Sequence:
#
# PCOD9287997 Si02
#       7
#     8   4   8   8   8   8   8
#     4  10  22  41  62  91 124 174 220 273 328 372
#     4  12  26  44  66  90 126 170 214 258 320 396
#     4  12  21  41  64  99 133 167 202 273 340 398
#     4  11  22  35  61 101 138 167 206 274 349 406
#     4  10  23  39  63  94 130 177 215 264 320 412
#     4  10  22  38  61  95 138 170 211 257 339 408
#     4  11  23  41  62  94 132 172 228 269 329 397
#
# _framework density 22.087672000000001
#
# number of rings (size 3 to 8) (size 9 to 14) (size 15 to 20)
#    0.000    1.231    4.615    0.923    4.308    1.846 
#    5.538    0.000    0.000    5.538    0.000    0.000 
#    0.000    0.000    0.000    0.000    0.000    0.000 
#
# Total GULP energy -144790.698274 kJ/mol
# GULP energy per Si atom -5568.873011 kJ/mol
# Density = 2.203740 g / cm^3
# Si number density = 22.087672 Si / 1000 Ang^3
#
#
#
# Elastic Constant Matrix: (Units=GPa)
#
#
# Indices 1 2 3 4 5 6 
#
# 1 86.5842 22.8808 33.5154 0.0000 14.0590 0.0000
# 2 22.8808 88.7920 33.2559 0.0000 -0.9119 0.0000
# 3 33.5154 33.2559 121.9706 0.0000 7.8123 0.0000
# 4 0.0000 0.0000 0.0000 33.3451 0.0000 -1.0284
# 5 14.0590 -0.9119 7.8123 0.0000 39.9306 0.0000
# 6 0.0000 0.0000 0.0000 -1.0284 0.0000 17.7109
#
#
#
# Elastic Compliance Matrix: (Units=1/GPa)
#
#
# Indices 1 2 3 4 5 6 
#
# 1 0.014070 -0.002595 -0.002874 0.000000 -0.004451 0.000000
# 2 -0.002595 0.013059 -0.002962 0.000000 0.001791 0.000000
# 3 -0.002874 -0.002962 0.009859 0.000000 -0.000985 0.000000
# 4 0.000000 0.000000 0.000000 0.030043 0.000000 0.001745
# 5 -0.004451 0.001791 -0.000985 0.000000 0.026844 0.000000
# 6 0.000000 0.000000 0.000000 0.001745 0.000000 0.056564
#
#
# Mechanical properties :
#
#
# Convention : Reuss Voigt Hill
#
# Bulk Modulus (GPa) = 49.68639 52.96121 51.32380
# Shear Modulus (GPa) = 28.73398 32.04365 30.38881
#
# Velocity S-wave (km/s) = 3.61072 3.81300 3.71324
# Velocity P-wave (km/s) = 6.31878 6.58901 6.45531
#
# Compressibility (1/GPa) = 0.02012624
#
# Stress axis : x y z
#
# Youngs Moduli (GPa) = 71.07162 76.57618 101.42970
#
# Poissons Ratio (x) = 0.19873 0.29147
# Poissons Ratio (y) = 0.18445 0.30045
# Poissons Ratio (z) = 0.20423 0.22683
#
# Static dielectric constant tensor:
#      x y z
#    x 1.880580 0.000000 0.025890 
#    y 0.000000 1.807550 0.000000 
#    z 0.025890 0.000000 1.934090 
# 
# From -- ./inp_files/13404.got.cif
#   From: 2010.05.17/outbox.cif.g08.bks.cpg/sg15_7_cif.got.tgz:13404.got - 2010.06.03 18:47:42.
