data_PCOD9287205
_publ_section_title
;
Structure prediction by ZEFSAII (Michael W. Deem and Ramdas Pophale) SiO2 
 PCOD9287205
Probable space group: C 2/C
;
_chemical_formula_sum "Si O2"
_cell_formula_units_Z 60
_cell_length_a 21.579964
_cell_length_b 14.474042
_cell_length_c 15.490906
_cell_angle_alpha 90.000000
_cell_angle_beta 40.178391
_cell_angle_gamma 90.000000
_cell_volume 3121.700568
_symmetry_space_group_name_H-M "C 2/C"
_symmetry_group_IT_number 15
_symmetry_cell_setting 'monoclinic'
loop_
_space_group_symop_operation_xyz
x,y,z
-x,y,1/2-z
-x,-y,-z
x,-y,1/2+z
1/2+x,1/2+y,z
1/2-x,1/2+y,1/2-z
1/2-x,1/2-y,-z
1/2+x,1/2-y,1/2+z
loop_
_atom_site_type_symbol
_atom_site_label
_atom_site_fract_x
_atom_site_fract_y
_atom_site_fract_z
Si Si1 0.173890 0.365333 0.600877
Si Si2 0.340839 0.427907 0.534239
Si Si3 0.662871 0.220366 0.929302
Si Si4 0.000000 0.505514 0.750000
Si Si5 0.436412 0.060827 0.000113
Si Si6 0.944407 0.278796 0.618099
Si Si7 0.761666 0.044439 0.772039
Si Si8 0.541513 0.562446 0.878665
O O1 0.272469 0.413686 0.525246
O O2 0.185024 0.301185 0.505683
O O3 0.093179 0.441012 0.664055
O O4 0.129269 0.308910 0.728849
O O5 0.329645 0.329126 0.595806
O O6 0.299418 0.507127 0.640181
O O7 0.544394 0.560321 0.600122
O O8 0.729075 0.151271 0.805071
O O9 0.551764 0.194133 0.033917
O O10 0.015058 0.560794 0.645235
O O11 0.424319 0.161335 0.054987
O O12 0.500000 0.000000 0.000000
O O13 0.332980 0.012448 0.103546
O O14 0.946970 0.169082 0.605430
O O15 0.848399 0.031005 0.748113
O O16 0.500000 0.500000 0.000000
#
# Coordination Sequence:
#
# PCOD9287205 Si02
#       8
#     8   8   8   4   8   8   8   8
#     4  12  18  34  54  87 124 145 189 247 299 361
#     4  10  22  34  54  80 117 159 197 234 298 358
#     4  11  21  34  54  90 118 151 190 249 296 356
#     4  12  22  34  56  92 130 146 192 252 306 354
#     4  12  20  36  58  92 118 154 186 244 305 355
#     4  11  20  36  61  88 117 152 197 238 306 362
#     4  11  19  36  55  79 115 150 197 235 285 347
#     4   9  22  39  55  84 112 158 205 242 279 356
#
# _framework density 19.220293000000002
#
# number of rings (size 3 to 8) (size 9 to 14) (size 15 to 20)
#    0.000    1.067    6.667    1.200    0.000    0.000 
#    0.000    0.667    0.000    0.000   31.200   14.000 
#    0.000    0.000    0.000    0.000    0.000    0.000 
#
# Total GULP energy -167444.870182 kJ/mol
# GULP energy per Si atom -5581.495673 kJ/mol
# Density = 1.917655 g / cm^3
# Si number density = 19.220293 Si / 1000 Ang^3
#
#
#
# Elastic Constant Matrix: (Units=GPa)
#
#
# Indices 1 2 3 4 5 6 
#
# 1 132.7624 32.1508 47.3083 0.0000 -35.6534 0.0000
# 2 32.1508 70.3943 37.8281 0.0000 16.9947 0.0000
# 3 47.3083 37.8281 83.8960 0.0000 1.9478 0.0000
# 4 0.0000 0.0000 0.0000 25.4171 0.0000 -4.5216
# 5 -35.6534 16.9947 1.9478 0.0000 48.7432 0.0000
# 6 0.0000 0.0000 0.0000 -4.5216 0.0000 25.8460
#
#
#
# Elastic Compliance Matrix: (Units=1/GPa)
#
#
# Indices 1 2 3 4 5 6 
#
# 1 0.014849 -0.007109 -0.005482 0.000000 0.013559 0.000000
# 2 -0.007109 0.024235 -0.006608 0.000000 -0.013386 0.000000
# 3 -0.005482 -0.006608 0.018047 0.000000 -0.002427 0.000000
# 4 0.000000 0.000000 0.000000 0.040607 0.000000 0.007104
# 5 0.013559 -0.013386 -0.002427 0.000000 0.035197 0.000000
# 6 0.000000 0.000000 0.000000 0.007104 0.000000 0.039934
#
#
# Mechanical properties :
#
#
# Convention : Reuss Voigt Hill
#
# Bulk Modulus (GPa) = 53.38508 57.95856 55.67182
# Shear Modulus (GPa) = 22.98729 31.31896 27.15312
#
# Velocity S-wave (km/s) = 3.46206 4.04105 3.76271
# Velocity P-wave (km/s) = 6.61943 7.21067 6.92137
#
# Compressibility (1/GPa) = 0.01873183
#
# Stress axis : x y z
#
# Youngs Moduli (GPa) = 67.34615 41.26251 55.41142
#
# Poissons Ratio (x) = 0.29334 0.30379
# Poissons Ratio (y) = 0.47877 0.36615
# Poissons Ratio (z) = 0.36922 0.27266
#
# Static dielectric constant tensor:
#      x y z
#    x 1.736650 0.000000 -0.037950 
#    y 0.000000 1.674540 0.000000 
#    z -0.037950 0.000000 1.674430 
# 
# From -- ./inp_files/168263.got.cif
#   From: 2010.05.17/outbox.cif.g08.bks.cpg/sg15_85_cif.got.tgz:168263.got - 2010.06.03 18:47:42.
