data_PCOD9287630
_publ_section_title
;
Structure prediction by ZEFSAII (Michael W. Deem and Ramdas Pophale) SiO2 
 PCOD9287630
Probable space group: C 2/C
;
_chemical_formula_sum "Si O2"
_cell_formula_units_Z 48
_cell_length_a 10.039801
_cell_length_b 17.009853
_cell_length_c 18.347949
_cell_angle_alpha 90.000000
_cell_angle_beta 49.576381
_cell_angle_gamma 90.000000
_cell_volume 2385.352214
_symmetry_space_group_name_H-M "C 2/C"
_symmetry_group_IT_number 15
_symmetry_cell_setting 'monoclinic'
loop_
_space_group_symop_operation_xyz
x,y,z
-x,y,1/2-z
-x,-y,-z
x,-y,1/2+z
1/2+x,1/2+y,z
1/2-x,1/2+y,1/2-z
1/2-x,1/2-y,-z
1/2+x,1/2-y,1/2+z
loop_
_atom_site_type_symbol
_atom_site_label
_atom_site_fract_x
_atom_site_fract_y
_atom_site_fract_z
Si Si1 0.793748 0.114203 0.826938
Si Si2 0.802909 0.459338 0.295544
Si Si3 0.809922 0.894947 0.737728
Si Si4 0.954740 0.747210 0.619603
Si Si5 0.239419 0.858854 0.448283
Si Si6 0.286789 0.548523 0.399388
O O1 0.742110 0.078052 0.766431
O O2 0.668289 0.188342 0.881069
O O3 0.000000 0.133143 0.750000
O O4 0.763964 0.044116 0.895470
O O5 0.777396 0.552344 0.293575
O O6 0.696065 0.414733 0.396144
O O7 0.000000 0.445351 0.250000
O O8 0.834564 0.804354 0.710461
O O9 0.724184 0.909694 0.847013
O O10 0.006028 0.931874 0.671286
O O11 0.076421 0.803735 0.527435
O O12 0.093576 0.698438 0.619173
O O13 0.286548 0.913704 0.501319
#
# Coordination Sequence:
#
# PCOD9287630 Si02
#       6
#     8   8   8   8   8   8
#     4  11  21  41  63  88 121 165 199 244 309 364
#     4  11  21  39  65  89 114 163 211 246 290 367
#     4   9  19  38  60  82 119 159 198 239 306 354
#     4  10  22  37  60  92 126 154 201 252 306 346
#     4  10  22  37  61  92 121 158 206 251 293 356
#     4   9  18  37  63  83 115 165 201 234 295 371
#
# _framework density 20.122813000000001
#
# number of rings (size 3 to 8) (size 9 to 14) (size 15 to 20)
#    0.000    2.000    5.000    0.000    0.000   10.667 
#    0.000    0.833    0.000    0.000    0.000    0.000 
#    0.000    0.000    0.000    0.000    0.000    0.000 
#
# Total GULP energy -133888.871060 kJ/mol
# GULP energy per Si atom -5578.702961 kJ/mol
# Density = 2.007701 g / cm^3
# Si number density = 20.122813 Si / 1000 Ang^3
#
#
#
# Elastic Constant Matrix: (Units=GPa)
#
#
# Indices 1 2 3 4 5 6 
#
# 1 70.9133 32.8272 12.4676 -0.0001 -2.1616 0.0001
# 2 32.8272 119.6999 42.7203 -0.0002 10.0094 0.0002
# 3 12.4676 42.7203 43.8182 -0.0007 14.4992 0.0003
# 4 -0.0001 -0.0002 -0.0007 14.7438 0.0003 -7.6399
# 5 -2.1616 10.0094 14.4992 0.0003 24.3793 -0.0001
# 6 0.0001 0.0002 0.0003 -7.6399 -0.0001 37.3298
#
#
#
# Elastic Compliance Matrix: (Units=1/GPa)
#
#
# Indices 1 2 3 4 5 6 
#
# 1 0.016530 -0.004144 -0.002131 0.000000 0.004434 0.000000
# 2 -0.004144 0.013995 -0.013001 -0.000001 0.001619 0.000000
# 3 -0.002131 -0.013001 0.042828 0.000002 -0.020322 0.000000
# 4 0.000000 -0.000001 0.000002 0.075871 -0.000002 0.015528
# 5 0.004434 0.001619 -0.020322 -0.000002 0.052833 0.000000
# 6 0.000000 0.000000 0.000000 0.015528 0.000000 0.029966
#
#
# Mechanical properties :
#
#
# Convention : Reuss Voigt Hill
#
# Bulk Modulus (GPa) = 28.73425 45.60684 37.17055
# Shear Modulus (GPa) = 17.71950 25.05166 21.38558
#
# Velocity S-wave (km/s) = 2.97066 3.53220 3.26353
# Velocity P-wave (km/s) = 5.10655 6.27285 5.71951
#
# Compressibility (1/GPa) = 0.03480167
#
# Stress axis : x y z
#
# Youngs Moduli (GPa) = 60.49753 71.45251 23.34931
#
# Poissons Ratio (x) = 0.29607 0.04975
# Poissons Ratio (y) = 0.25067 0.30357
# Poissons Ratio (z) = 0.12890 0.92898
#
# Static dielectric constant tensor:
#      x y z
#    x 1.708420 0.000000 -0.015830 
#    y 0.000000 1.758390 0.000000 
#    z -0.015830 0.000000 1.775910 
# 
# From -- ./inp_files/190232.got.cif
#   From: 2010.05.17/outbox.cif.g08.bks.cpg/sg15_96_cif.got.tgz:190232.got - 2010.06.03 18:47:42.
