data_PCOD9287220
_publ_section_title
;
Structure prediction by ZEFSAII (Michael W. Deem and Ramdas Pophale) SiO2 
 PCOD9287220
Probable space group: C 2/C
;
_chemical_formula_sum "Si O2"
_cell_formula_units_Z 64
_cell_length_a 9.935063
_cell_length_b 22.288466
_cell_length_c 19.962127
_cell_angle_alpha 90.000000
_cell_angle_beta 130.057363
_cell_angle_gamma 90.000000
_cell_volume 3383.345665
_symmetry_space_group_name_H-M "C 2/C"
_symmetry_group_IT_number 15
_symmetry_cell_setting 'monoclinic'
loop_
_space_group_symop_operation_xyz
x,y,z
-x,y,1/2-z
-x,-y,-z
x,-y,1/2+z
1/2+x,1/2+y,z
1/2-x,1/2+y,1/2-z
1/2-x,1/2-y,-z
1/2+x,1/2-y,1/2+z
loop_
_atom_site_type_symbol
_atom_site_label
_atom_site_fract_x
_atom_site_fract_y
_atom_site_fract_z
Si Si1 0.727500 0.369426 0.524455
Si Si2 0.659882 0.997412 0.129655
Si Si3 0.301194 0.056106 0.711793
Si Si4 0.724333 0.006770 0.510888
Si Si5 0.970862 0.293369 0.817758
Si Si6 0.971367 0.151322 0.820473
Si Si7 0.821114 0.883044 0.730810
Si Si8 0.417034 0.444003 0.902940
O O1 0.825428 0.432407 0.542809
O O2 0.855345 0.316620 0.588224
O O3 0.633266 0.355322 0.424346
O O4 0.605739 0.393963 0.546470
O O5 0.692975 0.971660 0.212487
O O6 0.776048 0.977215 0.103768
O O7 0.713161 0.067205 0.154067
O O8 0.463002 0.974547 0.048553
O O9 0.500000 0.067887 0.750000
O O10 0.179648 0.113913 0.688109
O O11 0.210185 0.003378 0.637747
O O12 0.886864 0.970728 0.534064
O O13 0.000000 0.312712 0.750000
O O14 0.937528 0.222622 0.808067
O O15 0.805839 0.327853 0.795626
O O16 0.000000 0.133940 0.750000
O O17 0.874744 0.912115 0.819120
O O18 0.000000 0.867589 0.750000
#
# Coordination Sequence:
#
# PCOD9287220 Si02
#       8
#     8   8   8   8   8   8   8   8
#     4  12  22  39  67  94 125 160 214 269 313 375
#     4  10  22  34  58  89 130 165 204 250 320 385
#     4  11  24  38  59  93 131 166 204 260 325 382
#     4  11  20  35  57  95 127 164 201 254 321 388
#     4  11  24  44  67  92 121 167 225 266 307 370
#     4  11  26  45  66  88 124 176 219 262 312 379
#     4  11  21  39  62  90 128 167 210 258 318 376
#     4  11  23  35  65  97 129 163 204 267 324 383
#
# _framework density 18.916187000000001
#
# number of rings (size 3 to 8) (size 9 to 14) (size 15 to 20)
#    0.000    1.000    5.000    2.250    3.500    0.500 
#    0.000    0.000    0.000    0.750    0.000    0.000 
#    0.000    0.000    0.000    0.000    0.000    0.000 
#
# Total GULP energy -178252.697667 kJ/mol
# GULP energy per Si atom -5570.396802 kJ/mol
# Density = 1.887313 g / cm^3
# Si number density = 18.916187 Si / 1000 Ang^3
#
#
#
# Elastic Constant Matrix: (Units=GPa)
#
#
# Indices 1 2 3 4 5 6 
#
# 1 103.1058 39.5198 41.1315 0.0000 4.5349 0.0000
# 2 39.5198 77.8104 20.1823 0.0000 5.8573 0.0000
# 3 41.1315 20.1823 101.5506 0.0000 -6.9403 0.0000
# 4 0.0000 0.0000 0.0000 23.1883 0.0000 -3.5748
# 5 4.5349 5.8573 -6.9403 0.0000 36.7277 0.0000
# 6 0.0000 0.0000 0.0000 -3.5748 0.0000 15.3664
#
#
#
# Elastic Compliance Matrix: (Units=1/GPa)
#
#
# Indices 1 2 3 4 5 6 
#
# 1 0.013770 -0.005687 -0.004560 0.000000 -0.001655 0.000000
# 2 -0.005687 0.016169 -0.001052 0.000000 -0.002075 0.000000
# 3 -0.004560 -0.001052 0.012110 0.000000 0.003019 0.000000
# 4 0.000000 0.000000 0.000000 0.044729 0.000000 0.010406
# 5 -0.001655 -0.002075 0.003019 0.000000 0.028333 0.000000
# 6 0.000000 0.000000 0.000000 0.010406 0.000000 0.067498
#
#
# Mechanical properties :
#
#
# Convention : Reuss Voigt Hill
#
# Bulk Modulus (GPa) = 51.41050 53.79266 52.60158
# Shear Modulus (GPa) = 23.61925 27.16535 25.39230
#
# Velocity S-wave (km/s) = 3.53742 3.79369 3.66780
# Velocity P-wave (km/s) = 6.62733 6.90569 6.76794
#
# Compressibility (1/GPa) = 0.01945128
#
# Stress axis : x y z
#
# Youngs Moduli (GPa) = 72.61915 61.84661 82.57707
#
# Poissons Ratio (x) = 0.35169 0.37659
# Poissons Ratio (y) = 0.41295 0.08688
# Poissons Ratio (z) = 0.33118 0.06507
#
# Static dielectric constant tensor:
#      x y z
#    x 1.694920 0.000000 -0.023910 
#    y 0.000000 1.651820 0.000000 
#    z -0.023910 0.000000 1.723330 
# 
# From -- ./inp_files/234448.got.cif
#   From: 2010.05.17/outbox.cif.g08.bks.cpg/sg15_118_cif.got.tgz:234448.got - 2010.06.03 18:47:42.
