data_PCOD9287361
_publ_section_title
;
Structure prediction by ZEFSAII (Michael W. Deem and Ramdas Pophale) SiO2 
 PCOD9287361
Probable space group: C 2/C
;
_chemical_formula_sum "Si O2"
_cell_formula_units_Z 56
_cell_length_a 14.290525
_cell_length_b 17.775198
_cell_length_c 16.631721
_cell_angle_alpha 90.000000
_cell_angle_beta 146.463767
_cell_angle_gamma 90.000000
_cell_volume 2334.016771
_symmetry_space_group_name_H-M "C 2/C"
_symmetry_group_IT_number 15
_symmetry_cell_setting 'monoclinic'
loop_
_space_group_symop_operation_xyz
x,y,z
-x,y,1/2-z
-x,-y,-z
x,-y,1/2+z
1/2+x,1/2+y,z
1/2-x,1/2+y,1/2-z
1/2-x,1/2-y,-z
1/2+x,1/2-y,1/2+z
loop_
_atom_site_type_symbol
_atom_site_label
_atom_site_fract_x
_atom_site_fract_y
_atom_site_fract_z
Si Si1 0.526658 0.398820 0.660081
Si Si2 0.095134 0.640164 0.738104
Si Si3 0.301277 0.658133 0.375893
Si Si4 0.750190 0.467850 0.350355
Si Si5 0.933447 0.525834 0.321772
Si Si6 0.248340 0.326711 0.548037
Si Si7 0.644429 0.688576 0.696894
O O1 0.581996 0.381083 0.609752
O O2 0.583732 0.480501 0.730977
O O3 0.333035 0.384153 0.544569
O O4 0.634239 0.338507 0.790423
O O5 0.113080 0.550968 0.756042
O O6 0.259072 0.680077 0.820324
O O7 0.000000 0.667356 0.750000
O O8 0.942744 0.653938 0.564424
O O9 0.155819 0.595846 0.285340
O O10 0.442303 0.681043 0.542203
O O11 0.208262 0.733297 0.279020
O O12 0.849384 0.511712 0.349519
O O13 0.709383 0.383620 0.293392
O O14 0.868515 0.467232 0.513819
O O15 0.250000 0.250000 0.500000
#
# Coordination Sequence:
#
# PCOD9287361 Si02
#       7
#     8   8   8   8   8   8   8
#     4  10  22  36  58  78 122 161 203 234 289 354
#     4  11  23  35  57  87 123 163 195 236 295 362
#     4  11  23  37  57  87 114 155 199 258 302 348
#     4   9  18  38  59  81 110 157 204 252 291 349
#     4   9  19  37  59  80 115 153 203 245 296 350
#     4  11  23  35  51  86 123 164 194 229 284 359
#     4  11  24  37  60  87 119 155 203 252 307 354
#
# _framework density 23.992972000000002
#
# number of rings (size 3 to 8) (size 9 to 14) (size 15 to 20)
#    0.000    1.714    1.429    2.571   10.000    6.286 
#    0.000    0.000    0.000    0.000    3.714    3.000 
#    0.000    0.000    0.000    0.000    0.000    0.000 
#
# Total GULP energy -156439.857896 kJ/mol
# GULP energy per Si atom -5587.137782 kJ/mol
# Density = 2.393836 g / cm^3
# Si number density = 23.992972 Si / 1000 Ang^3
#
#
#
# Elastic Constant Matrix: (Units=GPa)
#
#
# Indices 1 2 3 4 5 6 
#
# 1 14.9817 -1.0898 -8.8687 0.0017 5.2779 0.0007
# 2 -1.0898 151.3927 46.1322 -0.0079 19.4982 -0.0005
# 3 -8.8687 46.1322 124.3272 -0.0138 19.1103 0.0007
# 4 0.0017 -0.0079 -0.0138 23.0850 0.0015 16.0927
# 5 5.2779 19.4982 19.1103 0.0015 27.5798 0.0023
# 6 0.0007 -0.0005 0.0007 16.0927 0.0023 21.3650
#
#
#
# Elastic Compliance Matrix: (Units=1/GPa)
#
#
# Indices 1 2 3 4 5 6 
#
# 1 0.079687 0.000711 0.008776 0.000003 -0.021834 -0.000003
# 2 0.000711 0.007817 -0.002215 0.000002 -0.004128 -0.000001
# 3 0.008776 -0.002215 0.010642 0.000011 -0.007487 -0.000008
# 4 0.000003 0.000002 0.000011 0.091212 -0.000009 -0.068703
# 5 -0.021834 -0.004128 -0.007487 -0.000009 0.048543 0.000003
# 6 -0.000003 -0.000001 -0.000008 -0.068703 0.000003 0.098555
#
#
# Mechanical properties :
#
#
# Convention : Reuss Voigt Hill
#
# Bulk Modulus (GPa) = 8.87384 40.33880 24.60632
# Shear Modulus (GPa) = 13.90920 31.37447 22.64183
#
# Velocity S-wave (km/s) = 2.41035 3.62007 3.07528
# Velocity P-wave (km/s) = 3.38422 5.85854 4.78411
#
# Compressibility (1/GPa) = 0.11269083
#
# Stress axis : x y z
#
# Youngs Moduli (GPa) = 12.54913 127.92418 93.96482
#
# Poissons Ratio (x) = -0.09099 -0.82468
# Poissons Ratio (y) = -0.00893 0.20817
# Poissons Ratio (z) = -0.11014 0.28340
#
# Static dielectric constant tensor:
#      x y z
#    x 1.977390 0.000000 -0.044160 
#    y 0.000000 1.884030 0.000000 
#    z -0.044160 0.000000 2.024490 
# 
# From -- ./inp_files/249278.got.cif
#   From: 2010.05.17/outbox.cif.g08.bks.cpg/sg15_125_cif.got.tgz:249278.got - 2010.06.03 18:47:42.
