data_PCOD9287295
_publ_section_title
;
Structure prediction by ZEFSAII (Michael W. Deem and Ramdas Pophale) SiO2 
 PCOD9287295
Probable space group: C 2/C
;
_chemical_formula_sum "Si O2"
_cell_formula_units_Z 56
_cell_length_a 5.100036
_cell_length_b 23.971036
_cell_length_c 24.763126
_cell_angle_alpha 90.000000
_cell_angle_beta 122.650169
_cell_angle_gamma 90.000000
_cell_volume 2548.986018
_symmetry_space_group_name_H-M "C 2/C"
_symmetry_group_IT_number 15
_symmetry_cell_setting 'monoclinic'
loop_
_space_group_symop_operation_xyz
x,y,z
-x,y,1/2-z
-x,-y,-z
x,-y,1/2+z
1/2+x,1/2+y,z
1/2-x,1/2+y,1/2-z
1/2-x,1/2-y,-z
1/2+x,1/2-y,1/2+z
loop_
_atom_site_type_symbol
_atom_site_label
_atom_site_fract_x
_atom_site_fract_y
_atom_site_fract_z
Si Si1 0.779058 0.713382 0.918538
Si Si2 0.707239 0.498195 0.682920
Si Si3 0.179480 0.448504 0.414695
Si Si4 0.336804 0.062177 0.031674
Si Si5 0.020058 0.101884 0.403797
Si Si6 0.316123 0.784401 0.928777
Si Si7 0.103928 0.117765 0.823030
O O1 0.543636 0.763794 0.907062
O O2 0.571413 0.667679 0.862991
O O3 0.079444 0.734666 0.918393
O O4 0.948481 0.700096 0.995138
O O5 0.843219 0.515026 0.640979
O O6 0.512416 0.442847 0.648418
O O7 0.553715 0.556226 0.685864
O O8 0.000000 0.481904 0.750000
O O9 0.112268 0.496354 0.451377
O O10 0.533607 0.430777 0.461716
O O11 0.960360 0.397376 0.377183
O O12 0.638985 0.085489 0.036408
O O13 0.233022 0.092553 0.076768
O O14 0.084162 0.164200 0.391821
O O15 0.000000 0.133492 0.750000
#
# Coordination Sequence:
#
# PCOD9287295 Si02
#       7
#     8   8   8   8   8   8   8
#     4  10  24  41  68  94 130 169 223 279 344 388
#     4  11  24  40  61  94 134 179 216 266 327 402
#     4  10  22  36  57  91 135 166 213 258 325 392
#     4  10  22  35  61  98 129 167 205 268 325 393
#     4  11  22  41  67  94 132 167 219 266 336 396
#     4  10  22  44  66  97 126 168 220 289 339 390
#     4  12  24  41  65  94 137 183 224 269 332 415
#
# _framework density 21.969522000000001
#
# number of rings (size 3 to 8) (size 9 to 14) (size 15 to 20)
#    0.000    1.429    2.857    1.714    6.000    2.857 
#    0.000    0.714    0.000    3.429    0.000    0.000 
#    0.000    0.000    0.000    0.000    0.000    0.000 
#
# Total GULP energy -155999.028183 kJ/mol
# GULP energy per Si atom -5571.393864 kJ/mol
# Density = 2.191952 g / cm^3
# Si number density = 21.969522 Si / 1000 Ang^3
#
#
#
# Elastic Constant Matrix: (Units=GPa)
#
#
# Indices 1 2 3 4 5 6 
#
# 1 46.7283 15.5625 -1.2109 0.0000 -7.2902 0.0000
# 2 15.5625 118.9712 42.6081 0.0000 -1.8242 0.0000
# 3 -1.2109 42.6081 98.7071 0.0000 0.8175 0.0000
# 4 0.0000 0.0000 0.0000 31.4846 0.0000 5.8156
# 5 -7.2902 -1.8242 0.8175 0.0000 18.8623 0.0000
# 6 0.0000 0.0000 0.0000 5.8156 0.0000 27.3543
#
#
#
# Elastic Compliance Matrix: (Units=1/GPa)
#
#
# Indices 1 2 3 4 5 6 
#
# 1 0.024046 -0.003654 0.001799 0.000000 0.008862 0.000000
# 2 -0.003654 0.010523 -0.004585 0.000000 -0.000196 0.000000
# 3 0.001799 -0.004585 0.012135 0.000000 -0.000274 0.000000
# 4 0.000000 0.000000 0.000000 0.033060 0.000000 -0.007029
# 5 0.008862 -0.000196 -0.000274 0.000000 0.056434 0.000000
# 6 0.000000 0.000000 0.000000 -0.007029 0.000000 0.038052
#
#
# Mechanical properties :
#
#
# Convention : Reuss Voigt Hill
#
# Bulk Modulus (GPa) = 29.56582 42.03622 35.80102
# Shear Modulus (GPa) = 25.20107 29.37004 27.28556
#
# Velocity S-wave (km/s) = 3.39055 3.66027 3.52799
# Velocity P-wave (km/s) = 5.36793 6.08595 5.73818
#
# Compressibility (1/GPa) = 0.03382284
#
# Stress axis : x y z
#
# Youngs Moduli (GPa) = 41.58622 95.03404 82.40861
#
# Poissons Ratio (x) = 0.34724 -0.14824
# Poissons Ratio (y) = 0.15195 0.37788
# Poissons Ratio (z) = -0.07481 0.43577
#
# Static dielectric constant tensor:
#      x y z
#    x 1.870250 0.000000 0.034740 
#    y 0.000000 1.997830 0.000000 
#    z 0.034740 0.000000 1.841900 
# 
# From -- ./inp_files/286684.got.cif
#   From: 2010.05.17/outbox.cif.g08.bks.cpg/sg15_144_cif.got.tgz:286684.got - 2010.06.03 18:47:42.
