data_PCOD9287730
_publ_section_title
;
Structure prediction by ZEFSAII (Michael W. Deem and Ramdas Pophale) SiO2 
 PCOD9287730
Probable space group: C 2/C
;
_chemical_formula_sum "Si O2"
_cell_formula_units_Z 48
_cell_length_a 24.000237
_cell_length_b 18.540479
_cell_length_c 5.501589
_cell_angle_alpha 90.000000
_cell_angle_beta 52.951161
_cell_angle_gamma 90.000000
_cell_volume 1953.862654
_symmetry_space_group_name_H-M "C 2/C"
_symmetry_group_IT_number 15
_symmetry_cell_setting 'monoclinic'
loop_
_space_group_symop_operation_xyz
x,y,z
-x,y,1/2-z
-x,-y,-z
x,-y,1/2+z
1/2+x,1/2+y,z
1/2-x,1/2+y,1/2-z
1/2-x,1/2-y,-z
1/2+x,1/2-y,1/2+z
loop_
_atom_site_type_symbol
_atom_site_label
_atom_site_fract_x
_atom_site_fract_y
_atom_site_fract_z
Si Si1 0.039183 0.841867 0.398347
Si Si2 0.755936 0.974099 0.870766
Si Si3 0.711850 0.801040 0.289780
Si Si4 0.903123 0.531416 0.125086
Si Si5 0.564070 0.827352 0.744269
Si Si6 0.302770 0.348041 0.459237
O O1 0.044538 0.753968 0.371262
O O2 0.117648 0.872414 0.215175
O O3 0.000000 0.863086 0.250000
O O4 0.000000 0.860802 0.750000
O O5 0.758608 0.889982 0.784143
O O6 0.790487 0.008685 0.538729
O O7 0.678802 0.006894 0.129905
O O8 0.637061 0.829969 0.401715
O O9 0.689315 0.738238 0.539819
O O10 0.760707 0.854294 0.316551
O O11 0.750000 0.750000 0.000000
O O12 0.931000 0.499224 0.804515
O O13 0.917251 0.616817 0.091598
O O14 0.500000 0.852923 0.750000
#
# Coordination Sequence:
#
# PCOD9287730 Si02
#       6
#     8   8   8   8   8   8
#     4  10  24  43  68  99 131 172 217 274 350 411
#     4  10  22  38  62  92 125 171 218 272 325 389
#     4  10  22  37  65  97 127 172 224 283 337 397
#     4  10  22  38  59  85 125 172 222 260 309 381
#     4  10  23  41  61  95 133 176 215 274 328 397
#     4  10  23  39  64  97 130 173 222 287 336 397
#
# _framework density 24.56672
#
# number of rings (size 3 to 8) (size 9 to 14) (size 15 to 20)
#    0.000    2.000    0.000    2.000   14.000    3.333 
#    0.000    0.000    0.000    3.000    0.000    0.000 
#    0.000    0.000    0.000    0.000    0.000    0.000 
#
# Total GULP energy -133851.115211 kJ/mol
# GULP energy per Si atom -5577.129800 kJ/mol
# Density = 2.451081 g / cm^3
# Si number density = 24.566720 Si / 1000 Ang^3
#
#
#
# Elastic Constant Matrix: (Units=GPa)
#
#
# Indices 1 2 3 4 5 6 
#
# 1 153.9383 24.3990 89.7834 0.0000 -18.6038 0.0000
# 2 24.3990 84.0442 2.5302 0.0000 4.3068 0.0000
# 3 89.7834 2.5302 132.1069 0.0000 11.7125 0.0000
# 4 0.0000 0.0000 0.0000 30.9934 0.0000 5.1896
# 5 -18.6038 4.3068 11.7125 0.0000 53.8288 0.0000
# 6 0.0000 0.0000 0.0000 5.1896 0.0000 16.8840
#
#
#
# Elastic Compliance Matrix: (Units=1/GPa)
#
#
# Indices 1 2 3 4 5 6 
#
# 1 0.013842 -0.004091 -0.009975 0.000000 0.007282 0.000000
# 2 -0.004091 0.013160 0.002801 0.000000 -0.003076 0.000000
# 3 -0.009975 0.002801 0.014908 0.000000 -0.006915 0.000000
# 4 0.000000 0.000000 0.000000 0.034016 0.000000 -0.010455
# 5 0.007282 -0.003076 -0.006915 0.000000 0.022845 0.000000
# 6 0.000000 0.000000 0.000000 -0.010455 0.000000 0.062441
#
#
# Mechanical properties :
#
#
# Convention : Reuss Voigt Hill
#
# Bulk Modulus (GPa) = 51.59868 67.05718 59.32793
# Shear Modulus (GPa) = 26.28783 37.23304 31.76044
#
# Velocity S-wave (km/s) = 3.27472 3.89728 3.59949
# Velocity P-wave (km/s) = 5.94538 6.89978 6.44028
#
# Compressibility (1/GPa) = 0.01938034
#
# Stress axis : x y z
#
# Youngs Moduli (GPa) = 72.24161 75.99006 67.07668
#
# Poissons Ratio (x) = 0.31091 0.66908
# Poissons Ratio (y) = 0.29557 -0.18791
# Poissons Ratio (z) = 0.72060 -0.21288
#
# Static dielectric constant tensor:
#      x y z
#    x 2.065090 0.000000 0.020970 
#    y 0.000000 2.045630 0.000000 
#    z 0.020970 0.000000 1.981790 
# 
# From -- ./inp_files/13251.got.cif
#   From: 2010.05.17/outbox.cif.g08.bks.cpg/sg15_7_cif.got.tgz:13251.got - 2010.06.03 18:47:42.
