data_PCOD9287122
_publ_section_title
;
Structure prediction by ZEFSAII (Michael W. Deem and Ramdas Pophale) SiO2 
 PCOD9287122
Probable space group: C 2/C
;
_chemical_formula_sum "Si O2"
_cell_formula_units_Z 44
_cell_length_a 14.818463
_cell_length_b 5.137627
_cell_length_c 22.862156
_cell_angle_alpha 90.000000
_cell_angle_beta 80.936835
_cell_angle_gamma 90.000000
_cell_volume 1718.805518
_symmetry_space_group_name_H-M "C 2/C"
_symmetry_group_IT_number 15
_symmetry_cell_setting 'monoclinic'
loop_
_space_group_symop_operation_xyz
x,y,z
-x,y,1/2-z
-x,-y,-z
x,-y,1/2+z
1/2+x,1/2+y,z
1/2-x,1/2+y,1/2-z
1/2-x,1/2-y,-z
1/2+x,1/2-y,1/2+z
loop_
_atom_site_type_symbol
_atom_site_label
_atom_site_fract_x
_atom_site_fract_y
_atom_site_fract_z
Si Si1 0.286666 0.463950 0.163369
Si Si2 0.561278 0.915676 0.840826
Si Si3 0.170750 0.034823 0.670058
Si Si4 0.100775 0.797512 0.936855
Si Si5 0.578652 0.353289 0.070142
Si Si6 0.000000 0.817201 0.750000
O O1 0.231056 0.722993 0.186201
O O2 0.318799 0.513085 0.093107
O O3 0.381664 0.345550 0.179704
O O4 0.219564 0.230057 0.181026
O O5 0.609673 0.059594 0.890888
O O6 0.549865 0.118972 0.790039
O O7 0.464210 0.854015 0.880433
O O8 0.160263 0.037389 0.600610
O O9 0.070279 0.996573 0.707199
O O10 0.103822 0.738062 0.004793
O O11 0.003029 0.938859 0.933727
#
# Coordination Sequence:
#
# PCOD9287122 Si02
#       6
#     8   8   8   8   8   4
#     4  11  26  49  76 112 162 184 257 310 408 440
#     4  11  23  52  76 116 146 207 253 320 375 464
#     4  12  26  50  73 117 143 208 252 324 371 472
#     4  10  21  47  74 116 153 204 238 322 377 471
#     4  10  23  41  81 112 155 197 260 300 383 462
#     4  12  28  52  86 102 156 206 284 314 382 462
#
# _framework density 25.599170999999998
#
# number of rings (size 3 to 8) (size 9 to 14) (size 15 to 20)
#    0.000    1.091    3.636    1.636    0.000    4.364 
#    3.273    0.000    0.000    0.000    0.000    0.000 
#    0.000    0.000    0.000    0.000    0.000    0.000 
#
# Total GULP energy -123085.694087 kJ/mol
# GULP energy per Si atom -5594.804277 kJ/mol
# Density = 2.554091 g / cm^3
# Si number density = 25.599171 Si / 1000 Ang^3
#
#
#
# Elastic Constant Matrix: (Units=GPa)
#
#
# Indices 1 2 3 4 5 6 
#
# 1 89.8175 43.6166 53.4034 0.0000 -16.5003 0.0000
# 2 43.6166 163.4961 55.0769 0.0000 -10.2326 0.0000
# 3 53.4034 55.0769 167.2888 0.0000 22.2952 0.0000
# 4 0.0000 0.0000 0.0000 24.6270 0.0000 -8.0317
# 5 -16.5003 -10.2326 22.2952 0.0000 33.2078 0.0000
# 6 0.0000 0.0000 0.0000 -8.0317 0.0000 48.4351
#
#
#
# Elastic Compliance Matrix: (Units=1/GPa)
#
#
# Indices 1 2 3 4 5 6 
#
# 1 0.018797 -0.001712 -0.007261 0.000000 0.013687 0.000000
# 2 -0.001712 0.007555 -0.002348 0.000000 0.003054 0.000000
# 3 -0.007261 -0.002348 0.010594 0.000000 -0.011444 0.000000
# 4 0.000000 0.000000 0.000000 0.042927 0.000000 0.007118
# 5 0.013687 0.003054 -0.011444 0.000000 0.045538 0.000000
# 6 0.000000 0.000000 0.000000 0.007118 0.000000 0.021827
#
#
# Mechanical properties :
#
#
# Convention : Reuss Voigt Hill
#
# Bulk Modulus (GPa) = 69.91018 80.53290 75.22154
# Shear Modulus (GPa) = 28.62915 39.15436 33.89175
#
# Velocity S-wave (km/s) = 3.34782 3.91515 3.64255
# Velocity P-wave (km/s) = 6.50482 7.20870 6.86579
#
# Compressibility (1/GPa) = 0.01430407
#
# Stress axis : x y z
#
# Youngs Moduli (GPa) = 53.20112 132.36112 94.39530
#
# Poissons Ratio (x) = 0.22658 0.68540
# Poissons Ratio (y) = 0.09107 0.22163
# Poissons Ratio (z) = 0.38629 0.31077
#
# Static dielectric constant tensor:
#      x y z
#    x 2.186100 0.000000 0.025790 
#    y 0.000000 2.065500 0.000000 
#    z 0.025790 0.000000 1.972600 
# 
# From -- ./inp_files/271857.got.cif
#   From: 2010.05.17/outbox.cif.g08.bks.cpg/sg15_136_cif.got.tgz:271857.got - 2010.06.03 18:47:42.
