data_PCOD9287595
_publ_section_title
;
Structure prediction by ZEFSAII (Michael W. Deem and Ramdas Pophale) SiO2 
 PCOD9287595
Probable space group: C 2/C
;
_chemical_formula_sum "Si O2"
_cell_formula_units_Z 52
_cell_length_a 16.073044
_cell_length_b 19.789795
_cell_length_c 8.407664
_cell_angle_alpha 90.000000
_cell_angle_beta 126.484342
_cell_angle_gamma 90.000000
_cell_volume 2150.212077
_symmetry_space_group_name_H-M "C 2/C"
_symmetry_group_IT_number 15
_symmetry_cell_setting 'monoclinic'
loop_
_space_group_symop_operation_xyz
x,y,z
-x,y,1/2-z
-x,-y,-z
x,-y,1/2+z
1/2+x,1/2+y,z
1/2-x,1/2+y,1/2-z
1/2-x,1/2-y,-z
1/2+x,1/2-y,1/2+z
loop_
_atom_site_type_symbol
_atom_site_label
_atom_site_fract_x
_atom_site_fract_y
_atom_site_fract_z
Si Si1 0.245142 0.030400 0.171395
Si Si2 0.681141 0.405950 0.887811
Si Si3 0.119596 0.186638 0.592072
Si Si4 0.611453 0.180905 0.892973
Si Si5 0.391137 0.057809 0.067516
Si Si6 0.643786 0.800346 0.083870
Si Si7 0.500000 0.302142 0.250000
O O1 0.164055 0.071241 0.187191
O O2 0.317344 0.072799 0.134768
O O3 0.190815 0.973507 0.003556
O O4 0.325495 0.990571 0.378081
O O5 0.616409 0.355904 0.925370
O O6 0.793927 0.370253 0.996420
O O7 0.105890 0.265231 0.528497
O O8 0.235574 0.182549 0.792985
O O9 0.041349 0.162496 0.638523
O O10 0.500000 0.146846 0.750000
O O11 0.630202 0.222419 0.750865
O O12 0.500000 0.028289 0.250000
O O13 0.413309 0.128338 0.005546
O O14 0.594886 0.745710 0.913312
#
# Coordination Sequence:
#
# PCOD9287595 Si02
#       7
#     8   8   8   8   8   8   4
#     4  10  22  37  58  88 125 175 212 255 312 377
#     4  10  22  40  62  91 125 167 211 263 310 385
#     4  11  24  44  64  93 130 168 213 268 325 381
#     4  11  22  40  64  91 136 169 210 256 321 395
#     4  11  21  35  55  89 129 171 208 254 310 381
#     4  11  22  40  59  92 130 164 208 259 319 380
#     4  12  24  40  66  92 126 162 212 266 324 388
#
# _framework density 24.183662000000002
#
# number of rings (size 3 to 8) (size 9 to 14) (size 15 to 20)
#    0.000    1.231    5.385    2.769    4.308    2.462 
#    2.769    0.000    0.000    0.923    0.000    0.000 
#    0.000    0.000    0.000    0.000    0.000    0.000 
#
# Total GULP energy -145369.023783 kJ/mol
# GULP energy per Si atom -5591.116299 kJ/mol
# Density = 2.412862 g / cm^3
# Si number density = 24.183662 Si / 1000 Ang^3
#
#
#
# Elastic Constant Matrix: (Units=GPa)
#
#
# Indices 1 2 3 4 5 6 
#
# 1 144.6407 31.5262 27.9157 0.0000 -32.6987 0.0000
# 2 31.5262 45.6844 5.7933 0.0000 -8.1435 0.0000
# 3 27.9157 5.7933 54.9578 0.0000 -11.8751 0.0000
# 4 0.0000 0.0000 0.0000 30.4537 0.0000 -4.6362
# 5 -32.6987 -8.1435 -11.8751 0.0000 47.6516 0.0000
# 6 0.0000 0.0000 0.0000 -4.6362 0.0000 -1.0249
#
#
#
# Elastic Compliance Matrix: (Units=1/GPa)
#
#
# Indices 1 2 3 4 5 6 
#
# 1 0.009897 -0.005510 -0.003363 0.000000 0.005011 0.000000
# 2 -0.005510 0.025784 0.000228 0.000000 0.000682 0.000000
# 3 -0.003363 0.000228 0.020493 0.000000 0.002838 0.000000
# 4 0.000000 0.000000 0.000000 0.019445 0.000000 -0.087965
# 5 0.005011 0.000682 0.002838 0.000000 0.025248 0.000000
# 6 0.000000 0.000000 0.000000 -0.087965 0.000000 -0.577813
#
#
# Mechanical properties :
#
#
# Convention : Reuss Voigt Hill
#
# Bulk Modulus (GPa) = 25.71729 41.75036 33.73382
# Shear Modulus (GPa) = -11.19334 27.41928 8.11297
#
# Velocity S-wave (km/s) = -2.15372 3.37084 1.83358
# Velocity P-wave (km/s) = 2.11484 5.69661 4.29674
#
# Compressibility (1/GPa) = 0.03888435
#
# Stress axis : x y z
#
# Youngs Moduli (GPa) = 101.04464 38.78345 48.79621
#
# Poissons Ratio (x) = 0.21369 0.16412
# Poissons Ratio (y) = 0.55673 -0.01113
# Poissons Ratio (z) = 0.33985 -0.00885
#
# Static dielectric constant tensor:
#      x y z
#    x 1.968970 0.000000 -0.009990 
#    y 0.000000 1.919870 0.000000 
#    z -0.009990 0.000000 1.961050 
# 
# From -- ./inp_files/42345.got.cif
#   From: 2010.05.17/outbox.cif.g08.bks.cpg/sg15_22_cif.got.tgz:42345.got - 2010.06.03 18:47:42.
