data_PCOD9287369
_publ_section_title
;
Structure prediction by ZEFSAII (Michael W. Deem and Ramdas Pophale) SiO2 
 PCOD9287369
Probable space group: C 2/C
;
_chemical_formula_sum "Si O2"
_cell_formula_units_Z 48
_cell_length_a 11.454156
_cell_length_b 17.925783
_cell_length_c 13.114112
_cell_angle_alpha 90.000000
_cell_angle_beta 125.445449
_cell_angle_gamma 90.000000
_cell_volume 2193.616945
_symmetry_space_group_name_H-M "C 2/C"
_symmetry_group_IT_number 15
_symmetry_cell_setting 'monoclinic'
loop_
_space_group_symop_operation_xyz
x,y,z
-x,y,1/2-z
-x,-y,-z
x,-y,1/2+z
1/2+x,1/2+y,z
1/2-x,1/2+y,1/2-z
1/2-x,1/2-y,-z
1/2+x,1/2-y,1/2+z
loop_
_atom_site_type_symbol
_atom_site_label
_atom_site_fract_x
_atom_site_fract_y
_atom_site_fract_z
Si Si1 0.500000 0.516366 0.750000
Si Si2 0.000000 0.721673 0.250000
Si Si3 0.799510 0.396629 0.623306
Si Si4 0.000000 0.467303 0.250000
Si Si5 0.800944 0.844902 0.125626
Si Si6 0.712662 0.151999 0.800723
Si Si7 0.000000 0.772218 0.750000
Si Si8 0.007816 0.893872 0.930336
O O1 0.631198 0.574198 0.816309
O O2 0.512942 0.464857 0.856511
O O3 0.114111 0.662261 0.262489
O O4 0.086541 0.783684 0.359214
O O5 0.877131 0.475622 0.652393
O O6 0.810905 0.358794 0.518791
O O7 0.635803 0.401903 0.575123
O O8 0.090181 0.411577 0.224175
O O9 0.749564 0.817084 0.208282
O O10 0.637664 0.218201 0.824963
O O11 0.851490 0.118654 0.928677
O O12 0.006383 0.824038 0.653649
#
# Coordination Sequence:
#
# PCOD9287369 Si02
#       8
#     4   4   8   4   8   8   4   8
#     4  10  22  36  58  90 116 156 208 246 290 350
#     4  10  22  38  56  88 124 154 198 248 296 350
#     4  11  23  40  62  90 124 160 200 249 301 356
#     4  10  24  42  60  88 124 160 202 252 300 348
#     4  11  22  37  61  90 121 159 200 245 301 357
#     4  11  23  41  63  90 124 159 200 250 300 357
#     4  10  24  42  64  92 120 158 202 248 302 356
#     4  11  22  41  65  87 121 163 203 246 297 361
#
# _framework density 21.881668999999999
#
# number of rings (size 3 to 8) (size 9 to 14) (size 15 to 20)
#    0.000    1.333    0.000    6.000    0.000    4.000 
#    0.000   13.333    0.000    0.000    0.000    0.000 
#    0.000    0.000    0.000    0.000    0.000    0.000 
#
# Total GULP energy -133841.483664 kJ/mol
# GULP energy per Si atom -5576.728486 kJ/mol
# Density = 2.183187 g / cm^3
# Si number density = 21.881669 Si / 1000 Ang^3
#
#
#
# Elastic Constant Matrix: (Units=GPa)
#
#
# Indices 1 2 3 4 5 6 
#
# 1 115.4943 41.3072 42.3669 0.0000 17.5828 0.0000
# 2 41.3072 131.9057 21.1863 0.0000 7.0938 0.0000
# 3 42.3669 21.1863 77.6486 0.0000 -2.5927 0.0000
# 4 0.0000 0.0000 0.0000 18.5320 0.0000 1.2039
# 5 17.5828 7.0938 -2.5927 0.0000 19.1568 0.0000
# 6 0.0000 0.0000 0.0000 1.2039 0.0000 31.1296
#
#
#
# Elastic Compliance Matrix: (Units=1/GPa)
#
#
# Indices 1 2 3 4 5 6 
#
# 1 0.014383 -0.002571 -0.007590 0.000000 -0.013277 0.000000
# 2 -0.002571 0.008594 -0.000974 0.000000 -0.000954 0.000000
# 3 -0.007590 -0.000974 0.017610 0.000000 0.009710 0.000000
# 4 0.000000 0.000000 0.000000 0.054097 0.000000 -0.002092
# 5 -0.013277 -0.000954 0.009710 0.000000 0.066054 0.000000
# 6 0.000000 0.000000 0.000000 -0.002092 0.000000 0.032205
#
#
# Mechanical properties :
#
#
# Convention : Reuss Voigt Hill
#
# Bulk Modulus (GPa) = 54.59230 59.41884 57.00557
# Shear Modulus (GPa) = 22.59195 28.44290 25.51742
#
# Velocity S-wave (km/s) = 3.21668 3.60926 3.41861
# Velocity P-wave (km/s) = 6.22889 6.67702 6.45684
#
# Compressibility (1/GPa) = 0.01831760
#
# Stress axis : x y z
#
# Youngs Moduli (GPa) = 69.52450 116.35884 56.78729
#
# Poissons Ratio (x) = 0.29919 0.43100
# Poissons Ratio (y) = 0.17876 0.05530
# Poissons Ratio (z) = 0.52767 0.11331
#
# Static dielectric constant tensor:
#      x y z
#    x 1.837430 0.000000 0.053380 
#    y 0.000000 1.797300 0.000000 
#    z 0.053380 0.000000 1.829330 
# 
# From -- ./inp_files/87928.got.cif
#   From: 2010.05.17/outbox.cif.g08.bks.cpg/sg15_44_cif.got.tgz:87928.got - 2010.06.03 18:47:42.
