data_PCOD9287779
_publ_section_title
;
Structure prediction by ZEFSAII (Michael W. Deem and Ramdas Pophale) SiO2 
 PCOD9287779
Probable space group: C 2/C
;
_chemical_formula_sum "Si O2"
_cell_formula_units_Z 56
_cell_length_a 13.062068
_cell_length_b 30.638230
_cell_length_c 11.216173
_cell_angle_alpha 90.000000
_cell_angle_beta 35.695470
_cell_angle_gamma 90.000000
_cell_volume 2619.051604
_symmetry_space_group_name_H-M "C 2/C"
_symmetry_group_IT_number 15
_symmetry_cell_setting 'monoclinic'
loop_
_space_group_symop_operation_xyz
x,y,z
-x,y,1/2-z
-x,-y,-z
x,-y,1/2+z
1/2+x,1/2+y,z
1/2-x,1/2+y,1/2-z
1/2-x,1/2-y,-z
1/2+x,1/2-y,1/2+z
loop_
_atom_site_type_symbol
_atom_site_label
_atom_site_fract_x
_atom_site_fract_y
_atom_site_fract_z
Si Si1 0.209364 0.799670 0.567376
Si Si2 0.115820 0.421714 0.470299
Si Si3 0.256039 0.400582 0.590094
Si Si4 0.721911 0.842214 0.232653
Si Si5 0.614306 0.226836 0.037843
Si Si6 0.611110 0.317077 0.912845
Si Si7 0.049211 0.025814 0.834414
O O1 0.250000 0.750000 0.500000
O O2 0.309867 0.826934 0.372227
O O3 0.236569 0.808843 0.680723
O O4 0.000000 0.805741 0.750000
O O5 0.199005 0.398071 0.507157
O O6 0.148189 0.389718 0.329753
O O7 0.243014 0.463608 0.349086
O O8 0.908372 0.424270 0.689348
O O9 0.291344 0.351556 0.597202
O O10 0.428765 0.430190 0.445695
O O11 0.658802 0.807712 0.393176
O O12 0.932163 0.841183 0.046764
O O13 0.553756 0.270629 0.023482
O O14 0.500000 0.204916 0.250000
O O15 0.750000 0.250000 0.000000
O O16 0.000000 0.005652 0.750000
O O17 0.000000 0.000000 0.000000
#
# Coordination Sequence:
#
# PCOD9287779 Si02
#       7
#     8   8   8   8   8   8   8
#     4  10  22  38  55  76 114 167 213 259 308 367
#     4  10  22  39  65  95 125 161 204 253 310 373
#     4  10  22  39  65  95 126 163 205 252 311 374
#     4  11  22  38  56  82 118 162 213 258 312 369
#     4  12  24  32  51  83 113 154 211 267 307 355
#     4  11  22  39  57  80 121 166 210 260 316 366
#     4  10  22  45  72 100 130 164 198 254 319 385
#
# _framework density 21.381785000000001
#
# number of rings (size 3 to 8) (size 9 to 14) (size 15 to 20)
#    0.000    1.429    4.286    0.857    4.000    1.714 
#    2.571    0.000    0.000    0.000    0.000    0.000 
#    0.000    0.000    0.000    0.000    0.000    0.000 
#
# Total GULP energy -156140.092213 kJ/mol
# GULP energy per Si atom -5576.431865 kJ/mol
# Density = 2.133312 g / cm^3
# Si number density = 21.381785 Si / 1000 Ang^3
#
#
#
# Elastic Constant Matrix: (Units=GPa)
#
#
# Indices 1 2 3 4 5 6 
#
# 1 41.5357 13.9736 28.7966 0.0000 13.3762 0.0000
# 2 13.9736 32.8073 16.1300 0.0000 13.8028 0.0000
# 3 28.7966 16.1300 118.2098 0.0000 22.2084 0.0000
# 4 0.0000 0.0000 0.0000 36.0624 0.0000 10.7505
# 5 13.3762 13.8028 22.2084 0.0000 50.3077 0.0000
# 6 0.0000 0.0000 0.0000 10.7505 0.0000 21.7222
#
#
#
# Elastic Compliance Matrix: (Units=1/GPa)
#
#
# Indices 1 2 3 4 5 6 
#
# 1 0.032509 -0.009471 -0.005988 0.000000 -0.003402 0.000000
# 2 -0.009471 0.038358 -0.001551 0.000000 -0.007321 0.000000
# 3 -0.005988 -0.001551 0.010633 0.000000 -0.002676 0.000000
# 4 0.000000 0.000000 0.000000 0.032529 0.000000 -0.016099
# 5 -0.003402 -0.007321 -0.002676 0.000000 0.023972 0.000000
# 6 0.000000 0.000000 0.000000 -0.016099 0.000000 0.054003
#
#
# Mechanical properties :
#
#
# Convention : Reuss Voigt Hill
#
# Bulk Modulus (GPa) = 21.06218 34.48369 27.77294
# Shear Modulus (GPa) = 20.67387 30.52863 25.60125
#
# Velocity S-wave (km/s) = 3.11286 3.78271 3.46401
# Velocity P-wave (km/s) = 4.77407 5.93642 5.38669
#
# Compressibility (1/GPa) = 0.04747847
#
# Stress axis : x y z
#
# Youngs Moduli (GPa) = 30.76077 26.07020 94.04981
#
# Poissons Ratio (x) = 0.24692 0.56316
# Poissons Ratio (y) = 0.29134 0.14590
# Poissons Ratio (z) = 0.18419 0.04044
#
# Static dielectric constant tensor:
#      x y z
#    x 1.770200 0.000000 -0.080090 
#    y 0.000000 1.704370 0.000000 
#    z -0.080090 0.000000 1.990620 
# 
# From -- ./inp_files/101757.got.cif
#   From: 2010.05.17/outbox.cif.g08.bks.cpg/sg15_51_cif.got.tgz:101757.got - 2010.06.03 18:47:42.
