data_PCOD9287597
_publ_section_title
;
Structure prediction by ZEFSAII (Michael W. Deem and Ramdas Pophale) SiO2 
 PCOD9287597
Probable space group: C 2/C
;
_chemical_formula_sum "Si O2"
_cell_formula_units_Z 40
_cell_length_a 22.800353
_cell_length_b 13.728549
_cell_length_c 10.312351
_cell_angle_alpha 90.000000
_cell_angle_beta 30.754354
_cell_angle_gamma 90.000000
_cell_volume 1650.628288
_symmetry_space_group_name_H-M "C 2/C"
_symmetry_group_IT_number 15
_symmetry_cell_setting 'monoclinic'
loop_
_space_group_symop_operation_xyz
x,y,z
-x,y,1/2-z
-x,-y,-z
x,-y,1/2+z
1/2+x,1/2+y,z
1/2-x,1/2+y,1/2-z
1/2-x,1/2-y,-z
1/2+x,1/2-y,1/2+z
loop_
_atom_site_type_symbol
_atom_site_label
_atom_site_fract_x
_atom_site_fract_y
_atom_site_fract_z
Si Si1 0.836234 0.392719 0.626028
Si Si2 0.688409 0.033856 0.055340
Si Si3 0.684726 0.323399 0.366350
Si Si4 0.887184 0.791656 0.546096
Si Si5 0.908954 0.924403 0.728644
O O1 0.867210 0.471619 0.456349
O O2 0.607833 0.601589 0.090377
O O3 0.875540 0.280545 0.538824
O O4 0.872703 0.430678 0.697900
O O5 0.758652 0.126612 0.865585
O O6 0.785542 0.962837 0.923127
O O7 0.798575 0.295976 0.232492
O O8 0.804027 0.871206 0.627995
O O9 0.000000 0.769194 0.250000
O O10 0.927507 0.828371 0.608429
O O11 0.000000 0.000000 0.500000
#
# Coordination Sequence:
#
# PCOD9287597 Si02
#       5
#     8   8   8   8   8
#     4   9  21  33  61  86 126 165 215 263 317 383
#     4  11  19  37  59  91 122 171 219 261 320 381
#     4  10  22  37  58  89 131 173 212 267 323 388
#     4   9  20  36  57  88 126 168 208 259 325 378
#     4  11  22  35  61  95 131 163 213 275 322 381
#
# _framework density 24.233196
#
# number of rings (size 3 to 8) (size 9 to 14) (size 15 to 20)
#    1.200    0.800    2.000    2.400    2.800    0.000 
#    0.000    0.000    0.000    1.200    5.200    0.000 
#    0.000    0.000    0.000    0.000    0.000    0.000 
#
# Total GULP energy -111477.444993 kJ/mol
# GULP energy per Si atom -5573.872250 kJ/mol
# Density = 2.417804 g / cm^3
# Si number density = 24.233196 Si / 1000 Ang^3
#
#
#
# Elastic Constant Matrix: (Units=GPa)
#
#
# Indices 1 2 3 4 5 6 
#
# 1 56.3199 28.0970 27.9006 0.0000 9.3139 0.0000
# 2 28.0970 101.9379 33.8885 0.0000 17.5574 0.0000
# 3 27.9006 33.8885 86.0552 0.0000 3.7499 0.0000
# 4 0.0000 0.0000 0.0000 16.4437 0.0000 18.6996
# 5 9.3139 17.5574 3.7499 0.0000 35.4238 0.0000
# 6 0.0000 0.0000 0.0000 18.6996 0.0000 35.3203
#
#
#
# Elastic Compliance Matrix: (Units=1/GPa)
#
#
# Indices 1 2 3 4 5 6 
#
# 1 0.023149 -0.003822 -0.005844 0.000000 -0.003573 0.000000
# 2 -0.003822 0.012937 -0.003637 0.000000 -0.005022 0.000000
# 3 -0.005844 -0.003637 0.014871 0.000000 0.001765 0.000000
# 4 0.000000 0.000000 0.000000 0.152820 0.000000 -0.080907
# 5 -0.003573 -0.005022 0.001765 0.000000 0.031472 0.000000
# 6 0.000000 0.000000 0.000000 -0.080907 0.000000 0.071147
#
#
# Mechanical properties :
#
#
# Convention : Reuss Voigt Hill
#
# Bulk Modulus (GPa) = 41.06722 47.12058 44.09390
# Shear Modulus (GPa) = 14.65769 27.73269 21.19519
#
# Velocity S-wave (km/s) = 2.46206 3.38658 2.96063
# Velocity P-wave (km/s) = 5.00657 5.89735 5.47013
#
# Compressibility (1/GPa) = 0.02435032
#
# Stress axis : x y z
#
# Youngs Moduli (GPa) = 43.19896 77.29534 67.24711
#
# Poissons Ratio (x) = 0.29543 0.39302
# Poissons Ratio (y) = 0.16511 0.24456
# Poissons Ratio (z) = 0.25247 0.28110
#
# Static dielectric constant tensor:
#      x y z
#    x 2.048000 0.000000 0.007560 
#    y 0.000000 2.018220 0.000000 
#    z 0.007560 0.000000 1.957120 
# 
# From -- ./inp_files/126094.got.cif
#   From: 2010.05.17/outbox.cif.g08.bks.cpg/sg15_64_cif.got.tgz:126094.got - 2010.06.03 18:47:42.
