data_PCOD9287070
_publ_section_title
;
Structure prediction by ZEFSAII (Michael W. Deem and Ramdas Pophale) SiO2 
 PCOD9287070
Probable space group: C 2/C
;
_chemical_formula_sum "Si O2"
_cell_formula_units_Z 52
_cell_length_a 13.425692
_cell_length_b 24.564450
_cell_length_c 9.936572
_cell_angle_alpha 90.000000
_cell_angle_beta 131.165849
_cell_angle_gamma 90.000000
_cell_volume 2466.971767
_symmetry_space_group_name_H-M "C 2/C"
_symmetry_group_IT_number 15
_symmetry_cell_setting 'monoclinic'
loop_
_space_group_symop_operation_xyz
x,y,z
-x,y,1/2-z
-x,-y,-z
x,-y,1/2+z
1/2+x,1/2+y,z
1/2-x,1/2+y,1/2-z
1/2-x,1/2-y,-z
1/2+x,1/2-y,1/2+z
loop_
_atom_site_type_symbol
_atom_site_label
_atom_site_fract_x
_atom_site_fract_y
_atom_site_fract_z
Si Si1 0.141635 0.615945 0.903704
Si Si2 0.303370 0.148090 0.855519
Si Si3 0.000000 0.658714 0.250000
Si Si4 0.885369 0.054131 0.260879
Si Si5 0.885798 0.735136 0.546848
Si Si6 0.111329 0.236032 0.744547
Si Si7 0.936945 0.932039 0.338798
O O1 0.175501 0.640440 0.785264
O O2 0.117707 0.669705 0.972532
O O3 0.000000 0.587252 0.750000
O O4 0.255534 0.580159 0.076015
O O5 0.255339 0.208040 0.862429
O O6 0.175698 0.112097 0.766527
O O7 0.422822 0.130035 0.059564
O O8 0.104832 0.700010 0.273738
O O9 0.000000 0.055154 0.250000
O O10 0.953121 0.081868 0.451103
O O11 0.870602 0.991779 0.300090
O O12 0.750000 0.750000 0.500000
O O13 0.924242 0.765180 0.444158
O O14 0.000000 0.749369 0.750000
O O15 0.000000 0.212737 0.750000
O O16 0.000000 0.934973 0.250000
#
# Coordination Sequence:
#
# PCOD9287070 Si02
#       7
#     8   8   4   8   8   8   8
#     4  11  24  41  68  98 141 174 225 271 339 404
#     4  12  22  44  64  97 129 183 223 274 338 403
#     4  10  24  38  62  88 144 168 216 282 338 388
#     4  10  21  46  69  99 133 172 219 283 332 391
#     4  11  23  39  62  96 134 176 222 271 328 398
#     4  10  24  41  65  91 132 174 224 279 323 394
#     4  10  23  40  73 100 129 165 228 281 328 399
#
# _framework density 21.078474
#
# number of rings (size 3 to 8) (size 9 to 14) (size 15 to 20)
#    0.462    0.923    3.077    2.769    0.000    4.308 
#    1.385    0.769    0.000    0.000    0.000    0.000 
#    0.000    0.000    0.000    0.000    0.000    0.000 
#
# Total GULP energy -144788.330000 kJ/mol
# GULP energy per Si atom -5568.781923 kJ/mol
# Density = 2.103050 g / cm^3
# Si number density = 21.078474 Si / 1000 Ang^3
#
#
#
# Elastic Constant Matrix: (Units=GPa)
#
#
# Indices 1 2 3 4 5 6 
#
# 1 91.8110 15.1357 61.9237 0.0000 -2.6102 0.0000
# 2 15.1357 20.7296 31.6906 0.0000 9.6401 0.0000
# 3 61.9237 31.6906 192.8204 0.0000 11.2777 0.0000
# 4 0.0000 0.0000 0.0000 22.8666 0.0000 -1.4246
# 5 -2.6102 9.6401 11.2777 0.0000 42.2226 0.0000
# 6 0.0000 0.0000 0.0000 -1.4246 0.0000 12.9356
#
#
#
# Elastic Compliance Matrix: (Units=1/GPa)
#
#
# Indices 1 2 3 4 5 6 
#
# 1 0.014637 -0.006376 -0.003851 0.000000 0.003389 0.000000
# 2 -0.006376 0.073889 -0.009231 0.000000 -0.014799 0.000000
# 3 -0.003851 -0.009231 0.007955 0.000000 -0.000255 0.000000
# 4 0.000000 0.000000 0.000000 0.044034 0.000000 0.004850
# 5 0.003389 -0.014799 -0.000255 0.000000 0.027340 0.000000
# 6 0.000000 0.000000 0.000000 0.004850 0.000000 0.077840
#
#
# Mechanical properties :
#
#
# Convention : Reuss Voigt Hill
#
# Bulk Modulus (GPa) = 17.37146 58.09566 37.73356
# Shear Modulus (GPa) = 16.45822 28.71236 22.58529
#
# Velocity S-wave (km/s) = 2.79732 3.69476 3.27691
# Velocity P-wave (km/s) = 4.32349 6.76927 5.67960
#
# Compressibility (1/GPa) = 0.05756570
#
# Stress axis : x y z
#
# Youngs Moduli (GPa) = 68.32141 13.53374 125.70888
#
# Poissons Ratio (x) = 0.08629 0.48408
# Poissons Ratio (y) = 0.43562 1.16039
# Poissons Ratio (z) = 0.26309 0.12493
#
# Static dielectric constant tensor:
#      x y z
#    x 1.740290 0.000000 -0.002160 
#    y 0.000000 1.830850 0.000000 
#    z -0.002160 0.000000 1.801810 
# 
# From -- ./inp_files/43635.got.cif
#   From: 2010.05.17/outbox.cif.g08.bks.cpg/sg15_22_cif.got.tgz:43635.got - 2010.06.03 18:47:42.
