data_PCOD9287989
_publ_section_title
;
Structure prediction by ZEFSAII (Michael W. Deem and Ramdas Pophale) SiO2 
 PCOD9287989
Probable space group: C 2/C
;
_chemical_formula_sum "Si O2"
_cell_formula_units_Z 48
_cell_length_a 8.801973
_cell_length_b 32.427956
_cell_length_c 8.158106
_cell_angle_alpha 90.000000
_cell_angle_beta 70.751468
_cell_angle_gamma 90.000000
_cell_volume 2198.395283
_symmetry_space_group_name_H-M "C 2/C"
_symmetry_group_IT_number 15
_symmetry_cell_setting 'monoclinic'
loop_
_space_group_symop_operation_xyz
x,y,z
-x,y,1/2-z
-x,-y,-z
x,-y,1/2+z
1/2+x,1/2+y,z
1/2-x,1/2+y,1/2-z
1/2-x,1/2-y,-z
1/2+x,1/2-y,1/2+z
loop_
_atom_site_type_symbol
_atom_site_label
_atom_site_fract_x
_atom_site_fract_y
_atom_site_fract_z
Si Si1 0.374313 0.016135 0.676940
Si Si2 0.089528 0.961366 0.885739
Si Si3 0.246322 0.676414 0.755763
Si Si4 0.601842 0.811397 0.964098
Si Si5 0.500000 0.259168 0.250000
Si Si6 0.500000 0.125223 0.250000
Si Si7 0.275057 0.592839 0.919882
O O1 0.500000 0.038592 0.750000
O O2 0.249297 0.049952 0.664644
O O3 0.500000 0.000000 0.500000
O O4 0.270593 0.978413 0.786078
O O5 0.000000 0.952652 0.750000
O O6 0.093475 0.920355 0.993463
O O7 0.000000 0.000000 0.000000
O O8 0.233331 0.686436 0.564435
O O9 0.350633 0.709515 0.820720
O O10 0.065914 0.678919 0.887287
O O11 0.304097 0.630978 0.789463
O O12 0.562090 0.769591 0.877414
O O13 0.618717 0.845803 0.816201
O O14 0.611220 0.101232 0.082059
#
# Coordination Sequence:
#
# PCOD9287989 Si02
#       7
#     8   8   8   8   4   4   8
#     4  12  23  40  65  94 118 167 224 263 306 369
#     4  12  24  44  62  88 129 175 209 258 326 376
#     4  10  22  38  61  94 119 159 198 254 312 355
#     4   9  20  40  62  88 122 157 199 246 308 371
#     4  11  20  38  64  88 124 156 200 238 302 390
#     4   9  20  38  62  90 116 162 204 268 306 350
#     4  11  23  40  61  90 129 155 215 263 306 365
#
# _framework density 21.834106999999999
#
# number of rings (size 3 to 8) (size 9 to 14) (size 15 to 20)
#    0.000    1.333    3.333    2.000    4.667    1.333 
#    3.000    0.000    0.000    0.000    0.000    0.000 
#    0.000    0.000    0.000    0.000    0.000    0.000 
#
# Total GULP energy -133804.606866 kJ/mol
# GULP energy per Si atom -5575.191953 kJ/mol
# Density = 2.178441 g / cm^3
# Si number density = 21.834107 Si / 1000 Ang^3
#
#
#
# Elastic Constant Matrix: (Units=GPa)
#
#
# Indices 1 2 3 4 5 6 
#
# 1 72.0661 23.9028 26.8975 0.0000 16.0366 0.0000
# 2 23.9028 127.4332 48.0250 0.0000 22.7083 0.0000
# 3 26.8975 48.0250 83.8925 0.0000 28.3238 0.0000
# 4 0.0000 0.0000 0.0000 -3.0071 0.0000 -11.1028
# 5 16.0366 22.7083 28.3238 0.0000 52.4083 0.0000
# 6 0.0000 0.0000 0.0000 -11.1028 0.0000 18.7097
#
#
#
# Elastic Compliance Matrix: (Units=1/GPa)
#
#
# Indices 1 2 3 4 5 6 
#
# 1 0.016194 -0.001219 -0.003669 0.000000 -0.002444 0.000000
# 2 -0.001219 0.010197 -0.004992 0.000000 -0.001348 0.000000
# 3 -0.003669 -0.004992 0.018158 0.000000 -0.006528 0.000000
# 4 0.000000 0.000000 0.000000 -0.104212 0.000000 -0.061842
# 5 -0.002444 -0.001348 -0.006528 0.000000 0.023941 0.000000
# 6 0.000000 0.000000 0.000000 -0.061842 0.000000 0.016750
#
#
# Mechanical properties :
#
#
# Convention : Reuss Voigt Hill
#
# Bulk Modulus (GPa) = 40.34012 53.44918 46.89465
# Shear Modulus (GPa) = 552.52512 25.92660 289.22586
#
# Velocity S-wave (km/s) = 15.92499 3.44966 11.52184
# Velocity P-wave (km/s) = 18.88535 6.35607 14.09000
#
# Compressibility (1/GPa) = 0.02478922
#
# Stress axis : x y z
#
# Youngs Moduli (GPa) = 61.75209 98.06563 55.07301
#
# Poissons Ratio (x) = 0.11957 0.20206
# Poissons Ratio (y) = 0.07529 0.27490
# Poissons Ratio (z) = 0.22656 0.48950
#
# Static dielectric constant tensor:
#      x y z
#    x 2.218610 0.000000 0.505400 
#    y 0.000000 1.769030 0.000000 
#    z 0.505400 0.000000 2.405230 
# 
# From -- ./inp_files/26192.got.cif
#   From: 2010.05.17/outbox.cif.g08.bks.cpg/sg15_14_cif.got.tgz:26192.got - 2010.06.03 18:47:42.
