data_PCOD9287268
_publ_section_title
;
Structure prediction by ZEFSAII (Michael W. Deem and Ramdas Pophale) SiO2 
 PCOD9287268
Probable space group: C 2/C
;
_chemical_formula_sum "Si O2"
_cell_formula_units_Z 44
_cell_length_a 13.678271
_cell_length_b 27.192820
_cell_length_c 5.930250
_cell_angle_alpha 90.000000
_cell_angle_beta 67.664623
_cell_angle_gamma 90.000000
_cell_volume 2040.274331
_symmetry_space_group_name_H-M "C 2/C"
_symmetry_group_IT_number 15
_symmetry_cell_setting 'monoclinic'
loop_
_space_group_symop_operation_xyz
x,y,z
-x,y,1/2-z
-x,-y,-z
x,-y,1/2+z
1/2+x,1/2+y,z
1/2-x,1/2+y,1/2-z
1/2-x,1/2-y,-z
1/2+x,1/2-y,1/2+z
loop_
_atom_site_type_symbol
_atom_site_label
_atom_site_fract_x
_atom_site_fract_y
_atom_site_fract_z
Si Si1 0.107711 0.740661 0.373592
Si Si2 0.784438 0.309652 0.096341
Si Si3 0.114824 0.363484 0.115898
Si Si4 0.000000 0.818139 0.750000
Si Si5 0.378551 0.483273 0.576452
Si Si6 0.681303 0.624947 0.322729
O O1 0.219726 0.769756 0.294650
O O2 0.099798 0.692205 0.533276
O O3 0.025422 0.781798 0.520634
O O4 0.120173 0.717845 0.113901
O O5 0.830757 0.354530 0.193526
O O6 0.703929 0.333298 0.987916
O O7 0.000000 0.386442 0.250000
O O8 0.202954 0.387087 0.879991
O O9 0.898349 0.851319 0.788082
O O10 0.500000 0.500000 0.500000
O O11 0.335613 0.506121 0.373865
O O12 0.369876 0.424912 0.546060
#
# Coordination Sequence:
#
# PCOD9287268 Si02
#       6
#     8   8   8   4   8   8
#     4  10  22  35  57  87 128 183 223 272 317 369
#     4  10  23  38  60  86 129 175 234 266 317 385
#     4  11  23  41  61  85 132 177 229 271 311 381
#     4  12  22  38  58  92 140 168 222 274 322 386
#     4  10  23  44  73 101 134 167 202 268 353 431
#     4  11  26  40  64 101 128 169 213 278 333 401
#
# _framework density 21.565728
#
# number of rings (size 3 to 8) (size 9 to 14) (size 15 to 20)
#    0.000    1.455    2.727    1.636    7.636    8.000 
#    0.000    0.000    0.000    1.091    0.000    0.000 
#    0.000    0.000    0.000    0.000    0.000    0.000 
#
# Total GULP energy -122707.769314 kJ/mol
# GULP energy per Si atom -5577.625878 kJ/mol
# Density = 2.151664 g / cm^3
# Si number density = 21.565728 Si / 1000 Ang^3
#
#
#
# Elastic Constant Matrix: (Units=GPa)
#
#
# Indices 1 2 3 4 5 6 
#
# 1 66.6455 10.0994 22.0238 0.0000 -4.8766 0.0000
# 2 10.0994 77.8281 12.5753 0.0000 -6.0136 0.0000
# 3 22.0238 12.5753 86.4512 0.0000 -4.6941 0.0000
# 4 0.0000 0.0000 0.0000 25.2309 0.0000 -4.6390
# 5 -4.8766 -6.0136 -4.6941 0.0000 46.4166 0.0000
# 6 0.0000 0.0000 0.0000 -4.6390 0.0000 20.3503
#
#
#
# Elastic Compliance Matrix: (Units=1/GPa)
#
#
# Indices 1 2 3 4 5 6 
#
# 1 0.016615 -0.001426 -0.003962 0.000000 0.001160 0.000000
# 2 -0.001426 0.013388 -0.001506 0.000000 0.001432 0.000000
# 3 -0.003962 -0.001506 0.012833 0.000000 0.000686 0.000000
# 4 0.000000 0.000000 0.000000 0.041368 0.000000 0.009430
# 5 0.001160 0.001432 0.000686 0.000000 0.021921 0.000000
# 6 0.000000 0.000000 0.000000 0.009430 0.000000 0.051289
#
#
# Mechanical properties :
#
#
# Convention : Reuss Voigt Hill
#
# Bulk Modulus (GPa) = 34.42764 35.59130 35.00947
# Shear Modulus (GPa) = 27.64175 30.81465 29.22820
#
# Velocity S-wave (km/s) = 3.58403 3.78414 3.68544
# Velocity P-wave (km/s) = 5.75550 5.96929 5.86337
#
# Compressibility (1/GPa) = 0.02904643
#
# Stress axis : x y z
#
# Youngs Moduli (GPa) = 60.18594 74.69397 77.92400
#
# Poissons Ratio (x) = 0.10653 0.30876
# Poissons Ratio (y) = 0.08584 0.11738
# Poissons Ratio (z) = 0.23848 0.11251
#
# Static dielectric constant tensor:
#      x y z
#    x 1.808940 0.000000 0.035780 
#    y 0.000000 1.716400 0.000000 
#    z 0.035780 0.000000 1.889950 
# 
# From -- ./inp_files/8194.got.cif
#   From: 2010.05.17/outbox.cif.g08.bks.cpg/sg15_5_cif.got.tgz:8194.got - 2010.06.03 18:47:42.
