data_PCOD9287467
_publ_section_title
;
Structure prediction by ZEFSAII (Michael W. Deem and Ramdas Pophale) SiO2 
 PCOD9287467
Probable space group: C 2/C
;
_chemical_formula_sum "Si O2"
_cell_formula_units_Z 56
_cell_length_a 7.664247
_cell_length_b 18.787920
_cell_length_c 16.482161
_cell_angle_alpha 90.000000
_cell_angle_beta 109.885657
_cell_angle_gamma 90.000000
_cell_volume 2231.837853
_symmetry_space_group_name_H-M "C 2/C"
_symmetry_group_IT_number 15
_symmetry_cell_setting 'monoclinic'
loop_
_space_group_symop_operation_xyz
x,y,z
-x,y,1/2-z
-x,-y,-z
x,-y,1/2+z
1/2+x,1/2+y,z
1/2-x,1/2+y,1/2-z
1/2-x,1/2-y,-z
1/2+x,1/2-y,1/2+z
loop_
_atom_site_type_symbol
_atom_site_label
_atom_site_fract_x
_atom_site_fract_y
_atom_site_fract_z
Si Si1 0.057516 0.201468 0.064445
Si Si2 0.834129 0.558335 0.817766
Si Si3 0.239919 0.342134 0.061143
Si Si4 0.189356 0.219586 0.328644
Si Si5 0.776529 0.377696 0.153252
Si Si6 0.588641 0.088566 0.101368
Si Si7 0.577451 0.433009 0.965493
O O1 0.174192 0.272317 0.099984
O O2 0.867977 0.217545 0.084491
O O3 0.111402 0.190404 0.978050
O O4 0.082016 0.118791 0.095886
O O5 0.711834 0.594564 0.869184
O O6 0.732566 0.564260 0.715519
O O7 0.935077 0.483045 0.850463
O O8 0.007266 0.612278 0.834771
O O9 0.077121 0.379842 0.980377
O O10 0.257837 0.298381 0.320465
O O11 0.333848 0.156493 0.337990
O O12 0.000000 0.206363 0.250000
O O13 0.675956 0.390246 0.053453
O O14 0.759254 0.059824 0.072747
O O15 0.500000 0.500000 0.000000
#
# Coordination Sequence:
#
# PCOD9287467 Si02
#       7
#     8   8   8   8   8   8   8
#     4  10  22  36  63  94 124 163 215 266 315 383
#     4  11  22  39  64  94 120 173 209 266 314 399
#     4  11  20  40  63  92 128 166 213 262 322 388
#     4  11  21  44  65  94 125 174 215 268 323 393
#     4  11  22  41  68  88 126 172 221 251 331 398
#     4  11  24  38  64  91 128 162 215 268 323 379
#     4  11  23  39  61  95 127 167 214 275 321 378
#
# _framework density 25.091429000000002
#
# number of rings (size 3 to 8) (size 9 to 14) (size 15 to 20)
#    0.000    1.143    4.286    2.143    2.000    4.571 
#    2.571    2.143    0.000    6.857    0.000    0.000 
#    0.000    0.000    0.000    0.000    0.000    0.000 
#
# Total GULP energy -156038.925914 kJ/mol
# GULP energy per Si atom -5572.818783 kJ/mol
# Density = 2.503432 g / cm^3
# Si number density = 25.091429 Si / 1000 Ang^3
#
#
#
# Elastic Constant Matrix: (Units=GPa)
#
#
# Indices 1 2 3 4 5 6 
#
# 1 39.7383 9.2955 7.4745 0.0000 1.8911 0.0000
# 2 9.2955 146.8553 24.7625 0.0000 -1.0609 0.0000
# 3 7.4745 24.7625 72.7492 0.0000 -2.6989 0.0000
# 4 0.0000 0.0000 0.0000 22.6015 0.0000 -6.6338
# 5 1.8911 -1.0609 -2.6989 0.0000 20.6483 0.0000
# 6 0.0000 0.0000 0.0000 -6.6338 0.0000 20.1780
#
#
#
# Elastic Compliance Matrix: (Units=1/GPa)
#
#
# Indices 1 2 3 4 5 6 
#
# 1 0.026034 -0.001273 -0.002344 0.000000 -0.002756 0.000000
# 2 -0.001273 0.007286 -0.002343 0.000000 0.000185 0.000000
# 3 -0.002344 -0.002343 0.014860 0.000000 0.002037 0.000000
# 4 0.000000 0.000000 0.000000 0.048970 0.000000 0.016099
# 5 -0.002756 0.000185 0.002037 0.000000 0.048958 0.000000
# 6 0.000000 0.000000 0.000000 0.016099 0.000000 0.054852
#
#
# Mechanical properties :
#
#
# Convention : Reuss Voigt Hill
#
# Bulk Modulus (GPa) = 27.57695 38.04532 32.81114
# Shear Modulus (GPa) = 22.22560 27.20627 24.71593
#
# Velocity S-wave (km/s) = 2.97944 3.29642 3.14193
# Velocity P-wave (km/s) = 4.78022 5.44831 5.12517
#
# Compressibility (1/GPa) = 0.03626216
#
# Stress axis : x y z
#
# Youngs Moduli (GPa) = 38.41073 137.24385 67.29664
#
# Poissons Ratio (x) = 0.17465 0.15774
# Poissons Ratio (y) = 0.04888 0.15764
# Poissons Ratio (z) = 0.09003 0.32150
#
# Static dielectric constant tensor:
#      x y z
#    x 2.064140 0.000000 -0.000900 
#    y 0.000000 2.045410 0.000000 
#    z -0.000900 0.000000 2.065590 
# 
# From -- ./inp_files/190894.got.cif
#   From: 2010.05.17/outbox.cif.g08.bks.cpg/sg15_96_cif.got.tgz:190894.got - 2010.06.03 18:47:42.
