data_PCOD9287921
_publ_section_title
;
Structure prediction by ZEFSAII (Michael W. Deem and Ramdas Pophale) SiO2 
 PCOD9287921
Probable space group: C 2/C
;
_chemical_formula_sum "Si O2"
_cell_formula_units_Z 64
_cell_length_a 30.352277
_cell_length_b 13.891057
_cell_length_c 9.714841
_cell_angle_alpha 90.000000
_cell_angle_beta 62.382803
_cell_angle_gamma 90.000000
_cell_volume 3629.339508
_symmetry_space_group_name_H-M "C 2/C"
_symmetry_group_IT_number 15
_symmetry_cell_setting 'monoclinic'
loop_
_space_group_symop_operation_xyz
x,y,z
-x,y,1/2-z
-x,-y,-z
x,-y,1/2+z
1/2+x,1/2+y,z
1/2-x,1/2+y,1/2-z
1/2-x,1/2-y,-z
1/2+x,1/2-y,1/2+z
loop_
_atom_site_type_symbol
_atom_site_label
_atom_site_fract_x
_atom_site_fract_y
_atom_site_fract_z
Si Si1 0.316199 0.095657 0.193888
Si Si2 0.189071 0.408941 0.124440
Si Si3 0.051597 0.893552 0.998347
Si Si4 0.061630 0.085393 0.806814
Si Si5 0.307116 0.587476 0.494820
Si Si6 0.344792 0.697451 0.707031
Si Si7 0.205550 0.135404 0.461054
Si Si8 0.645914 0.286161 0.803905
O O1 0.349282 0.188821 0.177968
O O2 0.260502 0.126229 0.320670
O O3 0.328628 0.001357 0.263848
O O4 0.315762 0.075239 0.031834
O O5 0.247784 0.395412 0.072723
O O6 0.160348 0.313327 0.211812
O O7 0.063550 0.923506 0.138697
O O8 0.992920 0.872410 0.078189
O O9 0.087792 0.806656 0.906025
O O10 0.062915 0.982211 0.880067
O O11 0.106238 0.150345 0.798362
O O12 0.331132 0.646550 0.584115
O O13 0.314989 0.474051 0.504974
O O14 0.330987 0.627466 0.320894
O O15 0.299643 0.674431 0.877405
O O16 0.172707 0.203145 0.411797
#
# Coordination Sequence:
#
# PCOD9287921 Si02
#       8
#     8   8   8   8   8   8   8   8
#     4  11  25  40  56  82 115 153 198 242 279 329
#     4  11  25  40  57  80 116 154 196 242 281 329
#     4  10  22  38  60  85 118 151 187 232 285 342
#     4  10  22  39  57  88 118 149 188 233 284 341
#     4  11  22  37  56  84 123 152 191 234 279 343
#     4  12  23  37  58  85 118 155 194 234 281 340
#     4  11  22  34  57  88 117 153 190 229 283 345
#     4  12  21  38  59  82 115 158 193 228 287 338
#
# _framework density 17.634063999999999
#
# number of rings (size 3 to 8) (size 9 to 14) (size 15 to 20)
#    0.000    1.000    3.750    3.750    8.750    0.000 
#    0.000    0.000    0.000    0.750    0.000    0.000 
#    0.000    0.000    0.000    0.000    0.000    0.000 
#
# Total GULP energy -178860.314587 kJ/mol
# GULP energy per Si atom -5589.384831 kJ/mol
# Density = 1.759393 g / cm^3
# Si number density = 17.634064 Si / 1000 Ang^3
#
#
#
# Elastic Constant Matrix: (Units=GPa)
#
#
# Indices 1 2 3 4 5 6 
#
# 1 57.5271 27.8079 28.4999 0.0000 -2.2037 0.0000
# 2 27.8079 85.0134 34.8084 0.0000 -6.2997 0.0000
# 3 28.4999 34.8084 54.5613 0.0000 1.2449 0.0000
# 4 0.0000 0.0000 0.0000 30.8118 0.0000 1.7325
# 5 -2.2037 -6.2997 1.2449 0.0000 20.0080 0.0000
# 6 0.0000 0.0000 0.0000 1.7325 0.0000 23.8501
#
#
#
# Elastic Compliance Matrix: (Units=1/GPa)
#
#
# Indices 1 2 3 4 5 6 
#
# 1 0.024389 -0.003484 -0.010568 0.000000 0.002247 0.000000
# 2 -0.003484 0.017085 -0.009207 0.000000 0.005568 0.000000
# 3 -0.010568 -0.009207 0.029857 0.000000 -0.005920 0.000000
# 4 0.000000 0.000000 0.000000 0.032588 0.000000 -0.002367
# 5 0.002247 0.005568 -0.005920 0.000000 0.052349 0.000000
# 6 0.000000 0.000000 0.000000 -0.002367 0.000000 0.042100
#
#
# Mechanical properties :
#
#
# Convention : Reuss Voigt Hill
#
# Bulk Modulus (GPa) = 40.30154 42.14825 41.22490
# Shear Modulus (GPa) = 19.75061 21.99969 20.87515
#
# Velocity S-wave (km/s) = 3.35031 3.53592 3.44437
# Velocity P-wave (km/s) = 6.15387 6.37368 6.26474
#
# Compressibility (1/GPa) = 0.02481295
#
# Stress axis : x y z
#
# Youngs Moduli (GPa) = 41.00223 58.53170 33.49322
#
# Poissons Ratio (x) = 0.20393 0.35396
# Poissons Ratio (y) = 0.14286 0.30836
# Poissons Ratio (z) = 0.43331 0.53888
#
# Static dielectric constant tensor:
#      x y z
#    x 1.596950 0.000000 -0.005940 
#    y 0.000000 1.588660 0.000000 
#    z -0.005940 0.000000 1.610070 
# 
# From -- ./inp_files/69940.got.cif
#   From: 2010.05.17/outbox.cif.g08.bks.cpg/sg15_35_cif.got.tgz:69940.got - 2010.06.03 18:47:42.
