data_PCOD9287424
_publ_section_title
;
Structure prediction by ZEFSAII (Michael W. Deem and Ramdas Pophale) SiO2 
 PCOD9287424
Probable space group: C 2/C
;
_chemical_formula_sum "Si O2"
_cell_formula_units_Z 44
_cell_length_a 11.045001
_cell_length_b 8.901972
_cell_length_c 18.624461
_cell_angle_alpha 90.000000
_cell_angle_beta 101.771068
_cell_angle_gamma 90.000000
_cell_volume 1792.690483
_symmetry_space_group_name_H-M "C 2/C"
_symmetry_group_IT_number 15
_symmetry_cell_setting 'monoclinic'
loop_
_space_group_symop_operation_xyz
x,y,z
-x,y,1/2-z
-x,-y,-z
x,-y,1/2+z
1/2+x,1/2+y,z
1/2-x,1/2+y,1/2-z
1/2-x,1/2-y,-z
1/2+x,1/2-y,1/2+z
loop_
_atom_site_type_symbol
_atom_site_label
_atom_site_fract_x
_atom_site_fract_y
_atom_site_fract_z
Si Si1 0.723028 0.322391 0.161386
Si Si2 0.500000 0.512947 0.250000
Si Si3 0.877966 0.534026 0.281314
Si Si4 0.152565 0.151226 0.445018
Si Si5 0.885493 0.892461 0.883229
Si Si6 0.722685 0.380061 0.373045
O O1 0.786375 0.445287 0.218293
O O2 0.649142 0.204265 0.200020
O O3 0.822240 0.225088 0.130847
O O4 0.638291 0.431242 0.102747
O O5 0.571792 0.607220 0.196564
O O6 0.602183 0.418109 0.308648
O O7 0.848290 0.448723 0.352234
O O8 0.000000 0.526426 0.250000
O O9 0.250000 0.250000 0.500000
O O10 0.193729 0.977530 0.440395
O O11 0.006874 0.162103 0.440363
O O12 0.764161 0.792302 0.883866
#
# Coordination Sequence:
#
# PCOD9287424 Si02
#       6
#     8   4   8   8   8   8
#     4  11  24  39  61  96 128 170 207 264 326 386
#     4  10  22  36  60  96 142 162 200 258 334 388
#     4  11  23  36  60  94 132 162 205 254 330 394
#     4  10  25  47  65  89 129 178 226 267 313 373
#     4  11  23  39  63  94 131 168 211 264 323 383
#     4  10  22  40  65  96 130 172 207 266 324 388
#
# _framework density 24.544115999999999
#
# number of rings (size 3 to 8) (size 9 to 14) (size 15 to 20)
#    0.000    1.455    1.818    2.182    7.636    2.909 
#    0.000    0.909    0.000    0.000    0.000    0.000 
#    0.000    0.000    0.000    0.000    0.000    0.000 
#
# Total GULP energy -122781.102899 kJ/mol
# GULP energy per Si atom -5580.959223 kJ/mol
# Density = 2.448825 g / cm^3
# Si number density = 24.544116 Si / 1000 Ang^3
#
#
#
# Elastic Constant Matrix: (Units=GPa)
#
#
# Indices 1 2 3 4 5 6 
#
# 1 101.2992 8.4488 2.6025 0.0000 11.0965 0.0000
# 2 8.4488 90.9060 7.0675 0.0000 2.9574 0.0000
# 3 2.6025 7.0675 41.7969 0.0000 18.3606 0.0000
# 4 0.0000 0.0000 0.0000 31.0530 0.0000 -8.2009
# 5 11.0965 2.9574 18.3606 0.0000 23.5454 0.0000
# 6 0.0000 0.0000 0.0000 -8.2009 0.0000 38.4810
#
#
#
# Elastic Compliance Matrix: (Units=1/GPa)
#
#
# Indices 1 2 3 4 5 6 
#
# 1 0.010638 -0.000961 0.002509 0.000000 -0.006849 0.000000
# 2 -0.000961 0.011234 -0.002158 0.000000 0.000725 0.000000
# 3 0.002509 -0.002158 0.037317 0.000000 -0.030011 0.000000
# 4 0.000000 0.000000 0.000000 0.034124 0.000000 0.007272
# 5 -0.006849 0.000725 -0.030011 0.000000 0.069011 0.000000
# 6 0.000000 0.000000 0.000000 0.007272 0.000000 0.027537
#
#
# Mechanical properties :
#
#
# Convention : Reuss Voigt Hill
#
# Bulk Modulus (GPa) = 17.25077 30.02663 23.63870
# Shear Modulus (GPa) = 23.76392 33.00808 28.38600
#
# Velocity S-wave (km/s) = 3.11499 3.67119 3.40447
# Velocity P-wave (km/s) = 4.47004 5.49823 5.01058
#
# Compressibility (1/GPa) = 0.05796842
#
# Stress axis : x y z
#
# Youngs Moduli (GPa) = 94.00535 89.01644 26.79725
#
# Poissons Ratio (x) = 0.08554 -0.06723
# Poissons Ratio (y) = 0.09033 0.05783
# Poissons Ratio (z) = -0.23584 0.19210
#
# Static dielectric constant tensor:
#      x y z
#    x 1.996500 0.000000 -0.010610 
#    y 0.000000 2.027740 0.000000 
#    z -0.010610 0.000000 2.179190 
# 
# From -- ./inp_files/267857.got.cif
#   From: 2010.05.17/outbox.cif.g08.bks.cpg/sg15_134_cif.got.tgz:267857.got - 2010.06.03 18:47:42.
