data_PCOD9287699
_publ_section_title
;
Structure prediction by ZEFSAII (Michael W. Deem and Ramdas Pophale) SiO2 
 PCOD9287699
Probable space group: C 2/C
;
_chemical_formula_sum "Si O2"
_cell_formula_units_Z 60
_cell_length_a 25.779916
_cell_length_b 5.095138
_cell_length_c 24.664602
_cell_angle_alpha 90.000000
_cell_angle_beta 122.152452
_cell_angle_gamma 90.000000
_cell_volume 2742.886435
_symmetry_space_group_name_H-M "C 2/C"
_symmetry_group_IT_number 15
_symmetry_cell_setting 'monoclinic'
loop_
_space_group_symop_operation_xyz
x,y,z
-x,y,1/2-z
-x,-y,-z
x,-y,1/2+z
1/2+x,1/2+y,z
1/2-x,1/2+y,1/2-z
1/2-x,1/2-y,-z
1/2+x,1/2-y,1/2+z
loop_
_atom_site_type_symbol
_atom_site_label
_atom_site_fract_x
_atom_site_fract_y
_atom_site_fract_z
Si Si1 0.776203 0.285381 0.831583
Si Si2 0.882177 0.051639 0.680690
Si Si3 0.000000 0.271817 0.250000
Si Si4 0.863581 0.995862 0.465687
Si Si5 0.942253 0.484126 0.506424
Si Si6 0.931805 0.568865 0.119888
Si Si7 0.318670 0.667594 0.051404
Si Si8 0.196866 0.706378 0.274432
O O1 0.814385 0.154493 0.901051
O O2 0.813355 0.255468 0.795488
O O3 0.750756 0.582871 0.820032
O O4 0.718123 0.091947 0.793298
O O5 0.912911 0.187564 0.645704
O O6 0.857860 0.231900 0.715043
O O7 0.824479 0.923522 0.617143
O O8 0.937731 0.876198 0.732048
O O9 0.979528 0.425648 0.185318
O O10 0.917256 0.779501 0.497997
O O11 0.836711 0.025892 0.511644
O O12 0.890012 0.273312 0.459439
O O13 0.958376 0.382001 0.575620
O O14 0.000000 0.500000 0.500000
O O15 0.869892 0.396683 0.077751
O O16 0.250000 0.750000 0.000000
#
# Coordination Sequence:
#
# PCOD9287699 Si02
#       8
#     8   8   4   8   8   8   8   8
#     4  10  22  43  60  95 129 166 212 266 321 400
#     4  11  22  41  63  93 125 170 219 266 333 384
#     4  10  24  42  64  88 130 170 220 278 318 384
#     4  11  22  41  64  94 127 167 219 263 325 402
#     4  11  24  44  65  90 129 170 215 276 326 383
#     4  10  23  43  61  95 128 165 222 271 320 398
#     4  10  22  37  63  96 131 168 205 267 336 391
#     4  10  23  39  66  89 131 167 210 268 325 386
#
# _framework density 21.874768
#
# number of rings (size 3 to 8) (size 9 to 14) (size 15 to 20)
#    0.000    1.600    1.333    2.400    5.600    2.667 
#    4.800    0.000    0.000    0.000    0.000    0.000 
#    0.000    0.000    0.000    0.000    0.000    0.000 
#
# Total GULP energy -167419.337811 kJ/mol
# GULP energy per Si atom -5580.644594 kJ/mol
# Density = 2.182498 g / cm^3
# Si number density = 21.874768 Si / 1000 Ang^3
#
#
#
# Elastic Constant Matrix: (Units=GPa)
#
#
# Indices 1 2 3 4 5 6 
#
# 1 82.8057 -3.3677 31.7367 -0.0007 -14.8018 -0.0009
# 2 -3.3677 50.3086 -5.2317 0.0022 2.3875 0.0051
# 3 31.7367 -5.2317 89.0976 0.0002 10.4611 -0.0024
# 4 -0.0007 0.0022 0.0002 21.5204 -0.0010 -4.7397
# 5 -14.8018 2.3875 10.4611 -0.0010 37.4429 -0.0002
# 6 -0.0009 0.0051 -0.0024 -4.7397 -0.0002 14.2971
#
#
#
# Elastic Compliance Matrix: (Units=1/GPa)
#
#
# Indices 1 2 3 4 5 6 
#
# 1 0.016123 -0.000010 -0.006712 0.000001 0.008250 0.000000
# 2 -0.000010 0.020099 0.001380 -0.000004 -0.001671 -0.000008
# 3 -0.006712 0.001380 0.014493 -0.000001 -0.006791 0.000001
# 4 0.000001 -0.000004 -0.000001 0.050128 0.000002 0.016618
# 5 0.008250 -0.001671 -0.006791 0.000002 0.031972 0.000001
# 6 0.000000 -0.000008 0.000001 0.016618 0.000001 0.075453
#
#
# Mechanical properties :
#
#
# Convention : Reuss Voigt Hill
#
# Bulk Modulus (GPa) = 24.98082 29.83182 27.40632
# Shear Modulus (GPa) = 21.52407 27.92372 24.72389
#
# Velocity S-wave (km/s) = 3.14023 3.57673 3.36556
# Velocity P-wave (km/s) = 4.95911 5.54296 5.25915
#
# Compressibility (1/GPa) = 0.04003071
#
# Stress axis : x y z
#
# Youngs Moduli (GPa) = 62.02168 49.75253 68.99901
#
# Poissons Ratio (x) = 0.00051 0.46315
# Poissons Ratio (y) = 0.00064 -0.09523
# Poissons Ratio (z) = 0.41632 -0.06866
#
# Static dielectric constant tensor:
#      x y z
#    x 1.798040 -0.000010 0.019700 
#    y -0.000010 1.874060 0.000000 
#    z 0.019700 0.000000 1.856150 
# 
# From -- ./inp_files/256773.got.cif
#   From: 2010.05.17/outbox.cif.g08.bks.cpg/sg15_129_cif.got.tgz:256773.got - 2010.06.03 18:47:42.
