data_PCOD9287987
_publ_section_title
;
Structure prediction by ZEFSAII (Michael W. Deem and Ramdas Pophale) SiO2 
 PCOD9287987
Probable space group: C 2/C
;
_chemical_formula_sum "Si O2"
_cell_formula_units_Z 56
_cell_length_a 18.668780
_cell_length_b 15.868802
_cell_length_c 13.968663
_cell_angle_alpha 90.000000
_cell_angle_beta 135.236585
_cell_angle_gamma 90.000000
_cell_volume 2914.064853
_symmetry_space_group_name_H-M "C 2/C"
_symmetry_group_IT_number 15
_symmetry_cell_setting 'monoclinic'
loop_
_space_group_symop_operation_xyz
x,y,z
-x,y,1/2-z
-x,-y,-z
x,-y,1/2+z
1/2+x,1/2+y,z
1/2-x,1/2+y,1/2-z
1/2-x,1/2-y,-z
1/2+x,1/2-y,1/2+z
loop_
_atom_site_type_symbol
_atom_site_label
_atom_site_fract_x
_atom_site_fract_y
_atom_site_fract_z
Si Si1 0.500000 0.478490 0.750000
Si Si2 0.092800 0.870471 0.011090
Si Si3 0.025864 0.305371 0.093970
Si Si4 0.500000 0.244157 0.250000
Si Si5 0.706748 0.830831 0.405597
Si Si6 0.356225 0.140236 0.981824
Si Si7 0.914801 0.547026 0.586152
Si Si8 0.383112 0.615790 0.751026
O O1 0.461289 0.422530 0.624613
O O2 0.411763 0.539863 0.706831
O O3 0.209940 0.860438 0.091281
O O4 0.090301 0.909218 0.114828
O O5 0.041486 0.778349 0.970099
O O6 0.103112 0.303045 0.256236
O O7 0.093647 0.318248 0.064301
O O8 0.957617 0.387872 0.048388
O O9 0.589701 0.187298 0.378460
O O10 0.547475 0.305440 0.214993
O O11 0.750000 0.750000 0.500000
O O12 0.678946 0.905905 0.451447
O O13 0.234324 0.143345 0.866794
O O14 0.385892 0.042060 0.015078
O O15 0.000000 0.534593 0.750000
#
# Coordination Sequence:
#
# PCOD9287987 Si02
#       8
#     4   8   8   4   8   8   8   8
#     4  11  26  44  69  96 128 176 213 274 330 387
#     4  12  22  43  68  95 132 169 216 269 329 385
#     4  11  23  38  64  96 130 167 209 268 320 390
#     4  11  24  44  69  90 126 172 219 270 328 393
#     4  11  21  38  64  94 128 169 214 261 322 388
#     4  12  22  43  65  93 130 171 215 263 327 387
#     4  10  22  38  61  93 130 168 209 261 318 381
#     4  11  25  45  66  96 129 166 222 273 326 391
#
# _framework density 19.217143
#
# number of rings (size 3 to 8) (size 9 to 14) (size 15 to 20)
#    0.000    0.857    5.000    3.000    1.000    0.000 
#    0.000    0.000    0.000    0.000    0.000    0.000 
#    0.000    0.000    0.000    0.000    0.000    0.000 
#
# Total GULP energy -156475.148979 kJ/mol
# GULP energy per Si atom -5588.398178 kJ/mol
# Density = 1.917340 g / cm^3
# Si number density = 19.217143 Si / 1000 Ang^3
#
#
#
# Elastic Constant Matrix: (Units=GPa)
#
#
# Indices 1 2 3 4 5 6 
#
# 1 117.4201 27.9519 26.5601 0.0000 5.8698 0.0000
# 2 27.9519 85.0684 26.4900 0.0000 3.9913 0.0000
# 3 26.5601 26.4900 80.8749 0.0000 -3.1307 0.0000
# 4 0.0000 0.0000 0.0000 32.1452 0.0000 -0.5453
# 5 5.8698 3.9913 -3.1307 0.0000 34.2954 0.0000
# 6 0.0000 0.0000 0.0000 -0.5453 0.0000 26.5079
#
#
#
# Elastic Compliance Matrix: (Units=1/GPa)
#
#
# Indices 1 2 3 4 5 6 
#
# 1 0.009717 -0.002343 -0.002487 0.000000 -0.001618 0.000000
# 2 -0.002343 0.013783 -0.003805 0.000000 -0.001550 0.000000
# 3 -0.002487 -0.003805 0.014513 0.000000 0.002193 0.000000
# 4 0.000000 0.000000 0.000000 0.031120 0.000000 0.000640
# 5 -0.001618 -0.001550 0.002193 0.000000 0.029816 0.000000
# 6 0.000000 0.000000 0.000000 0.000640 0.000000 0.037738
#
#
# Mechanical properties :
#
#
# Convention : Reuss Voigt Hill
#
# Bulk Modulus (GPa) = 48.20680 49.48525 48.84602
# Shear Modulus (GPa) = 31.08110 32.08046 31.58078
#
# Velocity S-wave (km/s) = 4.02601 4.09022 4.05824
# Velocity P-wave (km/s) = 6.83750 6.93636 6.88711
#
# Compressibility (1/GPa) = 0.02074396
#
# Stress axis : x y z
#
# Youngs Moduli (GPa) = 102.90775 72.55498 68.90568
#
# Poissons Ratio (x) = 0.16998 0.17134
# Poissons Ratio (y) = 0.24109 0.26219
# Poissons Ratio (z) = 0.25589 0.27607
#
# Static dielectric constant tensor:
#      x y z
#    x 1.678060 0.000000 -0.015800 
#    y 0.000000 1.642560 0.000000 
#    z -0.015800 0.000000 1.661880 
# 
# From -- ./inp_files/162235.got.cif
#   From: 2010.05.17/outbox.cif.g08.bks.cpg/sg15_82_cif.got.tgz:162235.got - 2010.06.03 18:47:42.
