data_PCOD9287603
_publ_section_title
;
Structure prediction by ZEFSAII (Michael W. Deem and Ramdas Pophale) SiO2 
 PCOD9287603
Probable space group: C 2/C
;
_chemical_formula_sum "Si O2"
_cell_formula_units_Z 48
_cell_length_a 7.187185
_cell_length_b 20.956520
_cell_length_c 19.020202
_cell_angle_alpha 90.000000
_cell_angle_beta 77.569043
_cell_angle_gamma 90.000000
_cell_volume 2797.630270
_symmetry_space_group_name_H-M "C 2/C"
_symmetry_group_IT_number 15
_symmetry_cell_setting 'monoclinic'
loop_
_space_group_symop_operation_xyz
x,y,z
-x,y,1/2-z
-x,-y,-z
x,-y,1/2+z
1/2+x,1/2+y,z
1/2-x,1/2+y,1/2-z
1/2-x,1/2-y,-z
1/2+x,1/2-y,1/2+z
loop_
_atom_site_type_symbol
_atom_site_label
_atom_site_fract_x
_atom_site_fract_y
_atom_site_fract_z
Si Si1 0.665246 0.419771 0.186071
Si Si2 0.723032 0.846617 0.728469
Si Si3 0.126596 0.178362 0.569012
Si Si4 0.500000 0.865766 0.250000
Si Si5 0.500000 0.543417 0.250000
Si Si6 0.080228 0.785137 0.921717
Si Si7 0.740367 0.757949 0.151778
O O1 0.500000 0.390095 0.250000
O O2 0.652401 0.384799 0.113015
O O3 0.861786 0.406554 0.210924
O O4 0.607750 0.494091 0.189312
O O5 0.500000 0.860590 0.750000
O O6 0.845994 0.910184 0.728399
O O7 0.791796 0.814230 0.650884
O O8 0.761672 0.795961 0.787818
O O9 0.081482 0.170692 0.490415
O O10 0.318270 0.219634 0.562744
O O11 0.951420 0.219589 0.614723
O O12 0.627164 0.818864 0.191553
O O13 0.875487 0.769783 0.905089
#
# Coordination Sequence:
#
# PCOD9287603 Si02
#       7
#     8   8   8   4   4   8   8
#     4  10  22  37  59  81 111 152 191 241 275 327
#     4  12  22  37  62  84 115 152 198 234 279 330
#     4  11  22  37  55  90 121 148 181 233 306 348
#     4  12  19  32  62  88 111 138 196 232 290 336
#     4  10  23  40  60  80 107 154 216 238 256 328
#     4  11  22  35  57  89 121 148 180 235 299 356
#     4  12  19  34  60  86 116 150 183 235 283 356
#
# _framework density 17.157377
#
# number of rings (size 3 to 8) (size 9 to 14) (size 15 to 20)
#    0.500    0.333    8.333    0.500    1.167    0.000 
#    0.000    0.833    0.000    1.000    0.000    0.000 
#    0.000    0.000    0.000    0.000    0.000    0.000 
#
# Total GULP energy -133877.556188 kJ/mol
# GULP energy per Si atom -5578.231508 kJ/mol
# Density = 1.711833 g / cm^3
# Si number density = 17.157377 Si / 1000 Ang^3
#
#
#
# Elastic Constant Matrix: (Units=GPa)
#
#
# Indices 1 2 3 4 5 6 
#
# 1 97.1931 37.9653 19.7662 0.0000 17.2634 0.0000
# 2 37.9653 78.4077 26.7217 0.0000 18.8540 0.0000
# 3 19.7662 26.7217 89.2391 0.0000 24.5677 0.0000
# 4 0.0000 0.0000 0.0000 11.0069 0.0000 -2.0556
# 5 17.2634 18.8540 24.5677 0.0000 18.7939 0.0000
# 6 0.0000 0.0000 0.0000 -2.0556 0.0000 16.3750
#
#
#
# Elastic Compliance Matrix: (Units=1/GPa)
#
#
# Indices 1 2 3 4 5 6 
#
# 1 0.013522 -0.004722 0.000835 0.000000 -0.008775 0.000000
# 2 -0.004722 0.018479 -0.000903 0.000000 -0.013020 0.000000
# 3 0.000835 -0.000903 0.017580 0.000000 -0.022841 0.000000
# 4 0.000000 0.000000 0.000000 0.093033 0.000000 0.011679
# 5 -0.008775 -0.013020 -0.022841 0.000000 0.104190 0.000000
# 6 0.000000 0.000000 0.000000 0.011679 0.000000 0.062535
#
#
# Mechanical properties :
#
#
# Convention : Reuss Voigt Hill
#
# Bulk Modulus (GPa) = 24.99989 48.19403 36.59696
# Shear Modulus (GPa) = 15.04881 21.26092 18.15487
#
# Velocity S-wave (km/s) = 2.96481 3.52400 3.25643
# Velocity P-wave (km/s) = 5.13056 6.68644 5.95950
#
# Compressibility (1/GPa) = 0.04000018
#
# Stress axis : x y z
#
# Youngs Moduli (GPa) = 73.95291 54.11614 56.88416
#
# Poissons Ratio (x) = 0.25553 -0.04747
# Poissons Ratio (y) = 0.34919 0.05136
# Poissons Ratio (z) = -0.06172 0.04886
#
# Static dielectric constant tensor:
#      x y z
#    x 1.599150 0.000000 0.005340 
#    y 0.000000 1.558110 0.000000 
#    z 0.005340 0.000000 1.587060 
# 
# From -- ./inp_files/191305.got.cif
#   From: 2010.05.17/outbox.cif.g08.bks.cpg/sg15_96_cif.got.tgz:191305.got - 2010.06.03 18:47:42.
