data_PCOD9287261
_publ_section_title
;
Structure prediction by ZEFSAII (Michael W. Deem and Ramdas Pophale) SiO2 
 PCOD9287261
Probable space group: C 2/C
;
_chemical_formula_sum "Si O2"
_cell_formula_units_Z 40
_cell_length_a 15.644485
_cell_length_b 11.123553
_cell_length_c 26.318559
_cell_angle_alpha 90.000000
_cell_angle_beta 22.086673
_cell_angle_gamma 90.000000
_cell_volume 1722.125705
_symmetry_space_group_name_H-M "C 2/C"
_symmetry_group_IT_number 15
_symmetry_cell_setting 'monoclinic'
loop_
_space_group_symop_operation_xyz
x,y,z
-x,y,1/2-z
-x,-y,-z
x,-y,1/2+z
1/2+x,1/2+y,z
1/2-x,1/2+y,1/2-z
1/2-x,1/2-y,-z
1/2+x,1/2-y,1/2+z
loop_
_atom_site_type_symbol
_atom_site_label
_atom_site_fract_x
_atom_site_fract_y
_atom_site_fract_z
Si Si1 0.636132 0.378369 0.110139
Si Si2 0.918050 0.215638 0.151594
Si Si3 0.692490 0.157054 0.182123
Si Si4 0.991510 0.831156 0.427127
Si Si5 0.669583 0.643513 0.113741
O O1 0.420985 0.291740 0.244607
O O2 0.605908 0.405006 0.066829
O O3 0.684593 0.500396 0.112858
O O4 0.854579 0.294528 0.996115
O O5 0.058030 0.157952 0.119839
O O6 0.769572 0.127502 0.197056
O O7 0.751094 0.307250 0.272461
O O8 0.090997 0.288811 0.020345
O O9 0.500000 0.102474 0.250000
O O10 0.915345 0.135838 0.025182
O O11 0.500000 0.692514 0.250000
#
# Coordination Sequence:
#
# PCOD9287261 Si02
#       5
#     8   8   8   8   8
#     4   9  19  34  59  89 111 142 188 231 281 333
#     4  10  22  35  55  84 114 152 188 224 283 336
#     4   9  17  35  58  81 109 145 184 227 277 325
#     4   9  17  34  56  81 116 145 181 234 276 329
#     4  11  22  38  57  83 117 149 186 233 280 334
#
# _framework density 23.227108000000001
#
# number of rings (size 3 to 8) (size 9 to 14) (size 15 to 20)
#    0.000    2.400    0.000    4.200    0.000    3.200 
#    0.000   11.000    0.000   40.800    0.000    0.000 
#    0.000    0.000    0.000    0.000    0.000    0.000 
#
# Total GULP energy -111343.354421 kJ/mol
# GULP energy per Si atom -5567.167721 kJ/mol
# Density = 2.317424 g / cm^3
# Si number density = 23.227108 Si / 1000 Ang^3
#
#
#
# Elastic Constant Matrix: (Units=GPa)
#
#
# Indices 1 2 3 4 5 6 
#
# 1 89.8517 -4.5642 4.4154 0.0065 1.5874 -0.0123
# 2 -4.5642 41.1571 21.3514 0.0160 -1.7198 -0.0059
# 3 4.4154 21.3514 151.5498 0.1004 26.3199 -0.0169
# 4 0.0065 0.0160 0.1004 6.0025 -0.0081 9.0256
# 5 1.5874 -1.7198 26.3199 -0.0081 43.0732 -0.0179
# 6 -0.0123 -0.0059 -0.0169 9.0256 -0.0179 11.5715
#
#
#
# Elastic Compliance Matrix: (Units=1/GPa)
#
#
# Indices 1 2 3 4 5 6 
#
# 1 0.011234 0.001524 -0.000538 0.000146 -0.000025 -0.000102
# 2 0.001524 0.026956 -0.004497 0.000086 0.003768 -0.000053
# 3 -0.000538 -0.004497 0.008139 0.000765 -0.005133 -0.000595
# 4 0.000146 0.000086 0.000765 -0.963891 -0.000337 0.751827
# 5 -0.000025 0.003768 -0.005133 -0.000337 0.026504 0.000298
# 6 -0.000102 -0.000053 -0.000595 0.751827 0.000298 -0.499998
#
#
# Mechanical properties :
#
#
# Convention : Reuss Voigt Hill
#
# Bulk Modulus (GPa) = 25.44075 36.10710 30.77392
# Shear Modulus (GPa) = -3.64715 29.55317 12.95301
#
# Velocity S-wave (km/s) = -1.25444 3.57088 2.36406
# Velocity P-wave (km/s) = 2.97971 5.70794 4.55298
#
# Compressibility (1/GPa) = 0.03930702
#
# Stress axis : x y z
#
# Youngs Moduli (GPa) = 89.01794 37.09718 122.87228
#
# Poissons Ratio (x) = -0.05652 0.06608
# Poissons Ratio (y) = -0.13564 0.55251
# Poissons Ratio (z) = 0.04787 0.16681
#
# Static dielectric constant tensor:
#      x y z
#    x 1.933200 0.000000 0.019950 
#    y 0.000000 1.944910 0.000080 
#    z 0.019950 0.000080 1.916760 
# 
# From -- ./inp_files/316027.got.cif
#   From: 2010.05.17/outbox.cif.g08.bks.cpg/sg15_159_cif.got.tgz:316027.got - 2010.06.03 18:47:42.
