data_PCOD9287224
_publ_section_title
;
Structure prediction by ZEFSAII (Michael W. Deem and Ramdas Pophale) SiO2 
 PCOD9287224
Probable space group: C 2/C
;
_chemical_formula_sum "Si O2"
_cell_formula_units_Z 52
_cell_length_a 19.868275
_cell_length_b 13.010135
_cell_length_c 10.871803
_cell_angle_alpha 90.000000
_cell_angle_beta 55.147955
_cell_angle_gamma 90.000000
_cell_volume 2306.169225
_symmetry_space_group_name_H-M "C 2/C"
_symmetry_group_IT_number 15
_symmetry_cell_setting 'monoclinic'
loop_
_space_group_symop_operation_xyz
x,y,z
-x,y,1/2-z
-x,-y,-z
x,-y,1/2+z
1/2+x,1/2+y,z
1/2-x,1/2+y,1/2-z
1/2-x,1/2-y,-z
1/2+x,1/2-y,1/2+z
loop_
_atom_site_type_symbol
_atom_site_label
_atom_site_fract_x
_atom_site_fract_y
_atom_site_fract_z
Si Si1 0.241933 0.425077 0.084503
Si Si2 0.377012 0.841490 0.111629
Si Si3 0.394486 0.569979 0.583389
Si Si4 0.000000 0.895695 0.750000
Si Si5 0.699893 0.144826 0.065249
Si Si6 0.959250 0.733335 0.158571
Si Si7 0.653009 0.639814 0.236316
O O1 0.154697 0.399895 0.234810
O O2 0.310345 0.390079 0.110852
O O3 0.250678 0.547375 0.058415
O O4 0.266737 0.370971 0.931458
O O5 0.342394 0.725567 0.165404
O O6 0.336882 0.885344 0.029773
O O7 0.473453 0.828522 0.989926
O O8 0.454665 0.542894 0.406447
O O9 0.436277 0.659872 0.617585
O O10 0.370328 0.470989 0.686355
O O11 0.925817 0.832290 0.766568
O O12 0.623154 0.169516 0.232726
O O13 0.750000 0.250000 0.000000
O O14 0.000000 0.752835 0.250000
#
# Coordination Sequence:
#
# PCOD9287224 Si02
#       7
#     8   8   8   4   8   8   8
#     4  11  24  40  66  92 135 176 225 276 334 396
#     4  11  23  42  64  94 132 170 225 275 334 402
#     4  11  22  40  63 100 137 173 218 277 337 401
#     4  10  22  34  58  94 134 168 210 268 346 392
#     4  11  23  43  66  97 128 178 230 273 334 400
#     4  10  23  40  69  98 135 180 223 274 331 403
#     4  11  22  38  62  95 132 172 215 273 335 400
#
# _framework density 22.548214000000002
#
# number of rings (size 3 to 8) (size 9 to 14) (size 15 to 20)
#    0.000    1.231    1.538    4.615    1.077    3.077 
#    0.000    3.077    5.077    0.000    0.000    0.000 
#    0.000    0.000    0.000    0.000    0.000    0.000 
#
# Total GULP energy -145418.063771 kJ/mol
# GULP energy per Si atom -5593.002453 kJ/mol
# Density = 2.249689 g / cm^3
# Si number density = 22.548214 Si / 1000 Ang^3
#
#
#
# Elastic Constant Matrix: (Units=GPa)
#
#
# Indices 1 2 3 4 5 6 
#
# 1 50.6734 3.0773 15.0170 0.0000 -5.7978 0.0000
# 2 3.0773 30.6312 20.9172 0.0000 -12.4121 0.0000
# 3 15.0170 20.9172 171.3446 0.0000 -28.6950 0.0000
# 4 0.0000 0.0000 0.0000 28.7994 0.0000 -3.4522
# 5 -5.7978 -12.4121 -28.6950 0.0000 27.8107 0.0000
# 6 0.0000 0.0000 0.0000 -3.4522 0.0000 19.0953
#
#
#
# Elastic Compliance Matrix: (Units=1/GPa)
#
#
# Indices 1 2 3 4 5 6 
#
# 1 0.020455 0.000023 -0.001305 0.000000 0.002928 0.000000
# 2 0.000023 0.040605 -0.002325 0.000000 0.015728 0.000000
# 3 -0.001305 -0.002325 0.007272 0.000000 0.006193 0.000000
# 4 0.000000 0.000000 0.000000 0.035492 0.000000 0.006417
# 5 0.002928 0.015728 0.006193 0.000000 0.049977 0.000000
# 6 0.000000 0.000000 0.000000 0.006417 0.000000 0.053529
#
#
# Mechanical properties :
#
#
# Convention : Reuss Voigt Hill
#
# Bulk Modulus (GPa) = 16.36221 36.74135 26.55178
# Shear Modulus (GPa) = 21.28417 29.38361 25.33389
#
# Velocity S-wave (km/s) = 3.07569 3.61383 3.35557
# Velocity P-wave (km/s) = 4.45932 5.80887 5.17824
#
# Compressibility (1/GPa) = 0.06111644
#
# Stress axis : x y z
#
# Youngs Moduli (GPa) = 48.88878 24.62744 137.52249
#
# Poissons Ratio (x) = -0.00056 0.17949
# Poissons Ratio (y) = -0.00111 0.31973
# Poissons Ratio (z) = 0.06381 0.05726
#
# Static dielectric constant tensor:
#      x y z
#    x 1.869620 0.000000 0.009770 
#    y 0.000000 1.799280 0.000000 
#    z 0.009770 0.000000 1.867200 
# 
# From -- ./inp_files/117943.got.cif
#   From: 2010.05.17/outbox.cif.g08.bks.cpg/sg15_59_cif.got.tgz:117943.got - 2010.06.03 18:47:42.
