data_PCOD9287494
_publ_section_title
;
Structure prediction by ZEFSAII (Michael W. Deem and Ramdas Pophale) SiO2 
 PCOD9287494
Probable space group: C 2/C
;
_chemical_formula_sum "Si O2"
_cell_formula_units_Z 40
_cell_length_a 14.841123
_cell_length_b 19.336844
_cell_length_c 19.815979
_cell_angle_alpha 90.000000
_cell_angle_beta 160.256670
_cell_angle_gamma 90.000000
_cell_volume 1921.041421
_symmetry_space_group_name_H-M "C 2/C"
_symmetry_group_IT_number 15
_symmetry_cell_setting 'monoclinic'
loop_
_space_group_symop_operation_xyz
x,y,z
-x,y,1/2-z
-x,-y,-z
x,-y,1/2+z
1/2+x,1/2+y,z
1/2-x,1/2+y,1/2-z
1/2-x,1/2-y,-z
1/2+x,1/2-y,1/2+z
loop_
_atom_site_type_symbol
_atom_site_label
_atom_site_fract_x
_atom_site_fract_y
_atom_site_fract_z
Si Si1 0.500000 0.781246 0.250000
Si Si2 0.937106 0.831007 0.817987
Si Si3 0.274343 0.482356 0.657931
Si Si4 0.500000 0.279569 0.250000
Si Si5 0.162494 0.476389 0.926738
Si Si6 0.042549 0.665001 0.164599
O O1 0.611097 0.731537 0.268558
O O2 0.747144 0.826340 0.448192
O O3 0.856282 0.903846 0.729895
O O4 0.775060 0.826754 0.774039
O O5 0.201319 0.489028 0.527436
O O6 0.000000 0.500000 0.500000
O O7 0.516588 0.529637 0.859836
O O8 0.756154 0.327919 0.427524
O O9 0.536278 0.228179 0.212546
O O10 0.985215 0.407658 0.816425
O O11 0.000000 0.510334 0.750000
#
# Coordination Sequence:
#
# PCOD9287494 Si02
#       6
#     4   8   8   4   8   8
#     4  10  24  44  70 104 140 176 240 290 346 426
#     4  11  23  45  70 101 136 187 229 290 350 415
#     4  11  24  44  70  98 138 185 232 286 351 410
#     4  10  22  36  64  98 134 172 212 286 336 422
#     4  11  24  44  66  99 136 176 233 294 343 421
#     4  11  21  40  64  97 134 174 225 275 353 410
#
# _framework density 20.822039
#
# number of rings (size 3 to 8) (size 9 to 14) (size 15 to 20)
#    0.000    1.200    3.000    3.600    1.400    0.800 
#    0.000    0.000    0.000    0.000    0.000    0.000 
#    0.000    0.000    0.000    0.000    0.000    0.000 
#
# Total GULP energy -111498.759081 kJ/mol
# GULP energy per Si atom -5574.937954 kJ/mol
# Density = 2.077465 g / cm^3
# Si number density = 20.822039 Si / 1000 Ang^3
#
#
#
# Elastic Constant Matrix: (Units=GPa)
#
#
# Indices 1 2 3 4 5 6 
#
# 1 101.5917 21.7611 39.5841 -0.0708 7.7051 -0.1561
# 2 21.7611 67.8066 23.7567 0.1180 0.6867 0.1189
# 3 39.5841 23.7567 104.4503 -0.0494 -7.9799 -0.0772
# 4 -0.0708 0.1180 -0.0494 52.3143 0.0077 33.6383
# 5 7.7051 0.6867 -7.9799 0.0077 42.6183 0.0149
# 6 -0.1561 0.1189 -0.0772 33.6383 0.0149 91.2098
#
#
#
# Elastic Compliance Matrix: (Units=1/GPa)
#
#
# Indices 1 2 3 4 5 6 
#
# 1 0.012271 -0.002389 -0.004336 0.000006 -0.002992 0.000019
# 2 -0.002389 0.016528 -0.002883 -0.000033 -0.000374 -0.000016
# 3 -0.004336 -0.002883 0.012109 0.000010 0.003098 0.000002
# 4 0.000006 -0.000033 0.000010 0.025057 0.000000 -0.009241
# 5 -0.002992 -0.000374 0.003098 0.000000 0.024591 -0.000006
# 6 0.000019 -0.000016 0.000002 -0.009241 -0.000006 0.014372
#
#
# Mechanical properties :
#
#
# Convention : Reuss Voigt Hill
#
# Bulk Modulus (GPa) = 46.09445 49.33915 47.71680
# Shear Modulus (GPa) = 38.05885 49.81157 43.93521
#
# Velocity S-wave (km/s) = 4.27993 4.89637 4.59849
# Velocity P-wave (km/s) = 6.82709 7.46412 7.15270
#
# Compressibility (1/GPa) = 0.02169459
#
# Stress axis : x y z
#
# Youngs Moduli (GPa) = 81.49050 60.50232 82.58072
#
# Poissons Ratio (x) = 0.14453 0.35805
# Poissons Ratio (y) = 0.19467 0.23804
# Poissons Ratio (z) = 0.35332 0.17440
#
# Static dielectric constant tensor:
#      x y z
#    x 1.787640 0.000130 0.008070 
#    y 0.000130 1.771990 -0.001290 
#    z 0.008070 -0.001290 1.687150 
# 
# From -- ./inp_files/245248.got.cif
#   From: 2010.05.17/outbox.cif.g08.bks.cpg/sg15_123_cif.got.tgz:245248.got - 2010.06.03 18:47:42.
