data_PCOD9287773
_publ_section_title
;
Structure prediction by ZEFSAII (Michael W. Deem and Ramdas Pophale) SiO2 
 PCOD9287773
Probable space group: C 2/C
;
_chemical_formula_sum "Si O2"
_cell_formula_units_Z 60
_cell_length_a 27.248852
_cell_length_b 11.934032
_cell_length_c 8.704321
_cell_angle_alpha 90.000000
_cell_angle_beta 111.727139
_cell_angle_gamma 90.000000
_cell_volume 2629.457001
_symmetry_space_group_name_H-M "C 2/C"
_symmetry_group_IT_number 15
_symmetry_cell_setting 'monoclinic'
loop_
_space_group_symop_operation_xyz
x,y,z
-x,y,1/2-z
-x,-y,-z
x,-y,1/2+z
1/2+x,1/2+y,z
1/2-x,1/2+y,1/2-z
1/2-x,1/2-y,-z
1/2+x,1/2-y,1/2+z
loop_
_atom_site_type_symbol
_atom_site_label
_atom_site_fract_x
_atom_site_fract_y
_atom_site_fract_z
Si Si1 0.347409 0.920531 0.289126
Si Si2 0.755542 0.621240 0.451135
Si Si3 0.937870 0.892450 0.467414
Si Si4 0.096725 0.755487 0.826452
Si Si5 0.190828 0.243163 0.003916
Si Si6 0.000000 0.068616 0.750000
Si Si7 0.838635 0.662300 0.334350
Si Si8 0.349971 0.560586 0.307995
O O1 0.396368 0.851233 0.274366
O O2 0.319852 0.843572 0.386518
O O3 0.366360 0.041828 0.363503
O O4 0.300124 0.935827 0.108616
O O5 0.750000 0.750000 0.500000
O O6 0.778816 0.629790 0.306737
O O7 0.700481 0.557522 0.364958
O O8 0.944993 0.787471 0.591300
O O9 0.962630 0.869396 0.329367
O O10 0.879031 0.945253 0.379150
O O11 0.965911 0.991359 0.596427
O O12 0.107035 0.862556 0.731676
O O13 0.144979 0.733714 0.000054
O O14 0.169906 0.132830 0.068364
O O15 0.250000 0.250000 0.000000
O O16 0.155240 0.273002 0.815282
#
# Coordination Sequence:
#
# PCOD9287773 Si02
#       8
#     8   8   8   8   8   4   8   8
#     4  10  22  38  53  78 123 172 220 258 305 335
#     4  11  18  38  52  76 124 179 217 264 296 341
#     4  11  23  45  66 100 123 160 195 263 330 412
#     4  10  22  40  62  83 125 159 211 254 307 380
#     4  11  20  34  50  82 115 160 223 262 290 349
#     4  10  24  44  72  94 134 144 198 252 360 410
#     4  11  21  36  55  79 119 171 219 257 302 335
#     4  11  22  37  58  85 125 166 212 255 306 366
#
# _framework density 22.818397999999998
#
# number of rings (size 3 to 8) (size 9 to 14) (size 15 to 20)
#    0.000    1.333    6.667    1.600    1.867    1.067 
#    4.800    0.000    0.000    0.000    0.000    2.800 
#    0.000    0.000    0.000    0.000    0.000    0.000 
#
# Total GULP energy -167237.637273 kJ/mol
# GULP energy per Si atom -5574.587909 kJ/mol
# Density = 2.276646 g / cm^3
# Si number density = 22.818398 Si / 1000 Ang^3
#
#
#
# Elastic Constant Matrix: (Units=GPa)
#
#
# Indices 1 2 3 4 5 6 
#
# 1 67.5942 35.2993 26.9080 0.0000 -37.5891 0.0000
# 2 35.2993 100.5530 32.5359 0.0000 -22.5436 0.0000
# 3 26.9080 32.5359 90.0297 0.0000 -32.5460 0.0000
# 4 0.0000 0.0000 0.0000 12.1639 0.0000 -19.3791
# 5 -37.5891 -22.5436 -32.5460 0.0000 55.0701 0.0000
# 6 0.0000 0.0000 0.0000 -19.3791 0.0000 5.6071
#
#
#
# Elastic Compliance Matrix: (Units=1/GPa)
#
#
# Indices 1 2 3 4 5 6 
#
# 1 0.026601 -0.005758 -0.000201 0.000000 0.015682 0.000000
# 2 -0.005758 0.012859 -0.003108 0.000000 -0.000503 0.000000
# 3 -0.000201 -0.003108 0.014982 0.000000 0.007445 0.000000
# 4 0.000000 0.000000 0.000000 -0.018243 0.000000 -0.063053
# 5 0.015682 -0.000503 0.007445 0.000000 0.033056 0.000000
# 6 0.000000 0.000000 0.000000 -0.063053 0.000000 -0.039577
#
#
# Mechanical properties :
#
#
# Convention : Reuss Voigt Hill
#
# Bulk Modulus (GPa) = 27.54113 49.74035 38.64074
# Shear Modulus (GPa) = 83.45121 25.46380 54.45751
#
# Velocity S-wave (km/s) = 6.05403 3.34418 4.89054
# Velocity P-wave (km/s) = 7.80796 6.06276 6.99004
#
# Compressibility (1/GPa) = 0.03630933
#
# Stress axis : x y z
#
# Youngs Moduli (GPa) = 37.59188 77.76524 66.74649
#
# Poissons Ratio (x) = 0.44775 0.01341
# Poissons Ratio (y) = 0.21644 0.20746
# Poissons Ratio (z) = 0.00755 0.24170
#
# Static dielectric constant tensor:
#      x y z
#    x 2.075300 0.000000 0.009050 
#    y 0.000000 2.014360 0.000000 
#    z 0.009050 0.000000 1.887520 
# 
# From -- ./inp_files/69404.got.cif
#   From: 2010.05.17/outbox.cif.g08.bks.cpg/sg15_35_cif.got.tgz:69404.got - 2010.06.03 18:47:42.
