data_PCOD9287717
_publ_section_title
;
Structure prediction by ZEFSAII (Michael W. Deem and Ramdas Pophale) SiO2 
 PCOD9287717
Probable space group: C 2/C
;
_chemical_formula_sum "Si O2"
_cell_formula_units_Z 40
_cell_length_a 14.319768
_cell_length_b 11.509386
_cell_length_c 13.248715
_cell_angle_alpha 90.000000
_cell_angle_beta 49.122349
_cell_angle_gamma 90.000000
_cell_volume 1650.996639
_symmetry_space_group_name_H-M "C 2/C"
_symmetry_group_IT_number 15
_symmetry_cell_setting 'monoclinic'
loop_
_space_group_symop_operation_xyz
x,y,z
-x,y,1/2-z
-x,-y,-z
x,-y,1/2+z
1/2+x,1/2+y,z
1/2-x,1/2+y,1/2-z
1/2-x,1/2-y,-z
1/2+x,1/2-y,1/2+z
loop_
_atom_site_type_symbol
_atom_site_label
_atom_site_fract_x
_atom_site_fract_y
_atom_site_fract_z
Si Si1 0.081444 0.244093 0.543855
Si Si2 0.709971 0.198766 0.263349
Si Si3 0.136635 0.459522 0.646166
Si Si4 0.010491 0.996247 0.611142
Si Si5 0.186925 0.100753 0.117683
O O1 0.179004 0.255371 0.382461
O O2 0.121148 0.335720 0.599971
O O3 0.086545 0.112673 0.581524
O O4 0.933118 0.258281 0.629791
O O5 0.691997 0.074577 0.216207
O O6 0.761306 0.193596 0.340862
O O7 0.207237 0.544770 0.523021
O O8 0.000000 0.508400 0.750000
O O9 0.081307 0.884603 0.606831
O O10 0.000000 0.000000 0.500000
O O11 0.879652 0.989534 0.758012
#
# Coordination Sequence:
#
# PCOD9287717 Si02
#       5
#     8   8   8   8   8
#     4  11  22  39  64  97 127 172 219 275 316 386
#     4  11  23  40  65  99 130 168 224 272 325 387
#     4  10  22  37  64  95 134 164 220 270 331 383
#     4  11  22  39  67  91 126 169 226 262 322 396
#     4  11  22  38  65  93 130 169 210 273 327 389
#
# _framework density 24.227789999999999
#
# number of rings (size 3 to 8) (size 9 to 14) (size 15 to 20)
#    0.000    1.200    4.000    1.800    8.400    3.200 
#    0.000    3.000    0.000    2.400    0.000    0.000 
#    0.000    0.000    0.000    0.000    0.000    0.000 
#
# Total GULP energy -111543.516006 kJ/mol
# GULP energy per Si atom -5577.175800 kJ/mol
# Density = 2.417265 g / cm^3
# Si number density = 24.227790 Si / 1000 Ang^3
#
#
#
# Elastic Constant Matrix: (Units=GPa)
#
#
# Indices 1 2 3 4 5 6 
#
# 1 141.9781 7.6736 72.8508 0.0000 6.6102 0.0000
# 2 7.6736 8.2412 12.9703 0.0000 -3.3732 0.0000
# 3 72.8508 12.9703 181.4417 0.0000 -22.4277 0.0000
# 4 0.0000 0.0000 0.0000 27.6190 0.0000 -1.8269
# 5 6.6102 -3.3732 -22.4277 0.0000 56.3723 0.0000
# 6 0.0000 0.0000 0.0000 -1.8269 0.0000 24.8845
#
#
#
# Elastic Compliance Matrix: (Units=1/GPa)
#
#
# Indices 1 2 3 4 5 6 
#
# 1 0.009350 -0.003842 -0.003832 0.000000 -0.002851 0.000000
# 2 -0.003842 0.139403 -0.007715 0.000000 0.005723 0.000000
# 3 -0.003832 -0.007715 0.007993 0.000000 0.003168 0.000000
# 4 0.000000 0.000000 0.000000 0.036384 0.000000 0.002671
# 5 -0.002851 0.005723 0.003168 0.000000 0.019676 0.000000
# 6 0.000000 0.000000 0.000000 0.002671 0.000000 0.040382
#
#
# Mechanical properties :
#
#
# Convention : Reuss Voigt Hill
#
# Bulk Modulus (GPa) = 7.93853 57.62784 32.78319
# Shear Modulus (GPa) = 15.33954 37.65293 26.49623
#
# Velocity S-wave (km/s) = 2.51895 3.94651 3.31060
# Velocity P-wave (km/s) = 3.42694 6.67863 5.30792
#
# Compressibility (1/GPa) = 0.12596785
#
# Stress axis : x y z
#
# Youngs Moduli (GPa) = 106.95344 7.17343 125.10979
#
# Poissons Ratio (x) = 0.02756 0.47939
# Poissons Ratio (y) = 0.41093 0.96524
# Poissons Ratio (z) = 0.40982 0.05534
#
# Static dielectric constant tensor:
#      x y z
#    x 2.062420 0.000000 -0.054780 
#    y 0.000000 1.947420 0.000000 
#    z -0.054780 0.000000 1.960820 
# 
# From -- ./inp_files/96033.got.cif
#   From: 2010.05.17/outbox.cif.g08.bks.cpg/sg15_49_cif.got.tgz:96033.got - 2010.06.03 18:47:42.
