data_PCOD9287416
_publ_section_title
;
Structure prediction by ZEFSAII (Michael W. Deem and Ramdas Pophale) SiO2 
 PCOD9287416
Probable space group: C 2/C
;
_chemical_formula_sum "Si O2"
_cell_formula_units_Z 60
_cell_length_a 8.310036
_cell_length_b 12.183540
_cell_length_c 27.229720
_cell_angle_alpha 90.000000
_cell_angle_beta 97.133219
_cell_angle_gamma 90.000000
_cell_volume 2735.552830
_symmetry_space_group_name_H-M "C 2/C"
_symmetry_group_IT_number 15
_symmetry_cell_setting 'monoclinic'
loop_
_space_group_symop_operation_xyz
x,y,z
-x,y,1/2-z
-x,-y,-z
x,-y,1/2+z
1/2+x,1/2+y,z
1/2-x,1/2+y,1/2-z
1/2-x,1/2-y,-z
1/2+x,1/2-y,1/2+z
loop_
_atom_site_type_symbol
_atom_site_label
_atom_site_fract_x
_atom_site_fract_y
_atom_site_fract_z
Si Si1 0.191589 0.630521 0.982752
Si Si2 0.938348 0.006539 0.441206
Si Si3 0.849959 0.727918 0.283186
Si Si4 0.658720 0.017906 0.679351
Si Si5 0.218340 0.299591 0.944751
Si Si6 0.500000 0.834301 0.250000
Si Si7 0.433265 0.633293 0.639144
Si Si8 0.062163 0.514984 0.064461
O O1 0.297098 0.585038 0.942130
O O2 0.010973 0.599854 0.957931
O O3 0.250000 0.750000 0.000000
O O4 0.200791 0.556085 0.032561
O O5 0.024034 0.967349 0.395247
O O6 0.871938 0.129155 0.433785
O O7 0.000000 0.000000 0.500000
O O8 0.826296 0.600308 0.295484
O O9 0.670726 0.770023 0.261282
O O10 0.000000 0.733250 0.250000
O O11 0.917484 0.799525 0.331820
O O12 0.608529 0.997951 0.621648
O O13 0.527464 0.088469 0.703806
O O14 0.824513 0.086528 0.679445
O O15 0.165555 0.213453 0.901429
O O16 0.074007 0.389608 0.943337
O O17 0.250000 0.250000 0.000000
#
# Coordination Sequence:
#
# PCOD9287416 Si02
#       8
#     8   8   8   8   8   4   8   8
#     4  10  22  36  60  93 143 195 239 294 357 428
#     4  11  23  39  63 103 147 195 250 297 358 451
#     4  12  28  55  80 113 153 193 257 333 399 467
#     4  12  27  49  78 110 149 193 257 320 392 470
#     4  11  23  41  66 101 155 207 247 309 372 440
#     4  12  30  50  84 114 142 202 250 320 422 462
#     4  12  26  46  76 110 149 201 254 315 388 453
#     4  10  23  40  62 101 142 196 250 307 367 445
#
# _framework density 21.933409000000001
#
# number of rings (size 3 to 8) (size 9 to 14) (size 15 to 20)
#    0.000    0.800    4.667    1.600    7.467    2.133 
#    0.000    0.000    0.000    0.000    0.000    0.000 
#    0.000    0.000    0.000    0.000    0.000    0.000 
#
# Total GULP energy -167498.249555 kJ/mol
# GULP energy per Si atom -5583.274985 kJ/mol
# Density = 2.188349 g / cm^3
# Si number density = 21.933409 Si / 1000 Ang^3
#
#
#
# Elastic Constant Matrix: (Units=GPa)
#
#
# Indices 1 2 3 4 5 6 
#
# 1 104.0140 63.8970 53.5736 0.0000 -8.6233 0.0000
# 2 63.8970 140.1778 44.9898 0.0000 3.7900 0.0000
# 3 53.5736 44.9898 103.2923 0.0000 -7.8574 0.0000
# 4 0.0000 0.0000 0.0000 37.0098 0.0000 -6.7453
# 5 -8.6233 3.7900 -7.8574 0.0000 46.5525 0.0000
# 6 0.0000 0.0000 0.0000 -6.7453 0.0000 39.8600
#
#
#
# Elastic Compliance Matrix: (Units=1/GPa)
#
#
# Indices 1 2 3 4 5 6 
#
# 1 0.016256 -0.005617 -0.005795 0.000000 0.002490 0.000000
# 2 -0.005617 0.010313 -0.001744 0.000000 -0.002174 0.000000
# 3 -0.005795 -0.001744 0.013550 0.000000 0.001355 0.000000
# 4 0.000000 0.000000 0.000000 0.027880 0.000000 0.004718
# 5 0.002490 -0.002174 0.001355 0.000000 0.022348 0.000000
# 6 0.000000 0.000000 0.000000 0.004718 0.000000 0.025886
#
#
# Mechanical properties :
#
#
# Convention : Reuss Voigt Hill
#
# Bulk Modulus (GPa) = 72.43299 74.71165 73.57232
# Shear Modulus (GPa) = 33.97938 37.01939 35.49938
#
# Velocity S-wave (km/s) = 3.94027 4.11275 4.02743
# Velocity P-wave (km/s) = 7.33462 7.52927 7.43258
#
# Compressibility (1/GPa) = 0.01380586
#
# Stress axis : x y z
#
# Youngs Moduli (GPa) = 61.51422 96.96674 73.80254
#
# Poissons Ratio (x) = 0.54471 0.42771
# Poissons Ratio (y) = 0.34555 0.12869
# Poissons Ratio (z) = 0.35650 0.16908
#
# Static dielectric constant tensor:
#      x y z
#    x 1.991450 0.000000 0.011880 
#    y 0.000000 1.809430 0.000000 
#    z 0.011880 0.000000 1.759220 
# 
# From -- ./inp_files/288023.got.cif
#   From: 2010.05.17/outbox.cif.g08.bks.cpg/sg15_145_cif.got.tgz:288023.got - 2010.06.03 18:47:42.
