data_PCOD9287958
_publ_section_title
;
Structure prediction by ZEFSAII (Michael W. Deem and Ramdas Pophale) SiO2 
 PCOD9287958
Probable space group: C 2/C
;
_chemical_formula_sum "Si O2"
_cell_formula_units_Z 64
_cell_length_a 11.026514
_cell_length_b 8.867208
_cell_length_c 27.460436
_cell_angle_alpha 90.000000
_cell_angle_beta 89.874496
_cell_angle_gamma 90.000000
_cell_volume 2684.921024
_symmetry_space_group_name_H-M "C 2/C"
_symmetry_group_IT_number 15
_symmetry_cell_setting 'monoclinic'
loop_
_space_group_symop_operation_xyz
x,y,z
-x,y,1/2-z
-x,-y,-z
x,-y,1/2+z
1/2+x,1/2+y,z
1/2-x,1/2+y,1/2-z
1/2-x,1/2-y,-z
1/2+x,1/2-y,1/2+z
loop_
_atom_site_type_symbol
_atom_site_label
_atom_site_fract_x
_atom_site_fract_y
_atom_site_fract_z
Si Si1 0.634146 0.648873 0.988275
Si Si2 0.368563 0.214068 0.745692
Si Si3 0.108172 0.769625 0.288144
Si Si4 0.878630 0.805483 0.483261
Si Si5 0.572340 0.538047 0.878275
Si Si6 0.076455 0.530084 0.173206
Si Si7 0.914669 0.314204 0.132537
Si Si8 0.166550 0.201065 0.619359
O O1 0.508973 0.727658 0.006422
O O2 0.618375 0.607399 0.930005
O O3 0.750000 0.750000 0.000000
O O4 0.632778 0.487393 0.015362
O O5 0.500000 0.301062 0.750000
O O6 0.236493 0.272382 0.762720
O O7 0.369895 0.178127 0.688924
O O8 0.387112 0.067556 0.780108
O O9 0.137015 0.891355 0.330566
O O10 0.000000 0.816684 0.250000
O O11 0.043308 0.629488 0.314785
O O12 0.750000 0.750000 0.500000
O O13 0.889013 0.735481 0.429928
O O14 0.574515 0.358931 0.881986
O O15 0.433042 0.581025 0.865415
O O16 0.169408 0.655371 0.154672
O O17 0.035997 0.410580 0.132155
O O18 0.794789 0.371940 0.106137
#
# Coordination Sequence:
#
# PCOD9287958 Si02
#       8
#     8   8   8   8   8   8   8   8
#     4  10  23  46  70  97 135 173 218 276 335 400
#     4  10  22  38  60  92 129 170 218 270 324 383
#     4  11  22  40  67  93 131 178 220 269 327 391
#     4  10  22  42  69 102 134 166 215 276 335 397
#     4  10  23  41  64  96 128 170 221 269 325 393
#     4  10  23  41  61  90 129 174 222 270 323 389
#     4  11  22  38  62  90 127 168 216 270 325 386
#     4  10  22  42  64  92 130 169 217 271 325 393
#
# _framework density 23.836829000000002
#
# number of rings (size 3 to 8) (size 9 to 14) (size 15 to 20)
#    0.000    1.750    0.000    4.125    0.000    9.000 
#    0.000   17.500    0.000    0.000    0.000    0.000 
#    0.000    0.000    0.000    0.000    0.000    0.000 
#
# Total GULP energy -178352.987713 kJ/mol
# GULP energy per Si atom -5573.530866 kJ/mol
# Density = 2.378258 g / cm^3
# Si number density = 23.836829 Si / 1000 Ang^3
#
#
#
# Elastic Constant Matrix: (Units=GPa)
#
#
# Indices 1 2 3 4 5 6 
#
# 1 148.9723 45.3251 10.1488 0.0000 4.3164 0.0000
# 2 45.3251 45.3761 24.6895 0.0000 11.2468 0.0000
# 3 10.1488 24.6895 80.7844 0.0000 13.2872 0.0000
# 4 0.0000 0.0000 0.0000 21.3482 0.0000 3.4719
# 5 4.3164 11.2468 13.2872 0.0000 35.4207 0.0000
# 6 0.0000 0.0000 0.0000 3.4719 0.0000 38.9456
#
#
#
# Elastic Compliance Matrix: (Units=1/GPa)
#
#
# Indices 1 2 3 4 5 6 
#
# 1 0.010034 -0.011520 0.001982 0.000000 0.001692 0.000000
# 2 -0.011520 0.040793 -0.009720 0.000000 -0.007902 0.000000
# 3 0.001982 -0.009720 0.015595 0.000000 -0.003005 0.000000
# 4 0.000000 0.000000 0.000000 0.047532 0.000000 -0.004237
# 5 0.001692 -0.007902 -0.003005 0.000000 0.031662 0.000000
# 6 0.000000 0.000000 0.000000 -0.004237 0.000000 0.026055
#
#
# Mechanical properties :
#
#
# Convention : Reuss Voigt Hill
#
# Bulk Modulus (GPa) = 35.83648 48.38441 42.11044
# Shear Modulus (GPa) = 22.78040 32.14086 27.46063
#
# Velocity S-wave (km/s) = 3.09476 3.67600 3.39783
# Velocity P-wave (km/s) = 5.27606 6.19351 5.75310
#
# Compressibility (1/GPa) = 0.02790453
#
# Stress axis : x y z
#
# Youngs Moduli (GPa) = 99.66504 24.51430 64.12495
#
# Poissons Ratio (x) = 0.28241 -0.12710
# Poissons Ratio (y) = 1.14815 0.62330
# Poissons Ratio (z) = -0.19754 0.23828
#
# Static dielectric constant tensor:
#      x y z
#    x 2.034770 0.000000 0.053710 
#    y 0.000000 1.880120 0.000000 
#    z 0.053710 0.000000 2.022190 
# 
# From -- ./inp_files/310311.got.cif
#   From: 2010.05.17/outbox.cif.g08.bks.cpg/sg15_156_cif.got.tgz:310311.got - 2010.06.03 18:47:42.
