data_PCOD9287225
_publ_section_title
;
Structure prediction by ZEFSAII (Michael W. Deem and Ramdas Pophale) SiO2 
 PCOD9287225
Probable space group: C 2/C
;
_chemical_formula_sum "Si O2"
_cell_formula_units_Z 52
_cell_length_a 19.670655
_cell_length_b 12.189349
_cell_length_c 20.568820
_cell_angle_alpha 90.000000
_cell_angle_beta 151.673185
_cell_angle_gamma 90.000000
_cell_volume 2340.157768
_symmetry_space_group_name_H-M "C 2/C"
_symmetry_group_IT_number 15
_symmetry_cell_setting 'monoclinic'
loop_
_space_group_symop_operation_xyz
x,y,z
-x,y,1/2-z
-x,-y,-z
x,-y,1/2+z
1/2+x,1/2+y,z
1/2-x,1/2+y,1/2-z
1/2-x,1/2-y,-z
1/2+x,1/2-y,1/2+z
loop_
_atom_site_type_symbol
_atom_site_label
_atom_site_fract_x
_atom_site_fract_y
_atom_site_fract_z
Si Si1 0.724543 0.853961 0.338639
Si Si2 0.309686 0.539386 0.771892
Si Si3 0.922643 0.841316 0.060374
Si Si4 0.645533 0.925588 0.777522
Si Si5 0.959730 0.642241 0.005729
Si Si6 0.500000 0.751131 0.750000
Si Si7 0.968314 0.809531 0.890826
O O1 0.783321 0.900614 0.318391
O O2 0.635629 0.745750 0.248894
O O3 0.871640 0.831930 0.500073
O O4 0.614184 0.948470 0.268050
O O5 0.418811 0.617323 0.823580
O O6 0.154584 0.547133 0.606034
O O7 0.388909 0.422433 0.844511
O O8 0.907507 0.825072 0.124431
O O9 0.813331 0.921642 0.933834
O O10 0.889938 0.726146 0.998291
O O11 0.595397 0.899199 0.661953
O O12 0.582020 0.832745 0.770570
O O13 0.984190 0.719504 0.963162
#
# Coordination Sequence:
#
# PCOD9287225 Si02
#       7
#     8   8   8   8   8   4   8
#     4  11  24  37  61  89 130 168 207 255 306 385
#     4  11  22  37  60  90 132 166 202 256 315 373
#     4  11  20  40  63  94 123 159 205 258 320 369
#     4  11  23  40  62  92 125 164 209 265 311 360
#     4  10  22  34  59  89 126 167 200 251 310 379
#     4  10  24  40  68  92 124 160 214 264 308 374
#     4  11  23  37  57  90 129 169 207 243 313 380
#
# _framework density 22.220724000000001
#
# number of rings (size 3 to 8) (size 9 to 14) (size 15 to 20)
#    0.000    1.231    3.077    3.692    6.462    2.462 
#    0.000    0.000    0.000    1.846    0.000    0.000 
#    0.000    0.000    0.000    0.000    0.000    0.000 
#
# Total GULP energy -145105.641514 kJ/mol
# GULP energy per Si atom -5580.986212 kJ/mol
# Density = 2.217015 g / cm^3
# Si number density = 22.220724 Si / 1000 Ang^3
#
#
#
# Elastic Constant Matrix: (Units=GPa)
#
#
# Indices 1 2 3 4 5 6 
#
# 1 39.3197 10.5281 25.9479 0.0000 -9.6914 0.0000
# 2 10.5281 95.2074 37.1073 0.0000 1.6242 0.0000
# 3 25.9479 37.1073 132.5032 0.0000 6.8514 0.0000
# 4 0.0000 0.0000 0.0000 38.6032 -0.0001 3.0495
# 5 -9.6914 1.6242 6.8514 -0.0001 19.5348 0.0000
# 6 0.0000 0.0000 0.0000 3.0495 0.0000 29.8696
#
#
#
# Elastic Compliance Matrix: (Units=1/GPa)
#
#
# Indices 1 2 3 4 5 6 
#
# 1 0.035998 -0.001312 -0.007752 0.000000 0.020687 0.000000
# 2 -0.001312 0.011839 -0.003029 0.000000 -0.000573 0.000000
# 3 -0.007752 -0.003029 0.010286 0.000000 -0.007201 0.000000
# 4 0.000000 0.000000 0.000000 0.026115 0.000000 -0.002666
# 5 0.020687 -0.000573 -0.007201 0.000000 0.064027 0.000000
# 6 0.000000 0.000000 0.000000 -0.002666 0.000000 0.033751
#
#
# Mechanical properties :
#
#
# Convention : Reuss Voigt Hill
#
# Bulk Modulus (GPa) = 29.46645 46.02187 37.74416
# Shear Modulus (GPa) = 22.98709 30.49798 26.74254
#
# Velocity S-wave (km/s) = 3.21984 3.70875 3.47291
# Velocity P-wave (km/s) = 5.20699 6.25268 5.75364
#
# Compressibility (1/GPa) = 0.03393690
#
# Stress axis : x y z
#
# Youngs Moduli (GPa) = 27.77921 84.46827 97.22407
#
# Poissons Ratio (x) = 0.11086 0.75364
# Poissons Ratio (y) = 0.03646 0.29447
# Poissons Ratio (z) = 0.21533 0.25584
#
# Static dielectric constant tensor:
#      x y z
#    x 1.816630 0.000000 0.018870 
#    y 0.000000 1.874650 0.000000 
#    z 0.018870 0.000000 1.878600 
# 
# From -- ./inp_files/65090.got.cif
#   From: 2010.05.17/outbox.cif.g08.bks.cpg/sg15_33_cif.got.tgz:65090.got - 2010.06.03 18:47:42.
