data_PCOD9287725
_publ_section_title
;
Structure prediction by ZEFSAII (Michael W. Deem and Ramdas Pophale) SiO2 
 PCOD9287725
Probable space group: C 2/C
;
_chemical_formula_sum "Si O2"
_cell_formula_units_Z 40
_cell_length_a 10.294938
_cell_length_b 11.105587
_cell_length_c 17.741433
_cell_angle_alpha 90.000000
_cell_angle_beta 134.433828
_cell_angle_gamma 90.000000
_cell_volume 1448.399382
_symmetry_space_group_name_H-M "C 2/C"
_symmetry_group_IT_number 15
_symmetry_cell_setting 'monoclinic'
loop_
_space_group_symop_operation_xyz
x,y,z
-x,y,1/2-z
-x,-y,-z
x,-y,1/2+z
1/2+x,1/2+y,z
1/2-x,1/2+y,1/2-z
1/2-x,1/2-y,-z
1/2+x,1/2-y,1/2+z
loop_
_atom_site_type_symbol
_atom_site_label
_atom_site_fract_x
_atom_site_fract_y
_atom_site_fract_z
Si Si1 0.875128 0.504119 0.267826
Si Si2 0.503741 0.618050 0.403331
Si Si3 0.366240 0.612605 0.625774
Si Si4 0.884722 0.204412 0.892324
Si Si5 0.476755 0.134904 0.544975
O O1 0.702877 0.592085 0.204722
O O2 0.777557 0.377033 0.205399
O O3 0.994783 0.479719 0.390467
O O4 0.000000 0.544245 0.250000
O O5 0.530577 0.625190 0.504478
O O6 0.624572 0.512829 0.417021
O O7 0.552066 0.756539 0.407023
O O8 0.500000 0.594371 0.750000
O O9 0.463326 0.710254 0.611196
O O10 0.173432 0.644465 0.583107
O O11 0.847810 0.328044 0.922248
#
# Coordination Sequence:
#
# PCOD9287725 Si02
#       5
#     8   8   8   8   8
#     4  11  21  40  61  87 132 168 211 266 320 392
#     4   9  22  40  62  92 128 165 210 269 323 368
#     4  11  17  35  68  89 125 164 220 262 309 398
#     4   9  21  41  61  93 128 167 211 269 329 370
#     4  10  22  37  65  94 122 168 211 261 322 385
#
# _framework density 27.616690999999999
#
# number of rings (size 3 to 8) (size 9 to 14) (size 15 to 20)
#    1.200    0.800    4.000    3.000    0.000    2.400 
#    0.000    0.000    4.400    6.000    0.000    0.000 
#    0.000    0.000    0.000    0.000    0.000    0.000 
#
# Total GULP energy -111787.839995 kJ/mol
# GULP energy per Si atom -5589.392000 kJ/mol
# Density = 2.755383 g / cm^3
# Si number density = 27.616691 Si / 1000 Ang^3
#
#
#
# Elastic Constant Matrix: (Units=GPa)
#
#
# Indices 1 2 3 4 5 6 
#
# 1 157.1393 21.5079 26.3308 0.0000 1.0309 0.0000
# 2 21.5079 105.2986 27.2772 0.0000 -14.4293 0.0000
# 3 26.3308 27.2772 140.4268 0.0000 -14.8862 0.0000
# 4 0.0000 0.0000 0.0000 37.6260 0.0000 -16.6900
# 5 1.0309 -14.4293 -14.8862 0.0000 50.7722 0.0000
# 6 0.0000 0.0000 0.0000 -16.6900 0.0000 34.4096
#
#
#
# Elastic Compliance Matrix: (Units=1/GPa)
#
#
# Indices 1 2 3 4 5 6 
#
# 1 0.006719 -0.001194 -0.001113 0.000000 -0.000802 0.000000
# 2 -0.001194 0.010490 -0.001543 0.000000 0.002553 0.000000
# 3 -0.001113 -0.001543 0.007829 0.000000 0.001879 0.000000
# 4 0.000000 0.000000 0.000000 0.033863 0.000000 0.016425
# 5 -0.000802 0.002553 0.001879 0.000000 0.020989 0.000000
# 6 0.000000 0.000000 0.000000 0.016425 0.000000 0.037028
#
#
# Mechanical properties :
#
#
# Convention : Reuss Voigt Hill
#
# Bulk Modulus (GPa) = 57.67720 61.45517 59.56618
# Shear Modulus (GPa) = 38.34422 46.41147 42.37785
#
# Velocity S-wave (km/s) = 3.73023 4.10391 3.92152
# Velocity P-wave (km/s) = 6.28355 6.69009 6.49001
#
# Compressibility (1/GPa) = 0.01733787
#
# Stress axis : x y z
#
# Youngs Moduli (GPa) = 148.83275 95.32624 127.73327
#
# Poissons Ratio (x) = 0.11382 0.14216
# Poissons Ratio (y) = 0.17771 0.19711
# Poissons Ratio (z) = 0.16564 0.14710
#
# Static dielectric constant tensor:
#      x y z
#    x 2.128180 0.000000 0.036970 
#    y 0.000000 2.263540 0.000000 
#    z 0.036970 0.000000 2.110510 
# 
# From -- ./inp_files/238134.got.cif
#   From: 2010.05.17/outbox.cif.g08.bks.cpg/sg15_120_cif.got.tgz:238134.got - 2010.06.03 18:47:42.
