data_PCOD9287980
_publ_section_title
;
Structure prediction by ZEFSAII (Michael W. Deem and Ramdas Pophale) SiO2 
 PCOD9287980
Probable space group: C 2/C
;
_chemical_formula_sum "Si O2"
_cell_formula_units_Z 40
_cell_length_a 18.244106
_cell_length_b 16.221882
_cell_length_c 8.844254
_cell_angle_alpha 90.000000
_cell_angle_beta 43.570723
_cell_angle_gamma 90.000000
_cell_volume 1804.103456
_symmetry_space_group_name_H-M "C 2/C"
_symmetry_group_IT_number 15
_symmetry_cell_setting 'monoclinic'
loop_
_space_group_symop_operation_xyz
x,y,z
-x,y,1/2-z
-x,-y,-z
x,-y,1/2+z
1/2+x,1/2+y,z
1/2-x,1/2+y,1/2-z
1/2-x,1/2-y,-z
1/2+x,1/2-y,1/2+z
loop_
_atom_site_type_symbol
_atom_site_label
_atom_site_fract_x
_atom_site_fract_y
_atom_site_fract_z
Si Si1 0.386957 0.051091 0.493269
Si Si2 0.801349 0.735858 0.586482
Si Si3 0.400021 0.612604 0.826695
Si Si4 0.887039 0.835888 0.991522
Si Si5 0.259430 0.970493 0.451425
O O1 0.500000 0.037674 0.250000
O O2 0.353205 0.145748 0.511120
O O3 0.300219 0.986043 0.559089
O O4 0.368850 0.043300 0.697655
O O5 0.750000 0.750000 0.500000
O O6 0.886029 0.808944 0.460053
O O7 0.703143 0.734724 0.850346
O O8 0.500000 0.565802 0.750000
O O9 0.407800 0.632145 0.634511
O O10 0.297316 0.556704 0.997643
O O11 0.825221 0.902261 0.977622
O O12 0.000000 0.813291 0.750000
#
# Coordination Sequence:
#
# PCOD9287980 Si02
#       5
#     8   8   8   8   8
#     4  11  22  38  63  85 119 158 199 242 291 347
#     4   9  18  41  60  83 117 156 196 237 287 357
#     4  11  22  38  66  86 116 161 195 236 298 353
#     4  10  22  38  61  88 123 150 193 247 294 340
#     4  11  21  38  59  89 121 153 197 245 287 349
#
# _framework density 22.171676999999999
#
# number of rings (size 3 to 8) (size 9 to 14) (size 15 to 20)
#    0.000    1.600    6.000    1.800    2.800    1.600 
#    0.000    2.000    4.400    0.000    0.000    0.000 
#    0.000    0.000    0.000    0.000    0.000    0.000 
#
# Total GULP energy -111364.357341 kJ/mol
# GULP energy per Si atom -5568.217867 kJ/mol
# Density = 2.212121 g / cm^3
# Si number density = 22.171677 Si / 1000 Ang^3
#
#
#
# Elastic Constant Matrix: (Units=GPa)
#
#
# Indices 1 2 3 4 5 6 
#
# 1 31.4256 1.3864 12.8645 0.0000 -11.0971 0.0000
# 2 1.3864 33.3744 27.0867 0.0000 5.0030 0.0000
# 3 12.8645 27.0867 151.0433 0.0000 -26.0380 0.0000
# 4 0.0000 0.0000 0.0000 19.4525 0.0000 7.6543
# 5 -11.0971 5.0030 -26.0380 0.0000 34.4170 0.0000
# 6 0.0000 0.0000 0.0000 7.6543 0.0000 11.4595
#
#
#
# Elastic Compliance Matrix: (Units=1/GPa)
#
#
# Indices 1 2 3 4 5 6 
#
# 1 0.036303 -0.002787 -0.000580 0.000000 0.011671 0.000000
# 2 -0.002787 0.039598 -0.009212 0.000000 -0.013624 0.000000
# 3 -0.000580 -0.009212 0.009799 0.000000 0.008565 0.000000
# 4 0.000000 0.000000 0.000000 0.069735 0.000000 -0.046579
# 5 0.011671 -0.013624 0.008565 0.000000 0.041279 0.000000
# 6 0.000000 0.000000 0.000000 -0.046579 0.000000 0.118376
#
#
# Mechanical properties :
#
#
# Convention : Reuss Voigt Hill
#
# Bulk Modulus (GPa) = 16.51774 33.16872 24.84323
# Shear Modulus (GPa) = 13.87235 24.69953 19.28594
#
# Velocity S-wave (km/s) = 2.50407 3.34130 2.95251
# Velocity P-wave (km/s) = 3.97827 5.46609 4.78042
#
# Compressibility (1/GPa) = 0.06054097
#
# Stress axis : x y z
#
# Youngs Moduli (GPa) = 27.54589 25.25375 102.05495
#
# Poissons Ratio (x) = 0.07037 0.05922
# Poissons Ratio (y) = 0.07676 0.94018
# Poissons Ratio (z) = 0.01598 0.23265
#
# Static dielectric constant tensor:
#      x y z
#    x 1.842560 0.000000 -0.014170 
#    y 0.000000 1.889640 0.000000 
#    z -0.014170 0.000000 1.850370 
# 
# From -- ./inp_files/38078.got.cif
#   From: 2010.05.17/outbox.cif.g08.bks.cpg/sg15_20_cif.got.tgz:38078.got - 2010.06.03 18:47:42.
