data_PCOD9287637
_publ_section_title
;
Structure prediction by ZEFSAII (Michael W. Deem and Ramdas Pophale) SiO2 
 PCOD9287637
Probable space group: C 2/C
;
_chemical_formula_sum "Si O2"
_cell_formula_units_Z 56
_cell_length_a 22.963220
_cell_length_b 9.418128
_cell_length_c 14.908467
_cell_angle_alpha 90.000000
_cell_angle_beta 52.484885
_cell_angle_gamma 90.000000
_cell_volume 2557.461365
_symmetry_space_group_name_H-M "C 2/C"
_symmetry_group_IT_number 15
_symmetry_cell_setting 'monoclinic'
loop_
_space_group_symop_operation_xyz
x,y,z
-x,y,1/2-z
-x,-y,-z
x,-y,1/2+z
1/2+x,1/2+y,z
1/2-x,1/2+y,1/2-z
1/2-x,1/2-y,-z
1/2+x,1/2-y,1/2+z
loop_
_atom_site_type_symbol
_atom_site_label
_atom_site_fract_x
_atom_site_fract_y
_atom_site_fract_z
Si Si1 0.093116 0.423571 0.226568
Si Si2 0.475128 0.301628 0.575836
Si Si3 0.755122 0.907516 0.133667
Si Si4 0.762185 0.643675 0.227563
Si Si5 0.598919 0.320688 0.597667
Si Si6 0.411721 0.796481 0.673638
Si Si7 0.138662 0.987897 0.739703
O O1 0.181365 0.411460 0.147142
O O2 0.076367 0.336919 0.152062
O O3 0.073125 0.585554 0.265175
O O4 0.061172 0.332632 0.339569
O O5 0.537902 0.363052 0.583330
O O6 0.516338 0.251149 0.448164
O O7 0.411614 0.419578 0.633904
O O8 0.741499 0.807153 0.232690
O O9 0.769894 0.064746 0.155317
O O10 0.822407 0.833963 0.022039
O O11 0.850194 0.638191 0.162232
O O12 0.721343 0.565101 0.182890
O O13 0.607363 0.417119 0.678382
O O14 0.373462 0.655252 0.748267
#
# Coordination Sequence:
#
# PCOD9287637 Si02
#       7
#     8   8   8   8   8   8   8
#     4  10  22  37  61  87 116 152 199 238 291 348
#     4  11  21  39  62  84 115 162 198 230 291 351
#     4  11  21  38  62  84 117 153 193 244 291 344
#     4  11  20  38  60  89 115 149 197 244 286 345
#     4  11  22  40  61  84 117 161 194 231 298 354
#     4  11  23  39  60  90 119 149 197 250 285 339
#     4  11  22  37  61  88 119 153 197 241 290 347
#
# _framework density 21.896712999999998
#
# number of rings (size 3 to 8) (size 9 to 14) (size 15 to 20)
#    0.000    1.143    5.714    3.000    0.000    0.000 
#    0.000    7.143    0.000    0.000    0.000    0.000 
#    0.000    0.000    0.000    0.000    0.000    0.000 
#
# Total GULP energy -156226.739675 kJ/mol
# GULP energy per Si atom -5579.526417 kJ/mol
# Density = 2.184687 g / cm^3
# Si number density = 21.896713 Si / 1000 Ang^3
#
#
#
# Elastic Constant Matrix: (Units=GPa)
#
#
# Indices 1 2 3 4 5 6 
#
# 1 50.0303 1.4584 20.4891 0.0000 -10.6348 0.0000
# 2 1.4584 120.0050 39.3801 0.0000 1.8235 0.0000
# 3 20.4891 39.3801 77.8441 0.0000 -10.7470 0.0000
# 4 0.0000 0.0000 0.0000 22.0555 0.0000 0.1615
# 5 -10.6348 1.8235 -10.7470 0.0000 22.1588 0.0000
# 6 0.0000 0.0000 0.0000 0.1615 0.0000 24.5492
#
#
#
# Elastic Compliance Matrix: (Units=1/GPa)
#
#
# Indices 1 2 3 4 5 6 
#
# 1 0.024213 0.001531 -0.005959 0.000000 0.008604 0.000000
# 2 0.001531 0.010350 -0.006061 0.000000 -0.003056 0.000000
# 3 -0.005959 -0.006061 0.018386 0.000000 0.006556 0.000000
# 4 0.000000 0.000000 0.000000 0.045342 0.000000 -0.000298
# 5 0.008604 -0.003056 0.006556 0.000000 0.052689 0.000000
# 6 0.000000 0.000000 0.000000 -0.000298 0.000000 0.040737
#
#
# Mechanical properties :
#
#
# Convention : Reuss Voigt Hill
#
# Bulk Modulus (GPa) = 31.27977 41.17051 36.22514
# Shear Modulus (GPa) = 22.38624 26.18949 24.28787
#
# Velocity S-wave (km/s) = 3.20090 3.46214 3.33408
# Velocity P-wave (km/s) = 5.28934 5.90126 5.60366
#
# Compressibility (1/GPa) = 0.03196954
#
# Stress axis : x y z
#
# Youngs Moduli (GPa) = 41.30039 96.62203 54.39011
#
# Poissons Ratio (x) = -0.14789 0.32413
# Poissons Ratio (y) = -0.06321 0.32963
# Poissons Ratio (z) = 0.24612 0.58558
#
# Static dielectric constant tensor:
#      x y z
#    x 1.845480 0.000000 -0.002990 
#    y 0.000000 1.809050 0.000000 
#    z -0.002990 0.000000 1.837810 
# 
# From -- ./inp_files/218533.got.cif
#   From: 2010.05.17/outbox.cif.g08.bks.cpg/sg15_110_cif.got.tgz:218533.got - 2010.06.03 18:47:42.
