data_PCOD9287334
_publ_section_title
;
Structure prediction by ZEFSAII (Michael W. Deem and Ramdas Pophale) SiO2 
 PCOD9287334
Probable space group: C 2/C
;
_chemical_formula_sum "Si O2"
_cell_formula_units_Z 56
_cell_length_a 14.128339
_cell_length_b 29.146304
_cell_length_c 15.725445
_cell_angle_alpha 90.000000
_cell_angle_beta 152.672729
_cell_angle_gamma 90.000000
_cell_volume 2972.752671
_symmetry_space_group_name_H-M "C 2/C"
_symmetry_group_IT_number 15
_symmetry_cell_setting 'monoclinic'
loop_
_space_group_symop_operation_xyz
x,y,z
-x,y,1/2-z
-x,-y,-z
x,-y,1/2+z
1/2+x,1/2+y,z
1/2-x,1/2+y,1/2-z
1/2-x,1/2-y,-z
1/2+x,1/2-y,1/2+z
loop_
_atom_site_type_symbol
_atom_site_label
_atom_site_fract_x
_atom_site_fract_y
_atom_site_fract_z
Si Si1 0.901239 0.069719 0.257247
Si Si2 0.948238 0.791611 0.806729
Si Si3 0.686844 0.975322 0.099754
Si Si4 0.366396 0.815652 0.225466
Si Si5 0.013579 0.054990 0.526619
Si Si6 0.426646 0.143479 0.455607
Si Si7 0.558697 0.094184 0.202304
O O1 0.042440 0.074391 0.454139
O O2 0.695669 0.098111 0.112303
O O3 0.000000 0.087187 0.250000
O O4 0.838316 0.016625 0.195394
O O5 0.000000 0.802578 0.750000
O O6 0.940255 0.736531 0.804175
O O7 0.738006 0.815379 0.667080
O O8 0.131998 0.811162 0.009837
O O9 0.808852 0.941576 0.261340
O O10 0.589348 0.947706 0.944375
O O11 0.500000 0.000000 0.000000
O O12 0.500000 0.831602 0.250000
O O13 0.401105 0.845114 0.337469
O O14 0.795134 0.075797 0.383590
O O15 0.000000 0.000000 0.500000
O O16 0.477717 0.132968 0.398626
O O17 0.500000 0.108594 0.250000
#
# Coordination Sequence:
#
# PCOD9287334 Si02
#       7
#     8   8   8   8   8   8   8
#     4  10  22  36  55  84 120 152 187 244 293 346
#     4  11  19  36  61  91 127 155 191 228 293 376
#     4  11  20  39  59  80 114 153 205 242 295 354
#     4  11  20  35  62  92 122 161 188 225 298 376
#     4   9  19  37  56  80 109 143 195 245 285 343
#     4  11  22  39  55  88 125 148 197 247 290 352
#     4  11  25  41  61  82 116 162 205 255 296 341
#
# _framework density 18.837758999999998
#
# number of rings (size 3 to 8) (size 9 to 14) (size 15 to 20)
#    0.000    1.429    7.143    1.286    4.000    2.286 
#    0.000    0.714    0.000    0.857    0.000    0.000 
#    0.000    0.000    0.000    0.000    0.000    0.000 
#
# Total GULP energy -156316.999073 kJ/mol
# GULP energy per Si atom -5582.749967 kJ/mol
# Density = 1.879488 g / cm^3
# Si number density = 18.837759 Si / 1000 Ang^3
#
#
#
# Elastic Constant Matrix: (Units=GPa)
#
#
# Indices 1 2 3 4 5 6 
#
# 1 113.7283 27.2431 34.9543 0.0000 -34.5254 0.0000
# 2 27.2431 58.9715 20.2424 0.0000 -20.7633 0.0000
# 3 34.9543 20.2424 138.8559 -0.0002 -23.1795 0.0001
# 4 0.0000 0.0000 -0.0002 31.1915 -0.0001 -11.2552
# 5 -34.5254 -20.7633 -23.1795 -0.0001 26.9509 0.0000
# 6 0.0000 0.0000 0.0001 -11.2552 0.0000 20.5889
#
#
#
# Elastic Compliance Matrix: (Units=1/GPa)
#
#
# Indices 1 2 3 4 5 6 
#
# 1 0.014438 -0.000181 -0.000635 0.000000 0.017810 0.000000
# 2 -0.000181 0.023297 -0.000459 0.000000 0.017322 0.000000
# 3 -0.000635 -0.000459 0.008446 0.000000 0.006097 0.000000
# 4 0.000000 0.000000 0.000000 0.039938 0.000000 0.021833
# 5 0.017810 0.017322 0.006097 0.000000 0.078510 0.000000
# 6 0.000000 0.000000 0.000000 0.021833 0.000000 0.060505
#
#
# Mechanical properties :
#
#
# Convention : Reuss Voigt Hill
#
# Bulk Modulus (GPa) = 22.91929 52.93725 37.92827
# Shear Modulus (GPa) = 20.64159 31.02065 25.83112
#
# Velocity S-wave (km/s) = 3.31381 4.06239 3.70705
# Velocity P-wave (km/s) = 5.18024 7.08285 6.20490
#
# Compressibility (1/GPa) = 0.04363136
#
# Stress axis : x y z
#
# Youngs Moduli (GPa) = 69.26007 42.92317 118.39490
#
# Poissons Ratio (x) = 0.00778 0.07518
# Poissons Ratio (y) = 0.01255 0.05436
# Poissons Ratio (z) = 0.04398 0.01971
#
# Static dielectric constant tensor:
#      x y z
#    x 1.649600 0.000000 0.001620 
#    y 0.000000 1.687010 0.000000 
#    z 0.001620 0.000000 1.702430 
# 
# From -- ./inp_files/157226.got.cif
#   From: 2010.05.17/outbox.cif.g08.bks.cpg/sg15_79_cif.got.tgz:157226.got - 2010.06.03 18:47:42.
