data_PCOD9287490
_publ_section_title
;
Structure prediction by ZEFSAII (Michael W. Deem and Ramdas Pophale) SiO2 
 PCOD9287490
Probable space group: C 2/C
;
_chemical_formula_sum "Si O2"
_cell_formula_units_Z 48
_cell_length_a 20.983857
_cell_length_b 15.738497
_cell_length_c 14.471222
_cell_angle_alpha 90.000000
_cell_angle_beta 152.432233
_cell_angle_gamma 90.000000
_cell_volume 2211.794114
_symmetry_space_group_name_H-M "C 2/C"
_symmetry_group_IT_number 15
_symmetry_cell_setting 'monoclinic'
loop_
_space_group_symop_operation_xyz
x,y,z
-x,y,1/2-z
-x,-y,-z
x,-y,1/2+z
1/2+x,1/2+y,z
1/2-x,1/2+y,1/2-z
1/2-x,1/2-y,-z
1/2+x,1/2-y,1/2+z
loop_
_atom_site_type_symbol
_atom_site_label
_atom_site_fract_x
_atom_site_fract_y
_atom_site_fract_z
Si Si1 0.644672 0.516773 0.474828
Si Si2 0.862062 0.485393 0.116037
Si Si3 0.631390 0.716326 0.473055
Si Si4 0.566264 0.729688 0.111993
Si Si5 0.510095 0.094428 0.970027
Si Si6 0.301673 0.428803 0.775636
O O1 0.500000 0.486835 0.250000
O O2 0.764573 0.472832 0.568454
O O3 0.651969 0.618415 0.469067
O O4 0.656174 0.501730 0.598687
O O5 0.933556 0.412804 0.272257
O O6 0.000000 0.528267 0.250000
O O7 0.757512 0.459977 0.899246
O O8 0.500000 0.752101 0.250000
O O9 0.563843 0.717115 0.488135
O O10 0.776262 0.763646 0.645193
O O11 0.549405 0.825506 0.050735
O O12 0.580927 0.642199 0.076152
O O13 0.667838 0.111271 0.151494
O O14 0.500000 0.000000 0.000000
#
# Coordination Sequence:
#
# PCOD9287490 Si02
#       6
#     8   8   8   8   8   8
#     4  11  23  43  62  90 133 166 208 267 320 373
#     4  10  22  36  64  96 124 171 209 253 314 383
#     4  11  23  35  57  88 129 165 200 260 323 380
#     4  12  23  36  61  93 126 167 209 264 321 381
#     4  11  21  40  63  89 131 170 209 255 321 388
#     4  11  23  39  66  95 128 165 217 261 320 390
#
# _framework density 21.701839
#
# number of rings (size 3 to 8) (size 9 to 14) (size 15 to 20)
#    0.000    1.000    5.000    2.500    2.333    2.667 
#    0.000    0.000    0.000    6.000    0.000    0.000 
#    0.000    0.000    0.000    0.000    0.000    0.000 
#
# Total GULP energy -133611.883016 kJ/mol
# GULP energy per Si atom -5567.161792 kJ/mol
# Density = 2.165244 g / cm^3
# Si number density = 21.701839 Si / 1000 Ang^3
#
#
#
# Elastic Constant Matrix: (Units=GPa)
#
#
# Indices 1 2 3 4 5 6 
#
# 1 92.9415 33.3338 23.0201 0.0000 2.0505 0.0000
# 2 33.3338 42.5189 9.3753 0.0000 -11.5804 0.0000
# 3 23.0201 9.3753 70.0241 0.0000 -4.2098 0.0000
# 4 0.0000 0.0000 0.0000 12.0182 0.0000 1.7188
# 5 2.0505 -11.5804 -4.2098 0.0000 39.4609 0.0000
# 6 0.0000 0.0000 0.0000 1.7188 0.0000 17.3405
#
#
#
# Elastic Compliance Matrix: (Units=1/GPa)
#
#
# Indices 1 2 3 4 5 6 
#
# 1 0.016795 -0.013736 -0.004003 0.000000 -0.005331 0.000000
# 2 -0.013736 0.037434 0.000208 0.000000 0.011722 0.000000
# 3 -0.004003 0.000208 0.015686 0.000000 0.001943 0.000000
# 4 0.000000 0.000000 0.000000 0.084403 0.000000 -0.008366
# 5 -0.005331 0.011722 0.001943 0.000000 0.029266 0.000000
# 6 0.000000 0.000000 0.000000 -0.008366 0.000000 0.058498
#
#
# Mechanical properties :
#
#
# Convention : Reuss Voigt Hill
#
# Bulk Modulus (GPa) = 28.69110 37.43812 33.06461
# Shear Modulus (GPa) = 17.31538 23.08094 20.19816
#
# Velocity S-wave (km/s) = 2.82773 3.26475 3.05407
# Velocity P-wave (km/s) = 4.88986 5.61249 5.26359
#
# Compressibility (1/GPa) = 0.03485402
#
# Stress axis : x y z
#
# Youngs Moduli (GPa) = 59.54154 26.71343 63.75300
#
# Poissons Ratio (x) = 0.36694 0.25518
# Poissons Ratio (y) = 0.81787 -0.01329
# Poissons Ratio (z) = 0.23832 -0.00557
#
# Static dielectric constant tensor:
#      x y z
#    x 1.892280 0.000000 0.016230 
#    y 0.000000 1.877820 0.000000 
#    z 0.016230 0.000000 1.868610 
# 
# From -- ./inp_files/168899.got.cif
#   From: 2010.05.17/outbox.cif.g08.bks.cpg/sg15_85_cif.got.tgz:168899.got - 2010.06.03 18:47:42.
