data_PCOD9287703
_publ_section_title
;
Structure prediction by ZEFSAII (Michael W. Deem and Ramdas Pophale) SiO2 
 PCOD9287703
Probable space group: C 2/C
;
_chemical_formula_sum "Si O2"
_cell_formula_units_Z 56
_cell_length_a 19.137275
_cell_length_b 6.586350
_cell_length_c 24.376484
_cell_angle_alpha 90.000000
_cell_angle_beta 52.335373
_cell_angle_gamma 90.000000
_cell_volume 2432.216665
_symmetry_space_group_name_H-M "C 2/C"
_symmetry_group_IT_number 15
_symmetry_cell_setting 'monoclinic'
loop_
_space_group_symop_operation_xyz
x,y,z
-x,y,1/2-z
-x,-y,-z
x,-y,1/2+z
1/2+x,1/2+y,z
1/2-x,1/2+y,1/2-z
1/2-x,1/2-y,-z
1/2+x,1/2-y,1/2+z
loop_
_atom_site_type_symbol
_atom_site_label
_atom_site_fract_x
_atom_site_fract_y
_atom_site_fract_z
Si Si1 0.218693 0.834054 0.131593
Si Si2 0.044619 0.628604 0.786844
Si Si3 0.169986 0.977278 0.862104
Si Si4 0.521430 0.399866 0.579275
Si Si5 0.178002 0.380657 0.001953
Si Si6 0.277241 0.329281 0.783094
Si Si7 0.571114 0.209904 0.121627
O O1 0.275460 0.632019 0.116035
O O2 0.125963 0.790406 0.147063
O O3 0.207152 0.963716 0.192082
O O4 0.273498 0.983840 0.066033
O O5 0.008505 0.778933 0.851182
O O6 0.147791 0.669722 0.734445
O O7 0.000000 0.672275 0.750000
O O8 0.018130 0.401782 0.817039
O O9 0.066435 0.925267 0.914529
O O10 0.207544 0.876661 0.787698
O O11 0.187974 0.215961 0.843804
O O12 0.601555 0.268983 0.516289
O O13 0.554583 0.615405 0.585520
O O14 0.131512 0.536213 0.065837
O O15 0.250000 0.250000 0.000000
#
# Coordination Sequence:
#
# PCOD9287703 Si02
#       7
#     8   8   8   8   8   8   8
#     4  12  25  42  73  98 133 185 223 273 348 399
#     4  10  22  37  63  98 134 167 224 272 336 401
#     4  11  25  42  66 101 136 179 221 272 334 413
#     4  10  24  43  65  97 137 174 220 286 333 394
#     4  11  25  45  71  98 134 171 233 289 331 401
#     4  11  24  42  66  95 139 175 219 268 333 407
#     4  11  24  42  70 100 132 175 228 285 338 392
#
# _framework density 23.024266000000001
#
# number of rings (size 3 to 8) (size 9 to 14) (size 15 to 20)
#    0.000    1.143    2.857    2.143    6.000    4.571 
#    0.000    1.429    0.000    0.000    0.000    0.000 
#    0.000    0.000    0.000    0.000    0.000    0.000 
#
# Total GULP energy -156780.922781 kJ/mol
# GULP energy per Si atom -5599.318671 kJ/mol
# Density = 2.297186 g / cm^3
# Si number density = 23.024266 Si / 1000 Ang^3
#
#
#
# Elastic Constant Matrix: (Units=GPa)
#
#
# Indices 1 2 3 4 5 6 
#
# 1 60.3450 24.2972 -7.1158 -0.0024 -6.2455 0.0008
# 2 24.2972 97.6094 2.8855 0.0057 -11.9483 0.0000
# 3 -7.1158 2.8855 41.7774 0.0019 -6.5399 -0.0013
# 4 -0.0024 0.0057 0.0019 37.4929 -0.0001 1.8842
# 5 -6.2455 -11.9483 -6.5399 -0.0001 25.9943 0.0003
# 6 0.0008 0.0000 -0.0013 1.8842 0.0003 41.5975
#
#
#
# Elastic Compliance Matrix: (Units=1/GPa)
#
#
# Indices 1 2 3 4 5 6 
#
# 1 0.019234 -0.004468 0.004150 0.000002 0.003611 0.000000
# 2 -0.004468 0.011894 -0.000931 -0.000002 0.004159 0.000000
# 3 0.004150 -0.000931 0.025813 -0.000001 0.007063 0.000001
# 4 0.000002 -0.000002 -0.000001 0.026733 -0.000001 -0.001211
# 5 0.003611 0.004159 0.007063 -0.000001 0.043026 0.000000
# 6 0.000000 0.000000 0.000001 -0.001211 0.000000 0.024095
#
#
# Mechanical properties :
#
#
# Convention : Reuss Voigt Hill
#
# Bulk Modulus (GPa) = 18.36848 26.65173 22.51011
# Shear Modulus (GPa) = 29.16452 32.99460 31.07956
#
# Velocity S-wave (km/s) = 3.56291 3.78965 3.67803
# Velocity P-wave (km/s) = 4.99210 5.54520 5.27590
#
# Compressibility (1/GPa) = 0.05444107
#
# Stress axis : x y z
#
# Youngs Moduli (GPa) = 51.99230 84.07719 38.73973
#
# Poissons Ratio (x) = 0.37568 -0.16077
# Poissons Ratio (y) = 0.23232 0.03609
# Poissons Ratio (z) = -0.21577 0.07832
#
# Static dielectric constant tensor:
#      x y z
#    x 1.846990 -0.000010 -0.022560 
#    y -0.000010 1.863120 0.000000 
#    z -0.022560 0.000000 1.890490 
# 
# From -- ./inp_files/299879.got.cif
#   From: 2010.05.17/outbox.cif.g08.bks.cpg/sg15_150_cif.got.tgz:299879.got - 2010.06.03 18:47:42.
