data_PCOD9287271
_publ_section_title
;
Structure prediction by ZEFSAII (Michael W. Deem and Ramdas Pophale) SiO2 
 PCOD9287271
Probable space group: C 2/C
;
_chemical_formula_sum "Si O2"
_cell_formula_units_Z 44
_cell_length_a 12.961332
_cell_length_b 23.620680
_cell_length_c 10.698338
_cell_angle_alpha 90.000000
_cell_angle_beta 41.956236
_cell_angle_gamma 90.000000
_cell_volume 2189.780276
_symmetry_space_group_name_H-M "C 2/C"
_symmetry_group_IT_number 15
_symmetry_cell_setting 'monoclinic'
loop_
_space_group_symop_operation_xyz
x,y,z
-x,y,1/2-z
-x,-y,-z
x,-y,1/2+z
1/2+x,1/2+y,z
1/2-x,1/2+y,1/2-z
1/2-x,1/2-y,-z
1/2+x,1/2-y,1/2+z
loop_
_atom_site_type_symbol
_atom_site_label
_atom_site_fract_x
_atom_site_fract_y
_atom_site_fract_z
Si Si1 0.413569 0.570985 0.960700
Si Si2 0.883487 0.943984 0.971820
Si Si3 0.284441 0.819446 0.830802
Si Si4 0.234287 0.171849 0.893200
Si Si5 0.000000 0.755691 0.750000
Si Si6 0.619233 0.205411 0.972280
O O1 0.500000 0.582586 0.750000
O O2 0.332825 0.509396 0.020340
O O3 0.530491 0.566734 0.973001
O O4 0.292928 0.619750 0.103273
O O5 0.000000 0.939925 0.750000
O O6 0.764178 0.892641 0.062053
O O7 0.440511 0.810244 0.610200
O O8 0.159440 0.771127 0.914180
O O9 0.338888 0.808018 0.923211
O O10 0.368954 0.213409 0.818804
O O11 0.262337 0.171392 0.720409
O O12 0.078893 0.202267 0.079141
#
# Coordination Sequence:
#
# PCOD9287271 Si02
#       6
#     8   8   8   8   4   8
#     4  10  22  39  63  87 116 161 201 248 289 353
#     4  10  22  39  61  88 118 156 206 243 291 351
#     4  10  22  37  56  90 118 152 197 241 296 359
#     4  11  21  40  56  86 117 157 193 249 288 361
#     4  10  24  34  58  84 118 152 198 234 306 344
#     4  10  22  35  58  86 121 153 189 243 306 346
#
# _framework density 20.093339
#
# number of rings (size 3 to 8) (size 9 to 14) (size 15 to 20)
#    0.000    1.818    0.909    2.182   10.182    1.455 
#    0.000    2.727    0.000    0.000    0.000    0.000 
#    0.000    0.000    0.000    0.000    0.000    0.000 
#
# Total GULP energy -122780.823026 kJ/mol
# GULP energy per Si atom -5580.946501 kJ/mol
# Density = 2.004761 g / cm^3
# Si number density = 20.093339 Si / 1000 Ang^3
#
#
#
# Elastic Constant Matrix: (Units=GPa)
#
#
# Indices 1 2 3 4 5 6 
#
# 1 41.3765 11.0096 21.2772 0.0000 -3.0849 0.0000
# 2 11.0096 175.7594 65.7739 0.0000 -26.7039 0.0000
# 3 21.2772 65.7739 134.0885 0.0000 -3.2771 0.0000
# 4 0.0000 0.0000 0.0000 18.1298 0.0000 -10.9294
# 5 -3.0849 -26.7039 -3.2771 0.0000 29.0105 0.0000
# 6 0.0000 0.0000 0.0000 -10.9294 0.0000 12.6853
#
#
#
# Elastic Compliance Matrix: (Units=1/GPa)
#
#
# Indices 1 2 3 4 5 6 
#
# 1 0.026490 0.000360 -0.004315 0.000000 0.002660 0.000000
# 2 0.000360 0.008220 -0.003914 0.000000 0.007163 0.000000
# 3 -0.004315 -0.003914 0.009991 0.000000 -0.002933 0.000000
# 4 0.000000 0.000000 0.000000 0.114767 0.000000 0.098881
# 5 0.002660 0.007163 -0.002933 0.000000 0.041015 0.000000
# 6 0.000000 0.000000 0.000000 0.098881 0.000000 0.164025
#
#
# Mechanical properties :
#
#
# Convention : Reuss Voigt Hill
#
# Bulk Modulus (GPa) = 34.52816 60.81622 47.67219
# Shear Modulus (GPa) = 12.82381 28.84273 20.83327
#
# Velocity S-wave (km/s) = 2.52903 3.79283 3.22347
# Velocity P-wave (km/s) = 5.07436 7.03657 6.13443
#
# Compressibility (1/GPa) = 0.02896187
#
# Stress axis : x y z
#
# Youngs Moduli (GPa) = 37.75044 121.65287 100.09257
#
# Poissons Ratio (x) = -0.04374 0.43188
# Poissons Ratio (y) = -0.01357 0.39178
# Poissons Ratio (z) = 0.16288 0.47617
#
# Static dielectric constant tensor:
#      x y z
#    x 1.753880 0.000000 0.039390 
#    y 0.000000 1.706610 0.000000 
#    z 0.039390 0.000000 1.749350 
# 
# From -- ./inp_files/99661.got.cif
#   From: 2010.05.17/outbox.cif.g08.bks.cpg/sg15_50_cif.got.tgz:99661.got - 2010.06.03 18:47:42.
