data_PCOD9287022
_publ_section_title
;
Structure prediction by ZEFSAII (Michael W. Deem and Ramdas Pophale) SiO2 
 PCOD9287022
Probable space group: C 2/C
;
_chemical_formula_sum "Si O2"
_cell_formula_units_Z 44
_cell_length_a 27.842682
_cell_length_b 14.993181
_cell_length_c 8.166039
_cell_angle_alpha 90.000000
_cell_angle_beta 148.904232
_cell_angle_gamma 90.000000
_cell_volume 1760.603129
_symmetry_space_group_name_H-M "C 2/C"
_symmetry_group_IT_number 15
_symmetry_cell_setting 'monoclinic'
loop_
_space_group_symop_operation_xyz
x,y,z
-x,y,1/2-z
-x,-y,-z
x,-y,1/2+z
1/2+x,1/2+y,z
1/2-x,1/2+y,1/2-z
1/2-x,1/2-y,-z
1/2+x,1/2-y,1/2+z
loop_
_atom_site_type_symbol
_atom_site_label
_atom_site_fract_x
_atom_site_fract_y
_atom_site_fract_z
Si Si1 0.139702 0.884887 0.347160
Si Si2 0.171120 0.637098 0.223149
Si Si3 0.949173 0.780353 0.804901
Si Si4 0.608923 0.418092 0.621614
Si Si5 0.500000 0.152775 0.250000
Si Si6 0.104853 0.467361 0.848165
O O1 0.222927 0.835802 0.498197
O O2 0.039829 0.838985 0.026623
O O3 0.157049 0.889140 0.593306
O O4 0.134503 0.984264 0.258460
O O5 0.099240 0.713845 0.963206
O O6 0.147111 0.593124 0.328091
O O7 0.158746 0.555043 0.058494
O O8 0.982613 0.714205 0.045129
O O9 0.880515 0.849601 0.697111
O O10 0.500000 0.420041 0.250000
O O11 0.411637 0.092664 0.038652
O O12 0.000000 0.500000 0.500000
#
# Coordination Sequence:
#
# PCOD9287022 Si02
#       6
#     8   8   8   8   4   8
#     4  11  24  47  72 107 144 182 239 295 356 417
#     4  12  25  45  75 107 141 187 239 294 351 424
#     4  11  23  45  70 105 143 189 237 286 359 420
#     4  10  21  45  73 100 143 192 232 292 359 420
#     4  12  22  44  74  98 142 190 230 284 358 424
#     4  12  23  44  72  99 142 190 228 283 359 421
#
# _framework density 24.991434000000002
#
# number of rings (size 3 to 8) (size 9 to 14) (size 15 to 20)
#    0.000    0.727    6.364    3.273    0.000    0.727 
#   13.091    0.909    0.000    0.000    0.000    0.000 
#    0.000    0.000    0.000    0.000    0.000    0.000 
#
# Total GULP energy -123309.116820 kJ/mol
# GULP energy per Si atom -5604.959855 kJ/mol
# Density = 2.493455 g / cm^3
# Si number density = 24.991434 Si / 1000 Ang^3
#
#
#
# Elastic Constant Matrix: (Units=GPa)
#
#
# Indices 1 2 3 4 5 6 
#
# 1 194.0014 67.8353 48.4602 0.0000 11.1747 0.0000
# 2 67.8353 148.0687 41.8435 0.0000 -4.5548 0.0000
# 3 48.4602 41.8435 58.0753 0.0000 -0.3513 0.0000
# 4 0.0000 0.0000 0.0000 43.5981 0.0000 -21.8969
# 5 11.1747 -4.5548 -0.3513 0.0000 32.3192 0.0000
# 6 0.0000 0.0000 0.0000 -21.8969 0.0000 48.3447
#
#
#
# Elastic Compliance Matrix: (Units=1/GPa)
#
#
# Indices 1 2 3 4 5 6 
#
# 1 0.007174 -0.002106 -0.004486 0.000000 -0.002826 0.000000
# 2 -0.002106 0.009140 -0.004816 0.000000 0.001964 0.000000
# 3 -0.004486 -0.004816 0.024440 0.000000 0.001138 0.000000
# 4 0.000000 0.000000 0.000000 0.029691 0.000000 0.013448
# 5 -0.002826 0.001964 0.001138 0.000000 0.032208 0.000000
# 6 0.000000 0.000000 0.000000 0.013448 0.000000 0.026776
#
#
# Mechanical properties :
#
#
# Convention : Reuss Voigt Hill
#
# Bulk Modulus (GPa) = 55.75092 79.60260 67.67676
# Shear Modulus (GPa) = 31.60073 40.98616 36.29345
#
# Velocity S-wave (km/s) = 3.55979 4.05410 3.81495
# Velocity P-wave (km/s) = 6.26518 7.33726 6.82231
#
# Compressibility (1/GPa) = 0.01793692
#
# Stress axis : x y z
#
# Youngs Moduli (GPa) = 139.38385 109.41075 40.91731
#
# Poissons Ratio (x) = 0.23042 0.18357
# Poissons Ratio (y) = 0.29354 0.19706
# Poissons Ratio (z) = 0.62532 0.52694
#
# Static dielectric constant tensor:
#      x y z
#    x 2.033910 0.000000 0.000850 
#    y 0.000000 1.996300 0.000000 
#    z 0.000850 0.000000 1.997880 
# 
# From -- ./inp_files/66351.got.cif
#   From: 2010.05.17/outbox.cif.g08.bks.cpg/sg15_34_cif.got.tgz:66351.got - 2010.06.03 18:47:42.
