data_PCOD9287025
_publ_section_title
;
Structure prediction by ZEFSAII (Michael W. Deem and Ramdas Pophale) SiO2 
 PCOD9287025
Probable space group: C 2/C
;
_chemical_formula_sum "Si O2"
_cell_formula_units_Z 40
_cell_length_a 26.699217
_cell_length_b 5.053025
_cell_length_c 14.258156
_cell_angle_alpha 90.000000
_cell_angle_beta 57.007146
_cell_angle_gamma 90.000000
_cell_volume 1613.392030
_symmetry_space_group_name_H-M "C 2/C"
_symmetry_group_IT_number 15
_symmetry_cell_setting 'monoclinic'
loop_
_space_group_symop_operation_xyz
x,y,z
-x,y,1/2-z
-x,-y,-z
x,-y,1/2+z
1/2+x,1/2+y,z
1/2-x,1/2+y,1/2-z
1/2-x,1/2-y,-z
1/2+x,1/2-y,1/2+z
loop_
_atom_site_type_symbol
_atom_site_label
_atom_site_fract_x
_atom_site_fract_y
_atom_site_fract_z
Si Si1 0.040111 0.751589 0.978812
Si Si2 0.687632 0.139075 0.030248
Si Si3 0.436028 0.669091 0.831796
Si Si4 0.711097 0.142557 0.309181
Si Si5 0.118238 0.486960 0.260454
O O1 0.092792 0.747131 0.848675
O O2 0.059990 0.737814 0.065277
O O3 0.000000 0.500000 0.000000
O O4 0.000000 0.000000 0.000000
O O5 0.692484 0.992619 0.926115
O O6 0.750000 0.250000 0.000000
O O7 0.636531 0.370632 0.092458
O O8 0.665176 0.929781 0.131192
O O9 0.500000 0.516121 0.750000
O O10 0.434679 0.876974 0.746413
O O11 0.756314 0.924852 0.217597
O O12 0.653530 0.164471 0.300228
#
# Coordination Sequence:
#
# PCOD9287025 Si02
#       5
#     8   8   8   8   8
#     4  12  25  48  73 109 151 203 255 322 390 468
#     4  10  21  45  74 111 150 198 260 321 394 466
#     4  10  21  45  73 108 150 195 260 314 400 461
#     4  12  25  46  73 107 153 202 258 323 394 471
#     4  10  22  45  73 109 149 202 260 324 392 462
#
# _framework density 24.792487000000001
#
# number of rings (size 3 to 8) (size 9 to 14) (size 15 to 20)
#    1.200    0.000    6.000    0.000    0.000    2.400 
#    7.200    0.000    0.000    0.000    0.000    0.000 
#    0.000    0.000    0.000    0.000    0.000    0.000 
#
# Total GULP energy -111424.078153 kJ/mol
# GULP energy per Si atom -5571.203908 kJ/mol
# Density = 2.473606 g / cm^3
# Si number density = 24.792487 Si / 1000 Ang^3
#
#
#
# Elastic Constant Matrix: (Units=GPa)
#
#
# Indices 1 2 3 4 5 6 
#
# 1 168.3122 48.6148 62.0988 -0.0003 6.5884 0.0011
# 2 48.6148 101.5675 12.1938 -0.0010 0.7022 0.0016
# 3 62.0988 12.1938 168.2231 -0.0004 7.9351 -0.0013
# 4 -0.0003 -0.0010 -0.0004 0.7396 -0.0002 -8.6019
# 5 6.5884 0.7022 7.9351 -0.0002 68.5944 -0.0006
# 6 0.0011 0.0016 -0.0013 -8.6019 -0.0006 20.4530
#
#
#
# Elastic Compliance Matrix: (Units=1/GPa)
#
#
# Indices 1 2 3 4 5 6 
#
# 1 0.007945 -0.003480 -0.002661 0.000002 -0.000420 0.000000
# 2 -0.003480 0.011457 0.000447 -0.000002 0.000165 -0.000001
# 3 -0.002661 0.000447 0.006920 -0.000002 -0.000550 0.000000
# 4 0.000002 -0.000002 -0.000002 -0.347447 -0.000002 -0.146125
# 5 -0.000420 0.000165 -0.000550 -0.000002 0.014681 0.000000
# 6 0.000000 -0.000001 0.000000 -0.146125 0.000000 -0.012563
#
#
# Mechanical properties :
#
#
# Convention : Reuss Voigt Hill
#
# Bulk Modulus (GPa) = 66.96741 75.99083 71.47912
# Shear Modulus (GPa) = -16.52121 38.97043 11.22461
#
# Velocity S-wave (km/s) = -2.58423 3.96898 2.13008
# Velocity P-wave (km/s) = 4.26210 7.19173 5.91128
#
# Compressibility (1/GPa) = 0.01493264
#
# Stress axis : x y z
#
# Youngs Moduli (GPa) = 125.87054 87.28461 144.50411
#
# Poissons Ratio (x) = 0.30378 0.38448
# Poissons Ratio (y) = 0.43807 -0.06452
# Poissons Ratio (z) = 0.33490 -0.03897
#
# Static dielectric constant tensor:
#      x y z
#    x 2.076790 0.000020 -0.092630 
#    y 0.000020 1.850610 -0.000030 
#    z -0.092630 -0.000030 1.952580 
# 
# From -- ./inp_files/179418.got.cif
#   From: 2010.05.17/outbox.cif.g08.bks.cpg/sg15_90_cif.got.tgz:179418.got - 2010.06.03 18:47:42.
