data_PCOD9287591
_publ_section_title
;
Structure prediction by ZEFSAII (Michael W. Deem and Ramdas Pophale) SiO2 
 PCOD9287591
Probable space group: C 2/C
;
_chemical_formula_sum "Si O2"
_cell_formula_units_Z 48
_cell_length_a 7.045096
_cell_length_b 28.767486
_cell_length_c 15.432582
_cell_angle_alpha 90.000000
_cell_angle_beta 130.649240
_cell_angle_gamma 90.000000
_cell_volume 2373.035471
_symmetry_space_group_name_H-M "C 2/C"
_symmetry_group_IT_number 15
_symmetry_cell_setting 'monoclinic'
loop_
_space_group_symop_operation_xyz
x,y,z
-x,y,1/2-z
-x,-y,-z
x,-y,1/2+z
1/2+x,1/2+y,z
1/2-x,1/2+y,1/2-z
1/2-x,1/2-y,-z
1/2+x,1/2-y,1/2+z
loop_
_atom_site_type_symbol
_atom_site_label
_atom_site_fract_x
_atom_site_fract_y
_atom_site_fract_z
Si Si1 0.500000 0.142277 0.250000
Si Si2 0.216793 0.307177 0.651431
Si Si3 0.024073 0.650205 0.916246
Si Si4 0.500000 0.783399 0.250000
Si Si5 0.983010 0.909601 0.968871
Si Si6 0.185471 0.035785 0.377312
Si Si7 0.723481 0.930421 0.068380
O O1 0.437450 0.174616 0.313252
O O2 0.259717 0.111798 0.151045
O O3 0.500000 0.326569 0.750000
O O4 0.091112 0.323973 0.525779
O O5 0.268514 0.251904 0.665121
O O6 0.951250 0.685303 0.819076
O O7 0.816290 0.611029 0.875556
O O8 0.281734 0.625063 0.964577
O O9 0.075158 0.953542 0.939439
O O10 0.910345 0.920102 0.045883
O O11 0.446230 0.062485 0.445528
O O12 0.000000 0.053981 0.250000
O O13 0.223831 0.980908 0.376159
#
# Coordination Sequence:
#
# PCOD9287591 Si02
#       7
#     4   8   8   4   8   8   8
#     4  12  20  36  66 101 112 166 209 260 310 366
#     4  10  22  40  64  90 126 153 211 263 308 358
#     4  11  22  42  62  89 124 166 204 253 309 374
#     4  10  24  44  62  87 130 170 199 260 324 360
#     4  11  21  35  63  88 123 155 209 250 308 366
#     4  10  22  37  58  87 122 160 200 256 305 359
#     4  10  22  39  58  88 122 159 206 250 304 371
#
# _framework density 20.227257999999999
#
# number of rings (size 3 to 8) (size 9 to 14) (size 15 to 20)
#    0.500    1.000    3.333    2.000    2.333    1.333 
#    3.000    1.667    0.000    0.000    0.000    0.000 
#    0.000    0.000    0.000    0.000    0.000    0.000 
#
# Total GULP energy -134040.611190 kJ/mol
# GULP energy per Si atom -5585.025466 kJ/mol
# Density = 2.018122 g / cm^3
# Si number density = 20.227258 Si / 1000 Ang^3
#
#
#
# Elastic Constant Matrix: (Units=GPa)
#
#
# Indices 1 2 3 4 5 6 
#
# 1 99.0612 27.2025 19.1262 0.0000 -14.2268 0.0000
# 2 27.2025 113.0308 16.3851 0.0000 -12.9425 0.0000
# 3 19.1262 16.3851 32.7399 0.0000 -14.1361 0.0000
# 4 0.0000 0.0000 0.0000 -28.7911 0.0000 -19.2171
# 5 -14.2268 -12.9425 -14.1361 0.0000 30.7347 0.0000
# 6 0.0000 0.0000 0.0000 -19.2171 0.0000 27.9950
#
#
#
# Elastic Compliance Matrix: (Units=1/GPa)
#
#
# Indices 1 2 3 4 5 6 
#
# 1 0.011919 -0.001868 -0.004973 0.000000 0.002443 0.000000
# 2 -0.001868 0.009961 -0.003065 0.000000 0.001920 0.000000
# 3 -0.004973 -0.003065 0.041716 0.000000 0.015594 0.000000
# 4 0.000000 0.000000 0.000000 -0.023819 0.000000 -0.016351
# 5 0.002443 0.001920 0.015594 0.000000 0.041648 0.000000
# 6 0.000000 0.000000 0.000000 -0.016351 0.000000 0.024497
#
#
# Mechanical properties :
#
#
# Convention : Reuss Voigt Hill
#
# Bulk Modulus (GPa) = 22.83925 41.13995 31.98960
# Shear Modulus (GPa) = 35.63100 18.12894 26.87997
#
# Velocity S-wave (km/s) = 4.20162 2.99701 3.64936
# Velocity P-wave (km/s) = 5.90372 5.68851 5.79711
#
# Compressibility (1/GPa) = 0.04378428
#
# Stress axis : x y z
#
# Youngs Moduli (GPa) = 83.90155 100.39352 23.97165
#
# Poissons Ratio (x) = 0.18751 0.11921
# Poissons Ratio (y) = 0.15671 0.07347
# Poissons Ratio (z) = 0.41725 0.30768
#
# Static dielectric constant tensor:
#      x y z
#    x 1.698170 0.000000 0.014600 
#    y 0.000000 1.728160 0.000000 
#    z 0.014600 0.000000 1.696040 
# 
# From -- ./inp_files/130945.got.cif
#   From: 2010.05.17/outbox.cif.g08.bks.cpg/sg15_66_cif.got.tgz:130945.got - 2010.06.03 18:47:42.
