data_PCOD9287537
_publ_section_title
;
Structure prediction by ZEFSAII (Michael W. Deem and Ramdas Pophale) SiO2 
 PCOD9287537
Probable space group: C 2/C
;
_chemical_formula_sum "Si O2"
_cell_formula_units_Z 36
_cell_length_a 24.535920
_cell_length_b 5.338879
_cell_length_c 18.588111
_cell_angle_alpha 90.000000
_cell_angle_beta 36.891582
_cell_angle_gamma 90.000000
_cell_volume 1461.699166
_symmetry_space_group_name_H-M "C 2/C"
_symmetry_group_IT_number 15
_symmetry_cell_setting 'monoclinic'
loop_
_space_group_symop_operation_xyz
x,y,z
-x,y,1/2-z
-x,-y,-z
x,-y,1/2+z
1/2+x,1/2+y,z
1/2-x,1/2+y,1/2-z
1/2-x,1/2-y,-z
1/2+x,1/2-y,1/2+z
loop_
_atom_site_type_symbol
_atom_site_label
_atom_site_fract_x
_atom_site_fract_y
_atom_site_fract_z
Si Si1 0.110885 0.448947 0.792443
Si Si2 0.413628 0.784997 0.958075
Si Si3 0.000000 0.075509 0.250000
Si Si4 0.890872 0.958830 0.622843
Si Si5 0.664549 0.926414 0.089224
O O1 0.130646 0.725536 0.802026
O O2 0.158783 0.395163 0.664800
O O3 0.000173 0.432195 0.900466
O O4 0.140640 0.226602 0.814647
O O5 0.461200 0.590882 0.854263
O O6 0.352313 0.950397 0.970274
O O7 0.362085 0.634124 0.074334
O O8 0.921601 0.252050 0.305074
O O9 0.000000 0.000000 0.500000
O O10 0.750000 0.750000 0.000000
#
# Coordination Sequence:
#
# PCOD9287537 Si02
#       5
#     8   8   4   8   8
#     4  11  21  43  67 107 144 189 246 315 365 451
#     4  11  22  41  69 108 140 200 252 306 379 457
#     4  12  22  44  74  96 154 190 254 312 382 446
#     4  10  22  36  72 103 140 188 251 300 378 442
#     4  12  26  42  73 111 152 199 255 319 388 461
#
# _framework density 24.628869999999999
#
# number of rings (size 3 to 8) (size 9 to 14) (size 15 to 20)
#    0.000    0.889    4.444    5.333    3.111    0.889 
#    0.000    0.000    4.889    0.000    0.000    0.000 
#    0.000    0.000    0.000    0.000    0.000    0.000 
#
# Total GULP energy -100834.507689 kJ/mol
# GULP energy per Si atom -5601.917094 kJ/mol
# Density = 2.457281 g / cm^3
# Si number density = 24.628870 Si / 1000 Ang^3
#
#
#
# Elastic Constant Matrix: (Units=GPa)
#
#
# Indices 1 2 3 4 5 6 
#
# 1 106.7241 58.3552 67.5910 -1.3286 25.6179 -2.0216
# 2 58.3552 124.8181 28.4861 -1.1735 8.9918 -1.7063
# 3 67.5910 28.4861 65.9645 -1.0715 15.9764 -1.7082
# 4 -1.3286 -1.1735 -1.0715 338.1167 2.0692 444.3459
# 5 25.6179 8.9918 15.9764 2.0692 42.2906 3.2922
# 6 -2.0216 -1.7063 -1.7082 444.3459 3.2922 653.9109
#
#
#
# Elastic Compliance Matrix: (Units=1/GPa)
#
#
# Indices 1 2 3 4 5 6 
#
# 1 0.035803 -0.009129 -0.030775 -0.000010 -0.008125 0.000054
# 2 -0.009129 0.011225 0.004123 0.000013 0.001586 -0.000005
# 3 -0.030775 0.004123 0.044701 -0.000066 0.000876 0.000073
# 4 -0.000010 0.000013 -0.000066 0.027645 0.000138 -0.018786
# 5 -0.008125 0.001586 0.000876 0.000138 0.027913 -0.000253
# 6 0.000054 -0.000005 0.000073 -0.018786 -0.000253 0.014296
#
#
# Mechanical properties :
#
#
# Convention : Reuss Voigt Hill
#
# Bulk Modulus (GPa) = 49.58423 67.37461 58.47942
# Shear Modulus (GPa) = 20.84489 216.40193 118.62341
#
# Velocity S-wave (km/s) = 2.91238 9.38381 6.94758
# Velocity P-wave (km/s) = 5.61120 12.03425 9.38906
#
# Compressibility (1/GPa) = 0.02016770
#
# Stress axis : x y z
#
# Youngs Moduli (GPa) = 27.93032 89.08943 22.37073
#
# Poissons Ratio (x) = 0.81334 0.68845
# Poissons Ratio (y) = 0.25499 -0.09224
# Poissons Ratio (z) = 0.85955 -0.36735
#
# Static dielectric constant tensor:
#      x y z
#    x 2.019950 0.000050 0.055330 
#    y 0.000050 1.988900 -0.000050 
#    z 0.055330 -0.000050 1.973450 
# 
# From -- ./inp_files/220776.got.cif
#   From: 2010.05.17/outbox.cif.g08.bks.cpg/sg15_111_cif.got.tgz:220776.got - 2010.06.03 18:47:42.
