data_PCOD9287567
_publ_section_title
;
Structure prediction by ZEFSAII (Michael W. Deem and Ramdas Pophale) SiO2 
 PCOD9287567
Probable space group: C 2/C
;
_chemical_formula_sum "Si O2"
_cell_formula_units_Z 48
_cell_length_a 21.785268
_cell_length_b 18.723400
_cell_length_c 8.737773
_cell_angle_alpha 90.000000
_cell_angle_beta 38.362058
_cell_angle_gamma 90.000000
_cell_volume 2211.975009
_symmetry_space_group_name_H-M "C 2/C"
_symmetry_group_IT_number 15
_symmetry_cell_setting 'monoclinic'
loop_
_space_group_symop_operation_xyz
x,y,z
-x,y,1/2-z
-x,-y,-z
x,-y,1/2+z
1/2+x,1/2+y,z
1/2-x,1/2+y,1/2-z
1/2-x,1/2-y,-z
1/2+x,1/2-y,1/2+z
loop_
_atom_site_type_symbol
_atom_site_label
_atom_site_fract_x
_atom_site_fract_y
_atom_site_fract_z
Si Si1 0.413954 0.284923 0.808189
Si Si2 0.918181 0.684466 0.529362
Si Si3 0.342468 0.472411 0.205714
Si Si4 0.240869 0.907010 0.421162
Si Si5 0.595105 0.401906 0.132706
Si Si6 0.258546 0.277109 0.656661
O O1 0.500000 0.313393 0.750000
O O2 0.456289 0.236118 0.589450
O O3 0.343064 0.347128 0.879607
O O4 0.342153 0.235914 0.053721
O O5 0.849894 0.622792 0.734397
O O6 0.839067 0.729595 0.586839
O O7 0.000000 0.659420 0.250000
O O8 0.276750 0.423659 0.223854
O O9 0.279881 0.522036 0.442385
O O10 0.414071 0.426044 0.173348
O O11 0.395979 0.528091 0.989850
O O12 0.500000 0.361705 0.250000
O O13 0.695273 0.356157 0.929146
O O14 0.250000 0.250000 0.500000
#
# Coordination Sequence:
#
# PCOD9287567 Si02
#       6
#     8   8   8   8   8   8
#     4  11  23  39  61  90 122 155 194 245 301 355
#     4  11  22  39  62  88 118 156 199 248 300 350
#     4  10  22  37  57  82 117 159 195 234 287 349
#     4  10  22  41  60  85 120 154 194 244 293 348
#     4  11  21  35  56  85 118 153 192 236 288 351
#     4  11  22  37  59  88 119 155 196 245 299 353
#
# _framework density 21.700063
#
# number of rings (size 3 to 8) (size 9 to 14) (size 15 to 20)
#    0.000    1.333    0.000    8.000    0.000    6.667 
#    0.000    0.833    0.000    4.000    0.000    0.000 
#    0.000    0.000    0.000    0.000    0.000    0.000 
#
# Total GULP energy -134251.805409 kJ/mol
# GULP energy per Si atom -5593.825225 kJ/mol
# Density = 2.165067 g / cm^3
# Si number density = 21.700063 Si / 1000 Ang^3
#
#
#
# Elastic Constant Matrix: (Units=GPa)
#
#
# Indices 1 2 3 4 5 6 
#
# 1 72.2478 12.9814 10.4317 0.0000 19.0395 0.0000
# 2 12.9814 61.6063 17.2221 0.0000 2.0237 0.0000
# 3 10.4317 17.2221 75.1273 0.0000 -0.3063 0.0000
# 4 0.0000 0.0000 0.0000 25.6031 0.0000 17.2838
# 5 19.0395 2.0237 -0.3063 0.0000 35.3461 0.0000
# 6 0.0000 0.0000 0.0000 17.2838 0.0000 30.6909
#
#
#
# Elastic Compliance Matrix: (Units=1/GPa)
#
#
# Indices 1 2 3 4 5 6 
#
# 1 0.016966 -0.002789 -0.001753 0.000000 -0.008994 0.000000
# 2 -0.002789 0.017840 -0.003700 0.000000 0.000449 0.000000
# 3 -0.001753 -0.003700 0.014408 0.000000 0.001281 0.000000
# 4 0.000000 0.000000 0.000000 0.063013 0.000000 -0.035486
# 5 -0.008994 0.000449 0.001281 0.000000 0.033122 0.000000
# 6 0.000000 0.000000 0.000000 -0.035486 0.000000 0.052567
#
#
# Mechanical properties :
#
#
# Convention : Reuss Voigt Hill
#
# Bulk Modulus (GPa) = 30.55544 32.25021 31.40283
# Shear Modulus (GPa) = 22.19161 29.55110 25.87136
#
# Velocity S-wave (km/s) = 3.20136 3.69426 3.45661
# Velocity P-wave (km/s) = 5.27033 5.75246 5.51666
#
# Compressibility (1/GPa) = 0.03272740
#
# Stress axis : x y z
#
# Youngs Moduli (GPa) = 58.94200 56.05513 69.40764
#
# Poissons Ratio (x) = 0.15636 0.12167
# Poissons Ratio (y) = 0.16442 0.25683
# Poissons Ratio (z) = 0.10332 0.20742
#
# Static dielectric constant tensor:
#      x y z
#    x 1.794980 0.000000 -0.002890 
#    y 0.000000 1.817480 0.000000 
#    z -0.002890 0.000000 1.828750 
# 
# From -- ./inp_files/57698.got.cif
#   From: 2010.05.17/outbox.cif.g08.bks.cpg/sg15_29_cif.got.tgz:57698.got - 2010.06.03 18:47:42.
