data_PCOD9287310
_publ_section_title
;
Structure prediction by ZEFSAII (Michael W. Deem and Ramdas Pophale) SiO2 
 PCOD9287310
Probable space group: C 2/C
;
_chemical_formula_sum "Si O2"
_cell_formula_units_Z 44
_cell_length_a 15.819795
_cell_length_b 7.643823
_cell_length_c 14.991812
_cell_angle_alpha 90.000000
_cell_angle_beta 81.488762
_cell_angle_gamma 90.000000
_cell_volume 1792.900215
_symmetry_space_group_name_H-M "C 2/C"
_symmetry_group_IT_number 15
_symmetry_cell_setting 'monoclinic'
loop_
_space_group_symop_operation_xyz
x,y,z
-x,y,1/2-z
-x,-y,-z
x,-y,1/2+z
1/2+x,1/2+y,z
1/2-x,1/2+y,1/2-z
1/2-x,1/2-y,-z
1/2+x,1/2-y,1/2+z
loop_
_atom_site_type_symbol
_atom_site_label
_atom_site_fract_x
_atom_site_fract_y
_atom_site_fract_z
Si Si1 0.140692 0.123912 0.903005
Si Si2 0.027189 0.748121 0.101015
Si Si3 0.000000 0.462932 0.250000
Si Si4 0.677220 0.158315 0.666494
Si Si5 0.684737 0.459783 0.087639
Si Si6 0.364918 0.016044 0.518659
O O1 0.224206 0.103979 0.827186
O O2 0.043229 0.098127 0.888041
O O3 0.158609 0.019758 0.991179
O O4 0.130988 0.330684 0.931270
O O5 0.997635 0.590562 0.166679
O O6 0.058337 0.654662 0.003799
O O7 0.114018 0.825057 0.128896
O O8 0.091623 0.366697 0.237061
O O9 0.682987 0.362185 0.642836
O O10 0.657109 0.052795 0.577914
O O11 0.780925 0.389418 0.069999
#
# Coordination Sequence:
#
# PCOD9287310 Si02
#       6
#     8   8   4   8   8   8
#     4   9  17  32  53  76  97 122 159 204 246 283
#     4  11  19  30  50  78 102 121 158 206 240 282
#     4  10  22  36  46  62  98 144 166 184 234 298
#     4   8  17  35  51  64  94 135 163 185 234 299
#     4   9  17  31  53  76  95 122 159 205 248 283
#     4   8  16  31  52  74  98 124 152 192 249 292
#
# _framework density 24.541243999999999
#
# number of rings (size 3 to 8) (size 9 to 14) (size 15 to 20)
#    0.000    2.909    0.000    3.818    0.000    0.727 
#    0.000    5.455    0.000    4.364    0.000    0.000 
#    0.000    0.000    0.000    0.000    0.000    0.000 
#
# Total GULP energy -122680.211450 kJ/mol
# GULP energy per Si atom -5576.373248 kJ/mol
# Density = 2.448539 g / cm^3
# Si number density = 24.541244 Si / 1000 Ang^3
#
#
#
# Elastic Constant Matrix: (Units=GPa)
#
#
# Indices 1 2 3 4 5 6 
#
# 1 92.1286 11.7313 51.5914 0.0000 -47.2336 0.0000
# 2 11.7313 58.4194 18.9354 0.0000 -14.9189 0.0000
# 3 51.5914 18.9354 77.0120 0.0000 -54.2880 0.0000
# 4 0.0000 0.0000 0.0000 18.2631 0.0000 -4.5348
# 5 -47.2336 -14.9189 -54.2880 0.0000 47.7765 0.0000
# 6 0.0000 0.0000 0.0000 -4.5348 0.0000 27.2796
#
#
#
# Elastic Compliance Matrix: (Units=1/GPa)
#
#
# Indices 1 2 3 4 5 6 
#
# 1 0.022218 0.001142 0.002867 0.000000 0.025580 0.000000
# 2 0.001142 0.018749 -0.002271 0.000000 0.004402 0.000000
# 3 0.002867 -0.002271 0.065936 0.000000 0.077048 0.000000
# 4 0.000000 0.000000 0.000000 0.057113 0.000000 0.009494
# 5 0.025580 0.004402 0.077048 0.000000 0.135144 0.000000
# 6 0.000000 0.000000 0.000000 0.009494 0.000000 0.038236
#
#
# Mechanical properties :
#
#
# Convention : Reuss Voigt Hill
#
# Bulk Modulus (GPa) = 9.05977 43.56402 26.31190
# Shear Modulus (GPa) = 13.48756 28.35064 20.91910
#
# Velocity S-wave (km/s) = 2.34687 3.40255 2.92277
# Velocity P-wave (km/s) = 3.32316 5.76423 4.70477
#
# Compressibility (1/GPa) = 0.11037804
#
# Stress axis : x y z
#
# Youngs Moduli (GPa) = 45.00818 53.33675 15.16631
#
# Poissons Ratio (x) = -0.06089 -0.04349
# Poissons Ratio (y) = -0.05138 0.03445
# Poissons Ratio (z) = -0.12906 0.12114
#
# Static dielectric constant tensor:
#      x y z
#    x 2.179920 0.000000 0.010840 
#    y 0.000000 1.921610 0.000000 
#    z 0.010840 0.000000 2.070870 
# 
# From -- ./inp_files/159209.got.cif
#   From: 2010.05.17/outbox.cif.g08.bks.cpg/sg15_80_cif.got.tgz:159209.got - 2010.06.03 18:47:42.
