data_PCOD9287194
_publ_section_title
;
Structure prediction by ZEFSAII (Michael W. Deem and Ramdas Pophale) SiO2 
 PCOD9287194
Probable space group: C 2/C
;
_chemical_formula_sum "Si O2"
_cell_formula_units_Z 64
_cell_length_a 22.573553
_cell_length_b 14.453417
_cell_length_c 9.028687
_cell_angle_alpha 90.000000
_cell_angle_beta 95.812809
_cell_angle_gamma 90.000000
_cell_volume 2930.597589
_symmetry_space_group_name_H-M "C 2/C"
_symmetry_group_IT_number 15
_symmetry_cell_setting 'monoclinic'
loop_
_space_group_symop_operation_xyz
x,y,z
-x,y,1/2-z
-x,-y,-z
x,-y,1/2+z
1/2+x,1/2+y,z
1/2-x,1/2+y,1/2-z
1/2-x,1/2-y,-z
1/2+x,1/2-y,1/2+z
loop_
_atom_site_type_symbol
_atom_site_label
_atom_site_fract_x
_atom_site_fract_y
_atom_site_fract_z
Si Si1 0.748167 0.312508 0.244399
Si Si2 0.712924 0.098361 0.244315
Si Si3 0.042695 0.024852 0.645146
Si Si4 0.900720 0.828782 0.786452
Si Si5 0.888903 0.632890 0.766104
Si Si6 0.860978 0.494480 0.518347
Si Si7 0.654362 0.597971 0.509194
Si Si8 0.687704 0.599062 0.010928
O O1 0.726578 0.206339 0.223429
O O2 0.818369 0.335350 0.253580
O O3 0.711745 0.366443 0.109703
O O4 0.725680 0.347539 0.399450
O O5 0.665541 0.072817 0.361244
O O6 0.773724 0.066558 0.337625
O O7 0.691065 0.044270 0.093328
O O8 0.062809 0.924132 0.710493
O O9 0.000000 0.075072 0.750000
O O10 0.099181 0.083841 0.607563
O O11 0.000000 0.000000 0.500000
O O12 0.926908 0.726224 0.789425
O O13 0.861618 0.834205 0.627355
O O14 0.863175 0.838683 0.928704
O O15 0.894944 0.574546 0.617038
O O16 0.896762 0.565332 0.908015
O O17 0.662159 0.495858 0.442055
#
# Coordination Sequence:
#
# PCOD9287194 Si02
#       8
#     8   8   8   8   8   8   8   8
#     4  12  23  34  52  83 120 162 209 255 287 362
#     4  11  21  34  49  72 109 157 206 247 293 340
#     4  11  23  45  66  92 126 154 197 255 313 372
#     4  11  23  37  59  87 116 157 203 247 304 369
#     4  11  22  38  54  82 121 164 210 248 297 358
#     4  10  22  34  51  70 107 159 198 247 298 342
#     4  11  24  36  59  87 119 162 202 241 305 366
#     4  11  21  33  48  76 116 157 201 245 292 351
#
# _framework density 21.838547999999999
#
# number of rings (size 3 to 8) (size 9 to 14) (size 15 to 20)
#    0.000    1.000    3.750    4.875    5.250    1.000 
#    0.000    0.000    0.000    0.000    0.000    0.875 
#    0.000    0.000    0.000    0.000    0.000    0.000 
#
# Total GULP energy -178813.303719 kJ/mol
# GULP energy per Si atom -5587.915741 kJ/mol
# Density = 2.178884 g / cm^3
# Si number density = 21.838548 Si / 1000 Ang^3
#
#
#
# Elastic Constant Matrix: (Units=GPa)
#
#
# Indices 1 2 3 4 5 6 
#
# 1 33.1260 -6.8240 9.1567 0.0000 -14.7046 0.0000
# 2 -6.8240 131.3476 32.0965 0.0000 -7.1925 0.0000
# 3 9.1567 32.0965 95.3621 0.0000 -10.4086 0.0000
# 4 0.0000 0.0000 0.0000 36.1740 0.0000 -0.4660
# 5 -14.7046 -7.1925 -10.4086 0.0000 23.2759 0.0000
# 6 0.0000 0.0000 0.0000 -0.4660 0.0000 5.2427
#
#
#
# Elastic Compliance Matrix: (Units=1/GPa)
#
#
# Indices 1 2 3 4 5 6 
#
# 1 0.044397 0.004513 -0.002700 0.000000 0.028235 0.000000
# 2 0.004513 0.008797 -0.002929 0.000000 0.004259 0.000000
# 3 -0.002700 -0.002929 0.012034 0.000000 0.002770 0.000000
# 4 0.000000 0.000000 0.000000 0.027676 0.000000 0.002460
# 5 0.028235 0.004259 0.002770 0.000000 0.063355 0.000000
# 6 0.000000 0.000000 0.000000 0.002460 0.000000 0.190960
#
#
# Mechanical properties :
#
#
# Convention : Reuss Voigt Hill
#
# Bulk Modulus (GPa) = 15.87443 36.52157 26.19800
# Shear Modulus (GPa) = 13.49708 27.96562 20.73135
#
# Velocity S-wave (km/s) = 2.48874 3.58238 3.08442
# Velocity P-wave (km/s) = 3.94249 5.81988 4.97062
#
# Compressibility (1/GPa) = 0.06299438
#
# Stress axis : x y z
#
# Youngs Moduli (GPa) = 22.52399 113.67710 83.09861
#
# Poissons Ratio (x) = -0.51297 0.22437
# Poissons Ratio (y) = -0.10164 0.24341
# Poissons Ratio (z) = 0.06082 0.33298
#
# Static dielectric constant tensor:
#      x y z
#    x 1.830610 0.000000 -0.015610 
#    y 0.000000 1.839910 0.000000 
#    z -0.015610 0.000000 1.823410 
# 
# From -- ./inp_files/66246.got.cif
#   From: 2010.05.17/outbox.cif.g08.bks.cpg/sg15_34_cif.got.tgz:66246.got - 2010.06.03 18:47:42.
