data_PCOD9287491
_publ_section_title
;
Structure prediction by ZEFSAII (Michael W. Deem and Ramdas Pophale) SiO2 
 PCOD9287491
Probable space group: C 2/C
;
_chemical_formula_sum "Si O2"
_cell_formula_units_Z 40
_cell_length_a 29.324228
_cell_length_b 13.970325
_cell_length_c 11.050596
_cell_angle_alpha 90.000000
_cell_angle_beta 158.008174
_cell_angle_gamma 90.000000
_cell_volume 1695.277638
_symmetry_space_group_name_H-M "C 2/C"
_symmetry_group_IT_number 15
_symmetry_cell_setting 'monoclinic'
loop_
_space_group_symop_operation_xyz
x,y,z
-x,y,1/2-z
-x,-y,-z
x,-y,1/2+z
1/2+x,1/2+y,z
1/2-x,1/2+y,1/2-z
1/2-x,1/2-y,-z
1/2+x,1/2-y,1/2+z
loop_
_atom_site_type_symbol
_atom_site_label
_atom_site_fract_x
_atom_site_fract_y
_atom_site_fract_z
Si Si1 0.518338 0.425840 0.656843
Si Si2 0.376215 0.945786 0.665099
Si Si3 0.541534 0.782975 0.490548
Si Si4 0.222778 0.664026 0.769549
Si Si5 0.289639 0.143774 0.477256
O O1 0.500000 0.463068 0.750000
O O2 0.500000 0.500000 0.500000
O O3 0.434547 0.329842 0.435633
O O4 0.653185 0.378347 0.981684
O O5 0.382597 0.894647 0.552605
O O6 0.282364 0.033599 0.424587
O O7 0.359127 0.860479 0.720331
O O8 0.500000 0.000000 0.000000
O O9 0.500000 0.799373 0.250000
O O10 0.423388 0.812627 0.279140
O O11 0.231720 0.647582 0.933064
O O12 0.206256 0.777314 0.707454
#
# Coordination Sequence:
#
# PCOD9287491 Si02
#       5
#     8   8   8   8   8
#     4  10  23  44  64  90 129 176 226 275 333 401
#     4  10  22  36  64  96 127 173 209 270 337 400
#     4   9  20  40  60  91 132 167 216 273 329 398
#     4  10  22  41  62  94 132 163 225 277 323 398
#     4   9  21  39  61  89 130 168 215 270 332 389
#
# _framework density 23.594956
#
# number of rings (size 3 to 8) (size 9 to 14) (size 15 to 20)
#    0.000    2.400    0.000    0.000    8.400    4.000 
#    7.200    9.000    0.000    0.000    0.000    0.000 
#    0.000    0.000    0.000    0.000    0.000    0.000 
#
# Total GULP energy -111548.646681 kJ/mol
# GULP energy per Si atom -5577.432334 kJ/mol
# Density = 2.354125 g / cm^3
# Si number density = 23.594956 Si / 1000 Ang^3
#
#
#
# Elastic Constant Matrix: (Units=GPa)
#
#
# Indices 1 2 3 4 5 6 
#
# 1 123.1411 26.9623 28.1242 0.0000 -19.0771 0.0000
# 2 26.9623 227.1096 68.9148 0.0000 -35.8311 0.0000
# 3 28.1242 68.9148 55.6694 0.0000 -19.1149 0.0000
# 4 0.0000 0.0000 0.0000 38.1546 0.0000 -28.2116
# 5 -19.0771 -35.8311 -19.1149 0.0000 30.0203 0.0000
# 6 0.0000 0.0000 0.0000 -28.2116 0.0000 14.5677
#
#
#
# Elastic Compliance Matrix: (Units=1/GPa)
#
#
# Indices 1 2 3 4 5 6 
#
# 1 0.009620 0.000905 -0.004492 0.000000 0.004333 0.000000
# 2 0.000905 0.007466 -0.008245 0.000000 0.004236 0.000000
# 3 -0.004492 -0.008245 0.033377 0.000000 0.008557 0.000000
# 4 0.000000 0.000000 0.000000 -0.060681 0.000000 -0.117514
# 5 0.004333 0.004236 0.008557 0.000000 0.046569 0.000000
# 6 0.000000 0.000000 0.000000 -0.117514 0.000000 -0.158931
#
#
# Mechanical properties :
#
#
# Convention : Reuss Voigt Hill
#
# Bulk Modulus (GPa) = 37.31561 72.65809 54.98685
# Shear Modulus (GPa) = -55.56584 35.34311 -10.11136
#
# Velocity S-wave (km/s) = -4.85809 3.87448 -2.07236
# Velocity P-wave (km/s) = 3.95204 7.13276 4.19867
#
# Compressibility (1/GPa) = 0.02679844
#
# Stress axis : x y z
#
# Youngs Moduli (GPa) = 103.95155 133.94199 29.96056
#
# Poissons Ratio (x) = -0.12116 0.13459
# Poissons Ratio (y) = -0.09403 0.24702
# Poissons Ratio (z) = 0.46697 1.10432
#
# Static dielectric constant tensor:
#      x y z
#    x 1.916210 0.000000 0.100610 
#    y 0.000000 1.975960 0.000000 
#    z 0.100610 0.000000 2.027160 
# 
# From -- ./inp_files/38050.got.cif
#   From: 2010.05.17/outbox.cif.g08.bks.cpg/sg15_20_cif.got.tgz:38050.got - 2010.06.03 18:47:42.
