data_PCOD9287861
_publ_section_title
;
Structure prediction by ZEFSAII (Michael W. Deem and Ramdas Pophale) SiO2 
 PCOD9287861
Probable space group: C 2/C
;
_chemical_formula_sum "Si O2"
_cell_formula_units_Z 52
_cell_length_a 16.445235
_cell_length_b 19.619948
_cell_length_c 14.571059
_cell_angle_alpha 90.000000
_cell_angle_beta 31.444760
_cell_angle_gamma 90.000000
_cell_volume 2452.619283
_symmetry_space_group_name_H-M "C 2/C"
_symmetry_group_IT_number 15
_symmetry_cell_setting 'monoclinic'
loop_
_space_group_symop_operation_xyz
x,y,z
-x,y,1/2-z
-x,-y,-z
x,-y,1/2+z
1/2+x,1/2+y,z
1/2-x,1/2+y,1/2-z
1/2-x,1/2-y,-z
1/2+x,1/2-y,1/2+z
loop_
_atom_site_type_symbol
_atom_site_label
_atom_site_fract_x
_atom_site_fract_y
_atom_site_fract_z
Si Si1 0.758475 0.507436 0.263370
Si Si2 0.500000 0.287851 0.250000
Si Si3 0.776906 0.701081 0.597351
Si Si4 0.696245 0.773571 0.857909
Si Si5 0.988251 0.835806 0.868069
Si Si6 0.988035 0.001240 0.153933
Si Si7 0.029353 0.611551 0.953589
O O1 0.670327 0.490394 0.252059
O O2 0.627346 0.531249 0.460776
O O3 0.885415 0.565589 0.125607
O O4 0.852697 0.441036 0.207851
O O5 0.373711 0.327430 0.310878
O O6 0.393544 0.240583 0.417602
O O7 0.710919 0.754042 0.736844
O O8 0.874265 0.644713 0.556675
O O9 0.855619 0.808653 0.733942
O O10 0.553603 0.825015 0.016155
O O11 0.656753 0.703370 0.947433
O O12 0.983092 0.917029 0.881534
O O13 0.000000 0.818372 0.750000
O O14 0.000000 0.984012 0.250000
#
# Coordination Sequence:
#
# PCOD9287861 Si02
#       7
#     8   4   8   8   8   8   8
#     4  10  23  44  65  87 127 169 214 262 305 367
#     4  10  22  38  58  94 124 158 202 262 310 362
#     4  11  21  40  61  88 129 162 204 258 315 373
#     4  12  21  39  63  95 124 166 199 249 328 381
#     4  11  23  38  65  95 128 155 204 261 315 383
#     4  10  22  44  66  92 124 166 215 263 314 372
#     4  11  22  41  64  91 122 171 210 251 312 377
#
# _framework density 21.201823999999998
#
# number of rings (size 3 to 8) (size 9 to 14) (size 15 to 20)
#    0.000    1.231    4.615    1.385    0.000    0.000 
#    4.154    2.308    0.000    0.000    0.000    0.000 
#    0.000    0.000    0.000    0.000    0.000    0.000 
#
# Total GULP energy -145256.714365 kJ/mol
# GULP energy per Si atom -5586.796706 kJ/mol
# Density = 2.115357 g / cm^3
# Si number density = 21.201824 Si / 1000 Ang^3
#
#
#
# Elastic Constant Matrix: (Units=GPa)
#
#
# Indices 1 2 3 4 5 6 
#
# 1 84.8239 -6.2785 17.1941 0.0005 -18.7154 -0.0004
# 2 -6.2785 45.9037 1.1169 -0.0023 -8.1792 0.0015
# 3 17.1941 1.1169 59.8515 -0.0011 -10.9977 0.0007
# 4 0.0005 -0.0023 -0.0011 27.6511 0.0008 -11.0417
# 5 -18.7154 -8.1792 -10.9977 0.0008 40.2976 -0.0009
# 6 -0.0004 0.0015 0.0007 -11.0417 -0.0009 33.4240
#
#
#
# Elastic Compliance Matrix: (Units=1/GPa)
#
#
# Indices 1 2 3 4 5 6 
#
# 1 0.014011 0.003118 -0.002918 0.000000 0.006344 0.000000
# 2 0.003118 0.023307 -0.000206 0.000002 0.006122 0.000000
# 3 -0.002918 -0.000206 0.018206 0.000001 0.003572 0.000000
# 4 0.000000 0.000002 0.000001 0.041661 0.000000 0.013763
# 5 0.006344 0.006122 0.003572 0.000000 0.029979 0.000001
# 6 0.000000 0.000000 0.000000 0.013763 0.000001 0.034465
#
#
# Mechanical properties :
#
#
# Convention : Reuss Voigt Hill
#
# Bulk Modulus (GPa) = 18.01368 23.84934 20.93151
# Shear Modulus (GPa) = 27.75544 32.17765 29.96655
#
# Velocity S-wave (km/s) = 3.62208 3.89997 3.76359
# Velocity P-wave (km/s) = 5.09974 5.61719 5.36471
#
# Compressibility (1/GPa) = 0.05551338
#
# Stress axis : x y z
#
# Youngs Moduli (GPa) = 71.37272 42.90545 54.92587
#
# Poissons Ratio (x) = -0.13376 0.16025
# Poissons Ratio (y) = -0.22252 0.01129
# Poissons Ratio (z) = 0.20824 0.00882
#
# Static dielectric constant tensor:
#      x y z
#    x 1.766940 0.000000 -0.010310 
#    y 0.000000 1.787000 0.000000 
#    z -0.010310 0.000000 1.749680 
# 
# From -- ./inp_files/163601.got.cif
#   From: 2010.05.17/outbox.cif.g08.bks.cpg/sg15_82_cif.got.tgz:163601.got - 2010.06.03 18:47:42.
