data_PCOD9287545
_publ_section_title
;
Structure prediction by ZEFSAII (Michael W. Deem and Ramdas Pophale) SiO2 
 PCOD9287545
Probable space group: C 2/C
;
_chemical_formula_sum "Si O2"
_cell_formula_units_Z 60
_cell_length_a 14.866740
_cell_length_b 25.645353
_cell_length_c 8.268521
_cell_angle_alpha 90.000000
_cell_angle_beta 90.803242
_cell_angle_gamma 90.000000
_cell_volume 3152.169642
_symmetry_space_group_name_H-M "C 2/C"
_symmetry_group_IT_number 15
_symmetry_cell_setting 'monoclinic'
loop_
_space_group_symop_operation_xyz
x,y,z
-x,y,1/2-z
-x,-y,-z
x,-y,1/2+z
1/2+x,1/2+y,z
1/2-x,1/2+y,1/2-z
1/2-x,1/2-y,-z
1/2+x,1/2-y,1/2+z
loop_
_atom_site_type_symbol
_atom_site_label
_atom_site_fract_x
_atom_site_fract_y
_atom_site_fract_z
Si Si1 0.658130 0.680913 0.405009
Si Si2 0.517162 0.753542 0.559835
Si Si3 0.325749 0.759153 0.365233
Si Si4 0.227841 0.579505 0.987323
Si Si5 0.698941 0.492201 0.297794
Si Si6 0.070798 0.042794 0.054449
Si Si7 0.909025 0.346359 0.155700
Si Si8 0.000000 0.873083 0.750000
O O1 0.590845 0.707962 0.531397
O O2 0.703924 0.725101 0.294122
O O3 0.715573 0.632196 0.469967
O O4 0.589637 0.658051 0.272755
O O5 0.500000 0.759359 0.750000
O O6 0.423234 0.746601 0.455202
O O7 0.563732 0.803834 0.478874
O O8 0.250000 0.750000 0.500000
O O9 0.343946 0.816246 0.283656
O O10 0.266091 0.546154 0.838512
O O11 0.134218 0.603734 0.929345
O O12 0.234103 0.536243 0.129985
O O13 0.616827 0.525657 0.222331
O O14 0.653551 0.456690 0.433982
O O15 0.015521 0.094187 0.087673
O O16 0.000000 0.000000 0.000000
O O17 0.000000 0.360332 0.250000
#
# Coordination Sequence:
#
# PCOD9287545 Si02
#       8
#     8   8   8   8   8   8   8   4
#     4  11  22  37  58  87 131 169 193 247 300 366
#     4  10  22  39  62  94 130 157 206 252 298 377
#     4  10  22  39  62  93 129 162 202 251 303 370
#     4  11  23  41  63  87 121 162 211 258 314 359
#     4  10  22  37  52  87 115 153 208 265 291 342
#     4  11  18  32  53  74 116 162 201 237 293 351
#     4   9  22  45  65  87 124 163 198 260 325 376
#     4  12  18  32  52  78 116 164 196 224 290 352
#
# _framework density 19.034507999999999
#
# number of rings (size 3 to 8) (size 9 to 14) (size 15 to 20)
#    0.000    1.600    4.000    1.600    3.733    3.200 
#    0.000    0.667    0.000    0.000    0.000    0.000 
#    0.000    0.000    0.000    0.000    0.000    0.000 
#
# Total GULP energy -167019.693147 kJ/mol
# GULP energy per Si atom -5567.323105 kJ/mol
# Density = 1.899119 g / cm^3
# Si number density = 19.034508 Si / 1000 Ang^3
#
#
#
# Elastic Constant Matrix: (Units=GPa)
#
#
# Indices 1 2 3 4 5 6 
#
# 1 54.0374 29.6281 19.8198 0.0000 -0.6113 0.0000
# 2 29.6281 58.8082 20.3231 0.0000 8.4746 0.0000
# 3 19.8198 20.3231 89.7714 0.0000 -5.5002 0.0000
# 4 0.0000 0.0000 0.0000 234.2183 0.0000 71.3092
# 5 -0.6113 8.4746 -5.5002 0.0000 31.5044 0.0000
# 6 0.0000 0.0000 0.0000 71.3092 0.0000 38.6698
#
#
#
# Elastic Compliance Matrix: (Units=1/GPa)
#
#
# Indices 1 2 3 4 5 6 
#
# 1 0.026679 -0.013008 -0.002728 0.000000 0.003541 0.000000
# 2 -0.013008 0.025883 -0.003467 0.000000 -0.007820 0.000000
# 3 -0.002728 -0.003467 0.012717 0.000000 0.003100 0.000000
# 4 0.000000 0.000000 0.000000 0.009735 0.000000 -0.017952
# 5 0.003541 -0.007820 0.003100 0.000000 0.034455 0.000000
# 6 0.000000 0.000000 0.000000 -0.017952 0.000000 0.058965
#
#
# Mechanical properties :
#
#
# Convention : Reuss Voigt Hill
#
# Bulk Modulus (GPa) = 37.21402 38.01765 37.61584
# Shear Modulus (GPa) = 23.16988 69.73490 46.45239
#
# Velocity S-wave (km/s) = 3.49271 6.05934 4.94543
# Velocity P-wave (km/s) = 5.98820 8.30485 7.23979
#
# Compressibility (1/GPa) = 0.02687159
#
# Stress axis : x y z
#
# Youngs Moduli (GPa) = 37.48306 38.63521 78.63789
#
# Poissons Ratio (x) = 0.50258 0.21455
# Poissons Ratio (y) = 0.48759 0.27262
# Poissons Ratio (z) = 0.10226 0.13394
#
# Static dielectric constant tensor:
#      x y z
#    x 1.674340 0.000000 0.013070 
#    y 0.000000 1.729340 0.000000 
#    z 0.013070 0.000000 1.687910 
# 
# From -- ./inp_files/42224.got.cif
#   From: 2010.05.17/outbox.cif.g08.bks.cpg/sg15_22_cif.got.tgz:42224.got - 2010.06.03 18:47:42.
