data_PCOD9287648
_publ_section_title
;
Structure prediction by ZEFSAII (Michael W. Deem and Ramdas Pophale) SiO2 
 PCOD9287648
Probable space group: C 2/C
;
_chemical_formula_sum "Si O2"
_cell_formula_units_Z 60
_cell_length_a 27.416189
_cell_length_b 18.981797
_cell_length_c 5.665743
_cell_angle_alpha 90.000000
_cell_angle_beta 70.371280
_cell_angle_gamma 90.000000
_cell_volume 2777.161217
_symmetry_space_group_name_H-M "C 2/C"
_symmetry_group_IT_number 15
_symmetry_cell_setting 'monoclinic'
loop_
_space_group_symop_operation_xyz
x,y,z
-x,y,1/2-z
-x,-y,-z
x,-y,1/2+z
1/2+x,1/2+y,z
1/2-x,1/2+y,1/2-z
1/2-x,1/2-y,-z
1/2+x,1/2-y,1/2+z
loop_
_atom_site_type_symbol
_atom_site_label
_atom_site_fract_x
_atom_site_fract_y
_atom_site_fract_z
Si Si1 0.788442 0.651842 0.346130
Si Si2 0.868843 0.854943 0.898861
Si Si3 0.949717 0.957782 0.924966
Si Si4 0.821565 0.502251 0.782877
Si Si5 0.248490 0.357407 0.094054
Si Si6 0.050531 0.810743 0.065087
Si Si7 0.898230 0.285288 0.619959
Si Si8 0.500000 0.210881 0.750000
O O1 0.784554 0.566586 0.343257
O O2 0.761232 0.676634 0.631553
O O3 0.849395 0.668176 0.266449
O O4 0.768575 0.679030 0.124200
O O5 0.899378 0.908917 0.013704
O O6 0.903651 0.858521 0.607396
O O7 0.809191 0.872282 0.971543
O O8 0.876232 0.775178 0.979894
O O9 0.000000 0.912906 0.750000
O O10 0.950315 0.008046 0.686783
O O11 0.850842 0.499521 0.485379
O O12 0.787172 0.572685 0.838687
O O13 0.078381 0.758829 0.202491
O O14 0.000000 0.849437 0.250000
O O15 0.024320 0.760985 0.910916
O O16 0.948196 0.325737 0.432779
#
# Coordination Sequence:
#
# PCOD9287648 Si02
#       8
#     8   8   8   8   8   8   8   4
#     4  10  22  39  61  86 125 160 200 255 296 368
#     4  11  25  37  62  87 120 164 203 259 304 360
#     4  10  25  43  60  87 117 158 212 263 311 351
#     4   8  16  35  57  80 109 153 203 244 288 340
#     4  10  23  38  58  89 119 165 212 250 296 354
#     4   9  20  37  59  86 117 155 198 244 304 369
#     4  10  22  37  61  92 122 160 198 242 318 362
#     4   8  18  38  56  90 116 154 202 242 286 372
#
# _framework density 21.604793999999998
#
# number of rings (size 3 to 8) (size 9 to 14) (size 15 to 20)
#    0.000    2.400    0.000    0.000   13.067    4.800 
#    0.000    0.000    0.000    0.000    0.000    8.400 
#    0.000    0.000    0.000    0.000    0.000    0.000 
#
# Total GULP energy -167047.826848 kJ/mol
# GULP energy per Si atom -5568.260895 kJ/mol
# Density = 2.155562 g / cm^3
# Si number density = 21.604794 Si / 1000 Ang^3
#
#
#
# Elastic Constant Matrix: (Units=GPa)
#
#
# Indices 1 2 3 4 5 6 
#
# 1 100.9641 12.0126 48.3851 0.0000 -15.5118 0.0000
# 2 12.0126 34.8242 15.0879 0.0000 1.7442 0.0000
# 3 48.3851 15.0879 161.0627 0.0000 14.8761 0.0000
# 4 0.0000 0.0000 0.0000 12.6192 0.0000 -0.5975
# 5 -15.5118 1.7442 14.8761 0.0000 40.9762 0.0000
# 6 0.0000 0.0000 0.0000 -0.5975 0.0000 12.4503
#
#
#
# Elastic Compliance Matrix: (Units=1/GPa)
#
#
# Indices 1 2 3 4 5 6 
#
# 1 0.013406 -0.003073 -0.004367 0.000000 0.006791 0.000000
# 2 -0.003073 0.030637 -0.001779 0.000000 -0.001821 0.000000
# 3 -0.004367 -0.001779 0.008105 0.000000 -0.004520 0.000000
# 4 0.000000 0.000000 0.000000 0.079425 0.000000 0.003812
# 5 0.006791 -0.001821 -0.004520 0.000000 0.028694 0.000000
# 6 0.000000 0.000000 0.000000 0.003812 0.000000 0.080502
#
#
# Mechanical properties :
#
#
# Convention : Reuss Voigt Hill
#
# Bulk Modulus (GPa) = 29.66304 49.75803 39.71054
# Shear Modulus (GPa) = 18.48821 27.96683 23.22752
#
# Velocity S-wave (km/s) = 2.92849 3.60178 3.28244
# Velocity P-wave (km/s) = 5.01940 6.35438 5.72593
#
# Compressibility (1/GPa) = 0.03371199
#
# Stress axis : x y z
#
# Youngs Moduli (GPa) = 74.59268 32.63979 123.38579
#
# Poissons Ratio (x) = 0.10029 0.53880
# Poissons Ratio (y) = 0.22920 0.21947
# Poissons Ratio (z) = 0.32573 0.05806
#
# Static dielectric constant tensor:
#      x y z
#    x 1.777760 0.000000 0.042980 
#    y 0.000000 1.809480 0.000000 
#    z 0.042980 0.000000 1.927570 
# 
# From -- ./inp_files/17411.got.cif
#   From: 2010.05.17/outbox.cif.g08.bks.cpg/sg15_9_cif.got.tgz:17411.got - 2010.06.03 18:47:42.
