data_PCOD9287427
_publ_section_title
;
Structure prediction by ZEFSAII (Michael W. Deem and Ramdas Pophale) SiO2 
 PCOD9287427
Probable space group: C 2/C
;
_chemical_formula_sum "Si O2"
_cell_formula_units_Z 48
_cell_length_a 26.503684
_cell_length_b 15.719810
_cell_length_c 10.961024
_cell_angle_alpha 90.000000
_cell_angle_beta 34.217569
_cell_angle_gamma 90.000000
_cell_volume 2568.037129
_symmetry_space_group_name_H-M "C 2/C"
_symmetry_group_IT_number 15
_symmetry_cell_setting 'monoclinic'
loop_
_space_group_symop_operation_xyz
x,y,z
-x,y,1/2-z
-x,-y,-z
x,-y,1/2+z
1/2+x,1/2+y,z
1/2-x,1/2+y,1/2-z
1/2-x,1/2-y,-z
1/2+x,1/2-y,1/2+z
loop_
_atom_site_type_symbol
_atom_site_label
_atom_site_fract_x
_atom_site_fract_y
_atom_site_fract_z
Si Si1 0.961522 0.915213 0.704006
Si Si2 0.894032 0.238012 0.940571
Si Si3 0.392949 0.065646 0.447409
Si Si4 0.692511 0.002428 0.627525
Si Si5 0.806811 0.832592 0.854309
Si Si6 0.377439 0.583554 0.807168
O O1 0.887569 0.857818 0.784261
O O2 0.000000 0.876633 0.750000
O O3 0.050045 0.926053 0.444949
O O4 0.913193 0.007036 0.824530
O O5 0.861042 0.335382 0.007344
O O6 0.880578 0.178911 0.850476
O O7 0.000000 0.242626 0.750000
O O8 0.849996 0.185163 0.137604
O O9 0.500000 0.063995 0.250000
O O10 0.351236 0.019696 0.651274
O O11 0.368774 0.026877 0.363260
O O12 0.738566 0.089699 0.493066
O O13 0.776160 0.938486 0.474745
O O14 0.750000 0.750000 0.000000
#
# Coordination Sequence:
#
# PCOD9287427 Si02
#       6
#     8   8   8   8   8   8
#     4  10  22  36  60  98 134 163 199 259 324 382
#     4  11  21  40  64  90 123 169 209 254 319 381
#     4  11  25  44  67  86 126 170 222 263 319 381
#     4  11  24  42  65  96 122 168 215 269 319 385
#     4  11  22  40  65  91 130 165 209 257 318 383
#     4  10  22  36  65  95 128 162 207 259 323 388
#
# _framework density 18.691319
#
# number of rings (size 3 to 8) (size 9 to 14) (size 15 to 20)
#    0.000    1.333    3.333    2.000    9.333    0.667 
#    0.000    2.500    0.000    0.000    0.000    0.000 
#    0.000    0.000    0.000    0.000    0.000    0.000 
#
# Total GULP energy -133842.439619 kJ/mol
# GULP energy per Si atom -5576.768317 kJ/mol
# Density = 1.864878 g / cm^3
# Si number density = 18.691319 Si / 1000 Ang^3
#
#
#
# Elastic Constant Matrix: (Units=GPa)
#
#
# Indices 1 2 3 4 5 6 
#
# 1 96.6491 47.5815 34.3144 0.0000 -3.5790 0.0000
# 2 47.5815 82.0358 25.7686 0.0000 -2.9284 0.0000
# 3 34.3144 25.7686 85.8520 0.0000 -0.0653 0.0000
# 4 0.0000 0.0000 0.0000 34.6294 0.0000 -1.2162
# 5 -3.5790 -2.9284 -0.0653 0.0000 30.1002 0.0000
# 6 0.0000 0.0000 0.0000 -1.2162 0.0000 24.3905
#
#
#
# Elastic Compliance Matrix: (Units=1/GPa)
#
#
# Indices 1 2 3 4 5 6 
#
# 1 0.015605 -0.007788 -0.003899 0.000000 0.001089 0.000000
# 2 -0.007788 0.017396 -0.002108 0.000000 0.000762 0.000000
# 3 -0.003899 -0.002108 0.013839 0.000000 -0.000639 0.000000
# 4 0.000000 0.000000 0.000000 0.028928 0.000000 0.001442
# 5 0.001089 0.000762 -0.000639 0.000000 0.033425 0.000000
# 6 0.000000 0.000000 0.000000 0.001442 0.000000 0.041072
#
#
# Mechanical properties :
#
#
# Convention : Reuss Voigt Hill
#
# Bulk Modulus (GPa) = 51.94714 53.31843 52.63278
# Shear Modulus (GPa) = 27.13402 28.28218 27.70810
#
# Velocity S-wave (km/s) = 3.81424 3.89410 3.85438
# Velocity P-wave (km/s) = 6.87389 6.98616 6.93025
#
# Compressibility (1/GPa) = 0.01925034
#
# Stress axis : x y z
#
# Youngs Moduli (GPa) = 64.08094 57.48419 72.26122
#
# Poissons Ratio (x) = 0.44766 0.28175
# Poissons Ratio (y) = 0.49903 0.15235
# Poissons Ratio (z) = 0.24985 0.12119
#
# Static dielectric constant tensor:
#      x y z
#    x 1.669750 0.000000 0.006880 
#    y 0.000000 1.784130 0.000000 
#    z 0.006880 0.000000 1.675060 
# 
# From -- ./inp_files/123422.got.cif
#   From: 2010.05.17/outbox.cif.g08.bks.cpg/sg15_62_cif.got.tgz:123422.got - 2010.06.03 18:47:42.
