data_PCOD9287594
_publ_section_title
;
Structure prediction by ZEFSAII (Michael W. Deem and Ramdas Pophale) SiO2 
 PCOD9287594
Probable space group: C 2/C
;
_chemical_formula_sum "Si O2"
_cell_formula_units_Z 44
_cell_length_a 21.335048
_cell_length_b 8.750900
_cell_length_c 10.873265
_cell_angle_alpha 90.000000
_cell_angle_beta 52.449911
_cell_angle_gamma 90.000000
_cell_volume 1609.464416
_symmetry_space_group_name_H-M "C 2/C"
_symmetry_group_IT_number 15
_symmetry_cell_setting 'monoclinic'
loop_
_space_group_symop_operation_xyz
x,y,z
-x,y,1/2-z
-x,-y,-z
x,-y,1/2+z
1/2+x,1/2+y,z
1/2-x,1/2+y,1/2-z
1/2-x,1/2-y,-z
1/2+x,1/2-y,1/2+z
loop_
_atom_site_type_symbol
_atom_site_label
_atom_site_fract_x
_atom_site_fract_y
_atom_site_fract_z
Si Si1 0.170463 0.057127 0.083725
Si Si2 0.296459 0.196480 0.746464
Si Si3 0.509080 0.681065 0.978681
Si Si4 0.419416 0.103284 0.412536
Si Si5 0.500000 0.335607 0.750000
Si Si6 0.177199 0.272854 0.685889
O O1 0.172236 0.170089 0.200202
O O2 0.080814 0.068881 0.142777
O O3 0.191477 0.886508 0.096735
O O4 0.232258 0.112398 0.908186
O O5 0.359205 0.079781 0.604049
O O6 0.248084 0.282419 0.697298
O O7 0.458378 0.745009 0.926872
O O8 0.598382 0.730359 0.854282
O O9 0.500000 0.500000 0.000000
O O10 0.489485 0.751682 0.134786
O O11 0.500000 0.036986 0.250000
O O12 0.357787 0.111278 0.373986
#
# Coordination Sequence:
#
# PCOD9287594 Si02
#       6
#     8   8   8   8   4   8
#     4  11  24  36  62  93 127 160 195 247 304 366
#     4  11  23  40  55  91 127 159 203 242 305 363
#     4  11  19  31  55  88 122 152 190 239 303 372
#     4  10  22  37  58  88 121 158 200 250 303 361
#     4  12  18  34  58  86 124 158 184 248 304 358
#     4  11  22  36  60  89 124 164 190 246 311 357
#
# _framework density 27.338286
#
# number of rings (size 3 to 8) (size 9 to 14) (size 15 to 20)
#    0.000    1.091    5.455    1.636    5.091    0.000 
#    0.000    0.000    0.000    1.091    9.455    0.000 
#    0.000    0.000    0.000    0.000    0.000    0.000 
#
# Total GULP energy -122868.737254 kJ/mol
# GULP energy per Si atom -5584.942602 kJ/mol
# Density = 2.727606 g / cm^3
# Si number density = 27.338286 Si / 1000 Ang^3
#
#
#
# Elastic Constant Matrix: (Units=GPa)
#
#
# Indices 1 2 3 4 5 6 
#
# 1 189.1356 37.3313 64.4195 0.0000 -5.9855 0.0000
# 2 37.3313 67.5957 12.3793 0.0000 14.2406 0.0000
# 3 64.4195 12.3793 212.6431 0.0000 11.4553 0.0000
# 4 0.0000 0.0000 0.0000 21.5189 0.0000 11.5712
# 5 -5.9855 14.2406 11.4553 0.0000 63.8301 0.0000
# 6 0.0000 0.0000 0.0000 11.5712 0.0000 24.8624
#
#
#
# Elastic Compliance Matrix: (Units=1/GPa)
#
#
# Indices 1 2 3 4 5 6 
#
# 1 0.006740 -0.003752 -0.001921 0.000000 0.001814 0.000000
# 2 -0.003752 0.017724 0.000340 0.000000 -0.004367 0.000000
# 3 -0.001921 0.000340 0.005330 0.000000 -0.001213 0.000000
# 4 0.000000 0.000000 0.000000 0.061982 0.000000 -0.028847
# 5 0.001814 -0.004367 -0.001213 0.000000 0.017029 0.000000
# 6 0.000000 0.000000 0.000000 -0.028847 0.000000 0.053647
#
#
# Mechanical properties :
#
#
# Convention : Reuss Voigt Hill
#
# Bulk Modulus (GPa) = 52.28124 77.51496 64.89810
# Shear Modulus (GPa) = 27.85611 45.72524 36.79067
#
# Velocity S-wave (km/s) = 3.19555 4.09415 3.67244
# Velocity P-wave (km/s) = 5.72544 7.12495 6.46319
#
# Compressibility (1/GPa) = 0.01912732
#
# Stress axis : x y z
#
# Youngs Moduli (GPa) = 148.37794 56.42088 187.61056
#
# Poissons Ratio (x) = 0.21171 0.36040
# Poissons Ratio (y) = 0.55677 -0.06383
# Poissons Ratio (z) = 0.28503 -0.01920
#
# Static dielectric constant tensor:
#      x y z
#    x 2.109950 0.000000 -0.129670 
#    y 0.000000 2.114220 0.000000 
#    z -0.129670 0.000000 2.429000 
# 
# From -- ./inp_files/110834.got.cif
#   From: 2010.05.17/outbox.cif.g08.bks.cpg/sg15_56_cif.got.tgz:110834.got - 2010.06.03 18:47:42.
