data_PCOD9287465
_publ_section_title
;
Structure prediction by ZEFSAII (Michael W. Deem and Ramdas Pophale) SiO2 
 PCOD9287465
Probable space group: C 2/C
;
_chemical_formula_sum "Si O2"
_cell_formula_units_Z 60
_cell_length_a 21.242396
_cell_length_b 19.236462
_cell_length_c 11.502235
_cell_angle_alpha 90.000000
_cell_angle_beta 140.658227
_cell_angle_gamma 90.000000
_cell_volume 2979.630721
_symmetry_space_group_name_H-M "C 2/C"
_symmetry_group_IT_number 15
_symmetry_cell_setting 'monoclinic'
loop_
_space_group_symop_operation_xyz
x,y,z
-x,y,1/2-z
-x,-y,-z
x,-y,1/2+z
1/2+x,1/2+y,z
1/2-x,1/2+y,1/2-z
1/2-x,1/2-y,-z
1/2+x,1/2-y,1/2+z
loop_
_atom_site_type_symbol
_atom_site_label
_atom_site_fract_x
_atom_site_fract_y
_atom_site_fract_z
Si Si1 0.392799 0.880537 0.655753
Si Si2 0.603205 0.406853 0.747490
Si Si3 0.150858 0.241581 0.282869
Si Si4 0.654276 0.866968 0.648979
Si Si5 0.380754 0.390815 0.456268
Si Si6 0.738061 0.777607 0.176215
Si Si7 0.500000 0.197503 0.750000
Si Si8 0.760582 0.499153 0.356829
O O1 0.500000 0.873061 0.750000
O O2 0.399033 0.879770 0.803980
O O3 0.321350 0.816829 0.510530
O O4 0.342161 0.952886 0.540478
O O5 0.637428 0.338345 0.728576
O O6 0.486435 0.416443 0.558603
O O7 0.677475 0.468707 0.824087
O O8 0.611807 0.386745 0.894925
O O9 0.250000 0.250000 0.500000
O O10 0.169004 0.285521 0.192657
O O11 0.060373 0.260919 0.237690
O O12 0.730461 0.803112 0.784342
O O13 0.580534 0.844297 0.439989
O O14 0.700842 0.937893 0.666918
O O15 0.341127 0.318794 0.346752
O O16 0.296638 0.445523 0.306177
#
# Coordination Sequence:
#
# PCOD9287465 Si02
#       8
#     8   8   8   8   8   8   4   8
#     4  11  27  47  66  94 136 183 222 271 340 412
#     4  11  19  37  61  92 129 164 217 271 330 394
#     4  12  20  37  63  99 133 161 216 279 332 383
#     4  12  24  45  68  98 134 169 229 276 335 403
#     4  10  22  36  63  92 128 172 215 274 335 393
#     4  11  22  43  69  97 132 177 219 280 335 395
#     4  12  24  38  68 106 130 172 224 284 336 398
#     4  11  24  42  63  92 131 176 222 275 333 399
#
# _framework density 20.136723
#
# number of rings (size 3 to 8) (size 9 to 14) (size 15 to 20)
#    0.000    0.800    4.000    4.000    0.933    0.533 
#    0.000    0.000    2.933    0.000    0.000    0.000 
#    0.000    0.000    0.000    0.000    0.000    0.000 
#
# Total GULP energy -167519.793127 kJ/mol
# GULP energy per Si atom -5583.993104 kJ/mol
# Density = 2.009089 g / cm^3
# Si number density = 20.136723 Si / 1000 Ang^3
#
#
#
# Elastic Constant Matrix: (Units=GPa)
#
#
# Indices 1 2 3 4 5 6 
#
# 1 99.7708 19.5652 21.5875 0.0000 1.7000 0.0000
# 2 19.5652 99.8758 24.4748 0.0000 3.8847 0.0000
# 3 21.5875 24.4748 67.6068 0.0000 -2.0177 0.0000
# 4 0.0000 0.0000 0.0000 25.9931 0.0000 19.5985
# 5 1.7000 3.8847 -2.0177 0.0000 33.0826 0.0000
# 6 0.0000 0.0000 0.0000 19.5985 0.0000 65.2735
#
#
#
# Elastic Compliance Matrix: (Units=1/GPa)
#
#
# Indices 1 2 3 4 5 6 
#
# 1 0.010957 -0.001385 -0.003015 0.000000 -0.000584 0.000000
# 2 -0.001385 0.011241 -0.003671 0.000000 -0.001473 0.000000
# 3 -0.003015 -0.003671 0.017132 0.000000 0.001631 0.000000
# 4 0.000000 0.000000 0.000000 0.049730 0.000000 -0.014931
# 5 -0.000584 -0.001473 0.001631 0.000000 0.030530 0.000000
# 6 0.000000 0.000000 0.000000 -0.014931 0.000000 0.019803
#
#
# Mechanical properties :
#
#
# Convention : Reuss Voigt Hill
#
# Bulk Modulus (GPa) = 43.12603 44.27869 43.70236
# Shear Modulus (GPa) = 30.62549 38.31155 34.46852
#
# Velocity S-wave (km/s) = 3.90407 4.36658 4.14179
# Velocity P-wave (km/s) = 6.46417 6.88908 6.68001
#
# Compressibility (1/GPa) = 0.02318785
#
# Stress axis : x y z
#
# Youngs Moduli (GPa) = 91.26748 88.96315 58.37140
#
# Poissons Ratio (x) = 0.12321 0.17597
# Poissons Ratio (y) = 0.12640 0.21428
# Poissons Ratio (z) = 0.27514 0.32659
#
# Static dielectric constant tensor:
#      x y z
#    x 1.743590 0.000000 0.029140 
#    y 0.000000 1.760130 0.000000 
#    z 0.029140 0.000000 1.697380 
# 
# From -- ./inp_files/113824.got.cif
#   From: 2010.05.17/outbox.cif.g08.bks.cpg/sg15_57_cif.got.tgz:113824.got - 2010.06.03 18:47:42.
