data_PCOD9287256
_publ_section_title
;
Structure prediction by ZEFSAII (Michael W. Deem and Ramdas Pophale) SiO2 
 PCOD9287256
Probable space group: C 2/C
;
_chemical_formula_sum "Si O2"
_cell_formula_units_Z 64
_cell_length_a 28.128109
_cell_length_b 16.461479
_cell_length_c 21.119930
_cell_angle_alpha 90.000000
_cell_angle_beta 18.635026
_cell_angle_gamma 90.000000
_cell_volume 3124.821712
_symmetry_space_group_name_H-M "C 2/C"
_symmetry_group_IT_number 15
_symmetry_cell_setting 'monoclinic'
loop_
_space_group_symop_operation_xyz
x,y,z
-x,y,1/2-z
-x,-y,-z
x,-y,1/2+z
1/2+x,1/2+y,z
1/2-x,1/2+y,1/2-z
1/2-x,1/2-y,-z
1/2+x,1/2-y,1/2+z
loop_
_atom_site_type_symbol
_atom_site_label
_atom_site_fract_x
_atom_site_fract_y
_atom_site_fract_z
Si Si1 0.316742 0.316888 0.328600
Si Si2 0.382754 0.176024 0.084321
Si Si3 0.541169 0.077260 0.770843
Si Si4 0.375299 0.918156 0.022049
Si Si5 0.327169 0.534178 0.478176
Si Si6 0.582179 0.765135 0.446458
Si Si7 0.322612 0.006418 0.209360
Si Si8 0.172146 0.158401 0.538944
O O1 0.229460 0.382550 0.399037
O O2 0.255524 0.226087 0.392967
O O3 0.286926 0.332711 0.439299
O O4 0.488163 0.309991 0.093595
O O5 0.255389 0.240928 0.227368
O O6 0.303941 0.102323 0.222658
O O7 0.456526 0.134704 0.928729
O O8 0.510054 0.212684 0.969649
O O9 0.500000 0.096563 0.750000
O O10 0.488114 0.984428 0.851958
O O11 0.715932 0.075889 0.568608
O O12 0.442363 0.841182 0.974833
O O13 0.287084 0.965914 0.187401
O O14 0.500000 0.554937 0.250000
O O15 0.263064 0.545013 0.629627
O O16 0.311685 0.436142 0.495094
O O17 0.500000 0.000000 0.000000
O O18 0.000000 0.180274 0.750000
#
# Coordination Sequence:
#
# PCOD9287256 Si02
#       8
#     8   8   8   8   8   8   8   8
#     4  11  22  35  55  95 128 169 206 263 315 388
#     4  11  24  42  68  95 130 176 220 271 332 394
#     4  11  23  46  66  93 130 175 220 270 334 392
#     4  11  21  37  68  95 123 170 220 268 323 391
#     4  11  22  38  64  93 124 171 218 266 317 395
#     4  12  22  39  66  97 131 165 223 268 326 389
#     4  11  20  42  67  90 129 179 219 263 331 406
#     4  10  22  35  54  87 136 170 204 246 326 395
#
# _framework density 20.481169000000001
#
# number of rings (size 3 to 8) (size 9 to 14) (size 15 to 20)
#    0.000    1.000    5.000    3.000    3.500    2.500 
#    2.250    1.875    0.000    0.750    0.000    0.000 
#    0.000    0.000    0.000    0.000    0.000    0.000 
#
# Total GULP energy -178680.911861 kJ/mol
# GULP energy per Si atom -5583.778496 kJ/mol
# Density = 2.043455 g / cm^3
# Si number density = 20.481169 Si / 1000 Ang^3
#
#
#
# Elastic Constant Matrix: (Units=GPa)
#
#
# Indices 1 2 3 4 5 6 
#
# 1 125.7856 18.3884 25.0727 -0.0071 2.3454 0.0575
# 2 18.3884 42.3959 3.0846 -0.0128 -7.8478 0.1180
# 3 25.0727 3.0846 59.4630 -0.0177 2.2571 0.1442
# 4 -0.0071 -0.0128 -0.0177 0.9734 0.0089 169.7031
# 5 2.3454 -7.8478 2.2571 0.0089 24.5922 -0.0753
# 6 0.0575 0.1180 0.1442 169.7031 -0.0753-1526.3855
#
#
#
# Elastic Compliance Matrix: (Units=1/GPa)
#
#
# Indices 1 2 3 4 5 6 
#
# 1 0.009313 -0.004120 -0.003642 0.000000 -0.001869 0.000000
# 2 -0.004120 0.027045 -0.000008 -0.000001 0.009024 0.000001
# 3 -0.003642 -0.000008 0.018404 0.000001 -0.001344 0.000002
# 4 0.000000 -0.000001 0.000001 0.050401 -0.000001 0.005604
# 5 -0.001869 0.009024 -0.001344 -0.000001 0.043845 -0.000002
# 6 0.000000 0.000001 0.000002 0.005604 -0.000002 -0.000032
#
#
# Mechanical properties :
#
#
# Convention : Reuss Voigt Hill
#
# Bulk Modulus (GPa) = 25.49624 35.63732 30.56678
# Shear Modulus (GPa) = 28.15441 -288.09074 -129.96816
#
# Velocity S-wave (km/s) = 3.71165 -11.87294 -7.97466
# Velocity P-wave (km/s) = 5.55375 13.05824 8.35684
#
# Compressibility (1/GPa) = 0.03922148
#
# Stress axis : x y z
#
# Youngs Moduli (GPa) = 107.37395 36.97481 54.33481
#
# Poissons Ratio (x) = 0.15235 0.19790
# Poissons Ratio (y) = 0.44242 0.00044
# Poissons Ratio (z) = 0.39109 0.00030
#
# Static dielectric constant tensor:
#      x y z
#    x 1.756740 0.000000 0.022550 
#    y 0.000000 1.758760 0.000000 
#    z 0.022550 0.000000 1.800730 
# 
# From -- ./inp_files/258037.got.cif
#   From: 2010.05.17/outbox.cif.g08.bks.cpg/sg15_130_cif.got.tgz:258037.got - 2010.06.03 18:47:42.
