data_PCOD9287308
_publ_section_title
;
Structure prediction by ZEFSAII (Michael W. Deem and Ramdas Pophale) SiO2 
 PCOD9287308
Probable space group: C 2/C
;
_chemical_formula_sum "Si O2"
_cell_formula_units_Z 40
_cell_length_a 13.718053
_cell_length_b 18.230647
_cell_length_c 14.359999
_cell_angle_alpha 90.000000
_cell_angle_beta 36.354733
_cell_angle_gamma 90.000000
_cell_volume 2128.847508
_symmetry_space_group_name_H-M "C 2/C"
_symmetry_group_IT_number 15
_symmetry_cell_setting 'monoclinic'
loop_
_space_group_symop_operation_xyz
x,y,z
-x,y,1/2-z
-x,-y,-z
x,-y,1/2+z
1/2+x,1/2+y,z
1/2-x,1/2+y,1/2-z
1/2-x,1/2-y,-z
1/2+x,1/2-y,1/2+z
loop_
_atom_site_type_symbol
_atom_site_label
_atom_site_fract_x
_atom_site_fract_y
_atom_site_fract_z
Si Si1 0.841119 0.702919 0.553130
Si Si2 0.549386 0.920894 0.997987
Si Si3 0.500000 0.262840 0.250000
Si Si4 0.301647 0.701490 0.547710
Si Si5 0.500000 0.097710 0.750000
Si Si6 0.676939 0.319726 0.783821
O O1 0.653520 0.689241 0.667330
O O2 0.837840 0.784285 0.602645
O O3 0.920384 0.641952 0.560231
O O4 0.943246 0.712212 0.379754
O O5 0.557649 0.930813 0.103802
O O6 0.720012 0.891770 0.820639
O O7 0.500000 0.000000 0.000000
O O8 0.250000 0.750000 0.500000
O O9 0.488682 0.675850 0.394483
O O10 0.276752 0.755618 0.653396
O O11 0.162862 0.640677 0.657556
#
# Coordination Sequence:
#
# PCOD9287308 Si02
#       6
#     8   8   4   8   4   8
#     4  11  20  40  64  96 124 170 223 268 313 381
#     4  12  27  44  63  95 140 172 211 273 338 392
#     4  10  22  35  68  97 122 168 230 268 302 371
#     4  12  18  32  68 105 124 158 219 272 326 375
#     4  12  24  41  66  95 134 176 212 272 332 397
#     4  12  20  37  67  96 132 165 217 276 318 383
#
# _framework density 18.78951
#
# number of rings (size 3 to 8) (size 9 to 14) (size 15 to 20)
#    0.000    0.400   10.000    0.000    0.000    0.800 
#    0.000    3.000    0.000    0.000    0.000    0.000 
#    0.000    0.000    0.000    0.000    0.000    0.000 
#
# Total GULP energy -111378.621899 kJ/mol
# GULP energy per Si atom -5568.931095 kJ/mol
# Density = 1.874674 g / cm^3
# Si number density = 18.789510 Si / 1000 Ang^3
#
#
#
# Elastic Constant Matrix: (Units=GPa)
#
#
# Indices 1 2 3 4 5 6 
#
# 1 98.1046 32.8138 52.3026 -0.0015 -2.6005 0.0009
# 2 32.8138 78.1594 46.7086 -0.0016 -2.3826 0.0005
# 3 52.3026 46.7086 126.1341 -0.0021 -9.5362 0.0012
# 4 -0.0015 -0.0016 -0.0021 8.4224 0.0007 -8.2234
# 5 -2.6005 -2.3826 -9.5362 0.0007 67.2693 -0.0002
# 6 0.0009 0.0005 0.0012 -8.2234 -0.0002 21.8536
#
#
#
# Elastic Compliance Matrix: (Units=1/GPa)
#
#
# Indices 1 2 3 4 5 6 
#
# 1 0.013619 -0.003004 -0.004552 0.000001 -0.000225 0.000000
# 2 -0.003004 0.017099 -0.005104 0.000002 -0.000234 0.000001
# 3 -0.004552 -0.005104 0.011805 0.000001 0.001317 0.000000
# 4 0.000001 0.000002 0.000001 0.187688 -0.000001 0.070626
# 5 -0.000225 -0.000234 0.001317 -0.000001 0.015035 0.000000
# 6 0.000000 0.000001 0.000000 0.070626 0.000000 0.072335
#
#
# Mechanical properties :
#
#
# Convention : Reuss Voigt Hill
#
# Bulk Modulus (GPa) = 58.12959 62.89422 60.51191
# Shear Modulus (GPa) = 14.34167 30.88060 22.61113
#
# Velocity S-wave (km/s) = 2.76575 4.05841 3.47276
# Velocity P-wave (km/s) = 6.41900 7.45028 6.95378
#
# Compressibility (1/GPa) = 0.01720294
#
# Stress axis : x y z
#
# Youngs Moduli (GPa) = 73.42830 58.48449 84.71045
#
# Poissons Ratio (x) = 0.17571 0.38557
# Poissons Ratio (y) = 0.22061 0.43233
# Poissons Ratio (z) = 0.33422 0.29848
#
# Static dielectric constant tensor:
#      x y z
#    x 1.680710 0.000000 -0.034540 
#    y 0.000000 1.652670 0.000000 
#    z -0.034540 0.000000 1.612620 
# 
# From -- ./inp_files/30327.got.cif
#   From: 2010.05.17/outbox.cif.g08.bks.cpg/sg15_16_cif.got.tgz:30327.got - 2010.06.03 18:47:42.
