data_PCOD9287734
_publ_section_title
;
Structure prediction by ZEFSAII (Michael W. Deem and Ramdas Pophale) SiO2 
 PCOD9287734
Probable space group: C 2/C
;
_chemical_formula_sum "Si O2"
_cell_formula_units_Z 40
_cell_length_a 7.252521
_cell_length_b 30.569230
_cell_length_c 9.226237
_cell_angle_alpha 90.000000
_cell_angle_beta 121.948927
_cell_angle_gamma 90.000000
_cell_volume 1735.642389
_symmetry_space_group_name_H-M "C 2/C"
_symmetry_group_IT_number 15
_symmetry_cell_setting 'monoclinic'
loop_
_space_group_symop_operation_xyz
x,y,z
-x,y,1/2-z
-x,-y,-z
x,-y,1/2+z
1/2+x,1/2+y,z
1/2-x,1/2+y,1/2-z
1/2-x,1/2-y,-z
1/2+x,1/2-y,1/2+z
loop_
_atom_site_type_symbol
_atom_site_label
_atom_site_fract_x
_atom_site_fract_y
_atom_site_fract_z
Si Si1 0.182627 0.127269 0.432685
Si Si2 0.279061 0.961686 0.095077
Si Si3 0.500000 0.245519 0.250000
Si Si4 0.440373 0.839208 0.577707
Si Si5 0.256851 0.177547 0.720286
Si Si6 0.500000 0.482602 0.250000
O O1 0.320648 0.086305 0.546704
O O2 0.324724 0.161057 0.400374
O O3 0.106313 0.152902 0.542379
O O4 0.000000 0.110120 0.250000
O O5 0.500000 0.981842 0.250000
O O6 0.125516 0.957643 0.173171
O O7 0.166935 0.988735 0.918289
O O8 0.624690 0.209468 0.399755
O O9 0.345044 0.276153 0.280387
O O10 0.500000 0.865167 0.750000
O O11 0.283274 0.850140 0.380047
O O12 0.500000 0.181069 0.750000
#
# Coordination Sequence:
#
# PCOD9287734 Si02
#       6
#     8   8   4   8   8   4
#     4  11  24  42  62  92 130 172 219 268 324 390
#     4  11  22  46  71 101 141 175 211 274 323 389
#     4  10  22  37  66  86 124 158 224 276 328 391
#     4   9  22  40  58  89 121 161 218 268 326 392
#     4  10  22  39  60  88 122 166 212 271 332 387
#     4  10  24  43  72 110 132 170 228 250 330 407
#
# _framework density 23.046220999999999
#
# number of rings (size 3 to 8) (size 9 to 14) (size 15 to 20)
#    0.600    1.200    1.000    3.000    2.800    4.800 
#    3.600    1.000    0.000    0.000    0.000    0.000 
#    0.000    0.000    0.000    0.000    0.000    0.000 
#
# Total GULP energy -111369.494891 kJ/mol
# GULP energy per Si atom -5568.474745 kJ/mol
# Density = 2.299377 g / cm^3
# Si number density = 23.046221 Si / 1000 Ang^3
#
#
#
# Elastic Constant Matrix: (Units=GPa)
#
#
# Indices 1 2 3 4 5 6 
#
# 1 57.0709 5.1332 26.7480 0.0000 -12.9355 0.0000
# 2 5.1332 46.4908 15.7619 0.0000 -0.5248 0.0000
# 3 26.7480 15.7619 195.4264 0.0000 -8.2691 0.0000
# 4 0.0000 0.0000 0.0000 -2.6173 0.0000 19.4256
# 5 -12.9355 -0.5248 -8.2691 0.0000 38.1227 0.0000
# 6 0.0000 0.0000 0.0000 19.4256 0.0000 -52.2378
#
#
#
# Elastic Compliance Matrix: (Units=1/GPa)
#
#
# Indices 1 2 3 4 5 6 
#
# 1 0.020194 -0.001349 -0.002388 0.000000 0.006316 0.000000
# 2 -0.001349 0.022205 -0.001628 0.000000 -0.000505 0.000000
# 3 -0.002388 -0.001628 0.005591 0.000000 0.000380 0.000000
# 4 0.000000 0.000000 0.000000 0.217083 0.000000 0.080727
# 5 0.006316 -0.000505 0.000380 0.000000 0.028450 0.000000
# 6 0.000000 0.000000 0.000000 0.080727 0.000000 0.010877
#
#
# Mechanical properties :
#
#
# Convention : Reuss Voigt Hill
#
# Bulk Modulus (GPa) = 26.83765 43.80827 35.32296
# Shear Modulus (GPa) = 15.26493 13.40986 14.33740
#
# Velocity S-wave (km/s) = 2.57643 2.41481 2.49693
# Velocity P-wave (km/s) = 4.53002 5.17931 4.86551
#
# Compressibility (1/GPa) = 0.03726109
#
# Stress axis : x y z
#
# Youngs Moduli (GPa) = 49.51962 45.03558 178.85211
#
# Poissons Ratio (x) = 0.06074 0.42709
# Poissons Ratio (y) = 0.06679 0.29111
# Poissons Ratio (z) = 0.11825 0.07330
#
# Static dielectric constant tensor:
#      x y z
#    x 1.967200 0.000000 0.043920 
#    y 0.000000 1.814990 0.000000 
#    z 0.043920 0.000000 2.010520 
# 
# From -- ./inp_files/25857.got.cif
#   From: 2010.05.17/outbox.cif.g08.bks.cpg/sg15_13_cif.got.tgz:25857.got - 2010.06.03 18:47:42.
