data_PCOD9287931
_publ_section_title
;
Structure prediction by ZEFSAII (Michael W. Deem and Ramdas Pophale) SiO2 
 PCOD9287931
Probable space group: C 2/C
;
_chemical_formula_sum "Si O2"
_cell_formula_units_Z 48
_cell_length_a 19.474599
_cell_length_b 18.312472
_cell_length_c 13.988307
_cell_angle_alpha 90.000000
_cell_angle_beta 25.527665
_cell_angle_gamma 90.000000
_cell_volume 2149.831238
_symmetry_space_group_name_H-M "C 2/C"
_symmetry_group_IT_number 15
_symmetry_cell_setting 'monoclinic'
loop_
_space_group_symop_operation_xyz
x,y,z
-x,y,1/2-z
-x,-y,-z
x,-y,1/2+z
1/2+x,1/2+y,z
1/2-x,1/2+y,1/2-z
1/2-x,1/2-y,-z
1/2+x,1/2-y,1/2+z
loop_
_atom_site_type_symbol
_atom_site_label
_atom_site_fract_x
_atom_site_fract_y
_atom_site_fract_z
Si Si1 0.670168 0.646288 0.181469
Si Si2 0.288824 0.464077 0.041966
Si Si3 0.954388 0.470343 0.917152
Si Si4 0.662505 0.160397 0.822513
Si Si5 0.369505 0.453206 0.610263
Si Si6 0.572683 0.771864 0.034739
O O1 0.673386 0.575911 0.106344
O O2 0.611350 0.624500 0.362217
O O3 0.557960 0.708882 0.279253
O O4 0.844120 0.680737 0.985555
O O5 0.284645 0.395618 0.118424
O O6 0.382512 0.528172 0.981319
O O7 0.110889 0.495561 0.266864
O O8 0.915016 0.387532 0.996969
O O9 0.000000 0.473147 0.750000
O O10 0.802951 0.518803 0.136646
O O11 0.524260 0.179757 0.919993
O O12 0.773941 0.229576 0.703374
O O13 0.500000 0.500000 0.500000
#
# Coordination Sequence:
#
# PCOD9287931 Si02
#       6
#     8   8   8   8   8   8
#     4  11  22  41  62  99 133 167 220 253 333 389
#     4  11  23  38  65  92 129 167 208 267 327 388
#     4  11  21  41  63  91 121 171 212 265 318 383
#     4  10  22  38  60  88 123 168 217 248 327 377
#     4  11  23  40  65  93 132 166 211 278 322 374
#     4  10  23  39  63  89 133 175 204 267 309 404
#
# _framework density 22.327334
#
# number of rings (size 3 to 8) (size 9 to 14) (size 15 to 20)
#    0.000    1.333    1.667    6.000    0.000    6.667 
#    0.000    0.833    0.000    0.000    0.000    0.000 
#    0.000    0.000    0.000    0.000    0.000    0.000 
#
# Total GULP energy -133896.323249 kJ/mol
# GULP energy per Si atom -5579.013469 kJ/mol
# Density = 2.227652 g / cm^3
# Si number density = 22.327334 Si / 1000 Ang^3
#
#
#
# Elastic Constant Matrix: (Units=GPa)
#
#
# Indices 1 2 3 4 5 6 
#
# 1 104.8612 20.7705 27.1963 0.0000 -4.9090 0.0003
# 2 20.7705 61.5489 8.5601 -0.0001 7.9010 0.0003
# 3 27.1963 8.5601 77.5190 0.0006 -10.1412 -0.0003
# 4 0.0000 -0.0001 0.0006 45.3931 -0.0005 -1.5215
# 5 -4.9090 7.9010 -10.1412 -0.0005 40.4926 -0.0003
# 6 0.0003 0.0003 -0.0003 -1.5215 -0.0003 51.8511
#
#
#
# Elastic Compliance Matrix: (Units=1/GPa)
#
#
# Indices 1 2 3 4 5 6 
#
# 1 0.011150 -0.003444 -0.003377 0.000000 0.001178 0.000000
# 2 -0.003444 0.018150 -0.001358 0.000000 -0.004299 0.000000
# 3 -0.003377 -0.001358 0.014698 0.000000 0.003537 0.000000
# 4 0.000000 0.000000 0.000000 0.022051 0.000000 0.000647
# 5 0.001178 -0.004299 0.003537 0.000000 0.026563 0.000000
# 6 0.000000 0.000000 0.000000 0.000647 0.000000 0.019305
#
#
# Mechanical properties :
#
#
# Convention : Reuss Voigt Hill
#
# Bulk Modulus (GPa) = 36.18204 39.66478 37.92341
# Shear Modulus (GPa) = 36.36640 40.04085 38.20362
#
# Velocity S-wave (km/s) = 4.04020 4.23940 4.14100
# Velocity P-wave (km/s) = 6.16480 6.46274 6.31553
#
# Compressibility (1/GPa) = 0.02763802
#
# Stress axis : x y z
#
# Youngs Moduli (GPa) = 89.68876 55.09544 68.03837
#
# Poissons Ratio (x) = 0.18976 0.22978
# Poissons Ratio (y) = 0.30890 0.09242
# Poissons Ratio (z) = 0.30290 0.07484
#
# Static dielectric constant tensor:
#      x y z
#    x 1.946410 0.000000 -0.003830 
#    y 0.000000 1.878840 0.000000 
#    z -0.003830 0.000000 1.897690 
# 
# From -- ./inp_files/47939.got.cif
#   From: 2010.05.17/outbox.cif.g08.bks.cpg/sg15_24_cif.got.tgz:47939.got - 2010.06.03 18:47:42.
