data_PCOD9287956
_publ_section_title
;
Structure prediction by ZEFSAII (Michael W. Deem and Ramdas Pophale) SiO2 
 PCOD9287956
Probable space group: C 2/C
;
_chemical_formula_sum "Si O2"
_cell_formula_units_Z 48
_cell_length_a 16.597165
_cell_length_b 21.355144
_cell_length_c 9.143599
_cell_angle_alpha 90.000000
_cell_angle_beta 51.388867
_cell_angle_gamma 90.000000
_cell_volume 2532.366548
_symmetry_space_group_name_H-M "C 2/C"
_symmetry_group_IT_number 15
_symmetry_cell_setting 'monoclinic'
loop_
_space_group_symop_operation_xyz
x,y,z
-x,y,1/2-z
-x,-y,-z
x,-y,1/2+z
1/2+x,1/2+y,z
1/2-x,1/2+y,1/2-z
1/2-x,1/2-y,-z
1/2+x,1/2-y,1/2+z
loop_
_atom_site_type_symbol
_atom_site_label
_atom_site_fract_x
_atom_site_fract_y
_atom_site_fract_z
Si Si1 0.889872 0.555666 0.954027
Si Si2 0.151090 0.791488 0.433788
Si Si3 0.195255 0.692398 0.978645
Si Si4 0.224455 0.163759 0.153701
Si Si5 0.547087 0.705851 0.542698
Si Si6 0.891741 0.570987 0.295505
O O1 0.853055 0.489891 0.927118
O O2 0.000000 0.570536 0.750000
O O3 0.799903 0.606398 0.038097
O O4 0.906603 0.553515 0.109675
O O5 0.228980 0.827331 0.236970
O O6 0.157696 0.821684 0.584872
O O7 0.200681 0.722610 0.397337
O O8 0.041900 0.788861 0.477437
O O9 0.250000 0.750000 0.000000
O O10 0.095131 0.725285 0.020683
O O11 0.172152 0.634336 0.108803
O O12 0.140115 0.162880 0.378453
O O13 0.500000 0.683824 0.750000
O O14 0.000000 0.584913 0.250000
#
# Coordination Sequence:
#
# PCOD9287956 Si02
#       6
#     8   8   8   8   8   8
#     4  11  25  42  63  93 127 166 212 257 322 383
#     4  10  22  38  60  92 128 166 205 265 319 369
#     4  11  22  37  64  99 123 165 210 259 319 376
#     4  10  24  39  60  93 128 166 212 258 319 375
#     4  11  21  37  62  93 129 161 211 258 318 373
#     4  11  24  40  64  92 128 167 209 261 318 384
#
# _framework density 18.954602000000001
#
# number of rings (size 3 to 8) (size 9 to 14) (size 15 to 20)
#    0.000    1.333    1.667    5.000    7.000    2.667 
#    0.000    0.000    0.000    1.000    4.333    0.000 
#    0.000    0.000    0.000    0.000    0.000    0.000 
#
# Total GULP energy -133990.290910 kJ/mol
# GULP energy per Si atom -5582.928788 kJ/mol
# Density = 1.891146 g / cm^3
# Si number density = 18.954602 Si / 1000 Ang^3
#
#
#
# Elastic Constant Matrix: (Units=GPa)
#
#
# Indices 1 2 3 4 5 6 
#
# 1 149.0936 48.9268 47.3298 0.0000 11.5766 0.0000
# 2 48.9268 103.3170 72.5823 0.0000 -1.8530 0.0000
# 3 47.3298 72.5823 144.9175 0.0000 9.0580 0.0000
# 4 0.0000 0.0000 0.0000 31.0616 0.0000 -3.4717
# 5 11.5766 -1.8530 9.0580 0.0000 32.1588 0.0000
# 6 0.0000 0.0000 0.0000 -3.4717 0.0000 26.8840
#
#
#
# Elastic Compliance Matrix: (Units=1/GPa)
#
#
# Indices 1 2 3 4 5 6 
#
# 1 0.008319 -0.003416 -0.000821 0.000000 -0.002960 0.000000
# 2 -0.003416 0.016630 -0.007482 0.000000 0.004295 0.000000
# 3 -0.000821 -0.007482 0.011120 0.000000 -0.003268 0.000000
# 4 0.000000 0.000000 0.000000 0.032666 0.000000 0.004218
# 5 -0.002960 0.004295 -0.003268 0.000000 0.033329 0.000000
# 6 0.000000 0.000000 0.000000 0.004218 0.000000 0.037742
#
#
# Mechanical properties :
#
#
# Convention : Reuss Voigt Hill
#
# Bulk Modulus (GPa) = 79.16903 81.66732 80.41818
# Shear Modulus (GPa) = 29.85920 33.25349 31.55635
#
# Velocity S-wave (km/s) = 3.97331 4.19307 4.08467
# Velocity P-wave (km/s) = 7.93146 8.16221 8.04766
#
# Compressibility (1/GPa) = 0.01263120
#
# Stress axis : x y z
#
# Youngs Moduli (GPa) = 120.21316 60.13341 89.92602
#
# Poissons Ratio (x) = 0.20539 0.07384
# Poissons Ratio (y) = 0.41060 0.67282
# Poissons Ratio (z) = 0.09871 0.44992
#
# Static dielectric constant tensor:
#      x y z
#    x 1.684150 0.000000 0.009510 
#    y 0.000000 1.653050 0.000000 
#    z 0.009510 0.000000 1.708000 
# 
# From -- ./inp_files/50049.got.cif
#   From: 2010.05.17/outbox.cif.g08.bks.cpg/sg15_26_cif.got.tgz:50049.got - 2010.06.03 18:47:42.
