data_PCOD9287322
_publ_section_title
;
Structure prediction by ZEFSAII (Michael W. Deem and Ramdas Pophale) SiO2 
 PCOD9287322
Probable space group: C 2/C
;
_chemical_formula_sum "Si O2"
_cell_formula_units_Z 64
_cell_length_a 22.754623
_cell_length_b 18.181535
_cell_length_c 19.090265
_cell_angle_alpha 90.000000
_cell_angle_beta 23.821393
_cell_angle_gamma 90.000000
_cell_volume 3189.862102
_symmetry_space_group_name_H-M "C 2/C"
_symmetry_group_IT_number 15
_symmetry_cell_setting 'monoclinic'
loop_
_space_group_symop_operation_xyz
x,y,z
-x,y,1/2-z
-x,-y,-z
x,-y,1/2+z
1/2+x,1/2+y,z
1/2-x,1/2+y,1/2-z
1/2-x,1/2-y,-z
1/2+x,1/2-y,1/2+z
loop_
_atom_site_type_symbol
_atom_site_label
_atom_site_fract_x
_atom_site_fract_y
_atom_site_fract_z
Si Si1 0.721314 0.651560 0.305411
Si Si2 0.562676 0.530357 0.533337
Si Si3 0.411457 0.972205 0.529219
Si Si4 0.061192 0.771612 0.456036
Si Si5 0.622842 0.576064 0.171053
Si Si6 0.812555 0.921706 0.202972
Si Si7 0.428931 0.736350 0.249485
Si Si8 0.606629 0.102707 0.699355
O O1 0.659401 0.603795 0.438831
O O2 0.786147 0.587995 0.183507
O O3 0.862443 0.702198 0.163560
O O4 0.591137 0.699693 0.411940
O O5 0.448105 0.489530 0.707869
O O6 0.669270 0.465937 0.389714
O O7 0.459649 0.559808 0.583745
O O8 0.519502 0.935721 0.356437
O O9 0.500000 0.000000 0.500000
O O10 0.320358 0.044976 0.608619
O O11 0.179760 0.836463 0.319934
O O12 0.036599 0.757385 0.565502
O O13 0.500000 0.593914 0.250000
O O14 0.648383 0.656638 0.178547
O O15 0.761765 0.555245 0.974280
O O16 0.500000 0.738132 0.250000
O O17 0.341110 0.813703 0.340041
O O18 0.500000 0.109705 0.750000
#
# Coordination Sequence:
#
# PCOD9287322 Si02
#       8
#     8   8   8   8   8   8   8   8
#     4  10  24  38  62  87 123 160 205 262 315 366
#     4   9  18  38  56  81 113 156 206 253 304 361
#     4  11  24  38  60  90 128 161 211 268 311 354
#     4  11  21  38  62  87 121 166 212 247 312 373
#     4  11  23  35  57  84 119 163 208 245 296 365
#     4   9  19  34  60  79 112 160 199 255 307 358
#     4  10  22  36  53  83 128 172 207 238 282 367
#     4  11  24  39  57  86 127 172 207 247 302 371
#
# _framework density 20.063564
#
# number of rings (size 3 to 8) (size 9 to 14) (size 15 to 20)
#    0.000    1.750    2.500    1.875    7.000    2.000 
#    0.000    0.000    0.000    0.000    0.000    8.750 
#    0.000    0.000    0.000    0.000    0.000    0.000 
#
# Total GULP energy -178142.042260 kJ/mol
# GULP energy per Si atom -5566.938821 kJ/mol
# Density = 2.001790 g / cm^3
# Si number density = 20.063564 Si / 1000 Ang^3
#
#
#
# Elastic Constant Matrix: (Units=GPa)
#
#
# Indices 1 2 3 4 5 6 
#
# 1 35.4990 17.3203 15.4578 0.0015 0.2459 0.0000
# 2 17.3203 97.3526 65.2242 0.0020 21.9544 -0.0010
# 3 15.4578 65.2242 137.0780 0.0033 8.4757 -0.0001
# 4 0.0015 0.0020 0.0033 37.2087 -0.0014 -1.9918
# 5 0.2459 21.9544 8.4757 -0.0014 23.2087 0.0000
# 6 0.0000 -0.0010 -0.0001 -1.9918 0.0000 15.2590
#
#
#
# Elastic Compliance Matrix: (Units=1/GPa)
#
#
# Indices 1 2 3 4 5 6 
#
# 1 0.031636 -0.006384 -0.000903 -0.000001 0.006034 0.000000
# 2 -0.006384 0.020460 -0.008004 -0.000001 -0.016364 0.000001
# 3 -0.000903 -0.008004 0.010985 0.000000 0.003569 -0.000001
# 4 -0.000001 -0.000001 0.000000 0.027065 0.000002 0.003533
# 5 0.006034 -0.016364 0.003569 0.000002 0.057200 -0.000001
# 6 0.000000 0.000001 -0.000001 0.003533 -0.000001 0.065996
#
#
# Mechanical properties :
#
#
# Convention : Reuss Voigt Hill
#
# Bulk Modulus (GPa) = 30.76975 51.77047 41.27011
# Shear Modulus (GPa) = 19.62661 26.59710 23.11186
#
# Velocity S-wave (km/s) = 3.13105 3.64489 3.39769
# Velocity P-wave (km/s) = 5.33298 6.60097 6.00056
#
# Compressibility (1/GPa) = 0.03249946
#
# Stress axis : x y z
#
# Youngs Moduli (GPa) = 31.60944 48.87479 91.03711
#
# Poissons Ratio (x) = 0.31203 0.08219
# Poissons Ratio (y) = 0.20181 0.72863
# Poissons Ratio (z) = 0.02854 0.39118
#
# Static dielectric constant tensor:
#      x y z
#    x 1.821800 0.000000 -0.004210 
#    y 0.000000 1.790500 0.000000 
#    z -0.004210 0.000000 1.770640 
# 
# From -- ./inp_files/258055.got.cif
#   From: 2010.05.17/outbox.cif.g08.bks.cpg/sg15_130_cif.got.tgz:258055.got - 2010.06.03 18:47:42.
