data_PCOD9287385
_publ_section_title
;
Structure prediction by ZEFSAII (Michael W. Deem and Ramdas Pophale) SiO2 
 PCOD9287385
Probable space group: C 2/C
;
_chemical_formula_sum "Si O2"
_cell_formula_units_Z 52
_cell_length_a 11.405561
_cell_length_b 9.156587
_cell_length_c 25.529833
_cell_angle_alpha 90.000000
_cell_angle_beta 80.852332
_cell_angle_gamma 90.000000
_cell_volume 2632.324460
_symmetry_space_group_name_H-M "C 2/C"
_symmetry_group_IT_number 15
_symmetry_cell_setting 'monoclinic'
loop_
_space_group_symop_operation_xyz
x,y,z
-x,y,1/2-z
-x,-y,-z
x,-y,1/2+z
1/2+x,1/2+y,z
1/2-x,1/2+y,1/2-z
1/2-x,1/2-y,-z
1/2+x,1/2-y,1/2+z
loop_
_atom_site_type_symbol
_atom_site_label
_atom_site_fract_x
_atom_site_fract_y
_atom_site_fract_z
Si Si1 0.765609 0.598208 0.582860
Si Si2 0.068233 0.346137 0.883187
Si Si3 0.000000 0.869652 0.250000
Si Si4 0.025048 0.329008 0.498178
Si Si5 0.847045 0.671049 0.329027
Si Si6 0.873866 0.965175 0.157501
Si Si7 0.457284 0.567281 0.447723
O O1 0.850408 0.482347 0.606875
O O2 0.843491 0.684148 0.534318
O O3 0.710115 0.711630 0.627202
O O4 0.664063 0.504842 0.562046
O O5 0.139047 0.205972 0.856555
O O6 0.965609 0.387601 0.849408
O O7 0.001548 0.287321 0.940337
O O8 0.893706 0.763851 0.276499
O O9 0.954781 0.962773 0.203917
O O10 0.000000 0.500000 0.500000
O O11 0.944707 0.237671 0.463678
O O12 0.749444 0.548323 0.325209
O O13 0.946318 0.040610 0.104745
O O14 0.500000 0.500000 0.500000
#
# Coordination Sequence:
#
# PCOD9287385 Si02
#       7
#     8   8   4   8   8   8   8
#     4  11  23  39  65  95 138 173 209 265 315 390
#     4  10  23  40  61  99 132 171 210 255 319 384
#     4  10  24  46  62  98 122 162 222 274 338 366
#     4  10  22  36  58  99 137 169 210 253 311 385
#     4  11  23  44  69  89 124 166 218 274 322 383
#     4  11  23  44  70  93 129 171 214 274 322 392
#     4  12  22  39  66  99 130 178 215 252 330 389
#
# _framework density 19.754404000000001
#
# number of rings (size 3 to 8) (size 9 to 14) (size 15 to 20)
#    0.000    1.231    6.154    0.000    2.154    8.615 
#    0.000    0.000    0.000    0.000    0.000    0.000 
#    0.000    0.000    0.000    0.000    0.000    0.000 
#
# Total GULP energy -145172.294016 kJ/mol
# GULP energy per Si atom -5583.549770 kJ/mol
# Density = 1.970944 g / cm^3
# Si number density = 19.754404 Si / 1000 Ang^3
#
#
#
# Elastic Constant Matrix: (Units=GPa)
#
#
# Indices 1 2 3 4 5 6 
#
# 1 93.6464 48.0509 35.1985 0.0000 4.3748 0.0000
# 2 48.0509 89.3587 28.1120 0.0000 15.4499 0.0000
# 3 35.1985 28.1120 98.6550 0.0000 2.5328 0.0000
# 4 0.0000 0.0000 0.0000 25.4884 0.0000 -4.9081
# 5 4.3748 15.4499 2.5328 0.0000 33.1158 0.0000
# 6 0.0000 0.0000 0.0000 -4.9081 0.0000 52.1840
#
#
#
# Elastic Compliance Matrix: (Units=1/GPa)
#
#
# Indices 1 2 3 4 5 6 
#
# 1 0.015890 -0.007750 -0.003507 0.000000 0.001785 0.000000
# 2 -0.007750 0.017151 -0.001947 0.000000 -0.006829 0.000000
# 3 -0.003507 -0.001947 0.011930 0.000000 0.000459 0.000000
# 4 0.000000 0.000000 0.000000 0.039957 0.000000 0.003758
# 5 0.001785 -0.006829 0.000459 0.000000 0.033112 0.000000
# 6 0.000000 0.000000 0.000000 0.003758 0.000000 0.019516
#
#
# Mechanical properties :
#
#
# Convention : Reuss Voigt Hill
#
# Bulk Modulus (GPa) = 53.86585 56.04256 54.95420
# Shear Modulus (GPa) = 29.38542 33.51088 31.44815
#
# Velocity S-wave (km/s) = 3.86105 4.12318 3.99426
# Velocity P-wave (km/s) = 6.87051 7.14833 7.01080
#
# Compressibility (1/GPa) = 0.01856464
#
# Stress axis : x y z
#
# Youngs Moduli (GPa) = 62.93436 58.30435 83.81896
#
# Poissons Ratio (x) = 0.45184 0.29392
# Poissons Ratio (y) = 0.48772 0.16320
# Poissons Ratio (z) = 0.22069 0.11352
#
# Static dielectric constant tensor:
#      x y z
#    x 1.691880 0.000000 -0.019000 
#    y 0.000000 1.736790 0.000000 
#    z -0.019000 0.000000 1.719150 
# 
# From -- ./inp_files/291171.got.cif
#   From: 2010.05.17/outbox.cif.g08.bks.cpg/sg15_146_cif.got.tgz:291171.got - 2010.06.03 18:47:42.
