data_PCOD9287062
_publ_section_title
;
Structure prediction by ZEFSAII (Michael W. Deem and Ramdas Pophale) SiO2 
 PCOD9287062
Probable space group: C 2/C
;
_chemical_formula_sum "Si O2"
_cell_formula_units_Z 60
_cell_length_a 23.567807
_cell_length_b 14.077864
_cell_length_c 11.166309
_cell_angle_alpha 90.000000
_cell_angle_beta 54.297977
_cell_angle_gamma 90.000000
_cell_volume 3008.536342
_symmetry_space_group_name_H-M "C 2/C"
_symmetry_group_IT_number 15
_symmetry_cell_setting 'monoclinic'
loop_
_space_group_symop_operation_xyz
x,y,z
-x,y,1/2-z
-x,-y,-z
x,-y,1/2+z
1/2+x,1/2+y,z
1/2-x,1/2+y,1/2-z
1/2-x,1/2-y,-z
1/2+x,1/2-y,1/2+z
loop_
_atom_site_type_symbol
_atom_site_label
_atom_site_fract_x
_atom_site_fract_y
_atom_site_fract_z
Si Si1 0.000000 0.927228 0.250000
Si Si2 0.799353 0.847711 0.225834
Si Si3 0.385516 0.463470 0.566956
Si Si4 0.584613 0.762324 0.040216
Si Si5 0.637527 0.678191 0.604006
Si Si6 0.936974 0.799228 0.661386
Si Si7 0.361733 0.157045 0.570720
Si Si8 0.541618 0.018030 0.573868
O O1 0.940064 0.860431 0.265928
O O2 0.043864 0.983953 0.097005
O O3 0.809268 0.832058 0.354722
O O4 0.718686 0.849031 0.291929
O O5 0.839841 0.945297 0.147334
O O6 0.842331 0.765086 0.107785
O O7 0.344458 0.390535 0.529881
O O8 0.407901 0.400806 0.653656
O O9 0.583853 0.727987 0.178436
O O10 0.520690 0.707856 0.054267
O O11 0.566199 0.873013 0.052264
O O12 0.633087 0.783369 0.558475
O O13 0.905557 0.719388 0.611774
O O14 0.394356 0.054487 0.512448
O O15 0.500000 0.998841 0.750000
O O16 0.500000 0.000000 0.500000
#
# Coordination Sequence:
#
# PCOD9287062 Si02
#       8
#     4   8   8   8   8   8   8   8
#     4   8  18  38  64  94 116 172 224 270 326 376
#     4  12  26  41  64 104 139 177 217 265 354 404
#     4   9  22  40  66  95 134 174 213 275 331 404
#     4  11  24  42  70 105 128 175 226 286 325 411
#     4   9  22  42  63  97 128 171 225 266 330 389
#     4  10  21  46  68  97 136 169 232 275 337 385
#     4  11  25  44  70  96 136 182 214 284 334 407
#     4  12  25  46  73 102 132 178 238 286 337 391
#
# _framework density 19.943252000000001
#
# number of rings (size 3 to 8) (size 9 to 14) (size 15 to 20)
#    0.800    0.800    2.667    1.200    4.667    5.867 
#    4.800    0.000    0.000    0.000    0.000    0.000 
#    0.000    0.000    0.000    0.000    0.000    0.000 
#
# Total GULP energy -167501.488604 kJ/mol
# GULP energy per Si atom -5583.382953 kJ/mol
# Density = 1.989786 g / cm^3
# Si number density = 19.943252 Si / 1000 Ang^3
#
#
#
# Elastic Constant Matrix: (Units=GPa)
#
#
# Indices 1 2 3 4 5 6 
#
# 1 63.6969 23.3604 57.5221 0.0000 -3.2448 0.0000
# 2 23.3604 74.1026 37.7615 0.0000 -3.6163 0.0000
# 3 57.5221 37.7615 91.1093 0.0000 -1.8696 0.0000
# 4 0.0000 0.0000 0.0000 16.2661 0.0000 -2.7263
# 5 -3.2448 -3.6163 -1.8696 0.0000 40.7380 0.0000
# 6 0.0000 0.0000 0.0000 -2.7263 0.0000 0.5330
#
#
#
# Elastic Compliance Matrix: (Units=1/GPa)
#
#
# Indices 1 2 3 4 5 6 
#
# 1 0.036672 0.000393 -0.023277 0.000000 0.001888 0.000000
# 2 0.000393 0.017171 -0.007340 0.000000 0.001219 0.000000
# 3 -0.023277 -0.007340 0.028690 0.000000 -0.001189 0.000000
# 4 0.000000 0.000000 0.000000 0.430867 0.000000 2.203950
# 5 0.001888 0.001219 -0.001189 0.000000 0.024751 0.000000
# 6 0.000000 0.000000 0.000000 2.203950 0.000000 13.149790
#
#
# Mechanical properties :
#
#
# Convention : Reuss Voigt Hill
#
# Bulk Modulus (GPa) = 45.28045 51.79964 48.54004
# Shear Modulus (GPa) = 0.36348 18.85842 9.61095
#
# Velocity S-wave (km/s) = 0.42738 3.07840 2.19764
# Velocity P-wave (km/s) = 4.79557 6.21814 5.55260
#
# Compressibility (1/GPa) = 0.02208458
#
# Stress axis : x y z
#
# Youngs Moduli (GPa) = 27.26876 58.23913 34.85578
#
# Poissons Ratio (x) = -0.02290 0.81134
# Poissons Ratio (y) = -0.01072 0.25584
# Poissons Ratio (z) = 0.63474 0.42747
#
# Static dielectric constant tensor:
#      x y z
#    x 1.703790 0.000000 0.017960 
#    y 0.000000 1.701370 0.000000 
#    z 0.017960 0.000000 1.722880 
# 
# From -- ./inp_files/112705.got.cif
#   From: 2010.05.17/outbox.cif.g08.bks.cpg/sg15_57_cif.got.tgz:112705.got - 2010.06.03 18:47:42.
