data_PCOD9287912
_publ_section_title
;
Structure prediction by ZEFSAII (Michael W. Deem and Ramdas Pophale) SiO2 
 PCOD9287912
Probable space group: C 2/C
;
_chemical_formula_sum "Si O2"
_cell_formula_units_Z 52
_cell_length_a 14.208553
_cell_length_b 18.269077
_cell_length_c 14.021343
_cell_angle_alpha 90.000000
_cell_angle_beta 40.463970
_cell_angle_gamma 90.000000
_cell_volume 2362.003417
_symmetry_space_group_name_H-M "C 2/C"
_symmetry_group_IT_number 15
_symmetry_cell_setting 'monoclinic'
loop_
_space_group_symop_operation_xyz
x,y,z
-x,y,1/2-z
-x,-y,-z
x,-y,1/2+z
1/2+x,1/2+y,z
1/2-x,1/2+y,1/2-z
1/2-x,1/2-y,-z
1/2+x,1/2-y,1/2+z
loop_
_atom_site_type_symbol
_atom_site_label
_atom_site_fract_x
_atom_site_fract_y
_atom_site_fract_z
Si Si1 0.500000 0.665402 0.250000
Si Si2 0.315265 0.769178 0.254817
Si Si3 0.836476 0.023673 0.152956
Si Si4 0.841077 0.600358 0.601576
Si Si5 0.215718 0.385324 0.053568
Si Si6 0.847023 0.368159 0.602778
Si Si7 0.163434 0.444551 0.605228
O O1 0.430327 0.717251 0.221470
O O2 0.381651 0.616507 0.393520
O O3 0.339349 0.816435 0.141370
O O4 0.291143 0.831005 0.353448
O O5 0.184993 0.712403 0.333745
O O6 0.793629 0.081212 0.268709
O O7 0.770026 0.065895 0.112148
O O8 0.747601 0.951830 0.257478
O O9 0.000000 0.000000 0.000000
O O10 0.787822 0.585331 0.535233
O O11 0.014725 0.586731 0.467622
O O12 0.160653 0.467051 0.106045
O O13 0.130854 0.355264 0.026978
O O14 0.000000 0.417445 0.750000
#
# Coordination Sequence:
#
# PCOD9287912 Si02
#       7
#     4   8   8   8   8   8   8
#     4  10  22  38  60 102 146 174 216 292 366 410
#     4  11  23  39  67 103 140 178 234 288 354 420
#     4  12  27  43  70 104 144 183 238 291 349 416
#     4  12  24  45  72  98 138 192 233 288 355 427
#     4  11  22  35  64  98 138 170 221 290 345 411
#     4  11  23  43  67 102 138 192 235 283 359 423
#     4  12  25  44  72 101 138 181 241 288 346 430
#
# _framework density 22.01521
#
# number of rings (size 3 to 8) (size 9 to 14) (size 15 to 20)
#    0.000    0.615    4.615    5.077    5.385    1.846 
#    0.000    0.769    0.000    0.000    0.000    0.000 
#    0.000    0.000    0.000    0.000    0.000    0.000 
#
# Total GULP energy -145047.180972 kJ/mol
# GULP energy per Si atom -5578.737730 kJ/mol
# Density = 2.196510 g / cm^3
# Si number density = 22.015210 Si / 1000 Ang^3
#
#
#
# Elastic Constant Matrix: (Units=GPa)
#
#
# Indices 1 2 3 4 5 6 
#
# 1 99.5708 11.4056 43.9914 0.0011 7.1876 -0.0009
# 2 11.4056 90.0343 23.9818 0.0011 4.7109 -0.0009
# 3 43.9914 23.9818 102.9031 0.0016 -5.6898 -0.0017
# 4 0.0011 0.0011 0.0016 37.2087 -0.0011 -1.4642
# 5 7.1876 4.7109 -5.6898 -0.0011 29.8094 0.0011
# 6 -0.0009 -0.0009 -0.0017 -1.4642 0.0011 28.2146
#
#
#
# Elastic Compliance Matrix: (Units=1/GPa)
#
#
# Indices 1 2 3 4 5 6 
#
# 1 0.012884 0.000126 -0.005771 0.000000 -0.004228 0.000000
# 2 0.000126 0.012019 -0.002993 0.000000 -0.002501 0.000000
# 3 -0.005771 -0.002993 0.013124 0.000000 0.004370 0.000000
# 4 0.000000 0.000000 0.000000 0.026930 0.000001 0.001398
# 5 -0.004228 -0.002501 0.004370 0.000001 0.035795 -0.000001
# 6 0.000000 0.000000 0.000000 0.001398 -0.000001 0.035515
#
#
# Mechanical properties :
#
#
# Convention : Reuss Voigt Hill
#
# Bulk Modulus (GPa) = 48.19105 50.14064 49.16585
# Shear Modulus (GPa) = 31.16029 33.25515 32.20772
#
# Velocity S-wave (km/s) = 3.76626 3.89080 3.82904
# Velocity P-wave (km/s) = 6.39143 6.55815 6.47533
#
# Compressibility (1/GPa) = 0.02075074
#
# Stress axis : x y z
#
# Youngs Moduli (GPa) = 77.61863 83.20109 76.19515
#
# Poissons Ratio (x) = -0.01051 0.43972
# Poissons Ratio (y) = -0.00980 0.22808
# Poissons Ratio (z) = 0.44793 0.24905
#
# Static dielectric constant tensor:
#      x y z
#    x 2.017650 0.000000 0.026170 
#    y 0.000000 1.817970 0.000000 
#    z 0.026170 0.000000 1.920070 
# 
# From -- ./inp_files/155452.got.cif
#   From: 2010.05.17/outbox.cif.g08.bks.cpg/sg15_78_cif.got.tgz:155452.got - 2010.06.03 18:47:42.
