data_PCOD9287646
_publ_section_title
;
Structure prediction by ZEFSAII (Michael W. Deem and Ramdas Pophale) SiO2 
 PCOD9287646
Probable space group: C 2/C
;
_chemical_formula_sum "Si O2"
_cell_formula_units_Z 40
_cell_length_a 14.582580
_cell_length_b 16.722839
_cell_length_c 13.819743
_cell_angle_alpha 90.000000
_cell_angle_beta 149.659929
_cell_angle_gamma 90.000000
_cell_volume 1702.349205
_symmetry_space_group_name_H-M "C 2/C"
_symmetry_group_IT_number 15
_symmetry_cell_setting 'monoclinic'
loop_
_space_group_symop_operation_xyz
x,y,z
-x,y,1/2-z
-x,-y,-z
x,-y,1/2+z
1/2+x,1/2+y,z
1/2-x,1/2+y,1/2-z
1/2-x,1/2-y,-z
1/2+x,1/2-y,1/2+z
loop_
_atom_site_type_symbol
_atom_site_label
_atom_site_fract_x
_atom_site_fract_y
_atom_site_fract_z
Si Si1 0.908788 0.533192 0.771391
Si Si2 0.430765 0.382896 0.291507
Si Si3 0.166778 0.384185 0.661261
Si Si4 0.937441 0.282432 0.579066
Si Si5 0.995645 0.060710 0.129699
O O1 0.865715 0.449185 0.783403
O O2 0.713161 0.573884 0.586062
O O3 0.000000 0.520463 0.750000
O O4 0.043800 0.583319 0.960955
O O5 0.500000 0.407320 0.250000
O O6 0.574837 0.313188 0.447248
O O7 0.433848 0.471139 0.340102
O O8 0.237232 0.338105 0.102579
O O9 0.084415 0.305978 0.633057
O O10 0.367497 0.381402 0.801057
O O11 0.000000 0.292480 0.750000
O O12 0.000000 0.070413 0.250000
#
# Coordination Sequence:
#
# PCOD9287646 Si02
#       5
#     8   8   8   8   8
#     4  11  22  39  61  90 134 160 204 267 314 381
#     4  10  22  37  61  91 126 175 204 246 332 387
#     4  11  24  38  62  98 125 172 209 259 325 372
#     4  11  23  40  61  93 134 168 207 257 316 390
#     4  11  23  41  64  95 131 166 211 260 320 379
#
# _framework density 23.496942000000001
#
# number of rings (size 3 to 8) (size 9 to 14) (size 15 to 20)
#    0.000    1.200    2.000    6.000   11.200    0.000 
#    0.000    0.000    0.000    0.000    0.000   14.000 
#    0.000    0.000    0.000    0.000    0.000    0.000 
#
# Total GULP energy -111811.991152 kJ/mol
# GULP energy per Si atom -5590.599558 kJ/mol
# Density = 2.344346 g / cm^3
# Si number density = 23.496942 Si / 1000 Ang^3
#
#
#
# Elastic Constant Matrix: (Units=GPa)
#
#
# Indices 1 2 3 4 5 6 
#
# 1 189.5937 31.6461 43.3360 0.0000 11.0797 0.0000
# 2 31.6461 33.4072 -14.2170 0.0000 -2.7430 0.0000
# 3 43.3360 -14.2170 113.8359 0.0000 21.5483 0.0000
# 4 0.0000 0.0000 0.0000 19.1467 0.0000 10.8760
# 5 11.0797 -2.7430 21.5483 0.0000 41.0299 0.0000
# 6 0.0000 0.0000 0.0000 10.8760 0.0000 32.4790
#
#
#
# Elastic Compliance Matrix: (Units=1/GPa)
#
#
# Indices 1 2 3 4 5 6 
#
# 1 0.007725 -0.009052 -0.003955 0.000000 -0.000614 0.000000
# 2 -0.009052 0.042220 0.008574 0.000000 0.000764 0.000000
# 3 -0.003955 0.008574 0.012270 0.000000 -0.004803 0.000000
# 4 0.000000 0.000000 0.000000 0.064496 0.000000 -0.021597
# 5 -0.000614 0.000764 -0.004803 0.000000 0.027112 0.000000
# 6 0.000000 0.000000 0.000000 -0.021597 0.000000 0.038021
#
#
# Mechanical properties :
#
#
# Convention : Reuss Voigt Hill
#
# Bulk Modulus (GPa) = 18.74424 50.92967 34.83696
# Shear Modulus (GPa) = 22.88403 36.93590 29.90997
#
# Velocity S-wave (km/s) = 3.12415 3.96908 3.57169
# Velocity P-wave (km/s) = 4.58349 6.53658 5.64514
#
# Compressibility (1/GPa) = 0.05334972
#
# Stress axis : x y z
#
# Youngs Moduli (GPa) = 129.44666 23.68570 81.49838
#
# Poissons Ratio (x) = 0.21439 0.32233
# Poissons Ratio (y) = 1.17169 -0.69877
# Poissons Ratio (z) = 0.51197 -0.20308
#
# Static dielectric constant tensor:
#      x y z
#    x 1.884680 0.000000 -0.042150 
#    y 0.000000 1.876400 0.000000 
#    z -0.042150 0.000000 2.036290 
# 
# From -- ./inp_files/146895.got.cif
#   From: 2010.05.17/outbox.cif.g08.bks.cpg/sg15_74_cif.got.tgz:146895.got - 2010.06.03 18:47:42.
