data_PCOD9287609
_publ_section_title
;
Structure prediction by ZEFSAII (Michael W. Deem and Ramdas Pophale) SiO2 
 PCOD9287609
Probable space group: C 2/C
;
_chemical_formula_sum "Si O2"
_cell_formula_units_Z 40
_cell_length_a 18.137138
_cell_length_b 17.432352
_cell_length_c 8.376369
_cell_angle_alpha 90.000000
_cell_angle_beta 138.668779
_cell_angle_gamma 90.000000
_cell_volume 1749.020116
_symmetry_space_group_name_H-M "C 2/C"
_symmetry_group_IT_number 15
_symmetry_cell_setting 'monoclinic'
loop_
_space_group_symop_operation_xyz
x,y,z
-x,y,1/2-z
-x,-y,-z
x,-y,1/2+z
1/2+x,1/2+y,z
1/2-x,1/2+y,1/2-z
1/2-x,1/2-y,-z
1/2+x,1/2-y,1/2+z
loop_
_atom_site_type_symbol
_atom_site_label
_atom_site_fract_x
_atom_site_fract_y
_atom_site_fract_z
Si Si1 0.381774 0.834039 0.140039
Si Si2 0.320631 0.248677 0.855624
Si Si3 0.465469 0.394528 0.035378
Si Si4 0.208208 0.885839 0.316057
Si Si5 0.225646 0.037872 0.495618
O O1 0.500000 0.836696 0.250000
O O2 0.384063 0.798265 0.320535
O O3 0.296797 0.779014 0.905860
O O4 0.324598 0.916637 0.067654
O O5 0.287075 0.188501 0.937473
O O6 0.395101 0.323922 0.995505
O O7 0.500000 0.441771 0.250000
O O8 0.577276 0.368398 0.126941
O O9 0.385300 0.438802 0.783958
O O10 0.241571 0.947217 0.505069
O O11 0.219439 0.929061 0.163766
#
# Coordination Sequence:
#
# PCOD9287609 Si02
#       5
#     8   8   8   8   8
#     4   9  17  35  58  82 113 153 197 236 283 345
#     4   9  20  34  57  87 113 152 196 236 289 343
#     4  11  22  37  59  88 118 152 192 240 293 339
#     4  11  21  39  60  84 122 152 192 242 285 344
#     4  10  22  37  59  88 116 154 194 234 290 347
#
# _framework density 22.869949999999999
#
# number of rings (size 3 to 8) (size 9 to 14) (size 15 to 20)
#    0.000    2.000    0.000    4.800    0.000    0.800 
#    0.000    7.000    0.000    0.000    0.000    0.000 
#    0.000    0.000    0.000    0.000    0.000    0.000 
#
# Total GULP energy -111876.675576 kJ/mol
# GULP energy per Si atom -5593.833779 kJ/mol
# Density = 2.281790 g / cm^3
# Si number density = 22.869950 Si / 1000 Ang^3
#
#
#
# Elastic Constant Matrix: (Units=GPa)
#
#
# Indices 1 2 3 4 5 6 
#
# 1 180.2368 59.0330 32.2075 0.0000 31.0221 0.0000
# 2 59.0330 122.2490 3.7664 0.0000 0.5470 0.0000
# 3 32.2075 3.7664 34.4132 0.0000 -7.6263 0.0000
# 4 0.0000 0.0000 0.0000 17.4719 0.0000 -13.6714
# 5 31.0221 0.5470 -7.6263 0.0000 34.2047 0.0000
# 6 0.0000 0.0000 0.0000 -13.6714 0.0000 43.2010
#
#
#
# Elastic Compliance Matrix: (Units=1/GPa)
#
#
# Indices 1 2 3 4 5 6 
#
# 1 0.012275 -0.005432 -0.014035 0.000000 -0.014176 0.000000
# 2 -0.005432 0.010615 0.005235 0.000000 0.005924 0.000000
# 3 -0.014035 0.005235 0.046733 0.000000 0.023066 0.000000
# 4 0.000000 0.000000 0.000000 0.076072 0.000000 0.024074
# 5 -0.014176 0.005924 0.023066 0.000000 0.047140 0.000000
# 6 0.000000 0.000000 0.000000 0.024074 0.000000 0.030766
#
#
# Mechanical properties :
#
#
# Convention : Reuss Voigt Hill
#
# Bulk Modulus (GPa) = 24.29645 58.54587 41.42116
# Shear Modulus (GPa) = 18.81210 35.10167 26.95688
#
# Velocity S-wave (km/s) = 2.87116 3.92195 3.43695
# Velocity P-wave (km/s) = 4.65169 6.79441 5.82246
#
# Compressibility (1/GPa) = 0.04115828
#
# Stress axis : x y z
#
# Youngs Moduli (GPa) = 81.46437 94.20442 21.39811
#
# Poissons Ratio (x) = 0.51170 0.30033
# Poissons Ratio (y) = 0.44250 -0.11201
# Poissons Ratio (z) = 1.14339 -0.49312
#
# Static dielectric constant tensor:
#      x y z
#    x 1.842310 0.000000 -0.023930 
#    y 0.000000 1.895370 0.000000 
#    z -0.023930 0.000000 1.861640 
# 
# From -- ./inp_files/29336.got.cif
#   From: 2010.05.17/outbox.cif.g08.bks.cpg/sg15_15_cif.got.tgz:29336.got - 2010.06.03 18:47:42.
