data_PCOD9287307
_publ_section_title
;
Structure prediction by ZEFSAII (Michael W. Deem and Ramdas Pophale) SiO2 
 PCOD9287307
Probable space group: C 2/C
;
_chemical_formula_sum "Si O2"
_cell_formula_units_Z 36
_cell_length_a 18.832246
_cell_length_b 7.909168
_cell_length_c 8.985915
_cell_angle_alpha 90.000000
_cell_angle_beta 75.592304
_cell_angle_gamma 90.000000
_cell_volume 1296.334735
_symmetry_space_group_name_H-M "C 2/C"
_symmetry_group_IT_number 15
_symmetry_cell_setting 'monoclinic'
loop_
_space_group_symop_operation_xyz
x,y,z
-x,y,1/2-z
-x,-y,-z
x,-y,1/2+z
1/2+x,1/2+y,z
1/2-x,1/2+y,1/2-z
1/2-x,1/2-y,-z
1/2+x,1/2-y,1/2+z
loop_
_atom_site_type_symbol
_atom_site_label
_atom_site_fract_x
_atom_site_fract_y
_atom_site_fract_z
Si Si1 0.282784 0.069159 0.175757
Si Si2 0.621793 0.481320 0.674997
Si Si3 0.072918 0.703971 0.508654
Si Si4 0.334443 0.699610 0.075667
Si Si5 0.000000 0.573671 0.250000
O O1 0.323123 0.888118 0.142608
O O2 0.208372 0.072423 0.118899
O O3 0.342894 0.197205 0.088000
O O4 0.247026 0.119945 0.352955
O O5 0.566871 0.374353 0.604432
O O6 0.629658 0.668787 0.603633
O O7 0.613062 0.414359 0.846152
O O8 0.056393 0.554894 0.636621
O O9 0.028717 0.676405 0.378983
#
# Coordination Sequence:
#
# PCOD9287307 Si02
#       5
#     8   8   8   8   4
#     4  10  22  35  67  97 132 160 204 274 330 388
#     4  10  23  37  63  96 130 164 201 277 325 382
#     4  11  22  43  65  92 128 167 230 252 317 377
#     4  10  22  36  59 108 130 160 199 251 366 373
#     4  10  26  40  68  94 122 190 216 262 298 382
#
# _framework density 27.770603999999999
#
# number of rings (size 3 to 8) (size 9 to 14) (size 15 to 20)
#    1.333    0.444    0.000    4.000    6.222    1.778 
#    0.000    0.000    0.000   22.667    0.000    0.000 
#    0.000    0.000    0.000    0.000    0.000    0.000 
#
# Total GULP energy -100412.270275 kJ/mol
# GULP energy per Si atom -5578.459460 kJ/mol
# Density = 2.770740 g / cm^3
# Si number density = 27.770604 Si / 1000 Ang^3
#
#
#
# Elastic Constant Matrix: (Units=GPa)
#
#
# Indices 1 2 3 4 5 6 
#
# 1 87.6305 -3.9905 27.5468 0.0000 5.3049 0.0000
# 2 -3.9905 91.3335 41.5433 0.0000 11.0746 0.0000
# 3 27.5468 41.5433 132.3821 0.0000 4.2252 0.0000
# 4 0.0000 0.0000 0.0000 38.6665 0.0000 5.8781
# 5 5.3049 11.0746 4.2252 0.0000 37.7367 0.0000
# 6 0.0000 0.0000 0.0000 5.8781 0.0000 28.1198
#
#
#
# Elastic Compliance Matrix: (Units=1/GPa)
#
#
# Indices 1 2 3 4 5 6 
#
# 1 0.012679 0.002306 -0.003295 0.000000 -0.002090 0.000000
# 2 0.002306 0.013618 -0.004632 0.000000 -0.003802 0.000000
# 3 -0.003295 -0.004632 0.009670 0.000000 0.000740 0.000000
# 4 0.000000 0.000000 0.000000 0.026711 0.000000 -0.005584
# 5 -0.002090 -0.003802 0.000740 0.000000 0.027826 0.000000
# 6 0.000000 0.000000 0.000000 -0.005584 0.000000 0.036729
#
#
# Mechanical properties :
#
#
# Convention : Reuss Voigt Hill
#
# Bulk Modulus (GPa) = 40.44629 49.06058 44.75343
# Shear Modulus (GPa) = 34.07948 37.32103 35.70025
#
# Velocity S-wave (km/s) = 3.50691 3.66991 3.58933
# Velocity P-wave (km/s) = 5.56722 5.97180 5.77305
#
# Compressibility (1/GPa) = 0.02472415
#
# Stress axis : x y z
#
# Youngs Moduli (GPa) = 78.87049 73.43489 103.41734
#
# Poissons Ratio (x) = -0.16936 0.34080
# Poissons Ratio (y) = -0.18190 0.47902
# Poissons Ratio (z) = 0.25991 0.34015
#
# Static dielectric constant tensor:
#      x y z
#    x 2.131530 0.000000 0.092560 
#    y 0.000000 2.197080 0.000000 
#    z 0.092560 0.000000 2.273220 
# 
# From -- ./inp_files/59757.got.cif
#   From: 2010.05.17/outbox.cif.g08.bks.cpg/sg15_30_cif.got.tgz:59757.got - 2010.06.03 18:47:42.
