data_PCOD9287059
_publ_section_title
;
Structure prediction by ZEFSAII (Michael W. Deem and Ramdas Pophale) SiO2 
 PCOD9287059
Probable space group: C 2/C
;
_chemical_formula_sum "Si O2"
_cell_formula_units_Z 52
_cell_length_a 10.856233
_cell_length_b 18.466442
_cell_length_c 19.890757
_cell_angle_alpha 90.000000
_cell_angle_beta 141.672101
_cell_angle_gamma 90.000000
_cell_volume 2472.966353
_symmetry_space_group_name_H-M "C 2/C"
_symmetry_group_IT_number 15
_symmetry_cell_setting 'monoclinic'
loop_
_space_group_symop_operation_xyz
x,y,z
-x,y,1/2-z
-x,-y,-z
x,-y,1/2+z
1/2+x,1/2+y,z
1/2-x,1/2+y,1/2-z
1/2-x,1/2-y,-z
1/2+x,1/2-y,1/2+z
loop_
_atom_site_type_symbol
_atom_site_label
_atom_site_fract_x
_atom_site_fract_y
_atom_site_fract_z
Si Si1 0.152562 0.207737 0.520763
Si Si2 0.500000 0.135729 0.750000
Si Si3 0.973546 0.863377 0.311112
Si Si4 0.360802 0.911122 0.557979
Si Si5 0.115053 0.933089 0.585827
Si Si6 0.478518 0.236954 0.075509
Si Si7 0.163127 0.475126 0.209973
O O1 0.250000 0.250000 0.500000
O O2 0.335918 0.184076 0.645092
O O3 0.028361 0.133466 0.455928
O O4 0.014112 0.254960 0.511430
O O5 0.416192 0.082353 0.770341
O O6 0.816849 0.927887 0.233521
O O7 0.000000 0.827923 0.250000
O O8 0.172654 0.898138 0.428593
O O9 0.910074 0.800540 0.336192
O O10 0.272247 0.909224 0.595739
O O11 0.512932 0.844881 0.612513
O O12 0.478192 0.985329 0.596504
O O13 0.220894 0.965307 0.696279
O O14 0.000000 0.000000 0.500000
O O15 0.250000 0.250000 0.000000
#
# Coordination Sequence:
#
# PCOD9287059 Si02
#       7
#     8   4   8   8   8   8   8
#     4  12  26  44  73 106 145 183 227 306 365 419
#     4  12  22  42  70 106 134 180 244 274 362 428
#     4  11  24  43  68  97 144 187 229 296 355 413
#     4  11  22  41  72 100 133 177 245 282 340 433
#     4  12  19  43  71 100 132 183 233 283 346 428
#     4  10  21  46  67  97 141 179 236 287 347 428
#     4  12  23  41  72 100 135 184 236 292 343 427
#
# _framework density 21.027377000000001
#
# number of rings (size 3 to 8) (size 9 to 14) (size 15 to 20)
#    0.000    0.615    9.231    0.000    0.000    5.538 
#    2.769    0.000    0.000    0.000    0.000    0.000 
#    0.000    0.000    0.000    0.000    0.000    0.000 
#
# Total GULP energy -145169.617736 kJ/mol
# GULP energy per Si atom -5583.446836 kJ/mol
# Density = 2.097952 g / cm^3
# Si number density = 21.027377 Si / 1000 Ang^3
#
#
#
# Elastic Constant Matrix: (Units=GPa)
#
#
# Indices 1 2 3 4 5 6 
#
# 1 117.9647 55.5774 18.4346 0.0000 -10.7647 0.0000
# 2 55.5774 107.4020 14.4292 0.0000 3.7195 0.0000
# 3 18.4346 14.4292 12.8929 0.0001 5.4730 -0.0001
# 4 0.0000 0.0000 0.0001 33.9997 0.0000 4.4659
# 5 -10.7647 3.7195 5.4730 0.0000 27.0264 -0.0001
# 6 0.0000 0.0000 -0.0001 4.4659 -0.0001 51.7153
#
#
#
# Elastic Compliance Matrix: (Units=1/GPa)
#
#
# Indices 1 2 3 4 5 6 
#
# 1 0.015255 -0.005554 -0.020240 0.000000 0.010939 0.000000
# 2 -0.005554 0.013008 -0.005382 0.000000 -0.002912 0.000000
# 3 -0.020240 -0.005382 0.126507 0.000000 -0.032939 0.000000
# 4 0.000000 0.000000 0.000000 0.029749 0.000000 -0.002569
# 5 0.010939 -0.002912 -0.032939 0.000000 0.048429 0.000000
# 6 0.000000 0.000000 0.000000 -0.002569 0.000000 0.019559
#
#
# Mechanical properties :
#
#
# Convention : Reuss Voigt Hill
#
# Bulk Modulus (GPa) = 10.82018 46.12689 28.47354
# Shear Modulus (GPa) = 14.46494 32.53616 23.50055
#
# Velocity S-wave (km/s) = 2.62565 3.93787 3.34670
# Velocity P-wave (km/s) = 3.78800 6.53146 5.33896
#
# Compressibility (1/GPa) = 0.09241991
#
# Stress axis : x y z
#
# Youngs Moduli (GPa) = 65.55355 76.87284 7.90472
#
# Poissons Ratio (x) = 0.42692 0.15999
# Poissons Ratio (y) = 0.36405 0.04254
# Poissons Ratio (z) = 1.32679 0.41370
#
# Static dielectric constant tensor:
#      x y z
#    x 1.756560 0.000000 0.039960 
#    y 0.000000 1.811060 0.000000 
#    z 0.039960 0.000000 1.764700 
# 
# From -- ./inp_files/239854.got.cif
#   From: 2010.05.17/outbox.cif.g08.bks.cpg/sg15_120_cif.got.tgz:239854.got - 2010.06.03 18:47:42.
