data_PCOD9287589
_publ_section_title
;
Structure prediction by ZEFSAII (Michael W. Deem and Ramdas Pophale) SiO2 
 PCOD9287589
Probable space group: C 2/C
;
_chemical_formula_sum "Si O2"
_cell_formula_units_Z 36
_cell_length_a 26.465667
_cell_length_b 7.032798
_cell_length_c 17.681997
_cell_angle_alpha 90.000000
_cell_angle_beta 29.950591
_cell_angle_gamma 90.000000
_cell_volume 1643.096160
_symmetry_space_group_name_H-M "C 2/C"
_symmetry_group_IT_number 15
_symmetry_cell_setting 'monoclinic'
loop_
_space_group_symop_operation_xyz
x,y,z
-x,y,1/2-z
-x,-y,-z
x,-y,1/2+z
1/2+x,1/2+y,z
1/2-x,1/2+y,1/2-z
1/2-x,1/2-y,-z
1/2+x,1/2-y,1/2+z
loop_
_atom_site_type_symbol
_atom_site_label
_atom_site_fract_x
_atom_site_fract_y
_atom_site_fract_z
Si Si1 0.820066 0.217481 0.075993
Si Si2 0.160634 0.604255 0.790237
Si Si3 0.541634 0.060317 0.799225
Si Si4 0.830303 0.371987 0.502677
Si Si5 0.500000 0.704363 0.750000
O O1 0.863975 0.294790 0.098643
O O2 0.795428 0.409011 0.061175
O O3 0.722911 0.091169 0.220233
O O4 0.904265 0.109140 0.915108
O O5 0.070731 0.572994 0.848001
O O6 0.241882 0.739143 0.643971
O O7 0.628207 0.158056 0.635612
O O8 0.538181 0.848973 0.766502
O O9 0.432267 0.146293 0.921384
#
# Coordination Sequence:
#
# PCOD9287589 Si02
#       5
#     8   8   8   8   4
#     4  10  22  37  58  85 120 150 196 240 283 346
#     4  12  20  37  63  86 115 159 194 240 288 342
#     4   8  19  37  62  82 120 156 187 241 303 332
#     4   9  20  40  56  89 118 147 198 245 282 354
#     4   8  20  40  54  86 120 150 196 240 288 352
#
# _framework density 21.909858
#
# number of rings (size 3 to 8) (size 9 to 14) (size 15 to 20)
#    0.000    3.111    2.222    0.667    0.000    8.889 
#    0.000    5.556    0.000    0.000    0.000    0.000 
#    0.000    0.000    0.000    0.000    0.000    0.000 
#
# Total GULP energy -100385.467562 kJ/mol
# GULP energy per Si atom -5576.970420 kJ/mol
# Density = 2.185999 g / cm^3
# Si number density = 21.909858 Si / 1000 Ang^3
#
#
#
# Elastic Constant Matrix: (Units=GPa)
#
#
# Indices 1 2 3 4 5 6 
#
# 1 132.3649 13.6711 31.5073 0.0037 15.9453 -0.0021
# 2 13.6711 44.1878 12.7624 0.0098 3.6318 -0.0046
# 3 31.5073 12.7624 113.3225 0.0023 28.2026 -0.0024
# 4 0.0037 0.0098 0.0023 30.8935 -0.0078 1.6171
# 5 15.9453 3.6318 28.2026 -0.0078 21.8887 0.0008
# 6 -0.0021 -0.0046 -0.0024 1.6171 0.0008 2.9710
#
#
#
# Elastic Compliance Matrix: (Units=1/GPa)
#
#
# Indices 1 2 3 4 5 6 
#
# 1 0.008554 -0.001976 -0.001011 -0.000002 -0.004601 0.000004
# 2 -0.001976 0.023856 -0.002223 -0.000009 0.000346 0.000039
# 3 -0.001011 -0.002223 0.013367 -0.000005 -0.016118 0.000014
# 4 -0.000002 -0.000009 -0.000005 0.033318 0.000022 -0.018135
# 5 -0.004601 0.000346 -0.016118 0.000022 0.069747 -0.000046
# 6 0.000004 0.000039 0.000014 -0.018135 -0.000046 0.346459
#
#
# Mechanical properties :
#
#
# Convention : Reuss Voigt Hill
#
# Bulk Modulus (GPa) = 28.28361 45.08409 36.68385
# Shear Modulus (GPa) = 9.66171 26.61294 18.13733
#
# Velocity S-wave (km/s) = 2.10222 3.48897 2.88030
# Velocity P-wave (km/s) = 4.33930 6.07061 5.27645
#
# Compressibility (1/GPa) = 0.03535616
#
# Stress axis : x y z
#
# Youngs Moduli (GPa) = 116.90663 41.91845 74.81161
#
# Poissons Ratio (x) = 0.08285 0.07560
# Poissons Ratio (y) = 0.23105 0.16633
# Poissons Ratio (z) = 0.11814 0.09320
#
# Static dielectric constant tensor:
#      x y z
#    x 1.797990 0.000000 0.010880 
#    y 0.000000 1.824710 0.000000 
#    z 0.010880 0.000000 1.856560 
# 
# From -- ./inp_files/158903.got.cif
#   From: 2010.05.17/outbox.cif.g08.bks.cpg/sg15_80_cif.got.tgz:158903.got - 2010.06.03 18:47:42.
