data_PCOD9287914
_publ_section_title
;
Structure prediction by ZEFSAII (Michael W. Deem and Ramdas Pophale) SiO2 
 PCOD9287914
Probable space group: C 2/C
;
_chemical_formula_sum "Si O2"
_cell_formula_units_Z 56
_cell_length_a 15.208246
_cell_length_b 9.211812
_cell_length_c 18.786764
_cell_angle_alpha 90.000000
_cell_angle_beta 86.253472
_cell_angle_gamma 90.000000
_cell_volume 2626.316391
_symmetry_space_group_name_H-M "C 2/C"
_symmetry_group_IT_number 15
_symmetry_cell_setting 'monoclinic'
loop_
_space_group_symop_operation_xyz
x,y,z
-x,y,1/2-z
-x,-y,-z
x,-y,1/2+z
1/2+x,1/2+y,z
1/2-x,1/2+y,1/2-z
1/2-x,1/2-y,-z
1/2+x,1/2-y,1/2+z
loop_
_atom_site_type_symbol
_atom_site_label
_atom_site_fract_x
_atom_site_fract_y
_atom_site_fract_z
Si Si1 0.593956 0.877282 0.741922
Si Si2 0.919906 0.919652 0.806425
Si Si3 0.706677 0.444265 0.573027
Si Si4 0.941921 0.608882 0.880088
Si Si5 0.717134 0.630057 0.305089
Si Si6 0.131263 0.590484 0.873645
Si Si7 0.248035 0.382456 0.081441
O O1 0.500000 0.793681 0.750000
O O2 0.686194 0.803437 0.716540
O O3 0.572121 0.988155 0.679362
O O4 0.618396 0.974266 0.809892
O O5 0.881740 0.992111 0.880821
O O6 0.941874 0.758885 0.835292
O O7 0.832710 0.919931 0.762664
O O8 0.000000 0.963795 0.750000
O O9 0.786340 0.552864 0.582071
O O10 0.693432 0.417729 0.490047
O O11 0.745968 0.288569 0.599000
O O12 0.855436 0.597517 0.932646
O O13 0.034954 0.595244 0.913583
O O14 0.654844 0.753270 0.340300
O O15 0.729134 0.491371 0.356080
#
# Coordination Sequence:
#
# PCOD9287914 Si02
#       7
#     8   8   8   8   8   8   8
#     4   9  17  31  51  84 119 142 179 236 295 337
#     4  11  18  34  60  88 111 150 198 235 281 355
#     4  10  22  38  60  80 119 157 195 232 298 347
#     4   9  17  33  59  82 112 145 195 229 285 355
#     4  11  20  33  62  89 112 151 199 243 286 340
#     4  11  19  32  61  90 107 150 198 242 280 338
#     4   9  22  41  57  80 118 162 187 235 298 354
#
# _framework density 21.322641000000001
#
# number of rings (size 3 to 8) (size 9 to 14) (size 15 to 20)
#    0.000    2.000    4.286    0.429    0.000    1.143 
#    0.000    1.429    6.286    0.000    0.000    0.000 
#    0.000    0.000    0.000    0.000    0.000    0.000 
#
# Total GULP energy -155955.498748 kJ/mol
# GULP energy per Si atom -5569.839241 kJ/mol
# Density = 2.127411 g / cm^3
# Si number density = 21.322641 Si / 1000 Ang^3
#
#
#
# Elastic Constant Matrix: (Units=GPa)
#
#
# Indices 1 2 3 4 5 6 
#
# 1 126.0767 -8.2231 20.4159 0.0000 -18.1617 0.0000
# 2 -8.2231 27.4241 7.9958 0.0000 -3.9322 0.0000
# 3 20.4159 7.9958 58.9660 0.0000 -20.2296 0.0000
# 4 0.0000 0.0000 0.0000 8.1931 0.0000 4.9522
# 5 -18.1617 -3.9322 -20.2296 0.0000 20.2519 0.0000
# 6 0.0000 0.0000 0.0000 4.9522 0.0000 17.4904
#
#
#
# Elastic Compliance Matrix: (Units=1/GPa)
#
#
# Indices 1 2 3 4 5 6 
#
# 1 0.009599 0.004387 -0.001024 0.000000 0.008438 0.000000
# 2 0.004387 0.040123 -0.004469 0.000000 0.007261 0.000000
# 3 -0.001024 -0.004469 0.026330 0.000000 0.024515 0.000000
# 4 0.000000 0.000000 0.000000 0.147255 0.000000 -0.041694
# 5 0.008438 0.007261 0.024515 0.000000 0.082843 0.000000
# 6 0.000000 0.000000 0.000000 -0.041694 0.000000 0.068979
#
#
# Mechanical properties :
#
#
# Convention : Reuss Voigt Hill
#
# Bulk Modulus (GPa) = 13.54264 28.09378 20.81821
# Shear Modulus (GPa) = 12.43922 22.00563 17.22243
#
# Velocity S-wave (km/s) = 2.41795 3.21601 2.84510
# Velocity P-wave (km/s) = 3.76303 5.19562 4.53623
#
# Compressibility (1/GPa) = 0.07384086
#
# Stress axis : x y z
#
# Youngs Moduli (GPa) = 104.17770 24.92306 37.97992
#
# Poissons Ratio (x) = -0.10933 0.03888
# Poissons Ratio (y) = -0.45698 0.16972
# Poissons Ratio (z) = 0.10664 0.11137
#
# Static dielectric constant tensor:
#      x y z
#    x 1.847780 0.000000 -0.067130 
#    y 0.000000 1.794930 0.000000 
#    z -0.067130 0.000000 1.766650 
# 
# From -- ./inp_files/242815.got.cif
#   From: 2010.05.17/outbox.cif.g08.bks.cpg/sg15_122_cif.got.tgz:242815.got - 2010.06.03 18:47:42.
