data_PCOD9287161
_publ_section_title
;
Structure prediction by ZEFSAII (Michael W. Deem and Ramdas Pophale) SiO2 
 PCOD9287161
Probable space group: C 2/C
;
_chemical_formula_sum "Si O2"
_cell_formula_units_Z 60
_cell_length_a 20.146961
_cell_length_b 14.133094
_cell_length_c 14.497727
_cell_angle_alpha 90.000000
_cell_angle_beta 44.670123
_cell_angle_gamma 90.000000
_cell_volume 2902.129828
_symmetry_space_group_name_H-M "C 2/C"
_symmetry_group_IT_number 15
_symmetry_cell_setting 'monoclinic'
loop_
_space_group_symop_operation_xyz
x,y,z
-x,y,1/2-z
-x,-y,-z
x,-y,1/2+z
1/2+x,1/2+y,z
1/2-x,1/2+y,1/2-z
1/2-x,1/2-y,-z
1/2+x,1/2-y,1/2+z
loop_
_atom_site_type_symbol
_atom_site_label
_atom_site_fract_x
_atom_site_fract_y
_atom_site_fract_z
Si Si1 0.382212 0.322724 0.110972
Si Si2 0.247917 0.007080 0.820999
Si Si3 0.706178 0.012028 0.020783
Si Si4 0.000000 0.538817 0.750000
Si Si5 0.913015 0.780031 0.578282
Si Si6 0.954674 0.585513 0.599823
Si Si7 0.742186 0.210112 0.905953
Si Si8 0.237096 0.345202 0.849544
O O1 0.333190 0.421465 0.130776
O O2 0.337045 0.286056 0.251866
O O3 0.339587 0.239555 0.085282
O O4 0.493802 0.343579 0.010909
O O5 0.344325 0.066759 0.721280
O O6 0.264220 0.919063 0.735923
O O7 0.237448 0.978881 0.938873
O O8 0.724516 0.911954 0.951459
O O9 0.723425 0.098044 0.934484
O O10 0.595903 0.019839 0.156040
O O11 0.000305 0.595840 0.844319
O O12 0.964788 0.679647 0.533523
O O13 0.841551 0.765670 0.563840
O O14 0.841841 0.799965 0.733860
O O15 0.000000 0.500000 0.500000
O O16 0.750000 0.250000 0.000000
#
# Coordination Sequence:
#
# PCOD9287161 Si02
#       8
#     8   8   8   4   8   8   8   8
#     4  11  23  42  65  93 132 176 217 275 331 406
#     4  11  22  41  63  93 132 173 215 270 342 391
#     4  11  22  39  64  93 132 170 213 281 332 388
#     4  10  22  32  62 100 116 160 218 262 324 390
#     4  11  23  40  66  94 127 177 216 269 341 398
#     4  11  20  39  63  92 128 163 218 274 329 382
#     4  11  23  42  64  97 130 168 225 279 333 393
#     4  11  22  43  65  93 130 170 219 275 330 397
#
# _framework density 20.674471
#
# number of rings (size 3 to 8) (size 9 to 14) (size 15 to 20)
#    0.000    1.067    4.000    4.800    0.000    4.800 
#    2.400    0.000    0.000    0.000    0.000    0.000 
#    0.000    0.000    0.000    0.000    0.000    0.000 
#
# Total GULP energy -167330.368894 kJ/mol
# GULP energy per Si atom -5577.678963 kJ/mol
# Density = 2.062741 g / cm^3
# Si number density = 20.674471 Si / 1000 Ang^3
#
#
#
# Elastic Constant Matrix: (Units=GPa)
#
#
# Indices 1 2 3 4 5 6 
#
# 1 79.0727 -0.2148 26.5194 0.0000 -1.9031 0.0000
# 2 -0.2148 53.9223 -4.9969 0.0000 -0.9284 0.0000
# 3 26.5194 -4.9969 71.7584 0.0000 -12.7376 0.0000
# 4 0.0000 0.0000 0.0000 35.8773 0.0000 3.7301
# 5 -1.9031 -0.9284 -12.7376 0.0000 44.1762 0.0000
# 6 0.0000 0.0000 0.0000 3.7301 0.0000 29.0138
#
#
#
# Elastic Compliance Matrix: (Units=1/GPa)
#
#
# Indices 1 2 3 4 5 6 
#
# 1 0.014487 -0.000475 -0.005563 0.000000 -0.000990 0.000000
# 2 -0.000475 0.018709 0.001628 0.000000 0.000842 0.000000
# 3 -0.005563 0.001628 0.016935 0.000000 0.004678 0.000000
# 4 0.000000 0.000000 0.000000 0.028250 0.000000 -0.003632
# 5 -0.000990 0.000842 0.004678 0.000000 0.023960 0.000000
# 6 0.000000 0.000000 0.000000 -0.003632 0.000000 0.034933
#
#
# Mechanical properties :
#
#
# Convention : Reuss Voigt Hill
#
# Bulk Modulus (GPa) = 24.20645 27.48540 25.84592
# Shear Modulus (GPa) = 31.27644 34.04319 32.65981
#
# Velocity S-wave (km/s) = 3.89370 4.06227 3.97888
# Velocity P-wave (km/s) = 5.65228 5.94356 5.79975
#
# Compressibility (1/GPa) = 0.04131130
#
# Stress axis : x y z
#
# Youngs Moduli (GPa) = 69.02700 53.45122 59.04906
#
# Poissons Ratio (x) = 0.02538 0.32847
# Poissons Ratio (y) = 0.03277 -0.09612
# Poissons Ratio (z) = 0.38397 -0.08700
#
# Static dielectric constant tensor:
#      x y z
#    x 1.796880 0.000000 -0.028660 
#    y 0.000000 1.800920 0.000000 
#    z -0.028660 0.000000 1.794640 
# 
# From -- ./inp_files/168605.got.cif
#   From: 2010.05.17/outbox.cif.g08.bks.cpg/sg15_85_cif.got.tgz:168605.got - 2010.06.03 18:47:42.
