data_PCOD9287797
_publ_section_title
;
Structure prediction by ZEFSAII (Michael W. Deem and Ramdas Pophale) SiO2 
 PCOD9287797
Probable space group: C 2/C
;
_chemical_formula_sum "Si O2"
_cell_formula_units_Z 60
_cell_length_a 22.737760
_cell_length_b 8.728514
_cell_length_c 11.114908
_cell_angle_alpha 90.000000
_cell_angle_beta 95.812300
_cell_angle_gamma 90.000000
_cell_volume 2194.600090
_symmetry_space_group_name_H-M "C 2/C"
_symmetry_group_IT_number 15
_symmetry_cell_setting 'monoclinic'
loop_
_space_group_symop_operation_xyz
x,y,z
-x,y,1/2-z
-x,-y,-z
x,-y,1/2+z
1/2+x,1/2+y,z
1/2-x,1/2+y,1/2-z
1/2-x,1/2-y,-z
1/2+x,1/2-y,1/2+z
loop_
_atom_site_type_symbol
_atom_site_label
_atom_site_fract_x
_atom_site_fract_y
_atom_site_fract_z
Si Si1 0.102664 0.469848 0.001934
Si Si2 0.052155 0.234118 0.438480
Si Si3 0.891741 0.809817 0.164692
Si Si4 0.500000 0.472860 0.750000
Si Si5 0.360092 0.242790 0.767301
Si Si6 0.267083 0.287582 0.201603
Si Si7 0.735213 0.003908 0.982668
Si Si8 0.356442 0.476239 0.435257
O O1 0.052488 0.599174 0.997109
O O2 0.089749 0.351542 0.890473
O O3 0.166692 0.545450 0.983403
O O4 0.115530 0.375651 0.126955
O O5 0.998367 0.140802 0.366960
O O6 0.086786 0.128368 0.538100
O O7 0.904498 0.253957 0.166839
O O8 0.836976 0.787921 0.246203
O O9 0.863724 0.901123 0.046513
O O10 0.946099 0.912383 0.215998
O O11 0.290660 0.213636 0.725747
O O12 0.357765 0.412309 0.822397
O O13 0.263532 0.139800 0.111715
O O14 0.251983 0.435301 0.116835
O O15 0.792512 0.098048 0.951403
#
# Coordination Sequence:
#
# PCOD9287797 Si02
#       8
#     8   8   8   4   8   8   8   8
#     4   9  18  34  56  83 116 150 195 253 308 351
#     4  11  22  37  58  89 122 156 203 253 297 354
#     4   8  15  33  56  76 111 161 196 241 299 345
#     4  10  22  38  56  84 120 160 212 252 284 352
#     4   9  18  37  61  86 120 160 197 245 306 364
#     4   7  11  25  53  79 105 149 195 232 293 359
#     4   7  11  25  50  77 112 148 179 238 301 352
#     4   8  16  33  56  83 118 156 194 241 299 358
#
# _framework density 27.339835000000001
#
# number of rings (size 3 to 8) (size 9 to 14) (size 15 to 20)
#    0.000    3.467    0.000    3.200    0.000    1.067 
#    0.000   26.667    0.000    0.000    0.000    0.000 
#    0.000    0.000    0.000    0.000    0.000    0.000 
#
# Total GULP energy -167853.372732 kJ/mol
# GULP energy per Si atom -5595.112424 kJ/mol
# Density = 2.727761 g / cm^3
# Si number density = 27.339835 Si / 1000 Ang^3
#
#
#
# Elastic Constant Matrix: (Units=GPa)
#
#
# Indices 1 2 3 4 5 6 
#
# 1 79.7867 21.4175 15.4629 0.0000 22.1408 0.0000
# 2 21.4175 116.3558 16.9753 0.0000 26.8208 0.0000
# 3 15.4629 16.9753 65.3202 0.0000 15.6867 0.0000
# 4 0.0000 0.0000 0.0000 43.8159 0.0000 13.1435
# 5 22.1408 26.8208 15.6867 0.0000 59.4343 0.0000
# 6 0.0000 0.0000 0.0000 13.1435 0.0000 38.2637
#
#
#
# Elastic Compliance Matrix: (Units=1/GPa)
#
#
# Indices 1 2 3 4 5 6 
#
# 1 0.014477 -0.001392 -0.002051 0.000000 -0.004223 0.000000
# 2 -0.001392 0.009876 -0.001379 0.000000 -0.003574 0.000000
# 3 -0.002051 -0.001379 0.016891 0.000000 -0.003072 0.000000
# 4 0.000000 0.000000 0.000000 0.025445 0.000000 -0.008740
# 5 -0.004223 -0.003574 -0.003072 0.000000 0.020822 0.000000
# 6 0.000000 0.000000 0.000000 -0.008740 0.000000 0.029137
#
#
# Mechanical properties :
#
#
# Convention : Reuss Voigt Hill
#
# Bulk Modulus (GPa) = 31.64581 41.01936 36.33258
# Shear Modulus (GPa) = 36.54368 42.14323 39.34346
#
# Velocity S-wave (km/s) = 3.65998 3.93040 3.79760
# Velocity P-wave (km/s) = 5.42778 5.96938 5.70501
#
# Compressibility (1/GPa) = 0.03159976
#
# Stress axis : x y z
#
# Youngs Moduli (GPa) = 69.07721 101.26041 59.20421
#
# Poissons Ratio (x) = 0.14095 0.12143
# Poissons Ratio (y) = 0.09615 0.08162
# Poissons Ratio (z) = 0.14167 0.13960
#
# Static dielectric constant tensor:
#      x y z
#    x 2.139200 0.000000 -0.003950 
#    y 0.000000 2.166100 0.000000 
#    z -0.003950 0.000000 2.224450 
# 
# From -- ./inp_files/213935.got.cif
#   From: 2010.05.17/outbox.cif.g08.bks.cpg/sg15_107_cif.got.tgz:213935.got - 2010.06.03 18:47:42.
