data_PCOD9287707
_publ_section_title
;
Structure prediction by ZEFSAII (Michael W. Deem and Ramdas Pophale) SiO2 
 PCOD9287707
Probable space group: C 2/C
;
_chemical_formula_sum "Si O2"
_cell_formula_units_Z 60
_cell_length_a 8.256867
_cell_length_b 19.942622
_cell_length_c 27.810756
_cell_angle_alpha 90.000000
_cell_angle_beta 135.496453
_cell_angle_gamma 90.000000
_cell_volume 3209.959103
_symmetry_space_group_name_H-M "C 2/C"
_symmetry_group_IT_number 15
_symmetry_cell_setting 'monoclinic'
loop_
_space_group_symop_operation_xyz
x,y,z
-x,y,1/2-z
-x,-y,-z
x,-y,1/2+z
1/2+x,1/2+y,z
1/2-x,1/2+y,1/2-z
1/2-x,1/2-y,-z
1/2+x,1/2-y,1/2+z
loop_
_atom_site_type_symbol
_atom_site_label
_atom_site_fract_x
_atom_site_fract_y
_atom_site_fract_z
Si Si1 0.614478 0.125597 0.626259
Si Si2 0.201553 0.262314 0.068617
Si Si3 0.088952 0.691951 0.214799
Si Si4 0.972259 0.817640 0.440887
Si Si5 0.500000 0.543489 0.750000
Si Si6 0.706282 0.540722 0.567640
Si Si7 0.004898 0.704713 0.698806
Si Si8 0.073423 0.467127 0.710385
O O1 0.601192 0.185559 0.585669
O O2 0.400418 0.074915 0.574374
O O3 0.595163 0.156757 0.675828
O O4 0.858623 0.087629 0.680925
O O5 0.401273 0.221674 0.138433
O O6 0.315073 0.304715 0.049336
O O7 0.029393 0.211110 0.005709
O O8 0.328113 0.731901 0.260418
O O9 0.109344 0.612549 0.212931
O O10 0.000000 0.705258 0.250000
O O11 0.903692 0.895260 0.428673
O O12 0.753436 0.778507 0.372515
O O13 0.303251 0.502416 0.737441
O O14 0.500000 0.500000 0.500000
O O15 0.857347 0.493037 0.633481
O O16 0.000000 0.670371 0.750000
O O17 0.000000 0.481343 0.750000
#
# Coordination Sequence:
#
# PCOD9287707 Si02
#       8
#     8   8   8   8   4   8   8   8
#     4  10  22  37  64  88 117 158 199 255 306 359
#     4  11  21  40  58  92 121 148 201 251 310 360
#     4  11  21  39  63  89 123 157 196 252 306 359
#     4  10  24  36  62  88 118 160 192 251 308 361
#     4  10  22  38  62  90 120 162 206 254 294 360
#     4  10  22  43  59  83 119 164 199 243 302 362
#     4  11  21  36  60  96 117 151 197 249 317 360
#     4  10  24  40  62  91 120 166 207 244 302 363
#
# _framework density 18.691827
#
# number of rings (size 3 to 8) (size 9 to 14) (size 15 to 20)
#    0.000    1.600    2.667    1.600    2.800    5.867 
#    4.800    0.667    0.000    0.000    0.000    0.000 
#    0.000    0.000    0.000    0.000    0.000    0.000 
#
# Total GULP energy -167392.854468 kJ/mol
# GULP energy per Si atom -5579.761816 kJ/mol
# Density = 1.864928 g / cm^3
# Si number density = 18.691827 Si / 1000 Ang^3
#
#
#
# Elastic Constant Matrix: (Units=GPa)
#
#
# Indices 1 2 3 4 5 6 
#
# 1 76.9714 37.0584 49.9056 0.0001 -4.1115 0.0000
# 2 37.0584 75.2341 52.4868 0.0001 0.3285 0.0001
# 3 49.9056 52.4868 133.9208 0.0005 3.9977 0.0005
# 4 0.0001 0.0001 0.0005 25.0065 0.0002 3.4574
# 5 -4.1115 0.3285 3.9977 0.0002 30.2925 0.0001
# 6 0.0000 0.0001 0.0005 3.4574 0.0001 21.3276
#
#
#
# Elastic Compliance Matrix: (Units=1/GPa)
#
#
# Indices 1 2 3 4 5 6 
#
# 1 0.019278 -0.006096 -0.004894 0.000000 0.003329 0.000000
# 2 -0.006096 0.020238 -0.005651 0.000000 -0.000301 0.000000
# 3 -0.004894 -0.005651 0.011569 0.000000 -0.002130 0.000000
# 4 0.000000 0.000000 0.000000 0.040907 0.000000 -0.006631
# 5 0.003329 -0.000301 -0.002130 0.000000 0.033748 0.000000
# 6 0.000000 0.000000 0.000000 -0.006631 0.000000 0.047963
#
#
# Mechanical properties :
#
#
# Convention : Reuss Voigt Hill
#
# Bulk Modulus (GPa) = 56.17058 62.78090 59.47574
# Shear Modulus (GPa) = 23.48309 25.10368 24.29339
#
# Velocity S-wave (km/s) = 3.54832 3.66871 3.60902
# Velocity P-wave (km/s) = 6.84862 7.18375 7.01818
#
# Compressibility (1/GPa) = 0.01780291
#
# Stress axis : x y z
#
# Youngs Moduli (GPa) = 51.87338 49.41084 86.43529
#
# Poissons Ratio (x) = 0.30120 0.42302
# Poissons Ratio (y) = 0.31622 0.48847
# Poissons Ratio (z) = 0.25387 0.27924
#
# Static dielectric constant tensor:
#      x y z
#    x 1.676930 0.000000 0.007260 
#    y 0.000000 1.643580 0.000000 
#    z 0.007260 0.000000 1.637030 
# 
# From -- ./inp_files/290123.got.cif
#   From: 2010.05.17/outbox.cif.g08.bks.cpg/sg15_146_cif.got.tgz:290123.got - 2010.06.03 18:47:42.
