data_PCOD9287193
_publ_section_title
;
Structure prediction by ZEFSAII (Michael W. Deem and Ramdas Pophale) SiO2 
 PCOD9287193
Probable space group: C 2/C
;
_chemical_formula_sum "Si O2"
_cell_formula_units_Z 40
_cell_length_a 15.014034
_cell_length_b 27.453998
_cell_length_c 14.296920
_cell_angle_alpha 90.000000
_cell_angle_beta 160.701460
_cell_angle_gamma 90.000000
_cell_volume 1947.620124
_symmetry_space_group_name_H-M "C 2/C"
_symmetry_group_IT_number 15
_symmetry_cell_setting 'monoclinic'
loop_
_space_group_symop_operation_xyz
x,y,z
-x,y,1/2-z
-x,-y,-z
x,-y,1/2+z
1/2+x,1/2+y,z
1/2-x,1/2+y,1/2-z
1/2-x,1/2-y,-z
1/2+x,1/2-y,1/2+z
loop_
_atom_site_type_symbol
_atom_site_label
_atom_site_fract_x
_atom_site_fract_y
_atom_site_fract_z
Si Si1 0.798007 0.645544 0.309641
Si Si2 0.119009 0.046397 0.168407
Si Si3 0.532074 0.217320 0.390671
Si Si4 0.031541 0.783644 0.888364
Si Si5 0.596983 0.920572 0.241682
O O1 0.665003 0.593871 0.148327
O O2 0.936205 0.675383 0.364603
O O3 0.580764 0.678333 0.148533
O O4 0.016463 0.627118 0.602484
O O5 0.404779 0.038795 0.502275
O O6 0.903754 0.064914 0.031695
O O7 0.000000 0.000000 0.000000
O O8 0.500000 0.203194 0.250000
O O9 0.832258 0.236501 0.706387
O O10 0.830742 0.736996 0.697853
O O11 0.000000 0.802126 0.750000
O O12 0.500000 0.913840 0.250000
#
# Coordination Sequence:
#
# PCOD9287193 Si02
#       5
#     8   8   8   8   8
#     4  10  24  34  68  84 130 159 213 251 321 367
#     4  10  23  41  63  90 126 164 212 264 305 383
#     4  10  22  40  62  89 122 164 216 264 316 372
#     4  10  22  34  50  84 126 161 198 240 292 368
#     4  10  23  38  65  92 124 165 206 251 319 386
#
# _framework density 20.537884999999999
#
# number of rings (size 3 to 8) (size 9 to 14) (size 15 to 20)
#    1.200    0.800    0.000    2.400    8.400    0.800 
#    0.000    1.000    4.400    0.000    0.000    0.000 
#    0.000    0.000    0.000    0.000    0.000    0.000 
#
# Total GULP energy -111685.653349 kJ/mol
# GULP energy per Si atom -5584.282667 kJ/mol
# Density = 2.049114 g / cm^3
# Si number density = 20.537885 Si / 1000 Ang^3
#
#
#
# Elastic Constant Matrix: (Units=GPa)
#
#
# Indices 1 2 3 4 5 6 
#
# 1 121.3488 55.6538 -1.4683 -0.0005 9.1198 -0.0001
# 2 55.6538 88.8456 -8.8892 0.0003 -10.8266 -0.0003
# 3 -1.4683 -8.8892 54.2740 0.0085 9.5400 -0.0001
# 4 -0.0005 0.0003 0.0085 22.7781 0.0020 2.2328
# 5 9.1198 -10.8266 9.5400 0.0020 27.7001 -0.0007
# 6 -0.0001 -0.0003 -0.0001 2.2328 -0.0007 13.6275
#
#
#
# Elastic Compliance Matrix: (Units=1/GPa)
#
#
# Indices 1 2 3 4 5 6 
#
# 1 0.013007 -0.009087 0.000256 0.000001 -0.007922 -0.000001
# 2 -0.009087 0.018241 0.001025 -0.000002 0.009768 0.000001
# 3 0.000256 0.001025 0.019739 -0.000007 -0.006482 0.000001
# 4 0.000001 -0.000002 -0.000007 0.044618 -0.000002 -0.007311
# 5 -0.007922 0.009768 -0.006482 -0.000002 0.044760 0.000003
# 6 -0.000001 0.000001 0.000001 -0.007311 0.000003 0.074579
#
#
# Mechanical properties :
#
#
# Convention : Reuss Voigt Hill
#
# Bulk Modulus (GPa) = 28.26979 39.45123 33.86051
# Shear Modulus (GPa) = 20.63145 27.43263 24.03204
#
# Velocity S-wave (km/s) = 3.17291 3.65870 3.42443
# Velocity P-wave (km/s) = 5.21706 6.09088 5.67083
#
# Compressibility (1/GPa) = 0.03537344
#
# Stress axis : x y z
#
# Youngs Moduli (GPa) = 76.88184 54.82192 50.66069
#
# Poissons Ratio (x) = 0.49819 -0.01297
# Poissons Ratio (y) = 0.69866 -0.05191
# Poissons Ratio (z) = -0.01969 -0.05617
#
# Static dielectric constant tensor:
#      x y z
#    x 1.708710 0.000000 -0.017770 
#    y 0.000000 1.743170 0.000000 
#    z -0.017770 0.000000 1.764450 
# 
# From -- ./inp_files/157283.got.cif
#   From: 2010.05.17/outbox.cif.g08.bks.cpg/sg15_79_cif.got.tgz:157283.got - 2010.06.03 18:47:42.
