data_PCOD9287556
_publ_section_title
;
Structure prediction by ZEFSAII (Michael W. Deem and Ramdas Pophale) SiO2 
 PCOD9287556
Probable space group: C 2/C
;
_chemical_formula_sum "Si O2"
_cell_formula_units_Z 52
_cell_length_a 26.815510
_cell_length_b 13.067961
_cell_length_c 26.900355
_cell_angle_alpha 90.000000
_cell_angle_beta 15.515354
_cell_angle_gamma 90.000000
_cell_volume 2521.564987
_symmetry_space_group_name_H-M "C 2/C"
_symmetry_group_IT_number 15
_symmetry_cell_setting 'monoclinic'
loop_
_space_group_symop_operation_xyz
x,y,z
-x,y,1/2-z
-x,-y,-z
x,-y,1/2+z
1/2+x,1/2+y,z
1/2-x,1/2+y,1/2-z
1/2-x,1/2-y,-z
1/2+x,1/2-y,1/2+z
loop_
_atom_site_type_symbol
_atom_site_label
_atom_site_fract_x
_atom_site_fract_y
_atom_site_fract_z
Si Si1 0.105414 0.166953 0.415896
Si Si2 0.776147 0.493212 0.062447
Si Si3 0.766737 0.863220 0.303368
Si Si4 0.000000 0.056998 0.250000
Si Si5 0.099246 0.614162 0.778767
Si Si6 0.484549 0.654636 0.366033
Si Si7 0.042906 0.373579 0.975539
O O1 0.234170 0.241133 0.326960
O O2 0.245916 0.109315 0.244674
O O3 0.961450 0.109982 0.589761
O O4 0.984115 0.248491 0.500461
O O5 0.750090 0.398519 0.124149
O O6 0.660989 0.490970 0.121934
O O7 0.671460 0.587571 0.191798
O O8 0.988288 0.529070 0.853830
O O9 0.597726 0.908846 0.432861
O O10 0.924461 0.128606 0.366951
O O11 0.319296 0.615302 0.559355
O O12 0.029572 0.727124 0.829949
O O13 0.038648 0.596364 0.893459
#
# Coordination Sequence:
#
# PCOD9287556 Si02
#       7
#     8   8   8   4   8   8   8
#     4   8  17  32  57  76 110 152 172 215 277 334
#     4  10  23  37  56  81 108 144 191 240 270 324
#     4   9  18  36  56  82 110 149 183 221 279 330
#     4   8  22  44  52  80 108 150 182 248 272 314
#     4  12  21  34  59  82 115 146 188 224 271 335
#     4  10  22  37  56  80 108 151 187 225 278 321
#     4   9  18  31  54  82 113 149 177 220 268 339
#
# _framework density 20.622112999999999
#
# number of rings (size 3 to 8) (size 9 to 14) (size 15 to 20)
#    1.846    0.615    1.538    0.923    0.000    4.923 
#    0.000    1.538    0.000    0.923    0.000    0.000 
#    0.000    0.000    0.000    0.000    0.000    0.000 
#
# Total GULP energy -144869.324063 kJ/mol
# GULP energy per Si atom -5571.897079 kJ/mol
# Density = 2.057518 g / cm^3
# Si number density = 20.622113 Si / 1000 Ang^3
#
#
#
# Elastic Constant Matrix: (Units=GPa)
#
#
# Indices 1 2 3 4 5 6 
#
# 1 72.7575 12.7531 -15.3089 0.0399 5.2208 -0.0208
# 2 12.7531 33.2314 3.5024 0.0228 8.7562 -0.0166
# 3 -15.3089 3.5024 96.4352 0.0506 4.9452 -0.0292
# 4 0.0399 0.0228 0.0506 20.6732 -0.0248 9.5894
# 5 5.2208 8.7562 4.9452 -0.0248 19.0067 0.0120
# 6 -0.0208 -0.0166 -0.0292 9.5894 0.0120 27.0681
#
#
#
# Elastic Compliance Matrix: (Units=1/GPa)
#
#
# Indices 1 2 3 4 5 6 
#
# 1 0.015485 -0.005605 0.002785 -0.000047 -0.002396 0.000029
# 2 -0.005605 0.036297 -0.001449 -0.000065 -0.014805 0.000046
# 3 0.002785 -0.001449 0.011016 -0.000049 -0.002964 0.000032
# 4 -0.000047 -0.000065 -0.000049 0.057884 0.000144 -0.020507
# 5 -0.002396 -0.014805 -0.002964 0.000144 0.060863 -0.000092
# 6 0.000029 0.000046 0.000032 -0.020507 -0.000092 0.044209
#
#
# Mechanical properties :
#
#
# Convention : Reuss Voigt Hill
#
# Bulk Modulus (GPa) = 18.42972 22.70192 20.56582
# Shear Modulus (GPa) = 19.81154 26.78143 23.29649
#
# Velocity S-wave (km/s) = 3.10287 3.60762 3.36472
# Velocity P-wave (km/s) = 4.66833 5.32782 5.00894
#
# Compressibility (1/GPa) = 0.05426019
#
# Stress axis : x y z
#
# Youngs Moduli (GPa) = 64.58060 27.55073 90.77429
#
# Poissons Ratio (x) = 0.15441 -0.25277
# Poissons Ratio (y) = 0.36195 0.13150
# Poissons Ratio (z) = -0.17983 0.03991
#
# Static dielectric constant tensor:
#      x y z
#    x 1.749020 0.000000 -0.027070 
#    y 0.000000 1.830610 0.000010 
#    z -0.027070 0.000010 1.743240 
# 
# From -- ./inp_files/303333.got.cif
#   From: 2010.05.17/outbox.cif.g08.bks.cpg/sg15_152_cif.got.tgz:303333.got - 2010.06.03 18:47:42.
