data_PCOD9287510
_publ_section_title
;
Structure prediction by ZEFSAII (Michael W. Deem and Ramdas Pophale) SiO2 
 PCOD9287510
Probable space group: C 2/C
;
_chemical_formula_sum "Si O2"
_cell_formula_units_Z 52
_cell_length_a 23.294530
_cell_length_b 6.825348
_cell_length_c 20.906822
_cell_angle_alpha 90.000000
_cell_angle_beta 135.648210
_cell_angle_gamma 90.000000
_cell_volume 2323.712629
_symmetry_space_group_name_H-M "C 2/C"
_symmetry_group_IT_number 15
_symmetry_cell_setting 'monoclinic'
loop_
_space_group_symop_operation_xyz
x,y,z
-x,y,1/2-z
-x,-y,-z
x,-y,1/2+z
1/2+x,1/2+y,z
1/2-x,1/2+y,1/2-z
1/2-x,1/2-y,-z
1/2+x,1/2-y,1/2+z
loop_
_atom_site_type_symbol
_atom_site_label
_atom_site_fract_x
_atom_site_fract_y
_atom_site_fract_z
Si Si1 0.151278 0.956508 0.225653
Si Si2 0.627660 0.751905 0.018815
Si Si3 0.130477 0.391945 0.436137
Si Si4 0.275361 0.923704 0.714256
Si Si5 0.523831 0.642344 0.432511
Si Si6 0.797639 0.763489 0.635554
Si Si7 0.500000 0.000000 0.000000
O O1 0.225499 0.023268 0.238227
O O2 0.168348 0.031336 0.311135
O O3 0.068090 0.062201 0.140068
O O4 0.148289 0.721724 0.215630
O O5 0.714384 0.696299 0.119070
O O6 0.577676 0.889798 0.027179
O O7 0.581603 0.546025 0.974773
O O8 0.631168 0.879745 0.956523
O O9 0.047180 0.285201 0.392026
O O10 0.152046 0.337919 0.381045
O O11 0.205125 0.297697 0.537207
O O12 0.299638 0.119991 0.697667
O O13 0.533498 0.784652 0.500227
#
# Coordination Sequence:
#
# PCOD9287510 Si02
#       7
#     8   8   8   8   8   8   4
#     4  12  26  41  66 103 138 173 216 298 351 402
#     4  11  22  40  67 100 128 179 234 274 332 424
#     4  10  24  44  71  94 132 186 232 277 340 418
#     4  12  24  41  68  99 136 173 223 278 354 412
#     4  11  24  42  67 101 137 178 232 283 346 406
#     4  11  24  45  67  98 136 178 230 283 341 425
#     4  10  22  36  66  96 138 174 218 286 338 406
#
# _framework density 22.377980999999998
#
# number of rings (size 3 to 8) (size 9 to 14) (size 15 to 20)
#    0.000    0.923    6.154    0.462    0.000    6.154 
#    0.000    0.000    0.000    0.000    0.000    0.000 
#    0.000    0.000    0.000    0.000    0.000    0.000 
#
# Total GULP energy -144921.371844 kJ/mol
# GULP energy per Si atom -5573.898917 kJ/mol
# Density = 2.232705 g / cm^3
# Si number density = 22.377981 Si / 1000 Ang^3
#
#
#
# Elastic Constant Matrix: (Units=GPa)
#
#
# Indices 1 2 3 4 5 6 
#
# 1 79.0672 27.9752 11.3997 0.0000 -10.9477 -0.0001
# 2 27.9752 118.5135 18.7004 -0.0002 -4.0101 -0.0004
# 3 11.3997 18.7004 35.5960 0.0000 -6.5171 0.0000
# 4 0.0000 -0.0002 0.0000 33.4572 0.0000 0.9398
# 5 -10.9477 -4.0101 -6.5171 0.0000 21.8017 0.0000
# 6 -0.0001 -0.0004 0.0000 0.9398 0.0000 37.1593
#
#
#
# Elastic Compliance Matrix: (Units=1/GPa)
#
#
# Indices 1 2 3 4 5 6 
#
# 1 0.014868 -0.002974 -0.002044 0.000000 0.006308 0.000000
# 2 -0.002974 0.009797 -0.004377 0.000000 -0.001000 0.000000
# 3 -0.002044 -0.004377 0.032490 0.000000 0.007880 0.000000
# 4 0.000000 0.000000 0.000000 0.029910 0.000000 -0.000756
# 5 0.006308 -0.001000 0.007880 0.000000 0.051207 0.000000
# 6 0.000000 0.000000 0.000000 -0.000756 0.000000 0.026930
#
#
# Mechanical properties :
#
#
# Convention : Reuss Voigt Hill
#
# Bulk Modulus (GPa) = 26.06624 38.81415 32.44019
# Shear Modulus (GPa) = 25.40898 30.15706 27.78302
#
# Velocity S-wave (km/s) = 3.37329 3.67498 3.52736
# Velocity P-wave (km/s) = 5.18127 5.94893 5.57832
#
# Compressibility (1/GPa) = 0.03836381
#
# Stress axis : x y z
#
# Youngs Moduli (GPa) = 67.26007 102.07571 30.77847
#
# Poissons Ratio (x) = 0.30352 0.06292
# Poissons Ratio (y) = 0.20000 0.13473
# Poissons Ratio (z) = 0.13751 0.44683
#
# Static dielectric constant tensor:
#      x y z
#    x 1.800270 0.000000 -0.002530 
#    y 0.000000 1.845310 0.000000 
#    z -0.002530 0.000000 1.887840 
# 
# From -- ./inp_files/281222.got.cif
#   From: 2010.05.17/outbox.cif.g08.bks.cpg/sg15_141_cif.got.tgz:281222.got - 2010.06.03 18:47:42.
