data_PCOD9287737
_publ_section_title
;
Structure prediction by ZEFSAII (Michael W. Deem and Ramdas Pophale) SiO2 
 PCOD9287737
Probable space group: C 2/C
;
_chemical_formula_sum "Si O2"
_cell_formula_units_Z 36
_cell_length_a 22.364759
_cell_length_b 15.379602
_cell_length_c 10.205465
_cell_angle_alpha 90.000000
_cell_angle_beta 26.016722
_cell_angle_gamma 90.000000
_cell_volume 1539.727475
_symmetry_space_group_name_H-M "C 2/C"
_symmetry_group_IT_number 15
_symmetry_cell_setting 'monoclinic'
loop_
_space_group_symop_operation_xyz
x,y,z
-x,y,1/2-z
-x,-y,-z
x,-y,1/2+z
1/2+x,1/2+y,z
1/2-x,1/2+y,1/2-z
1/2-x,1/2-y,-z
1/2+x,1/2-y,1/2+z
loop_
_atom_site_type_symbol
_atom_site_label
_atom_site_fract_x
_atom_site_fract_y
_atom_site_fract_z
Si Si1 0.355704 0.462361 0.168528
Si Si2 0.679504 0.007739 0.770138
Si Si3 0.073209 0.144247 0.381796
Si Si4 0.609596 0.824684 0.308098
Si Si5 0.500000 0.862250 0.250000
O O1 0.255551 0.473407 0.490739
O O2 0.278058 0.451283 0.186215
O O3 0.423156 0.558827 0.034303
O O4 0.462384 0.386711 0.993428
O O5 0.569628 0.081839 0.946235
O O6 0.615393 0.925610 0.967608
O O7 0.052010 0.238350 0.489363
O O8 0.226442 0.160941 0.023860
O O9 0.558241 0.813420 0.260369
#
# Coordination Sequence:
#
# PCOD9287737 Si02
#       5
#     8   8   8   8   4
#     4  10  22  40  69  91 128 165 214 265 327 382
#     4  11  22  42  64  92 125 178 215 263 323 382
#     4   9  20  41  62  99 122 165 210 269 323 386
#     4  10  22  37  66  91 129 165 211 263 321 383
#     4  12  22  42  62  88 126 178 216 264 322 396
#
# _framework density 23.380761
#
# number of rings (size 3 to 8) (size 9 to 14) (size 15 to 20)
#    0.000    1.778    4.444    0.667    0.000   13.333 
#    0.000    3.333    0.000    0.000    0.000    0.000 
#    0.000    0.000    0.000    0.000    0.000    0.000 
#
# Total GULP energy -100422.119857 kJ/mol
# GULP energy per Si atom -5579.006659 kJ/mol
# Density = 2.332754 g / cm^3
# Si number density = 23.380761 Si / 1000 Ang^3
#
#
#
# Elastic Constant Matrix: (Units=GPa)
#
#
# Indices 1 2 3 4 5 6 
#
# 1 145.2412 14.9408 33.5287 0.0000 -11.5787 0.0000
# 2 14.9408 131.2448 17.3547 0.0000 -10.1450 0.0000
# 3 33.5287 17.3547 58.2968 0.0000 1.1110 0.0000
# 4 0.0000 0.0000 0.0000 22.5844 0.0000 -18.9876
# 5 -11.5787 -10.1450 1.1110 0.0000 40.0615 0.0000
# 6 0.0000 0.0000 0.0000 -18.9876 0.0000 10.7569
#
#
#
# Elastic Compliance Matrix: (Units=1/GPa)
#
#
# Indices 1 2 3 4 5 6 
#
# 1 0.008183 -0.000117 -0.004719 0.000000 0.002466 0.000000
# 2 -0.000117 0.008110 -0.002387 0.000000 0.002086 0.000000
# 3 -0.004719 -0.002387 0.020626 0.000000 -0.002540 0.000000
# 4 0.000000 0.000000 0.000000 -0.091478 0.000000 -0.161472
# 5 0.002466 0.002086 -0.002540 0.000000 0.026273 0.000000
# 6 0.000000 0.000000 0.000000 -0.161472 0.000000 -0.192060
#
#
# Mechanical properties :
#
#
# Convention : Reuss Voigt Hill
#
# Bulk Modulus (GPa) = 44.49486 51.82572 48.16029
# Shear Modulus (GPa) = -25.20032 32.61114 3.70541
#
# Velocity S-wave (km/s) = -3.28658 3.73873 1.26026
# Velocity P-wave (km/s) = 2.16095 6.39153 4.77081
#
# Compressibility (1/GPa) = 0.02247451
#
# Stress axis : x y z
#
# Youngs Moduli (GPa) = 122.20435 123.31213 48.48175
#
# Poissons Ratio (x) = 0.01442 0.22876
# Poissons Ratio (y) = 0.01429 0.11571
# Poissons Ratio (z) = 0.57663 0.29430
#
# Static dielectric constant tensor:
#      x y z
#    x 1.879950 0.000000 -0.018700 
#    y 0.000000 2.032980 0.000000 
#    z -0.018700 0.000000 2.007850 
# 
# From -- ./inp_files/118457.got.cif
#   From: 2010.05.17/outbox.cif.g08.bks.cpg/sg15_60_cif.got.tgz:118457.got - 2010.06.03 18:47:42.
