data_PCOD9287067
_publ_section_title
;
Structure prediction by ZEFSAII (Michael W. Deem and Ramdas Pophale) SiO2 
 PCOD9287067
Probable space group: C 2/C
;
_chemical_formula_sum "Si O2"
_cell_formula_units_Z 48
_cell_length_a 12.523647
_cell_length_b 15.027254
_cell_length_c 11.332210
_cell_angle_alpha 90.000000
_cell_angle_beta 104.239903
_cell_angle_gamma 90.000000
_cell_volume 2067.148824
_symmetry_space_group_name_H-M "C 2/C"
_symmetry_group_IT_number 15
_symmetry_cell_setting 'monoclinic'
loop_
_space_group_symop_operation_xyz
x,y,z
-x,y,1/2-z
-x,-y,-z
x,-y,1/2+z
1/2+x,1/2+y,z
1/2-x,1/2+y,1/2-z
1/2-x,1/2-y,-z
1/2+x,1/2-y,1/2+z
loop_
_atom_site_type_symbol
_atom_site_label
_atom_site_fract_x
_atom_site_fract_y
_atom_site_fract_z
Si Si1 0.433569 0.355077 0.564455
Si Si2 0.939165 0.523603 0.105324
Si Si3 0.241372 0.071357 0.662840
Si Si4 0.837695 0.110297 0.282224
Si Si5 0.188361 0.234774 0.797174
Si Si6 0.977702 0.274784 0.577929
O O1 0.365690 0.400601 0.441860
O O2 0.542679 0.407754 0.630414
O O3 0.356841 0.350337 0.657554
O O4 0.481613 0.259736 0.536883
O O5 0.835918 0.458005 0.097124
O O6 0.923641 0.629127 0.078988
O O7 0.000000 0.516521 0.250000
O O8 0.000000 0.500000 0.000000
O O9 0.254193 0.154041 0.755016
O O10 0.224268 0.982812 0.735003
O O11 0.771082 0.184005 0.335525
O O12 0.114536 0.209484 0.890457
O O13 0.090844 0.269930 0.683787
#
# Coordination Sequence:
#
# PCOD9287067 Si02
#       6
#     8   8   8   8   8   8
#     4  10  26  41  70 101 139 195 243 310 367 451
#     4  12  27  47  75 111 152 193 251 313 371 444
#     4  11  25  43  74 105 141 197 242 304 380 443
#     4  11  23  46  65 103 150 181 254 305 373 441
#     4  10  22  42  73  96 144 190 240 297 379 442
#     4  10  21  46  69 102 142 192 245 302 375 436
#
# _framework density 23.220390999999999
#
# number of rings (size 3 to 8) (size 9 to 14) (size 15 to 20)
#    0.000    1.333    3.333    0.500    7.000   10.000 
#    0.000    0.000    0.000    0.000    0.000    0.000 
#    0.000    0.000    0.000    0.000    0.000    0.000 
#
# Total GULP energy -133976.889494 kJ/mol
# GULP energy per Si atom -5582.370396 kJ/mol
# Density = 2.316754 g / cm^3
# Si number density = 23.220391 Si / 1000 Ang^3
#
#
#
# Elastic Constant Matrix: (Units=GPa)
#
#
# Indices 1 2 3 4 5 6 
#
# 1 104.2484 52.0402 30.1000 0.0000 -33.0503 0.0000
# 2 52.0402 112.2888 33.8307 0.0000 -11.1577 0.0000
# 3 30.1000 33.8307 86.1558 0.0000 -27.5195 0.0000
# 4 0.0000 0.0000 0.0000 26.5211 0.0000 -9.9345
# 5 -33.0503 -11.1577 -27.5195 0.0000 33.3308 0.0000
# 6 0.0000 0.0000 0.0000 -9.9345 0.0000 39.1704
#
#
#
# Elastic Compliance Matrix: (Units=1/GPa)
#
#
# Indices 1 2 3 4 5 6 
#
# 1 0.018089 -0.007288 0.002026 0.000000 0.017170 0.000000
# 2 -0.007288 0.013037 -0.004737 0.000000 -0.006773 0.000000
# 3 0.002026 -0.004737 0.017513 0.000000 0.014883 0.000000
# 4 0.000000 0.000000 0.000000 0.041664 0.000000 0.010567
# 5 0.017170 -0.006773 0.014883 0.000000 0.057049 0.000000
# 6 0.000000 0.000000 0.000000 0.010567 0.000000 0.028210
#
#
# Mechanical properties :
#
#
# Convention : Reuss Voigt Hill
#
# Bulk Modulus (GPa) = 34.91251 59.40385 47.15818
# Shear Modulus (GPa) = 24.37782 32.25259 28.31520
#
# Velocity S-wave (km/s) = 3.24365 3.73094 3.49580
# Velocity P-wave (km/s) = 5.39409 6.64816 6.05369
#
# Compressibility (1/GPa) = 0.02864303
#
# Stress axis : x y z
#
# Youngs Moduli (GPa) = 55.28266 76.70403 57.10143
#
# Poissons Ratio (x) = 0.55899 -0.11571
# Poissons Ratio (y) = 0.40288 0.27046
# Poissons Ratio (z) = -0.11202 0.36331
#
# Static dielectric constant tensor:
#      x y z
#    x 1.890540 0.000000 0.005060 
#    y 0.000000 1.878460 0.000000 
#    z 0.005060 0.000000 1.926590 
# 
# From -- ./inp_files/87392.got.cif
#   From: 2010.05.17/outbox.cif.g08.bks.cpg/sg15_44_cif.got.tgz:87392.got - 2010.06.03 18:47:42.
