data_PCOD9287136
_publ_section_title
;
Structure prediction by ZEFSAII (Michael W. Deem and Ramdas Pophale) SiO2 
 PCOD9287136
Probable space group: C 2/C
;
_chemical_formula_sum "Si O2"
_cell_formula_units_Z 48
_cell_length_a 7.413836
_cell_length_b 15.458031
_cell_length_c 16.812319
_cell_angle_alpha 90.000000
_cell_angle_beta 93.255157
_cell_angle_gamma 90.000000
_cell_volume 1923.638667
_symmetry_space_group_name_H-M "C 2/C"
_symmetry_group_IT_number 15
_symmetry_cell_setting 'monoclinic'
loop_
_space_group_symop_operation_xyz
x,y,z
-x,y,1/2-z
-x,-y,-z
x,-y,1/2+z
1/2+x,1/2+y,z
1/2-x,1/2+y,1/2-z
1/2-x,1/2-y,-z
1/2+x,1/2-y,1/2+z
loop_
_atom_site_type_symbol
_atom_site_label
_atom_site_fract_x
_atom_site_fract_y
_atom_site_fract_z
Si Si1 0.975481 0.597916 0.025944
Si Si2 0.304808 0.666532 0.351437
Si Si3 0.784220 0.993975 0.756675
Si Si4 0.597895 0.647391 0.665064
Si Si5 0.707699 0.701843 0.414461
Si Si6 0.216674 0.637925 0.631120
O O1 0.816294 0.633438 0.078272
O O2 0.156820 0.622193 0.075725
O O3 0.930426 0.643864 0.941060
O O4 0.000000 0.500000 0.000000
O O5 0.236417 0.602479 0.279913
O O6 0.513664 0.664614 0.384929
O O7 0.285942 0.767365 0.329268
O O8 0.000000 0.985050 0.750000
O O9 0.778770 0.061735 0.830332
O O10 0.694721 0.052550 0.685508
O O11 0.500000 0.653350 0.750000
O O12 0.714216 0.729233 0.646021
O O13 0.423993 0.633484 0.604216
O O14 0.750000 0.750000 0.500000
#
# Coordination Sequence:
#
# PCOD9287136 Si02
#       6
#     8   8   8   8   8   8
#     4  12  28  47  71 115 155 194 252 319 383 462
#     4  12  25  46  80 109 151 200 255 317 390 460
#     4   9  24  44  72 109 145 197 251 310 378 450
#     4   9  21  45  70 103 154 190 246 320 374 454
#     4  12  25  44  79 112 145 202 259 308 398 453
#     4  10  21  50  72 104 152 195 250 316 378 456
#
# _framework density 24.952711999999998
#
# number of rings (size 3 to 8) (size 9 to 14) (size 15 to 20)
#    0.000    1.667    3.333    1.500    7.000    3.333 
#    0.000    4.167    0.000    0.000    0.000    0.000 
#    0.000    0.000    0.000    0.000    0.000    0.000 
#
# Total GULP energy -133900.188008 kJ/mol
# GULP energy per Si atom -5579.174500 kJ/mol
# Density = 2.489592 g / cm^3
# Si number density = 24.952712 Si / 1000 Ang^3
#
#
#
# Elastic Constant Matrix: (Units=GPa)
#
#
# Indices 1 2 3 4 5 6 
#
# 1 112.7663 18.0672 17.2084 0.0000 24.9174 0.0000
# 2 18.0672 190.7267 58.9232 0.0000 -0.5764 0.0000
# 3 17.2084 58.9232 90.8958 0.0000 2.0783 0.0000
# 4 0.0000 0.0000 0.0000 41.3586 0.0000 5.6660
# 5 24.9174 -0.5764 2.0783 0.0000 27.9711 0.0000
# 6 0.0000 0.0000 0.0000 5.6660 0.0000 9.5362
#
#
#
# Elastic Compliance Matrix: (Units=1/GPa)
#
#
# Indices 1 2 3 4 5 6 
#
# 1 0.011431 -0.000645 -0.001515 0.000000 -0.010083 0.000000
# 2 -0.000645 0.006598 -0.004179 0.000000 0.001021 0.000000
# 3 -0.001515 -0.004179 0.013992 0.000000 0.000224 0.000000
# 4 0.000000 0.000000 0.000000 0.026321 0.000000 -0.015639
# 5 -0.010083 0.001021 0.000224 0.000000 0.044738 0.000000
# 6 0.000000 0.000000 0.000000 -0.015639 0.000000 0.114155
#
#
# Mechanical properties :
#
#
# Convention : Reuss Voigt Hill
#
# Bulk Modulus (GPa) = 51.69822 64.75405 58.22613
# Shear Modulus (GPa) = 21.15409 35.78586 28.46998
#
# Velocity S-wave (km/s) = 2.91480 3.79112 3.38147
# Velocity P-wave (km/s) = 5.66494 6.72090 6.21539
#
# Compressibility (1/GPa) = 0.01934303
#
# Stress axis : x y z
#
# Youngs Moduli (GPa) = 87.48469 151.55620 71.46902
#
# Poissons Ratio (x) = 0.09778 0.10829
# Poissons Ratio (y) = 0.05644 0.29863
# Poissons Ratio (z) = 0.13256 0.63328
#
# Static dielectric constant tensor:
#      x y z
#    x 2.070950 0.000000 -0.001970 
#    y 0.000000 2.055270 0.000000 
#    z -0.001970 0.000000 2.114380 
# 
# From -- ./inp_files/189219.got.cif
#   From: 2010.05.17/outbox.cif.g08.bks.cpg/sg15_95_cif.got.tgz:189219.got - 2010.06.03 18:47:42.
