data_PCOD9287324
_publ_section_title
;
Structure prediction by ZEFSAII (Michael W. Deem and Ramdas Pophale) SiO2 
 PCOD9287324
Probable space group: C 2/C
;
_chemical_formula_sum "Si O2"
_cell_formula_units_Z 56
_cell_length_a 22.014303
_cell_length_b 19.301673
_cell_length_c 8.412872
_cell_angle_alpha 90.000000
_cell_angle_beta 47.668495
_cell_angle_gamma 90.000000
_cell_volume 2642.663833
_symmetry_space_group_name_H-M "C 2/C"
_symmetry_group_IT_number 15
_symmetry_cell_setting 'monoclinic'
loop_
_space_group_symop_operation_xyz
x,y,z
-x,y,1/2-z
-x,-y,-z
x,-y,1/2+z
1/2+x,1/2+y,z
1/2-x,1/2+y,1/2-z
1/2-x,1/2-y,-z
1/2+x,1/2-y,1/2+z
loop_
_atom_site_type_symbol
_atom_site_label
_atom_site_fract_x
_atom_site_fract_y
_atom_site_fract_z
Si Si1 0.000000 0.287335 0.250000
Si Si2 0.809320 0.765254 0.647288
Si Si3 0.850858 0.565524 0.317210
Si Si4 0.134117 0.727673 0.290497
Si Si5 0.764096 0.024836 0.710032
Si Si6 0.000000 0.562764 0.250000
Si Si7 0.382540 0.861467 0.213492
Si Si8 0.292594 0.596270 0.366970
O O1 0.943763 0.247144 0.473478
O O2 0.940179 0.334296 0.250726
O O3 0.858829 0.762586 0.394225
O O4 0.715518 0.760058 0.751525
O O5 0.837052 0.701721 0.705886
O O6 0.818644 0.833432 0.738037
O O7 0.871761 0.643846 0.226756
O O8 0.784327 0.570241 0.575969
O O9 0.804629 0.521282 0.264120
O O10 0.932490 0.529806 0.248959
O O11 0.816419 0.073205 0.501903
O O12 0.814414 0.967234 0.714797
O O13 0.940294 0.604186 0.476817
O O14 0.307096 0.901157 0.430848
#
# Coordination Sequence:
#
# PCOD9287324 Si02
#       8
#     4   8   8   8   8   4   8   8
#     4  12  22  36  57  86 118 153 192 240 300 352
#     4  11  22  38  60  87 111 162 196 247 303 357
#     4  11  20  38  49  80 114 168 196 242 273 329
#     4  11  22  37  60  83 120 154 193 250 305 345
#     4  10  22  36  54  76 119 160 205 241 266 341
#     4  12  22  36  55  78 124 165 200 240 286 338
#     4  12  22  37  58  84 119 161 198 247 296 344
#     4  11  21  38  55  82 112 156 195 245 282 340
#
# _framework density 21.190740999999999
#
# number of rings (size 3 to 8) (size 9 to 14) (size 15 to 20)
#    0.000    0.857    7.143    0.429    0.000    0.571 
#    0.000    0.000    0.000    0.000    0.000    0.000 
#    0.000   19.429    0.000    0.000    0.000    0.000 
#
# Total GULP energy -156347.781775 kJ/mol
# GULP energy per Si atom -5583.849349 kJ/mol
# Density = 2.114251 g / cm^3
# Si number density = 21.190741 Si / 1000 Ang^3
#
#
#
# Elastic Constant Matrix: (Units=GPa)
#
#
# Indices 1 2 3 4 5 6 
#
# 1 40.8827 4.2863 8.7282 0.0000 22.2774 0.0000
# 2 4.2863 63.0140 48.6560 0.0000 10.8548 0.0000
# 3 8.7282 48.6560 140.4565 0.0000 23.3004 0.0000
# 4 0.0000 0.0000 0.0000 27.4799 0.0000 2.9323
# 5 22.2774 10.8548 23.3004 0.0000 26.7291 0.0000
# 6 0.0000 0.0000 0.0000 2.9323 0.0000 24.9479
#
#
#
# Elastic Compliance Matrix: (Units=1/GPa)
#
#
# Indices 1 2 3 4 5 6 
#
# 1 0.046885 0.001302 0.003747 0.000000 -0.042872 0.000000
# 2 0.001302 0.021861 -0.007015 0.000000 -0.003848 0.000000
# 3 0.003747 -0.007015 0.010945 0.000000 -0.009816 0.000000
# 4 0.000000 0.000000 0.000000 0.036852 0.000000 -0.004332
# 5 -0.042872 -0.003848 -0.009816 0.000000 0.083263 0.000000
# 6 0.000000 0.000000 0.000000 -0.004332 0.000000 0.040593
#
#
# Mechanical properties :
#
#
# Convention : Reuss Voigt Hill
#
# Bulk Modulus (GPa) = 13.19966 40.85491 27.02729
# Shear Modulus (GPa) = 18.54712 28.01023 23.27868
#
# Velocity S-wave (km/s) = 2.96167 3.63962 3.31800
# Velocity P-wave (km/s) = 4.23530 6.08144 5.24031
#
# Compressibility (1/GPa) = 0.07575952
#
# Stress axis : x y z
#
# Youngs Moduli (GPa) = 21.32878 45.74424 91.36307
#
# Poissons Ratio (x) = -0.05958 -0.34237
# Poissons Ratio (y) = -0.02778 0.64096
# Poissons Ratio (z) = -0.07993 0.32092
#
# Static dielectric constant tensor:
#      x y z
#    x 1.796700 0.000000 0.040860 
#    y 0.000000 1.816970 0.000000 
#    z 0.040860 0.000000 1.796530 
# 
# From -- ./inp_files/49764.got.cif
#   From: 2010.05.17/outbox.cif.g08.bks.cpg/sg15_25_cif.got.tgz:49764.got - 2010.06.03 18:47:42.
