data_PCOD9287296
_publ_section_title
;
Structure prediction by ZEFSAII (Michael W. Deem and Ramdas Pophale) SiO2 
 PCOD9287296
Probable space group: C 2/C
;
_chemical_formula_sum "Si O2"
_cell_formula_units_Z 36
_cell_length_a 11.025344
_cell_length_b 26.844574
_cell_length_c 5.916986
_cell_angle_alpha 90.000000
_cell_angle_beta 90.761134
_cell_angle_gamma 90.000000
_cell_volume 1751.099747
_symmetry_space_group_name_H-M "C 2/C"
_symmetry_group_IT_number 15
_symmetry_cell_setting 'monoclinic'
loop_
_space_group_symop_operation_xyz
x,y,z
-x,y,1/2-z
-x,-y,-z
x,-y,1/2+z
1/2+x,1/2+y,z
1/2-x,1/2+y,1/2-z
1/2-x,1/2-y,-z
1/2+x,1/2-y,1/2+z
loop_
_atom_site_type_symbol
_atom_site_label
_atom_site_fract_x
_atom_site_fract_y
_atom_site_fract_z
Si Si1 0.333120 0.814586 0.119921
Si Si2 0.268035 0.120356 0.993473
Si Si3 0.861006 0.793653 0.752663
Si Si4 0.500000 0.144751 0.250000
Si Si5 0.141113 0.017621 0.003853
O O1 0.319958 0.866346 0.249900
O O2 0.353384 0.765938 0.273871
O O3 0.209253 0.805417 0.980873
O O4 0.442087 0.820844 0.944081
O O5 0.204514 0.171689 0.068307
O O6 0.386306 0.113526 0.153505
O O7 0.172103 0.076203 0.002164
O O8 0.000000 0.808197 0.750000
O O9 0.188655 0.000219 0.255265
O O10 0.000000 0.000000 0.000000
#
# Coordination Sequence:
#
# PCOD9287296 Si02
#       5
#     8   8   8   4   8
#     4  10  22  40  61  94 137 178 219 275 335 409
#     4  11  23  40  69  92 132 177 226 278 347 408
#     4  10  22  35  61  98 134 171 226 267 337 407
#     4  10  22  40  66  92 134 176 224 270 340 406
#     4  10  25  45  71  98 136 172 225 291 355 406
#
# _framework density 20.558509999999998
#
# number of rings (size 3 to 8) (size 9 to 14) (size 15 to 20)
#    0.000    1.778    0.000    2.667    9.333    6.222 
#    0.000    1.111    0.000    0.000    0.000    0.000 
#    0.000    0.000    0.000    0.000    0.000    0.000 
#
# Total GULP energy -100285.282933 kJ/mol
# GULP energy per Si atom -5571.404607 kJ/mol
# Density = 2.051172 g / cm^3
# Si number density = 20.558510 Si / 1000 Ang^3
#
#
#
# Elastic Constant Matrix: (Units=GPa)
#
#
# Indices 1 2 3 4 5 6 
#
# 1 124.9527 34.9383 23.9497 0.0000 4.3556 0.0000
# 2 34.9383 108.7561 50.5421 0.0000 -11.8491 0.0000
# 3 23.9497 50.5421 105.0593 0.0000 -11.5802 0.0000
# 4 0.0000 0.0000 0.0000 19.5566 0.0000 -0.2161
# 5 4.3556 -11.8491 -11.5802 0.0000 23.9212 0.0000
# 6 0.0000 0.0000 0.0000 -0.2161 0.0000 36.3090
#
#
#
# Elastic Compliance Matrix: (Units=1/GPa)
#
#
# Indices 1 2 3 4 5 6 
#
# 1 0.009128 -0.002799 -0.001131 0.000000 -0.003596 0.000000
# 2 -0.002799 0.012950 -0.005101 0.000000 0.004455 0.000000
# 3 -0.001131 -0.005101 0.012649 0.000000 0.003803 0.000000
# 4 0.000000 0.000000 0.000000 0.051137 0.000000 0.000304
# 5 -0.003596 0.004455 0.003803 0.000000 0.046506 0.000000
# 6 0.000000 0.000000 0.000000 0.000304 0.000000 0.027543
#
#
# Mechanical properties :
#
#
# Convention : Reuss Voigt Hill
#
# Bulk Modulus (GPa) = 60.00126 61.95869 60.97998
# Shear Modulus (GPa) = 27.24368 31.24657 29.24512
#
# Velocity S-wave (km/s) = 3.64425 3.90280 3.77574
# Velocity P-wave (km/s) = 6.85247 7.10720 6.98100
#
# Compressibility (1/GPa) = 0.01666632
#
# Stress axis : x y z
#
# Youngs Moduli (GPa) = 109.55792 77.22113 79.05552
#
# Poissons Ratio (x) = 0.21610 0.08939
# Poissons Ratio (y) = 0.30660 0.40326
# Poissons Ratio (z) = 0.12388 0.39390
#
# Static dielectric constant tensor:
#      x y z
#    x 1.715690 0.000000 0.011600 
#    y 0.000000 1.707610 0.000000 
#    z 0.011600 0.000000 1.841430 
# 
# From -- ./inp_files/4297.got.cif
#   From: 2010.05.17/outbox.cif.g08.bks.cpg/sg15_3_cif.got.tgz:4297.got - 2010.06.03 18:47:42.
