data_PCOD9287634
_publ_section_title
;
Structure prediction by ZEFSAII (Michael W. Deem and Ramdas Pophale) SiO2 
 PCOD9287634
Probable space group: C 2/C
;
_chemical_formula_sum "Si O2"
_cell_formula_units_Z 44
_cell_length_a 13.143850
_cell_length_b 23.256583
_cell_length_c 5.613737
_cell_angle_alpha 90.000000
_cell_angle_beta 107.604354
_cell_angle_gamma 90.000000
_cell_volume 1635.648101
_symmetry_space_group_name_H-M "C 2/C"
_symmetry_group_IT_number 15
_symmetry_cell_setting 'monoclinic'
loop_
_space_group_symop_operation_xyz
x,y,z
-x,y,1/2-z
-x,-y,-z
x,-y,1/2+z
1/2+x,1/2+y,z
1/2-x,1/2+y,1/2-z
1/2-x,1/2-y,-z
1/2+x,1/2-y,1/2+z
loop_
_atom_site_type_symbol
_atom_site_label
_atom_site_fract_x
_atom_site_fract_y
_atom_site_fract_z
Si Si1 0.749652 0.365526 0.890374
Si Si2 0.115905 0.435071 0.877768
Si Si3 0.531329 0.634066 0.016908
Si Si4 0.603819 0.822057 0.164248
Si Si5 0.500000 0.258349 0.250000
Si Si6 0.322798 0.515998 0.031107
O O1 0.846175 0.395786 0.817426
O O2 0.657269 0.352629 0.632943
O O3 0.702594 0.417191 0.017705
O O4 0.794283 0.316806 0.093103
O O5 0.000000 0.462046 0.750000
O O6 0.103075 0.388104 0.075981
O O7 0.210993 0.480335 0.981358
O O8 0.500000 0.610180 0.250000
O O9 0.500000 0.602446 0.750000
O O10 0.471036 0.695272 0.934643
O O11 0.500000 0.810882 0.250000
O O12 0.591032 0.781821 0.924552
O O13 0.374239 0.508724 0.328692
#
# Coordination Sequence:
#
# PCOD9287634 Si02
#       6
#     8   8   8   8   4   8
#     4  11  24  41  70  97 141 187 229 278 350 406
#     4  11  22  38  62 102 144 182 217 271 340 422
#     4  10  26  49  72  98 132 181 240 301 346 393
#     4  12  21  39  66 105 145 181 220 279 340 432
#     4  10  24  44  70 102 140 172 242 292 344 410
#     4  10  22  37  60  97 137 176 222 264 322 410
#
# _framework density 26.900649000000001
#
# number of rings (size 3 to 8) (size 9 to 14) (size 15 to 20)
#    0.545    0.727    4.545    0.545    2.545    4.364 
#    0.000    4.545    0.000   13.091    0.000    0.000 
#    0.000    0.000    0.000    0.000    0.000    0.000 
#
# Total GULP energy -123012.147020 kJ/mol
# GULP energy per Si atom -5591.461228 kJ/mol
# Density = 2.683942 g / cm^3
# Si number density = 26.900649 Si / 1000 Ang^3
#
#
#
# Elastic Constant Matrix: (Units=GPa)
#
#
# Indices 1 2 3 4 5 6 
#
# 1 88.0581 29.3908 67.8727 0.0000 15.0548 0.0000
# 2 29.3908 88.1331 32.7660 0.0000 8.3437 0.0000
# 3 67.8727 32.7660 218.3181 0.0000 7.4502 0.0000
# 4 0.0000 0.0000 0.0000 37.8329 0.0000 5.9875
# 5 15.0548 8.3437 7.4502 0.0000 45.8639 0.0000
# 6 0.0000 0.0000 0.0000 5.9875 0.0000 15.1507
#
#
#
# Elastic Compliance Matrix: (Units=1/GPa)
#
#
# Indices 1 2 3 4 5 6 
#
# 1 0.016722 -0.003502 -0.004533 0.000000 -0.004116 0.000000
# 2 -0.003502 0.012918 -0.000814 0.000000 -0.001068 0.000000
# 3 -0.004533 -0.000814 0.006090 0.000000 0.000647 0.000000
# 4 0.000000 0.000000 0.000000 0.028195 0.000000 -0.011143
# 5 -0.004116 -0.001068 0.000647 0.000000 0.023244 0.000000
# 6 0.000000 0.000000 0.000000 -0.011143 0.000000 0.070407
#
#
# Mechanical properties :
#
#
# Convention : Reuss Voigt Hill
#
# Bulk Modulus (GPa) = 55.45223 72.72980 64.09101
# Shear Modulus (GPa) = 27.58107 37.40150 32.49129
#
# Velocity S-wave (km/s) = 3.20549 3.73279 3.47915
# Velocity P-wave (km/s) = 5.86163 6.75822 6.32583
#
# Compressibility (1/GPa) = 0.01803354
#
# Stress axis : x y z
#
# Youngs Moduli (GPa) = 59.80053 77.41200 164.21159
#
# Poissons Ratio (x) = 0.27108 0.74433
# Poissons Ratio (y) = 0.20941 0.13361
# Poissons Ratio (z) = 0.27106 0.06299
#
# Static dielectric constant tensor:
#      x y z
#    x 2.142160 0.000000 0.026410 
#    y 0.000000 2.072880 0.000000 
#    z 0.026410 0.000000 2.209080 
# 
# From -- ./inp_files/8876.got.cif
#   From: 2010.05.17/outbox.cif.g08.bks.cpg/sg15_5_cif.got.tgz:8876.got - 2010.06.03 18:47:42.
