data_PCOD9287399
_publ_section_title
;
Structure prediction by ZEFSAII (Michael W. Deem and Ramdas Pophale) SiO2 
 PCOD9287399
Probable space group: C 2/C
;
_chemical_formula_sum "Si O2"
_cell_formula_units_Z 48
_cell_length_a 5.009805
_cell_length_b 21.418841
_cell_length_c 22.670295
_cell_angle_alpha 90.000000
_cell_angle_beta 81.366311
_cell_angle_gamma 90.000000
_cell_volume 2405.052513
_symmetry_space_group_name_H-M "C 2/C"
_symmetry_group_IT_number 15
_symmetry_cell_setting 'monoclinic'
loop_
_space_group_symop_operation_xyz
x,y,z
-x,y,1/2-z
-x,-y,-z
x,-y,1/2+z
1/2+x,1/2+y,z
1/2-x,1/2+y,1/2-z
1/2-x,1/2-y,-z
1/2+x,1/2-y,1/2+z
loop_
_atom_site_type_symbol
_atom_site_label
_atom_site_fract_x
_atom_site_fract_y
_atom_site_fract_z
Si Si1 0.599654 0.377442 0.112428
Si Si2 0.899423 0.752489 0.319738
Si Si3 0.115891 0.184843 0.490965
Si Si4 0.425843 0.083266 0.058692
Si Si5 0.644115 0.313238 0.620352
Si Si6 0.345148 0.948079 0.428472
O O1 0.611656 0.326110 0.163395
O O2 0.384375 0.433265 0.112229
O O3 0.895847 0.405640 0.094736
O O4 0.513585 0.339596 0.056621
O O5 0.112784 0.722084 0.357088
O O6 0.000000 0.744981 0.250000
O O7 0.622594 0.714601 0.340175
O O8 0.250000 0.250000 0.500000
O O9 0.337205 0.134312 0.460907
O O10 0.898424 0.197989 0.447833
O O11 0.223110 0.113462 0.113329
O O12 0.564085 0.019790 0.075074
O O13 0.282962 0.066994 0.000246
#
# Coordination Sequence:
#
# PCOD9287399 Si02
#       6
#     8   8   8   8   8   8
#     4  11  22  38  61  89 126 162 208 249 312 374
#     4  12  27  43  63  90 120 164 217 269 318 359
#     4  11  21  35  62  98 131 159 199 247 325 379
#     4  10  22  36  59  95 138 159 202 237 317 385
#     4  12  22  40  65  91 127 165 200 263 317 383
#     4  10  23  35  60  93 130 169 192 249 303 385
#
# _framework density 19.957985000000001
#
# number of rings (size 3 to 8) (size 9 to 14) (size 15 to 20)
#    0.000    1.000    5.000    1.500    4.667    3.333 
#    0.000    0.000    0.000    4.000    0.000    0.000 
#    0.000    0.000    0.000    0.000    0.000    0.000 
#
# Total GULP energy -133958.611120 kJ/mol
# GULP energy per Si atom -5581.608797 kJ/mol
# Density = 1.991256 g / cm^3
# Si number density = 19.957985 Si / 1000 Ang^3
#
#
#
# Elastic Constant Matrix: (Units=GPa)
#
#
# Indices 1 2 3 4 5 6 
#
# 1 64.6586 10.6799 2.7368 0.0000 -15.5667 0.0000
# 2 10.6799 106.9858 33.7419 0.0000 -13.4132 0.0000
# 3 2.7368 33.7419 54.4708 0.0000 -13.4702 0.0000
# 4 0.0000 0.0000 0.0000 14.3899 0.0000 2.0546
# 5 -15.5667 -13.4132 -13.4702 0.0000 18.8799 0.0000
# 6 0.0000 0.0000 0.0000 2.0546 0.0000 30.5751
#
#
#
# Elastic Compliance Matrix: (Units=1/GPa)
#
#
# Indices 1 2 3 4 5 6 
#
# 1 0.019976 -0.000977 0.004253 0.000000 0.018811 0.000000
# 2 -0.000977 0.011892 -0.006590 0.000000 0.002941 0.000000
# 3 0.004253 -0.006590 0.026636 0.000000 0.017829 0.000000
# 4 0.000000 0.000000 0.000000 0.070166 0.000000 -0.004715
# 5 0.018811 0.002941 0.017829 0.000000 0.083286 0.000000
# 6 0.000000 0.000000 0.000000 -0.004715 0.000000 0.033023
#
#
# Mechanical properties :
#
#
# Convention : Reuss Voigt Hill
#
# Bulk Modulus (GPa) = 19.27671 35.60360 27.44015
# Shear Modulus (GPa) = 18.59440 24.69942 21.64691
#
# Velocity S-wave (km/s) = 3.05565 3.52173 3.29694
# Velocity P-wave (km/s) = 4.70414 5.86641 5.31713
#
# Compressibility (1/GPa) = 0.05187608
#
# Stress axis : x y z
#
# Youngs Moduli (GPa) = 50.06018 84.09238 37.54344
#
# Poissons Ratio (x) = 0.08217 -0.15969
# Poissons Ratio (y) = 0.04892 0.24741
# Poissons Ratio (z) = -0.21293 0.55416
#
# Static dielectric constant tensor:
#      x y z
#    x 1.790570 0.000000 -0.020840 
#    y 0.000000 1.779810 0.000000 
#    z -0.020840 0.000000 1.691750 
# 
# From -- ./inp_files/260675.got.cif
#   From: 2010.05.17/outbox.cif.g08.bks.cpg/sg15_131_cif.got.tgz:260675.got - 2010.06.03 18:47:42.
