data_PCOD9287681
_publ_section_title
;
Structure prediction by ZEFSAII (Michael W. Deem and Ramdas Pophale) SiO2 
 PCOD9287681
Probable space group: C 2/C
;
_chemical_formula_sum "Si O2"
_cell_formula_units_Z 48
_cell_length_a 21.710623
_cell_length_b 18.091391
_cell_length_c 8.985121
_cell_angle_alpha 90.000000
_cell_angle_beta 142.043198
_cell_angle_gamma 90.000000
_cell_volume 2170.654640
_symmetry_space_group_name_H-M "C 2/C"
_symmetry_group_IT_number 15
_symmetry_cell_setting 'monoclinic'
loop_
_space_group_symop_operation_xyz
x,y,z
-x,y,1/2-z
-x,-y,-z
x,-y,1/2+z
1/2+x,1/2+y,z
1/2-x,1/2+y,1/2-z
1/2-x,1/2-y,-z
1/2+x,1/2-y,1/2+z
loop_
_atom_site_type_symbol
_atom_site_label
_atom_site_fract_x
_atom_site_fract_y
_atom_site_fract_z
Si Si1 0.803111 0.827988 0.429255
Si Si2 0.589353 0.048040 0.105132
Si Si3 0.893157 0.742606 0.092915
Si Si4 0.384044 0.799477 0.915114
Si Si5 0.805518 0.131866 0.275806
Si Si6 0.265618 0.028631 0.850121
O O1 0.887512 0.771385 0.530125
O O2 0.804718 0.834606 0.609055
O O3 0.801766 0.908866 0.353980
O O4 0.696529 0.796246 0.167968
O O5 0.545955 0.129183 0.980240
O O6 0.677566 0.058346 0.395705
O O7 0.643355 0.999907 0.080840
O O8 0.500000 0.000000 0.000000
O O9 0.871874 0.734184 0.227067
O O10 0.000000 0.709886 0.250000
O O11 0.890165 0.827430 0.032013
O O12 0.292239 0.843903 0.816378
O O13 0.800479 0.044233 0.248239
#
# Coordination Sequence:
#
# PCOD9287681 Si02
#       6
#     8   8   8   8   8   8
#     4  11  21  40  64  91 122 165 220 256 310 384
#     4  11  23  37  55  94 132 161 200 256 328 382
#     4  11  23  37  62  91 125 159 208 263 316 363
#     4  10  22  37  63  88 124 169 209 252 311 383
#     4  10  22  41  60  91 126 168 217 256 309 384
#     4  11  22  36  63  89 121 166 208 258 311 377
#
# _framework density 22.113144999999999
#
# number of rings (size 3 to 8) (size 9 to 14) (size 15 to 20)
#    0.000    1.333    3.333    4.500    4.667    0.000 
#    0.000    6.667    0.000    4.000    0.000    0.000 
#    0.000    0.000    0.000    0.000    0.000    0.000 
#
# Total GULP energy -133885.657930 kJ/mol
# GULP energy per Si atom -5578.569080 kJ/mol
# Density = 2.206281 g / cm^3
# Si number density = 22.113145 Si / 1000 Ang^3
#
#
#
# Elastic Constant Matrix: (Units=GPa)
#
#
# Indices 1 2 3 4 5 6 
#
# 1 104.7701 52.1349 35.8732 0.0000 -28.5995 0.0000
# 2 52.1349 166.9281 35.1174 0.0000 -16.1317 0.0000
# 3 35.8732 35.1174 52.8293 0.0000 -21.3736 0.0000
# 4 0.0000 0.0000 0.0000 18.7264 0.0000 -6.6602
# 5 -28.5995 -16.1317 -21.3736 0.0000 46.6819 0.0000
# 6 0.0000 0.0000 0.0000 -6.6602 0.0000 36.4566
#
#
#
# Elastic Compliance Matrix: (Units=1/GPa)
#
#
# Indices 1 2 3 4 5 6 
#
# 1 0.014307 -0.002750 -0.005800 0.000000 0.005160 0.000000
# 2 -0.002750 0.007498 -0.003375 0.000000 -0.000639 0.000000
# 3 -0.005800 -0.003375 0.028476 0.000000 0.008318 0.000000
# 4 0.000000 0.000000 0.000000 0.057111 0.000000 0.010434
# 5 0.005160 -0.000639 0.008318 0.000000 0.028170 0.000000
# 6 0.000000 0.000000 0.000000 0.010434 0.000000 0.029336
#
#
# Mechanical properties :
#
#
# Convention : Reuss Voigt Hill
#
# Bulk Modulus (GPa) = 37.83375 63.41984 50.62680
# Shear Modulus (GPa) = 25.30880 33.79978 29.55429
#
# Velocity S-wave (km/s) = 3.38674 3.91384 3.65979
# Velocity P-wave (km/s) = 5.69558 7.01185 6.38771
#
# Compressibility (1/GPa) = 0.02643143
#
# Stress axis : x y z
#
# Youngs Moduli (GPa) = 69.89430 133.37394 35.11671
#
# Poissons Ratio (x) = 0.36674 0.20368
# Poissons Ratio (y) = 0.19219 0.11853
# Poissons Ratio (z) = 0.40539 0.45019
#
# Static dielectric constant tensor:
#      x y z
#    x 1.833560 0.000000 0.020980 
#    y 0.000000 1.931840 0.000000 
#    z 0.020980 0.000000 1.858650 
# 
# From -- ./inp_files/56767.got.cif
#   From: 2010.05.17/outbox.cif.g08.bks.cpg/sg15_29_cif.got.tgz:56767.got - 2010.06.03 18:47:42.
