data_PCOD9287332
_publ_section_title
;
Structure prediction by ZEFSAII (Michael W. Deem and Ramdas Pophale) SiO2 
 PCOD9287332
Probable space group: C 2/C
;
_chemical_formula_sum "Si O2"
_cell_formula_units_Z 52
_cell_length_a 24.230756
_cell_length_b 12.391041
_cell_length_c 9.206999
_cell_angle_alpha 90.000000
_cell_angle_beta 65.370543
_cell_angle_gamma 90.000000
_cell_volume 2512.853871
_symmetry_space_group_name_H-M "C 2/C"
_symmetry_group_IT_number 15
_symmetry_cell_setting 'monoclinic'
loop_
_space_group_symop_operation_xyz
x,y,z
-x,y,1/2-z
-x,-y,-z
x,-y,1/2+z
1/2+x,1/2+y,z
1/2-x,1/2+y,1/2-z
1/2-x,1/2-y,-z
1/2+x,1/2-y,1/2+z
loop_
_atom_site_type_symbol
_atom_site_label
_atom_site_fract_x
_atom_site_fract_y
_atom_site_fract_z
Si Si1 0.500000 0.806719 0.750000
Si Si2 0.347461 0.184794 0.891858
Si Si3 0.217842 0.901620 0.629406
Si Si4 0.678435 0.836456 0.522943
Si Si5 0.086608 0.433818 0.431627
Si Si6 0.300744 0.601220 0.018797
Si Si7 0.907792 0.324503 0.624363
O O1 0.544638 0.874154 0.595952
O O2 0.454720 0.758355 0.675451
O O3 0.318376 0.289482 0.848764
O O4 0.398052 0.123998 0.737929
O O5 0.286476 0.114322 0.992211
O O6 0.381196 0.219140 0.003807
O O7 0.220909 0.927688 0.796328
O O8 0.180415 0.991805 0.581037
O O9 0.651441 0.920462 0.439536
O O10 0.662124 0.712359 0.501678
O O11 0.748926 0.857776 0.464134
O O12 0.649104 0.852098 0.711647
O O13 0.065663 0.556417 0.438287
#
# Coordination Sequence:
#
# PCOD9287332 Si02
#       7
#     4   8   8   8   8   8   8
#     4  10  24  38  58  86 114 152 198 244 298 348
#     4  11  23  37  56  88 125 154 201 228 288 351
#     4  11  24  36  58  89 122 160 195 237 277 347
#     4  10  22  36  55  82 123 162 192 231 288 350
#     4  11  21  39  57  84 118 155 195 240 293 347
#     4  11  22  37  56  84 122 160 199 235 280 338
#     4  11  21  37  59  85 115 159 187 242 292 350
#
# _framework density 20.693603
#
# number of rings (size 3 to 8) (size 9 to 14) (size 15 to 20)
#    0.000    1.231    3.077    4.154    4.308    0.615 
#    0.000    0.000    0.000    0.000    0.000   17.231 
#    0.000    0.000    0.000    0.000    0.000    0.000 
#
# Total GULP energy -144782.468584 kJ/mol
# GULP energy per Si atom -5568.556484 kJ/mol
# Density = 2.064650 g / cm^3
# Si number density = 20.693603 Si / 1000 Ang^3
#
#
#
# Elastic Constant Matrix: (Units=GPa)
#
#
# Indices 1 2 3 4 5 6 
#
# 1 81.2766 1.0180 8.5112 0.0000 27.6225 0.0000
# 2 1.0180 54.6979 0.7726 0.0000 8.6112 0.0000
# 3 8.5112 0.7726 85.6985 0.0000 22.5360 0.0000
# 4 0.0000 0.0000 0.0000 22.5374 0.0000 7.5753
# 5 27.6225 8.6112 22.5360 0.0000 35.4768 0.0000
# 6 0.0000 0.0000 0.0000 7.5753 0.0000 2.3247
#
#
#
# Elastic Compliance Matrix: (Units=1/GPa)
#
#
# Indices 1 2 3 4 5 6 
#
# 1 0.017280 0.002075 0.002324 0.000000 -0.015434 0.000000
# 2 0.002075 0.019370 0.001537 0.000000 -0.007294 0.000000
# 3 0.002324 0.001537 0.014404 0.000000 -0.011333 0.000000
# 4 0.000000 0.000000 0.000000 -0.465553 0.000000 1.517072
# 5 -0.015434 -0.007294 -0.011333 0.000000 0.049174 0.000000
# 6 0.000000 0.000000 0.000000 1.517072 0.000000 -4.513439
#
#
# Mechanical properties :
#
#
# Convention : Reuss Voigt Hill
#
# Bulk Modulus (GPa) = 15.89132 26.91961 21.40547
# Shear Modulus (GPa) = -1.02677 26.15919 12.56621
#
# Velocity S-wave (km/s) = -0.70516 3.55930 2.46692
# Velocity P-wave (km/s) = 2.65198 5.47069 4.29892
#
# Compressibility (1/GPa) = 0.06292745
#
# Stress axis : x y z
#
# Youngs Moduli (GPa) = 57.87133 51.62555 69.42391
#
# Poissons Ratio (x) = -0.10714 -0.16133
# Poissons Ratio (y) = -0.12011 -0.10673
# Poissons Ratio (z) = -0.13448 -0.07937
#
# Static dielectric constant tensor:
#      x y z
#    x 1.855000 0.000000 -0.016450 
#    y 0.000000 1.852540 0.000000 
#    z -0.016450 0.000000 1.756260 
# 
# From -- ./inp_files/65067.got.cif
#   From: 2010.05.17/outbox.cif.g08.bks.cpg/sg15_33_cif.got.tgz:65067.got - 2010.06.03 18:47:42.
