data_PCOD9287435
_publ_section_title
;
Structure prediction by ZEFSAII (Michael W. Deem and Ramdas Pophale) SiO2 
 PCOD9287435
Probable space group: C 2/C
;
_chemical_formula_sum "Si O2"
_cell_formula_units_Z 48
_cell_length_a 5.208159
_cell_length_b 32.022190
_cell_length_c 14.092580
_cell_angle_alpha 90.000000
_cell_angle_beta 63.776799
_cell_angle_gamma 90.000000
_cell_volume 2108.417990
_symmetry_space_group_name_H-M "C 2/C"
_symmetry_group_IT_number 15
_symmetry_cell_setting 'monoclinic'
loop_
_space_group_symop_operation_xyz
x,y,z
-x,y,1/2-z
-x,-y,-z
x,-y,1/2+z
1/2+x,1/2+y,z
1/2-x,1/2+y,1/2-z
1/2-x,1/2-y,-z
1/2+x,1/2-y,1/2+z
loop_
_atom_site_type_symbol
_atom_site_label
_atom_site_fract_x
_atom_site_fract_y
_atom_site_fract_z
Si Si1 0.115017 0.113084 0.942570
Si Si2 0.687180 0.048189 0.351802
Si Si3 0.716080 0.975042 0.066158
Si Si4 0.275103 0.849392 0.143846
Si Si5 0.762434 0.860374 0.866378
Si Si6 0.509550 0.221677 0.993319
O O1 0.177698 0.066150 0.898292
O O2 0.420169 0.134549 0.871106
O O3 0.834965 0.130362 0.936919
O O4 0.093081 0.122064 0.059266
O O5 0.637931 0.042224 0.473919
O O6 0.608440 0.097221 0.350239
O O7 0.000000 0.044220 0.250000
O O8 0.503392 0.007532 0.351913
O O9 0.000000 0.000000 0.000000
O O10 0.000000 0.858508 0.250000
O O11 0.331019 0.800879 0.119674
O O12 0.603983 0.817409 0.923668
O O13 0.000000 0.849348 0.750000
O O14 0.250000 0.250000 0.000000
O O15 0.750000 0.250000 0.000000
#
# Coordination Sequence:
#
# PCOD9287435 Si02
#       6
#     8   8   8   8   8   8
#     4  10  23  41  66  96 134 172 224 270 321 388
#     4   9  20  40  60  90 127 171 223 268 323 388
#     4  10  22  36  61  89 130 173 213 274 322 370
#     4  11  24  45  67  94 130 177 217 268 331 396
#     4   9  20  42  69  94 130 172 218 268 339 399
#     4  11  24  42  67  98 129 164 214 275 334 404
#
# _framework density 22.765884
#
# number of rings (size 3 to 8) (size 9 to 14) (size 15 to 20)
#    0.000    2.000    0.000    2.500    9.333    2.667 
#    3.000    6.667    0.000    0.000    0.000    0.000 
#    0.000    0.000    0.000    0.000    0.000    0.000 
#
# Total GULP energy -133655.960010 kJ/mol
# GULP energy per Si atom -5568.998334 kJ/mol
# Density = 2.271407 g / cm^3
# Si number density = 22.765884 Si / 1000 Ang^3
#
#
#
# Elastic Constant Matrix: (Units=GPa)
#
#
# Indices 1 2 3 4 5 6 
#
# 1 85.7681 70.9345 12.0675 0.0000 -17.8190 0.0000
# 2 70.9345 196.8393 29.6256 0.0000 -22.4148 0.0000
# 3 12.0675 29.6256 110.1687 0.0000 -22.3857 0.0000
# 4 0.0000 0.0000 0.0000 17.9290 0.0000 -20.0876
# 5 -17.8190 -22.4148 -22.3857 0.0000 33.5944 0.0000
# 6 0.0000 0.0000 0.0000 -20.0876 0.0000 39.9921
#
#
#
# Elastic Compliance Matrix: (Units=1/GPa)
#
#
# Indices 1 2 3 4 5 6 
#
# 1 0.017567 -0.005772 0.000854 0.000000 0.006036 0.000000
# 2 -0.005772 0.007464 -0.001139 0.000000 0.001159 0.000000
# 3 0.000854 -0.001139 0.010672 0.000000 0.006805 0.000000
# 4 0.000000 0.000000 0.000000 0.127564 0.000000 0.064074
# 5 0.006036 0.001159 0.006805 0.000000 0.038276 0.000000
# 6 0.000000 0.000000 0.000000 0.064074 0.000000 0.057189
#
#
# Mechanical properties :
#
#
# Convention : Reuss Voigt Hill
#
# Bulk Modulus (GPa) = 42.39172 68.67017 55.53095
# Shear Modulus (GPa) = 17.93989 36.97965 27.45977
#
# Velocity S-wave (km/s) = 2.81021 4.03469 3.47678
# Velocity P-wave (km/s) = 5.40286 7.20653 6.36887
#
# Compressibility (1/GPa) = 0.02358951
#
# Stress axis : x y z
#
# Youngs Moduli (GPa) = 56.92603 133.98153 93.69940
#
# Poissons Ratio (x) = 0.77330 -0.08005
# Poissons Ratio (y) = 0.32856 0.10675
# Poissons Ratio (z) = -0.04863 0.15264
#
# Static dielectric constant tensor:
#      x y z
#    x 2.260270 0.000000 0.123940 
#    y 0.000000 1.798540 0.000000 
#    z 0.123940 0.000000 1.954740 
# 
# From -- ./inp_files/130601.got.cif
#   From: 2010.05.17/outbox.cif.g08.bks.cpg/sg15_66_cif.got.tgz:130601.got - 2010.06.03 18:47:42.
