data_PCOD9287242
_publ_section_title
;
Structure prediction by ZEFSAII (Michael W. Deem and Ramdas Pophale) SiO2 
 PCOD9287242
Probable space group: C 2/C
;
_chemical_formula_sum "Si O2"
_cell_formula_units_Z 48
_cell_length_a 22.740343
_cell_length_b 17.284162
_cell_length_c 17.645231
_cell_angle_alpha 90.000000
_cell_angle_beta 160.323044
_cell_angle_gamma 90.000000
_cell_volume 2335.270462
_symmetry_space_group_name_H-M "C 2/C"
_symmetry_group_IT_number 15
_symmetry_cell_setting 'monoclinic'
loop_
_space_group_symop_operation_xyz
x,y,z
-x,y,1/2-z
-x,-y,-z
x,-y,1/2+z
1/2+x,1/2+y,z
1/2-x,1/2+y,1/2-z
1/2-x,1/2-y,-z
1/2+x,1/2-y,1/2+z
loop_
_atom_site_type_symbol
_atom_site_label
_atom_site_fract_x
_atom_site_fract_y
_atom_site_fract_z
Si Si1 0.792153 0.118634 0.993600
Si Si2 0.106521 0.422888 0.113199
Si Si3 0.254950 0.223213 0.368348
Si Si4 0.364509 0.799067 0.738611
Si Si5 0.374474 0.674221 0.874373
Si Si6 0.000000 0.232310 0.750000
Si Si7 0.500000 0.882822 0.250000
O O1 0.708181 0.087832 0.815003
O O2 0.767769 0.211239 0.949003
O O3 0.674122 0.085427 0.919254
O O4 0.000000 0.104240 0.250000
O O5 0.000000 0.500000 0.000000
O O6 0.962681 0.360016 0.911058
O O7 0.265532 0.405310 0.246735
O O8 0.279181 0.267508 0.318323
O O9 0.413046 0.166265 0.576810
O O10 0.073562 0.176671 0.145317
O O11 0.368394 0.716665 0.786735
O O12 0.451492 0.785582 0.762756
O O13 0.164364 0.817657 0.476834
#
# Coordination Sequence:
#
# PCOD9287242 Si02
#       7
#     8   8   8   8   8   4   4
#     4  11  22  36  59  92 131 169 213 263 327 400
#     4  11  24  42  62  90 134 180 213 277 351 404
#     4  11  18  29  54  94 125 162 208 258 317 386
#     4  11  19  39  64  97 125 165 222 283 334 397
#     4  11  19  35  62  90 125 173 220 269 323 408
#     4  10  22  34  67 103 122 158 236 288 322 376
#     4  12  18  30  55  89 132 156 206 270 314 378
#
# _framework density 20.554365000000001
#
# number of rings (size 3 to 8) (size 9 to 14) (size 15 to 20)
#    0.000    1.000    7.500    2.500    0.000    0.000 
#    1.500    0.833    0.000   12.000    0.000    0.000 
#    0.000    0.000    0.000    0.000    0.000    0.000 
#
# Total GULP energy -133616.542856 kJ/mol
# GULP energy per Si atom -5567.355952 kJ/mol
# Density = 2.050758 g / cm^3
# Si number density = 20.554365 Si / 1000 Ang^3
#
#
#
# Elastic Constant Matrix: (Units=GPa)
#
#
# Indices 1 2 3 4 5 6 
#
# 1 123.4370 24.2695 38.5394 0.0025 3.8600 0.0008
# 2 24.2695 43.0627 44.7216 0.0047 1.0244 0.0033
# 3 38.5394 44.7216 210.6920 0.0054 17.8003 0.0038
# 4 0.0025 0.0047 0.0054 16.8059 0.0037 3.1976
# 5 3.8600 1.0244 17.8003 0.0037 42.4763 0.0018
# 6 0.0008 0.0033 0.0038 3.1976 0.0018 4.4597
#
#
#
# Elastic Compliance Matrix: (Units=1/GPa)
#
#
# Indices 1 2 3 4 5 6 
#
# 1 0.009209 -0.004449 -0.000703 0.000000 -0.000435 0.000003
# 2 -0.004449 0.032103 -0.006188 -0.000004 0.002223 -0.000016
# 3 -0.000703 -0.006188 0.006397 0.000000 -0.002468 0.000000
# 4 0.000000 -0.000004 0.000000 0.068903 -0.000004 -0.049404
# 5 -0.000435 0.002223 -0.002468 -0.000004 0.024562 -0.000007
# 6 0.000003 -0.000016 0.000000 -0.049404 -0.000007 0.259655
#
#
# Mechanical properties :
#
#
# Convention : Reuss Voigt Hill
#
# Bulk Modulus (GPa) = 39.95606 65.80585 52.88095
# Shear Modulus (GPa) = 11.57798 30.72580 21.15189
#
# Velocity S-wave (km/s) = 2.37594 3.87053 3.21139
# Velocity P-wave (km/s) = 5.19694 7.21524 6.28760
#
# Compressibility (1/GPa) = 0.02502750
#
# Stress axis : x y z
#
# Youngs Moduli (GPa) = 108.58559 31.14945 156.32530
#
# Poissons Ratio (x) = 0.13860 0.10996
# Poissons Ratio (y) = 0.48314 0.96738
# Poissons Ratio (z) = 0.07638 0.19276
#
# Static dielectric constant tensor:
#      x y z
#    x 1.820870 0.000000 0.042350 
#    y 0.000000 1.771010 0.000000 
#    z 0.042350 0.000000 1.783570 
# 
# From -- ./inp_files/220010.got.cif
#   From: 2010.05.17/outbox.cif.g08.bks.cpg/sg15_111_cif.got.tgz:220010.got - 2010.06.03 18:47:42.
