data_PCOD9287812
_publ_section_title
;
Structure prediction by ZEFSAII (Michael W. Deem and Ramdas Pophale) SiO2 
 PCOD9287812
Probable space group: C 2/C
;
_chemical_formula_sum "Si O2"
_cell_formula_units_Z 40
_cell_length_a 19.047707
_cell_length_b 5.346412
_cell_length_c 15.326066
_cell_angle_alpha 90.000000
_cell_angle_beta 106.271485
_cell_angle_gamma 90.000000
_cell_volume 1498.242464
_symmetry_space_group_name_H-M "C 2/C"
_symmetry_group_IT_number 15
_symmetry_cell_setting 'monoclinic'
loop_
_space_group_symop_operation_xyz
x,y,z
-x,y,1/2-z
-x,-y,-z
x,-y,1/2+z
1/2+x,1/2+y,z
1/2-x,1/2+y,1/2-z
1/2-x,1/2-y,-z
1/2+x,1/2-y,1/2+z
loop_
_atom_site_type_symbol
_atom_site_label
_atom_site_fract_x
_atom_site_fract_y
_atom_site_fract_z
Si Si1 0.437351 0.776006 0.900659
Si Si2 0.847443 0.263443 0.124110
Si Si3 0.708938 0.306250 0.716231
Si Si4 0.803481 0.473827 0.449950
Si Si5 0.995510 0.780137 0.888408
O O1 0.359676 0.850276 0.915142
O O2 0.441306 0.510775 0.854986
O O3 0.467999 0.004669 0.854904
O O4 0.491414 0.746492 0.002699
O O5 0.842409 0.300011 0.224981
O O6 0.778463 0.083839 0.077270
O O7 0.926292 0.161483 0.125793
O O8 0.833744 0.508695 0.058682
O O9 0.771349 0.088877 0.750743
O O10 0.691520 0.274495 0.607394
#
# Coordination Sequence:
#
# PCOD9287812 Si02
#       5
#     8   8   8   8   8
#     4   9  18  33  54  82 115 147 181 228 284 337
#     4   9  19  37  62  88 115 153 198 240 288 348
#     4  10  22  38  57  86 121 150 188 246 296 338
#     4   9  19  37  62  88 115 153 198 240 288 348
#     4   9  18  33  54  82 115 147 181 228 284 337
#
# _framework density 26.697949000000001
#
# number of rings (size 3 to 8) (size 9 to 14) (size 15 to 20)
#    0.000    2.800    0.000    0.000    0.000    7.200 
#    0.000   13.000    0.000    2.400    0.000    0.000 
#    0.000    0.000    0.000    0.000    0.000    0.000 
#
# Total GULP energy -111742.436866 kJ/mol
# GULP energy per Si atom -5587.121843 kJ/mol
# Density = 2.663718 g / cm^3
# Si number density = 26.697949 Si / 1000 Ang^3
#
#
#
# Elastic Constant Matrix: (Units=GPa)
#
#
# Indices 1 2 3 4 5 6 
#
# 1 135.5499 51.7712 -13.8265 0.0000 4.5366 0.0000
# 2 51.7712 120.0581 1.9864 0.0000 -1.7742 0.0000
# 3 -13.8265 1.9864 70.0794 0.0000 12.7758 0.0000
# 4 0.0000 0.0000 0.0000 16.5415 0.0000 2.3281
# 5 4.5366 -1.7742 12.7758 0.0000 14.1770 0.0000
# 6 0.0000 0.0000 0.0000 2.3281 0.0000 36.8328
#
#
#
# Elastic Compliance Matrix: (Units=1/GPa)
#
#
# Indices 1 2 3 4 5 6 
#
# 1 0.009547 -0.004265 0.003181 0.000000 -0.006456 0.000000
# 2 -0.004265 0.010265 -0.001933 0.000000 0.004391 0.000000
# 3 0.003181 -0.001933 0.018166 0.000000 -0.017631 0.000000
# 4 0.000000 0.000000 0.000000 0.060997 0.000000 -0.003855
# 5 -0.006456 0.004391 -0.017631 0.000000 0.089041 0.000000
# 6 0.000000 0.000000 0.000000 -0.003855 0.000000 0.027393
#
#
# Mechanical properties :
#
#
# Convention : Reuss Voigt Hill
#
# Bulk Modulus (GPa) = 31.30349 45.06107 38.18228
# Shear Modulus (GPa) = 21.54337 32.56068 27.05202
#
# Velocity S-wave (km/s) = 2.84373 3.49606 3.18663
# Velocity P-wave (km/s) = 4.74689 5.76293 5.27941
#
# Compressibility (1/GPa) = 0.03194532
#
# Stress axis : x y z
#
# Youngs Moduli (GPa) = 104.74729 97.41626 55.04746
#
# Poissons Ratio (x) = 0.41546 -0.17512
# Poissons Ratio (y) = 0.44672 0.10640
# Poissons Ratio (z) = -0.33324 0.18830
#
# Static dielectric constant tensor:
#      x y z
#    x 2.090370 0.000000 0.049400 
#    y 0.000000 2.130590 0.000000 
#    z 0.049400 0.000000 2.114650 
# 
# From -- ./inp_files/208112.got.cif
#   From: 2010.05.17/outbox.cif.g08.bks.cpg/sg15_105_cif.got.tgz:208112.got - 2010.06.03 18:47:42.
