data_PCOD9287178
_publ_section_title
;
Structure prediction by ZEFSAII (Michael W. Deem and Ramdas Pophale) SiO2 
 PCOD9287178
Probable space group: C 2/C
;
_chemical_formula_sum "Si O2"
_cell_formula_units_Z 52
_cell_length_a 11.626815
_cell_length_b 16.645231
_cell_length_c 13.891413
_cell_angle_alpha 90.000000
_cell_angle_beta 51.440299
_cell_angle_gamma 90.000000
_cell_volume 2102.233933
_symmetry_space_group_name_H-M "C 2/C"
_symmetry_group_IT_number 15
_symmetry_cell_setting 'monoclinic'
loop_
_space_group_symop_operation_xyz
x,y,z
-x,y,1/2-z
-x,-y,-z
x,-y,1/2+z
1/2+x,1/2+y,z
1/2-x,1/2+y,1/2-z
1/2-x,1/2-y,-z
1/2+x,1/2-y,1/2+z
loop_
_atom_site_type_symbol
_atom_site_label
_atom_site_fract_x
_atom_site_fract_y
_atom_site_fract_z
Si Si1 0.682307 0.044284 0.863023
Si Si2 0.294877 0.695526 0.890256
Si Si3 0.472917 0.586673 0.465312
Si Si4 0.291412 0.897584 0.535581
Si Si5 0.175580 0.638015 0.691441
Si Si6 0.221564 0.202720 0.257633
Si Si7 0.000000 0.065708 0.750000
O O1 0.671647 0.132281 0.917024
O O2 0.642675 0.059461 0.773194
O O3 0.631219 0.975693 0.961412
O O4 0.916403 0.131024 0.860791
O O5 0.324601 0.755240 0.784608
O O6 0.250000 0.750000 0.000000
O O7 0.500000 0.500000 0.500000
O O8 0.355252 0.636713 0.590810
O O9 0.616526 0.638078 0.364782
O O10 0.638500 0.473170 0.230595
O O11 0.366537 0.867979 0.398167
O O12 0.287346 0.837804 0.627552
O O13 0.128172 0.920727 0.579554
O O14 0.133188 0.721834 0.760404
#
# Coordination Sequence:
#
# PCOD9287178 Si02
#       7
#     8   8   8   8   8   8   4
#     4   9  19  33  53  81 114 141 185 239 289 336
#     4   9  21  31  54  79 112 153 182 241 289 348
#     4  10  23  33  60  88 120 153 192 245 297 343
#     4  10  22  33  57  80 121 154 183 242 299 345
#     4   9  22  35  50  85 121 155 186 239 292 346
#     4  11  21  35  51  85 124 152 196 228 299 362
#     4   8  20  34  52  76 124 128 192 238 294 324
#
# _framework density 24.735593000000001
#
# number of rings (size 3 to 8) (size 9 to 14) (size 15 to 20)
#    1.846    0.615    0.000    1.846    8.615    0.000 
#    0.000    0.000    0.000    0.000    0.000   19.385 
#    0.000    0.000    0.000    0.000    0.000    0.000 
#
# Total GULP energy -144795.794131 kJ/mol
# GULP energy per Si atom -5569.069005 kJ/mol
# Density = 2.467929 g / cm^3
# Si number density = 24.735593 Si / 1000 Ang^3
#
#
#
# Elastic Constant Matrix: (Units=GPa)
#
#
# Indices 1 2 3 4 5 6 
#
# 1 76.8390 9.0497 10.3643 0.0000 8.1423 0.0000
# 2 9.0497 126.3301 42.7601 0.0000 24.0867 0.0000
# 3 10.3643 42.7601 97.3805 0.0000 49.3158 0.0000
# 4 0.0000 0.0000 0.0000 37.4544 0.0000 4.3131
# 5 8.1423 24.0867 49.3158 0.0000 35.9280 0.0000
# 6 0.0000 0.0000 0.0000 4.3131 0.0000 23.2715
#
#
#
# Elastic Compliance Matrix: (Units=1/GPa)
#
#
# Indices 1 2 3 4 5 6 
#
# 1 0.013363 -0.000482 0.000523 0.000000 -0.003423 0.000000
# 2 -0.000482 0.009362 -0.003071 0.000000 -0.001951 0.000000
# 3 0.000523 -0.003071 0.034701 0.000000 -0.045691 0.000000
# 4 0.000000 0.000000 0.000000 0.027281 0.000000 -0.005056
# 5 -0.003423 -0.001951 -0.045691 0.000000 0.092635 0.000000
# 6 0.000000 0.000000 0.000000 -0.005056 0.000000 0.043908
#
#
# Mechanical properties :
#
#
# Convention : Reuss Voigt Hill
#
# Bulk Modulus (GPa) = 19.46809 47.21084 33.33946
# Shear Modulus (GPa) = 20.45556 35.22249 27.83903
#
# Velocity S-wave (km/s) = 2.87883 3.77763 3.35843
# Velocity P-wave (km/s) = 4.35175 6.17697 5.34288
#
# Compressibility (1/GPa) = 0.05136612
#
# Stress axis : x y z
#
# Youngs Moduli (GPa) = 74.83253 106.81569 28.81754
#
# Poissons Ratio (x) = 0.05144 -0.01507
# Poissons Ratio (y) = 0.03603 0.08851
# Poissons Ratio (z) = -0.03913 0.32807
#
# Static dielectric constant tensor:
#      x y z
#    x 2.087810 0.000000 -0.065280 
#    y 0.000000 1.948740 0.000000 
#    z -0.065280 0.000000 2.077570 
# 
# From -- ./inp_files/161849.got.cif
#   From: 2010.05.17/outbox.cif.g08.bks.cpg/sg15_81_cif.got.tgz:161849.got - 2010.06.03 18:47:42.
