data_PCOD9287644
_publ_section_title
;
Structure prediction by ZEFSAII (Michael W. Deem and Ramdas Pophale) SiO2 
 PCOD9287644
Probable space group: C 2/C
;
_chemical_formula_sum "Si O2"
_cell_formula_units_Z 40
_cell_length_a 14.846832
_cell_length_b 9.416743
_cell_length_c 12.479656
_cell_angle_alpha 90.000000
_cell_angle_beta 99.982007
_cell_angle_gamma 90.000000
_cell_volume 1718.353895
_symmetry_space_group_name_H-M "C 2/C"
_symmetry_group_IT_number 15
_symmetry_cell_setting 'monoclinic'
loop_
_space_group_symop_operation_xyz
x,y,z
-x,y,1/2-z
-x,-y,-z
x,-y,1/2+z
1/2+x,1/2+y,z
1/2-x,1/2+y,1/2-z
1/2-x,1/2-y,-z
1/2+x,1/2-y,1/2+z
loop_
_atom_site_type_symbol
_atom_site_label
_atom_site_fract_x
_atom_site_fract_y
_atom_site_fract_z
Si Si1 0.714855 0.513184 0.972229
Si Si2 0.108602 0.724740 0.701339
Si Si3 0.192878 0.707326 0.345104
Si Si4 0.560635 0.710894 0.434359
Si Si5 0.384805 0.086753 0.372448
O O1 0.671859 0.657679 0.914657
O O2 0.633360 0.407879 0.984799
O O3 0.782716 0.438445 0.900882
O O4 0.782235 0.569098 0.079431
O O5 0.211990 0.752252 0.691712
O O6 0.096491 0.734802 0.825789
O O7 0.081996 0.569037 0.653344
O O8 0.042029 0.831184 0.622119
O O9 0.121644 0.674458 0.238391
O O10 0.560526 0.828203 0.526869
#
# Coordination Sequence:
#
# PCOD9287644 Si02
#       5
#     8   8   8   8   8
#     4  10  22  37  61  91 121 160 216 252 308 370
#     4  10  23  39  58  92 127 161 206 261 311 370
#     4  10  22  39  60  91 124 161 209 267 296 371
#     4  11  22  38  62  89 124 166 207 254 315 378
#     4  11  21  37  65  86 121 167 212 250 311 372
#
# _framework density 23.278092000000001
#
# number of rings (size 3 to 8) (size 9 to 14) (size 15 to 20)
#    0.000    1.600    2.000    2.400    5.600    0.800 
#    0.000    2.000    0.000    0.000    0.000    0.000 
#    0.000    0.000    0.000    0.000    0.000    0.000 
#
# Total GULP energy -111832.411985 kJ/mol
# GULP energy per Si atom -5591.620599 kJ/mol
# Density = 2.322511 g / cm^3
# Si number density = 23.278092 Si / 1000 Ang^3
#
#
#
# Elastic Constant Matrix: (Units=GPa)
#
#
# Indices 1 2 3 4 5 6 
#
# 1 17.9767 4.7319 -2.3055 0.0000 2.9142 0.0000
# 2 4.7319 49.1979 38.9360 0.0000 9.5700 0.0000
# 3 -2.3055 38.9360 137.9846 0.0000 15.7122 0.0000
# 4 0.0000 0.0000 0.0000 32.7503 0.0000 -5.3724
# 5 2.9142 9.5700 15.7122 0.0000 29.4241 0.0000
# 6 0.0000 0.0000 0.0000 -5.3724 0.0000 11.7601
#
#
#
# Elastic Compliance Matrix: (Units=1/GPa)
#
#
# Indices 1 2 3 4 5 6 
#
# 1 0.058974 -0.007585 0.003737 0.000000 -0.005369 0.000000
# 2 -0.007585 0.027817 -0.007487 0.000000 -0.004298 0.000000
# 3 0.003737 -0.007487 0.009782 0.000000 -0.003159 0.000000
# 4 0.000000 0.000000 0.000000 0.033008 0.000000 0.015079
# 5 -0.005369 -0.004298 -0.003159 0.000000 0.037602 0.000000
# 6 0.000000 0.000000 0.000000 0.015079 0.000000 0.091921
#
#
# Mechanical properties :
#
#
# Convention : Reuss Voigt Hill
#
# Bulk Modulus (GPa) = 13.53127 31.98710 22.75918
# Shear Modulus (GPa) = 16.31816 25.70671 21.01244
#
# Velocity S-wave (km/s) = 2.65053 3.32675 3.00771
# Velocity P-wave (km/s) = 3.89777 5.34111 4.67547
#
# Compressibility (1/GPa) = 0.07390291
#
# Stress axis : x y z
#
# Youngs Moduli (GPa) = 16.95667 35.94968 102.23052
#
# Poissons Ratio (x) = 0.27269 -0.38206
# Poissons Ratio (y) = 0.12862 0.76535
# Poissons Ratio (z) = -0.06337 0.26914
#
# Static dielectric constant tensor:
#      x y z
#    x 1.878300 0.000000 -0.017260 
#    y 0.000000 1.883410 0.000000 
#    z -0.017260 0.000000 1.850500 
# 
# From -- ./inp_files/102667.got.cif
#   From: 2010.05.17/outbox.cif.g08.bks.cpg/sg15_52_cif.got.tgz:102667.got - 2010.06.03 18:47:42.
