data_PCOD9287320
_publ_section_title
;
Structure prediction by ZEFSAII (Michael W. Deem and Ramdas Pophale) SiO2 
 PCOD9287320
Probable space group: C 2/C
;
_chemical_formula_sum "Si O2"
_cell_formula_units_Z 48
_cell_length_a 15.468381
_cell_length_b 25.570886
_cell_length_c 5.416476
_cell_angle_alpha 90.000000
_cell_angle_beta 103.797956
_cell_angle_gamma 90.000000
_cell_volume 2080.609368
_symmetry_space_group_name_H-M "C 2/C"
_symmetry_group_IT_number 15
_symmetry_cell_setting 'monoclinic'
loop_
_space_group_symop_operation_xyz
x,y,z
-x,y,1/2-z
-x,-y,-z
x,-y,1/2+z
1/2+x,1/2+y,z
1/2-x,1/2+y,1/2-z
1/2-x,1/2-y,-z
1/2+x,1/2-y,1/2+z
loop_
_atom_site_type_symbol
_atom_site_label
_atom_site_fract_x
_atom_site_fract_y
_atom_site_fract_z
Si Si1 0.091014 0.840479 0.958446
Si Si2 0.909542 0.723491 0.525597
Si Si3 0.778434 0.482776 0.867901
Si Si4 0.212891 0.878794 0.678955
Si Si5 0.400813 0.445636 0.216261
Si Si6 0.812085 0.701018 0.969786
O O1 0.088691 0.783469 0.078287
O O2 0.173766 0.835974 0.830132
O O3 0.000000 0.841643 0.750000
O O4 0.095510 0.896440 0.095536
O O5 0.883480 0.695069 0.248778
O O6 0.000000 0.715392 0.750000
O O7 0.842781 0.710170 0.708813
O O8 0.823377 0.498030 0.644381
O O9 0.771790 0.420591 0.861012
O O10 0.681772 0.514903 0.788546
O O11 0.128971 0.914755 0.547448
O O12 0.255356 0.852245 0.469266
O O13 0.500000 0.468764 0.250000
O O14 0.750000 0.750000 0.000000
#
# Coordination Sequence:
#
# PCOD9287320 Si02
#       6
#     8   8   8   8   8   8
#     4  11  21  35  55  82 117 165 208 246 296 351
#     4  11  26  43  65  88 125 163 211 258 312 377
#     4  10  22  36  53  77 116 160 203 246 286 347
#     4  11  23  36  55  83 118 157 209 251 295 351
#     4  11  22  35  55  81 125 172 212 243 289 358
#     4  12  24  41  64  93 122 160 206 262 319 364
#
# _framework density 23.070163000000001
#
# number of rings (size 3 to 8) (size 9 to 14) (size 15 to 20)
#    0.000    1.000    5.000    2.000    2.333    3.333 
#    0.000    0.000    0.000    0.000    0.000    0.000 
#    0.000   53.333    0.000    0.000    0.000    0.000 
#
# Total GULP energy -133665.799945 kJ/mol
# GULP energy per Si atom -5569.408331 kJ/mol
# Density = 2.301765 g / cm^3
# Si number density = 23.070163 Si / 1000 Ang^3
#
#
#
# Elastic Constant Matrix: (Units=GPa)
#
#
# Indices 1 2 3 4 5 6 
#
# 1 40.5731 18.0302 14.9525 0.0000 -1.3734 0.0000
# 2 18.0302 66.0460 9.3459 0.0000 -2.0757 0.0000
# 3 14.9525 9.3459 116.1441 0.0000 2.7007 0.0000
# 4 0.0000 0.0000 0.0000 46.4313 0.0000 -1.7969
# 5 -1.3734 -2.0757 2.7007 0.0000 20.1987 0.0000
# 6 0.0000 0.0000 0.0000 -1.7969 0.0000 22.0361
#
#
#
# Elastic Compliance Matrix: (Units=1/GPa)
#
#
# Indices 1 2 3 4 5 6 
#
# 1 0.029199 -0.007467 -0.003196 0.000000 0.001645 0.000000
# 2 -0.007467 0.017286 -0.000461 0.000000 0.001330 0.000000
# 3 -0.003196 -0.000461 0.009093 0.000000 -0.001480 0.000000
# 4 0.000000 0.000000 0.000000 0.021605 0.000000 0.001762
# 5 0.001645 0.001330 -0.001480 0.000000 0.049955 0.000000
# 6 0.000000 0.000000 0.000000 0.001762 0.000000 0.045524
#
#
# Mechanical properties :
#
#
# Convention : Reuss Voigt Hill
#
# Bulk Modulus (GPa) = 30.00310 34.15781 32.08046
# Shear Modulus (GPa) = 24.26944 29.76218 27.01581
#
# Velocity S-wave (km/s) = 3.24695 3.59565 3.42574
# Velocity P-wave (km/s) = 5.20483 5.66361 5.43906
#
# Compressibility (1/GPa) = 0.03332989
#
# Stress axis : x y z
#
# Youngs Moduli (GPa) = 34.24796 57.84886 109.97465
#
# Poissons Ratio (x) = 0.43196 0.35153
# Poissons Ratio (y) = 0.25573 0.05066
# Poissons Ratio (z) = 0.10947 0.02665
#
# Static dielectric constant tensor:
#      x y z
#    x 1.949230 0.000000 0.011300 
#    y 0.000000 1.939680 0.000000 
#    z 0.011300 0.000000 2.012720 
# 
# From -- ./inp_files/8257.got.cif
#   From: 2010.05.17/outbox.cif.g08.bks.cpg/sg15_5_cif.got.tgz:8257.got - 2010.06.03 18:47:42.
