data_PCOD9287005
_publ_section_title
;
Structure prediction by ZEFSAII (Michael W. Deem and Ramdas Pophale) SiO2 
 PCOD9287005
Probable space group: C 2/C
;
_chemical_formula_sum "Si O2"
_cell_formula_units_Z 48
_cell_length_a 12.547079
_cell_length_b 14.019515
_cell_length_c 17.341643
_cell_angle_alpha 90.000000
_cell_angle_beta 134.557987
_cell_angle_gamma 90.000000
_cell_volume 2173.579609
_symmetry_space_group_name_H-M "C 2/C"
_symmetry_group_IT_number 15
_symmetry_cell_setting 'monoclinic'
loop_
_space_group_symop_operation_xyz
x,y,z
-x,y,1/2-z
-x,-y,-z
x,-y,1/2+z
1/2+x,1/2+y,z
1/2-x,1/2+y,1/2-z
1/2-x,1/2-y,-z
1/2+x,1/2-y,1/2+z
loop_
_atom_site_type_symbol
_atom_site_label
_atom_site_fract_x
_atom_site_fract_y
_atom_site_fract_z
Si Si1 0.300305 0.428431 0.236174
Si Si2 0.885860 0.577123 0.256018
Si Si3 0.351767 0.513772 0.599663
Si Si4 0.657425 0.292447 0.877426
Si Si5 0.609629 0.243569 0.136522
Si Si6 0.700046 0.329413 0.537175
O O1 0.211049 0.497219 0.249240
O O2 0.476231 0.452596 0.318465
O O3 0.258636 0.447491 0.126107
O O4 0.300713 0.320322 0.265444
O O5 0.953950 0.649433 0.353562
O O6 0.789700 0.655529 0.160168
O O7 0.000000 0.537020 0.250000
O O8 0.364778 0.401395 0.609144
O O9 0.284689 0.565654 0.492230
O O10 0.500000 0.261567 0.750000
O O11 0.778683 0.289629 0.871790
O O12 0.750000 0.250000 0.000000
O O13 0.470575 0.302431 0.032100
O O14 0.750000 0.250000 0.500000
#
# Coordination Sequence:
#
# PCOD9287005 Si02
#       6
#     8   8   8   8   8   8
#     4  10  22  42  70  94 137 186 242 286 365 446
#     4  12  24  43  65 100 145 176 236 310 363 431
#     4  10  21  45  71  97 138 192 238 293 368 450
#     4  12  27  49  74 108 148 194 249 306 372 445
#     4  11  25  43  72 100 137 194 235 303 365 439
#     4  11  24  42  69 103 134 184 245 299 358 442
#
# _framework density 22.083386999999998
#
# number of rings (size 3 to 8) (size 9 to 14) (size 15 to 20)
#    0.000    1.000    5.000    1.000    9.333    2.000 
#    0.000    1.667    0.000    0.000    0.000    0.000 
#    0.000    0.000    0.000    0.000    0.000    0.000 
#
# Total GULP energy -133621.796807 kJ/mol
# GULP energy per Si atom -5567.574867 kJ/mol
# Density = 2.203312 g / cm^3
# Si number density = 22.083387 Si / 1000 Ang^3
#
#
#
# Elastic Constant Matrix: (Units=GPa)
#
#
# Indices 1 2 3 4 5 6 
#
# 1 127.6956 18.8381 25.8283 0.0000 -16.7395 0.0000
# 2 18.8381 74.7624 10.5782 0.0000 -16.3664 0.0000
# 3 25.8283 10.5782 77.3998 0.0000 8.1104 0.0000
# 4 0.0000 0.0000 0.0000 30.0679 0.0000 -5.5629
# 5 -16.7395 -16.3664 8.1104 0.0000 22.0493 0.0000
# 6 0.0000 0.0000 0.0000 -5.5629 0.0000 21.3752
#
#
#
# Elastic Compliance Matrix: (Units=1/GPa)
#
#
# Indices 1 2 3 4 5 6 
#
# 1 0.009878 0.000121 -0.004273 0.000000 0.009161 0.000000
# 2 0.000121 0.016976 -0.003838 0.000000 0.014104 0.000000
# 3 -0.004273 -0.003838 0.016131 0.000000 -0.012026 0.000000
# 4 0.000000 0.000000 0.000000 0.034940 0.000000 0.009093
# 5 0.009161 0.014104 -0.012026 0.000000 0.067201 0.000000
# 6 0.000000 0.000000 0.000000 0.009093 0.000000 0.049150
#
#
# Mechanical properties :
#
#
# Convention : Reuss Voigt Hill
#
# Bulk Modulus (GPa) = 37.03119 43.37189 40.20154
# Shear Modulus (GPa) = 22.80418 29.67269 26.23843
#
# Velocity S-wave (km/s) = 3.21696 3.66958 3.45070
# Velocity P-wave (km/s) = 5.53205 6.13491 5.84126
#
# Compressibility (1/GPa) = 0.02700426
#
# Stress axis : x y z
#
# Youngs Moduli (GPa) = 101.23041 58.90684 61.99395
#
# Poissons Ratio (x) = -0.00713 0.26490
# Poissons Ratio (y) = -0.01224 0.23796
# Poissons Ratio (z) = 0.43255 0.22611
#
# Static dielectric constant tensor:
#      x y z
#    x 1.783660 0.000000 0.021690 
#    y 0.000000 1.789760 0.000000 
#    z 0.021690 0.000000 1.449310 
# 
# From -- ./inp_files/144398.got.cif
#   From: 2010.05.17/outbox.cif.g08.bks.cpg/sg15_73_cif.got.tgz:144398.got - 2010.06.03 18:47:42.
