data_PCOD9287777
_publ_section_title
;
Structure prediction by ZEFSAII (Michael W. Deem and Ramdas Pophale) SiO2 
 PCOD9287777
Probable space group: C 2/C
;
_chemical_formula_sum "Si O2"
_cell_formula_units_Z 56
_cell_length_a 16.509967
_cell_length_b 26.479265
_cell_length_c 18.812263
_cell_angle_alpha 90.000000
_cell_angle_beta 156.963068
_cell_angle_gamma 90.000000
_cell_volume 3218.326422
_symmetry_space_group_name_H-M "C 2/C"
_symmetry_group_IT_number 15
_symmetry_cell_setting 'monoclinic'
loop_
_space_group_symop_operation_xyz
x,y,z
-x,y,1/2-z
-x,-y,-z
x,-y,1/2+z
1/2+x,1/2+y,z
1/2-x,1/2+y,1/2-z
1/2-x,1/2-y,-z
1/2+x,1/2-y,1/2+z
loop_
_atom_site_type_symbol
_atom_site_label
_atom_site_fract_x
_atom_site_fract_y
_atom_site_fract_z
Si Si1 0.283684 0.041995 0.532804
Si Si2 0.926981 0.507647 0.020285
Si Si3 0.507385 0.440638 0.332496
Si Si4 0.047144 0.881645 0.938829
Si Si5 0.167111 0.203234 0.321215
Si Si6 0.418118 0.182516 0.764910
Si Si7 0.361256 0.549616 0.407318
O O1 0.500000 0.042818 0.750000
O O2 0.136366 0.085284 0.445076
O O3 0.348413 0.040625 0.502297
O O4 0.156984 0.989696 0.441424
O O5 0.123010 0.531993 0.218734
O O6 0.728476 0.542511 0.851649
O O7 0.000000 0.500000 0.000000
O O8 0.500000 0.411773 0.250000
O O9 0.575904 0.424496 0.466993
O O10 0.924581 0.833513 0.811470
O O11 0.907757 0.914206 0.878727
O O12 0.250898 0.860601 0.143220
O O13 0.383182 0.182918 0.524827
O O14 0.182983 0.261794 0.312205
O O15 0.000000 0.203230 0.250000
O O16 0.500000 0.176249 0.750000
O O17 0.500000 0.500000 0.500000
#
# Coordination Sequence:
#
# PCOD9287777 Si02
#       7
#     8   8   8   8   8   8   8
#     4  11  21  37  54  75 108 152 201 229 273 329
#     4  11  21  35  53  71 107 151 186 242 285 305
#     4  10  22  38  55  73 104 155 192 226 279 327
#     4  12  24  35  57  86 108 153 200 232 278 344
#     4  11  21  37  58  77 112 145 191 239 285 329
#     4  11  20  40  56  77 112 152 186 241 287 327
#     4  12  22  40  51  78 119 145 189 245 276 326
#
# _framework density 17.400348000000001
#
# number of rings (size 3 to 8) (size 9 to 14) (size 15 to 20)
#    0.000    0.857    7.143    1.286    0.000    4.000 
#    2.571    0.000    0.000    0.000    0.000    0.000 
#    0.000    1.143    0.000    0.857    0.000    0.000 
#
# Total GULP energy -156219.600700 kJ/mol
# GULP energy per Si atom -5579.271454 kJ/mol
# Density = 1.736074 g / cm^3
# Si number density = 17.400348 Si / 1000 Ang^3
#
#
#
# Elastic Constant Matrix: (Units=GPa)
#
#
# Indices 1 2 3 4 5 6 
#
# 1 103.2217 12.0733 6.4030 0.0003 -5.9418 -0.0001
# 2 12.0733 43.8212 -5.5440 0.0002 4.8123 -0.0002
# 3 6.4030 -5.5440 101.9909 0.0004 -1.4959 0.0016
# 4 0.0003 0.0002 0.0004 17.1661 0.0002 1.0468
# 5 -5.9418 4.8123 -1.4959 0.0002 25.1017 0.0005
# 6 -0.0001 -0.0002 0.0016 1.0468 0.0005 -3.0971
#
#
#
# Elastic Compliance Matrix: (Units=1/GPa)
#
#
# Indices 1 2 3 4 5 6 
#
# 1 0.010292 -0.003265 -0.000779 0.000000 0.003016 0.000000
# 2 -0.003265 0.024495 0.001458 0.000000 -0.005382 -0.000002
# 3 -0.000779 0.001458 0.009935 -0.000001 0.000128 0.000005
# 4 0.000000 0.000000 -0.000001 0.057078 -0.000001 0.019292
# 5 0.003016 -0.005382 0.000128 -0.000001 0.041591 0.000006
# 6 0.000000 -0.000002 0.000005 0.019292 0.000006 -0.316366
#
#
# Mechanical properties :
#
#
# Convention : Reuss Voigt Hill
#
# Bulk Modulus (GPa) = 25.28608 30.54427 27.91517
# Shear Modulus (GPa) = -32.33773 23.57424 -4.38174
#
# Velocity S-wave (km/s) = -4.31565 3.68477 -1.58860
# Velocity P-wave (km/s) = 3.20463 5.97456 3.56551
#
# Compressibility (1/GPa) = 0.03954745
#
# Stress axis : x y z
#
# Youngs Moduli (GPa) = 97.16527 40.82450 100.65590
#
# Poissons Ratio (x) = 0.13330 0.07845
# Poissons Ratio (y) = 0.31727 -0.14671
# Poissons Ratio (z) = 0.07573 -0.05950
#
# Static dielectric constant tensor:
#      x y z
#    x 1.379660 0.000000 -0.178910 
#    y 0.000000 1.587980 0.000000 
#    z -0.178910 0.000000 1.569150 
# 
# From -- ./inp_files/250406.got.cif
#   From: 2010.05.17/outbox.cif.g08.bks.cpg/sg15_126_cif.got.tgz:250406.got - 2010.06.03 18:47:42.
