data_PCOD9287668
_publ_section_title
;
Structure prediction by ZEFSAII (Michael W. Deem and Ramdas Pophale) SiO2 
 PCOD9287668
Probable space group: C 2/C
;
_chemical_formula_sum "Si O2"
_cell_formula_units_Z 44
_cell_length_a 20.928536
_cell_length_b 19.694219
_cell_length_c 8.869898
_cell_angle_alpha 90.000000
_cell_angle_beta 34.330993
_cell_angle_gamma 90.000000
_cell_volume 2061.837424
_symmetry_space_group_name_H-M "C 2/C"
_symmetry_group_IT_number 15
_symmetry_cell_setting 'monoclinic'
loop_
_space_group_symop_operation_xyz
x,y,z
-x,y,1/2-z
-x,-y,-z
x,-y,1/2+z
1/2+x,1/2+y,z
1/2-x,1/2+y,1/2-z
1/2-x,1/2-y,-z
1/2+x,1/2-y,1/2+z
loop_
_atom_site_type_symbol
_atom_site_label
_atom_site_fract_x
_atom_site_fract_y
_atom_site_fract_z
Si Si1 0.940349 0.289855 0.109210
Si Si2 0.247456 0.006461 0.676689
Si Si3 0.328938 0.592771 0.942093
Si Si4 0.882749 0.676149 0.026540
Si Si5 0.000000 0.191599 0.750000
Si Si6 0.594271 0.054240 0.870715
O O1 0.857637 0.287144 0.416619
O O2 0.943530 0.367876 0.048516
O O3 0.063473 0.276534 0.948690
O O4 0.923504 0.239867 0.004152
O O5 0.188777 0.063503 0.689377
O O6 0.350088 0.034209 0.578926
O O7 0.163166 0.969217 0.954911
O O8 0.304104 0.953815 0.448958
O O9 0.213343 0.630456 0.218241
O O10 0.429234 0.644058 0.777076
O O11 0.000000 0.635817 0.750000
O O12 0.500000 0.000000 0.000000
#
# Coordination Sequence:
#
# PCOD9287668 Si02
#       6
#     8   8   8   8   4   8
#     4   9  21  39  57  96 122 168 205 253 332 383
#     4  10  22  37  62  92 123 166 210 264 331 358
#     4  11  23  44  61  94 126 169 218 270 309 384
#     4   8  19  40  59  86 130 153 199 259 329 379
#     4  12  28  40  62  88 130 182 222 252 302 378
#     4  11  20  32  63 100 129 152 201 268 336 390
#
# _framework density 21.340188999999999
#
# number of rings (size 3 to 8) (size 9 to 14) (size 15 to 20)
#    1.091    0.727    1.818    2.727    7.636    2.182 
#    0.000    5.455    0.000    0.000    0.000    0.000 
#    0.000    0.000    0.000    0.000    0.000    0.000 
#
# Total GULP energy -122606.582729 kJ/mol
# GULP energy per Si atom -5573.026488 kJ/mol
# Density = 2.129162 g / cm^3
# Si number density = 21.340189 Si / 1000 Ang^3
#
#
#
# Elastic Constant Matrix: (Units=GPa)
#
#
# Indices 1 2 3 4 5 6 
#
# 1 114.1996 69.4362 23.5710 0.0000 27.1248 0.0000
# 2 69.4362 92.5624 18.5710 0.0000 3.3814 0.0000
# 3 23.5710 18.5710 19.8996 0.0000 7.6608 0.0000
# 4 0.0000 0.0000 0.0000 12.3744 0.0000 1.7070
# 5 27.1248 3.3814 7.6608 0.0000 32.9414 0.0000
# 6 0.0000 0.0000 0.0000 1.7070 0.0000 27.5218
#
#
#
# Elastic Compliance Matrix: (Units=1/GPa)
#
#
# Indices 1 2 3 4 5 6 
#
# 1 0.023604 -0.015694 -0.007084 0.000000 -0.016177 0.000000
# 2 -0.015694 0.023812 -0.008420 0.000000 0.012437 0.000000
# 3 -0.007084 -0.008420 0.070209 0.000000 -0.009630 0.000000
# 4 0.000000 0.000000 0.000000 0.081509 0.000000 -0.005056
# 5 -0.016177 0.012437 -0.009630 0.000000 0.044641 0.000000
# 6 0.000000 0.000000 0.000000 -0.005056 0.000000 0.036648
#
#
# Mechanical properties :
#
#
# Convention : Reuss Voigt Hill
#
# Bulk Modulus (GPa) = 18.10709 49.97978 34.04344
# Shear Modulus (GPa) = 13.84167 22.23975 18.04071
#
# Velocity S-wave (km/s) = 2.54956 3.23174 2.91071
# Velocity P-wave (km/s) = 4.14372 6.11530 5.22338
#
# Compressibility (1/GPa) = 0.05522699
#
# Stress axis : x y z
#
# Youngs Moduli (GPa) = 42.36631 41.99640 14.24327
#
# Poissons Ratio (x) = 0.65910 0.10090
# Poissons Ratio (y) = 0.66490 0.11993
# Poissons Ratio (z) = 0.30013 0.35361
#
# Static dielectric constant tensor:
#      x y z
#    x 1.864350 0.000000 0.015430 
#    y 0.000000 1.795750 0.000000 
#    z 0.015430 0.000000 1.812800 
# 
# From -- ./inp_files/49581.got.cif
#   From: 2010.05.17/outbox.cif.g08.bks.cpg/sg15_25_cif.got.tgz:49581.got - 2010.06.03 18:47:42.
