data_PCOD9287101
_publ_section_title
;
Structure prediction by ZEFSAII (Michael W. Deem and Ramdas Pophale) SiO2 
 PCOD9287101
Probable space group: C 2/C
;
_chemical_formula_sum "Si O2"
_cell_formula_units_Z 56
_cell_length_a 27.804827
_cell_length_b 12.404136
_cell_length_c 7.999452
_cell_angle_alpha 90.000000
_cell_angle_beta 60.066300
_cell_angle_gamma 90.000000
_cell_volume 2390.932647
_symmetry_space_group_name_H-M "C 2/C"
_symmetry_group_IT_number 15
_symmetry_cell_setting 'monoclinic'
loop_
_space_group_symop_operation_xyz
x,y,z
-x,y,1/2-z
-x,-y,-z
x,-y,1/2+z
1/2+x,1/2+y,z
1/2-x,1/2+y,1/2-z
1/2-x,1/2-y,-z
1/2+x,1/2-y,1/2+z
loop_
_atom_site_type_symbol
_atom_site_label
_atom_site_fract_x
_atom_site_fract_y
_atom_site_fract_z
Si Si1 0.500000 0.208325 0.750000
Si Si2 0.889777 0.401412 0.308278
Si Si3 0.685862 0.659917 0.448090
Si Si4 0.500000 0.749413 0.750000
Si Si5 0.788229 0.255941 0.599664
Si Si6 0.893654 0.358381 0.903388
Si Si7 0.532983 0.609062 0.423516
Si Si8 0.344405 0.434935 0.866437
O O1 0.553617 0.136737 0.698534
O O2 0.503377 0.296947 0.596817
O O3 0.839136 0.335065 0.474673
O O4 0.894448 0.373153 0.103979
O O5 0.878856 0.527502 0.349389
O O6 0.748854 0.701090 0.313938
O O7 0.648765 0.762485 0.561690
O O8 0.674604 0.557516 0.584051
O O9 0.668783 0.614644 0.293001
O O10 0.544026 0.828504 0.759969
O O11 0.541693 0.666019 0.586119
O O12 0.750000 0.250000 0.500000
O O13 0.813512 0.136352 0.560181
O O14 0.500000 0.500000 0.500000
O O15 0.589641 0.583810 0.230068
#
# Coordination Sequence:
#
# PCOD9287101 Si02
#       8
#     4   8   8   4   8   8   8   8
#     4  12  24  46  66 104 150 189 239 296 368 424
#     4  12  26  46  72 101 144 193 236 299 359 424
#     4  11  24  45  74 101 140 181 235 295 354 429
#     4  12  22  46  68  98 142 187 243 290 354 432
#     4  10  21  46  75  96 142 189 233 291 363 417
#     4  12  26  47  68 105 141 187 245 295 362 426
#     4  12  25  40  70 103 147 189 234 297 361 432
#     4  11  23  47  70 103 143 182 229 297 359 413
#
# _framework density 23.421821999999999
#
# number of rings (size 3 to 8) (size 9 to 14) (size 15 to 20)
#    0.000    0.571    7.143    1.714    6.000    1.143 
#    2.571    0.714    0.000    0.000    0.000    0.000 
#    0.000    0.000    0.000    0.000    0.000    0.000 
#
# Total GULP energy -156571.639924 kJ/mol
# GULP energy per Si atom -5591.844283 kJ/mol
# Density = 2.336851 g / cm^3
# Si number density = 23.421822 Si / 1000 Ang^3
#
#
#
# Elastic Constant Matrix: (Units=GPa)
#
#
# Indices 1 2 3 4 5 6 
#
# 1 70.8187 51.1536 36.1567 0.0000 -32.0592 0.0000
# 2 51.1536 207.9781 56.9038 0.0000 -26.1615 0.0000
# 3 36.1567 56.9038 73.0684 0.0000 -25.2879 0.0000
# 4 0.0000 0.0000 0.0000 53.8313 0.0000 -9.5801
# 5 -32.0592 -26.1615 -25.2879 0.0000 30.0858 0.0000
# 6 0.0000 0.0000 0.0000 -9.5801 0.0000 27.9399
#
#
#
# Elastic Compliance Matrix: (Units=1/GPa)
#
#
# Indices 1 2 3 4 5 6 
#
# 1 0.030104 -0.003178 -0.003210 0.000000 0.026618 0.000000
# 2 -0.003178 0.006520 -0.003828 0.000000 -0.000935 0.000000
# 3 -0.003210 -0.003828 0.022450 0.000000 0.012121 0.000000
# 4 0.000000 0.000000 0.000000 0.019784 0.000000 0.006784
# 5 0.026618 -0.000935 0.012121 0.000000 0.070976 0.000000
# 6 0.000000 0.000000 0.000000 0.006784 0.000000 0.038117
#
#
# Mechanical properties :
#
#
# Convention : Reuss Voigt Hill
#
# Bulk Modulus (GPa) = 25.87842 71.14371 48.51106
# Shear Modulus (GPa) = 22.59734 36.21481 29.40608
#
# Velocity S-wave (km/s) = 3.10949 3.93644 3.54715
# Velocity P-wave (km/s) = 4.89538 7.14854 6.12643
#
# Compressibility (1/GPa) = 0.03864223
#
# Stress axis : x y z
#
# Youngs Moduli (GPa) = 33.21770 153.38138 44.54261
#
# Poissons Ratio (x) = 0.48744 0.14297
# Poissons Ratio (y) = 0.10556 0.17053
# Poissons Ratio (z) = 0.10662 0.58721
#
# Static dielectric constant tensor:
#      x y z
#    x 1.948840 0.000000 0.149530 
#    y 0.000000 1.824820 0.000000 
#    z 0.149530 0.000000 2.119940 
# 
# From -- ./inp_files/69318.got.cif
#   From: 2010.05.17/outbox.cif.g08.bks.cpg/sg15_35_cif.got.tgz:69318.got - 2010.06.03 18:47:42.
