data_PCOD9287028
_publ_section_title
;
Structure prediction by ZEFSAII (Michael W. Deem and Ramdas Pophale) SiO2 
 PCOD9287028
Probable space group: C 2/C
;
_chemical_formula_sum "Si O2"
_cell_formula_units_Z 52
_cell_length_a 10.114795
_cell_length_b 31.058715
_cell_length_c 8.990066
_cell_angle_alpha 90.000000
_cell_angle_beta 124.727137
_cell_angle_gamma 90.000000
_cell_volume 2321.180216
_symmetry_space_group_name_H-M "C 2/C"
_symmetry_group_IT_number 15
_symmetry_cell_setting 'monoclinic'
loop_
_space_group_symop_operation_xyz
x,y,z
-x,y,1/2-z
-x,-y,-z
x,-y,1/2+z
1/2+x,1/2+y,z
1/2-x,1/2+y,1/2-z
1/2-x,1/2-y,-z
1/2+x,1/2-y,1/2+z
loop_
_atom_site_type_symbol
_atom_site_label
_atom_site_fract_x
_atom_site_fract_y
_atom_site_fract_z
Si Si1 0.292534 0.129639 0.267440
Si Si2 0.500000 0.939944 0.750000
Si Si3 0.800467 0.907700 0.509721
Si Si4 0.527610 0.549848 0.617466
Si Si5 0.178987 0.702697 0.439577
Si Si6 0.730292 0.997741 0.053339
Si Si7 0.592234 0.154104 0.668279
O O1 0.349893 0.089720 0.202031
O O2 0.178114 0.122275 0.334245
O O3 0.243881 0.168285 0.126740
O O4 0.458126 0.136696 0.467974
O O5 0.568867 0.972299 0.916275
O O6 0.956281 0.924039 0.521003
O O7 0.694455 0.883179 0.316160
O O8 0.720335 0.951261 0.526635
O O9 0.500000 0.578312 0.750000
O O10 0.379612 0.517492 0.541951
O O11 0.693867 0.523968 0.751726
O O12 0.250000 0.750000 0.500000
O O13 0.186361 0.683948 0.612792
O O14 0.000000 0.705842 0.250000
O O15 0.500000 0.175833 0.750000
#
# Coordination Sequence:
#
# PCOD9287028 Si02
#       7
#     8   4   8   8   8   8   8
#     4  10  22  36  62  94 132 160 204 272 330 363
#     4  12  20  36  58  94 124 166 216 262 296 360
#     4  11  20  38  61  92 128 175 222 265 308 374
#     4   8  21  40  54  78 124 181 223 257 318 345
#     4  10  21  45  73  95 124 162 202 256 339 413
#     4   9  23  34  60  83 125 183 225 255 303 365
#     4   9  19  37  65  95 128 165 199 265 335 370
#
# _framework density 22.402396
#
# number of rings (size 3 to 8) (size 9 to 14) (size 15 to 20)
#    0.923    1.231    2.308    1.385    5.385    0.615 
#    0.000    9.231    0.000    0.000    0.000    0.000 
#    0.000    0.000    0.000    0.000    0.000    0.000 
#
# Total GULP energy -144764.996892 kJ/mol
# GULP energy per Si atom -5567.884496 kJ/mol
# Density = 2.235141 g / cm^3
# Si number density = 22.402396 Si / 1000 Ang^3
#
#
#
# Elastic Constant Matrix: (Units=GPa)
#
#
# Indices 1 2 3 4 5 6 
#
# 1 59.0034 39.7588 25.8778 0.0000 -31.4429 0.0000
# 2 39.7588 121.7697 57.1421 0.0000 -24.0991 0.0000
# 3 25.8778 57.1421 107.3970 0.0000 -22.1338 0.0000
# 4 0.0000 0.0000 0.0000 36.0619 0.0000 3.3023
# 5 -31.4429 -24.0991 -22.1338 0.0000 46.0351 0.0000
# 6 0.0000 0.0000 0.0000 3.3023 0.0000 19.3297
#
#
#
# Elastic Compliance Matrix: (Units=1/GPa)
#
#
# Indices 1 2 3 4 5 6 
#
# 1 0.030731 -0.006388 -0.000410 0.000000 0.017449 0.000000
# 2 -0.006388 0.012730 -0.005283 0.000000 -0.000240 0.000000
# 3 -0.000410 -0.005283 0.012868 0.000000 0.003142 0.000000
# 4 0.000000 0.000000 0.000000 0.028171 0.000000 -0.004813
# 5 0.017449 -0.000240 0.003142 0.000000 0.035025 0.000000
# 6 0.000000 0.000000 0.000000 -0.004813 0.000000 0.052556
#
#
# Mechanical properties :
#
#
# Convention : Reuss Voigt Hill
#
# Bulk Modulus (GPa) = 31.08809 59.30308 45.19558
# Shear Modulus (GPa) = 24.15853 31.31145 27.73499
#
# Velocity S-wave (km/s) = 3.28745 3.74262 3.52239
# Velocity P-wave (km/s) = 5.32137 6.72350 6.06310
#
# Compressibility (1/GPa) = 0.03216666
#
# Stress axis : x y z
#
# Youngs Moduli (GPa) = 32.54045 78.55528 77.70968
#
# Poissons Ratio (x) = 0.50185 0.03184
# Poissons Ratio (y) = 0.20788 0.41055
# Poissons Ratio (z) = 0.01333 0.41502
#
# Static dielectric constant tensor:
#      x y z
#    x 2.000380 0.000000 -0.046540 
#    y 0.000000 1.848250 0.000000 
#    z -0.046540 0.000000 2.019630 
# 
# From -- ./inp_files/35355.got.cif
#   From: 2010.05.17/outbox.cif.g08.bks.cpg/sg15_18_cif.got.tgz:35355.got - 2010.06.03 18:47:42.
