data_PCOD9287930
_publ_section_title
;
Structure prediction by ZEFSAII (Michael W. Deem and Ramdas Pophale) SiO2 
 PCOD9287930
Probable space group: C 2/C
;
_chemical_formula_sum "Si O2"
_cell_formula_units_Z 56
_cell_length_a 8.453165
_cell_length_b 11.099648
_cell_length_c 29.886414
_cell_angle_alpha 90.000000
_cell_angle_beta 72.534349
_cell_angle_gamma 90.000000
_cell_volume 2674.877317
_symmetry_space_group_name_H-M "C 2/C"
_symmetry_group_IT_number 15
_symmetry_cell_setting 'monoclinic'
loop_
_space_group_symop_operation_xyz
x,y,z
-x,y,1/2-z
-x,-y,-z
x,-y,1/2+z
1/2+x,1/2+y,z
1/2-x,1/2+y,1/2-z
1/2-x,1/2-y,-z
1/2+x,1/2-y,1/2+z
loop_
_atom_site_type_symbol
_atom_site_label
_atom_site_fract_x
_atom_site_fract_y
_atom_site_fract_z
Si Si1 0.928145 0.144701 0.916023
Si Si2 0.000000 0.694147 0.250000
Si Si3 0.768682 0.129876 0.554772
Si Si4 0.628370 0.626346 0.810632
Si Si5 0.848386 0.868957 0.693143
Si Si6 0.657564 0.389393 0.551134
Si Si7 0.279796 0.377125 0.592786
Si Si8 0.000000 0.310950 0.250000
O O1 0.034859 0.143475 0.952072
O O2 0.073501 0.144448 0.866245
O O3 0.821778 0.263932 0.917105
O O4 0.828306 0.017340 0.924026
O O5 0.970470 0.777517 0.209841
O O6 0.833232 0.622230 0.269936
O O7 0.698254 0.262883 0.572120
O O8 0.743099 0.108009 0.503971
O O9 0.707317 0.009894 0.586409
O O10 0.562091 0.493932 0.804859
O O11 0.824098 0.633383 0.782232
O O12 0.814034 0.860364 0.643044
O O13 0.941734 0.764297 0.711253
O O14 0.462980 0.379542 0.556913
#
# Coordination Sequence:
#
# PCOD9287930 Si02
#       8
#     8   4   8   8   8   8   8   4
#     4  11  22  38  65  95 122 161 205 256 303 363
#     4  10  22  38  60  88 122 154 202 250 314 362
#     4  10  23  43  64  90 128 164 201 252 310 371
#     4  11  21  40  60  86 121 159 202 253 304 360
#     4  11  21  40  60  86 121 159 202 253 304 360
#     4  10  23  43  64  90 128 164 201 252 310 371
#     4  11  22  38  65  95 122 161 205 256 303 363
#     4  10  26  38  60  88 118 162 206 250 306 366
#
# _framework density 20.935541000000001
#
# number of rings (size 3 to 8) (size 9 to 14) (size 15 to 20)
#    0.000    1.429    4.286    2.571    2.000    3.429 
#    0.000    2.857    0.000    0.000    0.000    0.000 
#    0.000    0.000    0.000    0.000    0.000    0.000 
#
# Total GULP energy -155929.944033 kJ/mol
# GULP energy per Si atom -5568.926573 kJ/mol
# Density = 2.088789 g / cm^3
# Si number density = 20.935541 Si / 1000 Ang^3
#
#
#
# Elastic Constant Matrix: (Units=GPa)
#
#
# Indices 1 2 3 4 5 6 
#
# 1 32.1215 44.8513 -7.5098 0.0000 5.3018 0.0000
# 2 44.8513 187.1845 31.1275 0.0000 19.6478 0.0000
# 3 -7.5098 31.1275 82.6891 0.0000 19.3039 0.0000
# 4 0.0000 0.0000 0.0000 16.9831 0.0000 21.6955
# 5 5.3018 19.6478 19.3039 0.0000 18.2204 0.0000
# 6 0.0000 0.0000 0.0000 21.6955 0.0000 -4.7921
#
#
#
# Elastic Compliance Matrix: (Units=1/GPa)
#
#
# Indices 1 2 3 4 5 6 
#
# 1 0.057394 -0.014431 0.014496 0.000000 -0.016497 0.000000
# 2 -0.014431 0.009715 -0.004653 0.000000 -0.001347 0.000000
# 3 0.014496 -0.004653 0.019896 0.000000 -0.020279 0.000000
# 4 0.000000 0.000000 0.000000 0.008680 0.000000 0.039298
# 5 -0.016497 -0.001347 -0.020279 0.000000 0.082622 0.000000
# 6 0.000000 0.000000 0.000000 0.039298 0.000000 -0.030762
#
#
# Mechanical properties :
#
#
# Convention : Reuss Voigt Hill
#
# Bulk Modulus (GPa) = 12.84866 48.77035 30.80951
# Shear Modulus (GPa) = 27.37243 21.65068 24.51156
#
# Velocity S-wave (km/s) = 3.61981 3.21932 3.42542
# Velocity P-wave (km/s) = 4.86017 6.09629 5.51299
#
# Compressibility (1/GPa) = 0.07782912
#
# Stress axis : x y z
#
# Youngs Moduli (GPa) = 17.42333 102.92897 50.26122
#
# Poissons Ratio (x) = 1.48540 -0.72860
# Poissons Ratio (y) = 0.25144 0.23389
# Poissons Ratio (z) = -0.25257 0.47897
#
# Static dielectric constant tensor:
#      x y z
#    x 1.781820 0.000000 0.062960 
#    y 0.000000 1.797490 0.000000 
#    z 0.062960 0.000000 1.908210 
# 
# From -- ./inp_files/307090.got.cif
#   From: 2010.05.17/outbox.cif.g08.bks.cpg/sg15_154_cif.got.tgz:307090.got - 2010.06.03 18:47:42.
