data_PCOD9287705
_publ_section_title
;
Structure prediction by ZEFSAII (Michael W. Deem and Ramdas Pophale) SiO2 
 PCOD9287705
Probable space group: C 2/C
;
_chemical_formula_sum "Si O2"
_cell_formula_units_Z 56
_cell_length_a 9.862717
_cell_length_b 15.466289
_cell_length_c 17.753596
_cell_angle_alpha 90.000000
_cell_angle_beta 63.717910
_cell_angle_gamma 90.000000
_cell_volume 2428.174053
_symmetry_space_group_name_H-M "C 2/C"
_symmetry_group_IT_number 15
_symmetry_cell_setting 'monoclinic'
loop_
_space_group_symop_operation_xyz
x,y,z
-x,y,1/2-z
-x,-y,-z
x,-y,1/2+z
1/2+x,1/2+y,z
1/2-x,1/2+y,1/2-z
1/2-x,1/2-y,-z
1/2+x,1/2-y,1/2+z
loop_
_atom_site_type_symbol
_atom_site_label
_atom_site_fract_x
_atom_site_fract_y
_atom_site_fract_z
Si Si1 0.697132 0.320676 0.269453
Si Si2 0.331014 0.498904 0.805624
Si Si3 0.305601 0.620508 0.439496
Si Si4 0.870547 0.613034 0.870220
Si Si5 0.418033 0.738929 0.115683
Si Si6 0.977247 0.572914 0.174565
Si Si7 0.976560 0.279819 0.567471
O O1 0.669789 0.402336 0.221953
O O2 0.817661 0.351585 0.303079
O O3 0.561993 0.286478 0.355675
O O4 0.765711 0.245060 0.200716
O O5 0.500000 0.466244 0.750000
O O6 0.293938 0.471385 0.900436
O O7 0.199221 0.449601 0.793454
O O8 0.266710 0.613288 0.536630
O O9 0.470995 0.661035 0.390431
O O10 0.183371 0.687183 0.431820
O O11 0.994182 0.674676 0.878049
O O12 0.934729 0.517363 0.848242
O O13 0.417799 0.745566 0.025265
O O14 0.033904 0.634066 0.094105
O O15 0.000000 0.613719 0.250000
#
# Coordination Sequence:
#
# PCOD9287705 Si02
#       7
#     8   8   8   8   8   8   8
#     4  12  22  40  68  97 137 185 226 284 346 406
#     4  11  26  41  63  97 138 176 226 285 348 404
#     4  10  22  37  64 103 133 174 232 295 330 410
#     4  11  19  38  66 101 135 172 233 289 337 402
#     4  11  20  36  65 103 134 177 233 284 338 405
#     4  11  22  40  68  99 131 181 229 276 346 411
#     4  10  23  36  62 101 136 171 230 292 336 402
#
# _framework density 23.062597
#
# number of rings (size 3 to 8) (size 9 to 14) (size 15 to 20)
#    0.000    1.143    5.714    1.286    6.000    2.286 
#    0.000    0.714    3.143    1.714    0.000    0.000 
#    0.000    0.000    0.000    0.000    0.000    0.000 
#
# Total GULP energy -156535.117709 kJ/mol
# GULP energy per Si atom -5590.539918 kJ/mol
# Density = 2.301011 g / cm^3
# Si number density = 23.062597 Si / 1000 Ang^3
#
#
#
# Elastic Constant Matrix: (Units=GPa)
#
#
# Indices 1 2 3 4 5 6 
#
# 1 47.0591 16.0468 34.4515 0.0000 1.6378 0.0000
# 2 16.0468 89.0270 58.5222 0.0000 10.0893 0.0000
# 3 34.4515 58.5222 172.8567 0.0000 3.5856 0.0000
# 4 0.0000 0.0000 0.0000 37.9806 0.0000 9.0825
# 5 1.6378 10.0893 3.5856 0.0000 11.5595 0.0000
# 6 0.0000 0.0000 0.0000 9.0825 0.0000 17.2323
#
#
#
# Elastic Compliance Matrix: (Units=1/GPa)
#
#
# Indices 1 2 3 4 5 6 
#
# 1 0.025061 -0.001475 -0.004477 0.000000 -0.000875 0.000000
# 2 -0.001475 0.016124 -0.004909 0.000000 -0.012342 0.000000
# 3 -0.004477 -0.004909 0.008291 0.000000 0.002347 0.000000
# 4 0.000000 0.000000 0.000000 0.030126 0.000000 -0.015878
# 5 -0.000875 -0.012342 0.002347 0.000000 0.096677 0.000000
# 6 0.000000 0.000000 0.000000 -0.015878 0.000000 0.066399
#
#
# Mechanical properties :
#
#
# Convention : Reuss Voigt Hill
#
# Bulk Modulus (GPa) = 36.03153 58.55376 47.29264
# Shear Modulus (GPa) = 18.27142 26.68267 22.47704
#
# Velocity S-wave (km/s) = 2.81775 3.40511 3.12526
# Velocity P-wave (km/s) = 5.12285 6.39561 5.79429
#
# Compressibility (1/GPa) = 0.02775347
#
# Stress axis : x y z
#
# Youngs Moduli (GPa) = 39.90259 62.01951 120.61579
#
# Poissons Ratio (x) = 0.09147 0.54004
# Poissons Ratio (y) = 0.05885 0.59210
# Poissons Ratio (z) = 0.17866 0.30445
#
# Static dielectric constant tensor:
#      x y z
#    x 1.878860 0.000000 -0.031040 
#    y 0.000000 1.861630 0.000000 
#    z -0.031040 0.000000 1.884770 
# 
# From -- ./inp_files/145988.got.cif
#   From: 2010.05.17/outbox.cif.g08.bks.cpg/sg15_73_cif.got.tgz:145988.got - 2010.06.03 18:47:42.
