data_PCOD9287858
_publ_section_title
;
Structure prediction by ZEFSAII (Michael W. Deem and Ramdas Pophale) SiO2 
 PCOD9287858
Probable space group: C 2/C
;
_chemical_formula_sum "Si O2"
_cell_formula_units_Z 48
_cell_length_a 23.947678
_cell_length_b 8.739912
_cell_length_c 11.659616
_cell_angle_alpha 90.000000
_cell_angle_beta 63.834822
_cell_angle_gamma 90.000000
_cell_volume 2190.291983
_symmetry_space_group_name_H-M "C 2/C"
_symmetry_group_IT_number 15
_symmetry_cell_setting 'monoclinic'
loop_
_space_group_symop_operation_xyz
x,y,z
-x,y,1/2-z
-x,-y,-z
x,-y,1/2+z
1/2+x,1/2+y,z
1/2-x,1/2+y,1/2-z
1/2-x,1/2-y,-z
1/2+x,1/2-y,1/2+z
loop_
_atom_site_type_symbol
_atom_site_label
_atom_site_fract_x
_atom_site_fract_y
_atom_site_fract_z
Si Si1 0.571964 0.677731 0.568888
Si Si2 0.558816 0.838811 0.343466
Si Si3 0.500000 0.919876 0.750000
Si Si4 0.304048 0.061773 0.735095
Si Si5 0.000000 0.911304 0.750000
Si Si6 0.788898 0.105050 0.005811
Si Si7 0.257288 0.356212 0.879573
O O1 0.549843 0.757460 0.472740
O O2 0.557116 0.804594 0.679347
O O3 0.533721 0.524449 0.630415
O O4 0.644725 0.644539 0.501683
O O5 0.625821 0.920002 0.285389
O O6 0.550896 0.700970 0.259957
O O7 0.510320 0.967550 0.347540
O O8 0.279449 0.237386 0.762266
O O9 0.257260 0.980036 0.865251
O O10 0.298417 0.959443 0.624546
O O11 0.750000 0.250000 0.000000
O O12 0.801639 0.991161 0.886039
O O13 0.250000 0.250000 0.000000
#
# Coordination Sequence:
#
# PCOD9287858 Si02
#       7
#     8   8   4   8   4   8   8
#     4  11  22  41  64  90 126 169 212 262 319 380
#     4  11  22  41  64  90 126 166 212 268 318 374
#     4  10  24  40  62  94 126 166 218 264 312 374
#     4  11  22  39  63  93 126 165 209 259 323 387
#     4  10  24  42  64  92 124 168 222 266 312 376
#     4  11  22  38  62  93 128 165 209 262 322 388
#     4  10  22  38  58  91 126 160 203 251 315 383
#
# _framework density 21.914887
#
# number of rings (size 3 to 8) (size 9 to 14) (size 15 to 20)
#    0.000    1.333    0.000    6.000    0.000    1.333 
#    0.000   10.000    0.000    0.000    0.000    0.000 
#    0.000    0.000    0.000    0.000    0.000    0.000 
#
# Total GULP energy -133843.359907 kJ/mol
# GULP energy per Si atom -5576.806663 kJ/mol
# Density = 2.186501 g / cm^3
# Si number density = 21.914887 Si / 1000 Ang^3
#
#
#
# Elastic Constant Matrix: (Units=GPa)
#
#
# Indices 1 2 3 4 5 6 
#
# 1 96.8865 57.5423 35.1737 0.0000 7.0383 0.0000
# 2 57.5423 154.8722 45.1986 0.0000 10.9153 0.0000
# 3 35.1737 45.1986 68.5014 0.0000 1.9576 0.0000
# 4 0.0000 0.0000 0.0000 43.5331 0.0000 14.2592
# 5 7.0383 10.9153 1.9576 0.0000 30.6286 0.0000
# 6 0.0000 0.0000 0.0000 14.2592 0.0000 39.3130
#
#
#
# Elastic Compliance Matrix: (Units=1/GPa)
#
#
# Indices 1 2 3 4 5 6 
#
# 1 0.014490 -0.003852 -0.004852 0.000000 -0.001647 0.000000
# 2 -0.003852 0.009219 -0.004044 0.000000 -0.002142 0.000000
# 3 -0.004852 -0.004044 0.019721 0.000000 0.001296 0.000000
# 4 0.000000 0.000000 0.000000 0.026068 0.000000 -0.009455
# 5 -0.001647 -0.002142 0.001296 0.000000 0.033708 0.000000
# 6 0.000000 0.000000 0.000000 -0.009455 0.000000 0.028866
#
#
# Mechanical properties :
#
#
# Convention : Reuss Voigt Hill
#
# Bulk Modulus (GPa) = 55.75688 66.23216 60.99452
# Shear Modulus (GPa) = 30.57247 34.85131 32.71189
#
# Velocity S-wave (km/s) = 3.73910 3.99219 3.86771
# Velocity P-wave (km/s) = 6.64370 7.17901 6.91654
#
# Compressibility (1/GPa) = 0.01793501
#
# Stress axis : x y z
#
# Youngs Moduli (GPa) = 69.01343 108.46901 50.70786
#
# Poissons Ratio (x) = 0.41779 0.24602
# Poissons Ratio (y) = 0.26582 0.20507
# Poissons Ratio (z) = 0.33483 0.43866
#
# Static dielectric constant tensor:
#      x y z
#    x 1.804130 0.000000 0.135340 
#    y 0.000000 1.804810 0.000000 
#    z 0.135340 0.000000 2.182160 
# 
# From -- ./inp_files/116764.got.cif
#   From: 2010.05.17/outbox.cif.g08.bks.cpg/sg15_59_cif.got.tgz:116764.got - 2010.06.03 18:47:42.
