data_PCOD9287755
_publ_section_title
;
Structure prediction by ZEFSAII (Michael W. Deem and Ramdas Pophale) SiO2 
 PCOD9287755
Probable space group: C 2/C
;
_chemical_formula_sum "Si O2"
_cell_formula_units_Z 60
_cell_length_a 7.759269
_cell_length_b 21.237339
_cell_length_c 18.013197
_cell_angle_alpha 90.000000
_cell_angle_beta 119.934125
_cell_angle_gamma 90.000000
_cell_volume 2572.351072
_symmetry_space_group_name_H-M "C 2/C"
_symmetry_group_IT_number 15
_symmetry_cell_setting 'monoclinic'
loop_
_space_group_symop_operation_xyz
x,y,z
-x,y,1/2-z
-x,-y,-z
x,-y,1/2+z
1/2+x,1/2+y,z
1/2-x,1/2+y,1/2-z
1/2-x,1/2-y,-z
1/2+x,1/2-y,1/2+z
loop_
_atom_site_type_symbol
_atom_site_label
_atom_site_fract_x
_atom_site_fract_y
_atom_site_fract_z
Si Si1 0.063381 0.217751 0.922675
Si Si2 0.346053 0.923511 0.149739
Si Si3 0.625446 0.830434 0.701157
Si Si4 0.951604 0.891489 0.853622
Si Si5 0.611956 0.588696 0.887608
Si Si6 0.647055 0.937547 0.913585
Si Si7 0.777980 0.823207 0.485121
Si Si8 0.000000 0.002008 0.750000
O O1 0.125347 0.163630 0.878860
O O2 0.919744 0.270013 0.857839
O O3 0.961843 0.182026 0.968483
O O4 0.250000 0.250000 0.000000
O O5 0.500000 0.917561 0.250000
O O6 0.369449 0.865690 0.096154
O O7 0.118244 0.924021 0.134520
O O8 0.377358 0.990175 0.115242
O O9 0.500000 0.823438 0.750000
O O10 0.845735 0.840592 0.778426
O O11 0.545034 0.893722 0.643158
O O12 0.810303 0.908349 0.892369
O O13 0.956103 0.954633 0.807165
O O14 0.154708 0.863893 0.929589
O O15 0.652689 0.549778 0.821834
O O16 0.763573 0.569038 0.985086
O O17 0.750000 0.750000 0.500000
#
# Coordination Sequence:
#
# PCOD9287755 Si02
#       8
#     8   8   8   8   8   8   8   4
#     4  11  21  44  65  94 128 173 221 269 319 383
#     4  11  22  41  68  94 124 166 217 262 320 393
#     4  10  22  37  68 100 126 169 220 270 319 384
#     4  11  22  43  65  93 131 171 214 268 326 394
#     4  11  23  41  65  93 130 170 215 268 324 383
#     4  11  19  44  70  91 124 173 219 260 328 393
#     4  11  26  44  67  93 132 181 215 261 336 401
#     4  12  26  38  64  98 132 164 216 274 328 370
#
# _framework density 23.324966
#
# number of rings (size 3 to 8) (size 9 to 14) (size 15 to 20)
#    0.000    1.067    5.333    3.200    2.800    2.133 
#    2.400    0.667    0.000    0.000    0.000    0.000 
#    0.000    0.000    0.000    0.000    0.000    0.000 
#
# Total GULP energy -167655.348744 kJ/mol
# GULP energy per Si atom -5588.511625 kJ/mol
# Density = 2.327188 g / cm^3
# Si number density = 23.324966 Si / 1000 Ang^3
#
#
#
# Elastic Constant Matrix: (Units=GPa)
#
#
# Indices 1 2 3 4 5 6 
#
# 1 24.6560 1.9156 8.4616 0.0000 -5.7323 0.0000
# 2 1.9156 179.6993 82.8753 0.0000 -1.6801 0.0000
# 3 8.4616 82.8753 182.1673 0.0000 12.4699 0.0000
# 4 0.0000 0.0000 0.0000 62.9940 0.0000 -7.8440
# 5 -5.7323 -1.6801 12.4699 0.0000 21.9802 0.0000
# 6 0.0000 0.0000 0.0000 -7.8440 0.0000 21.3672
#
#
#
# Elastic Compliance Matrix: (Units=1/GPa)
#
#
# Indices 1 2 3 4 5 6 
#
# 1 0.044934 0.001331 -0.003643 0.000000 0.013887 0.000000
# 2 0.001331 0.007211 -0.003541 0.000000 0.002908 0.000000
# 3 -0.003643 -0.003541 0.007651 0.000000 -0.005561 0.000000
# 4 0.000000 0.000000 0.000000 0.016635 0.000000 0.006107
# 5 0.013887 0.002908 -0.005561 0.000000 0.052494 0.000000
# 6 0.000000 0.000000 0.000000 0.006107 0.000000 0.049043
#
#
# Mechanical properties :
#
#
# Convention : Reuss Voigt Hill
#
# Bulk Modulus (GPa) = 20.79526 63.66974 42.23250
# Shear Modulus (GPa) = 24.30676 40.81961 32.56319
#
# Velocity S-wave (km/s) = 3.23165 4.18789 3.74045
# Velocity P-wave (km/s) = 4.78116 7.12324 6.06631
#
# Compressibility (1/GPa) = 0.04808788
#
# Stress axis : x y z
#
# Youngs Moduli (GPa) = 22.25502 138.67424 130.70966
#
# Poissons Ratio (x) = -0.18459 0.47622
# Poissons Ratio (y) = -0.02962 0.46291
# Poissons Ratio (z) = 0.08108 0.49111
#
# Static dielectric constant tensor:
#      x y z
#    x 1.990160 0.000000 -0.028630 
#    y 0.000000 1.931770 0.000000 
#    z -0.028630 0.000000 1.890550 
# 
# From -- ./inp_files/192579.got.cif
#   From: 2010.05.17/outbox.cif.g08.bks.cpg/sg15_97_cif.got.tgz:192579.got - 2010.06.03 18:47:42.
