data_PCOD9287562
_publ_section_title
;
Structure prediction by ZEFSAII (Michael W. Deem and Ramdas Pophale) SiO2 
 PCOD9287562
Probable space group: C 2/C
;
_chemical_formula_sum "Si O2"
_cell_formula_units_Z 48
_cell_length_a 18.756453
_cell_length_b 14.260009
_cell_length_c 11.248640
_cell_angle_alpha 90.000000
_cell_angle_beta 59.627822
_cell_angle_gamma 90.000000
_cell_volume 2595.733937
_symmetry_space_group_name_H-M "C 2/C"
_symmetry_group_IT_number 15
_symmetry_cell_setting 'monoclinic'
loop_
_space_group_symop_operation_xyz
x,y,z
-x,y,1/2-z
-x,-y,-z
x,-y,1/2+z
1/2+x,1/2+y,z
1/2-x,1/2+y,1/2-z
1/2-x,1/2-y,-z
1/2+x,1/2-y,1/2+z
loop_
_atom_site_type_symbol
_atom_site_label
_atom_site_fract_x
_atom_site_fract_y
_atom_site_fract_z
Si Si1 0.735132 0.055449 0.290628
Si Si2 0.769376 0.336730 0.159354
Si Si3 0.000000 0.279614 0.250000
Si Si4 0.679971 0.279152 0.655967
Si Si5 0.660629 0.825723 0.661224
Si Si6 0.944331 0.558701 0.956436
Si Si7 0.000000 0.407438 0.750000
O O1 0.799760 0.119153 0.306596
O O2 0.720494 0.095085 0.169601
O O3 0.645956 0.079476 0.422033
O O4 0.748524 0.945135 0.296140
O O5 0.811201 0.292373 0.240614
O O6 0.690630 0.271707 0.193959
O O7 0.824654 0.325261 0.993338
O O8 0.086711 0.226196 0.186321
O O9 0.010229 0.350000 0.129558
O O10 0.750000 0.250000 0.500000
O O11 0.563833 0.844380 0.769057
O O12 0.936321 0.482137 0.859096
O O13 0.000000 0.500000 0.000000
#
# Coordination Sequence:
#
# PCOD9287562 Si02
#       7
#     8   8   4   8   8   8   4
#     4  11  21  38  63  90 123 165 203 247 314 369
#     4  10  23  40  58  85 125 162 202 249 303 369
#     4  11  24  38  57  92 130 150 209 260 301 364
#     4  11  24  41  63  92 124 165 202 253 310 373
#     4  10  22  37  56  88 124 161 197 251 308 360
#     4  11  20  32  57  92 122 154 196 255 313 359
#     4  11  20  30  57  90 120 152 199 252 309 360
#
# _framework density 18.491879999999998
#
# number of rings (size 3 to 8) (size 9 to 14) (size 15 to 20)
#    0.000    1.333    5.000    1.000    4.667    0.000 
#    0.000    0.833    0.000    1.000    0.000    0.000 
#    0.000    0.000    0.000    0.000    0.000    0.000 
#
# Total GULP energy -133726.958786 kJ/mol
# GULP energy per Si atom -5571.956616 kJ/mol
# Density = 1.844979 g / cm^3
# Si number density = 18.491880 Si / 1000 Ang^3
#
#
#
# Elastic Constant Matrix: (Units=GPa)
#
#
# Indices 1 2 3 4 5 6 
#
# 1 122.1708 51.7100 28.5780 0.0000 -8.9695 0.0000
# 2 51.7100 119.6840 12.1487 0.0000 2.5501 0.0000
# 3 28.5780 12.1487 67.8367 0.0000 6.5196 0.0000
# 4 0.0000 0.0000 0.0000 21.0248 0.0000 -6.0839
# 5 -8.9695 2.5501 6.5196 0.0000 28.2795 0.0000
# 6 0.0000 0.0000 0.0000 -6.0839 0.0000 24.9721
#
#
#
# Elastic Compliance Matrix: (Units=1/GPa)
#
#
# Indices 1 2 3 4 5 6 
#
# 1 0.011599 -0.004659 -0.004547 0.000000 0.005147 0.000000
# 2 -0.004659 0.010387 0.000342 0.000000 -0.002493 0.000000
# 3 -0.004547 0.000342 0.017116 0.000000 -0.005419 0.000000
# 4 0.000000 0.000000 0.000000 0.051170 0.000000 0.012466
# 5 0.005147 -0.002493 -0.005419 0.000000 0.038468 0.000000
# 6 0.000000 0.000000 0.000000 0.012466 0.000000 0.043082
#
#
# Mechanical properties :
#
#
# Convention : Reuss Voigt Hill
#
# Bulk Modulus (GPa) = 46.78458 54.95166 50.86812
# Shear Modulus (GPa) = 25.42279 29.33894 27.38087
#
# Velocity S-wave (km/s) = 3.71186 3.98752 3.85216
# Velocity P-wave (km/s) = 6.61253 7.14014 6.88139
#
# Compressibility (1/GPa) = 0.02137456
#
# Stress axis : x y z
#
# Youngs Moduli (GPa) = 86.21541 96.27550 58.42449
#
# Poissons Ratio (x) = 0.44860 0.26563
# Poissons Ratio (y) = 0.40172 -0.02001
# Poissons Ratio (z) = 0.39198 -0.03297
#
# Static dielectric constant tensor:
#      x y z
#    x 1.663460 0.000000 0.038800 
#    y 0.000000 1.818660 0.000000 
#    z 0.038800 0.000000 1.774950 
# 
# From -- ./inp_files/96893.got.cif
#   From: 2010.05.17/outbox.cif.g08.bks.cpg/sg15_49_cif.got.tgz:96893.got - 2010.06.03 18:47:42.
