data_PCOD9287127
_publ_section_title
;
Structure prediction by ZEFSAII (Michael W. Deem and Ramdas Pophale) SiO2 
 PCOD9287127
Probable space group: C 2/C
;
_chemical_formula_sum "Si O2"
_cell_formula_units_Z 56
_cell_length_a 28.213453
_cell_length_b 7.238509
_cell_length_c 11.852691
_cell_angle_alpha 90.000000
_cell_angle_beta 72.390334
_cell_angle_gamma 90.000000
_cell_volume 2307.166072
_symmetry_space_group_name_H-M "C 2/C"
_symmetry_group_IT_number 15
_symmetry_cell_setting 'monoclinic'
loop_
_space_group_symop_operation_xyz
x,y,z
-x,y,1/2-z
-x,-y,-z
x,-y,1/2+z
1/2+x,1/2+y,z
1/2-x,1/2+y,1/2-z
1/2-x,1/2-y,-z
1/2+x,1/2-y,1/2+z
loop_
_atom_site_type_symbol
_atom_site_label
_atom_site_fract_x
_atom_site_fract_y
_atom_site_fract_z
Si Si1 0.292550 0.142886 0.745107
Si Si2 0.051847 0.228598 0.172464
Si Si3 0.837293 0.675397 0.934761
Si Si4 0.818807 0.213808 0.695869
Si Si5 0.132403 0.672240 0.976825
Si Si6 0.449979 0.891581 0.557710
Si Si7 0.913170 0.150479 0.776425
O O1 0.298278 0.220931 0.866627
O O2 0.236131 0.136509 0.746448
O O3 0.329724 0.259374 0.638917
O O4 0.313321 0.933163 0.728730
O O5 0.106406 0.315540 0.155256
O O6 0.000000 0.319165 0.250000
O O7 0.055763 0.035417 0.234102
O O8 0.050782 0.230631 0.036931
O O9 0.832286 0.463250 0.975756
O O10 0.832205 0.792689 0.052714
O O11 0.862420 0.132064 0.740969
O O12 0.102406 0.794622 0.085988
O O13 0.093541 0.536668 0.941785
O O14 0.442985 0.805077 0.685344
O O15 0.500000 0.000000 0.500000
#
# Coordination Sequence:
#
# PCOD9287127 Si02
#       7
#     8   8   8   8   8   8   8
#     4  11  23  41  68 102 133 185 245 291 355 434
#     4  11  28  43  70 109 142 182 238 295 373 410
#     4  10  21  48  66  94 142 187 236 292 355 438
#     4  11  24  43  67  98 139 187 237 295 367 423
#     4  10  22  43  71 101 134 185 239 288 354 436
#     4  11  26  48  77 101 142 197 243 288 361 441
#     4  12  25  48  69 105 152 177 240 306 359 437
#
# _framework density 24.272203999999999
#
# number of rings (size 3 to 8) (size 9 to 14) (size 15 to 20)
#    0.000    1.143    5.714    0.429   10.000    3.429 
#    0.000    0.000    0.000    0.000    0.000    0.000 
#    0.000    0.000    0.000    0.000    0.000    0.000 
#
# Total GULP energy -156596.999640 kJ/mol
# GULP energy per Si atom -5592.749987 kJ/mol
# Density = 2.421696 g / cm^3
# Si number density = 24.272204 Si / 1000 Ang^3
#
#
#
# Elastic Constant Matrix: (Units=GPa)
#
#
# Indices 1 2 3 4 5 6 
#
# 1 119.7556 38.1552 44.9067 0.0000 -17.9146 0.0000
# 2 38.1552 43.1356 26.5325 0.0000 9.9878 0.0000
# 3 44.9067 26.5325 119.6818 0.0000 -8.1495 0.0000
# 4 0.0000 0.0000 0.0000 28.2805 0.0000 -3.0141
# 5 -17.9146 9.9878 -8.1495 0.0000 35.0130 0.0000
# 6 0.0000 0.0000 0.0000 -3.0141 0.0000 32.1601
#
#
#
# Elastic Compliance Matrix: (Units=1/GPa)
#
#
# Indices 1 2 3 4 5 6 
#
# 1 0.015836 -0.015869 -0.001589 0.000000 0.012259 0.000000
# 2 -0.015869 0.046007 -0.005783 0.000000 -0.022589 0.000000
# 3 -0.001589 -0.005783 0.010457 0.000000 0.003270 0.000000
# 4 0.000000 0.000000 0.000000 0.035717 0.000000 0.003347
# 5 0.012259 -0.022589 0.003270 0.000000 0.042038 0.000000
# 6 0.000000 0.000000 0.000000 0.003347 0.000000 0.031408
#
#
# Mechanical properties :
#
#
# Convention : Reuss Voigt Hill
#
# Bulk Modulus (GPa) = 38.73405 55.75133 47.24269
# Shear Modulus (GPa) = 21.13703 30.62262 25.87983
#
# Velocity S-wave (km/s) = 2.95419 3.55580 3.26886
# Velocity P-wave (km/s) = 5.25634 6.31485 5.80976
#
# Compressibility (1/GPa) = 0.02581708
#
# Stress axis : x y z
#
# Youngs Moduli (GPa) = 63.14657 21.73581 95.63336
#
# Poissons Ratio (x) = 0.34492 0.15198
# Poissons Ratio (y) = 1.00206 0.55308
# Poissons Ratio (z) = 0.10035 0.12570
#
# Static dielectric constant tensor:
#      x y z
#    x 1.899770 0.000000 0.002500 
#    y 0.000000 1.960120 0.000000 
#    z 0.002500 0.000000 1.985700 
# 
# From -- ./inp_files/121871.got.cif
#   From: 2010.05.17/outbox.cif.g08.bks.cpg/sg15_61_cif.got.tgz:121871.got - 2010.06.03 18:47:42.
