data_PCOD9287774
_publ_section_title
;
Structure prediction by ZEFSAII (Michael W. Deem and Ramdas Pophale) SiO2 
 PCOD9287774
Probable space group: C 2/C
;
_chemical_formula_sum "Si O2"
_cell_formula_units_Z 56
_cell_length_a 11.304791
_cell_length_b 21.809096
_cell_length_c 17.497722
_cell_angle_alpha 90.000000
_cell_angle_beta 41.467204
_cell_angle_gamma 90.000000
_cell_volume 2856.703353
_symmetry_space_group_name_H-M "C 2/C"
_symmetry_group_IT_number 15
_symmetry_cell_setting 'monoclinic'
loop_
_space_group_symop_operation_xyz
x,y,z
-x,y,1/2-z
-x,-y,-z
x,-y,1/2+z
1/2+x,1/2+y,z
1/2-x,1/2+y,1/2-z
1/2-x,1/2-y,-z
1/2+x,1/2-y,1/2+z
loop_
_atom_site_type_symbol
_atom_site_label
_atom_site_fract_x
_atom_site_fract_y
_atom_site_fract_z
Si Si1 0.496832 0.788598 0.841133
Si Si2 0.633857 0.902854 0.855989
Si Si3 0.588010 0.567505 0.962564
Si Si4 0.145073 0.462991 0.292006
Si Si5 0.259450 0.439552 0.953947
Si Si6 0.406011 0.663654 0.940675
Si Si7 0.228481 0.073651 0.610348
O O1 0.500000 0.776201 0.750000
O O2 0.628008 0.841479 0.808884
O O3 0.520854 0.725041 0.874603
O O4 0.295983 0.813739 0.948815
O O5 0.673918 0.963685 0.787149
O O6 0.746540 0.902959 0.880271
O O7 0.431780 0.914435 0.984066
O O8 0.775472 0.560451 0.825733
O O9 0.620133 0.584164 0.035346
O O10 0.472652 0.618101 0.974096
O O11 0.500000 0.500000 0.000000
O O12 0.258280 0.432366 0.305530
O O13 0.939813 0.448205 0.413114
O O14 0.322482 0.507508 0.899218
O O15 0.389102 0.625271 0.871119
#
# Coordination Sequence:
#
# PCOD9287774 Si02
#       7
#     8   8   8   8   8   8   8
#     4  10  22  38  63  78 108 155 193 233 268 337
#     4   8  17  34  57  79 102 147 193 219 268 337
#     4  12  23  32  51  86 121 146 178 237 290 334
#     4   9  19  31  57  78 109 148 184 225 280 341
#     4   9  17  36  53  80 112 146 180 223 283 344
#     4  10  22  38  53  89 117 138 189 239 286 320
#     4   8  15  33  54  78 109 137 177 234 278 327
#
# _framework density 19.603016
#
# number of rings (size 3 to 8) (size 9 to 14) (size 15 to 20)
#    0.000    2.571    1.429    2.143    4.000    0.000 
#    0.000    0.714    0.000    0.000    0.000    0.000 
#    0.000    0.000    0.000    0.000    0.000    0.000 
#
# Total GULP energy -156215.939477 kJ/mol
# GULP energy per Si atom -5579.140696 kJ/mol
# Density = 1.955840 g / cm^3
# Si number density = 19.603016 Si / 1000 Ang^3
#
#
#
# Elastic Constant Matrix: (Units=GPa)
#
#
# Indices 1 2 3 4 5 6 
#
# 1 101.2155 52.8663 0.2007 -0.0003 27.6604 0.0001
# 2 52.8663 103.4053 -3.4289 -0.0002 11.5481 0.0001
# 3 0.2007 -3.4289 31.3940 -0.0005 2.2284 0.0003
# 4 -0.0003 -0.0002 -0.0005 12.1213 0.0003 7.2050
# 5 27.6604 11.5481 2.2284 0.0003 32.6292 -0.0001
# 6 0.0001 0.0001 0.0003 7.2050 -0.0001 35.7723
#
#
#
# Elastic Compliance Matrix: (Units=1/GPa)
#
#
# Indices 1 2 3 4 5 6 
#
# 1 0.016925 -0.007344 -0.000077 0.000001 -0.011743 0.000000
# 2 -0.007344 0.013313 0.001400 0.000000 0.001418 0.000000
# 3 -0.000077 0.001400 0.032193 0.000002 -0.002629 -0.000001
# 4 0.000001 0.000000 0.000002 0.093720 -0.000002 -0.018876
# 5 -0.011743 0.001418 -0.002629 -0.000002 0.040280 0.000001
# 6 0.000000 0.000000 -0.000001 -0.018876 0.000001 0.031757
#
#
# Mechanical properties :
#
#
# Convention : Reuss Voigt Hill
#
# Bulk Modulus (GPa) = 19.84484 37.25453 28.54969
# Shear Modulus (GPa) = 19.45325 28.52968 23.99146
#
# Velocity S-wave (km/s) = 3.15359 3.81907 3.50217
# Velocity P-wave (km/s) = 4.83793 6.20426 5.56320
#
# Compressibility (1/GPa) = 0.05039093
#
# Stress axis : x y z
#
# Youngs Moduli (GPa) = 59.08311 75.11192 31.06240
#
# Poissons Ratio (x) = 0.55164 0.00238
# Poissons Ratio (y) = 0.43392 -0.04350
# Poissons Ratio (z) = 0.00454 -0.10519
#
# Static dielectric constant tensor:
#      x y z
#    x 1.703490 0.000000 -0.027160 
#    y 0.000000 1.666410 0.000000 
#    z -0.027160 0.000000 1.751420 
# 
# From -- ./inp_files/174727.got.cif
#   From: 2010.05.17/outbox.cif.g08.bks.cpg/sg15_88_cif.got.tgz:174727.got - 2010.06.03 18:47:42.
