data_PCOD9287851
_publ_section_title
;
Structure prediction by ZEFSAII (Michael W. Deem and Ramdas Pophale) SiO2 
 PCOD9287851
Probable space group: C 2/C
;
_chemical_formula_sum "Si O2"
_cell_formula_units_Z 44
_cell_length_a 33.560983
_cell_length_b 6.894503
_cell_length_c 7.870518
_cell_angle_alpha 90.000000
_cell_angle_beta 81.652556
_cell_angle_gamma 90.000000
_cell_volume 1801.836817
_symmetry_space_group_name_H-M "C 2/C"
_symmetry_group_IT_number 15
_symmetry_cell_setting 'monoclinic'
loop_
_space_group_symop_operation_xyz
x,y,z
-x,y,1/2-z
-x,-y,-z
x,-y,1/2+z
1/2+x,1/2+y,z
1/2-x,1/2+y,1/2-z
1/2-x,1/2-y,-z
1/2+x,1/2-y,1/2+z
loop_
_atom_site_type_symbol
_atom_site_label
_atom_site_fract_x
_atom_site_fract_y
_atom_site_fract_z
Si Si1 0.874214 0.176332 0.100225
Si Si2 0.203266 0.398717 0.898494
Si Si3 0.940111 0.162643 0.548656
Si Si4 0.209929 0.207080 0.265537
Si Si5 0.621288 0.929144 0.745911
Si Si6 0.000000 0.069857 0.250000
O O1 0.829872 0.084043 0.165186
O O2 0.880436 0.335428 0.247885
O O3 0.906560 0.007802 0.056362
O O4 0.876938 0.315326 0.933126
O O5 0.206509 0.630110 0.911992
O O6 0.244366 0.360651 0.769195
O O7 0.162130 0.372190 0.821248
O O8 0.203882 0.292731 0.078567
O O9 0.917448 0.347911 0.633290
O O10 0.966454 0.196152 0.365410
O O11 0.973443 0.073285 0.652388
#
# Coordination Sequence:
#
# PCOD9287851 Si02
#       6
#     8   8   8   8   8   4
#     4  11  24  41  67  97 129 174 217 262 323 386
#     4  10  22  38  58  89 127 166 215 262 308 373
#     4  11  24  46  70  96 134 170 208 274 330 389
#     4  10  22  38  58  89 127 166 215 262 308 373
#     4  11  24  41  67  97 129 174 217 262 323 386
#     4  10  24  46  70  98 130 162 220 270 326 400
#
# _framework density 24.419523000000002
#
# number of rings (size 3 to 8) (size 9 to 14) (size 15 to 20)
#    0.000    1.455    1.818    4.364    7.636    2.909 
#    0.000    5.455    0.000    0.000    0.000    0.000 
#    0.000    0.000    0.000    0.000    0.000    0.000 
#
# Total GULP energy -122947.094325 kJ/mol
# GULP energy per Si atom -5588.504288 kJ/mol
# Density = 2.436394 g / cm^3
# Si number density = 24.419523 Si / 1000 Ang^3
#
#
#
# Elastic Constant Matrix: (Units=GPa)
#
#
# Indices 1 2 3 4 5 6 
#
# 1 160.5452 13.1520 49.6336 0.0000 -44.8941 0.0000
# 2 13.1520 36.3293 9.5664 0.0000 -23.8218 0.0000
# 3 49.6336 9.5664 70.8730 0.0000 -21.0780 0.0000
# 4 0.0000 0.0000 0.0000 23.3312 0.0000 -21.0558
# 5 -44.8941 -23.8218 -21.0780 0.0000 51.5074 0.0000
# 6 0.0000 0.0000 0.0000 -21.0558 0.0000 19.9021
#
#
#
# Elastic Compliance Matrix: (Units=1/GPa)
#
#
# Indices 1 2 3 4 5 6 
#
# 1 0.009664 0.002871 -0.004845 0.000000 0.007768 0.000000
# 2 0.002871 0.040361 -0.001324 0.000000 0.020627 0.000000
# 3 -0.004845 -0.001324 0.018494 0.000000 0.002733 0.000000
# 4 0.000000 0.000000 0.000000 0.948169 0.000000 1.003137
# 5 0.007768 0.020627 0.002733 0.000000 0.036844 0.000000
# 6 0.000000 0.000000 0.000000 1.003137 0.000000 1.111538
#
#
# Mechanical properties :
#
#
# Convention : Reuss Voigt Hill
#
# Bulk Modulus (GPa) = 16.14901 45.82795 30.98848
# Shear Modulus (GPa) = 2.28070 31.97449 17.12760
#
# Velocity S-wave (km/s) = 0.96747 3.62246 2.65125
# Velocity P-wave (km/s) = 2.80633 6.02528 4.69997
#
# Compressibility (1/GPa) = 0.06192331
#
# Stress axis : x y z
#
# Youngs Moduli (GPa) = 103.48080 24.77646 54.07088
#
# Poissons Ratio (x) = -0.07113 0.26197
# Poissons Ratio (y) = -0.29709 0.07158
# Poissons Ratio (z) = 0.50135 0.03280
#
# Static dielectric constant tensor:
#      x y z
#    x 1.949730 0.000000 0.012480 
#    y 0.000000 1.976680 0.000000 
#    z 0.012480 0.000000 2.049910 
# 
# From -- ./inp_files/68299.got.cif
#   From: 2010.05.17/outbox.cif.g08.bks.cpg/sg15_35_cif.got.tgz:68299.got - 2010.06.03 18:47:42.
