data_PCOD9287287
_publ_section_title
;
Structure prediction by ZEFSAII (Michael W. Deem and Ramdas Pophale) SiO2 
 PCOD9287287
Probable space group: C 2/C
;
_chemical_formula_sum "Si O2"
_cell_formula_units_Z 36
_cell_length_a 13.602093
_cell_length_b 9.689088
_cell_length_c 9.712565
_cell_angle_alpha 90.000000
_cell_angle_beta 99.905477
_cell_angle_gamma 90.000000
_cell_volume 1260.955504
_symmetry_space_group_name_H-M "C 2/C"
_symmetry_group_IT_number 15
_symmetry_cell_setting 'monoclinic'
loop_
_space_group_symop_operation_xyz
x,y,z
-x,y,1/2-z
-x,-y,-z
x,-y,1/2+z
1/2+x,1/2+y,z
1/2-x,1/2+y,1/2-z
1/2-x,1/2-y,-z
1/2+x,1/2-y,1/2+z
loop_
_atom_site_type_symbol
_atom_site_label
_atom_site_fract_x
_atom_site_fract_y
_atom_site_fract_z
Si Si1 0.182807 0.255871 0.184069
Si Si2 0.610566 0.174604 0.175336
Si Si3 0.122247 0.442356 0.388742
Si Si4 0.821200 0.038497 0.535087
Si Si5 0.000000 0.936119 0.250000
O O1 0.268773 0.180847 0.292391
O O2 0.107375 0.334972 0.262528
O O3 0.246187 0.368931 0.111623
O O4 0.137423 0.147016 0.067539
O O5 0.563389 0.326052 0.173915
O O6 0.593901 0.089709 0.314925
O O7 0.581332 0.100777 0.026609
O O8 0.243125 0.443371 0.437487
O O9 0.915545 0.985677 0.643202
#
# Coordination Sequence:
#
# PCOD9287287 Si02
#       5
#     8   8   8   8   4
#     4   9  18  36  60  83 116 155 208 240 283 350
#     4  10  22  35  60  88 120 154 201 244 298 347
#     4  11  19  37  63  90 109 161 212 237 275 371
#     4   9  19  37  59  85 121 159 191 245 299 354
#     4  10  22  40  56  88 134 156 178 254 320 334
#
# _framework density 28.549779999999998
#
# number of rings (size 3 to 8) (size 9 to 14) (size 15 to 20)
#    0.000    2.222    2.222    2.000    0.000    0.889 
#    0.000    4.444    0.000    0.000    0.000    0.000 
#    0.000    0.000    0.000    0.000    0.000    0.000 
#
# Total GULP energy -100896.677029 kJ/mol
# GULP energy per Si atom -5605.370946 kJ/mol
# Density = 2.848480 g / cm^3
# Si number density = 28.549780 Si / 1000 Ang^3
#
#
#
# Elastic Constant Matrix: (Units=GPa)
#
#
# Indices 1 2 3 4 5 6 
#
# 1 131.2056 5.2298 40.7010 0.0000 30.4573 0.0000
# 2 5.2298 56.6880 25.5674 0.0000 -8.3136 0.0000
# 3 40.7010 25.5674 147.1044 0.0000 -12.5775 0.0000
# 4 0.0000 0.0000 0.0000 52.6442 0.0000 -3.8151
# 5 30.4573 -8.3136 -12.5775 0.0000 52.5322 0.0000
# 6 0.0000 0.0000 0.0000 -3.8151 0.0000 25.6853
#
#
#
# Elastic Compliance Matrix: (Units=1/GPa)
#
#
# Indices 1 2 3 4 5 6 
#
# 1 0.010260 -0.000438 -0.003346 0.000000 -0.006819 0.000000
# 2 -0.000438 0.019431 -0.003034 0.000000 0.002602 0.000000
# 3 -0.003346 -0.003034 0.008551 0.000000 0.003507 0.000000
# 4 0.000000 0.000000 0.000000 0.019202 0.000000 0.002852
# 5 -0.006819 0.002602 0.003507 0.000000 0.024241 0.000000
# 6 0.000000 0.000000 0.000000 0.002852 0.000000 0.039356
#
#
# Mechanical properties :
#
#
# Convention : Reuss Voigt Hill
#
# Bulk Modulus (GPa) = 40.63798 53.11050 46.87424
# Shear Modulus (GPa) = 34.99527 43.73900 39.36713
#
# Velocity S-wave (km/s) = 3.50489 3.91836 3.71738
# Velocity P-wave (km/s) = 5.53570 6.25416 5.90586
#
# Compressibility (1/GPa) = 0.02460752
#
# Stress axis : x y z
#
# Youngs Moduli (GPa) = 97.46805 51.46515 116.95007
#
# Poissons Ratio (x) = 0.02252 0.39127
# Poissons Ratio (y) = 0.04265 0.35477
# Poissons Ratio (z) = 0.32609 0.15612
#
# Static dielectric constant tensor:
#      x y z
#    x 2.241860 0.000000 -0.058540 
#    y 0.000000 2.229990 0.000000 
#    z -0.058540 0.000000 2.228330 
# 
# From -- ./inp_files/37528.got.cif
#   From: 2010.05.17/outbox.cif.g08.bks.cpg/sg15_19_cif.got.tgz:37528.got - 2010.06.03 18:47:42.
