data_PCOD9287281
_publ_section_title
;
Structure prediction by ZEFSAII (Michael W. Deem and Ramdas Pophale) SiO2 
 PCOD9287281
Probable space group: C 2/C
;
_chemical_formula_sum "Si O2"
_cell_formula_units_Z 40
_cell_length_a 5.262993
_cell_length_b 17.999101
_cell_length_c 21.431820
_cell_angle_alpha 90.000000
_cell_angle_beta 98.559094
_cell_angle_gamma 90.000000
_cell_volume 2007.607170
_symmetry_space_group_name_H-M "C 2/C"
_symmetry_group_IT_number 15
_symmetry_cell_setting 'monoclinic'
loop_
_space_group_symop_operation_xyz
x,y,z
-x,y,1/2-z
-x,-y,-z
x,-y,1/2+z
1/2+x,1/2+y,z
1/2-x,1/2+y,1/2-z
1/2-x,1/2-y,-z
1/2+x,1/2-y,1/2+z
loop_
_atom_site_type_symbol
_atom_site_label
_atom_site_fract_x
_atom_site_fract_y
_atom_site_fract_z
Si Si1 0.533122 0.842564 0.939887
Si Si2 0.095609 0.055817 0.822200
Si Si3 0.717755 0.435719 0.011443
Si Si4 0.893680 0.826227 0.074875
Si Si5 0.106669 0.517447 0.373450
O O1 0.527098 0.759236 0.914704
O O2 0.653437 0.897004 0.892902
O O3 0.283168 0.890064 0.951641
O O4 0.683495 0.835107 0.011678
O O5 0.000000 0.075369 0.750000
O O6 0.171431 0.129121 0.864833
O O7 0.857570 0.015561 0.848874
O O8 0.345278 0.002572 0.828292
O O9 0.629603 0.370484 0.054039
O O10 0.933025 0.477971 0.059730
O O11 0.500000 0.500000 0.000000
#
# Coordination Sequence:
#
# PCOD9287281 Si02
#       5
#     8   8   8   8   8
#     4  11  20  36  58  97 126 150 197 258 333 373
#     4  11  24  44  62  85 118 171 219 252 294 368
#     4  11  19  34  57  91 129 161 191 249 311 388
#     4  10  22  35  59  91 127 159 192 258 321 379
#     4  11  22  38  65  89 120 159 206 256 304 364
#
# _framework density 19.924218
#
# number of rings (size 3 to 8) (size 9 to 14) (size 15 to 20)
#    0.000    1.200    4.000    4.200    0.000    0.000 
#    0.000    2.000    0.000    0.000    0.000    0.000 
#    0.000    0.000    0.000    0.000    0.000    0.000 
#
# Total GULP energy -111442.218136 kJ/mol
# GULP energy per Si atom -5572.110907 kJ/mol
# Density = 1.987887 g / cm^3
# Si number density = 19.924218 Si / 1000 Ang^3
#
#
#
# Elastic Constant Matrix: (Units=GPa)
#
#
# Indices 1 2 3 4 5 6 
#
# 1 64.7785 37.2811 11.9278 0.0000 10.0141 0.0000
# 2 37.2811 200.8896 43.8182 0.0000 -1.7754 0.0000
# 3 11.9278 43.8182 90.1853 0.0000 9.5040 0.0000
# 4 0.0000 0.0000 0.0000 18.6127 0.0000 2.7326
# 5 10.0141 -1.7754 9.5040 0.0000 27.2289 0.0000
# 6 0.0000 0.0000 0.0000 2.7326 0.0000 18.2248
#
#
#
# Elastic Compliance Matrix: (Units=1/GPa)
#
#
# Indices 1 2 3 4 5 6 
#
# 1 0.018543 -0.003502 -0.000009 0.000000 -0.007045 0.000000
# 2 -0.003502 0.006278 -0.002872 0.000000 0.002699 0.000000
# 3 -0.000009 -0.002872 0.012982 0.000000 -0.004715 0.000000
# 4 0.000000 0.000000 0.000000 0.054936 0.000000 -0.008237
# 5 -0.007045 0.002699 -0.004715 0.000000 0.041138 0.000000
# 6 0.000000 0.000000 0.000000 -0.008237 0.000000 0.056105
#
#
# Mechanical properties :
#
#
# Convention : Reuss Voigt Hill
#
# Bulk Modulus (GPa) = 39.93822 60.21196 50.07509
# Shear Modulus (GPa) = 23.68628 30.33502 27.01065
#
# Velocity S-wave (km/s) = 3.45167 3.90618 3.68594
# Velocity P-wave (km/s) = 5.99782 7.11551 6.58044
#
# Compressibility (1/GPa) = 0.02503868
#
# Stress axis : x y z
#
# Youngs Moduli (GPa) = 53.92835 159.28918 77.03248
#
# Poissons Ratio (x) = 0.55776 0.00068
# Poissons Ratio (y) = 0.18883 0.22121
# Poissons Ratio (z) = 0.00047 0.45741
#
# Static dielectric constant tensor:
#      x y z
#    x 1.848960 0.000000 0.022110 
#    y 0.000000 1.707610 0.000000 
#    z 0.022110 0.000000 1.732320 
# 
# From -- ./inp_files/226724.got.cif
#   From: 2010.05.17/outbox.cif.g08.bks.cpg/sg15_114_cif.got.tgz:226724.got - 2010.06.03 18:47:42.
