data_PCOD9287076
_publ_section_title
;
Structure prediction by ZEFSAII (Michael W. Deem and Ramdas Pophale) SiO2 
 PCOD9287076
Probable space group: C 2/C
;
_chemical_formula_sum "Si O2"
_cell_formula_units_Z 44
_cell_length_a 13.691054
_cell_length_b 13.791397
_cell_length_c 9.305953
_cell_angle_alpha 90.000000
_cell_angle_beta 108.798137
_cell_angle_gamma 90.000000
_cell_volume 1663.412288
_symmetry_space_group_name_H-M "C 2/C"
_symmetry_group_IT_number 15
_symmetry_cell_setting 'monoclinic'
loop_
_space_group_symop_operation_xyz
x,y,z
-x,y,1/2-z
-x,-y,-z
x,-y,1/2+z
1/2+x,1/2+y,z
1/2-x,1/2+y,1/2-z
1/2-x,1/2-y,-z
1/2+x,1/2-y,1/2+z
loop_
_atom_site_type_symbol
_atom_site_label
_atom_site_fract_x
_atom_site_fract_y
_atom_site_fract_z
Si Si1 0.000000 0.202748 0.750000
Si Si2 0.682167 0.235002 0.165920
Si Si3 0.500000 0.016420 0.750000
Si Si4 0.282499 0.403940 0.513356
Si Si5 0.134364 0.206174 0.059839
Si Si6 0.359054 0.073501 0.945163
Si Si7 0.500000 0.650200 0.250000
O O1 0.071677 0.266548 0.682799
O O2 0.919050 0.153765 0.600896
O O3 0.695339 0.172127 0.030087
O O4 0.763702 0.177262 0.304834
O O5 0.700458 0.349623 0.134118
O O6 0.444512 0.956616 0.600626
O O7 0.408245 0.064631 0.806603
O O8 0.234380 0.504139 0.547235
O O9 0.398564 0.401582 0.635852
O O10 0.164929 0.315086 0.036669
O O11 0.046974 0.209282 0.140873
#
# Coordination Sequence:
#
# PCOD9287076 Si02
#       7
#     4   8   4   8   8   8   4
#     4  12  23  40  66 100 128 171 222 286 319 399
#     4  10  23  41  63  93 131 178 222 272 331 402
#     4  10  24  36  58  94 141 173 202 270 348 388
#     4  10  22  41  67  93 132 177 228 266 331 403
#     4  11  23  39  67  97 132 171 224 275 332 393
#     4  11  23  39  63  99 135 171 219 276 333 397
#     4  10  21  46  70  94 131 190 218 264 337 407
#
# _framework density 26.451650000000001
#
# number of rings (size 3 to 8) (size 9 to 14) (size 15 to 20)
#    0.000    1.455    1.818    2.727    7.636    0.000 
#    0.000    0.909    0.000    3.273    0.000    0.000 
#    0.000    0.000    0.000    0.000    0.000    0.000 
#
# Total GULP energy -122605.362825 kJ/mol
# GULP energy per Si atom -5572.971037 kJ/mol
# Density = 2.639144 g / cm^3
# Si number density = 26.451650 Si / 1000 Ang^3
#
#
#
# Elastic Constant Matrix: (Units=GPa)
#
#
# Indices 1 2 3 4 5 6 
#
# 1 183.5118 37.8540 38.7963 0.0000 -11.6199 0.0000
# 2 37.8540 78.2056 1.8731 0.0000 -11.9633 0.0000
# 3 38.7963 1.8731 154.1768 0.0000 -10.1092 0.0000
# 4 0.0000 0.0000 0.0000 16.7335 0.0000 -1.5977
# 5 -11.6199 -11.9633 -10.1092 0.0000 57.1118 0.0000
# 6 0.0000 0.0000 0.0000 -1.5977 0.0000 50.0577
#
#
#
# Elastic Compliance Matrix: (Units=1/GPa)
#
#
# Indices 1 2 3 4 5 6 
#
# 1 0.006424 -0.003011 -0.001554 0.000000 0.000401 0.000000
# 2 -0.003011 0.014621 0.000749 0.000000 0.002583 0.000000
# 3 -0.001554 0.000749 0.006938 0.000000 0.001069 0.000000
# 4 0.000000 0.000000 0.000000 0.059943 0.000000 0.001913
# 5 0.000401 0.002583 0.001069 0.000000 0.018321 0.000000
# 6 0.000000 0.000000 0.000000 0.001913 0.000000 0.020038
#
#
# Mechanical properties :
#
#
# Convention : Reuss Voigt Hill
#
# Bulk Modulus (GPa) = 49.13251 63.66012 56.39631
# Shear Modulus (GPa) = 35.53640 47.27197 41.40419
#
# Velocity S-wave (km/s) = 3.66928 4.23201 3.96065
# Velocity P-wave (km/s) = 6.04701 6.92811 6.50250
#
# Compressibility (1/GPa) = 0.02035312
#
# Stress axis : x y z
#
# Youngs Moduli (GPa) = 155.66158 68.39322 144.13377
#
# Poissons Ratio (x) = 0.20593 0.22393
# Poissons Ratio (y) = 0.46868 -0.10801
# Poissons Ratio (z) = 0.24184 -0.05125
#
# Static dielectric constant tensor:
#      x y z
#    x 2.118650 0.000000 0.023270 
#    y 0.000000 2.098970 0.000000 
#    z 0.023270 0.000000 2.200260 
# 
# From -- ./inp_files/39372.got.cif
#   From: 2010.05.17/outbox.cif.g08.bks.cpg/sg15_20_cif.got.tgz:39372.got - 2010.06.03 18:47:42.
