data_PCOD9287228
_publ_section_title
;
Structure prediction by ZEFSAII (Michael W. Deem and Ramdas Pophale) SiO2 
 PCOD9287228
Probable space group: C 2/C
;
_chemical_formula_sum "Si O2"
_cell_formula_units_Z 60
_cell_length_a 20.658943
_cell_length_b 15.324267
_cell_length_c 9.605811
_cell_angle_alpha 90.000000
_cell_angle_beta 64.709263
_cell_angle_gamma 90.000000
_cell_volume 2749.559448
_symmetry_space_group_name_H-M "C 2/C"
_symmetry_group_IT_number 15
_symmetry_cell_setting 'monoclinic'
loop_
_space_group_symop_operation_xyz
x,y,z
-x,y,1/2-z
-x,-y,-z
x,-y,1/2+z
1/2+x,1/2+y,z
1/2-x,1/2+y,1/2-z
1/2-x,1/2-y,-z
1/2+x,1/2-y,1/2+z
loop_
_atom_site_type_symbol
_atom_site_label
_atom_site_fract_x
_atom_site_fract_y
_atom_site_fract_z
Si Si1 0.815259 0.670830 0.258981
Si Si2 0.812109 0.804521 0.018232
Si Si3 0.105292 0.735336 0.809378
Si Si4 0.000000 0.359222 0.250000
Si Si5 0.649975 0.605040 0.402082
Si Si6 0.315590 0.119022 0.565045
Si Si7 0.682730 0.493903 0.612825
Si Si8 0.577569 0.967432 0.982686
O O1 0.823212 0.759509 0.159878
O O2 0.734337 0.633952 0.308505
O O3 0.819449 0.678424 0.422671
O O4 0.872985 0.597053 0.156798
O O5 0.750000 0.750000 0.000000
O O6 0.878000 0.777252 0.856661
O O7 0.798383 0.907752 0.999863
O O8 0.029952 0.689745 0.856169
O O9 0.102087 0.811550 0.923367
O O10 0.170325 0.675223 0.808302
O O11 0.934428 0.416119 0.362732
O O12 0.639293 0.557645 0.554860
O O13 0.639977 0.540164 0.283434
O O14 0.248681 0.053399 0.607544
O O15 0.381195 0.053686 0.514439
O O16 0.500000 0.000000 0.000000
#
# Coordination Sequence:
#
# PCOD9287228 Si02
#       8
#     8   8   8   4   8   8   8   8
#     4  11  22  37  58  88 121 161 195 244 294 356
#     4  11  20  38  60  82 118 160 202 235 298 360
#     4  11  24  40  58  85 121 159 200 249 300 364
#     4  12  24  38  62  82 116 172 198 242 290 370
#     4  10  22  38  59  88 118 155 198 251 305 347
#     4  11  24  36  58  91 127 153 198 248 302 352
#     4  10  22  34  60  88 117 154 193 249 298 353
#     4  12  22  38  57  88 125 163 196 230 296 366
#
# _framework density 21.821677999999999
#
# number of rings (size 3 to 8) (size 9 to 14) (size 15 to 20)
#    0.000    1.067    6.667    0.800    1.867    3.200 
#    0.000    0.000    0.000    3.200    0.000    0.000 
#    0.000    0.000    0.000    0.000    0.000    0.000 
#
# Total GULP energy -167311.936424 kJ/mol
# GULP energy per Si atom -5577.064547 kJ/mol
# Density = 2.177201 g / cm^3
# Si number density = 21.821678 Si / 1000 Ang^3
#
#
#
# Elastic Constant Matrix: (Units=GPa)
#
#
# Indices 1 2 3 4 5 6 
#
# 1 52.1639 47.0853 21.2543 0.0000 22.0558 0.0000
# 2 47.0853 97.2568 21.0014 0.0000 26.7242 0.0000
# 3 21.2543 21.0014 62.4382 0.0000 22.4345 0.0000
# 4 0.0000 0.0000 0.0000 34.7659 0.0000 6.8244
# 5 22.0558 26.7242 22.4345 0.0000 26.9687 0.0000
# 6 0.0000 0.0000 0.0000 6.8244 0.0000 32.9419
#
#
#
# Elastic Compliance Matrix: (Units=1/GPa)
#
#
# Indices 1 2 3 4 5 6 
#
# 1 0.040198 -0.014383 -0.003073 0.000000 -0.016066 0.000000
# 2 -0.014383 0.019283 0.001497 0.000000 -0.008590 0.000000
# 3 -0.003073 0.001497 0.023090 0.000000 -0.018178 0.000000
# 4 0.000000 0.000000 0.000000 0.029983 0.000000 -0.006211
# 5 -0.016066 -0.008590 -0.018178 0.000000 0.073853 0.000000
# 6 0.000000 0.000000 0.000000 -0.006211 0.000000 0.031643
#
#
# Mechanical properties :
#
#
# Convention : Reuss Voigt Hill
#
# Bulk Modulus (GPa) = 19.74275 43.39342 31.56808
# Shear Modulus (GPa) = 18.73691 27.10316 22.92003
#
# Velocity S-wave (km/s) = 2.93343 3.52807 3.24440
# Velocity P-wave (km/s) = 4.53214 6.04359 5.34160
#
# Compressibility (1/GPa) = 0.05065151
#
# Stress axis : x y z
#
# Youngs Moduli (GPa) = 24.87665 51.86044 43.30900
#
# Poissons Ratio (x) = 0.74591 0.13310
# Poissons Ratio (y) = 0.35780 -0.06482
# Poissons Ratio (z) = 0.07645 -0.07762
#
# Static dielectric constant tensor:
#      x y z
#    x 1.793490 0.000000 0.014740 
#    y 0.000000 1.880190 0.000000 
#    z 0.014740 0.000000 1.870130 
# 
# From -- ./inp_files/61885.got.cif
#   From: 2010.05.17/outbox.cif.g08.bks.cpg/sg15_31_cif.got.tgz:61885.got - 2010.06.03 18:47:42.
