data_PCOD9287991
_publ_section_title
;
Structure prediction by ZEFSAII (Michael W. Deem and Ramdas Pophale) SiO2 
 PCOD9287991
Probable space group: C 2/C
;
_chemical_formula_sum "Si O2"
_cell_formula_units_Z 44
_cell_length_a 9.146818
_cell_length_b 20.747313
_cell_length_c 13.398134
_cell_angle_alpha 90.000000
_cell_angle_beta 137.003609
_cell_angle_gamma 90.000000
_cell_volume 1733.924594
_symmetry_space_group_name_H-M "C 2/C"
_symmetry_group_IT_number 15
_symmetry_cell_setting 'monoclinic'
loop_
_space_group_symop_operation_xyz
x,y,z
-x,y,1/2-z
-x,-y,-z
x,-y,1/2+z
1/2+x,1/2+y,z
1/2-x,1/2+y,1/2-z
1/2-x,1/2-y,-z
1/2+x,1/2-y,1/2+z
loop_
_atom_site_type_symbol
_atom_site_label
_atom_site_fract_x
_atom_site_fract_y
_atom_site_fract_z
Si Si1 0.500000 0.791863 0.250000
Si Si2 0.765261 0.388244 0.997570
Si Si3 0.675228 0.351810 0.413690
Si Si4 0.563064 0.765628 0.605351
Si Si5 0.945471 0.522608 0.087070
Si Si6 0.222990 0.881949 0.733848
O O1 0.568302 0.837423 0.375198
O O2 0.714553 0.750753 0.338854
O O3 0.838792 0.457965 0.072572
O O4 0.748312 0.385767 0.868355
O O5 0.524338 0.375903 0.914745
O O6 0.500000 0.377023 0.250000
O O7 0.541083 0.301325 0.412942
O O8 0.789389 0.415509 0.511331
O O9 0.863194 0.306515 0.462089
O O10 0.649728 0.817071 0.731515
O O11 0.000000 0.500000 0.000000
O O12 0.162435 0.552227 0.242133
#
# Coordination Sequence:
#
# PCOD9287991 Si02
#       6
#     4   8   8   8   8   8
#     4  12  26  38  66  98 138 178 208 274 332 398
#     4  10  22  38  61  94 128 166 222 269 327 376
#     4  10  23  41  68  93 131 173 219 277 328 386
#     4  10  24  41  60  98 131 170 221 265 335 391
#     4   9  20  37  64  93 119 167 226 270 312 382
#     4   9  20  39  63  88 123 170 219 275 309 386
#
# _framework density 25.375959000000002
#
# number of rings (size 3 to 8) (size 9 to 14) (size 15 to 20)
#    0.000    2.182    0.000    1.091   15.273    1.455 
#    0.000    3.636    4.000    0.000    0.000    0.000 
#    0.000    0.000    0.000    0.000    0.000    0.000 
#
# Total GULP energy -122939.415054 kJ/mol
# GULP energy per Si atom -5588.155230 kJ/mol
# Density = 2.531820 g / cm^3
# Si number density = 25.375959 Si / 1000 Ang^3
#
#
#
# Elastic Constant Matrix: (Units=GPa)
#
#
# Indices 1 2 3 4 5 6 
#
# 1 91.2507 53.7248 56.2052 0.0000 25.7353 0.0000
# 2 53.7248 177.1029 38.9223 0.0000 13.9342 0.0000
# 3 56.2052 38.9223 133.9185 0.0000 20.4571 0.0000
# 4 0.0000 0.0000 0.0000 43.4516 0.0000 17.5000
# 5 25.7353 13.9342 20.4571 0.0000 42.4123 0.0000
# 6 0.0000 0.0000 0.0000 17.5000 0.0000 25.7241
#
#
#
# Elastic Compliance Matrix: (Units=1/GPa)
#
#
# Indices 1 2 3 4 5 6 
#
# 1 0.018806 -0.003884 -0.005631 0.000000 -0.007419 0.000000
# 2 -0.003884 0.006893 -0.000418 0.000000 0.000294 0.000000
# 3 -0.005631 -0.000418 0.010158 0.000000 -0.001345 0.000000
# 4 0.000000 0.000000 0.000000 0.031699 0.000000 -0.021565
# 5 -0.007419 0.000294 -0.001345 0.000000 0.028633 0.000000
# 6 0.000000 0.000000 0.000000 -0.021565 0.000000 0.053545
#
#
# Mechanical properties :
#
#
# Convention : Reuss Voigt Hill
#
# Bulk Modulus (GPa) = 62.53344 77.77518 70.15431
# Shear Modulus (GPa) = 28.58296 39.21226 33.89761
#
# Velocity S-wave (km/s) = 3.35980 3.93523 3.65885
# Velocity P-wave (km/s) = 6.30454 7.16685 6.74948
#
# Compressibility (1/GPa) = 0.01599144
#
# Stress axis : x y z
#
# Youngs Moduli (GPa) = 53.17436 145.06610 98.44922
#
# Poissons Ratio (x) = 0.56339 0.55434
# Poissons Ratio (y) = 0.20651 0.04119
# Poissons Ratio (z) = 0.29941 0.06070
#
# Static dielectric constant tensor:
#      x y z
#    x 2.180700 0.000000 -0.037560 
#    y 0.000000 1.969230 0.000000 
#    z -0.037560 0.000000 1.960710 
# 
# From -- ./inp_files/240339.got.cif
#   From: 2010.05.17/outbox.cif.g08.bks.cpg/sg15_121_cif.got.tgz:240339.got - 2010.06.03 18:47:42.
