data_PCOD9287251
_publ_section_title
;
Structure prediction by ZEFSAII (Michael W. Deem and Ramdas Pophale) SiO2 
 PCOD9287251
Probable space group: C 2/C
;
_chemical_formula_sum "Si O2"
_cell_formula_units_Z 64
_cell_length_a 17.047669
_cell_length_b 23.181259
_cell_length_c 18.317087
_cell_angle_alpha 90.000000
_cell_angle_beta 31.083953
_cell_angle_gamma 90.000000
_cell_volume 3737.275227
_symmetry_space_group_name_H-M "C 2/C"
_symmetry_group_IT_number 15
_symmetry_cell_setting 'monoclinic'
loop_
_space_group_symop_operation_xyz
x,y,z
-x,y,1/2-z
-x,-y,-z
x,-y,1/2+z
1/2+x,1/2+y,z
1/2-x,1/2+y,1/2-z
1/2-x,1/2-y,-z
1/2+x,1/2-y,1/2+z
loop_
_atom_site_type_symbol
_atom_site_label
_atom_site_fract_x
_atom_site_fract_y
_atom_site_fract_z
Si Si1 0.108747 0.551355 0.439372
Si Si2 0.414988 0.993478 0.890789
Si Si3 0.952764 0.875575 0.452932
Si Si4 0.443716 0.551756 0.098221
Si Si5 0.858889 0.688000 0.310351
Si Si6 0.140583 0.178053 0.692668
Si Si7 0.533138 0.121497 0.063271
Si Si8 0.080256 0.011106 0.609709
O O1 0.112456 0.540859 0.523495
O O2 0.274207 0.546171 0.268283
O O3 0.000000 0.500000 0.500000
O O4 0.021579 0.606014 0.474591
O O5 0.500000 0.013368 0.750000
O O6 0.490233 0.936746 0.868788
O O7 0.252370 0.975339 0.990054
O O8 0.951435 0.893180 0.538851
O O9 0.789497 0.850231 0.560854
O O10 0.986067 0.933703 0.380159
O O11 0.075461 0.830562 0.325976
O O12 0.555684 0.544092 0.077463
O O13 0.500000 0.500000 0.000000
O O14 0.822044 0.755042 0.350912
O O15 0.000000 0.672942 0.250000
O O16 0.926592 0.672040 0.177943
O O17 0.292168 0.140202 0.566345
O O18 0.000000 0.162807 0.750000
O O19 0.000000 0.002329 0.750000
#
# Coordination Sequence:
#
# PCOD9287251 Si02
#       8
#     8   8   8   8   8   8   8   8
#     4  10  22  36  50  76 106 137 175 216 262 314
#     4  11  22  33  53  78 106 139 178 209 259 319
#     4  11  21  34  52  74 104 141 180 209 262 312
#     4  10  22  35  53  76 104 137 176 219 258 312
#     4  11  21  35  52  75 106 140 183 224 258 295
#     4  11  23  35  51  77 105 141 185 228 251 297
#     4  11  21  36  54  72 110 147 174 214 269 309
#     4  11  20  33  53  75 106 138 175 217 253 309
#
# _framework density 17.124775
#
# number of rings (size 3 to 8) (size 9 to 14) (size 15 to 20)
#    0.000    1.250    2.500    5.250   10.500    2.000 
#    0.000    0.000    0.000    0.000    0.000    0.000 
#    0.000   20.000    0.000    0.000    0.000    0.000 
#
# Total GULP energy -178337.689618 kJ/mol
# GULP energy per Si atom -5573.052801 kJ/mol
# Density = 1.708580 g / cm^3
# Si number density = 17.124775 Si / 1000 Ang^3
#
#
#
# Elastic Constant Matrix: (Units=GPa)
#
#
# Indices 1 2 3 4 5 6 
#
# 1 63.5483 27.2468 22.0455 -0.0032 17.5353 0.0003
# 2 27.2468 47.9352 16.2625 -0.0048 9.3530 0.0031
# 3 22.0455 16.2625 97.4608 -0.0157 19.6977 0.0031
# 4 -0.0032 -0.0048 -0.0157 22.5360 0.0080 -2.7306
# 5 17.5353 9.3530 19.6977 0.0080 29.4231 -0.0004
# 6 0.0003 0.0031 0.0031 -2.7306 -0.0004 22.9131
#
#
#
# Elastic Compliance Matrix: (Units=1/GPa)
#
#
# Indices 1 2 3 4 5 6 
#
# 1 0.023649 -0.011048 -0.001581 0.000004 -0.009524 0.000002
# 2 -0.011048 0.028005 -0.001972 0.000003 -0.000998 -0.000003
# 3 -0.001581 -0.001972 0.012294 0.000010 -0.006661 0.000000
# 4 0.000004 0.000003 0.000010 0.045024 -0.000022 0.005365
# 5 -0.009524 -0.000998 -0.006661 -0.000022 0.044439 -0.000001
# 6 0.000002 -0.000003 0.000000 0.005365 -0.000001 0.044283
#
#
# Mechanical properties :
#
#
# Convention : Reuss Voigt Hill
#
# Bulk Modulus (GPa) = 28.78087 37.78377 33.28232
# Shear Modulus (GPa) = 20.96630 24.53372 22.75001
#
# Velocity S-wave (km/s) = 3.50283 3.78914 3.64879
# Velocity P-wave (km/s) = 5.76219 6.42301 6.10155
#
# Compressibility (1/GPa) = 0.03474530
#
# Stress axis : x y z
#
# Youngs Moduli (GPa) = 42.28426 35.70788 81.34377
#
# Poissons Ratio (x) = 0.39450 0.12861
# Poissons Ratio (y) = 0.46715 0.16044
# Poissons Ratio (z) = 0.06686 0.07043
#
# Static dielectric constant tensor:
#      x y z
#    x 1.630010 0.000000 0.029470 
#    y 0.000000 1.454220 -0.000030 
#    z 0.029470 -0.000030 1.612260 
# 
# From -- ./inp_files/63845.got.cif
#   From: 2010.05.17/outbox.cif.g08.bks.cpg/sg15_32_cif.got.tgz:63845.got - 2010.06.03 18:47:42.
