data_PCOD9287671
_publ_section_title
;
Structure prediction by ZEFSAII (Michael W. Deem and Ramdas Pophale) SiO2 
 PCOD9287671
Probable space group: C 2/C
;
_chemical_formula_sum "Si O2"
_cell_formula_units_Z 36
_cell_length_a 22.039936
_cell_length_b 7.719950
_cell_length_c 8.086657
_cell_angle_alpha 90.000000
_cell_angle_beta 108.550324
_cell_angle_gamma 90.000000
_cell_volume 1304.435488
_symmetry_space_group_name_H-M "C 2/C"
_symmetry_group_IT_number 15
_symmetry_cell_setting 'monoclinic'
loop_
_space_group_symop_operation_xyz
x,y,z
-x,y,1/2-z
-x,-y,-z
x,-y,1/2+z
1/2+x,1/2+y,z
1/2-x,1/2+y,1/2-z
1/2-x,1/2-y,-z
1/2+x,1/2-y,1/2+z
loop_
_atom_site_type_symbol
_atom_site_label
_atom_site_fract_x
_atom_site_fract_y
_atom_site_fract_z
Si Si1 0.921468 0.830718 0.370988
Si Si2 0.871168 0.648139 0.024326
Si Si3 0.203092 0.041066 0.167487
Si Si4 0.672465 0.840076 0.335540
Si Si5 0.500000 0.628053 0.250000
O O1 0.915582 0.696601 0.215358
O O2 0.961357 0.780419 0.568469
O O3 0.852313 0.898331 0.371960
O O4 0.953159 0.997275 0.309299
O O5 0.848927 0.452362 0.030448
O O6 0.817441 0.803280 0.975746
O O7 0.887675 0.664077 0.845660
O O8 0.200416 0.147261 0.340657
O O9 0.271131 0.959023 0.193213
#
# Coordination Sequence:
#
# PCOD9287671 Si02
#       5
#     8   8   8   8   4
#     4  11  21  42  65  94 121 153 219 253 318 348
#     4  10  23  40  57  94 127 165 203 246 297 376
#     4  10  22  37  62  93 127 166 199 249 295 377
#     4  10  22  38  61  92 135 163 198 237 307 371
#     4  10  22  38  70  92 110 162 206 284 294 358
#
# _framework density 27.598147999999998
#
# number of rings (size 3 to 8) (size 9 to 14) (size 15 to 20)
#    1.333    0.444    2.222    2.000    3.111    2.667 
#    0.000    0.000    0.000   22.667    0.000    0.000 
#    0.000    0.000    0.000    0.000    0.000    0.000 
#
# Total GULP energy -100562.282695 kJ/mol
# GULP energy per Si atom -5586.793483 kJ/mol
# Density = 2.753533 g / cm^3
# Si number density = 27.598148 Si / 1000 Ang^3
#
#
#
# Elastic Constant Matrix: (Units=GPa)
#
#
# Indices 1 2 3 4 5 6 
#
# 1 68.9138 14.1010 6.8217 0.0000 3.9704 0.0000
# 2 14.1010 138.9584 28.0453 0.0000 16.8791 0.0000
# 3 6.8217 28.0453 219.9439 0.0000 17.8255 0.0000
# 4 0.0000 0.0000 0.0000 60.3069 0.0000 -6.5992
# 5 3.9704 16.8791 17.8255 0.0000 24.9068 0.0000
# 6 0.0000 0.0000 0.0000 -6.5992 0.0000 31.4380
#
#
#
# Elastic Compliance Matrix: (Units=1/GPa)
#
#
# Indices 1 2 3 4 5 6 
#
# 1 0.014875 -0.001308 -0.000185 0.000000 -0.001352 0.000000
# 2 -0.001308 0.008033 -0.000594 0.000000 -0.004811 0.000000
# 3 -0.000185 -0.000594 0.004876 0.000000 -0.003058 0.000000
# 4 0.000000 0.000000 0.000000 0.016972 0.000000 0.003563
# 5 -0.001352 -0.004811 -0.003058 0.000000 0.045814 0.000000
# 6 0.000000 0.000000 0.000000 0.003563 0.000000 0.032557
#
#
# Mechanical properties :
#
#
# Convention : Reuss Voigt Hill
#
# Bulk Modulus (GPa) = 42.35398 58.41692 50.38545
# Shear Modulus (GPa) = 36.99062 48.58688 42.78875
#
# Velocity S-wave (km/s) = 3.66502 4.20040 3.94181
# Velocity P-wave (km/s) = 5.76974 6.68860 6.24609
#
# Compressibility (1/GPa) = 0.02361053
#
# Stress axis : x y z
#
# Youngs Moduli (GPa) = 67.22822 124.48163 205.09077
#
# Poissons Ratio (x) = 0.16280 0.03794
# Poissons Ratio (y) = 0.08792 0.12180
# Poissons Ratio (z) = 0.01244 0.07393
#
# Static dielectric constant tensor:
#      x y z
#    x 2.171690 0.000000 -0.031830 
#    y 0.000000 2.127650 0.000000 
#    z -0.031830 0.000000 2.269390 
# 
# From -- ./inp_files/64507.got.cif
#   From: 2010.05.17/outbox.cif.g08.bks.cpg/sg15_33_cif.got.tgz:64507.got - 2010.06.03 18:47:42.
