data_PCOD9287418
_publ_section_title
;
Structure prediction by ZEFSAII (Michael W. Deem and Ramdas Pophale) SiO2 
 PCOD9287418
Probable space group: C 2/C
;
_chemical_formula_sum "Si O2"
_cell_formula_units_Z 56
_cell_length_a 10.515577
_cell_length_b 31.043078
_cell_length_c 13.446202
_cell_angle_alpha 90.000000
_cell_angle_beta 32.659127
_cell_angle_gamma 90.000000
_cell_volume 2368.653580
_symmetry_space_group_name_H-M "C 2/C"
_symmetry_group_IT_number 15
_symmetry_cell_setting 'monoclinic'
loop_
_space_group_symop_operation_xyz
x,y,z
-x,y,1/2-z
-x,-y,-z
x,-y,1/2+z
1/2+x,1/2+y,z
1/2-x,1/2+y,1/2-z
1/2-x,1/2-y,-z
1/2+x,1/2-y,1/2+z
loop_
_atom_site_type_symbol
_atom_site_label
_atom_site_fract_x
_atom_site_fract_y
_atom_site_fract_z
Si Si1 0.336541 0.788217 0.662947
Si Si2 0.844352 0.055508 0.201196
Si Si3 0.239706 0.161778 0.541049
Si Si4 0.602006 0.529228 0.549561
Si Si5 0.101044 0.300270 0.291444
Si Si6 0.481730 0.645172 0.024210
Si Si7 0.158828 0.571927 0.921107
O O1 0.558449 0.802736 0.583658
O O2 0.276923 0.738129 0.707348
O O3 0.405022 0.801199 0.505528
O O4 0.114570 0.815187 0.847109
O O5 0.947065 0.102426 0.110802
O O6 0.610379 0.059875 0.421404
O O7 0.028524 0.019950 0.114598
O O8 0.778423 0.037080 0.134791
O O9 0.176756 0.145347 0.472064
O O10 0.322339 0.121009 0.553233
O O11 0.000000 0.177763 0.750000
O O12 0.357957 0.557747 0.711371
O O13 0.755741 0.545663 0.538484
O O14 0.000000 0.289492 0.250000
O O15 0.252634 0.343660 0.181507
#
# Coordination Sequence:
#
# PCOD9287418 Si02
#       7
#     8   8   8   8   8   8   8
#     4  12  26  45  74 102 133 184 229 287 347 419
#     4  11  22  39  63  94 132 177 225 270 340 405
#     4  12  22  42  70 107 143 174 230 292 358 409
#     4  10  22  36  60  94 130 176 225 274 325 400
#     4  12  28  51  72  98 137 186 232 283 352 421
#     4  12  25  43  71 108 140 178 232 291 354 421
#     4  11  20  39  65  91 132 182 217 279 341 397
#
# _framework density 23.642123000000002
#
# number of rings (size 3 to 8) (size 9 to 14) (size 15 to 20)
#    0.000    0.571    7.143    1.714    0.000    0.571 
#    2.571    5.714    0.000    0.000    0.000    0.000 
#    0.000    0.000    0.000    0.000    0.000    0.000 
#
# Total GULP energy -156791.620141 kJ/mol
# GULP energy per Si atom -5599.700719 kJ/mol
# Density = 2.358831 g / cm^3
# Si number density = 23.642123 Si / 1000 Ang^3
#
#
#
# Elastic Constant Matrix: (Units=GPa)
#
#
# Indices 1 2 3 4 5 6 
#
# 1 37.0618 18.8346 0.9058 0.0000 5.0163 0.0000
# 2 18.8346 105.6278 8.7779 0.0000 -16.0697 0.0000
# 3 0.9058 8.7779 103.7812 0.0000 13.2834 0.0000
# 4 0.0000 0.0000 0.0000 21.2590 0.0000 1.4937
# 5 5.0163 -16.0697 13.2834 0.0000 29.2042 0.0000
# 6 0.0000 0.0000 0.0000 1.4937 0.0000 24.3302
#
#
#
# Elastic Compliance Matrix: (Units=1/GPa)
#
#
# Indices 1 2 3 4 5 6 
#
# 1 0.032131 -0.007448 0.001678 0.000000 -0.010381 0.000000
# 2 -0.007448 0.012349 -0.002137 0.000000 0.009047 0.000000
# 3 0.001678 -0.002137 0.010607 0.000000 -0.006289 0.000000
# 4 0.000000 0.000000 0.000000 0.047243 0.000000 -0.002900
# 5 -0.010381 0.009047 -0.006289 0.000000 0.043863 0.000000
# 6 0.000000 0.000000 0.000000 -0.002900 0.000000 0.041279
#
#
# Mechanical properties :
#
#
# Convention : Reuss Voigt Hill
#
# Bulk Modulus (GPa) = 25.46318 33.72305 29.59311
# Shear Modulus (GPa) = 23.10778 29.48885 26.29831
#
# Velocity S-wave (km/s) = 3.12973 3.53555 3.33881
# Velocity P-wave (km/s) = 4.88405 5.56433 5.23525
#
# Compressibility (1/GPa) = 0.03927239
#
# Stress axis : x y z
#
# Youngs Moduli (GPa) = 31.12257 80.97670 94.27977
#
# Poissons Ratio (x) = 0.60312 -0.15822
# Poissons Ratio (y) = 0.23180 0.20152
# Poissons Ratio (z) = -0.05223 0.17308
#
# Static dielectric constant tensor:
#      x y z
#    x 1.875940 0.000000 0.002470 
#    y 0.000000 1.888920 0.000000 
#    z 0.002470 0.000000 1.904060 
# 
# From -- ./inp_files/149267.got.cif
#   From: 2010.05.17/outbox.cif.g08.bks.cpg/sg15_75_cif.got.tgz:149267.got - 2010.06.03 18:47:42.
