data_PCOD9287524
_publ_section_title
;
Structure prediction by ZEFSAII (Michael W. Deem and Ramdas Pophale) SiO2 
 PCOD9287524
Probable space group: C 2/C
;
_chemical_formula_sum "Si O2"
_cell_formula_units_Z 36
_cell_length_a 20.867905
_cell_length_b 13.719238
_cell_length_c 8.426296
_cell_angle_alpha 90.000000
_cell_angle_beta 139.202449
_cell_angle_gamma 90.000000
_cell_volume 1576.220133
_symmetry_space_group_name_H-M "C 2/C"
_symmetry_group_IT_number 15
_symmetry_cell_setting 'monoclinic'
loop_
_space_group_symop_operation_xyz
x,y,z
-x,y,1/2-z
-x,-y,-z
x,-y,1/2+z
1/2+x,1/2+y,z
1/2-x,1/2+y,1/2-z
1/2-x,1/2-y,-z
1/2+x,1/2-y,1/2+z
loop_
_atom_site_type_symbol
_atom_site_label
_atom_site_fract_x
_atom_site_fract_y
_atom_site_fract_z
Si Si1 0.404498 0.868641 0.486714
Si Si2 0.500000 0.578317 0.250000
Si Si3 0.365206 0.452794 0.222519
Si Si4 0.163329 0.441092 0.458898
Si Si5 0.270764 0.291581 0.864575
O O1 0.406735 0.899505 0.308907
O O2 0.316048 0.792969 0.343433
O O3 0.383539 0.968106 0.540545
O O4 0.500000 0.824652 0.750000
O O5 0.435461 0.528983 0.267325
O O6 0.590278 0.605696 0.541677
O O7 0.265044 0.511601 0.079237
O O8 0.348094 0.375967 0.049890
O O9 0.186163 0.351611 0.618895
O O10 0.250000 0.250000 0.000000
#
# Coordination Sequence:
#
# PCOD9287524 Si02
#       5
#     8   4   8   8   8
#     4  12  26  44  71 105 136 182 239 289 340 410
#     4  10  22  36  68  96 130 168 214 284 340 408
#     4  11  21  41  66  95 132 175 220 272 353 403
#     4  12  23  48  72  93 142 190 222 284 357 414
#     4  12  25  44  68 100 132 179 237 280 341 421
#
# _framework density 22.839449999999999
#
# number of rings (size 3 to 8) (size 9 to 14) (size 15 to 20)
#    0.000    0.444    6.667    1.333    1.556    0.000 
#    4.000    0.000    0.000    0.000    0.000    0.000 
#    0.000    0.000    0.000    0.000    0.000    0.000 
#
# Total GULP energy -100326.027850 kJ/mol
# GULP energy per Si atom -5573.668214 kJ/mol
# Density = 2.278747 g / cm^3
# Si number density = 22.839450 Si / 1000 Ang^3
#
#
#
# Elastic Constant Matrix: (Units=GPa)
#
#
# Indices 1 2 3 4 5 6 
#
# 1 37.7692 -7.7452 -2.5110 0.0000 -1.1983 0.0000
# 2 -7.7452 34.9835 -10.5946 0.0000 1.6601 0.0000
# 3 -2.5110 -10.5946 99.5328 0.0000 -26.6488 0.0000
# 4 0.0000 0.0000 0.0000 37.6685 0.0000 -12.2702
# 5 -1.1983 1.6601 -26.6488 0.0000 41.2263 0.0000
# 6 0.0000 0.0000 0.0000 -12.2702 0.0000 24.3164
#
#
#
# Elastic Compliance Matrix: (Units=1/GPa)
#
#
# Indices 1 2 3 4 5 6 
#
# 1 0.028032 0.006696 0.001894 0.000000 0.001769 0.000000
# 2 0.006696 0.031172 0.003873 0.000000 0.001443 0.000000
# 3 0.001894 0.003873 0.012673 0.000000 0.008091 0.000000
# 4 0.000000 0.000000 0.000000 0.031769 0.000000 0.016031
# 5 0.001769 0.001443 0.008091 0.000000 0.029480 0.000000
# 6 0.000000 0.000000 0.000000 0.016031 0.000000 0.049214
#
#
# Mechanical properties :
#
#
# Convention : Reuss Voigt Hill
#
# Bulk Modulus (GPa) = 10.33038 14.50931 12.41985
# Shear Modulus (GPa) = 26.35990 33.51799 29.93894
#
# Velocity S-wave (km/s) = 3.40095 3.83501 3.62449
# Velocity P-wave (km/s) = 4.46708 5.09670 4.79224
#
# Compressibility (1/GPa) = 0.09680188
#
# Stress axis : x y z
#
# Youngs Moduli (GPa) = 35.67391 32.08023 78.90595
#
# Poissons Ratio (x) = -0.21480 -0.14941
# Poissons Ratio (y) = -0.23886 -0.30563
# Poissons Ratio (z) = -0.06755 -0.12426
#
# Static dielectric constant tensor:
#      x y z
#    x 1.810550 0.000000 0.018990 
#    y 0.000000 1.888180 0.000000 
#    z 0.018990 0.000000 1.798320 
# 
# From -- ./inp_files/37568.got.cif
#   From: 2010.05.17/outbox.cif.g08.bks.cpg/sg15_19_cif.got.tgz:37568.got - 2010.06.03 18:47:42.
