data_PCOD9287030
_publ_section_title
;
Structure prediction by ZEFSAII (Michael W. Deem and Ramdas Pophale) SiO2 
 PCOD9287030
Probable space group: C 2/C
;
_chemical_formula_sum "Si O2"
_cell_formula_units_Z 64
_cell_length_a 16.750667
_cell_length_b 23.554594
_cell_length_c 14.355428
_cell_angle_alpha 90.000000
_cell_angle_beta 27.110285
_cell_angle_gamma 90.000000
_cell_volume 2581.115153
_symmetry_space_group_name_H-M "C 2/C"
_symmetry_group_IT_number 15
_symmetry_cell_setting 'monoclinic'
loop_
_space_group_symop_operation_xyz
x,y,z
-x,y,1/2-z
-x,-y,-z
x,-y,1/2+z
1/2+x,1/2+y,z
1/2-x,1/2+y,1/2-z
1/2-x,1/2-y,-z
1/2+x,1/2-y,1/2+z
loop_
_atom_site_type_symbol
_atom_site_label
_atom_site_fract_x
_atom_site_fract_y
_atom_site_fract_z
Si Si1 0.405206 0.785260 0.444622
Si Si2 0.520721 0.661567 0.328043
Si Si3 0.092522 0.508234 0.246426
Si Si4 0.271009 0.984855 0.214176
Si Si5 0.465559 0.802844 0.983613
Si Si6 0.552159 0.587558 0.472320
Si Si7 0.681873 0.131480 0.120689
Si Si8 0.400128 0.316149 0.234641
O O1 0.500000 0.801672 0.250000
O O2 0.396011 0.716628 0.454111
O O3 0.214337 0.812528 0.642008
O O4 0.504166 0.799396 0.437718
O O5 0.500000 0.632229 0.250000
O O6 0.495123 0.620436 0.439574
O O7 0.194505 0.468329 0.213516
O O8 0.208404 0.563068 0.096955
O O9 0.000000 0.484072 0.250000
O O10 0.933067 0.528017 0.479503
O O11 0.225113 0.051783 0.270172
O O12 0.101027 0.956828 0.346995
O O13 0.612201 0.844456 0.790549
O O14 0.508558 0.742992 0.886802
O O15 0.269617 0.819877 0.157745
O O16 0.536623 0.633732 0.569424
O O17 0.500000 0.135447 0.250000
O O18 0.813800 0.171509 0.924726
#
# Coordination Sequence:
#
# PCOD9287030 Si02
#       8
#     8   8   8   8   8   8   8   8
#     4  11  23  40  63  92 131 177 220 264 324 384
#     4  11  24  41  62  91 132 173 221 267 323 395
#     4  10  21  45  73  97 127 168 218 273 341 400
#     4  10  24  44  69  97 129 166 221 282 333 397
#     4  11  22  37  65  94 136 175 220 271 317 390
#     4  11  24  43  64  93 135 171 218 277 338 383
#     4   9  20  38  63  96 131 168 211 266 329 394
#     4  11  23  40  64  98 137 181 218 268 327 396
#
# _framework density 24.795483999999998
#
# number of rings (size 3 to 8) (size 9 to 14) (size 15 to 20)
#    0.000    1.500    1.250    4.875    3.500    1.000 
#    0.000    6.875    0.000    0.000    0.000    0.000 
#    0.000    0.000    0.000    0.000    0.000    0.000 
#
# Total GULP energy -179035.697337 kJ/mol
# GULP energy per Si atom -5594.865542 kJ/mol
# Density = 2.473905 g / cm^3
# Si number density = 24.795484 Si / 1000 Ang^3
#
#
#
# Elastic Constant Matrix: (Units=GPa)
#
#
# Indices 1 2 3 4 5 6 
#
# 1 128.6396 11.0845 25.4618 -0.0260 38.8161 0.0332
# 2 11.0845 57.6530 32.7630 -0.0059 0.8730 0.0084
# 3 25.4618 32.7630 109.3240 -0.0595 -0.9075 0.0494
# 4 -0.0260 -0.0059 -0.0595 27.8253 0.0445 -2.4832
# 5 38.8161 0.8730 -0.9075 0.0445 51.4911 -0.0503
# 6 0.0332 0.0084 0.0494 -2.4832 -0.0503 21.1479
#
#
#
# Elastic Compliance Matrix: (Units=1/GPa)
#
#
# Indices 1 2 3 4 5 6 
#
# 1 0.010754 -0.000582 -0.002398 0.000015 -0.008140 -0.000029
# 2 -0.000582 0.020948 -0.006143 -0.000009 -0.000025 0.000006
# 3 -0.002398 -0.006143 0.011564 0.000017 0.002116 -0.000014
# 4 0.000015 -0.000009 0.000017 0.036319 -0.000038 0.004264
# 5 -0.008140 -0.000025 0.002116 -0.000038 0.025595 0.000064
# 6 -0.000029 0.000006 -0.000014 0.004264 0.000064 0.047787
#
#
# Mechanical properties :
#
#
# Convention : Reuss Voigt Hill
#
# Bulk Modulus (GPa) = 39.96474 48.24836 44.10655
# Shear Modulus (GPa) = 27.84697 35.18001 31.51349
#
# Velocity S-wave (km/s) = 3.35485 3.77079 3.56889
# Velocity P-wave (km/s) = 5.58207 6.20155 5.89995
#
# Compressibility (1/GPa) = 0.02502205
#
# Stress axis : x y z
#
# Youngs Moduli (GPa) = 92.98441 47.73707 86.47488
#
# Poissons Ratio (x) = 0.02777 0.20736
# Poissons Ratio (y) = 0.05409 0.53118
# Poissons Ratio (z) = 0.22297 0.29323
#
# Static dielectric constant tensor:
#      x y z
#    x 2.077400 -0.000020 -0.054330 
#    y -0.000020 1.964840 0.000020 
#    z -0.054330 0.000020 1.939310 
# 
# From -- ./inp_files/164209.got.cif
#   From: 2010.05.17/outbox.cif.g08.bks.cpg/sg15_83_cif.got.tgz:164209.got - 2010.06.03 18:47:42.
