data_PCOD9287768
_publ_section_title
;
Structure prediction by ZEFSAII (Michael W. Deem and Ramdas Pophale) SiO2 
 PCOD9287768
Probable space group: C 2/C
;
_chemical_formula_sum "Si O2"
_cell_formula_units_Z 60
_cell_length_a 27.225996
_cell_length_b 20.864755
_cell_length_c 15.745131
_cell_angle_alpha 90.000000
_cell_angle_beta 160.775299
_cell_angle_gamma 90.000000
_cell_volume 2945.102767
_symmetry_space_group_name_H-M "C 2/C"
_symmetry_group_IT_number 15
_symmetry_cell_setting 'monoclinic'
loop_
_space_group_symop_operation_xyz
x,y,z
-x,y,1/2-z
-x,-y,-z
x,-y,1/2+z
1/2+x,1/2+y,z
1/2-x,1/2+y,1/2-z
1/2-x,1/2-y,-z
1/2+x,1/2-y,1/2+z
loop_
_atom_site_type_symbol
_atom_site_label
_atom_site_fract_x
_atom_site_fract_y
_atom_site_fract_z
Si Si1 0.210910 0.532094 0.015721
Si Si2 0.500000 0.798251 0.750000
Si Si3 0.141309 0.521067 0.096749
Si Si4 0.383658 0.873701 0.423470
Si Si5 0.841563 0.222289 0.034974
Si Si6 0.354760 0.668123 0.242655
Si Si7 0.291619 0.085695 0.113963
Si Si8 0.392578 0.705347 0.716419
O O1 0.251824 0.469350 0.026010
O O2 0.034011 0.537137 0.704909
O O3 0.219153 0.529123 0.132058
O O4 0.307089 0.594804 0.150240
O O5 0.380194 0.847456 0.514842
O O6 0.481263 0.750045 0.796895
O O7 0.166241 0.446729 0.159867
O O8 0.184359 0.558121 0.252568
O O9 0.555318 0.880216 0.670450
O O10 0.281864 0.826689 0.202835
O O11 0.866329 0.203434 0.172341
O O12 0.000000 0.216011 0.250000
O O13 0.776968 0.294179 0.922672
O O14 0.505544 0.683816 0.539092
O O15 0.167494 0.139618 0.919417
O O16 0.250000 0.750000 0.500000
#
# Coordination Sequence:
#
# PCOD9287768 Si02
#       8
#     8   4   8   8   8   8   8   8
#     4  10  22  41  64 100 131 176 219 280 327 400
#     4  12  24  42  70  96 136 172 230 268 342 408
#     4  10  22  37  72  98 130 176 224 271 338 399
#     4  11  21  44  67 101 130 173 229 275 322 420
#     4  11  25  41  68  94 131 178 216 280 341 392
#     4  11  25  45  62  99 136 167 230 278 330 407
#     4  11  22  43  70  98 137 178 222 277 339 400
#     4  12  27  43  68  97 134 181 220 281 338 401
#
# _framework density 20.372803000000001
#
# number of rings (size 3 to 8) (size 9 to 14) (size 15 to 20)
#    0.000    1.067    2.667    4.800    5.600    1.600 
#    0.000    1.333    1.467    0.000    0.000    0.000 
#    0.000    0.000    0.000    0.000    0.000    0.000 
#
# Total GULP energy -167317.595935 kJ/mol
# GULP energy per Si atom -5577.253198 kJ/mol
# Density = 2.032643 g / cm^3
# Si number density = 20.372803 Si / 1000 Ang^3
#
#
#
# Elastic Constant Matrix: (Units=GPa)
#
#
# Indices 1 2 3 4 5 6 
#
# 1 59.9020 26.1904 26.3228 0.0000 -23.7090 0.0000
# 2 26.1904 127.0289 57.4958 0.0000 -11.5525 0.0000
# 3 26.3228 57.4958 75.1356 0.0000 -22.0533 0.0000
# 4 0.0000 0.0000 0.0000 25.3752 0.0000 -13.5152
# 5 -23.7090 -11.5525 -22.0533 0.0000 32.7264 0.0000
# 6 0.0000 0.0000 0.0000 -13.5152 0.0000 19.5725
#
#
#
# Elastic Compliance Matrix: (Units=1/GPa)
#
#
# Indices 1 2 3 4 5 6 
#
# 1 0.025065 -0.002841 -0.001959 0.000000 0.015835 0.000000
# 2 -0.002841 0.012524 -0.009842 0.000000 -0.004269 0.000000
# 3 -0.001959 -0.009842 0.025044 0.000000 0.011983 0.000000
# 4 0.000000 0.000000 0.000000 0.062334 0.000000 0.043043
# 5 0.015835 -0.004269 0.011983 0.000000 0.048596 0.000000
# 6 0.000000 0.000000 0.000000 0.043043 0.000000 0.080814
#
#
# Mechanical properties :
#
#
# Convention : Reuss Voigt Hill
#
# Bulk Modulus (GPa) = 29.98589 53.56494 41.77541
# Shear Modulus (GPa) = 16.96204 25.67198 21.31701
#
# Velocity S-wave (km/s) = 2.88858 3.55365 3.23824
# Velocity P-wave (km/s) = 5.08682 6.57171 5.87636
#
# Compressibility (1/GPa) = 0.03334902
#
# Stress axis : x y z
#
# Youngs Moduli (GPa) = 39.89704 79.84541 39.92994
#
# Poissons Ratio (x) = 0.22682 0.07824
# Poissons Ratio (y) = 0.11334 0.39298
# Poissons Ratio (z) = 0.07817 0.78581
#
# Static dielectric constant tensor:
#      x y z
#    x 1.774830 0.000000 0.016750 
#    y 0.000000 1.763380 0.000000 
#    z 0.016750 0.000000 1.697860 
# 
# From -- ./inp_files/179115.got.cif
#   From: 2010.05.17/outbox.cif.g08.bks.cpg/sg15_90_cif.got.tgz:179115.got - 2010.06.03 18:47:42.
