data_PCOD9287379
_publ_section_title
;
Structure prediction by ZEFSAII (Michael W. Deem and Ramdas Pophale) SiO2 
 PCOD9287379
Probable space group: C 2/C
;
_chemical_formula_sum "Si O2"
_cell_formula_units_Z 60
_cell_length_a 20.588160
_cell_length_b 17.211392
_cell_length_c 11.953169
_cell_angle_alpha 90.000000
_cell_angle_beta 38.934202
_cell_angle_gamma 90.000000
_cell_volume 2661.777672
_symmetry_space_group_name_H-M "C 2/C"
_symmetry_group_IT_number 15
_symmetry_cell_setting 'monoclinic'
loop_
_space_group_symop_operation_xyz
x,y,z
-x,y,1/2-z
-x,-y,-z
x,-y,1/2+z
1/2+x,1/2+y,z
1/2-x,1/2+y,1/2-z
1/2-x,1/2-y,-z
1/2+x,1/2-y,1/2+z
loop_
_atom_site_type_symbol
_atom_site_label
_atom_site_fract_x
_atom_site_fract_y
_atom_site_fract_z
Si Si1 0.447218 0.344005 0.121743
Si Si2 0.500000 0.543103 0.750000
Si Si3 0.096426 0.276001 0.457551
Si Si4 0.582900 0.280072 0.550557
Si Si5 0.722415 0.165918 0.984746
Si Si6 0.762268 0.970053 0.606351
Si Si7 0.270069 0.151189 0.173111
Si Si8 0.286067 0.139438 0.883937
O O1 0.488375 0.406726 0.152129
O O2 0.325239 0.353723 0.276743
O O3 0.484227 0.261139 0.120902
O O4 0.478025 0.338334 0.951215
O O5 0.615894 0.509774 0.579404
O O6 0.131727 0.325840 0.516308
O O7 0.171251 0.200005 0.349244
O O8 0.121734 0.318116 0.306896
O O9 0.500000 0.252929 0.750000
O O10 0.632856 0.205246 0.422589
O O11 0.680559 0.322914 0.475945
O O12 0.750000 0.250000 0.000000
O O13 0.722382 0.098966 0.077911
O O14 0.741582 0.932951 0.755781
O O15 0.705530 0.049689 0.658811
O O16 0.279212 0.148344 0.026594
#
# Coordination Sequence:
#
# PCOD9287379 Si02
#       8
#     8   4   8   8   8   8   8   8
#     4  11  19  36  64  91 118 159 207 259 300 354
#     4  10  22  36  58  94 130 158 204 246 314 388
#     4  11  20  40  63  94 119 164 214 256 302 368
#     4  11  22  38  64  94 120 162 213 256 306 370
#     4  11  20  39  62  94 123 159 216 253 306 366
#     4  11  24  39  61  92 130 171 193 260 323 375
#     4  11  21  42  61  86 125 165 212 253 301 367
#     4  11  25  38  61  93 133 164 198 257 319 384
#
# _framework density 22.541326000000002
#
# number of rings (size 3 to 8) (size 9 to 14) (size 15 to 20)
#    0.000    1.067    5.333    4.000    2.800    0.000 
#    0.000    1.333    0.000    7.200    0.000    0.000 
#    0.000    0.000    0.000    0.000    0.000    0.000 
#
# Total GULP energy -167486.765342 kJ/mol
# GULP energy per Si atom -5582.892178 kJ/mol
# Density = 2.249002 g / cm^3
# Si number density = 22.541326 Si / 1000 Ang^3
#
#
#
# Elastic Constant Matrix: (Units=GPa)
#
#
# Indices 1 2 3 4 5 6 
#
# 1 73.6800 -10.6045 -1.9212 0.0000 11.6603 0.0000
# 2 -10.6045 77.5152 -3.9775 0.0000 -1.5932 0.0000
# 3 -1.9212 -3.9775 58.1715 0.0000 5.0490 0.0000
# 4 0.0000 0.0000 0.0000 18.0119 0.0000 2.4245
# 5 11.6603 -1.5932 5.0490 0.0000 26.0061 0.0000
# 6 0.0000 0.0000 0.0000 2.4245 0.0000 9.3240
#
#
#
# Elastic Compliance Matrix: (Units=1/GPa)
#
#
# Indices 1 2 3 4 5 6 
#
# 1 0.014968 0.001970 0.001222 0.000000 -0.006828 0.000000
# 2 0.001970 0.013216 0.000992 0.000000 -0.000266 0.000000
# 3 0.001222 0.000992 0.017638 0.000000 -0.003911 0.000000
# 4 0.000000 0.000000 0.000000 0.057533 0.000000 -0.014960
# 5 -0.006828 -0.000266 -0.003911 0.000000 0.042257 0.000000
# 6 0.000000 0.000000 0.000000 -0.014960 0.000000 0.111140
#
#
# Mechanical properties :
#
#
# Convention : Reuss Voigt Hill
#
# Bulk Modulus (GPa) = 18.45390 19.59557 19.02473
# Shear Modulus (GPa) = 18.76541 25.72639 22.24590
#
# Velocity S-wave (km/s) = 2.88842 3.38198 3.14490
# Velocity P-wave (km/s) = 4.39641 4.89514 4.65246
#
# Compressibility (1/GPa) = 0.05418910
#
# Stress axis : x y z
#
# Youngs Moduli (GPa) = 66.80860 75.66797 56.69509
#
# Poissons Ratio (x) = -0.14907 -0.06926
# Poissons Ratio (y) = -0.13162 -0.05623
# Poissons Ratio (z) = -0.08162 -0.07505
#
# Static dielectric constant tensor:
#      x y z
#    x 1.938270 0.000000 -0.013010 
#    y 0.000000 1.825410 0.000000 
#    z -0.013010 0.000000 1.882450 
# 
# From -- ./inp_files/119452.got.cif
#   From: 2010.05.17/outbox.cif.g08.bks.cpg/sg15_60_cif.got.tgz:119452.got - 2010.06.03 18:47:42.
