data_PCOD9287313
_publ_section_title
;
Structure prediction by ZEFSAII (Michael W. Deem and Ramdas Pophale) SiO2 
 PCOD9287313
Probable space group: C 2/C
;
_chemical_formula_sum "Si O2"
_cell_formula_units_Z 64
_cell_length_a 7.594088
_cell_length_b 22.326586
_cell_length_c 24.427618
_cell_angle_alpha 90.000000
_cell_angle_beta 110.112954
_cell_angle_gamma 90.000000
_cell_volume 3889.128583
_symmetry_space_group_name_H-M "C 2/C"
_symmetry_group_IT_number 15
_symmetry_cell_setting 'monoclinic'
loop_
_space_group_symop_operation_xyz
x,y,z
-x,y,1/2-z
-x,-y,-z
x,-y,1/2+z
1/2+x,1/2+y,z
1/2-x,1/2+y,1/2-z
1/2-x,1/2-y,-z
1/2+x,1/2-y,1/2+z
loop_
_atom_site_type_symbol
_atom_site_label
_atom_site_fract_x
_atom_site_fract_y
_atom_site_fract_z
Si Si1 0.967534 0.187871 0.895537
Si Si2 0.416386 0.572891 0.541095
Si Si3 0.472145 0.746117 0.013978
Si Si4 0.854620 0.757125 0.689752
Si Si5 0.585216 0.666175 0.127955
Si Si6 0.138089 0.934845 0.953081
Si Si7 0.026181 0.695734 0.350207
Si Si8 0.972172 0.630762 0.031202
O O1 0.753994 0.205028 0.855514
O O2 0.077911 0.234309 0.868461
O O3 0.022523 0.119052 0.904856
O O4 0.002241 0.211701 0.960453
O O5 0.385866 0.505488 0.558295
O O6 0.570282 0.575158 0.508705
O O7 0.219445 0.594253 0.493903
O O8 0.561685 0.707585 0.071362
O O9 0.250000 0.750000 0.000000
O O10 0.541150 0.813530 0.012293
O O11 0.965105 0.800866 0.661039
O O12 0.318408 0.795896 0.803840
O O13 0.000000 0.734515 0.750000
O O14 0.497552 0.603204 0.100962
O O15 0.805857 0.665171 0.163773
O O16 0.346113 0.908844 0.964517
O O17 0.005027 0.661074 0.406287
#
# Coordination Sequence:
#
# PCOD9287313 Si02
#       8
#     8   8   8   8   8   8   8   8
#     4   9  17  34  47  74 106 129 163 205 255 304
#     4  11  21  31  46  76 111 142 172 197 238 307
#     4  11  15  27  52  77 100 132 160 200 261 313
#     4  10  22  36  52  78  96 128 169 222 265 296
#     4  12  18  33  53  75 108 130 166 210 257 311
#     4  11  21  30  47  75 110 147 167 198 238 308
#     4   9  19  31  54  75  95 132 166 212 262 303
#     4  11  18  32  49  75 109 139 169 200 252 308
#
# _framework density 16.456129000000001
#
# number of rings (size 3 to 8) (size 9 to 14) (size 15 to 20)
#    0.750    0.750    6.250    1.125    0.000    2.500 
#    0.000    0.000    0.000    0.000    3.250    0.000 
#    0.000    0.000    0.000    0.000    0.000    0.000 
#
# Total GULP energy -178222.633564 kJ/mol
# GULP energy per Si atom -5569.457299 kJ/mol
# Density = 1.641867 g / cm^3
# Si number density = 16.456129 Si / 1000 Ang^3
#
#
#
# Elastic Constant Matrix: (Units=GPa)
#
#
# Indices 1 2 3 4 5 6 
#
# 1 80.2447 29.4175 18.6700 0.0000 27.0226 0.0000
# 2 29.4175 118.3797 21.9093 0.0000 6.8501 0.0000
# 3 18.6700 21.9093 43.9000 0.0000 13.1631 0.0000
# 4 0.0000 0.0000 0.0000 7.1399 0.0000 3.9108
# 5 27.0226 6.8501 13.1631 0.0000 19.1543 0.0000
# 6 0.0000 0.0000 0.0000 3.9108 0.0000 18.4007
#
#
#
# Elastic Compliance Matrix: (Units=1/GPa)
#
#
# Indices 1 2 3 4 5 6 
#
# 1 0.025969 -0.004763 0.002276 0.000000 -0.036497 0.000000
# 2 -0.004763 0.010181 -0.005011 0.000000 0.006522 0.000000
# 3 0.002276 -0.005011 0.031158 0.000000 -0.022831 0.000000
# 4 0.000000 0.000000 0.000000 0.158511 0.000000 -0.033689
# 5 -0.036497 0.006522 -0.022831 0.000000 0.117054 0.000000
# 6 0.000000 0.000000 0.000000 -0.033689 0.000000 0.061506
#
#
# Mechanical properties :
#
#
# Convention : Reuss Voigt Hill
#
# Bulk Modulus (GPa) = 19.11595 42.50199 30.80897
# Shear Modulus (GPa) = 11.44659 20.44083 15.94371
#
# Velocity S-wave (km/s) = 2.64025 3.52823 3.11603
# Velocity P-wave (km/s) = 4.57560 6.51777 5.63105
#
# Compressibility (1/GPa) = 0.05231235
#
# Stress axis : x y z
#
# Youngs Moduli (GPa) = 38.50780 98.22263 32.09496
#
# Poissons Ratio (x) = 0.46780 -0.07305
# Poissons Ratio (y) = 0.18340 0.16083
# Poissons Ratio (z) = -0.08765 0.49220
#
# Static dielectric constant tensor:
#      x y z
#    x 1.607500 0.000000 0.022630 
#    y 0.000000 1.559000 0.000000 
#    z 0.022630 0.000000 1.566220 
# 
# From -- ./inp_files/289997.got.cif
#   From: 2010.05.17/outbox.cif.g08.bks.cpg/sg15_145_cif.got.tgz:289997.got - 2010.06.03 18:47:42.
