data_PCOD9287095
_publ_section_title
;
Structure prediction by ZEFSAII (Michael W. Deem and Ramdas Pophale) SiO2 
 PCOD9287095
Probable space group: C 2/C
;
_chemical_formula_sum "Si O2"
_cell_formula_units_Z 52
_cell_length_a 19.930711
_cell_length_b 9.366669
_cell_length_c 13.817117
_cell_angle_alpha 90.000000
_cell_angle_beta 127.362692
_cell_angle_gamma 90.000000
_cell_volume 2050.164419
_symmetry_space_group_name_H-M "C 2/C"
_symmetry_group_IT_number 15
_symmetry_cell_setting 'monoclinic'
loop_
_space_group_symop_operation_xyz
x,y,z
-x,y,1/2-z
-x,-y,-z
x,-y,1/2+z
1/2+x,1/2+y,z
1/2-x,1/2+y,1/2-z
1/2-x,1/2-y,-z
1/2+x,1/2-y,1/2+z
loop_
_atom_site_type_symbol
_atom_site_label
_atom_site_fract_x
_atom_site_fract_y
_atom_site_fract_z
Si Si1 0.429208 0.153541 0.927391
Si Si2 0.857530 0.447450 0.716668
Si Si3 0.817060 0.476817 0.968594
Si Si4 0.857057 0.125012 0.650694
Si Si5 0.828012 0.914188 0.893250
Si Si6 0.405685 0.287228 0.485005
Si Si7 0.000000 0.909134 0.750000
O O1 0.421664 0.046460 0.830661
O O2 0.367620 0.289554 0.864222
O O3 0.523184 0.213670 0.018129
O O4 0.391592 0.067560 0.984609
O O5 0.833599 0.527180 0.597131
O O6 0.876787 0.284339 0.703580
O O7 0.771456 0.437097 0.703535
O O8 0.729259 0.561276 0.880428
O O9 0.828080 0.317726 0.937915
O O10 0.843575 0.125615 0.521411
O O11 0.931600 0.015248 0.736841
O O12 0.874891 0.062966 0.917641
O O13 0.452948 0.318272 0.627709
#
# Coordination Sequence:
#
# PCOD9287095 Si02
#       7
#     8   8   8   8   8   8   4
#     4  12  24  43  70 104 142 179 235 285 342 415
#     4  11  23  43  76 100 133 186 236 288 344 412
#     4  11  23  47  72  99 141 181 235 278 349 411
#     4  10  21  46  74  98 137 185 229 290 346 414
#     4  10  22  46  70  97 141 185 229 284 353 409
#     4  11  25  42  66 105 143 185 226 287 344 411
#     4  10  24  42  70 104 138 178 236 284 356 406
#
# _framework density 25.363818999999999
#
# number of rings (size 3 to 8) (size 9 to 14) (size 15 to 20)
#    0.000    1.231    3.077    2.769    0.000   10.462 
#    8.308    0.000    0.000    0.000    0.000    0.000 
#    0.000    0.000    0.000    0.000    0.000    0.000 
#
# Total GULP energy -145876.556906 kJ/mol
# GULP energy per Si atom -5610.636804 kJ/mol
# Density = 2.530609 g / cm^3
# Si number density = 25.363819 Si / 1000 Ang^3
#
#
#
# Elastic Constant Matrix: (Units=GPa)
#
#
# Indices 1 2 3 4 5 6 
#
# 1 102.7838 59.1446 26.4679 0.0000 4.5384 0.0000
# 2 59.1446 161.1390 40.6519 0.0000 15.5467 0.0000
# 3 26.4679 40.6519 92.1121 0.0000 -9.4179 0.0000
# 4 0.0000 0.0000 0.0000 37.0285 0.0000 9.5600
# 5 4.5384 15.5467 -9.4179 0.0000 16.9308 0.0000
# 6 0.0000 0.0000 0.0000 9.5600 0.0000 50.6349
#
#
#
# Elastic Compliance Matrix: (Units=1/GPa)
#
#
# Indices 1 2 3 4 5 6 
#
# 1 0.012593 -0.004081 -0.001887 0.000000 -0.000678 0.000000
# 2 -0.004081 0.009734 -0.004162 0.000000 -0.010159 0.000000
# 3 -0.001887 -0.004162 0.014503 0.000000 0.012395 0.000000
# 4 0.000000 0.000000 0.000000 0.028390 0.000000 -0.005360
# 5 -0.000678 -0.010159 0.012395 0.000000 0.075469 0.000000
# 6 0.000000 0.000000 0.000000 -0.005360 0.000000 0.020761
#
#
# Mechanical properties :
#
#
# Convention : Reuss Voigt Hill
#
# Bulk Modulus (GPa) = 60.34908 67.61819 63.98364
# Shear Modulus (GPa) = 26.70472 36.23689 31.47080
#
# Velocity S-wave (km/s) = 3.24831 3.78389 3.52629
# Velocity P-wave (km/s) = 6.15741 6.76814 6.46998
#
# Compressibility (1/GPa) = 0.01657026
#
# Stress axis : x y z
#
# Youngs Moduli (GPa) = 79.40804 102.73524 68.95294
#
# Poissons Ratio (x) = 0.41924 0.13011
# Poissons Ratio (y) = 0.32404 0.28698
# Poissons Ratio (z) = 0.14984 0.42758
#
# Static dielectric constant tensor:
#      x y z
#    x 1.975340 0.000000 -0.027640 
#    y 0.000000 1.956400 0.000000 
#    z -0.027640 0.000000 2.047450 
# 
# From -- ./inp_files/214329.got.cif
#   From: 2010.05.17/outbox.cif.g08.bks.cpg/sg15_108_cif.got.tgz:214329.got - 2010.06.03 18:47:42.
