data_PCOD9287048
_publ_section_title
;
Structure prediction by ZEFSAII (Michael W. Deem and Ramdas Pophale) SiO2 
 PCOD9287048
Probable space group: C 2/C
;
_chemical_formula_sum "Si O2"
_cell_formula_units_Z 48
_cell_length_a 9.545506
_cell_length_b 20.013366
_cell_length_c 11.252030
_cell_angle_alpha 90.000000
_cell_angle_beta 75.851053
_cell_angle_gamma 90.000000
_cell_volume 2084.351899
_symmetry_space_group_name_H-M "C 2/C"
_symmetry_group_IT_number 15
_symmetry_cell_setting 'monoclinic'
loop_
_space_group_symop_operation_xyz
x,y,z
-x,y,1/2-z
-x,-y,-z
x,-y,1/2+z
1/2+x,1/2+y,z
1/2-x,1/2+y,1/2-z
1/2-x,1/2-y,-z
1/2+x,1/2-y,1/2+z
loop_
_atom_site_type_symbol
_atom_site_label
_atom_site_fract_x
_atom_site_fract_y
_atom_site_fract_z
Si Si1 0.862484 0.942528 0.109276
Si Si2 0.645735 0.840481 0.797965
Si Si3 0.116349 0.093151 0.419463
Si Si4 0.157037 0.275998 0.215788
Si Si5 0.226551 0.613116 0.865400
Si Si6 0.591225 0.902773 0.057770
O O1 0.835966 0.911006 0.242532
O O2 0.709887 0.954192 0.075888
O O3 0.916246 0.017650 0.116629
O O4 0.956201 0.892633 0.006596
O O5 0.500000 0.832056 0.750000
O O6 0.784293 0.869369 0.696812
O O7 0.708982 0.771342 0.837124
O O8 0.605859 0.886767 0.916903
O O9 0.210628 0.100768 0.519467
O O10 0.189569 0.310353 0.337236
O O11 0.132572 0.336842 0.128103
O O12 0.000000 0.240943 0.250000
O O13 0.072253 0.577293 0.881381
#
# Coordination Sequence:
#
# PCOD9287048 Si02
#       6
#     8   8   8   8   8   8
#     4  10  24  42  67  90 128 169 213 260 312 381
#     4  12  25  41  62 101 132 161 211 265 315 374
#     4  11  25  41  62 100 126 165 212 266 317 367
#     4   9  22  42  67  92 123 173 210 256 316 380
#     4  10  21  46  65  91 128 166 214 257 317 380
#     4  10  22  44  67  91 126 169 212 254 314 385
#
# _framework density 23.028739999999999
#
# number of rings (size 3 to 8) (size 9 to 14) (size 15 to 20)
#    0.000    1.667    1.667    2.500    4.667    5.333 
#    3.000    0.000    0.000    0.000    0.000    0.000 
#    0.000    0.000    0.000    0.000    0.000    0.000 
#
# Total GULP energy -133880.098022 kJ/mol
# GULP energy per Si atom -5578.337418 kJ/mol
# Density = 2.297633 g / cm^3
# Si number density = 23.028740 Si / 1000 Ang^3
#
#
#
# Elastic Constant Matrix: (Units=GPa)
#
#
# Indices 1 2 3 4 5 6 
#
# 1 84.0967 2.0713 25.9754 0.0000 -20.7149 0.0000
# 2 2.0713 19.7136 -0.3702 0.0000 -8.5034 0.0000
# 3 25.9754 -0.3702 86.7773 0.0000 -13.2330 0.0000
# 4 0.0000 0.0000 0.0000 10.9826 0.0000 -5.5549
# 5 -20.7149 -8.5034 -13.2330 0.0000 40.0703 0.0000
# 6 0.0000 0.0000 0.0000 -5.5549 0.0000 26.1358
#
#
#
# Elastic Compliance Matrix: (Units=1/GPa)
#
#
# Indices 1 2 3 4 5 6 
#
# 1 0.014534 0.001297 -0.003325 0.000000 0.006691 0.000000
# 2 0.001297 0.056338 0.001872 0.000000 0.013244 0.000000
# 3 -0.003325 0.001872 0.012979 0.000000 0.002965 0.000000
# 4 0.000000 0.000000 0.000000 0.102021 0.000000 0.021684
# 5 0.006691 0.013244 0.002965 0.000000 0.032205 0.000000
# 6 0.000000 0.000000 0.000000 0.021684 0.000000 0.042870
#
#
# Mechanical properties :
#
#
# Convention : Reuss Voigt Hill
#
# Bulk Modulus (GPa) = 11.97051 27.32672 19.64861
# Shear Modulus (GPa) = 17.29470 26.29848 21.79659
#
# Velocity S-wave (km/s) = 2.74342 3.38299 3.07985
# Velocity P-wave (km/s) = 3.90442 5.21072 4.60414
#
# Compressibility (1/GPa) = 0.08353866
#
# Stress axis : x y z
#
# Youngs Moduli (GPa) = 68.80339 17.75000 77.04729
#
# Poissons Ratio (x) = -0.02301 0.25616
# Poissons Ratio (y) = -0.08920 -0.14423
# Poissons Ratio (z) = 0.22875 -0.03323
#
# Static dielectric constant tensor:
#      x y z
#    x 1.933090 0.000000 -0.054840 
#    y 0.000000 1.895500 0.000000 
#    z -0.054840 0.000000 1.879400 
# 
# From -- ./inp_files/79133.got.cif
#   From: 2010.05.17/outbox.cif.g08.bks.cpg/sg15_40_cif.got.tgz:79133.got - 2010.06.03 18:47:42.
