data_PCOD9287560
_publ_section_title
;
Structure prediction by ZEFSAII (Michael W. Deem and Ramdas Pophale) SiO2 
 PCOD9287560
Probable space group: C 2/C
;
_chemical_formula_sum "Si O2"
_cell_formula_units_Z 36
_cell_length_a 13.959083
_cell_length_b 22.756173
_cell_length_c 8.196209
_cell_angle_alpha 90.000000
_cell_angle_beta 137.040742
_cell_angle_gamma 90.000000
_cell_volume 1774.275546
_symmetry_space_group_name_H-M "C 2/C"
_symmetry_group_IT_number 15
_symmetry_cell_setting 'monoclinic'
loop_
_space_group_symop_operation_xyz
x,y,z
-x,y,1/2-z
-x,-y,-z
x,-y,1/2+z
1/2+x,1/2+y,z
1/2-x,1/2+y,1/2-z
1/2-x,1/2-y,-z
1/2+x,1/2-y,1/2+z
loop_
_atom_site_type_symbol
_atom_site_label
_atom_site_fract_x
_atom_site_fract_y
_atom_site_fract_z
Si Si1 0.222528 0.146349 0.774921
Si Si2 0.706153 0.671397 0.367812
Si Si3 0.565335 0.755118 0.547427
Si Si4 0.000000 0.656892 0.250000
Si Si5 0.473182 0.566268 0.411222
O O1 0.235090 0.157148 0.594468
O O2 0.171998 0.210285 0.769269
O O3 0.096761 0.102519 0.648770
O O4 0.357912 0.123072 0.036735
O O5 0.838211 0.706493 0.457065
O O6 0.664595 0.608061 0.236709
O O7 0.566086 0.713278 0.174061
O O8 0.509290 0.801489 0.605410
O O9 0.500000 0.568016 0.250000
O O10 0.500000 0.500000 0.500000
#
# Coordination Sequence:
#
# PCOD9287560 Si02
#       5
#     8   8   8   4   8
#     4  10  22  37  56  88 116 159 195 237 292 351
#     4  10  22  37  63  84 118 159 203 234 295 359
#     4  11  21  37  54  87 122 159 192 241 293 354
#     4  12  24  32  54  88 134 148 192 242 298 358
#     4   9  20  40  63  88 110 151 205 249 284 352
#
# _framework density 20.28997
#
# number of rings (size 3 to 8) (size 9 to 14) (size 15 to 20)
#    0.000    1.778    2.222    3.333    3.111    1.778 
#    4.000    0.000    0.000   12.000    0.000    0.000 
#    0.000    0.000    0.000    0.000    0.000    0.000 
#
# Total GULP energy -100282.320213 kJ/mol
# GULP energy per Si atom -5571.240012 kJ/mol
# Density = 2.024379 g / cm^3
# Si number density = 20.289970 Si / 1000 Ang^3
#
#
#
# Elastic Constant Matrix: (Units=GPa)
#
#
# Indices 1 2 3 4 5 6 
#
# 1 36.2000 7.2433 -5.2146 0.0000 9.0098 0.0000
# 2 7.2433 111.9158 16.6684 0.0000 2.6014 0.0000
# 3 -5.2146 16.6684 119.8688 0.0000 14.6746 0.0000
# 4 0.0000 0.0000 0.0000 24.9192 0.0000 -3.2481
# 5 9.0098 2.6014 14.6746 0.0000 11.2617 0.0000
# 6 0.0000 0.0000 0.0000 -3.2481 0.0000 20.9989
#
#
#
# Elastic Compliance Matrix: (Units=1/GPa)
#
#
# Indices 1 2 3 4 5 6 
#
# 1 0.039003 -0.002633 0.006911 0.000000 -0.039601 0.000000
# 2 -0.002633 0.009305 -0.001670 0.000000 0.002133 0.000000
# 3 0.006911 -0.001670 0.011309 0.000000 -0.019879 0.000000
# 4 0.000000 0.000000 0.000000 0.040955 0.000000 0.006335
# 5 -0.039601 0.002133 -0.019879 0.000000 0.145890 0.000000
# 6 0.000000 0.000000 0.000000 0.006335 0.000000 0.048602
#
#
# Mechanical properties :
#
#
# Convention : Reuss Voigt Hill
#
# Bulk Modulus (GPa) = 15.42420 33.93097 24.67758
# Shear Modulus (GPa) = 16.05353 28.05513 22.05433
#
# Velocity S-wave (km/s) = 2.81589 3.72251 3.30048
# Velocity P-wave (km/s) = 4.26506 5.93595 5.16847
#
# Compressibility (1/GPa) = 0.06483318
#
# Stress axis : x y z
#
# Youngs Moduli (GPa) = 25.63911 107.47161 88.42555
#
# Poissons Ratio (x) = 0.28298 -0.61110
# Poissons Ratio (y) = 0.06751 0.14763
# Poissons Ratio (z) = -0.17719 0.17943
#
# Static dielectric constant tensor:
#      x y z
#    x 1.803560 0.000000 0.007200 
#    y 0.000000 1.738270 0.000000 
#    z 0.007200 0.000000 1.812100 
# 
# From -- ./inp_files/30556.got.cif
#   From: 2010.05.17/outbox.cif.g08.bks.cpg/sg15_16_cif.got.tgz:30556.got - 2010.06.03 18:47:42.
