data_PCOD9287706
_publ_section_title
;
Structure prediction by ZEFSAII (Michael W. Deem and Ramdas Pophale) SiO2 
 PCOD9287706
Probable space group: C 2/C
;
_chemical_formula_sum "Si O2"
_cell_formula_units_Z 56
_cell_length_a 25.887415
_cell_length_b 18.582057
_cell_length_c 9.309798
_cell_angle_alpha 90.000000
_cell_angle_beta 148.058201
_cell_angle_gamma 90.000000
_cell_volume 2369.330493
_symmetry_space_group_name_H-M "C 2/C"
_symmetry_group_IT_number 15
_symmetry_cell_setting 'monoclinic'
loop_
_space_group_symop_operation_xyz
x,y,z
-x,y,1/2-z
-x,-y,-z
x,-y,1/2+z
1/2+x,1/2+y,z
1/2-x,1/2+y,1/2-z
1/2-x,1/2-y,-z
1/2+x,1/2-y,1/2+z
loop_
_atom_site_type_symbol
_atom_site_label
_atom_site_fract_x
_atom_site_fract_y
_atom_site_fract_z
Si Si1 0.822080 0.224465 0.879732
Si Si2 0.000000 0.555505 0.750000
Si Si3 0.166467 0.059346 0.587758
Si Si4 0.848031 0.439142 0.326745
Si Si5 0.826428 0.625796 0.490963
Si Si6 0.895624 0.237496 0.744123
Si Si7 0.852447 0.923250 0.120086
Si Si8 0.000000 0.682196 0.250000
O O1 0.851552 0.143657 0.993953
O O2 0.889162 0.246009 0.900722
O O3 0.709550 0.229869 0.557326
O O4 0.826262 0.288214 0.004568
O O5 0.923811 0.504054 0.487512
O O6 0.934827 0.600973 0.704764
O O7 0.275496 0.046611 0.785558
O O8 0.157812 0.056382 0.737844
O O9 0.110679 0.992988 0.380273
O O10 0.792974 0.417420 0.052104
O O11 0.909585 0.369291 0.508437
O O12 0.752441 0.603669 0.189516
O O13 0.908587 0.152186 0.745996
O O14 0.976235 0.274472 0.837316
#
# Coordination Sequence:
#
# PCOD9287706 Si02
#       8
#     8   4   8   8   8   8   8   4
#     4   9  20  38  62  82 122 155 207 245 293 352
#     4  11  24  36  56  83 138 158 190 229 302 372
#     4  11  20  40  60  91 118 153 203 248 298 354
#     4  11  24  36  56  93 123 160 189 244 298 360
#     4  11  23  37  56  88 120 166 195 239 293 357
#     4   9  19  39  59  87 112 167 196 245 299 358
#     4  10  22  37  64  85 118 158 202 247 295 356
#     4  11  22  38  62  83 128 154 200 245 300 362
#
# _framework density 23.635370000000002
#
# number of rings (size 3 to 8) (size 9 to 14) (size 15 to 20)
#    0.000    1.714    2.857    2.143    2.000    1.714 
#    2.571    0.000    0.000    4.286    0.000    0.000 
#    0.000    0.000    0.000    0.000    0.000    0.000 
#
# Total GULP energy -156490.231138 kJ/mol
# GULP energy per Si atom -5588.936826 kJ/mol
# Density = 2.358157 g / cm^3
# Si number density = 23.635370 Si / 1000 Ang^3
#
#
#
# Elastic Constant Matrix: (Units=GPa)
#
#
# Indices 1 2 3 4 5 6 
#
# 1 50.3890 9.4515 4.1505 0.0000 -6.4834 0.0000
# 2 9.4515 138.8493 16.2231 0.0000 -19.7360 0.0000
# 3 4.1505 16.2231 37.7596 0.0000 -14.3163 0.0000
# 4 0.0000 0.0000 0.0000 -56.1267 0.0000 -23.6255
# 5 -6.4834 -19.7360 -14.3163 0.0000 17.3999 0.0000
# 6 0.0000 0.0000 0.0000 -23.6255 0.0000 30.8550
#
#
#
# Elastic Compliance Matrix: (Units=1/GPa)
#
#
# Indices 1 2 3 4 5 6 
#
# 1 0.020885 -0.000376 0.000951 0.000000 0.008138 0.000000
# 2 -0.000376 0.008593 -0.000012 0.000000 0.009597 0.000000
# 3 0.000951 -0.000012 0.038534 0.000000 0.032046 0.000000
# 4 0.000000 0.000000 0.000000 -0.013474 0.000000 -0.010317
# 5 0.008138 0.009597 0.032046 0.000000 0.097756 0.000000
# 6 0.000000 0.000000 0.000000 -0.010317 0.000000 0.024510
#
#
# Mechanical properties :
#
#
# Convention : Reuss Voigt Hill
#
# Bulk Modulus (GPa) = 14.46373 31.84978 23.15676
# Shear Modulus (GPa) = 25.16069 11.57049 18.36559
#
# Velocity S-wave (km/s) = 3.26626 2.21496 2.79056
# Velocity P-wave (km/s) = 4.51192 4.47729 4.49464
#
# Compressibility (1/GPa) = 0.06913846
#
# Stress axis : x y z
#
# Youngs Moduli (GPa) = 47.88153 116.37171 25.95127
#
# Poissons Ratio (x) = 0.04376 -0.02469
# Poissons Ratio (y) = 0.01801 0.00031
# Poissons Ratio (z) = -0.04556 0.00141
#
# Static dielectric constant tensor:
#      x y z
#    x 1.838120 0.000000 0.009520 
#    y 0.000000 1.935120 0.000000 
#    z 0.009520 0.000000 1.985050 
# 
# From -- ./inp_files/62806.got.cif
#   From: 2010.05.17/outbox.cif.g08.bks.cpg/sg15_32_cif.got.tgz:62806.got - 2010.06.03 18:47:42.
