data_PCOD9287842
_publ_section_title
;
Structure prediction by ZEFSAII (Michael W. Deem and Ramdas Pophale) SiO2 
 PCOD9287842
Probable space group: C 2/C
;
_chemical_formula_sum "Si O2"
_cell_formula_units_Z 40
_cell_length_a 18.578997
_cell_length_b 20.166452
_cell_length_c 5.097744
_cell_angle_alpha 90.000000
_cell_angle_beta 101.548172
_cell_angle_gamma 90.000000
_cell_volume 1871.319928
_symmetry_space_group_name_H-M "C 2/C"
_symmetry_group_IT_number 15
_symmetry_cell_setting 'monoclinic'
loop_
_space_group_symop_operation_xyz
x,y,z
-x,y,1/2-z
-x,-y,-z
x,-y,1/2+z
1/2+x,1/2+y,z
1/2-x,1/2+y,1/2-z
1/2-x,1/2-y,-z
1/2+x,1/2-y,1/2+z
loop_
_atom_site_type_symbol
_atom_site_label
_atom_site_fract_x
_atom_site_fract_y
_atom_site_fract_z
Si Si1 0.284321 0.544671 0.636385
Si Si2 0.201428 0.349187 0.388788
Si Si3 0.413944 0.957045 0.182035
Si Si4 0.151335 0.199956 0.262966
Si Si5 0.582983 0.363725 0.216790
O O1 0.270511 0.510504 0.349445
O O2 0.368280 0.569654 0.728616
O O3 0.236114 0.609131 0.672602
O O4 0.136253 0.395970 0.436534
O O5 0.168372 0.277474 0.302820
O O6 0.271081 0.336841 0.627556
O O7 0.500000 0.939310 0.250000
O O8 0.399615 0.985023 0.461749
O O9 0.096335 0.169773 0.442824
O O10 0.120043 0.184815 0.956196
O O11 0.500000 0.374274 0.250000
#
# Coordination Sequence:
#
# PCOD9287842 Si02
#       5
#     8   8   8   8   8
#     4  11  23  38  62  92 119 161 206 244 305 362
#     4  10  22  41  64  89 125 157 204 258 298 362
#     4  10  22  38  58  87 121 158 198 246 305 361
#     4  10  24  40  64  93 118 164 208 247 312 362
#     4  11  24  43  63  91 129 161 204 258 303 365
#
# _framework density 21.375287
#
# number of rings (size 3 to 8) (size 9 to 14) (size 15 to 20)
#    0.000    1.600    0.000    4.200    0.000   16.000 
#    0.000    2.000    0.000    0.000    0.000    0.000 
#    0.000    0.000    0.000    0.000    0.000    0.000 
#
# Total GULP energy -111856.636876 kJ/mol
# GULP energy per Si atom -5592.831844 kJ/mol
# Density = 2.132664 g / cm^3
# Si number density = 21.375287 Si / 1000 Ang^3
#
#
#
# Elastic Constant Matrix: (Units=GPa)
#
#
# Indices 1 2 3 4 5 6 
#
# 1 100.8924 51.0891 -6.3550 0.0000 15.5907 0.0000
# 2 51.0891 78.1409 18.4533 0.0000 -7.8798 0.0000
# 3 -6.3550 18.4533 36.5747 0.0000 0.6385 0.0000
# 4 0.0000 0.0000 0.0000 19.3798 0.0000 13.0414
# 5 15.5907 -7.8798 0.6385 0.0000 17.0221 0.0000
# 6 0.0000 0.0000 0.0000 13.0414 0.0000 11.9756
#
#
#
# Elastic Compliance Matrix: (Units=1/GPa)
#
#
# Indices 1 2 3 4 5 6 
#
# 1 0.038024 -0.036260 0.025819 0.000000 -0.052580 0.000000
# 2 -0.036260 0.049992 -0.032528 0.000000 0.057573 0.000000
# 3 0.025819 -0.032528 0.048947 0.000000 -0.040542 0.000000
# 4 0.000000 0.000000 0.000000 0.193136 0.000000 -0.210326
# 5 -0.052580 0.057573 -0.040542 0.000000 0.135078 0.000000
# 6 0.000000 0.000000 0.000000 -0.210326 0.000000 0.312548
#
#
# Mechanical properties :
#
#
# Convention : Reuss Voigt Hill
#
# Bulk Modulus (GPa) = 19.59815 37.99809 28.79812
# Shear Modulus (GPa) = 5.67748 19.83689 12.75719
#
# Velocity S-wave (km/s) = 1.63152 3.04966 2.44564
# Velocity P-wave (km/s) = 3.56899 5.49689 4.63430
#
# Compressibility (1/GPa) = 0.05102522
#
# Stress axis : x y z
#
# Youngs Moduli (GPa) = 26.29913 20.00329 20.43024
#
# Poissons Ratio (x) = 0.72532 -0.52750
# Poissons Ratio (y) = 0.95361 0.66456
# Poissons Ratio (z) = -0.67903 0.65067
#
# Static dielectric constant tensor:
#      x y z
#    x 1.819910 0.000000 -0.017850 
#    y 0.000000 1.739280 0.000000 
#    z -0.017850 0.000000 1.751100 
# 
# From -- ./inp_files/9902.got.cif
#   From: 2010.05.17/outbox.cif.g08.bks.cpg/sg15_5_cif.got.tgz:9902.got - 2010.06.03 18:47:42.
