data_PCOD9287807
_publ_section_title
;
Structure prediction by ZEFSAII (Michael W. Deem and Ramdas Pophale) SiO2 
 PCOD9287807
Probable space group: C 2/C
;
_chemical_formula_sum "Si O2"
_cell_formula_units_Z 52
_cell_length_a 16.054546
_cell_length_b 33.416828
_cell_length_c 5.948617
_cell_angle_alpha 90.000000
_cell_angle_beta 57.809922
_cell_angle_gamma 90.000000
_cell_volume 2700.823012
_symmetry_space_group_name_H-M "C 2/C"
_symmetry_group_IT_number 15
_symmetry_cell_setting 'monoclinic'
loop_
_space_group_symop_operation_xyz
x,y,z
-x,y,1/2-z
-x,-y,-z
x,-y,1/2+z
1/2+x,1/2+y,z
1/2-x,1/2+y,1/2-z
1/2-x,1/2-y,-z
1/2+x,1/2-y,1/2+z
loop_
_atom_site_type_symbol
_atom_site_label
_atom_site_fract_x
_atom_site_fract_y
_atom_site_fract_z
Si Si1 0.000000 0.776827 0.250000
Si Si2 0.117418 0.020634 0.581822
Si Si3 0.116430 0.646722 0.555478
Si Si4 0.341795 0.777778 0.790251
Si Si5 0.594761 0.664712 0.266488
Si Si6 0.712455 0.393830 0.908193
Si Si7 0.238508 0.660276 0.774412
O O1 0.062757 0.749269 0.325598
O O2 0.931484 0.804914 0.498258
O O3 0.181127 0.061048 0.485887
O O4 0.000000 0.029392 0.750000
O O5 0.135726 0.999753 0.305877
O O6 0.151259 0.692154 0.433595
O O7 0.172833 0.616175 0.308636
O O8 0.168757 0.635705 0.712415
O O9 0.000000 0.645298 0.750000
O O10 0.250000 0.750000 0.000000
O O11 0.335505 0.810665 0.994353
O O12 0.500000 0.656119 0.250000
O O13 0.644393 0.626148 0.312291
O O14 0.679159 0.683224 0.987681
O O15 0.698165 0.367363 0.151800
#
# Coordination Sequence:
#
# PCOD9287807 Si02
#       7
#     4   8   8   8   8   8   8
#     4  12  24  36  52  86 114 160 208 274 322 380
#     4  10  24  42  68 106 142 176 209 255 328 400
#     4  10  22  40  61  88 115 166 217 270 330 378
#     4  11  22  36  53  78 120 152 213 271 322 383
#     4  11  23  36  56  85 118 164 211 253 322 381
#     4  10  23  40  64  93 126 163 212 260 308 402
#     4  10  22  38  57  82 113 164 206 262 316 376
#
# _framework density 19.253391000000001
#
# number of rings (size 3 to 8) (size 9 to 14) (size 15 to 20)
#    0.000    1.538    0.000    5.538    7.538    8.000 
#    0.000    0.000    0.000    0.923    0.000    0.000 
#    0.000    0.000    0.000    0.000    0.000    0.000 
#
# Total GULP energy -144739.955915 kJ/mol
# GULP energy per Si atom -5566.921381 kJ/mol
# Density = 1.920957 g / cm^3
# Si number density = 19.253391 Si / 1000 Ang^3
#
#
#
# Elastic Constant Matrix: (Units=GPa)
#
#
# Indices 1 2 3 4 5 6 
#
# 1 93.1154 26.8237 38.3872 0.0000 -7.5915 0.0000
# 2 26.8237 95.5725 44.2699 0.0000 -11.2155 0.0000
# 3 38.3872 44.2699 89.5362 0.0000 1.4185 0.0000
# 4 0.0000 0.0000 0.0000 3.6586 0.0000 -26.2242
# 5 -7.5915 -11.2155 1.4185 0.0000 29.5447 0.0000
# 6 0.0000 0.0000 0.0000 -26.2242 0.0000 -24.0225
#
#
#
# Elastic Compliance Matrix: (Units=1/GPa)
#
#
# Indices 1 2 3 4 5 6 
#
# 1 0.013499 -0.000889 -0.005402 0.000000 0.003390 0.000000
# 2 -0.000889 0.014578 -0.006916 0.000000 0.005638 0.000000
# 3 -0.005402 -0.006916 0.016981 0.000000 -0.004829 0.000000
# 4 0.000000 0.000000 0.000000 0.030973 0.000000 -0.033812
# 5 0.003390 0.005638 -0.004829 0.000000 0.037090 0.000000
# 6 0.000000 0.000000 0.000000 -0.033812 0.000000 -0.004717
#
#
# Mechanical properties :
#
#
# Convention : Reuss Voigt Hill
#
# Bulk Modulus (GPa) = 53.63581 55.24286 54.43933
# Shear Modulus (GPa) = 35.45328 13.08572 24.26950
#
# Velocity S-wave (km/s) = 4.29581 2.60985 3.55425
# Velocity P-wave (km/s) = 7.24732 6.15115 6.72162
#
# Compressibility (1/GPa) = 0.01864426
#
# Stress axis : x y z
#
# Youngs Moduli (GPa) = 74.08164 68.59724 58.89057
#
# Poissons Ratio (x) = 0.06096 0.31811
# Poissons Ratio (y) = 0.06583 0.40730
# Poissons Ratio (z) = 0.40017 0.47443
#
# Static dielectric constant tensor:
#      x y z
#    x 1.681660 0.000000 0.024540 
#    y 0.000000 1.650070 0.000000 
#    z 0.024540 0.000000 1.779840 
# 
# From -- ./inp_files/11929.got.cif
#   From: 2010.05.17/outbox.cif.g08.bks.cpg/sg15_6_cif.got.tgz:11929.got - 2010.06.03 18:47:42.
