data_PCOD9287943
_publ_section_title
;
Structure prediction by ZEFSAII (Michael W. Deem and Ramdas Pophale) SiO2 
 PCOD9287943
Probable space group: C 2/C
;
_chemical_formula_sum "Si O2"
_cell_formula_units_Z 60
_cell_length_a 8.493711
_cell_length_b 28.403596
_cell_length_c 20.733720
_cell_angle_alpha 90.000000
_cell_angle_beta 40.355941
_cell_angle_gamma 90.000000
_cell_volume 3238.998030
_symmetry_space_group_name_H-M "C 2/C"
_symmetry_group_IT_number 15
_symmetry_cell_setting 'monoclinic'
loop_
_space_group_symop_operation_xyz
x,y,z
-x,y,1/2-z
-x,-y,-z
x,-y,1/2+z
1/2+x,1/2+y,z
1/2-x,1/2+y,1/2-z
1/2-x,1/2-y,-z
1/2+x,1/2-y,1/2+z
loop_
_atom_site_type_symbol
_atom_site_label
_atom_site_fract_x
_atom_site_fract_y
_atom_site_fract_z
Si Si1 0.302163 0.716986 0.392693
Si Si2 0.550752 0.545075 0.528366
Si Si3 0.499634 0.805278 0.113606
Si Si4 0.349804 0.479989 0.231826
Si Si5 0.935062 0.402984 0.343043
Si Si6 0.555578 0.926916 0.809112
Si Si7 0.332067 0.182075 0.204674
Si Si8 0.500000 0.748581 0.750000
O O1 0.359931 0.772695 0.377859
O O2 0.135673 0.703604 0.504228
O O3 0.565696 0.692677 0.317443
O O4 0.187176 0.699402 0.362513
O O5 0.500000 0.500000 0.500000
O O6 0.498144 0.532478 0.619860
O O7 0.346843 0.582602 0.570077
O O8 0.820492 0.561356 0.426144
O O9 0.507225 0.859495 0.129446
O O10 0.230757 0.784229 0.190481
O O11 0.500000 0.470374 0.250000
O O12 0.262433 0.534249 0.258381
O O13 0.106128 0.447797 0.305463
O O14 0.000000 0.388624 0.250000
O O15 0.500000 0.931650 0.750000
O O16 0.621199 0.872986 0.802814
O O17 0.520970 0.215275 0.183517
#
# Coordination Sequence:
#
# PCOD9287943 Si02
#       8
#     8   8   8   8   8   8   8   4
#     4   9  22  41  60  89 126 157 213 250 312 369
#     4  11  22  44  65  88 125 169 212 252 305 386
#     4  10  22  39  65  90 122 168 201 258 311 369
#     4  11  25  42  62  96 128 156 212 267 313 374
#     4  10  23  42  64  88 122 170 206 246 312 382
#     4  12  23  40  68  92 125 173 207 256 322 372
#     4  10  22  40  61  91 125 161 205 262 304 373
#     4  10  22  38  60  90 126 158 206 256 308 364
#
# _framework density 18.524246999999999
#
# number of rings (size 3 to 8) (size 9 to 14) (size 15 to 20)
#    0.000    1.600    3.333    0.400    8.400    3.200 
#    2.400    0.000    0.000    0.000    0.000    0.000 
#    0.000    0.000    0.000    0.000    0.000    0.000 
#
# Total GULP energy -167444.805074 kJ/mol
# GULP energy per Si atom -5581.493502 kJ/mol
# Density = 1.848208 g / cm^3
# Si number density = 18.524247 Si / 1000 Ang^3
#
#
#
# Elastic Constant Matrix: (Units=GPa)
#
#
# Indices 1 2 3 4 5 6 
#
# 1 86.5401 21.1393 26.1340 -0.0002 16.1777 0.0000
# 2 21.1393 97.0662 36.2349 -0.0003 5.9017 0.0000
# 3 26.1340 36.2349 86.1333 0.0005 3.4660 0.0000
# 4 -0.0002 -0.0003 0.0005 9.2701 0.0001 1.2333
# 5 16.1777 5.9017 3.4660 0.0001 10.5298 0.0000
# 6 0.0000 0.0000 0.0000 1.2333 0.0000 30.4515
#
#
#
# Elastic Compliance Matrix: (Units=1/GPa)
#
#
# Indices 1 2 3 4 5 6 
#
# 1 0.017724 -0.000815 -0.004010 0.000001 -0.025453 0.000000
# 2 -0.000815 0.012550 -0.004864 0.000001 -0.004180 0.000000
# 3 -0.004010 -0.004864 0.014710 -0.000001 0.004046 0.000000
# 4 0.000001 0.000001 -0.000001 0.108458 -0.000002 -0.004392
# 5 -0.025453 -0.004180 0.004046 -0.000002 0.135086 0.000000
# 6 0.000000 0.000000 0.000000 -0.004392 0.000000 0.033017
#
#
# Mechanical properties :
#
#
# Convention : Reuss Voigt Hill
#
# Bulk Modulus (GPa) = 39.05569 48.52845 43.79207
# Shear Modulus (GPa) = 14.30786 22.46570 18.38678
#
# Velocity S-wave (km/s) = 2.78220 3.48627 3.15394
# Velocity P-wave (km/s) = 5.60804 6.51610 6.07905
#
# Compressibility (1/GPa) = 0.02560446
#
# Stress axis : x y z
#
# Youngs Moduli (GPa) = 56.42120 79.68356 67.98063
#
# Poissons Ratio (x) = 0.06496 0.27263
# Poissons Ratio (y) = 0.04600 0.33065
# Poissons Ratio (z) = 0.22627 0.38757
#
# Static dielectric constant tensor:
#      x y z
#    x 1.642530 0.000000 -0.008300 
#    y 0.000000 1.636400 0.000000 
#    z -0.008300 0.000000 1.637810 
# 
# From -- ./inp_files/234776.got.cif
#   From: 2010.05.17/outbox.cif.g08.bks.cpg/sg15_118_cif.got.tgz:234776.got - 2010.06.03 18:47:42.
