data_PCOD9287331
_publ_section_title
;
Structure prediction by ZEFSAII (Michael W. Deem and Ramdas Pophale) SiO2 
 PCOD9287331
Probable space group: C 2/C
;
_chemical_formula_sum "Si O2"
_cell_formula_units_Z 64
_cell_length_a 24.215908
_cell_length_b 13.027721
_cell_length_c 10.139803
_cell_angle_alpha 90.000000
_cell_angle_beta 86.842757
_cell_angle_gamma 90.000000
_cell_volume 3194.030265
_symmetry_space_group_name_H-M "C 2/C"
_symmetry_group_IT_number 15
_symmetry_cell_setting 'monoclinic'
loop_
_space_group_symop_operation_xyz
x,y,z
-x,y,1/2-z
-x,-y,-z
x,-y,1/2+z
1/2+x,1/2+y,z
1/2-x,1/2+y,1/2-z
1/2-x,1/2-y,-z
1/2+x,1/2-y,1/2+z
loop_
_atom_site_type_symbol
_atom_site_label
_atom_site_fract_x
_atom_site_fract_y
_atom_site_fract_z
Si Si1 0.802746 0.688582 0.938828
Si Si2 0.174558 0.960990 0.190211
Si Si3 0.807209 0.624202 0.341314
Si Si4 0.084796 0.098486 0.489525
Si Si5 0.818633 0.180475 0.198873
Si Si6 0.295381 0.020921 0.591929
Si Si7 0.365222 0.288363 0.153871
Si Si8 0.472829 0.396353 0.120951
O O1 0.812869 0.716325 0.785531
O O2 0.750000 0.750000 0.000000
O O3 0.792520 0.574094 0.988781
O O4 0.852831 0.734358 0.017742
O O5 0.234300 0.935836 0.125556
O O6 0.166845 0.897354 0.326444
O O7 0.174149 0.082870 0.204675
O O8 0.123023 0.927275 0.109489
O O9 0.742012 0.656039 0.353472
O O10 0.825577 0.600736 0.489291
O O11 0.813149 0.532573 0.228706
O O12 0.840340 0.717535 0.271878
O O13 0.126696 0.166077 0.396415
O O14 0.024946 0.145036 0.531412
O O15 0.063283 0.988473 0.436213
O O16 0.429711 0.307994 0.158767
O O17 0.500000 0.439859 0.250000
#
# Coordination Sequence:
#
# PCOD9287331 Si02
#       8
#     8   8   8   8   8   8   8   8
#     4  11  21  36  55  81 114 158 193 222 295 356
#     4  11  20  32  57  79 119 153 184 229 285 334
#     4  10  22  36  56  84 112 154 188 238 294 348
#     4  11  21  35  52  84 117 152 195 225 274 341
#     4  11  20  31  54  82 116 149 194 222 286 340
#     4  10  22  36  55  82 118 151 190 231 291 343
#     4  11  22  37  56  81 116 153 192 235 284 347
#     4  11  22  36  55  80 118 159 195 225 283 345
#
# _framework density 20.037381
#
# number of rings (size 3 to 8) (size 9 to 14) (size 15 to 20)
#    0.000    1.250    7.500    0.750    3.500    1.500 
#    2.250    0.000    0.000    0.000    0.000    7.875 
#    0.000    0.000    0.000    0.000    0.000    0.000 
#
# Total GULP energy -178401.911628 kJ/mol
# GULP energy per Si atom -5575.059738 kJ/mol
# Density = 1.999178 g / cm^3
# Si number density = 20.037381 Si / 1000 Ang^3
#
#
#
# Elastic Constant Matrix: (Units=GPa)
#
#
# Indices 1 2 3 4 5 6 
#
# 1 102.3844 30.8085 38.9325 0.0000 -22.6245 0.0000
# 2 30.8085 28.6141 8.4975 0.0000 -9.3339 0.0000
# 3 38.9325 8.4975 79.5724 0.0000 -15.8102 0.0000
# 4 0.0000 0.0000 0.0000 22.3889 0.0000 -6.1133
# 5 -22.6245 -9.3339 -15.8102 0.0000 38.4265 0.0000
# 6 0.0000 0.0000 0.0000 -6.1133 0.0000 25.1482
#
#
#
# Elastic Compliance Matrix: (Units=1/GPa)
#
#
# Indices 1 2 3 4 5 6 
#
# 1 0.017861 -0.016061 -0.006218 0.000000 0.004057 0.000000
# 2 -0.016061 0.052830 0.003144 0.000000 0.004670 0.000000
# 3 -0.006218 0.003144 0.016006 0.000000 0.003689 0.000000
# 4 0.000000 0.000000 0.000000 0.047840 0.000000 0.011630
# 5 0.004057 0.004670 0.003689 0.000000 0.031064 0.000000
# 6 0.000000 0.000000 0.000000 0.011630 0.000000 0.042591
#
#
# Mechanical properties :
#
#
# Convention : Reuss Voigt Hill
#
# Bulk Modulus (GPa) = 20.64884 40.78307 30.71596
# Shear Modulus (GPa) = 19.04010 26.01488 22.52749
#
# Velocity S-wave (km/s) = 3.08592 3.60713 3.35666
# Velocity P-wave (km/s) = 4.79841 6.14379 5.51230
#
# Compressibility (1/GPa) = 0.04842887
#
# Stress axis : x y z
#
# Youngs Moduli (GPa) = 55.98916 18.92869 62.47505
#
# Poissons Ratio (x) = 0.30401 0.38844
# Poissons Ratio (y) = 0.89922 -0.19644
# Poissons Ratio (z) = 0.34812 -0.05952
#
# Static dielectric constant tensor:
#      x y z
#    x 1.687140 0.000000 0.002670 
#    y 0.000000 1.768160 0.000000 
#    z 0.002670 0.000000 1.829870 
# 
# From -- ./inp_files/117552.got.cif
#   From: 2010.05.17/outbox.cif.g08.bks.cpg/sg15_59_cif.got.tgz:117552.got - 2010.06.03 18:47:42.
