data_PCOD9287905
_publ_section_title
;
Structure prediction by ZEFSAII (Michael W. Deem and Ramdas Pophale) SiO2 
 PCOD9287905
Probable space group: C 2/C
;
_chemical_formula_sum "Si O2"
_cell_formula_units_Z 56
_cell_length_a 14.362781
_cell_length_b 9.752693
_cell_length_c 20.571118
_cell_angle_alpha 90.000000
_cell_angle_beta 131.401934
_cell_angle_gamma 90.000000
_cell_volume 2161.392487
_symmetry_space_group_name_H-M "C 2/C"
_symmetry_group_IT_number 15
_symmetry_cell_setting 'monoclinic'
loop_
_space_group_symop_operation_xyz
x,y,z
-x,y,1/2-z
-x,-y,-z
x,-y,1/2+z
1/2+x,1/2+y,z
1/2-x,1/2+y,1/2-z
1/2-x,1/2-y,-z
1/2+x,1/2-y,1/2+z
loop_
_atom_site_type_symbol
_atom_site_label
_atom_site_fract_x
_atom_site_fract_y
_atom_site_fract_z
Si Si1 0.953327 0.850228 0.424685
Si Si2 0.695901 0.510125 0.040725
Si Si3 0.641892 0.089049 0.187982
Si Si4 0.550395 0.806313 0.095967
Si Si5 0.857211 0.031406 0.195395
Si Si6 0.895905 0.283513 0.146035
Si Si7 0.811077 0.279097 0.669839
O O1 0.891175 0.743746 0.348198
O O2 0.068176 0.938005 0.448436
O O3 0.998107 0.749493 0.503968
O O4 0.860048 0.956025 0.415845
O O5 0.799157 0.397008 0.074446
O O6 0.772367 0.648549 0.086107
O O7 0.620203 0.106416 0.254954
O O8 0.559410 0.969526 0.115802
O O9 0.779520 0.048108 0.225742
O O10 0.475236 0.741866 0.120168
O O11 0.689930 0.752357 0.157482
O O12 0.854532 0.873096 0.175028
O O13 0.000000 0.065692 0.250000
O O14 0.807272 0.158390 0.129247
O O15 0.000000 0.326727 0.250000
#
# Coordination Sequence:
#
# PCOD9287905 Si02
#       7
#     8   8   8   8   8   8   8
#     4  10  22  42  63  93 131 176 211 264 321 398
#     4  10  22  41  65  90 131 170 212 265 325 380
#     4  11  21  40  67  96 127 171 218 271 314 390
#     4  10  23  39  64  93 125 171 216 260 328 392
#     4  10  22  38  59  94 128 161 205 274 324 374
#     4  11  21  40  65  94 123 165 219 273 315 378
#     4  10  22  38  65  93 125 164 217 263 328 379
#
# _framework density 25.909223999999998
#
# number of rings (size 3 to 8) (size 9 to 14) (size 15 to 20)
#    0.000    1.714    1.429    3.000    4.000    2.286 
#    5.143    0.714    0.000    0.000    0.000    0.000 
#    0.000    0.000    0.000    0.000    0.000    0.000 
#
# Total GULP energy -156146.650627 kJ/mol
# GULP energy per Si atom -5576.666094 kJ/mol
# Density = 2.585025 g / cm^3
# Si number density = 25.909224 Si / 1000 Ang^3
#
#
#
# Elastic Constant Matrix: (Units=GPa)
#
#
# Indices 1 2 3 4 5 6 
#
# 1 75.7001 8.8888 19.1673 0.0000 9.9463 0.0000
# 2 8.8888 162.9090 17.8438 0.0000 14.0460 0.0000
# 3 19.1673 17.8438 74.5907 0.0000 6.0932 0.0000
# 4 0.0000 0.0000 0.0000 24.7832 0.0000 3.9587
# 5 9.9463 14.0460 6.0932 0.0000 22.3719 0.0000
# 6 0.0000 0.0000 0.0000 3.9587 0.0000 16.2140
#
#
#
# Elastic Compliance Matrix: (Units=1/GPa)
#
#
# Indices 1 2 3 4 5 6 
#
# 1 0.014801 0.000051 -0.003350 0.000000 -0.005700 0.000000
# 2 0.000051 0.006605 -0.001281 0.000000 -0.003821 0.000000
# 3 -0.003350 -0.001281 0.014714 0.000000 -0.001714 0.000000
# 4 0.000000 0.000000 0.000000 0.041987 0.000000 -0.010251
# 5 -0.005700 -0.003821 -0.001714 0.000000 0.050099 0.000000
# 6 0.000000 0.000000 0.000000 -0.010251 0.000000 0.064178
#
#
# Mechanical properties :
#
#
# Convention : Reuss Voigt Hill
#
# Bulk Modulus (GPa) = 37.09218 44.99996 41.04607
# Shear Modulus (GPa) = 23.74938 30.49379 27.12159
#
# Velocity S-wave (km/s) = 3.03089 3.43439 3.23893
# Velocity P-wave (km/s) = 5.15710 5.75610 5.46481
#
# Compressibility (1/GPa) = 0.02695986
#
# Stress axis : x y z
#
# Youngs Moduli (GPa) = 67.56214 151.39182 67.96352
#
# Poissons Ratio (x) = -0.00769 0.22767
# Poissons Ratio (y) = -0.00343 0.08707
# Poissons Ratio (z) = 0.22633 0.19395
#
# Static dielectric constant tensor:
#      x y z
#    x 2.012020 0.000000 -0.007620 
#    y 0.000000 2.104210 0.000000 
#    z -0.007620 0.000000 2.202770 
# 
# From -- ./inp_files/276632.got.cif
#   From: 2010.05.17/outbox.cif.g08.bks.cpg/sg15_139_cif.got.tgz:276632.got - 2010.06.03 18:47:42.
