data_PCOD9287047
_publ_section_title
;
Structure prediction by ZEFSAII (Michael W. Deem and Ramdas Pophale) SiO2 
 PCOD9287047
Probable space group: C 2/C
;
_chemical_formula_sum "Si O2"
_cell_formula_units_Z 48
_cell_length_a 20.811373
_cell_length_b 9.532650
_cell_length_c 22.261889
_cell_angle_alpha 90.000000
_cell_angle_beta 27.843415
_cell_angle_gamma 90.000000
_cell_volume 2062.747543
_symmetry_space_group_name_H-M "C 2/C"
_symmetry_group_IT_number 15
_symmetry_cell_setting 'monoclinic'
loop_
_space_group_symop_operation_xyz
x,y,z
-x,y,1/2-z
-x,-y,-z
x,-y,1/2+z
1/2+x,1/2+y,z
1/2-x,1/2+y,1/2-z
1/2-x,1/2-y,-z
1/2+x,1/2-y,1/2+z
loop_
_atom_site_type_symbol
_atom_site_label
_atom_site_fract_x
_atom_site_fract_y
_atom_site_fract_z
Si Si1 0.402837 0.824438 0.455659
Si Si2 0.500000 0.581015 0.750000
Si Si3 0.500000 0.064810 0.750000
Si Si4 0.532333 0.164283 0.972952
Si Si5 0.017444 0.077927 0.923429
Si Si6 0.300619 0.524251 0.515626
Si Si7 0.278637 0.421506 0.341567
O O1 0.478790 0.850821 0.329769
O O2 0.506974 0.795584 0.424798
O O3 0.307077 0.688336 0.527496
O O4 0.312801 0.961434 0.548679
O O5 0.602478 0.494387 0.622512
O O6 0.610383 0.649332 0.705011
O O7 0.643378 0.982095 0.636142
O O8 0.678565 0.174924 0.884982
O O9 0.442370 0.264335 0.090240
O O10 0.500000 0.000000 0.000000
O O11 0.127767 0.009729 0.787739
O O12 0.875639 0.064948 0.004470
O O13 0.000000 0.000000 0.000000
#
# Coordination Sequence:
#
# PCOD9287047 Si02
#       7
#     8   4   4   8   8   8   8
#     4  11  23  41  70 105 149 191 244 312 360 437
#     4  10  21  46  65 102 150 197 239 302 366 439
#     4  12  25  38  71 114 148 197 251 300 372 439
#     4  10  24  46  69 103 138 188 242 299 365 434
#     4  11  24  45  71 104 138 188 241 299 370 436
#     4  11  24  40  70 106 148 194 250 301 370 436
#     4  10  24  43  69  97 146 189 240 295 370 425
#
# _framework density 23.269933999999999
#
# number of rings (size 3 to 8) (size 9 to 14) (size 15 to 20)
#    0.000    1.333    3.333    1.000    7.000    2.667 
#    3.000    4.167    0.000    0.000    0.000    0.000 
#    0.000    0.000    0.000    0.000    0.000    0.000 
#
# Total GULP energy -133831.064564 kJ/mol
# GULP energy per Si atom -5576.294357 kJ/mol
# Density = 2.321697 g / cm^3
# Si number density = 23.269934 Si / 1000 Ang^3
#
#
#
# Elastic Constant Matrix: (Units=GPa)
#
#
# Indices 1 2 3 4 5 6 
#
# 1 200.9925 18.0955 74.3959 0.0000 6.2584 0.0000
# 2 18.0955 58.3519 43.4271 0.0001 7.9756 0.0000
# 3 74.3959 43.4271 144.9795 0.0001 8.4478 0.0000
# 4 0.0000 0.0001 0.0001 15.5680 0.0000 1.1480
# 5 6.2584 7.9756 8.4478 0.0000 39.4712 0.0000
# 6 0.0000 0.0000 0.0000 1.1480 0.0000 15.6706
#
#
#
# Elastic Compliance Matrix: (Units=1/GPa)
#
#
# Indices 1 2 3 4 5 6 
#
# 1 0.006162 0.000616 -0.003324 0.000000 -0.000390 0.000000
# 2 0.000616 0.022492 -0.006868 0.000000 -0.003172 0.000000
# 3 -0.003324 -0.006868 0.010682 0.000000 -0.000371 0.000000
# 4 0.000000 0.000000 0.000000 0.064583 0.000000 -0.004731
# 5 -0.000390 -0.003172 -0.000371 0.000000 0.026117 0.000000
# 6 0.000000 0.000000 0.000000 -0.004731 0.000000 0.064160
#
#
# Mechanical properties :
#
#
# Convention : Reuss Voigt Hill
#
# Bulk Modulus (GPa) = 49.54521 75.12899 62.33710
# Shear Modulus (GPa) = 22.71929 32.03568 27.37748
#
# Velocity S-wave (km/s) = 3.12803 3.71441 3.43376
# Velocity P-wave (km/s) = 5.86377 7.12403 6.52440
#
# Compressibility (1/GPa) = 0.02018359
#
# Stress axis : x y z
#
# Youngs Moduli (GPa) = 162.27576 44.46094 93.61313
#
# Poissons Ratio (x) = -0.02740 0.31117
# Poissons Ratio (y) = -0.09999 0.64298
# Poissons Ratio (z) = 0.53941 0.30538
#
# Static dielectric constant tensor:
#      x y z
#    x 1.898200 0.000000 -0.024690 
#    y 0.000000 1.874610 0.000000 
#    z -0.024690 0.000000 1.985750 
# 
# From -- ./inp_files/252526.got.cif
#   From: 2010.05.17/outbox.cif.g08.bks.cpg/sg15_127_cif.got.tgz:252526.got - 2010.06.03 18:47:42.
