data_PCOD9287430
_publ_section_title
;
Structure prediction by ZEFSAII (Michael W. Deem and Ramdas Pophale) SiO2 
 PCOD9287430
Probable space group: C 2/C
;
_chemical_formula_sum "Si O2"
_cell_formula_units_Z 48
_cell_length_a 8.648022
_cell_length_b 12.034269
_cell_length_c 18.005380
_cell_angle_alpha 90.000000
_cell_angle_beta 77.035282
_cell_angle_gamma 90.000000
_cell_volume 1826.099258
_symmetry_space_group_name_H-M "C 2/C"
_symmetry_group_IT_number 15
_symmetry_cell_setting 'monoclinic'
loop_
_space_group_symop_operation_xyz
x,y,z
-x,y,1/2-z
-x,-y,-z
x,-y,1/2+z
1/2+x,1/2+y,z
1/2-x,1/2+y,1/2-z
1/2-x,1/2-y,-z
1/2+x,1/2-y,1/2+z
loop_
_atom_site_type_symbol
_atom_site_label
_atom_site_fract_x
_atom_site_fract_y
_atom_site_fract_z
Si Si1 0.003567 0.175796 0.055116
Si Si2 0.984900 0.470546 0.589801
Si Si3 0.563991 0.540438 0.849360
Si Si4 0.210443 0.243899 0.893049
Si Si5 0.824627 0.600167 0.300180
Si Si6 0.234158 0.668410 0.862293
O O1 0.108842 0.227381 0.110519
O O2 0.851907 0.256432 0.063791
O O3 0.120360 0.189111 0.973667
O O4 0.969951 0.050004 0.081950
O O5 0.880501 0.359134 0.609584
O O6 0.894997 0.573508 0.637125
O O7 0.000000 0.500000 0.500000
O O8 0.144684 0.445125 0.618240
O O9 0.681939 0.645444 0.839963
O O10 0.670317 0.461639 0.784093
O O11 0.395764 0.601184 0.858437
O O12 0.781189 0.729632 0.304397
O O13 0.000000 0.584234 0.250000
#
# Coordination Sequence:
#
# PCOD9287430 Si02
#       6
#     8   8   8   8   8   8
#     4  10  22  36  60  99 144 176 218 277 344 409
#     4  12  24  43  73 106 144 182 231 295 352 418
#     4  11  23  40  67  97 129 181 231 283 345 415
#     4  11  21  38  63  98 144 182 219 276 350 411
#     4  11  28  50  69  95 138 186 236 293 356 423
#     4  11  23  43  70 102 139 180 235 286 350 421
#
# _framework density 26.285536
#
# number of rings (size 3 to 8) (size 9 to 14) (size 15 to 20)
#    0.000    1.000    5.000    1.500    2.333    5.333 
#    0.000    0.000    0.000    0.000    0.000    0.000 
#    0.000    0.000    0.000    0.000    0.000    0.000 
#
# Total GULP energy -133977.540466 kJ/mol
# GULP energy per Si atom -5582.397519 kJ/mol
# Density = 2.622571 g / cm^3
# Si number density = 26.285536 Si / 1000 Ang^3
#
#
#
# Elastic Constant Matrix: (Units=GPa)
#
#
# Indices 1 2 3 4 5 6 
#
# 1 145.3919 85.8269 22.0955 0.0000 -19.9371 0.0000
# 2 85.8269 253.2555 36.6925 0.0000 -7.1625 0.0000
# 3 22.0955 36.6925 68.9923 0.0000 -14.6495 0.0000
# 4 0.0000 0.0000 0.0000 21.4036 0.0000 -20.8274
# 5 -19.9371 -7.1625 -14.6495 0.0000 35.2709 0.0000
# 6 0.0000 0.0000 0.0000 -20.8274 0.0000 67.6292
#
#
#
# Elastic Compliance Matrix: (Units=1/GPa)
#
#
# Indices 1 2 3 4 5 6 
#
# 1 0.009309 -0.002962 -0.000457 0.000000 0.004471 0.000000
# 2 -0.002962 0.005221 -0.002148 0.000000 -0.001506 0.000000
# 3 -0.000457 -0.002148 0.017148 0.000000 0.006428 0.000000
# 4 0.000000 0.000000 0.000000 0.066713 0.000000 0.020545
# 5 0.004471 -0.001506 0.006428 0.000000 0.033243 0.000000
# 6 0.000000 0.000000 0.000000 0.020545 0.000000 0.021114
#
#
# Mechanical properties :
#
#
# Convention : Reuss Voigt Hill
#
# Bulk Modulus (GPa) = 48.67483 84.09662 66.38572
# Shear Modulus (GPa) = 29.28610 46.39572 37.84091
#
# Velocity S-wave (km/s) = 3.34151 4.20583 3.79833
# Velocity P-wave (km/s) = 5.78321 7.45978 6.67435
#
# Compressibility (1/GPa) = 0.02054450
#
# Stress axis : x y z
#
# Youngs Moduli (GPa) = 107.42242 191.53254 58.31649
#
# Poissons Ratio (x) = 0.56735 0.02663
# Poissons Ratio (y) = 0.31821 0.12526
# Poissons Ratio (z) = 0.04905 0.41139
#
# Static dielectric constant tensor:
#      x y z
#    x 2.100440 0.000000 0.078880 
#    y 0.000000 1.997550 0.000000 
#    z 0.078880 0.000000 2.277980 
# 
# From -- ./inp_files/263473.got.cif
#   From: 2010.05.17/outbox.cif.g08.bks.cpg/sg15_132_cif.got.tgz:263473.got - 2010.06.03 18:47:42.
