data_PCOD9287218
_publ_section_title
;
Structure prediction by ZEFSAII (Michael W. Deem and Ramdas Pophale) SiO2 
 PCOD9287218
Probable space group: C 2/C
;
_chemical_formula_sum "Si O2"
_cell_formula_units_Z 36
_cell_length_a 11.446278
_cell_length_b 10.047221
_cell_length_c 27.277635
_cell_angle_alpha 90.000000
_cell_angle_beta 27.432566
_cell_angle_gamma 90.000000
_cell_volume 1445.237604
_symmetry_space_group_name_H-M "C 2/C"
_symmetry_group_IT_number 15
_symmetry_cell_setting 'monoclinic'
loop_
_space_group_symop_operation_xyz
x,y,z
-x,y,1/2-z
-x,-y,-z
x,-y,1/2+z
1/2+x,1/2+y,z
1/2-x,1/2+y,1/2-z
1/2-x,1/2-y,-z
1/2+x,1/2-y,1/2+z
loop_
_atom_site_type_symbol
_atom_site_label
_atom_site_fract_x
_atom_site_fract_y
_atom_site_fract_z
Si Si1 0.758615 0.789376 0.576237
Si Si2 0.737196 0.723027 0.071032
Si Si3 0.166780 0.047970 0.542824
Si Si4 0.275509 0.633493 0.759785
Si Si5 0.500000 0.576565 0.250000
O O1 0.782566 0.915109 0.531859
O O2 0.809835 0.660141 0.522186
O O3 0.473108 0.754334 0.698788
O O4 0.984607 0.787628 0.530819
O O5 0.740529 0.594500 0.035231
O O6 0.657040 0.666265 0.154168
O O7 0.996900 0.686049 0.856922
O O8 0.880215 0.076373 0.668717
O O9 0.324762 0.520097 0.781946
#
# Coordination Sequence:
#
# PCOD9287218 Si02
#       5
#     8   8   8   8   4
#     4   9  18  35  57  86 113 142 196 233 261 345
#     4  11  19  34  64  79 109 162 178 223 300 314
#     4   8  18  33  54  86 111 141 194 229 269 337
#     4   9  20  35  53  88 115 138 191 236 267 338
#     4  10  22  34  58  86 114 144 192 232 274 332
#
# _framework density 24.909397999999999
#
# number of rings (size 3 to 8) (size 9 to 14) (size 15 to 20)
#    1.333    1.333    0.000    2.000    0.000    0.000 
#    0.000    5.556    0.000    6.667    0.000    0.000 
#    0.000    0.000    0.000    0.000    0.000    0.000 
#
# Total GULP energy -100670.255016 kJ/mol
# GULP energy per Si atom -5592.791945 kJ/mol
# Density = 2.485270 g / cm^3
# Si number density = 24.909398 Si / 1000 Ang^3
#
#
#
# Elastic Constant Matrix: (Units=GPa)
#
#
# Indices 1 2 3 4 5 6 
#
# 1 82.4211 25.5935 47.1074 -0.0010 -25.1045 -0.0015
# 2 25.5935 61.9474 41.5293 -0.0007 -6.5181 -0.0019
# 3 47.1074 41.5293 110.4787 0.0010 -6.5437 -0.0011
# 4 -0.0010 -0.0007 0.0010 39.7659 -0.0002 27.9890
# 5 -25.1045 -6.5181 -6.5437 -0.0002 52.5861 -0.0005
# 6 -0.0015 -0.0019 -0.0011 27.9890 -0.0005 42.1825
#
#
#
# Elastic Compliance Matrix: (Units=1/GPa)
#
#
# Indices 1 2 3 4 5 6 
#
# 1 0.019241 -0.002572 -0.006762 0.000001 0.008025 0.000000
# 2 -0.002572 0.022073 -0.007164 0.000000 0.000617 0.000001
# 3 -0.006762 -0.007164 0.014491 -0.000001 -0.002313 0.000000
# 4 0.000001 0.000000 -0.000001 0.047182 0.000000 -0.031306
# 5 0.008025 0.000617 -0.002313 0.000000 0.022636 0.000000
# 6 0.000000 0.000001 0.000000 -0.031306 0.000000 0.044479
#
#
# Mechanical properties :
#
#
# Convention : Reuss Voigt Hill
#
# Bulk Modulus (GPa) = 43.84297 53.70083 48.77190
# Shear Modulus (GPa) = 23.73041 36.28136 30.00589
#
# Velocity S-wave (km/s) = 3.08988 3.82060 3.47450
# Velocity P-wave (km/s) = 5.51081 6.40842 5.97649
#
# Compressibility (1/GPa) = 0.02280867
#
# Stress axis : x y z
#
# Youngs Moduli (GPa) = 51.97359 45.30427 69.00891
#
# Poissons Ratio (x) = 0.11650 0.46664
# Poissons Ratio (y) = 0.13365 0.49440
# Poissons Ratio (z) = 0.35145 0.32457
#
# Static dielectric constant tensor:
#      x y z
#    x 1.967960 0.000000 0.024880 
#    y 0.000000 1.976620 0.000000 
#    z 0.024880 0.000000 1.992340 
# 
# From -- ./inp_files/292487.got.cif
#   From: 2010.05.17/outbox.cif.g08.bks.cpg/sg15_147_cif.got.tgz:292487.got - 2010.06.03 18:47:42.
