data_PCOD9287932
_publ_section_title
;
Structure prediction by ZEFSAII (Michael W. Deem and Ramdas Pophale) SiO2 
 PCOD9287932
Probable space group: C 2/C
;
_chemical_formula_sum "Si O2"
_cell_formula_units_Z 28
_cell_length_a 28.868573
_cell_length_b 7.013220
_cell_length_c 17.048820
_cell_angle_alpha 90.000000
_cell_angle_beta 20.443611
_cell_angle_gamma 90.000000
_cell_volume 1205.639567
_symmetry_space_group_name_H-M "C 2/C"
_symmetry_group_IT_number 15
_symmetry_cell_setting 'monoclinic'
loop_
_space_group_symop_operation_xyz
x,y,z
-x,y,1/2-z
-x,-y,-z
x,-y,1/2+z
1/2+x,1/2+y,z
1/2-x,1/2+y,1/2-z
1/2-x,1/2-y,-z
1/2+x,1/2-y,1/2+z
loop_
_atom_site_type_symbol
_atom_site_label
_atom_site_fract_x
_atom_site_fract_y
_atom_site_fract_z
Si Si1 0.595108 0.736231 0.311475
Si Si2 0.872723 0.821537 0.914738
Si Si3 0.398564 0.179352 0.250841
Si Si4 0.500000 0.319481 0.250000
O O1 0.595685 0.634882 0.226691
O O2 0.471980 0.710211 0.563769
O O3 0.600563 0.959147 0.276608
O O4 0.734939 0.711079 0.134636
O O5 0.000000 0.718269 0.750000
O O6 0.877245 0.027910 0.950025
O O7 0.250000 0.250000 0.500000
O O8 0.478654 0.205120 0.204563
#
# Coordination Sequence:
#
# PCOD9287932 Si02
#       4
#     8   8   8   4
#     4  10  22  40  64  86 125 165 205 252 319 371
#     4   9  20  42  57  90 118 159 210 253 310 372
#     4  11  22  41  60  93 123 161 209 260 306 373
#     4  10  22  38  60  88 124 160 210 258 310 366
#
# _framework density 23.224187000000001
#
# number of rings (size 3 to 8) (size 9 to 14) (size 15 to 20)
#    0.857    1.143    2.857    0.000    2.000    3.429 
#    0.000    0.000    0.000    0.000    0.000    0.000 
#    0.000    0.000    0.000    0.000    0.000    0.000 
#
# Total GULP energy -78170.996411 kJ/mol
# GULP energy per Si atom -5583.642601 kJ/mol
# Density = 2.317133 g / cm^3
# Si number density = 23.224187 Si / 1000 Ang^3
#
#
#
# Elastic Constant Matrix: (Units=GPa)
#
#
# Indices 1 2 3 4 5 6 
#
# 1 126.1832 16.9005 76.9029 0.0000 -23.4311 0.0000
# 2 16.9005 51.5840 12.6076 0.0000 -0.2983 0.0000
# 3 76.9029 12.6076 173.0966 0.0000 8.5385 0.0000
# 4 0.0000 0.0000 0.0000 23.3745 0.0000 3.2047
# 5 -23.4311 -0.2983 8.5385 0.0000 39.2189 0.0000
# 6 0.0000 0.0000 0.0000 3.2047 0.0000 33.2691
#
#
#
# Elastic Compliance Matrix: (Units=1/GPa)
#
#
# Indices 1 2 3 4 5 6 
#
# 1 0.014150 -0.002977 -0.006556 0.000000 0.009858 0.000000
# 2 -0.002977 0.020372 -0.000082 0.000000 -0.001606 0.000000
# 3 -0.006556 -0.000082 0.008986 0.000000 -0.005874 0.000000
# 4 0.000000 0.000000 0.000000 0.043354 0.000000 -0.004176
# 5 0.009858 -0.001606 -0.005874 0.000000 0.032654 0.000000
# 6 0.000000 0.000000 0.000000 -0.004176 0.000000 0.030460
#
#
# Mechanical properties :
#
#
# Convention : Reuss Voigt Hill
#
# Bulk Modulus (GPa) = 41.18984 62.63173 51.91079
# Shear Modulus (GPa) = 28.20109 35.46934 31.83522
#
# Velocity S-wave (km/s) = 3.48846 3.91226 3.70642
# Velocity P-wave (km/s) = 5.83096 6.88727 6.38101
#
# Compressibility (1/GPa) = 0.02427783
#
# Stress axis : x y z
#
# Youngs Moduli (GPa) = 70.67218 49.08725 111.29029
#
# Poissons Ratio (x) = 0.14611 0.72961
# Poissons Ratio (y) = 0.21036 0.00914
# Poissons Ratio (z) = 0.46332 0.00403
#
# Static dielectric constant tensor:
#      x y z
#    x 1.860490 0.000000 -0.040710 
#    y 0.000000 2.027220 0.000000 
#    z -0.040710 0.000000 1.883740 
# 
# From -- ./inp_files/140304.got.cif
#   From: 2010.05.17/outbox.cif.g08.bks.cpg/sg15_71_cif.got.tgz:140304.got - 2010.06.03 18:47:42.
