data_PCOD9287791
_publ_section_title
;
Structure prediction by ZEFSAII (Michael W. Deem and Ramdas Pophale) SiO2 
 PCOD9287791
Probable space group: C 2/C
;
_chemical_formula_sum "Si O2"
_cell_formula_units_Z 56
_cell_length_a 23.908440
_cell_length_b 24.991812
_cell_length_c 13.786400
_cell_angle_alpha 90.000000
_cell_angle_beta 21.154138
_cell_angle_gamma 90.000000
_cell_volume 2972.764367
_symmetry_space_group_name_H-M "C 2/C"
_symmetry_group_IT_number 15
_symmetry_cell_setting 'monoclinic'
loop_
_space_group_symop_operation_xyz
x,y,z
-x,y,1/2-z
-x,-y,-z
x,-y,1/2+z
1/2+x,1/2+y,z
1/2-x,1/2+y,1/2-z
1/2-x,1/2-y,-z
1/2+x,1/2-y,1/2+z
loop_
_atom_site_type_symbol
_atom_site_label
_atom_site_fract_x
_atom_site_fract_y
_atom_site_fract_z
Si Si1 0.887633 0.787930 0.240787
Si Si2 0.835112 0.134859 0.467344
Si Si3 0.000000 0.159732 0.750000
Si Si4 0.500000 0.146992 0.750000
Si Si5 0.473818 0.602586 0.522357
Si Si6 0.107647 0.713843 0.761991
Si Si7 0.288208 0.415773 0.696359
Si Si8 0.152452 0.970235 0.440631
O O1 0.750000 0.750000 0.500000
O O2 0.865849 0.846522 0.225216
O O3 0.984021 0.804282 0.180624
O O4 0.982415 0.751561 0.013375
O O5 0.690148 0.173731 0.703900
O O6 0.000000 0.152158 0.250000
O O7 0.785361 0.079614 0.598090
O O8 0.890061 0.124764 0.268452
O O9 0.149913 0.121956 0.490653
O O10 0.543163 0.182863 0.773152
O O11 0.646140 0.111515 0.480912
O O12 0.562019 0.581327 0.474386
O O13 0.392886 0.556465 0.589451
O O14 0.250000 0.750000 0.500000
O O15 0.250634 0.476131 0.726529
O O16 0.000000 0.985884 0.750000
#
# Coordination Sequence:
#
# PCOD9287791 Si02
#       8
#     8   8   4   4   8   8   8   8
#     4  11  23  38  57  86 121 157 195 242 313 353
#     4   9  19  37  60  91 115 148 212 250 285 361
#     4  10  22  38  56  82 114 152 204 244 282 378
#     4  12  26  36  62  92 130 148 206 258 298 374
#     4   9  18  36  58  86 114 150 210 242 278 367
#     4  12  23  41  62  90 119 168 199 251 307 351
#     4  11  19  39  57  88 119 156 198 248 310 343
#     4   9  19  34  64  86 113 158 202 249 292 350
#
# _framework density 18.837685
#
# number of rings (size 3 to 8) (size 9 to 14) (size 15 to 20)
#    0.000    2.000    3.571    2.143    1.000    2.286 
#    0.000    2.143    0.000    0.000    0.000    0.000 
#    0.000    0.000    0.000    0.000    0.000    0.000 
#
# Total GULP energy -156040.140584 kJ/mol
# GULP energy per Si atom -5572.862164 kJ/mol
# Density = 1.879481 g / cm^3
# Si number density = 18.837685 Si / 1000 Ang^3
#
#
#
# Elastic Constant Matrix: (Units=GPa)
#
#
# Indices 1 2 3 4 5 6 
#
# 1 67.6420 43.5696 15.3212 -0.0039 7.8031 0.0024
# 2 43.5696 120.8366 50.4420 0.0044 -2.2822 0.0096
# 3 15.3212 50.4420 88.0726 -0.0072 12.3777 0.0038
# 4 -0.0039 0.0044 -0.0072 29.5851 0.0056 4.9010
# 5 7.8031 -2.2822 12.3777 0.0056 20.0569 -0.0004
# 6 0.0024 0.0096 0.0038 4.9010 -0.0004 20.2768
#
#
#
# Elastic Compliance Matrix: (Units=1/GPa)
#
#
# Indices 1 2 3 4 5 6 
#
# 1 0.021304 -0.009212 0.003156 0.000007 -0.011284 -0.000001
# 2 -0.009212 0.015458 -0.008761 -0.000007 0.010750 -0.000003
# 3 0.003156 -0.008761 0.017668 0.000009 -0.013128 -0.000002
# 4 0.000007 -0.000007 0.000009 0.035211 -0.000019 -0.008511
# 5 -0.011284 0.010750 -0.013128 -0.000019 0.063573 0.000005
# 6 -0.000001 -0.000003 -0.000002 -0.008511 0.000005 0.051374
#
#
# Mechanical properties :
#
#
# Convention : Reuss Voigt Hill
#
# Bulk Modulus (GPa) = 40.33069 55.02409 47.67739
# Shear Modulus (GPa) = 20.61956 25.13167 22.87561
#
# Velocity S-wave (km/s) = 3.31205 3.65652 3.48854
# Velocity P-wave (km/s) = 6.00685 6.86293 6.44911
#
# Compressibility (1/GPa) = 0.02479501
#
# Stress axis : x y z
#
# Youngs Moduli (GPa) = 46.93876 64.69339 56.59899
#
# Poissons Ratio (x) = 0.59596 -0.17862
# Poissons Ratio (y) = 0.43241 0.49588
# Poissons Ratio (z) = -0.14813 0.56679
#
# Static dielectric constant tensor:
#      x y z
#    x 1.679660 0.000000 0.021090 
#    y 0.000000 1.705120 0.000010 
#    z 0.021090 0.000010 1.615540 
# 
# From -- ./inp_files/179214.got.cif
#   From: 2010.05.17/outbox.cif.g08.bks.cpg/sg15_90_cif.got.tgz:179214.got - 2010.06.03 18:47:42.
