data_PCOD9287207
_publ_section_title
;
Structure prediction by ZEFSAII (Michael W. Deem and Ramdas Pophale) SiO2 
 PCOD9287207
Probable space group: C 2/C
;
_chemical_formula_sum "Si O2"
_cell_formula_units_Z 60
_cell_length_a 8.804633
_cell_length_b 21.154949
_cell_length_c 18.940486
_cell_angle_alpha 90.000000
_cell_angle_beta 57.395776
_cell_angle_gamma 90.000000
_cell_volume 2971.934626
_symmetry_space_group_name_H-M "C 2/C"
_symmetry_group_IT_number 15
_symmetry_cell_setting 'monoclinic'
loop_
_space_group_symop_operation_xyz
x,y,z
-x,y,1/2-z
-x,-y,-z
x,-y,1/2+z
1/2+x,1/2+y,z
1/2-x,1/2+y,1/2-z
1/2-x,1/2-y,-z
1/2+x,1/2-y,1/2+z
loop_
_atom_site_type_symbol
_atom_site_label
_atom_site_fract_x
_atom_site_fract_y
_atom_site_fract_z
Si Si1 0.254399 0.264971 0.244179
Si Si2 0.204522 0.582904 0.922949
Si Si3 0.192791 0.567458 0.419598
Si Si4 0.885672 0.158258 0.461629
Si Si5 0.500000 0.358985 0.250000
Si Si6 0.879353 0.715301 0.879668
Si Si7 0.581564 0.868136 0.802955
Si Si8 0.732183 0.319828 0.970743
O O1 0.424778 0.309434 0.211459
O O2 0.182739 0.274873 0.184072
O O3 0.288723 0.190910 0.248721
O O4 0.093409 0.290399 0.333751
O O5 0.216308 0.507093 0.923188
O O6 0.330881 0.602410 0.824437
O O7 0.285369 0.625738 0.965686
O O8 0.987473 0.591138 0.992421
O O9 0.363596 0.600220 0.414435
O O10 0.165706 0.587563 0.343717
O O11 0.835063 0.218239 0.426711
O O12 0.732049 0.158311 0.559990
O O13 0.068850 0.172110 0.456873
O O14 0.500000 0.896427 0.750000
O O15 0.415293 0.834118 0.883367
O O16 0.750000 0.250000 0.000000
#
# Coordination Sequence:
#
# PCOD9287207 Si02
#       8
#     8   8   8   8   4   8   8   8
#     4  11  21  36  56  93 128 159 199 264 323 373
#     4  10  24  44  65  91 127 174 212 267 328 382
#     4  10  23  45  67  87 128 175 219 258 321 398
#     4  11  21  37  62  94 120 169 208 264 311 389
#     4  12  22  38  66  92 124 166 210 270 324 384
#     4  10  22  34  55  94 130 156 200 259 327 367
#     4  11  21  39  62  94 123 167 209 266 322 378
#     4  11  24  39  65  96 129 166 214 269 329 387
#
# _framework density 20.188870000000001
#
# number of rings (size 3 to 8) (size 9 to 14) (size 15 to 20)
#    0.000    1.333    2.000    4.000    7.467    0.533 
#    4.800    0.000    8.800    0.000    0.000    0.000 
#    0.000    0.000    0.000    0.000    0.000    0.000 
#
# Total GULP energy -167149.865949 kJ/mol
# GULP energy per Si atom -5571.662198 kJ/mol
# Density = 2.014292 g / cm^3
# Si number density = 20.188870 Si / 1000 Ang^3
#
#
#
# Elastic Constant Matrix: (Units=GPa)
#
#
# Indices 1 2 3 4 5 6 
#
# 1 99.8142 54.0816 23.4718 0.0000 21.0321 0.0000
# 2 54.0816 87.7673 24.3938 0.0000 19.6500 0.0000
# 3 23.4718 24.3938 72.6055 0.0000 7.5697 0.0000
# 4 0.0000 0.0000 0.0000 11.4145 0.0000 -2.4429
# 5 21.0321 19.6500 7.5697 0.0000 30.3225 0.0000
# 6 0.0000 0.0000 0.0000 -2.4429 0.0000 22.7418
#
#
#
# Elastic Compliance Matrix: (Units=1/GPa)
#
#
# Indices 1 2 3 4 5 6 
#
# 1 0.015997 -0.008136 -0.001880 0.000000 -0.005354 0.000000
# 2 -0.008136 0.018493 -0.003000 0.000000 -0.005592 0.000000
# 3 -0.001880 -0.003000 0.015452 0.000000 -0.000610 0.000000
# 4 0.000000 0.000000 0.000000 0.089669 0.000000 0.009632
# 5 -0.005354 -0.005592 -0.000610 0.000000 0.040468 0.000000
# 6 0.000000 0.000000 0.000000 0.009632 0.000000 0.045007
#
#
# Mechanical properties :
#
#
# Convention : Reuss Voigt Hill
#
# Bulk Modulus (GPa) = 41.82259 51.56459 46.69359
# Shear Modulus (GPa) = 19.29842 23.44507 21.37175
#
# Velocity S-wave (km/s) = 3.09511 3.41146 3.25713
# Velocity P-wave (km/s) = 5.79082 6.41202 6.10932
#
# Compressibility (1/GPa) = 0.02391052
#
# Stress axis : x y z
#
# Youngs Moduli (GPa) = 62.51081 54.07458 64.71557
#
# Poissons Ratio (x) = 0.43996 0.12165
# Poissons Ratio (y) = 0.50860 0.19415
# Poissons Ratio (z) = 0.11751 0.16222
#
# Static dielectric constant tensor:
#      x y z
#    x 1.766980 0.000000 -0.035620 
#    y 0.000000 1.686400 0.000000 
#    z -0.035620 0.000000 1.839410 
# 
# From -- ./inp_files/192526.got.cif
#   From: 2010.05.17/outbox.cif.g08.bks.cpg/sg15_97_cif.got.tgz:192526.got - 2010.06.03 18:47:42.
