data_PCOD9287572
_publ_section_title
;
Structure prediction by ZEFSAII (Michael W. Deem and Ramdas Pophale) SiO2 
 PCOD9287572
Probable space group: C 2/C
;
_chemical_formula_sum "Si O2"
_cell_formula_units_Z 56
_cell_length_a 21.929321
_cell_length_b 25.013147
_cell_length_c 10.635359
_cell_angle_alpha 90.000000
_cell_angle_beta 148.980622
_cell_angle_gamma 90.000000
_cell_volume 3006.279606
_symmetry_space_group_name_H-M "C 2/C"
_symmetry_group_IT_number 15
_symmetry_cell_setting 'monoclinic'
loop_
_space_group_symop_operation_xyz
x,y,z
-x,y,1/2-z
-x,-y,-z
x,-y,1/2+z
1/2+x,1/2+y,z
1/2-x,1/2+y,1/2-z
1/2-x,1/2-y,-z
1/2+x,1/2-y,1/2+z
loop_
_atom_site_type_symbol
_atom_site_label
_atom_site_fract_x
_atom_site_fract_y
_atom_site_fract_z
Si Si1 0.950651 0.296430 0.532520
Si Si2 0.565628 0.387859 0.238329
Si Si3 0.079525 0.006513 0.266972
Si Si4 0.596604 0.834561 0.315341
Si Si5 0.673070 0.717450 0.540865
Si Si6 0.164007 0.115915 0.344588
Si Si7 0.136897 0.215595 0.764570
O O1 0.957075 0.333848 0.420556
O O2 0.814340 0.281075 0.308308
O O3 0.000000 0.319695 0.750000
O O4 0.025769 0.243715 0.633644
O O5 0.500000 0.372907 0.250000
O O6 0.624598 0.445765 0.361268
O O7 0.654873 0.343282 0.349884
O O8 0.457351 0.386606 0.948048
O O9 0.000000 0.017456 0.250000
O O10 0.168867 0.055954 0.410105
O O11 0.000000 0.000000 0.000000
O O12 0.500000 0.849464 0.250000
O O13 0.633770 0.772656 0.407021
O O14 0.717927 0.868790 0.524842
O O15 0.650290 0.663928 0.420715
O O16 0.618091 0.714537 0.582094
O O17 0.250000 0.250000 0.000000
#
# Coordination Sequence:
#
# PCOD9287572 Si02
#       7
#     8   8   8   8   8   8   8
#     4  11  21  37  51  77 119 152 192 234 280 344
#     4  10  22  37  57  86 119 151 191 242 296 349
#     4   9  20  38  60  88 115 147 190 240 294 348
#     4  11  22  36  55  84 118 157 198 235 286 350
#     4  11  23  36  53  84 117 161 196 235 290 355
#     4  10  22  37  60  84 117 154 194 246 292 347
#     4  12  23  33  57  85 118 156 192 237 295 348
#
# _framework density 18.627675
#
# number of rings (size 3 to 8) (size 9 to 14) (size 15 to 20)
#    0.000    1.429    2.857    3.857    6.000    0.000 
#    0.000    0.000    0.000    0.000    3.714   11.000 
#    0.000    0.000    0.000    0.000    0.000    0.000 
#
# Total GULP energy -156269.290918 kJ/mol
# GULP energy per Si atom -5581.046104 kJ/mol
# Density = 1.858528 g / cm^3
# Si number density = 18.627675 Si / 1000 Ang^3
#
#
#
# Elastic Constant Matrix: (Units=GPa)
#
#
# Indices 1 2 3 4 5 6 
#
# 1 103.7171 59.8162 32.6421 0.0000 -5.4776 0.0000
# 2 59.8162 131.1715 40.2222 0.0000 19.8530 0.0000
# 3 32.6421 40.2222 62.1987 0.0000 3.8427 0.0000
# 4 0.0000 0.0000 0.0000 18.4222 0.0000 10.3234
# 5 -5.4776 19.8530 3.8427 0.0000 30.9822 0.0000
# 6 0.0000 0.0000 0.0000 10.3234 0.0000 15.1174
#
#
#
# Elastic Compliance Matrix: (Units=1/GPa)
#
#
# Indices 1 2 3 4 5 6 
#
# 1 0.015286 -0.006884 -0.004041 0.000000 0.007615 0.000000
# 2 -0.006884 0.013588 -0.004596 0.000000 -0.009354 0.000000
# 3 -0.004041 -0.004596 0.021195 0.000000 -0.000398 0.000000
# 4 0.000000 0.000000 0.000000 0.087931 0.000000 -0.060046
# 5 0.007615 -0.009354 -0.000398 0.000000 0.039666 0.000000
# 6 0.000000 0.000000 0.000000 -0.060046 0.000000 0.107153
#
#
# Mechanical properties :
#
#
# Convention : Reuss Voigt Hill
#
# Bulk Modulus (GPa) = 52.55819 62.49426 57.52622
# Shear Modulus (GPa) = 15.51814 23.86479 19.69147
#
# Velocity S-wave (km/s) = 2.88942 3.58319 3.25485
# Velocity P-wave (km/s) = 6.27758 7.12327 6.71376
#
# Compressibility (1/GPa) = 0.01902653
#
# Stress axis : x y z
#
# Youngs Moduli (GPa) = 65.42088 73.59462 47.18091
#
# Poissons Ratio (x) = 0.50662 0.19065
# Poissons Ratio (y) = 0.45035 0.21686
# Poissons Ratio (z) = 0.26435 0.33827
#
# Static dielectric constant tensor:
#      x y z
#    x 1.679510 0.000000 -0.022580 
#    y 0.000000 1.668720 0.000000 
#    z -0.022580 0.000000 1.663800 
# 
# From -- ./inp_files/120172.got.cif
#   From: 2010.05.17/outbox.cif.g08.bks.cpg/sg15_61_cif.got.tgz:120172.got - 2010.06.03 18:47:42.
