data_PCOD9287860
_publ_section_title
;
Structure prediction by ZEFSAII (Michael W. Deem and Ramdas Pophale) SiO2 
 PCOD9287860
Probable space group: C 2/C
;
_chemical_formula_sum "Si O2"
_cell_formula_units_Z 44
_cell_length_a 23.805384
_cell_length_b 8.889752
_cell_length_c 9.565382
_cell_angle_alpha 90.000000
_cell_angle_beta 63.764560
_cell_angle_gamma 90.000000
_cell_volume 1815.734677
_symmetry_space_group_name_H-M "C 2/C"
_symmetry_group_IT_number 15
_symmetry_cell_setting 'monoclinic'
loop_
_space_group_symop_operation_xyz
x,y,z
-x,y,1/2-z
-x,-y,-z
x,-y,1/2+z
1/2+x,1/2+y,z
1/2-x,1/2+y,1/2-z
1/2-x,1/2-y,-z
1/2+x,1/2-y,1/2+z
loop_
_atom_site_type_symbol
_atom_site_label
_atom_site_fract_x
_atom_site_fract_y
_atom_site_fract_z
Si Si1 0.100908 0.548513 0.654774
Si Si2 0.000000 0.966006 0.750000
Si Si3 0.497159 0.193310 0.945204
Si Si4 0.237001 0.501283 0.083492
Si Si5 0.921466 0.222949 0.775449
Si Si6 0.297986 0.323851 0.257008
O O1 0.063759 0.631009 0.571720
O O2 0.172046 0.582924 0.616370
O O3 0.104081 0.369777 0.619731
O O4 0.055528 0.590075 0.835849
O O5 0.989159 0.856994 0.632570
O O6 0.059414 0.073957 0.665224
O O7 0.481074 0.215691 0.123072
O O8 0.279853 0.390801 0.127552
O O9 0.223176 0.650883 0.193254
O O10 0.266308 0.570812 0.910764
O O11 0.870931 0.176268 0.714929
#
# Coordination Sequence:
#
# PCOD9287860 Si02
#       6
#     8   4   8   8   8   8
#     4   9  21  39  64  89 122 162 218 266 312 387
#     4  10  22  38  58  92 126 162 202 266 324 384
#     4  10  22  40  62  94 122 163 214 264 327 382
#     4  10  23  45  63  98 128 172 220 266 326 383
#     4  11  22  40  63  92 127 166 209 268 327 384
#     4  10  25  42  67  95 131 172 218 269 320 394
#
# _framework density 24.232614999999999
#
# number of rings (size 3 to 8) (size 9 to 14) (size 15 to 20)
#    0.000    2.182    0.000    2.182    7.636    3.636 
#    6.545    0.000    0.000    0.000    0.000    0.000 
#    0.000    0.000    0.000    0.000    0.000    0.000 
#
# Total GULP energy -123005.817997 kJ/mol
# GULP energy per Si atom -5591.173545 kJ/mol
# Density = 2.417746 g / cm^3
# Si number density = 24.232615 Si / 1000 Ang^3
#
#
#
# Elastic Constant Matrix: (Units=GPa)
#
#
# Indices 1 2 3 4 5 6 
#
# 1 132.1878 47.5784 6.5756 0.0000 1.0837 0.0000
# 2 47.5784 117.2587 15.8338 0.0000 5.7839 0.0000
# 3 6.5756 15.8338 57.6717 0.0000 8.2792 0.0000
# 4 0.0000 0.0000 0.0000 31.0903 0.0000 13.8570
# 5 1.0837 5.7839 8.2792 0.0000 27.1275 0.0000
# 6 0.0000 0.0000 0.0000 13.8570 0.0000 46.9718
#
#
#
# Elastic Compliance Matrix: (Units=1/GPa)
#
#
# Indices 1 2 3 4 5 6 
#
# 1 0.008864 -0.003607 -0.000084 0.000000 0.000440 0.000000
# 2 -0.003607 0.010362 -0.002235 0.000000 -0.001383 0.000000
# 3 -0.000084 -0.002235 0.018714 0.000000 -0.005231 0.000000
# 4 0.000000 0.000000 0.000000 0.037034 0.000000 -0.010925
# 5 0.000440 -0.001383 -0.005231 0.000000 0.038737 0.000000
# 6 0.000000 0.000000 0.000000 -0.010925 0.000000 0.024512
#
#
# Mechanical properties :
#
#
# Convention : Reuss Voigt Hill
#
# Bulk Modulus (GPa) = 38.33163 49.67708 44.00436
# Shear Modulus (GPa) = 31.49219 36.84661 34.16940
#
# Velocity S-wave (km/s) = 3.60888 3.90364 3.75915
# Velocity P-wave (km/s) = 5.76349 6.39237 6.08606
#
# Compressibility (1/GPa) = 0.02608811
#
# Stress axis : x y z
#
# Youngs Moduli (GPa) = 112.81839 96.50901 53.43680
#
# Poissons Ratio (x) = 0.34811 0.00447
# Poissons Ratio (y) = 0.40693 0.11943
# Poissons Ratio (z) = 0.00943 0.21570
#
# Static dielectric constant tensor:
#      x y z
#    x 1.942480 0.000000 -0.004310 
#    y 0.000000 1.921300 0.000000 
#    z -0.004310 0.000000 1.955850 
# 
# From -- ./inp_files/116234.got.cif
#   From: 2010.05.17/outbox.cif.g08.bks.cpg/sg15_59_cif.got.tgz:116234.got - 2010.06.03 18:47:42.
