data_PCOD9287519
_publ_section_title
;
Structure prediction by ZEFSAII (Michael W. Deem and Ramdas Pophale) SiO2 
 PCOD9287519
Probable space group: C 2/C
;
_chemical_formula_sum "Si O2"
_cell_formula_units_Z 40
_cell_length_a 14.858836
_cell_length_b 13.796477
_cell_length_c 24.966475
_cell_angle_alpha 90.000000
_cell_angle_beta 157.228286
_cell_angle_gamma 90.000000
_cell_volume 1981.020614
_symmetry_space_group_name_H-M "C 2/C"
_symmetry_group_IT_number 15
_symmetry_cell_setting 'monoclinic'
loop_
_space_group_symop_operation_xyz
x,y,z
-x,y,1/2-z
-x,-y,-z
x,-y,1/2+z
1/2+x,1/2+y,z
1/2-x,1/2+y,1/2-z
1/2-x,1/2-y,-z
1/2+x,1/2-y,1/2+z
loop_
_atom_site_type_symbol
_atom_site_label
_atom_site_fract_x
_atom_site_fract_y
_atom_site_fract_z
Si Si1 0.583243 0.650094 0.449973
Si Si2 0.698512 0.165331 0.679871
Si Si3 0.000000 0.124645 0.750000
Si Si4 0.500000 0.124606 0.750000
Si Si5 0.181225 0.474225 0.512277
Si Si6 0.257591 0.987227 0.210466
O O1 0.417091 0.742476 0.355564
O O2 0.815755 0.678088 0.610563
O O3 0.662661 0.597193 0.438936
O O4 0.434264 0.568599 0.398854
O O5 0.483731 0.096314 0.543251
O O6 0.822334 0.099070 0.793011
O O7 0.862361 0.184603 0.719498
O O8 0.174094 0.052082 0.876342
O O9 0.654894 0.059019 0.795968
O O10 0.992633 0.524288 0.369224
#
# Coordination Sequence:
#
# PCOD9287519 Si02
#       6
#     8   8   4   4   8   8
#     4  11  20  42  62  93 126 157 215 257 305 373
#     4  10  23  37  61  95 123 160 214 254 310 367
#     4  12  20  42  62  90 130 168 202 258 326 358
#     4  10  22  36  68  82 120 174 202 252 312 372
#     4   9  20  38  62  86 123 170 203 256 303 372
#     4   9  21  40  59  90 124 160 206 258 309 363
#
# _framework density 20.191611999999999
#
# number of rings (size 3 to 8) (size 9 to 14) (size 15 to 20)
#    1.200    0.800    2.000    1.800    0.000    1.600 
#    3.600    1.000    0.000    0.000    0.000    0.000 
#    0.000    0.000    0.000    0.000    0.000    0.000 
#
# Total GULP energy -111402.091653 kJ/mol
# GULP energy per Si atom -5570.104583 kJ/mol
# Density = 2.014565 g / cm^3
# Si number density = 20.191612 Si / 1000 Ang^3
#
#
#
# Elastic Constant Matrix: (Units=GPa)
#
#
# Indices 1 2 3 4 5 6 
#
# 1 94.0978 -0.8791 12.5367 0.0059 22.3380 -0.0001
# 2 -0.8791 43.9128 20.3430 0.0157 2.8417 -0.0025
# 3 12.5367 20.3430 61.5483 0.0445 -0.7012 -0.0140
# 4 0.0059 0.0157 0.0445 12.4992 -0.0082 8.0218
# 5 22.3380 2.8417 -0.7012 -0.0082 36.2032 0.0025
# 6 -0.0001 -0.0025 -0.0140 8.0218 0.0025 5.3767
#
#
#
# Elastic Compliance Matrix: (Units=1/GPa)
#
#
# Indices 1 2 3 4 5 6 
#
# 1 0.013110 0.002461 -0.003579 0.000015 -0.008351 -0.000026
# 2 0.002461 0.027542 -0.009648 0.000060 -0.003867 -0.000099
# 3 -0.003579 -0.009648 0.020206 -0.002017 0.003356 0.003056
# 4 0.000015 0.000060 -0.002017 1.883420 0.000569 -2.809970
# 5 -0.008351 -0.003867 0.003356 0.000569 0.033143 -0.000858
# 6 -0.000026 -0.000099 0.003056 -2.809970 -0.000858 4.378324
#
#
# Mechanical properties :
#
#
# Convention : Reuss Voigt Hill
#
# Bulk Modulus (GPa) = 25.42974 29.28447 27.35710
# Shear Modulus (GPa) = 0.78243 21.98637 11.38440
#
# Velocity S-wave (km/s) = 0.62317 3.30341 2.37706
# Velocity P-wave (km/s) = 3.62482 5.39303 4.59479
#
# Compressibility (1/GPa) = 0.03932404
#
# Stress axis : x y z
#
# Youngs Moduli (GPa) = 76.28031 36.30867 49.49081
#
# Poissons Ratio (x) = -0.08935 0.17712
# Poissons Ratio (y) = -0.18771 0.47751
# Poissons Ratio (z) = 0.27299 0.35032
#
# Static dielectric constant tensor:
#      x y z
#    x 1.736680 0.000000 -0.007200 
#    y 0.000000 1.681960 0.000000 
#    z -0.007200 0.000000 1.749230 
# 
# From -- ./inp_files/95846.got.cif
#   From: 2010.05.17/outbox.cif.g08.bks.cpg/sg15_48_cif.got.tgz:95846.got - 2010.06.03 18:47:42.
