data_PCOD9287929
_publ_section_title
;
Structure prediction by ZEFSAII (Michael W. Deem and Ramdas Pophale) SiO2 
 PCOD9287929
Probable space group: C 2/C
;
_chemical_formula_sum "Si O2"
_cell_formula_units_Z 40
_cell_length_a 27.447293
_cell_length_b 11.664766
_cell_length_c 12.202686
_cell_angle_alpha 90.000000
_cell_angle_beta 149.930284
_cell_angle_gamma 90.000000
_cell_volume 1957.559573
_symmetry_space_group_name_H-M "C 2/C"
_symmetry_group_IT_number 15
_symmetry_cell_setting 'monoclinic'
loop_
_space_group_symop_operation_xyz
x,y,z
-x,y,1/2-z
-x,-y,-z
x,-y,1/2+z
1/2+x,1/2+y,z
1/2-x,1/2+y,1/2-z
1/2-x,1/2-y,-z
1/2+x,1/2-y,1/2+z
loop_
_atom_site_type_symbol
_atom_site_label
_atom_site_fract_x
_atom_site_fract_y
_atom_site_fract_z
Si Si1 0.790737 0.911060 0.941134
Si Si2 0.768579 0.825402 0.428043
Si Si3 0.096561 0.710559 0.984778
Si Si4 0.461506 0.369052 0.431705
Si Si5 0.407705 0.716947 0.496938
O O1 0.682079 0.861862 0.711498
O O2 0.850011 0.889471 0.941995
O O3 0.788369 0.041176 0.977555
O O4 0.861788 0.852234 0.168206
O O5 0.750000 0.750000 0.500000
O O6 0.851477 0.766527 0.518266
O O7 0.671279 0.815257 0.165301
O O8 0.059925 0.812189 0.993609
O O9 0.000000 0.648002 0.750000
O O10 0.500000 0.500000 0.500000
O O11 0.547966 0.305981 0.535549
O O12 0.500000 0.744166 0.750000
#
# Coordination Sequence:
#
# PCOD9287929 Si02
#       5
#     8   8   8   8   8
#     4  10  22  38  60  88 120 157 198 248 301 358
#     4  11  22  39  59  85 118 156 200 245 298 362
#     4  11  23  39  59  89 122 157 203 250 301 362
#     4  11  20  37  62  87 115 154 200 251 297 350
#     4   9  20  37  57  83 114 150 193 238 294 354
#
# _framework density 20.433605
#
# number of rings (size 3 to 8) (size 9 to 14) (size 15 to 20)
#    0.000    1.600    0.000    5.400    0.000    4.000 
#    0.000    4.000    0.000    0.000    0.000    0.000 
#    0.000    0.000    0.000    0.000    0.000    0.000 
#
# Total GULP energy -111495.470273 kJ/mol
# GULP energy per Si atom -5574.773514 kJ/mol
# Density = 2.038710 g / cm^3
# Si number density = 20.433605 Si / 1000 Ang^3
#
#
#
# Elastic Constant Matrix: (Units=GPa)
#
#
# Indices 1 2 3 4 5 6 
#
# 1 134.5683 17.8204 27.8351 0.0000 -6.0139 0.0000
# 2 17.8204 40.3060 25.6060 0.0000 -3.9051 0.0000
# 3 27.8351 25.6060 165.3020 0.0000 32.2517 0.0000
# 4 0.0000 0.0000 0.0000 27.3748 0.0000 -3.5065
# 5 -6.0139 -3.9051 32.2517 0.0000 26.8833 0.0000
# 6 0.0000 0.0000 0.0000 -3.5065 0.0000 21.2896
#
#
#
# Elastic Compliance Matrix: (Units=1/GPa)
#
#
# Indices 1 2 3 4 5 6 
#
# 1 0.008246 -0.002173 -0.001763 0.000000 0.003644 0.000000
# 2 -0.002173 0.031350 -0.006899 0.000000 0.012344 0.000000
# 3 -0.001763 -0.006899 0.010037 0.000000 -0.013438 0.000000
# 4 0.000000 0.000000 0.000000 0.037317 0.000000 0.006146
# 5 0.003644 0.012344 -0.013438 0.000000 0.055927 0.000000
# 6 0.000000 0.000000 0.000000 0.006146 0.000000 0.047984
#
#
# Mechanical properties :
#
#
# Convention : Reuss Voigt Hill
#
# Bulk Modulus (GPa) = 35.76079 53.63324 44.69701
# Shear Modulus (GPa) = 22.53761 33.03720 27.78740
#
# Velocity S-wave (km/s) = 3.32470 4.02532 3.69167
# Velocity P-wave (km/s) = 5.68130 6.92162 6.33190
#
# Compressibility (1/GPa) = 0.02796359
#
# Stress axis : x y z
#
# Youngs Moduli (GPa) = 121.26418 31.89835 99.63284
#
# Poissons Ratio (x) = 0.06931 0.17566
# Poissons Ratio (y) = 0.26349 0.68734
# Poissons Ratio (z) = 0.21379 0.22006
#
# Static dielectric constant tensor:
#      x y z
#    x 1.721700 0.000000 -0.024460 
#    y 0.000000 1.728880 0.000000 
#    z -0.024460 0.000000 1.793360 
# 
# From -- ./inp_files/122832.got.cif
#   From: 2010.05.17/outbox.cif.g08.bks.cpg/sg15_62_cif.got.tgz:122832.got - 2010.06.03 18:47:42.
