data_PCOD9287927
_publ_section_title
;
Structure prediction by ZEFSAII (Michael W. Deem and Ramdas Pophale) SiO2 
 PCOD9287927
Probable space group: C 2/C
;
_chemical_formula_sum "Si O2"
_cell_formula_units_Z 40
_cell_length_a 19.458722
_cell_length_b 12.134849
_cell_length_c 11.800060
_cell_angle_alpha 90.000000
_cell_angle_beta 40.606491
_cell_angle_gamma 90.000000
_cell_volume 1813.512867
_symmetry_space_group_name_H-M "C 2/C"
_symmetry_group_IT_number 15
_symmetry_cell_setting 'monoclinic'
loop_
_space_group_symop_operation_xyz
x,y,z
-x,y,1/2-z
-x,-y,-z
x,-y,1/2+z
1/2+x,1/2+y,z
1/2-x,1/2+y,1/2-z
1/2-x,1/2-y,-z
1/2+x,1/2-y,1/2+z
loop_
_atom_site_type_symbol
_atom_site_label
_atom_site_fract_x
_atom_site_fract_y
_atom_site_fract_z
Si Si1 0.791206 0.664307 0.233277
Si Si2 0.810608 0.856880 0.875174
Si Si3 0.984356 0.709874 0.599858
Si Si4 0.358064 0.998445 0.834592
Si Si5 0.597885 0.799008 0.555588
O O1 0.726733 0.621314 0.206817
O O2 0.852527 0.573227 0.228577
O O3 0.708357 0.732803 0.412747
O O4 0.890986 0.728814 0.056828
O O5 0.929610 0.817580 0.720971
O O6 0.750000 0.750000 0.000000
O O7 0.761281 0.956277 0.005338
O O8 0.938754 0.600452 0.719459
O O9 0.940418 0.695377 0.526332
O O10 0.383037 0.916963 0.907684
O O11 0.500000 0.748368 0.750000
#
# Coordination Sequence:
#
# PCOD9287927 Si02
#       5
#     8   8   8   8   8
#     4  11  22  37  62  85 116 154 194 234 291 339
#     4   9  22  39  58  87 123 146 187 241 289 338
#     4  10  22  38  60  88 117 151 193 238 285 348
#     4  11  21  36  63  88 113 152 197 236 285 341
#     4  11  23  37  59  85 120 150 195 242 286 335
#
# _framework density 22.056639000000001
#
# number of rings (size 3 to 8) (size 9 to 14) (size 15 to 20)
#    0.000    1.600    2.000    2.400    2.800    2.400 
#    0.000    1.000   13.200    0.000    0.000    0.000 
#    0.000    0.000    0.000    0.000    0.000    0.000 
#
# Total GULP energy -111626.460292 kJ/mol
# GULP energy per Si atom -5581.323015 kJ/mol
# Density = 2.200644 g / cm^3
# Si number density = 22.056639 Si / 1000 Ang^3
#
#
#
# Elastic Constant Matrix: (Units=GPa)
#
#
# Indices 1 2 3 4 5 6 
#
# 1 64.6966 4.5076 14.2437 0.0000 -0.7374 0.0000
# 2 4.5076 20.3896 19.8077 0.0000 -14.4257 0.0000
# 3 14.2437 19.8077 136.2189 0.0000 -38.0837 0.0000
# 4 0.0000 0.0000 0.0000 42.6536 0.0000 -8.3378
# 5 -0.7374 -14.4257 -38.0837 0.0000 56.0588 0.0000
# 6 0.0000 0.0000 0.0000 -8.3378 0.0000 -0.4117
#
#
#
# Elastic Compliance Matrix: (Units=1/GPa)
#
#
# Indices 1 2 3 4 5 6 
#
# 1 0.016032 -0.003122 -0.001713 0.000000 -0.001757 0.000000
# 2 -0.003122 0.064020 -0.005417 0.000000 0.012753 0.000000
# 3 -0.001713 -0.005417 0.009767 0.000000 0.005219 0.000000
# 4 0.000000 0.000000 0.000000 0.004728 0.000000 -0.095749
# 5 -0.001757 0.012753 0.005219 0.000000 0.024642 0.000000
# 6 0.000000 0.000000 0.000000 -0.095749 0.000000 -0.489825
#
#
# Mechanical properties :
#
#
# Convention : Reuss Voigt Hill
#
# Bulk Modulus (GPa) = 14.42736 33.15810 23.79273
# Shear Modulus (GPa) = -15.28934 31.84322 8.27694
#
# Velocity S-wave (km/s) = -2.63570 3.80373 1.93926
# Velocity P-wave (km/s) = 1.64538 5.86148 3.97804
#
# Compressibility (1/GPa) = 0.06931276
#
# Stress axis : x y z
#
# Youngs Moduli (GPa) = 62.37712 15.62001 102.38509
#
# Poissons Ratio (x) = 0.04877 0.17543
# Poissons Ratio (y) = 0.19477 0.55465
# Poissons Ratio (z) = 0.10688 0.08462
#
# Static dielectric constant tensor:
#      x y z
#    x 1.815530 0.000000 -0.019930 
#    y 0.000000 1.799030 0.000000 
#    z -0.019930 0.000000 1.880000 
# 
# From -- ./inp_files/111368.got.cif
#   From: 2010.05.17/outbox.cif.g08.bks.cpg/sg15_56_cif.got.tgz:111368.got - 2010.06.03 18:47:42.
