data_PCOD9287566
_publ_section_title
;
Structure prediction by ZEFSAII (Michael W. Deem and Ramdas Pophale) SiO2 
 PCOD9287566
Probable space group: C 2/C
;
_chemical_formula_sum "Si O2"
_cell_formula_units_Z 56
_cell_length_a 23.699776
_cell_length_b 23.561176
_cell_length_c 5.454358
_cell_angle_alpha 90.000000
_cell_angle_beta 119.252897
_cell_angle_gamma 90.000000
_cell_volume 2657.271895
_symmetry_space_group_name_H-M "C 2/C"
_symmetry_group_IT_number 15
_symmetry_cell_setting 'monoclinic'
loop_
_space_group_symop_operation_xyz
x,y,z
-x,y,1/2-z
-x,-y,-z
x,-y,1/2+z
1/2+x,1/2+y,z
1/2-x,1/2+y,1/2-z
1/2-x,1/2-y,-z
1/2+x,1/2-y,1/2+z
loop_
_atom_site_type_symbol
_atom_site_label
_atom_site_fract_x
_atom_site_fract_y
_atom_site_fract_z
Si Si1 0.927048 0.365860 0.539666
Si Si2 0.115979 0.148554 0.369604
Si Si3 0.074777 0.523563 0.683408
Si Si4 0.574130 0.522343 0.186191
Si Si5 0.936795 0.265482 0.255958
Si Si6 0.330374 0.189532 0.163373
Si Si7 0.812096 0.816928 0.970957
O O1 0.914283 0.408773 0.288950
O O2 0.934652 0.299755 0.498943
O O3 0.869515 0.361070 0.612042
O O4 0.000000 0.385848 0.750000
O O5 0.082390 0.087874 0.273041
O O6 0.064380 0.198719 0.220849
O O7 0.147173 0.159623 0.706067
O O8 0.164668 0.158706 0.242031
O O9 0.103279 0.504275 0.484773
O O10 0.000000 0.500000 0.500000
O O11 0.603495 0.488679 0.479803
O O12 0.500000 0.500000 0.000000
O O13 0.000000 0.285433 0.250000
O O14 0.875133 0.286281 0.974262
O O15 0.317118 0.247493 0.976759
O O16 0.262184 0.169925 0.125646
#
# Coordination Sequence:
#
# PCOD9287566 Si02
#       7
#     8   8   8   8   8   8   8
#     4  12  22  37  60  91 130 160 205 262 334 387
#     4  11  23  43  66  95 130 171 221 267 326 391
#     4  10  22  37  57  80 113 162 202 239 291 375
#     4  10  22  41  65  98 128 172 216 267 329 398
#     4  11  24  35  60  99 138 164 198 274 342 397
#     4  10  23  39  60  93 130 172 212 259 326 396
#     4  10  23  42  65  91 128 174 221 260 313 396
#
# _framework density 21.074245000000001
#
# number of rings (size 3 to 8) (size 9 to 14) (size 15 to 20)
#    0.000    1.429    4.286    0.857    8.000    1.714 
#    5.143    0.000    0.000    5.143    0.000    0.000 
#    0.000    0.000    0.000    0.000    0.000    0.000 
#
# Total GULP energy -155976.274135 kJ/mol
# GULP energy per Si atom -5570.581219 kJ/mol
# Density = 2.102628 g / cm^3
# Si number density = 21.074245 Si / 1000 Ang^3
#
#
#
# Elastic Constant Matrix: (Units=GPa)
#
#
# Indices 1 2 3 4 5 6 
#
# 1 98.9804 8.8272 13.6372 0.0000 -5.0402 0.0000
# 2 8.8272 93.2179 7.5443 0.0000 1.1508 0.0000
# 3 13.6372 7.5443 57.4783 0.0000 -19.6886 0.0000
# 4 0.0000 0.0000 0.0000 29.1512 0.0000 -9.8121
# 5 -5.0402 1.1508 -19.6886 0.0000 28.3983 0.0000
# 6 0.0000 0.0000 0.0000 -9.8121 0.0000 58.5784
#
#
#
# Elastic Compliance Matrix: (Units=1/GPa)
#
#
# Indices 1 2 3 4 5 6 
#
# 1 0.010506 -0.000815 -0.002276 0.000000 0.000319 0.000000
# 2 -0.000815 0.010982 -0.001902 0.000000 -0.001908 0.000000
# 3 -0.002276 -0.001902 0.023705 0.000000 0.016108 0.000000
# 4 0.000000 0.000000 0.000000 0.036354 0.000000 0.006089
# 5 0.000319 -0.001908 0.016108 0.000000 0.046515 0.000000
# 6 0.000000 0.000000 0.000000 0.006089 0.000000 0.018091
#
#
# Mechanical properties :
#
#
# Convention : Reuss Voigt Hill
#
# Bulk Modulus (GPa) = 28.40286 34.41045 31.40666
# Shear Modulus (GPa) = 29.78436 37.87012 33.82724
#
# Velocity S-wave (km/s) = 3.76348 4.24369 4.01077
# Velocity P-wave (km/s) = 5.69138 6.35417 6.03188
#
# Compressibility (1/GPa) = 0.03520772
#
# Stress axis : x y z
#
# Youngs Moduli (GPa) = 95.18804 91.05681 42.18502
#
# Poissons Ratio (x) = 0.07417 0.09602
# Poissons Ratio (y) = 0.07754 0.08023
# Poissons Ratio (z) = 0.21666 0.17317
#
# Static dielectric constant tensor:
#      x y z
#    x 1.640050 0.000000 0.000170 
#    y 0.000000 1.786900 0.000000 
#    z 0.000170 0.000000 1.787610 
# 
# From -- ./inp_files/16178.got.cif
#   From: 2010.05.17/outbox.cif.g08.bks.cpg/sg15_9_cif.got.tgz:16178.got - 2010.06.03 18:47:42.
