data_PCOD9287739
_publ_section_title
;
Structure prediction by ZEFSAII (Michael W. Deem and Ramdas Pophale) SiO2 
 PCOD9287739
Probable space group: C 2/C
;
_chemical_formula_sum "Si O2"
_cell_formula_units_Z 48
_cell_length_a 16.021432
_cell_length_b 9.256375
_cell_length_c 19.348659
_cell_angle_alpha 90.000000
_cell_angle_beta 129.215847
_cell_angle_gamma 90.000000
_cell_volume 2223.134521
_symmetry_space_group_name_H-M "C 2/C"
_symmetry_group_IT_number 15
_symmetry_cell_setting 'monoclinic'
loop_
_space_group_symop_operation_xyz
x,y,z
-x,y,1/2-z
-x,-y,-z
x,-y,1/2+z
1/2+x,1/2+y,z
1/2-x,1/2+y,1/2-z
1/2-x,1/2-y,-z
1/2+x,1/2-y,1/2+z
loop_
_atom_site_type_symbol
_atom_site_label
_atom_site_fract_x
_atom_site_fract_y
_atom_site_fract_z
Si Si1 0.703138 0.147687 0.605198
Si Si2 0.624704 0.464971 0.143442
Si Si3 0.885119 0.094236 0.514683
Si Si4 0.474778 0.038836 0.906407
Si Si5 0.690698 0.179920 0.232130
Si Si6 0.786002 0.408559 0.993388
O O1 0.644595 0.238032 0.513612
O O2 0.620409 0.151119 0.626963
O O3 0.800572 0.239751 0.688601
O O4 0.726910 0.986649 0.589511
O O5 0.503197 0.439078 0.107648
O O6 0.680199 0.308395 0.171691
O O7 0.708076 0.572633 0.223986
O O8 0.613501 0.526584 0.061019
O O9 0.787967 0.017435 0.502235
O O10 0.584765 0.089475 0.930173
O O11 0.416801 0.913864 0.833555
O O12 0.500000 0.000000 0.000000
O O13 0.750000 0.250000 0.000000
#
# Coordination Sequence:
#
# PCOD9287739 Si02
#       6
#     8   8   8   8   8   8
#     4  10  22  43  67  95 132 178 224 264 341 407
#     4  10  22  37  66  93 128 174 220 267 331 400
#     4  10  23  41  64  92 133 180 214 265 335 413
#     4  10  22  41  69  94 129 174 224 275 334 401
#     4  11  21  39  69  95 131 173 228 276 329 405
#     4  11  25  39  68 102 133 170 225 285 331 402
#
# _framework density 21.591137
#
# number of rings (size 3 to 8) (size 9 to 14) (size 15 to 20)
#    0.000    1.667    1.667    2.500   11.667    0.000 
#    0.000    7.500    0.000    8.000    0.000    0.000 
#    0.000    0.000    0.000    0.000    0.000    0.000 
#
# Total GULP energy -133633.133556 kJ/mol
# GULP energy per Si atom -5568.047232 kJ/mol
# Density = 2.154199 g / cm^3
# Si number density = 21.591137 Si / 1000 Ang^3
#
#
#
# Elastic Constant Matrix: (Units=GPa)
#
#
# Indices 1 2 3 4 5 6 
#
# 1 113.1338 62.9776 30.4393 0.0000 21.6280 0.0000
# 2 62.9776 156.9822 52.4856 0.0000 24.0511 0.0000
# 3 30.4393 52.4856 94.1574 0.0000 26.8732 0.0000
# 4 0.0000 0.0000 0.0000 41.5465 0.0000 -4.0722
# 5 21.6280 24.0511 26.8732 0.0000 18.4731 0.0000
# 6 0.0000 0.0000 0.0000 -4.0722 0.0000 34.9307
#
#
#
# Elastic Compliance Matrix: (Units=1/GPa)
#
#
# Indices 1 2 3 4 5 6 
#
# 1 0.012902 -0.003775 0.001439 0.000000 -0.012284 0.000000
# 2 -0.003775 0.009430 -0.003067 0.000000 -0.003397 0.000000
# 3 0.001439 -0.003067 0.019162 0.000000 -0.025567 0.000000
# 4 0.000000 0.000000 0.000000 0.024348 0.000000 0.002838
# 5 -0.012284 -0.003397 -0.025567 0.000000 0.110130 0.000000
# 6 0.000000 0.000000 0.000000 0.002838 0.000000 0.028959
#
#
# Mechanical properties :
#
#
# Convention : Reuss Voigt Hill
#
# Bulk Modulus (GPa) = 32.58529 72.89759 52.74144
# Shear Modulus (GPa) = 22.12731 33.54814 27.83773
#
# Velocity S-wave (km/s) = 3.20477 3.94609 3.59460
# Velocity P-wave (km/s) = 5.36832 7.38906 6.45822
#
# Compressibility (1/GPa) = 0.03068869
#
# Stress axis : x y z
#
# Youngs Moduli (GPa) = 77.50984 106.04003 52.18705
#
# Poissons Ratio (x) = 0.40031 -0.07512
# Poissons Ratio (y) = 0.29260 0.16005
# Poissons Ratio (z) = -0.11156 0.32521
#
# Static dielectric constant tensor:
#      x y z
#    x 1.836480 0.000000 0.043810 
#    y 0.000000 1.881590 0.000000 
#    z 0.043810 0.000000 1.902010 
# 
# From -- ./inp_files/247655.got.cif
#   From: 2010.05.17/outbox.cif.g08.bks.cpg/sg15_124_cif.got.tgz:247655.got - 2010.06.03 18:47:42.
