data_PCOD9287693
_publ_section_title
;
Structure prediction by ZEFSAII (Michael W. Deem and Ramdas Pophale) SiO2 
 PCOD9287693
Probable space group: C 2/C
;
_chemical_formula_sum "Si O2"
_cell_formula_units_Z 60
_cell_length_a 11.451776
_cell_length_b 16.832023
_cell_length_c 15.955132
_cell_angle_alpha 90.000000
_cell_angle_beta 75.387520
_cell_angle_gamma 90.000000
_cell_volume 2975.978347
_symmetry_space_group_name_H-M "C 2/C"
_symmetry_group_IT_number 15
_symmetry_cell_setting 'monoclinic'
loop_
_space_group_symop_operation_xyz
x,y,z
-x,y,1/2-z
-x,-y,-z
x,-y,1/2+z
1/2+x,1/2+y,z
1/2-x,1/2+y,1/2-z
1/2-x,1/2-y,-z
1/2+x,1/2-y,1/2+z
loop_
_atom_site_type_symbol
_atom_site_label
_atom_site_fract_x
_atom_site_fract_y
_atom_site_fract_z
Si Si1 0.916577 0.419875 0.531139
Si Si2 0.916796 0.810885 0.186098
Si Si3 0.693919 0.495494 0.999213
Si Si4 0.265525 0.160209 0.205907
Si Si5 0.038427 0.975814 0.365059
Si Si6 0.500000 0.615422 0.250000
Si Si7 0.255753 0.162296 0.399508
Si Si8 0.054877 0.258775 0.514413
O O1 0.794524 0.440458 0.503256
O O2 0.858086 0.392668 0.632565
O O3 0.000000 0.500000 0.500000
O O4 0.989363 0.339103 0.494669
O O5 0.804795 0.752327 0.201895
O O6 0.904469 0.904882 0.198765
O O7 0.000000 0.784670 0.250000
O O8 0.970558 0.800306 0.082424
O O9 0.604338 0.469676 0.090162
O O10 0.609955 0.523428 0.938685
O O11 0.754533 0.415489 0.956365
O O12 0.279970 0.137481 0.300602
O O13 0.125780 0.156785 0.202009
O O14 0.045340 0.058520 0.316178
O O15 0.130492 0.210929 0.431691
O O16 0.355062 0.215933 0.426669
#
# Coordination Sequence:
#
# PCOD9287693 Si02
#       8
#     8   8   8   8   8   4   8   8
#     4  11  23  42  65  97 136 174 218 280 348 403
#     4  11  21  39  63  94 126 162 220 277 331 393
#     4  11  22  40  62  92 127 170 223 267 332 402
#     4  11  25  41  64  97 132 173 218 283 340 400
#     4  11  23  39  64  91 124 174 223 273 324 406
#     4  12  22  42  66  94 134 176 220 284 340 402
#     4  11  20  39  64  92 128 171 219 269 330 404
#     4  10  22  37  63  94 127 172 214 270 335 401
#
# _framework density 20.161436999999999
#
# number of rings (size 3 to 8) (size 9 to 14) (size 15 to 20)
#    0.000    1.067    7.333    0.000    0.000    0.000 
#    4.800    1.333    0.000    0.000    0.000    0.000 
#    0.000    0.000    0.000    0.000    0.000    0.000 
#
# Total GULP energy -167045.997312 kJ/mol
# GULP energy per Si atom -5568.199910 kJ/mol
# Density = 2.011555 g / cm^3
# Si number density = 20.161437 Si / 1000 Ang^3
#
#
#
# Elastic Constant Matrix: (Units=GPa)
#
#
# Indices 1 2 3 4 5 6 
#
# 1 88.2461 37.8988 22.9478 0.0000 3.4135 0.0000
# 2 37.8988 82.6990 23.6039 0.0000 3.0166 0.0000
# 3 22.9478 23.6039 76.9402 0.0000 -3.5821 0.0000
# 4 0.0000 0.0000 0.0000 29.8356 0.0000 -3.1413
# 5 3.4135 3.0166 -3.5821 0.0000 18.7076 0.0000
# 6 0.0000 0.0000 0.0000 -3.1413 0.0000 39.1258
#
#
#
# Elastic Compliance Matrix: (Units=1/GPa)
#
#
# Indices 1 2 3 4 5 6 
#
# 1 0.014630 -0.005861 -0.002669 0.000000 -0.002235 0.000000
# 2 -0.005861 0.015763 -0.003185 0.000000 -0.002082 0.000000
# 3 -0.002669 -0.003185 0.014950 0.000000 0.003863 0.000000
# 4 0.000000 0.000000 0.000000 0.033803 0.000000 0.002714
# 5 -0.002235 -0.002082 0.003863 0.000000 0.054938 0.000000
# 6 0.000000 0.000000 0.000000 0.002714 0.000000 0.025776
#
#
# Mechanical properties :
#
#
# Convention : Reuss Voigt Hill
#
# Bulk Modulus (GPa) = 45.63575 46.30958 45.97267
# Shear Modulus (GPa) = 26.23379 28.42943 27.33161
#
# Velocity S-wave (km/s) = 3.61111 3.75919 3.68589
# Velocity P-wave (km/s) = 6.33018 6.47003 6.40048
#
# Compressibility (1/GPa) = 0.02191264
#
# Stress axis : x y z
#
# Youngs Moduli (GPa) = 68.35435 63.44022 66.88900
#
# Poissons Ratio (x) = 0.37182 0.17855
# Poissons Ratio (y) = 0.40062 0.21302
# Poissons Ratio (z) = 0.18247 0.20204
#
# Static dielectric constant tensor:
#      x y z
#    x 1.752840 0.000000 0.000860 
#    y 0.000000 1.762720 0.000000 
#    z 0.000860 0.000000 1.739340 
# 
# From -- ./inp_files/146053.got.cif
#   From: 2010.05.17/outbox.cif.g08.bks.cpg/sg15_74_cif.got.tgz:146053.got - 2010.06.03 18:47:42.
