data_PCOD9287945
_publ_section_title
;
Structure prediction by ZEFSAII (Michael W. Deem and Ramdas Pophale) SiO2 
 PCOD9287945
Probable space group: C 2/C
;
_chemical_formula_sum "Si O2"
_cell_formula_units_Z 48
_cell_length_a 25.417014
_cell_length_b 5.135649
_cell_length_c 18.353341
_cell_angle_alpha 90.000000
_cell_angle_beta 68.030034
_cell_angle_gamma 90.000000
_cell_volume 2221.737600
_symmetry_space_group_name_H-M "C 2/C"
_symmetry_group_IT_number 15
_symmetry_cell_setting 'monoclinic'
loop_
_space_group_symop_operation_xyz
x,y,z
-x,y,1/2-z
-x,-y,-z
x,-y,1/2+z
1/2+x,1/2+y,z
1/2-x,1/2+y,1/2-z
1/2-x,1/2-y,-z
1/2+x,1/2-y,1/2+z
loop_
_atom_site_type_symbol
_atom_site_label
_atom_site_fract_x
_atom_site_fract_y
_atom_site_fract_z
Si Si1 0.811499 0.518036 0.413075
Si Si2 0.976043 0.708368 0.137893
Si Si3 0.500000 0.000000 0.000000
Si Si4 0.000000 0.934391 0.750000
Si Si5 0.679045 0.492704 0.496888
Si Si6 0.908685 0.083538 0.083999
Si Si7 0.391554 0.851865 0.245375
O O1 0.743850 0.550023 0.439169
O O2 0.834997 0.786917 0.435039
O O3 0.839571 0.417057 0.323977
O O4 0.821709 0.289747 0.466174
O O5 0.918240 0.624398 0.205567
O O6 0.009823 0.883458 0.174899
O O7 0.955143 0.849105 0.073648
O O8 0.006493 0.461726 0.088063
O O9 0.557857 0.176338 0.967230
O O10 0.056182 0.772221 0.737000
O O11 0.638526 0.500076 0.448253
O O12 0.885057 0.178067 0.175308
#
# Coordination Sequence:
#
# PCOD9287945 Si02
#       7
#     8   8   4   4   8   8   8
#     4  10  24  45  68  97 129 178 224 281 332 403
#     4  10  22  39  57  92 127 165 218 267 330 403
#     4  10  22  38  60  92 128 168 214 264 336 402
#     4  10  22  38  60  90 130 170 218 272 330 404
#     4  10  24  45  68  97 133 170 231 275 337 396
#     4  10  23  40  63  96 131 172 217 281 330 410
#     4  10  23  41  62  96 131 172 222 273 338 403
#
# _framework density 21.604711000000002
#
# number of rings (size 3 to 8) (size 9 to 14) (size 15 to 20)
#    0.000    2.000    0.000    1.000   11.667    4.000 
#    3.000    0.000    0.000    0.000    0.000    0.000 
#    0.000    0.000    0.000    0.000    0.000    0.000 
#
# Total GULP energy -133625.753529 kJ/mol
# GULP energy per Si atom -5567.739730 kJ/mol
# Density = 2.155554 g / cm^3
# Si number density = 21.604711 Si / 1000 Ang^3
#
#
#
# Elastic Constant Matrix: (Units=GPa)
#
#
# Indices 1 2 3 4 5 6 
#
# 1 106.1244 23.1864 46.0152 -0.0009 29.8269 -0.0010
# 2 23.1864 45.8880 -12.0331 -0.0044 11.7353 -0.0115
# 3 46.0152 -12.0331 102.0934 -0.0009 -4.9262 -0.0033
# 4 -0.0009 -0.0044 -0.0009 27.8534 0.0013 4.4333
# 5 29.8269 11.7353 -4.9262 0.0013 28.8210 0.0021
# 6 -0.0010 -0.0115 -0.0033 4.4333 0.0021 15.8190
#
#
#
# Elastic Compliance Matrix: (Units=1/GPa)
#
#
# Indices 1 2 3 4 5 6 
#
# 1 0.023262 -0.009338 -0.012668 0.000001 -0.022437 -0.000005
# 2 -0.009338 0.028676 0.007554 0.000001 -0.000722 0.000022
# 3 -0.012668 0.007554 0.017019 0.000000 0.012943 0.000007
# 4 0.000001 0.000001 0.000000 0.037578 -0.000002 -0.010531
# 5 -0.022437 -0.000722 0.012943 -0.000002 0.060423 -0.000007
# 6 -0.000005 0.000022 0.000007 -0.010531 -0.000007 0.066166
#
#
# Mechanical properties :
#
#
# Convention : Reuss Voigt Hill
#
# Bulk Modulus (GPa) = 24.96670 40.93810 32.95240
# Shear Modulus (GPa) = 18.15686 27.62783 22.89234
#
# Velocity S-wave (km/s) = 2.90213 3.57989 3.25868
# Velocity P-wave (km/s) = 4.77609 6.00644 5.42625
#
# Compressibility (1/GPa) = 0.04005335
#
# Stress axis : x y z
#
# Youngs Moduli (GPa) = 42.98946 34.87284 58.75701
#
# Poissons Ratio (x) = 0.32563 0.74431
# Poissons Ratio (y) = 0.40142 -0.44383
# Poissons Ratio (z) = 0.54457 -0.26342
#
# Static dielectric constant tensor:
#      x y z
#    x 1.737700 0.000000 0.061100 
#    y 0.000000 1.428630 -0.000010 
#    z 0.061100 -0.000010 1.643670 
# 
# From -- ./inp_files/220865.got.cif
#   From: 2010.05.17/outbox.cif.g08.bks.cpg/sg15_111_cif.got.tgz:220865.got - 2010.06.03 18:47:42.
