data_PCOD9287651
_publ_section_title
;
Structure prediction by ZEFSAII (Michael W. Deem and Ramdas Pophale) SiO2 
 PCOD9287651
Probable space group: C 2/C
;
_chemical_formula_sum "Si O2"
_cell_formula_units_Z 48
_cell_length_a 7.776323
_cell_length_b 26.354532
_cell_length_c 12.690663
_cell_angle_alpha 90.000000
_cell_angle_beta 130.258835
_cell_angle_gamma 90.000000
_cell_volume 1984.787645
_symmetry_space_group_name_H-M "C 2/C"
_symmetry_group_IT_number 15
_symmetry_cell_setting 'monoclinic'
loop_
_space_group_symop_operation_xyz
x,y,z
-x,y,1/2-z
-x,-y,-z
x,-y,1/2+z
1/2+x,1/2+y,z
1/2-x,1/2+y,1/2-z
1/2-x,1/2-y,-z
1/2+x,1/2-y,1/2+z
loop_
_atom_site_type_symbol
_atom_site_label
_atom_site_fract_x
_atom_site_fract_y
_atom_site_fract_z
Si Si1 0.202814 0.962165 0.212967
Si Si2 0.768387 0.689330 0.015751
Si Si3 0.242621 0.707975 0.145855
Si Si4 0.808045 0.184567 0.936798
Si Si5 0.500000 0.554960 0.250000
Si Si6 0.000000 0.876350 0.250000
Si Si7 0.824323 0.578253 0.556881
O O1 0.420872 0.938690 0.359363
O O2 0.239243 0.965041 0.103013
O O3 0.025638 0.917970 0.167089
O O4 0.142929 0.016283 0.235042
O O5 0.580512 0.677453 0.031819
O O6 0.682505 0.661361 0.875227
O O7 0.750000 0.750000 0.000000
O O8 0.039889 0.681871 0.129880
O O9 0.500000 0.689968 0.250000
O O10 0.242141 0.769291 0.163569
O O11 0.196805 0.701302 0.003298
O O12 0.703647 0.129180 0.885890
O O13 0.672626 0.583768 0.394040
#
# Coordination Sequence:
#
# PCOD9287651 Si02
#       7
#     8   8   8   8   4   4   8
#     4  10  23  40  71  95 124 178 232 275 340 420
#     4  10  22  37  61  92 126 173 225 281 333 380
#     4  10  23  38  61  90 139 177 225 274 337 398
#     4  10  22  39  60  96 127 179 229 275 327 398
#     4  11  24  42  66 100 138 164 214 302 361 406
#     4  11  20  42  64  90 126 170 242 282 321 408
#     4  11  22  41  69  97 133 173 228 277 344 419
#
# _framework density 24.183948000000001
#
# number of rings (size 3 to 8) (size 9 to 14) (size 15 to 20)
#    0.000    1.667    1.667    2.000    3.500    8.667 
#    0.000    0.000    0.000    0.000    0.000    0.000 
#    0.000    0.000    0.000    0.000    0.000    0.000 
#
# Total GULP energy -133668.077315 kJ/mol
# GULP energy per Si atom -5569.503221 kJ/mol
# Density = 2.412890 g / cm^3
# Si number density = 24.183948 Si / 1000 Ang^3
#
#
#
# Elastic Constant Matrix: (Units=GPa)
#
#
# Indices 1 2 3 4 5 6 
#
# 1 103.3989 8.1527 11.1013 0.0000 25.9756 0.0000
# 2 8.1527 65.2157 8.2744 0.0000 8.7113 0.0000
# 3 11.1013 8.2744 105.4439 0.0000 27.4414 0.0000
# 4 0.0000 0.0000 0.0000 19.8511 0.0000 5.5957
# 5 25.9756 8.7113 27.4414 0.0000 44.9435 0.0000
# 6 0.0000 0.0000 0.0000 5.5957 0.0000 18.9535
#
#
#
# Elastic Compliance Matrix: (Units=1/GPa)
#
#
# Indices 1 2 3 4 5 6 
#
# 1 0.011369 -0.000587 0.000630 0.000000 -0.006841 0.000000
# 2 -0.000587 0.015796 -0.000558 0.000000 -0.002382 0.000000
# 3 0.000630 -0.000558 0.011328 0.000000 -0.007172 0.000000
# 4 0.000000 0.000000 0.000000 0.054948 0.000000 -0.016222
# 5 -0.006841 -0.002382 -0.007172 0.000000 0.031045 0.000000
# 6 0.000000 0.000000 0.000000 -0.016222 0.000000 0.057550
#
#
# Mechanical properties :
#
#
# Convention : Reuss Voigt Hill
#
# Bulk Modulus (GPa) = 26.69424 36.56837 31.63131
# Shear Modulus (GPa) = 25.56844 33.18495 29.37670
#
# Velocity S-wave (km/s) = 3.25506 3.70833 3.48906
# Velocity P-wave (km/s) = 5.01889 5.78700 5.41657
#
# Compressibility (1/GPa) = 0.03746126
#
# Stress axis : x y z
#
# Youngs Moduli (GPa) = 87.96135 63.30686 88.27877
#
# Poissons Ratio (x) = 0.03718 -0.05558
# Poissons Ratio (y) = 0.05166 0.04925
# Poissons Ratio (z) = -0.05538 0.03532
#
# Static dielectric constant tensor:
#      x y z
#    x 2.073420 0.000000 0.010670 
#    y 0.000000 1.971720 0.000000 
#    z 0.010670 0.000000 2.036960 
# 
# From -- ./inp_files/139099.got.cif
#   From: 2010.05.17/outbox.cif.g08.bks.cpg/sg15_70_cif.got.tgz:139099.got - 2010.06.03 18:47:42.
