data_PCOD9287866
_publ_section_title
;
Structure prediction by ZEFSAII (Michael W. Deem and Ramdas Pophale) SiO2 
 PCOD9287866
Probable space group: C 2/C
;
_chemical_formula_sum "Si O2"
_cell_formula_units_Z 60
_cell_length_a 28.489979
_cell_length_b 20.011641
_cell_length_c 15.890914
_cell_angle_alpha 90.000000
_cell_angle_beta 161.120798
_cell_angle_gamma 90.000000
_cell_volume 2931.549909
_symmetry_space_group_name_H-M "C 2/C"
_symmetry_group_IT_number 15
_symmetry_cell_setting 'monoclinic'
loop_
_space_group_symop_operation_xyz
x,y,z
-x,y,1/2-z
-x,-y,-z
x,-y,1/2+z
1/2+x,1/2+y,z
1/2-x,1/2+y,1/2-z
1/2-x,1/2-y,-z
1/2+x,1/2-y,1/2+z
loop_
_atom_site_type_symbol
_atom_site_label
_atom_site_fract_x
_atom_site_fract_y
_atom_site_fract_z
Si Si1 0.882434 0.716648 0.274722
Si Si2 0.415165 0.846379 0.523692
Si Si3 0.990540 0.920611 0.494219
Si Si4 0.500000 0.725567 0.250000
Si Si5 0.071275 0.911441 0.459715
Si Si6 0.638617 0.563864 0.550388
Si Si7 0.247916 0.708485 0.272813
Si Si8 0.379459 0.696576 0.220404
O O1 0.804388 0.685280 0.224093
O O2 0.976996 0.671751 0.370787
O O3 0.992884 0.770010 0.506091
O O4 0.750000 0.750000 0.000000
O O5 0.500000 0.873702 0.750000
O O6 0.285013 0.896445 0.274059
O O7 0.346778 0.775390 0.439505
O O8 0.956102 0.903237 0.339786
O O9 0.133796 0.877863 0.763248
O O10 0.891720 0.906608 0.407178
O O11 0.000000 0.000000 0.500000
O O12 0.611591 0.770076 0.488299
O O13 0.420976 0.688623 0.192689
O O14 0.179863 0.851233 0.653837
O O15 0.146860 0.984096 0.581972
O O16 0.000000 0.899796 0.250000
O O17 0.500000 0.567970 0.250000
O O18 0.250000 0.750000 0.000000
#
# Coordination Sequence:
#
# PCOD9287866 Si02
#       8
#     8   8   8   4   8   8   8   8
#     4  11  24  40  60  97 131 166 210 269 334 393
#     4  12  24  39  65  98 128 170 219 271 330 392
#     4  10  22  38  63  98 127 171 218 273 328 398
#     4  10  22  38  58  96 124 164 200 270 332 378
#     4  10  22  42  65  93 127 175 218 267 327 395
#     4  10  24  43  67  94 131 171 223 268 324 397
#     4  11  23  40  65  92 131 162 217 272 323 388
#     4  11  23  38  65  93 126 162 216 273 324 388
#
# _framework density 20.466989999999999
#
# number of rings (size 3 to 8) (size 9 to 14) (size 15 to 20)
#    0.000    1.333    1.333    4.400    7.467    0.000 
#    1.200    0.667    0.000    0.000    0.000    0.000 
#    0.000    0.000    0.000    0.000    0.000    0.000 
#
# Total GULP energy -167062.952953 kJ/mol
# GULP energy per Si atom -5568.765098 kJ/mol
# Density = 2.042041 g / cm^3
# Si number density = 20.466990 Si / 1000 Ang^3
#
#
#
# Elastic Constant Matrix: (Units=GPa)
#
#
# Indices 1 2 3 4 5 6 
#
# 1 128.3136 -3.0889 13.9951 0.0000 -13.0951 0.0000
# 2 -3.0889 80.8480 21.9606 0.0000 4.5961 0.0000
# 3 13.9951 21.9606 97.1181 0.0000 -13.0025 0.0000
# 4 0.0000 0.0000 0.0000 1.8302 0.0000 -4.8451
# 5 -13.0951 4.5961 -13.0025 0.0000 33.1663 0.0000
# 6 0.0000 0.0000 0.0000 -4.8451 0.0000 29.3186
#
#
#
# Elastic Compliance Matrix: (Units=1/GPa)
#
#
# Indices 1 2 3 4 5 6 
#
# 1 0.008189 0.000394 -0.000890 0.000000 0.002830 0.000000
# 2 0.000394 0.013519 -0.003529 0.000000 -0.003101 0.000000
# 3 -0.000890 -0.003529 0.011864 0.000000 0.004789 0.000000
# 4 0.000000 0.000000 0.000000 0.971356 0.000000 0.160522
# 5 0.002830 -0.003101 0.004789 0.000000 0.033575 0.000000
# 6 0.000000 0.000000 0.000000 0.160522 0.000000 0.060635
#
#
# Mechanical properties :
#
#
# Convention : Reuss Voigt Hill
#
# Bulk Modulus (GPa) = 39.18330 41.33478 40.25904
# Shear Modulus (GPa) = 4.48151 31.09055 17.78603
#
# Velocity S-wave (km/s) = 1.48134 3.90174 2.95110
# Velocity P-wave (km/s) = 4.70234 6.36693 5.59686
#
# Compressibility (1/GPa) = 0.02552108
#
# Stress axis : x y z
#
# Youngs Moduli (GPa) = 122.11864 73.97108 84.28769
#
# Poissons Ratio (x) = -0.02913 0.07504
# Poissons Ratio (y) = -0.04809 0.29744
# Poissons Ratio (z) = 0.10872 0.26103
#
# Static dielectric constant tensor:
#      x y z
#    x 1.847060 0.000000 0.047320 
#    y 0.000000 1.734210 0.000000 
#    z 0.047320 0.000000 1.740640 
# 
# From -- ./inp_files/179132.got.cif
#   From: 2010.05.17/outbox.cif.g08.bks.cpg/sg15_90_cif.got.tgz:179132.got - 2010.06.03 18:47:42.
