data_PCOD9287046
_publ_section_title
;
Structure prediction by ZEFSAII (Michael W. Deem and Ramdas Pophale) SiO2 
 PCOD9287046
Probable space group: C 2/C
;
_chemical_formula_sum "Si O2"
_cell_formula_units_Z 48
_cell_length_a 12.547190
_cell_length_b 7.169895
_cell_length_c 25.388855
_cell_angle_alpha 90.000000
_cell_angle_beta 111.415288
_cell_angle_gamma 90.000000
_cell_volume 2126.339817
_symmetry_space_group_name_H-M "C 2/C"
_symmetry_group_IT_number 15
_symmetry_cell_setting 'monoclinic'
loop_
_space_group_symop_operation_xyz
x,y,z
-x,y,1/2-z
-x,-y,-z
x,-y,1/2+z
1/2+x,1/2+y,z
1/2-x,1/2+y,1/2-z
1/2-x,1/2-y,-z
1/2+x,1/2-y,1/2+z
loop_
_atom_site_type_symbol
_atom_site_label
_atom_site_fract_x
_atom_site_fract_y
_atom_site_fract_z
Si Si1 0.097118 0.629940 0.233013
Si Si2 0.389663 0.629288 0.971054
Si Si3 0.133663 0.444727 0.449062
Si Si4 0.061898 0.842826 0.847156
Si Si5 0.499139 0.712016 0.608323
Si Si6 0.157253 0.045551 0.258813
O O1 0.121818 0.831747 0.263554
O O2 0.219135 0.537635 0.245619
O O3 0.000000 0.530184 0.250000
O O4 0.044008 0.681138 0.167409
O O5 0.270045 0.541943 0.967228
O O6 0.394207 0.661310 0.909421
O O7 0.500000 0.500000 0.000000
O O8 0.396292 0.820809 0.005375
O O9 0.085768 0.328007 0.390074
O O10 0.078876 0.647345 0.438597
O O11 0.067315 0.028622 0.884283
O O12 0.148436 0.853706 0.813502
O O13 0.935955 0.862027 0.797377
#
# Coordination Sequence:
#
# PCOD9287046 Si02
#       6
#     8   8   8   8   8   8
#     4  11  23  42  64  97 133 175 220 266 328 394
#     4  11  24  47  68  98 133 168 226 282 328 401
#     4  11  25  44  71  96 131 179 218 273 342 387
#     4  10  21  46  65 100 137 174 223 274 326 396
#     4  11  23  44  68  99 133 171 225 268 329 398
#     4  10  22  42  65  92 141 172 216 278 316 396
#
# _framework density 22.574002
#
# number of rings (size 3 to 8) (size 9 to 14) (size 15 to 20)
#    0.000    1.333    5.000    1.500    2.333    4.667 
#    6.000    0.000    0.000    0.000    0.000    0.000 
#    0.000    0.000    0.000    0.000    0.000    0.000 
#
# Total GULP energy -134256.375385 kJ/mol
# GULP energy per Si atom -5594.015641 kJ/mol
# Density = 2.252262 g / cm^3
# Si number density = 22.574002 Si / 1000 Ang^3
#
#
#
# Elastic Constant Matrix: (Units=GPa)
#
#
# Indices 1 2 3 4 5 6 
#
# 1 172.3843 34.6384 22.3609 0.0000 -14.5438 0.0000
# 2 34.6384 60.3089 -0.2864 0.0000 13.5691 0.0000
# 3 22.3609 -0.2864 47.8047 0.0000 -24.2658 0.0000
# 4 0.0000 0.0000 0.0000 30.4172 0.0000 -0.5417
# 5 -14.5438 13.5691 -24.2658 0.0000 33.7190 0.0000
# 6 0.0000 0.0000 0.0000 -0.5417 0.0000 25.5439
#
#
#
# Elastic Compliance Matrix: (Units=1/GPa)
#
#
# Indices 1 2 3 4 5 6 
#
# 1 0.007386 -0.005235 -0.001260 0.000000 0.004386 0.000000
# 2 -0.005235 0.022983 -0.005127 0.000000 -0.015197 0.000000
# 3 -0.001260 -0.005127 0.035054 0.000000 0.026746 0.000000
# 4 0.000000 0.000000 0.000000 0.032889 0.000000 0.000698
# 5 0.004386 -0.015197 0.026746 0.000000 0.056912 0.000000
# 6 0.000000 0.000000 0.000000 0.000698 0.000000 0.039163
#
#
# Mechanical properties :
#
#
# Convention : Reuss Voigt Hill
#
# Bulk Modulus (GPa) = 23.70940 43.76930 33.73935
# Shear Modulus (GPa) = 21.58048 32.85503 27.21775
#
# Velocity S-wave (km/s) = 3.09526 3.81916 3.47610
# Velocity P-wave (km/s) = 4.82700 6.23533 5.57581
#
# Compressibility (1/GPa) = 0.04217737
#
# Stress axis : x y z
#
# Youngs Moduli (GPa) = 135.38385 43.51057 28.52777
#
# Poissons Ratio (x) = 0.22778 0.03595
# Poissons Ratio (y) = 0.70875 0.14627
# Poissons Ratio (z) = 0.17061 0.22310
#
# Static dielectric constant tensor:
#      x y z
#    x 1.812640 0.000000 -0.000240 
#    y 0.000000 1.871590 0.000000 
#    z -0.000240 0.000000 1.848490 
# 
# From -- ./inp_files/268075.got.cif
#   From: 2010.05.17/outbox.cif.g08.bks.cpg/sg15_135_cif.got.tgz:268075.got - 2010.06.03 18:47:42.
