data_PCOD9287805
_publ_section_title
;
Structure prediction by ZEFSAII (Michael W. Deem and Ramdas Pophale) SiO2 
 PCOD9287805
Probable space group: C 2/C
;
_chemical_formula_sum "Si O2"
_cell_formula_units_Z 52
_cell_length_a 23.181554
_cell_length_b 13.386213
_cell_length_c 12.965967
_cell_angle_alpha 90.000000
_cell_angle_beta 36.990088
_cell_angle_gamma 90.000000
_cell_volume 2420.853413
_symmetry_space_group_name_H-M "C 2/C"
_symmetry_group_IT_number 15
_symmetry_cell_setting 'monoclinic'
loop_
_space_group_symop_operation_xyz
x,y,z
-x,y,1/2-z
-x,-y,-z
x,-y,1/2+z
1/2+x,1/2+y,z
1/2-x,1/2+y,1/2-z
1/2-x,1/2-y,-z
1/2+x,1/2-y,1/2+z
loop_
_atom_site_type_symbol
_atom_site_label
_atom_site_fract_x
_atom_site_fract_y
_atom_site_fract_z
Si Si1 0.270115 0.607160 0.146345
Si Si2 0.122335 0.283020 0.430026
Si Si3 0.108583 0.297714 0.219513
Si Si4 0.193438 0.508757 0.056737
Si Si5 0.500000 0.100999 0.250000
Si Si6 0.694929 0.582198 0.789826
Si Si7 0.109524 0.273915 0.988537
O O1 0.344423 0.697646 0.038551
O O2 0.213887 0.580237 0.123840
O O3 0.324342 0.508649 0.106520
O O4 0.190038 0.646276 0.341722
O O5 0.120721 0.247308 0.313832
O O6 0.027318 0.332835 0.611045
O O7 0.205715 0.365993 0.316342
O O8 0.175550 0.395514 0.118155
O O9 0.994791 0.321582 0.377344
O O10 0.124840 0.243504 0.086678
O O11 0.093623 0.538083 0.144560
O O12 0.280542 0.532157 0.854599
O O13 0.621585 0.674141 0.902454
#
# Coordination Sequence:
#
# PCOD9287805 Si02
#       7
#     8   8   8   8   4   8   8
#     4  11  22  39  60  89 123 169 208 263 311 384
#     4  10  23  37  61  87 127 163 217 255 322 369
#     4  11  21  39  64  96 120 171 210 278 303 380
#     4  11  22  37  68  89 128 164 218 260 324 367
#     4  10  22  38  56  96 128 162 208 262 322 386
#     4  10  22  40  56  93 125 166 207 261 315 386
#     4  10  23  37  63  92 133 156 214 259 331 359
#
# _framework density 21.480028000000001
#
# number of rings (size 3 to 8) (size 9 to 14) (size 15 to 20)
#    0.000    1.538    3.077    1.846    2.154   11.692 
#    0.000    2.308    0.000    0.000    0.000    0.000 
#    0.000    0.000    0.000    0.000    0.000    0.000 
#
# Total GULP energy -145050.981656 kJ/mol
# GULP energy per Si atom -5578.883910 kJ/mol
# Density = 2.143114 g / cm^3
# Si number density = 21.480028 Si / 1000 Ang^3
#
#
#
# Elastic Constant Matrix: (Units=GPa)
#
#
# Indices 1 2 3 4 5 6 
#
# 1 56.2153 1.3109 10.6668 0.0000 16.3903 0.0000
# 2 1.3109 67.8930 8.8440 0.0000 -0.3203 0.0000
# 3 10.6668 8.8440 38.6339 0.0000 15.1354 0.0000
# 4 0.0000 0.0000 0.0000 26.1960 0.0000 1.5272
# 5 16.3903 -0.3203 15.1354 0.0000 21.0400 0.0000
# 6 0.0000 0.0000 0.0000 1.5272 0.0000 27.6316
#
#
#
# Elastic Compliance Matrix: (Units=1/GPa)
#
#
# Indices 1 2 3 4 5 6 
#
# 1 0.023071 -0.000685 0.001158 0.000000 -0.018816 0.000000
# 2 -0.000685 0.015424 -0.005072 0.000000 0.004417 0.000000
# 3 0.001158 -0.005072 0.037747 0.000000 -0.028133 0.000000
# 4 0.000000 0.000000 0.000000 0.038297 0.000000 -0.002117
# 5 -0.018816 0.004417 -0.028133 0.000000 0.082492 0.000000
# 6 0.000000 0.000000 0.000000 -0.002117 0.000000 0.036307
#
#
# Mechanical properties :
#
#
# Convention : Reuss Voigt Hill
#
# Bulk Modulus (GPa) = 14.91555 22.70951 18.81253
# Shear Modulus (GPa) = 18.87622 24.43488 21.65555
#
# Velocity S-wave (km/s) = 2.96764 3.37644 3.17862
# Velocity P-wave (km/s) = 4.32452 5.07895 4.71685
#
# Compressibility (1/GPa) = 0.06704413
#
# Stress axis : x y z
#
# Youngs Moduli (GPa) = 43.34433 64.83476 26.49235
#
# Poissons Ratio (x) = 0.04442 -0.03069
# Poissons Ratio (y) = 0.02970 0.13437
# Poissons Ratio (z) = -0.05021 0.32885
#
# Static dielectric constant tensor:
#      x y z
#    x 1.780890 0.000000 0.035090 
#    y 0.000000 1.765340 0.000000 
#    z 0.035090 0.000000 1.801830 
# 
# From -- ./inp_files/118744.got.cif
#   From: 2010.05.17/outbox.cif.g08.bks.cpg/sg15_60_cif.got.tgz:118744.got - 2010.06.03 18:47:42.
