data_PCOD9287283
_publ_section_title
;
Structure prediction by ZEFSAII (Michael W. Deem and Ramdas Pophale) SiO2 
 PCOD9287283
Probable space group: C 2/C
;
_chemical_formula_sum "Si O2"
_cell_formula_units_Z 48
_cell_length_a 30.065050
_cell_length_b 5.336428
_cell_length_c 17.817935
_cell_angle_alpha 90.000000
_cell_angle_beta 131.117410
_cell_angle_gamma 90.000000
_cell_volume 2153.647351
_symmetry_space_group_name_H-M "C 2/C"
_symmetry_group_IT_number 15
_symmetry_cell_setting 'monoclinic'
loop_
_space_group_symop_operation_xyz
x,y,z
-x,y,1/2-z
-x,-y,-z
x,-y,1/2+z
1/2+x,1/2+y,z
1/2-x,1/2+y,1/2-z
1/2-x,1/2-y,-z
1/2+x,1/2-y,1/2+z
loop_
_atom_site_type_symbol
_atom_site_label
_atom_site_fract_x
_atom_site_fract_y
_atom_site_fract_z
Si Si1 0.859949 0.123149 0.498870
Si Si2 0.203705 0.534241 0.465238
Si Si3 0.601753 0.953438 0.745864
Si Si4 0.150166 0.600862 0.648338
Si Si5 0.436220 0.556384 0.213924
Si Si6 0.235355 0.248569 0.641915
O O1 0.848115 0.357336 0.539014
O O2 0.885937 0.224852 0.449996
O O3 0.893092 0.936304 0.592359
O O4 0.796203 0.018738 0.402804
O O5 0.250000 0.750000 0.500000
O O6 0.167508 0.486583 0.350198
O O7 0.235603 0.345442 0.556629
O O8 0.608594 0.972912 0.663934
O O9 0.565108 0.183473 0.741562
O O10 0.582546 0.679041 0.754159
O O11 0.189266 0.405747 0.642469
O O12 0.201138 0.753993 0.749229
O O13 0.500000 0.506326 0.250000
#
# Coordination Sequence:
#
# PCOD9287283 Si02
#       6
#     8   8   8   8   8   8
#     4  10  22  40  59  90 128 175 209 270 319 389
#     4  10  22  35  59  94 131 173 218 257 317 396
#     4  11  25  42  68  98 128 168 221 278 315 393
#     4  11  24  35  60  95 136 174 208 253 329 399
#     4  11  25  49  72  92 121 170 229 286 334 369
#     4  11  21  37  57  90 138 178 207 250 324 397
#
# _framework density 22.287770999999999
#
# number of rings (size 3 to 8) (size 9 to 14) (size 15 to 20)
#    0.000    1.333    3.333    1.500    9.333    1.333 
#    0.000    1.667    0.000    0.000    0.000    0.000 
#    0.000    0.000    0.000    0.000    0.000    0.000 
#
# Total GULP energy -133882.204534 kJ/mol
# GULP energy per Si atom -5578.425189 kJ/mol
# Density = 2.223704 g / cm^3
# Si number density = 22.287771 Si / 1000 Ang^3
#
#
#
# Elastic Constant Matrix: (Units=GPa)
#
#
# Indices 1 2 3 4 5 6 
#
# 1 71.4491 11.6532 18.7275 0.0001 -24.1126 0.0001
# 2 11.6532 72.7543 6.4476 0.0004 -16.7528 0.0019
# 3 18.7275 6.4476 66.6295 0.0000 -40.7417 0.0002
# 4 0.0001 0.0004 0.0000 26.4005 0.0001 -11.1961
# 5 -24.1126 -16.7528 -40.7417 0.0001 39.4878 0.0002
# 6 0.0001 0.0019 0.0002 -11.1961 0.0002 35.1926
#
#
#
# Elastic Compliance Matrix: (Units=1/GPa)
#
#
# Indices 1 2 3 4 5 6 
#
# 1 0.018129 0.000383 0.004703 0.000000 0.016085 0.000000
# 2 0.000383 0.016436 0.007338 -0.000001 0.014779 -0.000001
# 3 0.004703 0.007338 0.045070 -0.000001 0.052487 -0.000001
# 4 0.000000 -0.000001 -0.000001 0.043786 -0.000002 0.013930
# 5 0.016085 0.014779 0.052487 -0.000002 0.095570 -0.000002
# 6 0.000000 -0.000001 -0.000001 0.013930 -0.000002 0.032847
#
#
# Mechanical properties :
#
#
# Convention : Reuss Voigt Hill
#
# Bulk Modulus (GPa) = 9.57077 31.60994 20.59036
# Shear Modulus (GPa) = 19.09734 31.81649 25.45692
#
# Velocity S-wave (km/s) = 2.93038 3.78237 3.38330
# Velocity P-wave (km/s) = 3.96901 5.76962 4.95184
#
# Compressibility (1/GPa) = 0.10448478
#
# Stress axis : x y z
#
# Youngs Moduli (GPa) = 55.15959 60.84151 22.18760
#
# Poissons Ratio (x) = -0.02332 -0.10435
# Poissons Ratio (y) = -0.02114 -0.16282
# Poissons Ratio (z) = -0.25941 -0.44648
#
# Static dielectric constant tensor:
#      x y z
#    x 1.854250 0.000000 -0.044470 
#    y 0.000000 1.929360 0.000000 
#    z -0.044470 0.000000 1.864670 
# 
# From -- ./inp_files/180199.got.cif
#   From: 2010.05.17/outbox.cif.g08.bks.cpg/sg15_91_cif.got.tgz:180199.got - 2010.06.03 18:47:42.
