data_PCOD9287135
_publ_section_title
;
Structure prediction by ZEFSAII (Michael W. Deem and Ramdas Pophale) SiO2 
 PCOD9287135
Probable space group: C 2/C
;
_chemical_formula_sum "Si O2"
_cell_formula_units_Z 40
_cell_length_a 17.204846
_cell_length_b 8.677887
_cell_length_c 20.302049
_cell_angle_alpha 90.000000
_cell_angle_beta 28.065027
_cell_angle_gamma 90.000000
_cell_volume 1426.066173
_symmetry_space_group_name_H-M "C 2/C"
_symmetry_group_IT_number 15
_symmetry_cell_setting 'monoclinic'
loop_
_space_group_symop_operation_xyz
x,y,z
-x,y,1/2-z
-x,-y,-z
x,-y,1/2+z
1/2+x,1/2+y,z
1/2-x,1/2+y,1/2-z
1/2-x,1/2-y,-z
1/2+x,1/2-y,1/2+z
loop_
_atom_site_type_symbol
_atom_site_label
_atom_site_fract_x
_atom_site_fract_y
_atom_site_fract_z
Si Si1 0.000394 0.456254 0.322954
Si Si2 0.854747 0.978446 0.732245
Si Si3 0.653846 0.415112 0.583750
Si Si4 0.949599 0.656488 0.001424
Si Si5 0.777846 0.824420 0.653050
O O1 0.814652 0.523388 0.473354
O O2 0.000000 0.384568 0.250000
O O3 0.023328 0.354397 0.372359
O O4 0.148712 0.577699 0.208019
O O5 0.788100 0.921469 0.712462
O O6 0.000000 0.938008 0.750000
O O7 0.050226 0.957786 0.595371
O O8 0.802639 0.154337 0.783448
O O9 0.750000 0.250000 0.500000
O O10 0.753640 0.360839 0.640439
O O11 0.024982 0.783368 0.994589
O O12 0.000000 0.500000 0.000000
#
# Coordination Sequence:
#
# PCOD9287135 Si02
#       5
#     8   8   8   8   8
#     4  12  26  49  78 125 164 204 278 348 414 487
#     4  11  25  47  81 111 154 219 269 335 406 498
#     4  12  27  48  79 113 166 215 267 341 422 491
#     4  10  21  49  78 108 160 216 265 324 413 492
#     4  11  24  47  80 116 156 214 277 334 402 505
#
# _framework density 28.049188000000001
#
# number of rings (size 3 to 8) (size 9 to 14) (size 15 to 20)
#    0.000    0.800    6.000    1.800    0.000    3.200 
#    0.000    2.000    0.000    0.000    0.000    0.000 
#    0.000    0.000    0.000    0.000    0.000    0.000 
#
# Total GULP energy -111470.629111 kJ/mol
# GULP energy per Si atom -5573.531456 kJ/mol
# Density = 2.798535 g / cm^3
# Si number density = 28.049188 Si / 1000 Ang^3
#
#
#
# Elastic Constant Matrix: (Units=GPa)
#
#
# Indices 1 2 3 4 5 6 
#
# 1 117.0690 29.4233 63.9485 -0.0001 -16.7030 0.0000
# 2 29.4233 73.1472 38.9326 0.0000 -9.4621 0.0000
# 3 63.9485 38.9326 230.6865 0.0000 -33.2213 0.0000
# 4 -0.0001 0.0000 0.0000 49.5641 0.0001 -21.0883
# 5 -16.7030 -9.4621 -33.2213 0.0001 69.8309 0.0000
# 6 0.0000 0.0000 0.0000 -21.0883 0.0000 33.3044
#
#
#
# Elastic Compliance Matrix: (Units=1/GPa)
#
#
# Indices 1 2 3 4 5 6 
#
# 1 0.010696 -0.002932 -0.002318 0.000000 0.001058 0.000000
# 2 -0.002932 0.015876 -0.001780 0.000000 0.000603 0.000000
# 3 -0.002318 -0.001780 0.005543 0.000000 0.001841 0.000000
# 4 0.000000 0.000000 0.000000 0.027616 0.000000 0.017486
# 5 0.001058 0.000603 0.001841 0.000000 0.015531 0.000000
# 6 0.000000 0.000000 0.000000 0.017486 0.000000 0.041098
#
#
# Mechanical properties :
#
#
# Convention : Reuss Voigt Hill
#
# Bulk Modulus (GPa) = 55.38370 76.16796 65.77583
# Shear Modulus (GPa) = 36.64683 49.77976 43.21329
#
# Velocity S-wave (km/s) = 3.61850 4.21733 3.92934
# Velocity P-wave (km/s) = 6.10296 7.13642 6.63983
#
# Compressibility (1/GPa) = 0.01805586
#
# Stress axis : x y z
#
# Youngs Moduli (GPa) = 93.49339 62.98943 180.40946
#
# Poissons Ratio (x) = 0.18468 0.41815
# Poissons Ratio (y) = 0.27411 0.32108
# Poissons Ratio (z) = 0.21670 0.11210
#
# Static dielectric constant tensor:
#      x y z
#    x 2.382910 0.000000 0.084970 
#    y 0.000000 2.205740 0.000000 
#    z 0.084970 0.000000 2.509090 
# 
# From -- ./inp_files/294681.got.cif
#   From: 2010.05.17/outbox.cif.g08.bks.cpg/sg15_148_cif.got.tgz:294681.got - 2010.06.03 18:47:42.
