data_PCOD9287359
_publ_section_title
;
Structure prediction by ZEFSAII (Michael W. Deem and Ramdas Pophale) SiO2 
 PCOD9287359
Probable space group: C 2/C
;
_chemical_formula_sum "Si O2"
_cell_formula_units_Z 56
_cell_length_a 30.275489
_cell_length_b 5.269466
_cell_length_c 17.109647
_cell_angle_alpha 90.000000
_cell_angle_beta 118.636023
_cell_angle_gamma 90.000000
_cell_volume 2395.719316
_symmetry_space_group_name_H-M "C 2/C"
_symmetry_group_IT_number 15
_symmetry_cell_setting 'monoclinic'
loop_
_space_group_symop_operation_xyz
x,y,z
-x,y,1/2-z
-x,-y,-z
x,-y,1/2+z
1/2+x,1/2+y,z
1/2-x,1/2+y,1/2-z
1/2-x,1/2-y,-z
1/2+x,1/2-y,1/2+z
loop_
_atom_site_type_symbol
_atom_site_label
_atom_site_fract_x
_atom_site_fract_y
_atom_site_fract_z
Si Si1 0.605991 0.009526 0.663073
Si Si2 0.253158 0.497508 0.556688
Si Si3 0.000000 0.358376 0.250000
Si Si4 0.050434 0.909455 0.939963
Si Si5 0.500000 0.000000 0.000000
Si Si6 0.853016 0.421673 0.969736
Si Si7 0.417874 0.781196 0.636465
Si Si8 0.135972 0.995644 0.280445
O O1 0.547129 0.043314 0.598750
O O2 0.630824 0.041167 0.598572
O O3 0.624909 0.234663 0.733841
O O4 0.621717 0.736756 0.711113
O O5 0.250000 0.250000 0.500000
O O6 0.206720 0.441321 0.575682
O O7 0.306095 0.515665 0.645629
O O8 0.250000 0.750000 0.500000
O O9 0.018892 0.195308 0.338998
O O10 0.046868 0.548796 0.280177
O O11 0.026771 0.772127 0.993171
O O12 0.051826 0.207557 0.918792
O O13 0.109860 0.825602 0.992909
O O14 0.870818 0.570612 0.062441
O O15 0.398306 0.551254 0.671783
#
# Coordination Sequence:
#
# PCOD9287359 Si02
#       8
#     8   8   4   8   4   8   8   8
#     4  11  28  47  71 108 148 195 237 309 364 441
#     4  12  25  46  77 108 140 191 241 307 375 436
#     4  10  22  36  58 100 130 180 234 304 352 418
#     4  10  22  41  64  97 136 186 241 296 363 433
#     4  10  24  46  68  98 152 198 238 286 376 442
#     4  10  25  45  68  99 143 187 244 291 377 446
#     4  11  23  40  70  98 138 190 245 306 361 439
#     4  12  27  45  73 108 146 183 256 310 359 435
#
# _framework density 23.375025999999998
#
# number of rings (size 3 to 8) (size 9 to 14) (size 15 to 20)
#    0.000    1.143    1.429    3.000   12.000    1.714 
#    0.000    0.000    0.000    0.000    0.000    0.000 
#    0.000    0.000    0.000    0.000    0.000    0.000 
#
# Total GULP energy -156036.524019 kJ/mol
# GULP energy per Si atom -5572.733001 kJ/mol
# Density = 2.332182 g / cm^3
# Si number density = 23.375026 Si / 1000 Ang^3
#
#
#
# Elastic Constant Matrix: (Units=GPa)
#
#
# Indices 1 2 3 4 5 6 
#
# 1 88.3149 17.6078 44.6731 0.0000 18.4911 -0.0001
# 2 17.6078 79.3595 12.6003 0.0002 4.0949 -0.0001
# 3 44.6731 12.6003 106.4011 0.0000 27.6844 -0.0001
# 4 0.0000 0.0002 0.0000 32.6469 0.0001 -4.8516
# 5 18.4911 4.0949 27.6844 0.0001 47.8595 0.0001
# 6 -0.0001 -0.0001 -0.0001 -4.8516 0.0001 18.1803
#
#
#
# Elastic Compliance Matrix: (Units=1/GPa)
#
#
# Indices 1 2 3 4 5 6 
#
# 1 0.015039 -0.002353 -0.005387 0.000000 -0.002493 0.000000
# 2 -0.002353 0.013213 -0.000611 0.000000 0.000132 0.000000
# 3 -0.005387 -0.000611 0.013158 0.000000 -0.005477 0.000000
# 4 0.000000 0.000000 0.000000 0.031896 0.000000 0.008512
# 5 -0.002493 0.000132 -0.005477 0.000000 0.025015 0.000000
# 6 0.000000 0.000000 0.000000 0.008512 0.000000 0.057276
#
#
# Mechanical properties :
#
#
# Convention : Reuss Voigt Hill
#
# Bulk Modulus (GPa) = 40.47285 47.09310 43.78298
# Shear Modulus (GPa) = 27.69548 33.01695 30.35621
#
# Velocity S-wave (km/s) = 3.44587 3.76239 3.60760
# Velocity P-wave (km/s) = 5.76057 6.25016 6.01036
#
# Compressibility (1/GPa) = 0.02470792
#
# Stress axis : x y z
#
# Youngs Moduli (GPa) = 66.49307 75.68218 76.00106
#
# Poissons Ratio (x) = 0.17807 0.40941
# Poissons Ratio (y) = 0.15645 0.04646
# Poissons Ratio (z) = 0.35819 0.04626
#
# Static dielectric constant tensor:
#      x y z
#    x 1.915470 0.000000 0.031520 
#    y 0.000000 1.912030 0.000000 
#    z 0.031520 0.000000 1.721840 
# 
# From -- ./inp_files/223973.got.cif
#   From: 2010.05.17/outbox.cif.g08.bks.cpg/sg15_112_cif.got.tgz:223973.got - 2010.06.03 18:47:42.
