data_PCOD9287214
_publ_section_title
;
Structure prediction by ZEFSAII (Michael W. Deem and Ramdas Pophale) SiO2 
 PCOD9287214
Probable space group: C 2/C
;
_chemical_formula_sum "Si O2"
_cell_formula_units_Z 60
_cell_length_a 24.616832
_cell_length_b 20.658517
_cell_length_c 8.361615
_cell_angle_alpha 90.000000
_cell_angle_beta 48.272458
_cell_angle_gamma 90.000000
_cell_volume 3173.551670
_symmetry_space_group_name_H-M "C 2/C"
_symmetry_group_IT_number 15
_symmetry_cell_setting 'monoclinic'
loop_
_space_group_symop_operation_xyz
x,y,z
-x,y,1/2-z
-x,-y,-z
x,-y,1/2+z
1/2+x,1/2+y,z
1/2-x,1/2+y,1/2-z
1/2-x,1/2-y,-z
1/2+x,1/2-y,1/2+z
loop_
_atom_site_type_symbol
_atom_site_label
_atom_site_fract_x
_atom_site_fract_y
_atom_site_fract_z
Si Si1 0.109387 0.793349 0.533622
Si Si2 0.048096 0.330852 0.313183
Si Si3 0.793894 0.644996 0.895313
Si Si4 0.897139 0.812605 0.305174
Si Si5 0.344538 0.426921 0.897189
Si Si6 0.915797 0.048181 0.917102
Si Si7 0.000000 0.289325 0.750000
Si Si8 0.231529 0.239758 0.275946
O O1 0.070484 0.742972 0.725744
O O2 0.074629 0.801035 0.428204
O O3 0.123913 0.863175 0.578684
O O4 0.186988 0.760423 0.345659
O O5 0.126739 0.366346 0.182783
O O6 0.010355 0.329005 0.563169
O O7 0.000000 0.351821 0.250000
O O8 0.803889 0.694833 0.727692
O O9 0.742323 0.585096 0.950785
O O10 0.741755 0.686417 0.116460
O O11 0.911320 0.886392 0.322720
O O12 0.934999 0.761486 0.348250
O O13 0.812812 0.794692 0.497925
O O14 0.364966 0.491209 0.952385
O O15 0.386120 0.433334 0.648572
O O16 0.000000 0.026373 0.750000
#
# Coordination Sequence:
#
# PCOD9287214 Si02
#       8
#     8   8   8   8   8   8   4   8
#     4  10  22  34  57  83 115 158 195 239 292 344
#     4  11  21  36  57  89 120 154 193 236 306 362
#     4   9  18  35  59  78 115 156 192 245 296 344
#     4  12  20  35  54  85 121 158 194 235 280 348
#     4  11  23  42  55  80 113 156 207 246 285 338
#     4  12  25  38  56  80 115 159 203 242 284 336
#     4  12  22  34  54  86 132 156 190 236 288 362
#     4   9  17  33  55  81 111 154 194 235 289 346
#
# _framework density 18.906262000000002
#
# number of rings (size 3 to 8) (size 9 to 14) (size 15 to 20)
#    0.000    1.333    4.667    3.200    0.000    0.533 
#    0.000    0.000    0.000    0.000    0.000    0.933 
#    0.000    0.000    0.000    0.000    0.000    0.000 
#
# Total GULP energy -167273.968282 kJ/mol
# GULP energy per Si atom -5575.798943 kJ/mol
# Density = 1.886323 g / cm^3
# Si number density = 18.906262 Si / 1000 Ang^3
#
#
#
# Elastic Constant Matrix: (Units=GPa)
#
#
# Indices 1 2 3 4 5 6 
#
# 1 102.8721 37.5661 37.0666 0.0000 -11.7793 0.0000
# 2 37.5661 48.4669 29.7007 0.0000 -8.5400 0.0000
# 3 37.0666 29.7007 82.5419 0.0000 5.0043 0.0000
# 4 0.0000 0.0000 0.0000 13.3258 0.0000 -0.4916
# 5 -11.7793 -8.5400 5.0043 0.0000 36.4602 0.0000
# 6 0.0000 0.0000 0.0000 -0.4916 0.0000 6.6334
#
#
#
# Elastic Compliance Matrix: (Units=1/GPa)
#
#
# Indices 1 2 3 4 5 6 
#
# 1 0.014483 -0.008408 -0.003673 0.000000 0.003214 0.000000
# 2 -0.008408 0.033599 -0.008699 0.000000 0.006347 0.000000
# 3 -0.003673 -0.008699 0.017233 0.000000 -0.005589 0.000000
# 4 0.000000 0.000000 0.000000 0.075248 0.000000 0.005577
# 5 0.003214 0.006347 -0.005589 0.000000 0.030719 0.000000
# 6 0.000000 0.000000 0.000000 0.005577 0.000000 0.151167
#
#
# Mechanical properties :
#
#
# Convention : Reuss Voigt Hill
#
# Bulk Modulus (GPa) = 42.09648 49.17197 45.63422
# Shear Modulus (GPa) = 13.44350 19.92036 16.68193
#
# Velocity S-wave (km/s) = 2.66946 3.24950 2.97366
# Velocity P-wave (km/s) = 5.64053 6.33591 5.99831
#
# Compressibility (1/GPa) = 0.02375495
#
# Stress axis : x y z
#
# Youngs Moduli (GPa) = 69.04785 29.76300 58.02713
#
# Poissons Ratio (x) = 0.25026 0.21313
# Poissons Ratio (y) = 0.58058 0.50476
# Poissons Ratio (z) = 0.25361 0.25890
#
# Static dielectric constant tensor:
#      x y z
#    x 1.768280 0.000000 -0.008910 
#    y 0.000000 1.651070 0.000000 
#    z -0.008910 0.000000 1.702850 
# 
# From -- ./inp_files/67002.got.cif
#   From: 2010.05.17/outbox.cif.g08.bks.cpg/sg15_34_cif.got.tgz:67002.got - 2010.06.03 18:47:42.
