data_PCOD9287481
_publ_section_title
;
Structure prediction by ZEFSAII (Michael W. Deem and Ramdas Pophale) SiO2 
 PCOD9287481
Probable space group: C 2/C
;
_chemical_formula_sum "Si O2"
_cell_formula_units_Z 40
_cell_length_a 6.973564
_cell_length_b 13.498518
_cell_length_c 16.987956
_cell_angle_alpha 90.000000
_cell_angle_beta 103.217054
_cell_angle_gamma 90.000000
_cell_volume 1556.764155
_symmetry_space_group_name_H-M "C 2/C"
_symmetry_group_IT_number 15
_symmetry_cell_setting 'monoclinic'
loop_
_space_group_symop_operation_xyz
x,y,z
-x,y,1/2-z
-x,-y,-z
x,-y,1/2+z
1/2+x,1/2+y,z
1/2-x,1/2+y,1/2-z
1/2-x,1/2-y,-z
1/2+x,1/2-y,1/2+z
loop_
_atom_site_type_symbol
_atom_site_label
_atom_site_fract_x
_atom_site_fract_y
_atom_site_fract_z
Si Si1 0.021642 0.127019 0.479832
Si Si2 0.581601 0.500159 0.176735
Si Si3 0.555027 0.260613 0.168494
Si Si4 0.750000 0.750000 0.000000
Si Si5 0.405408 0.187161 0.607473
Si Si6 0.500000 0.950067 0.250000
O O1 0.003320 0.052870 0.407413
O O2 0.826792 0.130187 0.513243
O O3 0.234240 0.131386 0.540935
O O4 0.981381 0.242932 0.444290
O O5 0.500000 0.541373 0.250000
O O6 0.554021 0.381348 0.173720
O O7 0.815219 0.511746 0.205523
O O8 0.500000 0.225173 0.250000
O O9 0.406597 0.223387 0.089005
O O10 0.775071 0.243752 0.153688
O O11 0.537460 0.120381 0.676767
#
# Coordination Sequence:
#
# PCOD9287481 Si02
#       6
#     8   8   8   4   8   4
#     4  10  22  42  61  93 125 165 211 259 321 374
#     4  10  23  42  65  94 128 167 207 264 324 372
#     4   9  20  39  62  91 123 165 209 259 320 372
#     4  10  22  36  64  90 118 168 210 256 304 376
#     4   9  21  39  66  85 123 165 206 256 314 377
#     4  10  22  42  62  92 122 168 210 258 316 382
#
# _framework density 25.694320000000001
#
# number of rings (size 3 to 8) (size 9 to 14) (size 15 to 20)
#    0.000    2.400    0.000    0.000    9.800    7.200 
#   12.600    1.000    0.000    0.000    0.000    0.000 
#    0.000    0.000    0.000    0.000    0.000    0.000 
#
# Total GULP energy -111348.058676 kJ/mol
# GULP energy per Si atom -5567.402934 kJ/mol
# Density = 2.563584 g / cm^3
# Si number density = 25.694320 Si / 1000 Ang^3
#
#
#
# Elastic Constant Matrix: (Units=GPa)
#
#
# Indices 1 2 3 4 5 6 
#
# 1 68.5578 14.3317 36.9426 0.0000 7.0658 0.0000
# 2 14.3317 91.6726 44.1145 0.0000 12.5149 0.0000
# 3 36.9426 44.1145 131.1202 0.0000 3.6569 0.0000
# 4 0.0000 0.0000 0.0000 16.7794 0.0000 22.5480
# 5 7.0658 12.5149 3.6569 0.0000 44.5257 0.0000
# 6 0.0000 0.0000 0.0000 22.5480 0.0000 -4.8595
#
#
#
# Elastic Compliance Matrix: (Units=1/GPa)
#
#
# Indices 1 2 3 4 5 6 
#
# 1 0.017444 -0.000087 -0.004820 0.000000 -0.002348 0.000000
# 2 -0.000087 0.013521 -0.004429 0.000000 -0.003423 0.000000
# 3 -0.004820 -0.004429 0.010443 0.000000 0.001152 0.000000
# 4 0.000000 0.000000 0.000000 0.008237 0.000000 0.038220
# 5 -0.002348 -0.003423 0.001152 0.000000 0.023699 0.000000
# 6 0.000000 0.000000 0.000000 0.038220 0.000000 -0.028442
#
#
# Mechanical properties :
#
#
# Convention : Reuss Voigt Hill
#
# Bulk Modulus (GPa) = 43.98527 53.56979 48.77753
# Shear Modulus (GPa) = 70.27329 24.35323 47.31326
#
# Velocity S-wave (km/s) = 5.23537 3.08199 4.29580
# Velocity P-wave (km/s) = 7.32812 5.79301 6.60531
#
# Compressibility (1/GPa) = 0.02273488
#
# Stress axis : x y z
#
# Youngs Moduli (GPa) = 57.32748 73.96163 95.76238
#
# Poissons Ratio (x) = 0.00644 0.46156
# Poissons Ratio (y) = 0.00499 0.42412
# Poissons Ratio (z) = 0.27631 0.32757
#
# Static dielectric constant tensor:
#      x y z
#    x -2.277970 0.000000 0.983460 
#    y 0.000000 2.294070 0.000000 
#    z 0.983460 0.000000 1.817090 
# 
# From -- ./inp_files/134635.got.cif
#   From: 2010.05.17/outbox.cif.g08.bks.cpg/sg15_68_cif.got.tgz:134635.got - 2010.06.03 18:47:42.
