data_PCOD9287403
_publ_section_title
;
Structure prediction by ZEFSAII (Michael W. Deem and Ramdas Pophale) SiO2 
 PCOD9287403
Probable space group: C 2/C
;
_chemical_formula_sum "Si O2"
_cell_formula_units_Z 60
_cell_length_a 11.231589
_cell_length_b 10.966843
_cell_length_c 21.744374
_cell_angle_alpha 90.000000
_cell_angle_beta 111.660904
_cell_angle_gamma 90.000000
_cell_volume 2489.231196
_symmetry_space_group_name_H-M "C 2/C"
_symmetry_group_IT_number 15
_symmetry_cell_setting 'monoclinic'
loop_
_space_group_symop_operation_xyz
x,y,z
-x,y,1/2-z
-x,-y,-z
x,-y,1/2+z
1/2+x,1/2+y,z
1/2-x,1/2+y,1/2-z
1/2-x,1/2-y,-z
1/2+x,1/2-y,1/2+z
loop_
_atom_site_type_symbol
_atom_site_label
_atom_site_fract_x
_atom_site_fract_y
_atom_site_fract_z
Si Si1 0.740058 0.222275 0.211409
Si Si2 0.603977 0.911611 0.450033
Si Si3 0.114784 0.591334 0.818610
Si Si4 0.648019 0.928265 0.587643
Si Si5 0.500000 0.429423 0.750000
Si Si6 0.185593 0.128320 0.016907
Si Si7 0.586082 0.422914 0.377249
Si Si8 0.694688 0.181275 0.344155
O O1 0.758823 0.357729 0.189636
O O2 0.645451 0.151023 0.148497
O O3 0.874404 0.153351 0.225233
O O4 0.717868 0.219106 0.278940
O O5 0.603964 0.846901 0.383905
O O6 0.630188 0.850553 0.521193
O O7 0.466410 0.975326 0.429938
O O8 0.711635 0.017999 0.466600
O O9 0.123726 0.447523 0.829285
O O10 0.000000 0.613835 0.750000
O O11 0.779205 0.004363 0.606869
O O12 0.504827 0.509801 0.688585
O O13 0.071755 0.088931 0.948749
O O14 0.250000 0.250000 0.000000
O O15 0.179604 0.161582 0.088173
O O16 0.609660 0.286763 0.357627
#
# Coordination Sequence:
#
# PCOD9287403 Si02
#       8
#     8   8   8   8   4   8   8   8
#     4  11  23  38  55  84 120 155 186 236 295 342
#     4   9  18  35  61  86 111 150 196 234 285 339
#     4  11  23  37  56  83 119 153 193 240 286 342
#     4   9  19  36  60  88 115 149 192 236 282 352
#     4  10  22  38  56  84 116 156 186 228 290 350
#     4   8  16  36  56  85 111 145 185 240 286 330
#     4   9  19  36  63  82 114 147 192 238 281 339
#     4  10  22  36  60  82 111 151 194 240 285 337
#
# _framework density 24.103826999999999
#
# number of rings (size 3 to 8) (size 9 to 14) (size 15 to 20)
#    0.000    2.400    0.667    0.800    6.533    0.533 
#    2.400    0.667    0.000    0.000    0.000    0.000 
#    0.000    0.000    0.000    0.000    0.000    0.000 
#
# Total GULP energy -167509.570351 kJ/mol
# GULP energy per Si atom -5583.652345 kJ/mol
# Density = 2.404897 g / cm^3
# Si number density = 24.103827 Si / 1000 Ang^3
#
#
#
# Elastic Constant Matrix: (Units=GPa)
#
#
# Indices 1 2 3 4 5 6 
#
# 1 34.2026 -1.3073 30.8018 0.0000 -8.6517 0.0000
# 2 -1.3073 56.1178 37.9109 0.0000 7.7206 0.0000
# 3 30.8018 37.9109 218.2305 0.0000 -29.4559 0.0000
# 4 0.0000 0.0000 0.0000 14.7139 0.0000 4.2903
# 5 -8.6517 7.7206 -29.4559 0.0000 34.6866 0.0000
# 6 0.0000 0.0000 0.0000 4.2903 0.0000 32.4128
#
#
#
# Elastic Compliance Matrix: (Units=1/GPa)
#
#
# Indices 1 2 3 4 5 6 
#
# 1 0.034867 0.003773 -0.005101 0.000000 0.003525 0.000000
# 2 0.003773 0.023050 -0.005763 0.000000 -0.009083 0.000000
# 3 -0.005101 -0.005763 0.007121 0.000000 0.006058 0.000000
# 4 0.000000 0.000000 0.000000 0.070691 0.000000 -0.009357
# 5 0.003525 -0.009083 0.006058 0.000000 0.036875 0.000000
# 6 0.000000 0.000000 0.000000 -0.009357 0.000000 0.032090
#
#
# Mechanical properties :
#
#
# Convention : Reuss Voigt Hill
#
# Bulk Modulus (GPa) = 19.66278 49.26241 34.46259
# Shear Modulus (GPa) = 21.20183 32.43905 26.82044
#
# Velocity S-wave (km/s) = 2.96903 3.67250 3.33934
# Velocity P-wave (km/s) = 4.46416 6.20201 5.40341
#
# Compressibility (1/GPa) = 0.05085751
#
# Stress axis : x y z
#
# Youngs Moduli (GPa) = 28.68019 43.38320 140.42891
#
# Poissons Ratio (x) = -0.16370 0.71632
# Poissons Ratio (y) = -0.10822 0.80928
# Poissons Ratio (z) = 0.14630 0.25001
#
# Static dielectric constant tensor:
#      x y z
#    x 1.854240 0.000000 -0.047300 
#    y 0.000000 1.899990 0.000000 
#    z -0.047300 0.000000 2.028530 
# 
# From -- ./inp_files/243770.got.cif
#   From: 2010.05.17/outbox.cif.g08.bks.cpg/sg15_122_cif.got.tgz:243770.got - 2010.06.03 18:47:42.
