data_PCOD9287715
_publ_section_title
;
Structure prediction by ZEFSAII (Michael W. Deem and Ramdas Pophale) SiO2 
 PCOD9287715
Probable space group: C 2/C
;
_chemical_formula_sum "Si O2"
_cell_formula_units_Z 64
_cell_length_a 11.054963
_cell_length_b 18.167534
_cell_length_c 16.708155
_cell_angle_alpha 90.000000
_cell_angle_beta 77.733555
_cell_angle_gamma 90.000000
_cell_volume 3279.079681
_symmetry_space_group_name_H-M "C 2/C"
_symmetry_group_IT_number 15
_symmetry_cell_setting 'monoclinic'
loop_
_space_group_symop_operation_xyz
x,y,z
-x,y,1/2-z
-x,-y,-z
x,-y,1/2+z
1/2+x,1/2+y,z
1/2-x,1/2+y,1/2-z
1/2-x,1/2-y,-z
1/2+x,1/2-y,1/2+z
loop_
_atom_site_type_symbol
_atom_site_label
_atom_site_fract_x
_atom_site_fract_y
_atom_site_fract_z
Si Si1 0.818110 0.300508 0.123420
Si Si2 0.035194 0.695005 0.477051
Si Si3 0.905534 0.856374 0.074905
Si Si4 0.701836 0.594450 0.751171
Si Si5 0.377496 0.010677 0.316998
Si Si6 0.393462 0.182655 0.329595
Si Si7 0.807732 0.557622 0.987688
Si Si8 0.159833 0.079066 0.580427
O O1 0.811461 0.353506 0.201419
O O2 0.729719 0.232102 0.155281
O O3 0.745354 0.348413 0.066414
O O4 0.952168 0.290801 0.067742
O O5 0.952383 0.687701 0.409237
O O6 0.102383 0.772522 0.452673
O O7 0.114324 0.620159 0.476925
O O8 0.875727 0.860342 0.173549
O O9 0.802974 0.900403 0.041143
O O10 0.037342 0.898803 0.049009
O O11 0.761872 0.526794 0.789131
O O12 0.631961 0.571921 0.679615
O O13 0.500000 0.993376 0.250000
O O14 0.387803 0.979641 0.405595
O O15 0.361035 0.097927 0.319534
O O16 0.500000 0.204580 0.250000
O O17 0.741248 0.491116 0.044404
#
# Coordination Sequence:
#
# PCOD9287715 Si02
#       8
#     8   8   8   8   8   8   8   8
#     4  10  22  37  64  93 118 164 200 260 315 376
#     4  12  23  39  64  91 132 157 211 262 323 377
#     4  11  22  42  65  87 125 170 216 252 310 388
#     4   9  21  40  61  87 119 164 206 253 315 375
#     4  10  22  38  59  91 128 161 204 256 322 374
#     4  11  23  36  62  93 125 161 213 267 311 375
#     4  11  25  39  62  93 126 169 208 262 319 376
#     4  10  22  39  65  88 122 160 212 255 312 371
#
# _framework density 19.517672000000001
#
# number of rings (size 3 to 8) (size 9 to 14) (size 15 to 20)
#    0.750    0.750    1.250    3.750    5.250    1.000 
#    0.000    0.000    0.000    0.000    0.000    0.000 
#    0.000    0.000    0.000    0.000    0.000    0.000 
#
# Total GULP energy -178396.990970 kJ/mol
# GULP energy per Si atom -5574.905968 kJ/mol
# Density = 1.947325 g / cm^3
# Si number density = 19.517672 Si / 1000 Ang^3
#
#
#
# Elastic Constant Matrix: (Units=GPa)
#
#
# Indices 1 2 3 4 5 6 
#
# 1 18.0598 27.1466 7.6929 0.0000 -11.1832 0.0000
# 2 27.1466 110.7277 38.2823 0.0000 -19.1562 0.0000
# 3 7.6929 38.2823 76.1049 0.0000 -25.7001 0.0000
# 4 0.0000 0.0000 0.0000 31.3731 0.0000 -3.8597
# 5 -11.1832 -19.1562 -25.7001 0.0000 28.7015 0.0000
# 6 0.0000 0.0000 0.0000 -3.8597 0.0000 30.4239
#
#
#
# Elastic Compliance Matrix: (Units=1/GPa)
#
#
# Indices 1 2 3 4 5 6 
#
# 1 0.112887 -0.025981 0.015275 0.000000 0.040322 0.000000
# 2 -0.025981 0.017149 -0.007960 0.000000 -0.005806 0.000000
# 3 0.015275 -0.007960 0.022671 0.000000 0.020939 0.000000
# 4 0.000000 0.000000 0.000000 0.032380 0.000000 0.004108
# 5 0.040322 -0.005806 0.020939 0.000000 0.065427 0.000000
# 6 0.000000 0.000000 0.000000 0.004108 0.000000 0.033390
#
#
# Mechanical properties :
#
#
# Convention : Reuss Voigt Hill
#
# Bulk Modulus (GPa) = 8.66756 39.01513 23.84134
# Shear Modulus (GPa) = 13.90067 26.88442 20.39254
#
# Velocity S-wave (km/s) = 2.67162 3.71541 3.23588
# Velocity P-wave (km/s) = 3.73728 6.19990 5.11889
#
# Compressibility (1/GPa) = 0.11537276
#
# Stress axis : x y z
#
# Youngs Moduli (GPa) = 8.85838 58.31370 44.10947
#
# Poissons Ratio (x) = 1.51506 -0.67375
# Poissons Ratio (y) = 0.23015 0.35113
# Poissons Ratio (z) = -0.13531 0.46420
#
# Static dielectric constant tensor:
#      x y z
#    x 1.714330 0.000000 -0.030550 
#    y 0.000000 1.686410 0.000000 
#    z -0.030550 0.000000 1.706410 
# 
# From -- ./inp_files/199149.got.cif
#   From: 2010.05.17/outbox.cif.g08.bks.cpg/sg15_100_cif.got.tgz:199149.got - 2010.06.03 18:47:42.
