data_PCOD9287602
_publ_section_title
;
Structure prediction by ZEFSAII (Michael W. Deem and Ramdas Pophale) SiO2 
 PCOD9287602
Probable space group: C 2/C
;
_chemical_formula_sum "Si O2"
_cell_formula_units_Z 52
_cell_length_a 5.240301
_cell_length_b 22.825415
_cell_length_c 17.521493
_cell_angle_alpha 90.000000
_cell_angle_beta 75.638153
_cell_angle_gamma 90.000000
_cell_volume 2030.285391
_symmetry_space_group_name_H-M "C 2/C"
_symmetry_group_IT_number 15
_symmetry_cell_setting 'monoclinic'
loop_
_space_group_symop_operation_xyz
x,y,z
-x,y,1/2-z
-x,-y,-z
x,-y,1/2+z
1/2+x,1/2+y,z
1/2-x,1/2+y,1/2-z
1/2-x,1/2-y,-z
1/2+x,1/2-y,1/2+z
loop_
_atom_site_type_symbol
_atom_site_label
_atom_site_fract_x
_atom_site_fract_y
_atom_site_fract_z
Si Si1 0.984582 0.025822 0.831531
Si Si2 0.500000 0.500000 0.500000
Si Si3 0.014076 0.572749 0.940282
Si Si4 0.809312 0.629491 0.431393
Si Si5 0.214513 0.352117 0.167555
Si Si6 0.128676 0.141261 0.160028
Si Si7 0.893333 0.254909 0.571808
O O1 0.677227 0.037541 0.866949
O O2 0.000000 0.994550 0.750000
O O3 0.134695 0.088833 0.817068
O O4 0.078286 0.996773 0.901906
O O5 0.233371 0.540683 0.506669
O O6 0.929247 0.630671 0.901546
O O7 0.223744 0.586765 0.993241
O O8 0.569424 0.627953 0.393232
O O9 0.085302 0.612385 0.371853
O O10 0.867674 0.697401 0.452080
O O11 0.422429 0.304065 0.119669
O O12 0.000000 0.336928 0.250000
O O13 0.000000 0.132385 0.250000
O O14 0.193034 0.209617 0.141699
O O15 0.750000 0.250000 0.500000
#
# Coordination Sequence:
#
# PCOD9287602 Si02
#       7
#     8   4   8   8   8   8   8
#     4  11  24  44  73 105 138 187 241 314 382 460
#     4  10  26  44  76 100 146 182 242 318 386 470
#     4  11  23  44  70 106 138 189 244 304 383 449
#     4  10  24  40  70  94 147 194 246 299 365 444
#     4  11  21  40  63 105 141 187 240 307 366 435
#     4  10  22  43  62  93 135 198 250 308 353 428
#     4  10  22  37  59 100 141 199 240 300 361 442
#
# _framework density 25.612162999999999
#
# number of rings (size 3 to 8) (size 9 to 14) (size 15 to 20)
#    0.923    0.615    3.077    1.385    6.462    1.846 
#    2.769    0.769    3.385    0.000    0.000    0.000 
#    0.000    0.000    0.000    0.000    0.000    0.000 
#
# Total GULP energy -144957.550142 kJ/mol
# GULP energy per Si atom -5575.290390 kJ/mol
# Density = 2.555387 g / cm^3
# Si number density = 25.612163 Si / 1000 Ang^3
#
#
#
# Elastic Constant Matrix: (Units=GPa)
#
#
# Indices 1 2 3 4 5 6 
#
# 1 79.8840 -13.7833 -5.1913 0.0000 -3.0753 0.0000
# 2 -13.7833 89.1845 29.5330 0.0000 1.9651 0.0000
# 3 -5.1913 29.5330 142.1734 0.0000 -3.8565 0.0000
# 4 0.0000 0.0000 0.0000 15.1397 0.0000 -3.9311
# 5 -3.0753 1.9651 -3.8565 0.0000 51.6512 0.0000
# 6 0.0000 0.0000 0.0000 -3.9311 0.0000 20.6991
#
#
#
# Elastic Compliance Matrix: (Units=1/GPa)
#
#
# Indices 1 2 3 4 5 6 
#
# 1 0.012887 0.001948 0.000085 0.000000 0.000699 0.000000
# 2 0.001948 0.012357 -0.002510 0.000000 -0.000542 0.000000
# 3 0.000085 -0.002510 0.007576 0.000000 0.000666 0.000000
# 4 0.000000 0.000000 0.000000 0.069478 0.000000 0.013195
# 5 0.000699 -0.000542 0.000666 0.000000 0.019473 0.000000
# 6 0.000000 0.000000 0.000000 0.013195 0.000000 0.050817
#
#
# Mechanical properties :
#
#
# Convention : Reuss Voigt Hill
#
# Bulk Modulus (GPa) = 31.38226 36.92875 34.15550
# Shear Modulus (GPa) = 27.14969 37.54356 32.34663
#
# Velocity S-wave (km/s) = 3.25934 3.83279 3.55764
# Velocity P-wave (km/s) = 5.14236 5.83411 5.49912
#
# Compressibility (1/GPa) = 0.03186514
#
# Stress axis : x y z
#
# Youngs Moduli (GPa) = 77.59925 80.92550 131.99030
#
# Poissons Ratio (x) = -0.15765 -0.01120
# Poissons Ratio (y) = -0.15117 0.33135
# Poissons Ratio (z) = -0.00658 0.20316
#
# Static dielectric constant tensor:
#      x y z
#    x 1.831380 0.000000 -0.056590 
#    y 0.000000 1.914910 0.000000 
#    z -0.056590 0.000000 1.894200 
# 
# From -- ./inp_files/185773.got.cif
#   From: 2010.05.17/outbox.cif.g08.bks.cpg/sg15_93_cif.got.tgz:185773.got - 2010.06.03 18:47:42.
