data_PCOD9287844
_publ_section_title
;
Structure prediction by ZEFSAII (Michael W. Deem and Ramdas Pophale) SiO2 
 PCOD9287844
Probable space group: C 2/C
;
_chemical_formula_sum "Si O2"
_cell_formula_units_Z 52
_cell_length_a 20.693555
_cell_length_b 26.373867
_cell_length_c 7.918637
_cell_angle_alpha 90.000000
_cell_angle_beta 43.282866
_cell_angle_gamma 90.000000
_cell_volume 2962.992796
_symmetry_space_group_name_H-M "C 2/C"
_symmetry_group_IT_number 15
_symmetry_cell_setting 'monoclinic'
loop_
_space_group_symop_operation_xyz
x,y,z
-x,y,1/2-z
-x,-y,-z
x,-y,1/2+z
1/2+x,1/2+y,z
1/2-x,1/2+y,1/2-z
1/2-x,1/2-y,-z
1/2+x,1/2-y,1/2+z
loop_
_atom_site_type_symbol
_atom_site_label
_atom_site_fract_x
_atom_site_fract_y
_atom_site_fract_z
Si Si1 0.214621 0.352095 0.693117
Si Si2 0.607522 0.317503 0.000866
Si Si3 0.500000 0.003603 0.250000
Si Si4 0.564399 0.921954 0.918480
Si Si5 0.701000 0.790931 0.383795
Si Si6 0.093083 0.217101 0.166785
Si Si7 0.904711 0.332544 0.236329
O O1 0.323167 0.354983 0.534417
O O2 0.166471 0.399554 0.696444
O O3 0.198038 0.309907 0.581196
O O4 0.159983 0.344372 0.976009
O O5 0.644950 0.261688 0.980268
O O6 0.616680 0.317504 0.782320
O O7 0.500000 0.323794 0.250000
O O8 0.471404 0.041162 0.157630
O O9 0.423791 0.961211 0.447915
O O10 0.489780 0.874187 0.071512
O O11 0.651582 0.827750 0.335735
O O12 0.809707 0.781369 0.122884
O O13 0.066170 0.273944 0.283963
O O14 0.000000 0.198294 0.250000
#
# Coordination Sequence:
#
# PCOD9287844 Si02
#       7
#     8   8   4   8   8   8   8
#     4  12  21  36  55  78 109 152 188 224 287 327
#     4  11  23  35  51  78 111 151 196 236 264 312
#     4  10  22  38  58  88 116 136 182 230 306 350
#     4  11  22  38  59  85 117 147 179 238 287 357
#     4  11  23  34  52  78 113 151 200 233 263 319
#     4  11  21  36  52  75 114 153 195 238 269 310
#     4  11  21  36  52  80 110 150 188 224 277 333
#
# _framework density 17.549823
#
# number of rings (size 3 to 8) (size 9 to 14) (size 15 to 20)
#    0.000    0.923    4.615    4.154    6.462    0.000 
#    0.000    0.000    0.000    0.000    0.000    1.077 
#    0.000    0.000    0.000    0.000    0.000    0.000 
#
# Total GULP energy -144827.899534 kJ/mol
# GULP energy per Si atom -5570.303828 kJ/mol
# Density = 1.750988 g / cm^3
# Si number density = 17.549823 Si / 1000 Ang^3
#
#
#
# Elastic Constant Matrix: (Units=GPa)
#
#
# Indices 1 2 3 4 5 6 
#
# 1 108.6053 32.2297 41.1923 0.0000 -15.3588 0.0000
# 2 32.2297 61.2483 30.8217 0.0000 -11.5426 0.0000
# 3 41.1923 30.8217 75.8159 0.0000 -17.6572 0.0000
# 4 0.0000 0.0000 0.0000 16.1330 0.0000 2.7651
# 5 -15.3588 -11.5426 -17.6572 0.0000 35.1099 0.0000
# 6 0.0000 0.0000 0.0000 2.7651 0.0000 8.8579
#
#
#
# Elastic Compliance Matrix: (Units=1/GPa)
#
#
# Indices 1 2 3 4 5 6 
#
# 1 0.012395 -0.003781 -0.004785 0.000000 0.001773 0.000000
# 2 -0.003781 0.021941 -0.006310 0.000000 0.002386 0.000000
# 3 -0.004785 -0.006310 0.019690 0.000000 0.005735 0.000000
# 4 0.000000 0.000000 0.000000 0.065488 0.000000 -0.020443
# 5 0.001773 0.002386 0.005735 0.000000 0.032926 0.000000
# 6 0.000000 0.000000 0.000000 -0.020443 0.000000 0.119276
#
#
# Mechanical properties :
#
#
# Convention : Reuss Voigt Hill
#
# Bulk Modulus (GPa) = 41.19258 50.46189 45.82723
# Shear Modulus (GPa) = 16.15194 21.44855 18.80025
#
# Velocity S-wave (km/s) = 3.03701 3.49972 3.27655
# Velocity P-wave (km/s) = 5.98504 6.71913 6.36268
#
# Compressibility (1/GPa) = 0.02427622
#
# Stress axis : x y z
#
# Youngs Moduli (GPa) = 80.67741 45.57578 50.78624
#
# Poissons Ratio (x) = 0.17230 0.24299
# Poissons Ratio (y) = 0.30501 0.32047
# Poissons Ratio (z) = 0.38601 0.28759
#
# Static dielectric constant tensor:
#      x y z
#    x 1.632360 0.000000 0.036920 
#    y 0.000000 1.589460 0.000000 
#    z 0.036920 0.000000 1.676180 
# 
# From -- ./inp_files/58574.got.cif
#   From: 2010.05.17/outbox.cif.g08.bks.cpg/sg15_30_cif.got.tgz:58574.got - 2010.06.03 18:47:42.
