data_PCOD9287226
_publ_section_title
;
Structure prediction by ZEFSAII (Michael W. Deem and Ramdas Pophale) SiO2 
 PCOD9287226
Probable space group: C 2/C
;
_chemical_formula_sum "Si O2"
_cell_formula_units_Z 64
_cell_length_a 10.911329
_cell_length_b 22.640826
_cell_length_c 11.242372
_cell_angle_alpha 90.000000
_cell_angle_beta 82.163872
_cell_angle_gamma 90.000000
_cell_volume 2751.397915
_symmetry_space_group_name_H-M "C 2/C"
_symmetry_group_IT_number 15
_symmetry_cell_setting 'monoclinic'
loop_
_space_group_symop_operation_xyz
x,y,z
-x,y,1/2-z
-x,-y,-z
x,-y,1/2+z
1/2+x,1/2+y,z
1/2-x,1/2+y,1/2-z
1/2-x,1/2-y,-z
1/2+x,1/2-y,1/2+z
loop_
_atom_site_type_symbol
_atom_site_label
_atom_site_fract_x
_atom_site_fract_y
_atom_site_fract_z
Si Si1 0.732155 0.560414 0.771365
Si Si2 0.243638 0.812667 0.892841
Si Si3 0.813545 0.940115 0.607360
Si Si4 0.921085 0.871444 0.406930
Si Si5 0.916973 0.555464 0.541597
Si Si6 0.010784 0.660223 0.379387
Si Si7 0.821327 0.159644 0.557008
Si Si8 0.722279 0.722439 0.158528
O O1 0.682012 0.495270 0.807229
O O2 0.637764 0.595202 0.696501
O O3 0.860893 0.557880 0.681838
O O4 0.735829 0.597588 0.893520
O O5 0.226339 0.877520 0.831040
O O6 0.386780 0.800344 0.896607
O O7 0.184646 0.772082 0.801098
O O8 0.178398 0.825749 0.025616
O O9 0.930970 0.921856 0.510381
O O10 0.704066 0.950565 0.526520
O O11 0.049720 0.837834 0.388578
O O12 0.989864 0.613362 0.486788
O O13 0.000000 0.500000 0.500000
O O14 0.000000 0.629666 0.250000
O O15 0.136805 0.696614 0.365424
O O16 0.729237 0.211744 0.607434
O O17 0.850314 0.177085 0.416902
#
# Coordination Sequence:
#
# PCOD9287226 Si02
#       8
#     8   8   8   8   8   8   8   8
#     4  11  22  39  62  96 132 166 209 264 324 382
#     4   8  18  41  65  90 120 158 214 255 314 381
#     4   8  20  38  59  94 124 164 207 250 315 381
#     4   9  21  43  64  91 127 165 219 258 311 385
#     4  10  22  34  59  92 131 162 201 258 315 386
#     4   9  18  37  63  89 115 159 209 256 308 379
#     4  11  25  43  61  91 127 169 218 266 322 375
#     4  10  23  42  66  89 125 168 215 268 321 383
#
# _framework density 23.260902999999999
#
# number of rings (size 3 to 8) (size 9 to 14) (size 15 to 20)
#    0.750    1.750    1.250    0.375    7.000    5.000 
#    2.250    2.500    0.000    0.000    0.000    0.000 
#    0.000    0.000    0.000    0.000    0.000    0.000 
#
# Total GULP energy -178261.193439 kJ/mol
# GULP energy per Si atom -5570.662295 kJ/mol
# Density = 2.320796 g / cm^3
# Si number density = 23.260903 Si / 1000 Ang^3
#
#
#
# Elastic Constant Matrix: (Units=GPa)
#
#
# Indices 1 2 3 4 5 6 
#
# 1 39.1756 0.8552 3.5857 0.0000 1.9934 0.0000
# 2 0.8552 74.2694 21.4441 0.0000 -0.1229 0.0000
# 3 3.5857 21.4441 52.5674 0.0000 -0.8911 0.0000
# 4 0.0000 0.0000 0.0000 34.4278 0.0000 7.1116
# 5 1.9934 -0.1229 -0.8911 0.0000 25.8447 0.0000
# 6 0.0000 0.0000 0.0000 7.1116 0.0000 20.8493
#
#
#
# Elastic Compliance Matrix: (Units=1/GPa)
#
#
# Indices 1 2 3 4 5 6 
#
# 1 0.025799 0.000247 -0.001895 0.000000 -0.002054 0.000000
# 2 0.000247 0.015265 -0.006247 0.000000 -0.000162 0.000000
# 3 -0.001895 -0.006247 0.021715 0.000000 0.000865 0.000000
# 4 0.000000 0.000000 0.000000 0.031248 0.000000 -0.010659
# 5 -0.002054 -0.000162 0.000865 0.000000 0.038880 0.000000
# 6 0.000000 0.000000 0.000000 -0.010659 0.000000 0.051599
#
#
# Mechanical properties :
#
#
# Convention : Reuss Voigt Hill
#
# Bulk Modulus (GPa) = 21.28170 24.19805 22.73988
# Shear Modulus (GPa) = 23.15249 25.56618 24.35934
#
# Velocity S-wave (km/s) = 3.15832 3.31887 3.23959
# Velocity P-wave (km/s) = 4.74015 5.01119 4.87755
#
# Compressibility (1/GPa) = 0.04698872
#
# Stress axis : x y z
#
# Youngs Moduli (GPa) = 38.76161 65.50923 46.05027
#
# Poissons Ratio (x) = -0.01616 0.08728
# Poissons Ratio (y) = -0.00956 0.28766
# Poissons Ratio (z) = 0.07346 0.40922
#
# Static dielectric constant tensor:
#      x y z
#    x 1.892260 0.000000 -0.030880 
#    y 0.000000 1.891560 0.000000 
#    z -0.030880 0.000000 2.077960 
# 
# From -- ./inp_files/90790.got.cif
#   From: 2010.05.17/outbox.cif.g08.bks.cpg/sg15_46_cif.got.tgz:90790.got - 2010.06.03 18:47:42.
