data_PCOD9287933
_publ_section_title
;
Structure prediction by ZEFSAII (Michael W. Deem and Ramdas Pophale) SiO2 
 PCOD9287933
Probable space group: C 2/C
;
_chemical_formula_sum "Si O2"
_cell_formula_units_Z 28
_cell_length_a 5.168968
_cell_length_b 30.279072
_cell_length_c 9.201739
_cell_angle_alpha 90.000000
_cell_angle_beta 119.371091
_cell_angle_gamma 90.000000
_cell_volume 1255.059932
_symmetry_space_group_name_H-M "C 2/C"
_symmetry_group_IT_number 15
_symmetry_cell_setting 'monoclinic'
loop_
_space_group_symop_operation_xyz
x,y,z
-x,y,1/2-z
-x,-y,-z
x,-y,1/2+z
1/2+x,1/2+y,z
1/2-x,1/2+y,1/2-z
1/2-x,1/2-y,-z
1/2+x,1/2-y,1/2+z
loop_
_atom_site_type_symbol
_atom_site_label
_atom_site_fract_x
_atom_site_fract_y
_atom_site_fract_z
Si Si1 0.338591 0.615709 0.362602
Si Si2 0.644781 0.540162 0.630603
Si Si3 0.500000 0.755409 0.250000
Si Si4 0.447867 0.292443 0.019971
O O1 0.500000 0.621952 0.250000
O O2 0.546088 0.583256 0.512841
O O3 0.305357 0.660707 0.449158
O O4 0.000000 0.598460 0.250000
O O5 0.500000 0.541389 0.750000
O O6 0.500000 0.500000 0.500000
O O7 0.000000 0.536443 0.750000
O O8 0.426170 0.721228 0.103232
O O9 0.772002 0.788398 0.297396
O O10 0.250000 0.250000 0.000000
#
# Coordination Sequence:
#
# PCOD9287933 Si02
#       4
#     8   8   4   8
#     4  12  26  46  71 103 146 190 241 295 359 427
#     4  12  26  48  78 111 146 186 233 294 362 434
#     4  10  22  38  60  88 128 172 238 282 348 404
#     4  11  23  40  63  92 133 184 234 293 349 409
#
# _framework density 22.309691999999998
#
# number of rings (size 3 to 8) (size 9 to 14) (size 15 to 20)
#    0.000    0.571    1.429    6.857    6.000    2.286 
#    0.000    0.000    0.000    0.000    0.000    0.000 
#    0.000    0.000    0.000    0.000    0.000    0.000 
#
# Total GULP energy -78094.391779 kJ/mol
# GULP energy per Si atom -5578.170841 kJ/mol
# Density = 2.225891 g / cm^3
# Si number density = 22.309692 Si / 1000 Ang^3
#
#
#
# Elastic Constant Matrix: (Units=GPa)
#
#
# Indices 1 2 3 4 5 6 
#
# 1 156.1093 31.6708 55.8971 0.0000 29.0303 0.0000
# 2 31.6708 127.7483 65.2865 0.0000 4.3685 0.0000
# 3 55.8971 65.2865 117.5610 0.0000 20.5853 0.0000
# 4 0.0000 0.0000 0.0000 40.0284 0.0000 0.8661
# 5 29.0303 4.3685 20.5853 0.0000 55.9539 0.0000
# 6 0.0000 0.0000 0.0000 0.8661 0.0000 23.9736
#
#
#
# Elastic Compliance Matrix: (Units=1/GPa)
#
#
# Indices 1 2 3 4 5 6 
#
# 1 0.008174 -0.000291 -0.003192 0.000000 -0.003044 0.000000
# 2 -0.000291 0.011055 -0.006281 0.000000 0.001599 0.000000
# 3 -0.003192 -0.006281 0.014041 0.000000 -0.003019 0.000000
# 4 0.000000 0.000000 0.000000 0.025002 0.000000 -0.000903
# 5 -0.003044 0.001599 -0.003019 0.000000 0.020437 0.000000
# 6 0.000000 0.000000 0.000000 -0.000903 0.000000 0.041745
#
#
# Mechanical properties :
#
#
# Convention : Reuss Voigt Hill
#
# Bulk Modulus (GPa) = 72.77026 78.56970 75.66998
# Shear Modulus (GPa) = 34.58726 40.56213 37.57469
#
# Velocity S-wave (km/s) = 3.94169 4.26859 4.10839
# Velocity P-wave (km/s) = 7.30787 7.71937 7.51643
#
# Compressibility (1/GPa) = 0.01374188
#
# Stress axis : x y z
#
# Youngs Moduli (GPa) = 122.34368 90.45399 71.22229
#
# Poissons Ratio (x) = 0.02634 0.22732
# Poissons Ratio (y) = 0.03562 0.44735
# Poissons Ratio (z) = 0.39049 0.56814
#
# Static dielectric constant tensor:
#      x y z
#    x 1.980970 0.000000 -0.028300 
#    y 0.000000 1.874400 0.000000 
#    z -0.028300 0.000000 2.004320 
# 
# From -- ./inp_files/19882.got.cif
#   From: 2010.05.17/outbox.cif.g08.bks.cpg/sg15_10_cif.got.tgz:19882.got - 2010.06.03 18:47:42.
