data_PCOD9287057
_publ_section_title
;
Structure prediction by ZEFSAII (Michael W. Deem and Ramdas Pophale) SiO2 
 PCOD9287057
Probable space group: C 2/C
;
_chemical_formula_sum "Si O2"
_cell_formula_units_Z 40
_cell_length_a 5.272095
_cell_length_b 29.371746
_cell_length_c 11.138791
_cell_angle_alpha 90.000000
_cell_angle_beta 98.365691
_cell_angle_gamma 90.000000
_cell_volume 1706.495833
_symmetry_space_group_name_H-M "C 2/C"
_symmetry_group_IT_number 15
_symmetry_cell_setting 'monoclinic'
loop_
_space_group_symop_operation_xyz
x,y,z
-x,y,1/2-z
-x,-y,-z
x,-y,1/2+z
1/2+x,1/2+y,z
1/2-x,1/2+y,1/2-z
1/2-x,1/2-y,-z
1/2+x,1/2-y,1/2+z
loop_
_atom_site_type_symbol
_atom_site_label
_atom_site_fract_x
_atom_site_fract_y
_atom_site_fract_z
Si Si1 0.000000 0.271087 0.750000
Si Si2 0.500000 0.789903 0.250000
Si Si3 0.000000 0.931184 0.250000
Si Si4 0.174721 0.627127 0.904707
Si Si5 0.500000 0.076203 0.250000
Si Si6 0.838141 0.545872 0.992077
Si Si7 0.285137 0.656670 0.145979
O O1 0.249027 0.239011 0.766371
O O2 0.056457 0.306300 0.643503
O O3 0.448751 0.825375 0.139666
O O4 0.795401 0.897995 0.299318
O O5 0.114206 0.957837 0.374649
O O6 0.376972 0.643396 0.019975
O O7 0.989043 0.590378 0.953784
O O8 0.324742 0.052078 0.136008
O O9 0.690383 0.109527 0.194244
O O10 0.000000 0.500000 0.000000
O O11 0.500000 0.674310 0.250000
#
# Coordination Sequence:
#
# PCOD9287057 Si02
#       7
#     4   4   4   8   4   8   8
#     4  11  25  44  72 107 150 191 252 308 368 444
#     4  12  24  45  68 112 146 197 245 303 378 438
#     4  12  23  46  73 105 142 200 241 301 376 445
#     4  11  25  44  73 101 145 193 237 306 370 448
#     4   9  22  41  69  98 140 192 238 310 368 441
#     4  11  25  45  71 104 143 184 248 303 372 446
#     4  10  21  46  67 102 142 189 250 301 369 435
#
# _framework density 23.439844999999998
#
# number of rings (size 3 to 8) (size 9 to 14) (size 15 to 20)
#    0.000    1.200    3.000    1.800    2.800    2.400 
#    7.200    0.000    0.000    0.000    0.000    0.000 
#    0.000    0.000    0.000    0.000    0.000    0.000 
#
# Total GULP energy -111410.750413 kJ/mol
# GULP energy per Si atom -5570.537521 kJ/mol
# Density = 2.338650 g / cm^3
# Si number density = 23.439845 Si / 1000 Ang^3
#
#
#
# Elastic Constant Matrix: (Units=GPa)
#
#
# Indices 1 2 3 4 5 6 
#
# 1 67.7989 23.2049 36.8008 0.0000 12.9406 0.0000
# 2 23.2049 104.7470 64.2264 0.0000 16.4199 0.0000
# 3 36.8008 64.2264 187.8281 0.0000 15.1533 0.0000
# 4 0.0000 0.0000 0.0000 -12.0609 0.0000 33.1381
# 5 12.9406 16.4199 15.1533 0.0000 32.8468 0.0000
# 6 0.0000 0.0000 0.0000 33.1381 0.0000 -4.1524
#
#
#
# Elastic Compliance Matrix: (Units=1/GPa)
#
#
# Indices 1 2 3 4 5 6 
#
# 1 0.017603 -0.001581 -0.002506 0.000000 -0.004989 0.000000
# 2 -0.001581 0.012834 -0.003751 0.000000 -0.004062 0.000000
# 3 -0.002506 -0.003751 0.007132 0.000000 -0.000428 0.000000
# 4 0.000000 0.000000 0.000000 0.003962 0.000000 0.031619
# 5 -0.004989 -0.004062 -0.000428 0.000000 0.034638 0.000000
# 6 0.000000 0.000000 0.000000 0.031619 0.000000 0.011508
#
#
# Mechanical properties :
#
#
# Convention : Reuss Voigt Hill
#
# Bulk Modulus (GPa) = 45.67651 67.64870 56.66260
# Shear Modulus (GPa) = 45.18754 19.06949 32.12851
#
# Velocity S-wave (km/s) = 4.39545 2.85537 3.70629
# Velocity P-wave (km/s) = 6.72970 6.30826 6.52238
#
# Compressibility (1/GPa) = 0.02189309
#
# Stress axis : x y z
#
# Youngs Moduli (GPa) = 56.80858 77.91946 140.21138
#
# Poissons Ratio (x) = 0.12321 0.35134
# Poissons Ratio (y) = 0.08983 0.52592
# Poissons Ratio (z) = 0.14235 0.29227
#
# Static dielectric constant tensor:
#      x y z
#    x 1.965260 0.000000 0.078360 
#    y 0.000000 1.832660 0.000000 
#    z 0.078360 0.000000 2.069830 
# 
# From -- ./inp_files/73397.got.cif
#   From: 2010.05.17/outbox.cif.g08.bks.cpg/sg15_37_cif.got.tgz:73397.got - 2010.06.03 18:47:42.
