data_PCOD9287760
_publ_section_title
;
Structure prediction by ZEFSAII (Michael W. Deem and Ramdas Pophale) SiO2 
 PCOD9287760
Probable space group: C 2/C
;
_chemical_formula_sum "Si O2"
_cell_formula_units_Z 40
_cell_length_a 6.831596
_cell_length_b 18.032157
_cell_length_c 19.400561
_cell_angle_alpha 90.000000
_cell_angle_beta 138.134656
_cell_angle_gamma 90.000000
_cell_volume 1594.993001
_symmetry_space_group_name_H-M "C 2/C"
_symmetry_group_IT_number 15
_symmetry_cell_setting 'monoclinic'
loop_
_space_group_symop_operation_xyz
x,y,z
-x,y,1/2-z
-x,-y,-z
x,-y,1/2+z
1/2+x,1/2+y,z
1/2-x,1/2+y,1/2-z
1/2-x,1/2-y,-z
1/2+x,1/2-y,1/2+z
loop_
_atom_site_type_symbol
_atom_site_label
_atom_site_fract_x
_atom_site_fract_y
_atom_site_fract_z
Si Si1 0.000000 0.263108 0.250000
Si Si2 0.847445 0.132806 0.990839
Si Si3 0.000000 0.989453 0.250000
Si Si4 0.122123 0.424571 0.563505
Si Si5 0.155030 0.748231 0.648988
Si Si6 0.996807 0.112703 0.885733
O O1 0.019524 0.218365 0.184668
O O2 0.286064 0.316005 0.324115
O O3 0.858890 0.093159 0.066952
O O4 0.067247 0.202049 0.060652
O O5 0.524543 0.170881 0.901039
O O6 0.901030 0.084814 0.936942
O O7 0.958228 0.938369 0.307492
O O8 0.737225 0.047244 0.166556
O O9 0.000000 0.500000 0.500000
O O10 0.841793 0.370909 0.487982
O O11 0.500000 0.740706 0.750000
#
# Coordination Sequence:
#
# PCOD9287760 Si02
#       6
#     4   8   4   8   8   8
#     4  10  22  37  68  94 122 173 214 258 320 402
#     4  10  23  42  62  98 129 163 220 262 323 390
#     4  10  24  41  62  94 124 175 218 262 326 374
#     4  10  23  42  63  91 132 167 211 273 314 378
#     4  10  22  40  67  95 128 168 210 266 327 384
#     4  10  23  41  65  90 126 171 211 267 315 386
#
# _framework density 25.078479999999999
#
# number of rings (size 3 to 8) (size 9 to 14) (size 15 to 20)
#    0.000    2.000    0.000    1.200   12.600    7.200 
#    0.000    6.000    0.000    0.000    0.000    0.000 
#    0.000    0.000    0.000    0.000    0.000    0.000 
#
# Total GULP energy -111496.492124 kJ/mol
# GULP energy per Si atom -5574.824606 kJ/mol
# Density = 2.502140 g / cm^3
# Si number density = 25.078480 Si / 1000 Ang^3
#
#
#
# Elastic Constant Matrix: (Units=GPa)
#
#
# Indices 1 2 3 4 5 6 
#
# 1 144.7155 46.3515 64.8627 0.0003 -30.4551 -0.0001
# 2 46.3515 47.7193 33.7560 0.0001 -21.6410 0.0000
# 3 64.8627 33.7560 160.4400 0.0003 -1.2791 0.0001
# 4 0.0003 0.0001 0.0003 18.3715 0.0003 -19.7405
# 5 -30.4551 -21.6410 -1.2791 0.0003 53.2487 0.0000
# 6 -0.0001 0.0000 0.0001 -19.7405 0.0000 20.3948
#
#
#
# Elastic Compliance Matrix: (Units=1/GPa)
#
#
# Indices 1 2 3 4 5 6 
#
# 1 0.011325 -0.007312 -0.003013 0.000002 0.003433 0.000002
# 2 -0.007312 0.035935 -0.004522 0.000001 0.010314 0.000001
# 3 -0.003013 -0.004522 0.008375 0.000003 -0.003360 0.000003
# 4 0.000002 0.000001 0.000003 -1.359200 0.000009 -1.315594
# 5 0.003433 0.010314 -0.003360 0.000009 0.024854 0.000009
# 6 0.000002 0.000001 0.000003 -1.315594 0.000009 -1.224354
#
#
# Mechanical properties :
#
#
# Convention : Reuss Voigt Hill
#
# Bulk Modulus (GPa) = 38.54894 71.42390 54.98642
# Shear Modulus (GPa) = -2.02862 32.26331 15.11734
#
# Velocity S-wave (km/s) = -0.90037 3.59066 2.45786
# Velocity P-wave (km/s) = 3.78468 6.76258 5.47979
#
# Compressibility (1/GPa) = 0.02594105
#
# Stress axis : x y z
#
# Youngs Moduli (GPa) = 88.30051 27.82822 119.39698
#
# Poissons Ratio (x) = 0.20349 0.35969
# Poissons Ratio (y) = 0.64569 0.53992
# Poissons Ratio (z) = 0.26601 0.12584
#
# Static dielectric constant tensor:
#      x y z
#    x 2.062370 0.000000 0.007640 
#    y 0.000000 1.996990 0.000000 
#    z 0.007640 0.000000 2.108320 
# 
# From -- ./inp_files/186014.got.cif
#   From: 2010.05.17/outbox.cif.g08.bks.cpg/sg15_94_cif.got.tgz:186014.got - 2010.06.03 18:47:42.
