data_PCOD9287175
_publ_section_title
;
Structure prediction by ZEFSAII (Michael W. Deem and Ramdas Pophale) SiO2 
 PCOD9287175
Probable space group: C 2/C
;
_chemical_formula_sum "Si O2"
_cell_formula_units_Z 48
_cell_length_a 23.155565
_cell_length_b 12.003285
_cell_length_c 19.328578
_cell_angle_alpha 90.000000
_cell_angle_beta 23.146900
_cell_angle_gamma 90.000000
_cell_volume 2111.773349
_symmetry_space_group_name_H-M "C 2/C"
_symmetry_group_IT_number 15
_symmetry_cell_setting 'monoclinic'
loop_
_space_group_symop_operation_xyz
x,y,z
-x,y,1/2-z
-x,-y,-z
x,-y,1/2+z
1/2+x,1/2+y,z
1/2-x,1/2+y,1/2-z
1/2-x,1/2-y,-z
1/2+x,1/2-y,1/2+z
loop_
_atom_site_type_symbol
_atom_site_label
_atom_site_fract_x
_atom_site_fract_y
_atom_site_fract_z
Si Si1 0.786803 0.639849 0.103355
Si Si2 0.095529 0.222216 0.703824
Si Si3 0.305798 0.689346 0.762701
Si Si4 0.449170 0.356179 0.964810
Si Si5 0.242358 0.435144 0.703375
Si Si6 0.533190 0.941223 0.584375
O O1 0.620930 0.640251 0.258560
O O2 0.860509 0.761334 0.020876
O O3 0.773320 0.600705 0.199046
O O4 0.895987 0.545460 0.953989
O O5 0.250000 0.250000 0.500000
O O6 0.124599 0.153665 0.741563
O O7 0.000000 0.164886 0.750000
O O8 0.021355 0.339908 0.807647
O O9 0.426781 0.683246 0.569787
O O10 0.241763 0.812152 0.846879
O O11 0.167147 0.615881 0.894500
O O12 0.368619 0.475227 0.051443
O O13 0.094795 0.477047 0.827143
#
# Coordination Sequence:
#
# PCOD9287175 Si02
#       6
#     8   8   8   8   8   8
#     4  11  23  35  56  83 125 166 210 242 302 369
#     4  11  23  41  60  87 121 162 208 262 316 358
#     4  10  23  34  61  89 129 161 206 252 308 369
#     4  11  23  37  57  89 130 171 205 242 298 389
#     4  10  22  33  55  85 124 168 202 241 306 368
#     4  11  22  38  58  85 123 159 206 259 310 364
#
# _framework density 22.729713
#
# number of rings (size 3 to 8) (size 9 to 14) (size 15 to 20)
#    0.000    1.333    3.333    2.000   14.000    0.000 
#    0.000    0.000    0.000    0.000    0.000   10.500 
#    0.000    0.000    0.000    0.000    0.000    0.000 
#
# Total GULP energy -134091.627567 kJ/mol
# GULP energy per Si atom -5587.151149 kJ/mol
# Density = 2.267798 g / cm^3
# Si number density = 22.729713 Si / 1000 Ang^3
#
#
#
# Elastic Constant Matrix: (Units=GPa)
#
#
# Indices 1 2 3 4 5 6 
#
# 1 46.4035 -0.7237 18.2787 0.0000 -27.7282 0.0000
# 2 -0.7237 130.7444 39.0727 0.0002 -25.4155 -0.0001
# 3 18.2787 39.0727 97.2160 0.0004 -34.2897 -0.0001
# 4 0.0000 0.0002 0.0004 45.8223 -0.0002 -11.3883
# 5 -27.7282 -25.4155 -34.2897 -0.0002 42.3303 0.0000
# 6 0.0000 -0.0001 -0.0001 -11.3883 0.0000 11.3394
#
#
#
# Elastic Compliance Matrix: (Units=1/GPa)
#
#
# Indices 1 2 3 4 5 6 
#
# 1 0.039066 0.005745 0.000824 0.000000 0.029706 0.000000
# 2 0.005745 0.009889 -0.002287 0.000000 0.007848 0.000000
# 3 0.000824 -0.002287 0.015059 0.000000 0.011366 0.000000
# 4 0.000000 0.000000 0.000000 0.029083 0.000000 0.029208
# 5 0.029706 0.007848 0.011366 0.000000 0.057002 0.000000
# 6 0.000000 0.000000 0.000000 0.029208 0.000000 0.117522
#
#
# Mechanical properties :
#
#
# Convention : Reuss Voigt Hill
#
# Bulk Modulus (GPa) = 13.77813 43.06879 28.42346
# Shear Modulus (GPa) = 17.65228 34.41415 26.03321
#
# Velocity S-wave (km/s) = 2.78981 3.89531 3.38796
# Velocity P-wave (km/s) = 4.05614 6.26264 5.27603
#
# Compressibility (1/GPa) = 0.07257878
#
# Stress axis : x y z
#
# Youngs Moduli (GPa) = 25.59760 101.11932 66.40421
#
# Poissons Ratio (x) = -0.58090 -0.05470
# Poissons Ratio (y) = -0.14705 0.15183
# Poissons Ratio (z) = -0.02109 0.23121
#
# Static dielectric constant tensor:
#      x y z
#    x 1.888120 0.000000 -0.001790 
#    y 0.000000 1.899470 0.000000 
#    z -0.001790 0.000000 1.886190 
# 
# From -- ./inp_files/283540.got.cif
#   From: 2010.05.17/outbox.cif.g08.bks.cpg/sg15_142_cif.got.tgz:283540.got - 2010.06.03 18:47:42.
