data_PCOD9287577
_publ_section_title
;
Structure prediction by ZEFSAII (Michael W. Deem and Ramdas Pophale) SiO2 
 PCOD9287577
Probable space group: C 2/C
;
_chemical_formula_sum "Si O2"
_cell_formula_units_Z 64
_cell_length_a 24.972621
_cell_length_b 14.240668
_cell_length_c 19.296685
_cell_angle_alpha 90.000000
_cell_angle_beta 32.402039
_cell_angle_gamma 90.000000
_cell_volume 3677.273867
_symmetry_space_group_name_H-M "C 2/C"
_symmetry_group_IT_number 15
_symmetry_cell_setting 'monoclinic'
loop_
_space_group_symop_operation_xyz
x,y,z
-x,y,1/2-z
-x,-y,-z
x,-y,1/2+z
1/2+x,1/2+y,z
1/2-x,1/2+y,1/2-z
1/2-x,1/2-y,-z
1/2+x,1/2-y,1/2+z
loop_
_atom_site_type_symbol
_atom_site_label
_atom_site_fract_x
_atom_site_fract_y
_atom_site_fract_z
Si Si1 0.743942 0.928105 0.844221
Si Si2 0.589549 0.430755 0.556620
Si Si3 0.920510 0.066404 0.048036
Si Si4 0.810432 0.361094 0.128917
Si Si5 0.480822 0.760270 0.594222
Si Si6 0.313159 0.301235 0.372249
Si Si7 0.150055 0.241587 0.899789
Si Si8 0.863947 0.014459 0.344238
O O1 0.840333 0.904602 0.692093
O O2 0.675604 0.837703 0.910612
O O3 0.782119 0.947462 0.879998
O O4 0.701305 0.026256 0.860929
O O5 0.629330 0.506727 0.458316
O O6 0.600093 0.331303 0.507496
O O7 0.643555 0.442479 0.571015
O O8 0.473548 0.457080 0.696381
O O9 0.974814 0.155086 0.956335
O O10 0.000000 0.000000 0.000000
O O11 0.757630 0.324300 0.116165
O O12 0.746123 0.312285 0.260820
O O13 0.925347 0.329458 0.005039
O O14 0.403469 0.761390 0.742599
O O15 0.420169 0.767029 0.588654
O O16 0.250000 0.250000 0.500000
O O17 0.354489 0.401351 0.354538
#
# Coordination Sequence:
#
# PCOD9287577 Si02
#       8
#     8   8   8   8   8   8   8   8
#     4  11  21  38  59  84 123 152 196 247 291 344
#     4  11  21  34  59  91 114 147 204 239 296 345
#     4  12  17  34  63  86 114 148 194 253 286 338
#     4  10  22  37  57  88 117 156 195 240 298 349
#     4  11  21  36  59  89 120 152 191 239 302 352
#     4  10  22  37  57  90 121 151 196 239 302 360
#     4  11  22  36  61  88 113 155 199 246 286 347
#     4  10  22  37  58  85 118 154 190 252 293 341
#
# _framework density 17.404197
#
# number of rings (size 3 to 8) (size 9 to 14) (size 15 to 20)
#    0.000    1.250    6.250    0.750    1.750    1.500 
#    0.000    0.000    0.000    3.000    0.000    0.000 
#    0.000    0.000    0.000    0.000    0.000    0.000 
#
# Total GULP energy -178589.324649 kJ/mol
# GULP energy per Si atom -5580.916395 kJ/mol
# Density = 1.736458 g / cm^3
# Si number density = 17.404197 Si / 1000 Ang^3
#
#
#
# Elastic Constant Matrix: (Units=GPa)
#
#
# Indices 1 2 3 4 5 6 
#
# 1 68.3280 43.9998 36.5362 0.0000 3.9786 0.0000
# 2 43.9998 102.3631 40.4001 0.0000 -4.1521 0.0000
# 3 36.5362 40.4001 95.8182 0.0000 1.5223 0.0000
# 4 0.0000 0.0000 0.0000 34.3415 0.0000 -5.6650
# 5 3.9786 -4.1521 1.5223 0.0000 27.5681 0.0000
# 6 0.0000 0.0000 0.0000 -5.6650 0.0000 21.2116
#
#
#
# Elastic Compliance Matrix: (Units=1/GPa)
#
#
# Indices 1 2 3 4 5 6 
#
# 1 0.022781 -0.007869 -0.005302 0.000000 -0.004180 0.000000
# 2 -0.007869 0.014553 -0.003191 0.000000 0.003504 0.000000
# 3 -0.005302 -0.003191 0.013811 0.000000 -0.000478 0.000000
# 4 0.000000 0.000000 0.000000 0.030461 0.000000 0.008135
# 5 -0.004180 0.003504 -0.000478 0.000000 0.037431 0.000000
# 6 0.000000 0.000000 0.000000 0.008135 0.000000 0.049317
#
#
# Mechanical properties :
#
#
# Convention : Reuss Voigt Hill
#
# Bulk Modulus (GPa) = 54.28761 56.48684 55.38723
# Shear Modulus (GPa) = 24.12886 26.32913 25.22900
#
# Velocity S-wave (km/s) = 3.72745 3.89370 3.81148
# Velocity P-wave (km/s) = 7.05586 7.26229 7.15982
#
# Compressibility (1/GPa) = 0.01842041
#
# Stress axis : x y z
#
# Youngs Moduli (GPa) = 43.89564 68.71325 72.40404
#
# Poissons Ratio (x) = 0.54072 0.38391
# Poissons Ratio (y) = 0.34542 0.23106
# Poissons Ratio (z) = 0.23275 0.21928
#
# Static dielectric constant tensor:
#      x y z
#    x 1.595320 0.000000 0.009300 
#    y 0.000000 1.592340 0.000000 
#    z 0.009300 0.000000 1.590480 
# 
# From -- ./inp_files/257512.got.cif
#   From: 2010.05.17/outbox.cif.g08.bks.cpg/sg15_129_cif.got.tgz:257512.got - 2010.06.03 18:47:42.
