data_PCOD9287879
_publ_section_title
;
Structure prediction by ZEFSAII (Michael W. Deem and Ramdas Pophale) SiO2 
 PCOD9287879
Probable space group: C 2/C
;
_chemical_formula_sum "Si O2"
_cell_formula_units_Z 52
_cell_length_a 19.006755
_cell_length_b 20.618332
_cell_length_c 8.197235
_cell_angle_alpha 90.000000
_cell_angle_beta 53.077010
_cell_angle_gamma 90.000000
_cell_volume 2568.128565
_symmetry_space_group_name_H-M "C 2/C"
_symmetry_group_IT_number 15
_symmetry_cell_setting 'monoclinic'
loop_
_space_group_symop_operation_xyz
x,y,z
-x,y,1/2-z
-x,-y,-z
x,-y,1/2+z
1/2+x,1/2+y,z
1/2-x,1/2+y,1/2-z
1/2-x,1/2-y,-z
1/2+x,1/2-y,1/2+z
loop_
_atom_site_type_symbol
_atom_site_label
_atom_site_fract_x
_atom_site_fract_y
_atom_site_fract_z
Si Si1 0.500000 0.816788 0.250000
Si Si2 0.500000 0.336901 0.250000
Si Si3 0.323772 0.732044 0.025583
Si Si4 0.464154 0.430541 0.612671
Si Si5 0.902018 0.574209 0.093867
Si Si6 0.500000 0.033794 0.250000
Si Si7 0.769087 0.892935 0.818659
Si Si8 0.825397 0.299047 0.334961
O O1 0.448564 0.863057 0.448574
O O2 0.420128 0.779375 0.276378
O O3 0.416767 0.291254 0.329718
O O4 0.488879 0.380261 0.430664
O O5 0.294926 0.670701 0.177534
O O6 0.333330 0.792817 0.132190
O O7 0.250000 0.750000 0.000000
O O8 0.500000 0.418176 0.750000
O O9 0.500000 0.500000 0.500000
O O10 0.357198 0.427252 0.758137
O O11 0.931828 0.573634 0.237854
O O12 0.798430 0.570349 0.205000
O O13 0.944262 0.512842 0.944666
O O14 0.707577 0.868111 0.053335
O O15 0.750000 0.250000 0.500000
#
# Coordination Sequence:
#
# PCOD9287879 Si02
#       8
#     4   4   8   8   8   4   8   8
#     4   9  18  34  56  77 115 148 186 244 287 358
#     4  10  24  44  59  97 131 159 218 266 314 384
#     4  10  22  38  59  86 120 154 198 252 307 371
#     4  11  23  42  66  90 126 174 214 264 325 376
#     4   9  18  34  53  79 114 142 192 237 292 357
#     4   9  18  32  53  80 106 151 180 232 301 348
#     4   9  21  39  57  88 119 154 206 257 301 378
#     4   9  19  37  56  85 112 155 200 240 306 363
#
# _framework density 20.248207000000001
#
# number of rings (size 3 to 8) (size 9 to 14) (size 15 to 20)
#    0.000    2.462    0.769    0.000    2.154    6.154 
#    9.692    0.000    0.000    0.000    0.000    0.000 
#    0.000    0.000    0.000    0.000    0.000    0.000 
#
# Total GULP energy -144852.300298 kJ/mol
# GULP energy per Si atom -5571.242319 kJ/mol
# Density = 2.020212 g / cm^3
# Si number density = 20.248207 Si / 1000 Ang^3
#
#
#
# Elastic Constant Matrix: (Units=GPa)
#
#
# Indices 1 2 3 4 5 6 
#
# 1 241.6354 46.6375 68.9210 0.0000 -11.3919 0.0000
# 2 46.6375 31.6188 19.7872 0.0000 -2.5102 0.0000
# 3 68.9210 19.7872 70.0617 0.0000 -6.0392 0.0000
# 4 0.0000 0.0000 0.0000 -79.0023 0.0000 -10.5456
# 5 -11.3919 -2.5102 -6.0392 0.0000 43.0129 0.0000
# 6 0.0000 0.0000 0.0000 -10.5456 0.0000 32.7917
#
#
#
# Elastic Compliance Matrix: (Units=1/GPa)
#
#
# Indices 1 2 3 4 5 6 
#
# 1 0.006898 -0.007177 -0.004694 0.000000 0.000749 0.000000
# 2 -0.007177 0.045907 -0.005909 0.000000 -0.000051 0.000000
# 3 -0.004694 -0.005909 0.020673 0.000000 0.001315 0.000000
# 4 0.000000 0.000000 0.000000 -0.012137 0.000000 -0.003903
# 5 0.000749 -0.000051 0.001315 0.000000 0.023629 0.000000
# 6 0.000000 0.000000 0.000000 -0.003903 0.000000 0.029240
#
#
# Mechanical properties :
#
#
# Convention : Reuss Voigt Hill
#
# Bulk Modulus (GPa) = 26.37349 68.22301 47.29825
# Shear Modulus (GPa) = 30.78619 13.22515 22.00567
#
# Velocity S-wave (km/s) = 3.90351 2.55846 3.30024
# Velocity P-wave (km/s) = 5.77667 6.51875 6.15890
#
# Compressibility (1/GPa) = 0.03791686
#
# Stress axis : x y z
#
# Youngs Moduli (GPa) = 144.97121 21.78305 48.37249
#
# Poissons Ratio (x) = 0.15635 0.22706
# Poissons Ratio (y) = 1.04052 0.28584
# Poissons Ratio (z) = 0.68049 0.12872
#
# Static dielectric constant tensor:
#      x y z
#    x 1.730290 0.000000 0.013880 
#    y 0.000000 1.750160 0.000000 
#    z 0.013880 0.000000 1.756760 
# 
# From -- ./inp_files/42081.got.cif
#   From: 2010.05.17/outbox.cif.g08.bks.cpg/sg15_22_cif.got.tgz:42081.got - 2010.06.03 18:47:42.
