data_PCOD9287147
_publ_section_title
;
Structure prediction by ZEFSAII (Michael W. Deem and Ramdas Pophale) SiO2 
 PCOD9287147
Probable space group: C 2/C
;
_chemical_formula_sum "Si O2"
_cell_formula_units_Z 56
_cell_length_a 18.769858
_cell_length_b 23.297470
_cell_length_c 9.605310
_cell_angle_alpha 90.000000
_cell_angle_beta 55.328739
_cell_angle_gamma 90.000000
_cell_volume 3454.457107
_symmetry_space_group_name_H-M "C 2/C"
_symmetry_group_IT_number 15
_symmetry_cell_setting 'monoclinic'
loop_
_space_group_symop_operation_xyz
x,y,z
-x,y,1/2-z
-x,-y,-z
x,-y,1/2+z
1/2+x,1/2+y,z
1/2-x,1/2+y,1/2-z
1/2-x,1/2-y,-z
1/2+x,1/2-y,1/2+z
loop_
_atom_site_type_symbol
_atom_site_label
_atom_site_fract_x
_atom_site_fract_y
_atom_site_fract_z
Si Si1 0.137717 0.885999 0.847285
Si Si2 0.931611 0.996016 0.700972
Si Si3 0.674353 0.740409 0.194941
Si Si4 0.466797 0.325447 0.077930
Si Si5 0.000000 0.272277 0.750000
Si Si6 0.692598 0.797726 0.475564
Si Si7 0.500000 0.277630 0.750000
Si Si8 0.681018 0.392946 0.108754
O O1 0.125703 0.938821 0.757202
O O2 0.168444 0.827237 0.741773
O O3 0.187886 0.897919 0.934101
O O4 0.041060 0.872432 0.010095
O O5 0.000000 0.993514 0.750000
O O6 0.863183 0.048319 0.788926
O O7 0.000000 0.000000 0.500000
O O8 0.691237 0.774632 0.318658
O O9 0.581005 0.754858 0.229195
O O10 0.750000 0.750000 0.000000
O O11 0.500078 0.267985 0.113581
O O12 0.386540 0.345580 0.257457
O O13 0.457965 0.314762 0.922921
O O14 0.094141 0.301076 0.641886
O O15 0.750000 0.750000 0.500000
O O16 0.731707 0.861853 0.438648
#
# Coordination Sequence:
#
# PCOD9287147 Si02
#       8
#     8   8   8   8   4   8   4   8
#     4  11  21  37  54  85 118 160 195 238 296 355
#     4  12  24  35  59  86 121 164 200 238 297 367
#     4  11  23  37  56  86 121 157 194 246 307 361
#     4  11  17  32  55  75 115 155 191 233 286 359
#     4  12  20  36  58  85 113 160 204 242 302 364
#     4  12  22  36  61  86 114 164 207 251 302 362
#     4  10  22  32  48  81 119 150 186 232 298 352
#     4  12  21  37  56  82 117 158 203 247 286 360
#
# _framework density 16.210940999999998
#
# number of rings (size 3 to 8) (size 9 to 14) (size 15 to 20)
#    0.000    0.571   10.000    0.857    4.000    1.143 
#    0.000    0.000    0.000    0.000    0.000    2.000 
#    0.000    0.000    0.000    0.000    0.000    0.000 
#
# Total GULP energy -155918.704466 kJ/mol
# GULP energy per Si atom -5568.525160 kJ/mol
# Density = 1.617404 g / cm^3
# Si number density = 16.210941 Si / 1000 Ang^3
#
#
#
# Elastic Constant Matrix: (Units=GPa)
#
#
# Indices 1 2 3 4 5 6 
#
# 1 103.7862 50.2970 45.9681 0.0000 4.9956 0.0000
# 2 50.2970 97.0138 30.8123 0.0000 -2.2055 0.0000
# 3 45.9681 30.8123 82.2680 0.0000 6.4572 0.0000
# 4 0.0000 0.0000 0.0000 23.8978 0.0000 -9.0459
# 5 4.9956 -2.2055 6.4572 0.0000 38.6020 0.0000
# 6 0.0000 0.0000 0.0000 -9.0459 0.0000 27.8436
#
#
#
# Elastic Compliance Matrix: (Units=1/GPa)
#
#
# Indices 1 2 3 4 5 6 
#
# 1 0.015377 -0.006021 -0.006236 0.000000 -0.001291 0.000000
# 2 -0.006021 0.014135 -0.002081 0.000000 0.001935 0.000000
# 3 -0.006236 -0.002081 0.016583 0.000000 -0.002086 0.000000
# 4 0.000000 0.000000 0.000000 0.047712 0.000000 0.015501
# 5 -0.001291 0.001935 -0.002086 0.000000 0.026532 0.000000
# 6 0.000000 0.000000 0.000000 0.015501 0.000000 0.040951
#
#
# Mechanical properties :
#
#
# Convention : Reuss Voigt Hill
#
# Bulk Modulus (GPa) = 57.41131 59.69144 58.55137
# Shear Modulus (GPa) = 25.53987 28.46805 27.00396
#
# Velocity S-wave (km/s) = 3.97353 4.19513 4.08583
# Velocity P-wave (km/s) = 7.51957 7.76963 7.64562
#
# Compressibility (1/GPa) = 0.01741817
#
# Stress axis : x y z
#
# Youngs Moduli (GPa) = 65.03137 70.74861 60.30297
#
# Poissons Ratio (x) = 0.42599 0.37603
# Poissons Ratio (y) = 0.39157 0.12551
# Poissons Ratio (z) = 0.40552 0.14725
#
# Static dielectric constant tensor:
#      x y z
#    x 1.584520 0.000000 0.003490 
#    y 0.000000 1.575260 0.000000 
#    z 0.003490 0.000000 1.559800 
# 
# From -- ./inp_files/50171.got.cif
#   From: 2010.05.17/outbox.cif.g08.bks.cpg/sg15_26_cif.got.tgz:50171.got - 2010.06.03 18:47:42.
