data_PCOD9287002
_publ_section_title
;
Structure prediction by ZEFSAII (Michael W. Deem and Ramdas Pophale) SiO2 
 PCOD9287002
Probable space group: C 2/C
;
_chemical_formula_sum "Si O2"
_cell_formula_units_Z 52
_cell_length_a 12.120689
_cell_length_b 19.298049
_cell_length_c 14.486552
_cell_angle_alpha 90.000000
_cell_angle_beta 137.681721
_cell_angle_gamma 90.000000
_cell_volume 2281.293169
_symmetry_space_group_name_H-M "C 2/C"
_symmetry_group_IT_number 15
_symmetry_cell_setting 'monoclinic'
loop_
_space_group_symop_operation_xyz
x,y,z
-x,y,1/2-z
-x,-y,-z
x,-y,1/2+z
1/2+x,1/2+y,z
1/2-x,1/2+y,1/2-z
1/2-x,1/2-y,-z
1/2+x,1/2-y,1/2+z
loop_
_atom_site_type_symbol
_atom_site_label
_atom_site_fract_x
_atom_site_fract_y
_atom_site_fract_z
Si Si1 0.772226 0.513875 0.667214
Si Si2 0.867873 0.717124 0.441079
Si Si3 0.500000 0.181286 0.250000
Si Si4 0.103651 0.555158 0.423956
Si Si5 0.677668 0.157157 0.903738
Si Si6 0.748876 0.772412 0.182247
Si Si7 0.854828 0.928948 0.234699
O O1 0.767416 0.458147 0.581023
O O2 0.776429 0.585900 0.615605
O O3 0.647685 0.523161 0.675224
O O4 0.953284 0.498242 0.821424
O O5 0.812759 0.786292 0.461305
O O6 0.833899 0.655539 0.492476
O O7 0.768936 0.724995 0.285753
O O8 0.060214 0.718785 0.543505
O O9 0.526997 0.129610 0.352317
O O10 0.345553 0.230897 0.164547
O O11 0.193608 0.552947 0.575574
O O12 0.500000 0.177775 0.750000
O O13 0.832149 0.847862 0.248695
O O14 0.000000 0.936128 0.250000
#
# Coordination Sequence:
#
# PCOD9287002 Si02
#       7
#     8   8   4   8   8   8   8
#     4  10  21  45  71  95 132 184 230 293 338 413
#     4  11  24  36  67 101 135 186 223 290 351 427
#     4  10  24  42  64 104 136 180 236 286 354 424
#     4  10  24  44  72  97 135 188 242 281 344 431
#     4  11  19  40  67  99 135 177 232 279 359 415
#     4  12  24  42  65 102 147 183 228 298 355 425
#     4  12  25  42  70 101 135 188 234 286 360 417
#
# _framework density 22.794091000000002
#
# number of rings (size 3 to 8) (size 9 to 14) (size 15 to 20)
#    0.000    1.231    5.385    1.385    2.154    1.846 
#    5.538    1.538    0.000    0.000    0.000    0.000 
#    0.000    0.000    0.000    0.000    0.000    0.000 
#
# Total GULP energy -145224.455349 kJ/mol
# GULP energy per Si atom -5585.555975 kJ/mol
# Density = 2.274221 g / cm^3
# Si number density = 22.794091 Si / 1000 Ang^3
#
#
#
# Elastic Constant Matrix: (Units=GPa)
#
#
# Indices 1 2 3 4 5 6 
#
# 1 101.3275 31.0276 15.9798 0.0001 -4.5895 0.0000
# 2 31.0276 51.9539 1.4128 0.0000 -14.0616 0.0000
# 3 15.9798 1.4128 68.1971 0.0002 -28.3297 0.0002
# 4 0.0001 0.0000 0.0002 26.1502 0.0001 -3.2801
# 5 -4.5895 -14.0616 -28.3297 0.0001 31.7004 0.0001
# 6 0.0000 0.0000 0.0002 -3.2801 0.0001 21.0795
#
#
#
# Elastic Compliance Matrix: (Units=1/GPa)
#
#
# Indices 1 2 3 4 5 6 
#
# 1 0.013636 -0.010218 -0.006435 0.000000 -0.008309 0.000000
# 2 -0.010218 0.031012 0.010897 0.000000 0.022015 0.000000
# 3 -0.006435 0.010897 0.027938 0.000000 0.028869 0.000000
# 4 0.000000 0.000000 0.000000 0.039002 0.000000 0.006069
# 5 -0.008309 0.022015 0.028869 0.000000 0.065908 0.000000
# 6 0.000000 0.000000 0.000000 0.006069 0.000000 0.048384
#
#
# Mechanical properties :
#
#
# Convention : Reuss Voigt Hill
#
# Bulk Modulus (GPa) = 16.37326 35.36877 25.87102
# Shear Modulus (GPa) = 19.39865 27.32323 23.36094
#
# Velocity S-wave (km/s) = 2.92042 3.46598 3.20483
# Velocity P-wave (km/s) = 4.30935 5.61851 5.00690
#
# Compressibility (1/GPa) = 0.06107519
#
# Stress axis : x y z
#
# Youngs Moduli (GPa) = 73.33396 32.24536 35.79337
#
# Poissons Ratio (x) = 0.32947 0.23034
# Poissons Ratio (y) = 0.74930 -0.39004
# Poissons Ratio (z) = 0.47192 -0.35138
#
# Static dielectric constant tensor:
#      x y z
#    x 1.907700 0.000000 -0.031330 
#    y 0.000000 1.831670 0.000000 
#    z -0.031330 0.000000 1.832130 
# 
# From -- ./inp_files/147217.got.cif
#   From: 2010.05.17/outbox.cif.g08.bks.cpg/sg15_74_cif.got.tgz:147217.got - 2010.06.03 18:47:42.
