data_PCOD9287819
_publ_section_title
;
Structure prediction by ZEFSAII (Michael W. Deem and Ramdas Pophale) SiO2 
 PCOD9287819
Probable space group: C 2/C
;
_chemical_formula_sum "Si O2"
_cell_formula_units_Z 40
_cell_length_a 14.914985
_cell_length_b 23.367992
_cell_length_c 9.336294
_cell_angle_alpha 90.000000
_cell_angle_beta 36.987800
_cell_angle_gamma 90.000000
_cell_volume 1957.758037
_symmetry_space_group_name_H-M "C 2/C"
_symmetry_group_IT_number 15
_symmetry_cell_setting 'monoclinic'
loop_
_space_group_symop_operation_xyz
x,y,z
-x,y,1/2-z
-x,-y,-z
x,-y,1/2+z
1/2+x,1/2+y,z
1/2-x,1/2+y,1/2-z
1/2-x,1/2-y,-z
1/2+x,1/2-y,1/2+z
loop_
_atom_site_type_symbol
_atom_site_label
_atom_site_fract_x
_atom_site_fract_y
_atom_site_fract_z
Si Si1 0.216357 0.742307 0.874793
Si Si2 0.841150 0.007693 0.625207
Si Si3 0.000000 0.652520 0.250000
Si Si4 0.000000 0.097480 0.250000
Si Si5 0.506971 0.669606 0.972006
Si Si6 0.728977 0.580394 0.527994
O O1 0.372353 0.716269 0.622708
O O2 0.130740 0.797956 0.926496
O O3 0.250000 0.750000 0.000000
O O4 0.092998 0.692494 0.024397
O O5 0.867395 0.057506 0.475603
O O6 0.745061 0.033731 0.877292
O O7 0.000000 0.000000 0.500000
O O8 0.950255 0.865484 0.679517
O O9 0.879772 0.615484 0.320484
O O10 0.602874 0.625000 0.750000
O O11 0.307236 0.547956 0.073504
#
# Coordination Sequence:
#
# PCOD9287819 Si02
#       6
#     8   8   4   4   8   8
#     4  11  20  40  60  90 118 156 204 250 299 365
#     4  11  20  40  60  90 118 156 204 250 299 365
#     4  10  22  38  57  92 115 158 202 244 304 364
#     4  10  22  38  57  92 115 158 202 244 304 364
#     4  10  23  38  63  87 122 156 200 253 304 356
#     4  10  23  38  63  87 122 156 200 253 304 356
#
# _framework density 20.431536000000001
#
# number of rings (size 3 to 8) (size 9 to 14) (size 15 to 20)
#    0.000    1.600    4.000    0.000    0.000   12.800 
#    0.000    0.000    0.000    0.000    0.000    0.000 
#    0.000    0.000    0.000    0.000    0.000    0.000 
#
# Total GULP energy -111563.210229 kJ/mol
# GULP energy per Si atom -5578.160511 kJ/mol
# Density = 2.038503 g / cm^3
# Si number density = 20.431536 Si / 1000 Ang^3
#
#
#
# Elastic Constant Matrix: (Units=GPa)
#
#
# Indices 1 2 3 4 5 6 
#
# 1 131.4304 86.0298 38.2697 0.0000 -1.5214 0.0000
# 2 86.0298 119.9031 22.2826 0.0000 -1.8495 0.0000
# 3 38.2697 22.2826 35.6864 0.0000 -1.2566 0.0000
# 4 0.0000 0.0000 0.0000 30.8755 0.0001 -1.1036
# 5 -1.5214 -1.8495 -1.2566 0.0001 20.3699 0.0000
# 6 0.0000 0.0000 0.0000 -1.1036 0.0000 68.9093
#
#
#
# Elastic Compliance Matrix: (Units=1/GPa)
#
#
# Indices 1 2 3 4 5 6 
#
# 1 0.018534 -0.010869 -0.013103 0.000000 -0.000411 0.000000
# 2 -0.010869 0.015814 0.001808 0.000000 0.000736 0.000000
# 3 -0.013103 0.001808 0.041005 0.000000 0.001715 0.000000
# 4 0.000000 0.000000 0.000000 0.032407 0.000000 0.000519
# 5 -0.000411 0.000736 0.001715 0.000000 0.049234 0.000000
# 6 0.000000 0.000000 0.000000 0.000519 0.000000 0.014520
#
#
# Mechanical properties :
#
#
# Convention : Reuss Voigt Hill
#
# Bulk Modulus (GPa) = 32.23356 64.46492 48.34924
# Shear Modulus (GPa) = 22.10584 33.39346 27.74965
#
# Velocity S-wave (km/s) = 3.29286 4.04717 3.68934
# Velocity P-wave (km/s) = 5.50163 7.31161 6.47022
#
# Compressibility (1/GPa) = 0.03102357
#
# Stress axis : x y z
#
# Youngs Moduli (GPa) = 53.95564 63.23498 24.38709
#
# Poissons Ratio (x) = 0.68731 0.31955
# Poissons Ratio (y) = 0.58645 -0.04408
# Poissons Ratio (z) = 0.70699 -0.11430
#
# Static dielectric constant tensor:
#      x y z
#    x 1.747830 0.000000 0.000750 
#    y 0.000000 1.847250 0.000000 
#    z 0.000750 0.000000 1.773650 
# 
# From -- ./inp_files/44736.got.cif
#   From: 2010.05.17/outbox.cif.g08.bks.cpg/sg15_23_cif.got.tgz:44736.got - 2010.06.03 18:47:42.
