data_PCOD9287138
_publ_section_title
;
Structure prediction by ZEFSAII (Michael W. Deem and Ramdas Pophale) SiO2 
 PCOD9287138
Probable space group: C 2/C
;
_chemical_formula_sum "Si O2"
_cell_formula_units_Z 60
_cell_length_a 26.221738
_cell_length_b 18.739585
_cell_length_c 10.015473
_cell_angle_alpha 90.000000
_cell_angle_beta 32.289773
_cell_angle_gamma 90.000000
_cell_volume 2629.044776
_symmetry_space_group_name_H-M "C 2/C"
_symmetry_group_IT_number 15
_symmetry_cell_setting 'monoclinic'
loop_
_space_group_symop_operation_xyz
x,y,z
-x,y,1/2-z
-x,-y,-z
x,-y,1/2+z
1/2+x,1/2+y,z
1/2-x,1/2+y,1/2-z
1/2-x,1/2-y,-z
1/2+x,1/2-y,1/2+z
loop_
_atom_site_type_symbol
_atom_site_label
_atom_site_fract_x
_atom_site_fract_y
_atom_site_fract_z
Si Si1 0.630782 0.145483 0.762228
Si Si2 0.582246 0.308121 0.453923
Si Si3 0.000000 0.551398 0.750000
Si Si4 0.924601 0.812179 0.605558
Si Si5 0.447652 0.089714 0.240441
Si Si6 0.342391 0.852524 0.744520
Si Si7 0.712514 0.674163 0.309627
Si Si8 0.267908 0.340911 0.179928
O O1 0.590793 0.226430 0.860749
O O2 0.706365 0.147713 0.474759
O O3 0.684404 0.119872 0.779694
O O4 0.538626 0.098179 0.940134
O O5 0.500000 0.299839 0.750000
O O6 0.527201 0.330094 0.440896
O O7 0.625534 0.229752 0.332208
O O8 0.665484 0.354911 0.338238
O O9 0.059596 0.491757 0.702966
O O10 0.081529 0.600374 0.505338
O O11 0.887630 0.838481 0.543382
O O12 0.848005 0.837862 0.884691
O O13 0.500000 0.128777 0.250000
O O14 0.357400 0.122167 0.364148
O O15 0.242607 0.856733 0.886259
O O16 0.728135 0.759798 0.283686
#
# Coordination Sequence:
#
# PCOD9287138 Si02
#       8
#     8   8   4   8   8   8   8   8
#     4   9  13  26  37  52  81 102 128 169 200 229
#     4   9  13  20  40  64  82 102 124 158 204 246
#     4  10  22  30  40  58  72 104 152 178 196 226
#     4   8  12  21  36  63  82  96 127 161 200 248
#     4  10  22  29  38  55  75 113 144 171 195 231
#     4  11  16  29  41  54  80 105 136 168 202 230
#     4   8  15  21  41  61  76 101 129 162 204 244
#     4   7  13  19  34  61  80  97 126 158 201 248
#
# _framework density 22.821978000000001
#
# number of rings (size 3 to 8) (size 9 to 14) (size 15 to 20)
#    0.400    2.667    2.000    3.600    0.000    0.000 
#    0.000    0.000    0.000    7.200    0.000    0.000 
#    0.000    1.067    0.000    3.200    0.267    5.200 
#
# Total GULP energy -167104.692087 kJ/mol
# GULP energy per Si atom -5570.156403 kJ/mol
# Density = 2.277003 g / cm^3
# Si number density = 22.821978 Si / 1000 Ang^3
#
#
#
# Elastic Constant Matrix: (Units=GPa)
#
#
# Indices 1 2 3 4 5 6 
#
# 1 267.8173 16.4495 46.6286 0.0000 -33.7417 0.0000
# 2 16.4495 12.1374 5.8354 0.0000 -2.2524 0.0000
# 3 46.6286 5.8354 45.3192 0.0000 -22.8291 0.0000
# 4 0.0000 0.0000 0.0000 -41.9304 0.0000 22.2942
# 5 -33.7417 -2.2524 -22.8291 0.0000 47.6953 0.0000
# 6 0.0000 0.0000 0.0000 22.2942 0.0000 19.2123
#
#
#
# Elastic Compliance Matrix: (Units=1/GPa)
#
#
# Indices 1 2 3 4 5 6 
#
# 1 0.004831 -0.004520 -0.003656 0.000000 0.001454 0.000000
# 2 -0.004520 0.092156 -0.008742 0.000000 -0.003030 0.000000
# 3 -0.003656 -0.008742 0.033526 0.000000 0.013047 0.000000
# 4 0.000000 0.000000 0.000000 -0.014749 0.000000 0.017115
# 5 0.001454 -0.003030 0.013047 0.000000 0.028097 0.000000
# 6 0.000000 0.000000 0.000000 0.017115 0.000000 0.032190
#
#
# Mechanical properties :
#
#
# Convention : Reuss Voigt Hill
#
# Bulk Modulus (GPa) = 10.34373 51.45566 30.89970
# Shear Modulus (GPa) = 20.65155 22.08615 21.36885
#
# Velocity S-wave (km/s) = 3.01142 3.11426 3.06327
# Velocity P-wave (km/s) = 4.07844 5.96045 5.10689
#
# Compressibility (1/GPa) = 0.09667690
#
# Stress axis : x y z
#
# Youngs Moduli (GPa) = 206.98254 10.85117 29.82784
#
# Poissons Ratio (x) = 0.04905 0.10906
# Poissons Ratio (y) = 0.93556 0.26075
# Poissons Ratio (z) = 0.75679 0.09486
#
# Static dielectric constant tensor:
#      x y z
#    x 2.031890 0.000000 0.123450 
#    y 0.000000 1.761720 0.000000 
#    z 0.123450 0.000000 2.048630 
# 
# From -- ./inp_files/124369.got.cif
#   From: 2010.05.17/outbox.cif.g08.bks.cpg/sg15_63_cif.got.tgz:124369.got - 2010.06.03 18:47:42.
