data_PCOD9287381
_publ_section_title
;
Structure prediction by ZEFSAII (Michael W. Deem and Ramdas Pophale) SiO2 
 PCOD9287381
Probable space group: C 2/C
;
_chemical_formula_sum "Si O2"
_cell_formula_units_Z 36
_cell_length_a 9.811778
_cell_length_b 25.982076
_cell_length_c 9.991436
_cell_angle_alpha 90.000000
_cell_angle_beta 33.592481
_cell_angle_gamma 90.000000
_cell_volume 1409.276475
_symmetry_space_group_name_H-M "C 2/C"
_symmetry_group_IT_number 15
_symmetry_cell_setting 'monoclinic'
loop_
_space_group_symop_operation_xyz
x,y,z
-x,y,1/2-z
-x,-y,-z
x,-y,1/2+z
1/2+x,1/2+y,z
1/2-x,1/2+y,1/2-z
1/2-x,1/2-y,-z
1/2+x,1/2-y,1/2+z
loop_
_atom_site_type_symbol
_atom_site_label
_atom_site_fract_x
_atom_site_fract_y
_atom_site_fract_z
Si Si1 0.000000 0.285457 0.750000
Si Si2 0.622431 0.578819 0.291979
Si Si3 0.758970 0.269280 0.291307
Si Si4 0.697257 0.468578 0.205393
Si Si5 0.079601 0.362728 0.484615
O O1 0.148707 0.255916 0.742603
O O2 0.163190 0.326340 0.536502
O O3 0.500000 0.590625 0.250000
O O4 0.793984 0.527208 0.136011
O O5 0.426829 0.555216 0.557866
O O6 0.787597 0.627509 0.200334
O O7 0.535804 0.254593 0.573293
O O8 0.807000 0.330637 0.232987
O O9 0.500000 0.476101 0.250000
O O10 0.842265 0.419121 0.038924
#
# Coordination Sequence:
#
# PCOD9287381 Si02
#       5
#     4   8   8   8   8
#     4  10  22  38  60 102 134 162 216 290 338 388
#     4  10  23  42  57  91 132 171 218 269 329 405
#     4  10  22  36  58  95 137 165 212 283 343 397
#     4  10  22  37  65  93 124 164 223 279 327 393
#     4  11  21  34  63  86 127 170 211 263 344 394
#
# _framework density 25.545021999999999
#
# number of rings (size 3 to 8) (size 9 to 14) (size 15 to 20)
#    0.000    1.778    0.000    4.667   10.889    0.889 
#    0.000    6.667    0.000    5.333    0.000    0.000 
#    0.000    0.000    0.000    0.000    0.000    0.000 
#
# Total GULP energy -100208.241084 kJ/mol
# GULP energy per Si atom -5567.124505 kJ/mol
# Density = 2.548688 g / cm^3
# Si number density = 25.545022 Si / 1000 Ang^3
#
#
#
# Elastic Constant Matrix: (Units=GPa)
#
#
# Indices 1 2 3 4 5 6 
#
# 1 85.1345 13.8309 15.5255 0.0000 19.8358 0.0000
# 2 13.8309 132.7968 13.8700 0.0000 -14.4292 0.0000
# 3 15.5255 13.8700 66.4903 0.0000 -2.1326 0.0000
# 4 0.0000 0.0000 0.0000 6.1214 0.0000 -37.3648
# 5 19.8358 -14.4292 -2.1326 0.0000 27.8504 0.0000
# 6 0.0000 0.0000 0.0000 -37.3648 0.0000 -1.9985
#
#
#
# Elastic Compliance Matrix: (Units=1/GPa)
#
#
# Indices 1 2 3 4 5 6 
#
# 1 0.015849 -0.002687 -0.003556 0.000000 -0.012952 0.000000
# 2 -0.002687 0.008594 -0.000964 0.000000 0.006292 0.000000
# 3 -0.003556 -0.000964 0.016176 0.000000 0.003272 0.000000
# 4 0.000000 0.000000 0.000000 0.001419 0.000000 -0.026531
# 5 -0.012952 0.006292 0.003272 0.000000 0.048642 0.000000
# 6 0.000000 0.000000 0.000000 -0.026531 0.000000 -0.004346
#
#
# Mechanical properties :
#
#
# Convention : Reuss Voigt Hill
#
# Bulk Modulus (GPa) = 38.15729 41.20827 39.68278
# Shear Modulus (GPa) = 45.67001 22.47435 34.07218
#
# Velocity S-wave (km/s) = 4.23285 2.96935 3.65610
# Velocity P-wave (km/s) = 6.23371 5.28419 5.77849
#
# Compressibility (1/GPa) = 0.02620731
#
# Stress axis : x y z
#
# Youngs Moduli (GPa) = 63.09638 116.35370 61.81993
#
# Poissons Ratio (x) = 0.31260 0.21981
# Poissons Ratio (y) = 0.16952 0.05957
# Poissons Ratio (z) = 0.22435 0.11213
#
# Static dielectric constant tensor:
#      x y z
#    x 1.924840 0.000000 0.081270 
#    y 0.000000 2.036490 0.000000 
#    z 0.081270 0.000000 2.366550 
# 
# From -- ./inp_files/80426.got.cif
#   From: 2010.05.17/outbox.cif.g08.bks.cpg/sg15_41_cif.got.tgz:80426.got - 2010.06.03 18:47:42.
