data_PCOD9287155
_publ_section_title
;
Structure prediction by ZEFSAII (Michael W. Deem and Ramdas Pophale) SiO2 
 PCOD9287155
Probable space group: C 2/C
;
_chemical_formula_sum "Si O2"
_cell_formula_units_Z 52
_cell_length_a 15.074912
_cell_length_b 14.154549
_cell_length_c 15.779409
_cell_angle_alpha 90.000000
_cell_angle_beta 130.761657
_cell_angle_gamma 90.000000
_cell_volume 2550.264923
_symmetry_space_group_name_H-M "C 2/C"
_symmetry_group_IT_number 15
_symmetry_cell_setting 'monoclinic'
loop_
_space_group_symop_operation_xyz
x,y,z
-x,y,1/2-z
-x,-y,-z
x,-y,1/2+z
1/2+x,1/2+y,z
1/2-x,1/2+y,1/2-z
1/2-x,1/2-y,-z
1/2+x,1/2-y,1/2+z
loop_
_atom_site_type_symbol
_atom_site_label
_atom_site_fract_x
_atom_site_fract_y
_atom_site_fract_z
Si Si1 0.000000 0.300564 0.750000
Si Si2 0.373985 0.553194 0.527143
Si Si3 0.639450 0.414949 0.141904
Si Si4 0.190924 0.303997 0.652078
Si Si5 0.262462 0.514364 0.127315
Si Si6 0.249535 0.723164 0.375010
Si Si7 0.439404 0.879540 0.533969
O O1 0.117366 0.241661 0.807859
O O2 0.026363 0.364904 0.846926
O O3 0.352667 0.477617 0.438412
O O4 0.504622 0.590665 0.589641
O O5 0.348892 0.513897 0.604819
O O6 0.284245 0.639438 0.459082
O O7 0.753527 0.680230 0.220397
O O8 0.704878 0.465148 0.262090
O O9 0.263483 0.371991 0.636117
O O10 0.182859 0.190396 0.644475
O O11 0.060531 0.348182 0.566181
O O12 0.131112 0.476082 0.024027
O O13 0.344101 0.802964 0.445439
#
# Coordination Sequence:
#
# PCOD9287155 Si02
#       7
#     4   8   8   8   8   8   8
#     4  10  22  32  58  98 136 154 218 280 334 392
#     4  11  24  42  67  96 130 175 228 278 333 402
#     4  11  24  44  67  93 134 176 226 282 337 401
#     4  11  24  41  65  94 133 177 217 274 341 403
#     4  12  24  41  67 100 131 175 222 279 341 409
#     4  11  20  38  61  93 129 170 216 275 332 397
#     4  11  22  37  63  94 130 173 211 273 337 400
#
# _framework density 20.390038000000001
#
# number of rings (size 3 to 8) (size 9 to 14) (size 15 to 20)
#    0.000    0.923    6.154    1.385    0.000    0.615 
#    0.000    0.000    0.000    0.000    0.000    0.000 
#    0.000    0.000    0.000    0.000    0.000    0.000 
#
# Total GULP energy -145113.145653 kJ/mol
# GULP energy per Si atom -5581.274833 kJ/mol
# Density = 2.034363 g / cm^3
# Si number density = 20.390038 Si / 1000 Ang^3
#
#
#
# Elastic Constant Matrix: (Units=GPa)
#
#
# Indices 1 2 3 4 5 6 
#
# 1 47.7613 40.6259 26.9754 0.0000 -9.1521 0.0000
# 2 40.6259 118.8331 41.3394 0.0000 -13.2927 0.0000
# 3 26.9754 41.3394 101.7845 0.0000 6.4901 0.0000
# 4 0.0000 0.0000 0.0000 15.2116 0.0000 -5.6954
# 5 -9.1521 -13.2927 6.4901 0.0000 20.6549 0.0000
# 6 0.0000 0.0000 0.0000 -5.6954 0.0000 24.3932
#
#
#
# Elastic Compliance Matrix: (Units=1/GPa)
#
#
# Indices 1 2 3 4 5 6 
#
# 1 0.033566 -0.007918 -0.006432 0.000000 0.011799 0.000000
# 2 -0.007918 0.013040 -0.003581 0.000000 0.006009 0.000000
# 3 -0.006432 -0.003581 0.013585 0.000000 -0.009423 0.000000
# 4 0.000000 0.000000 0.000000 0.072037 0.000000 0.016819
# 5 0.011799 0.006009 -0.009423 0.000000 0.060471 0.000000
# 6 0.000000 0.000000 0.000000 0.016819 0.000000 0.044922
#
#
# Mechanical properties :
#
#
# Convention : Reuss Voigt Hill
#
# Bulk Modulus (GPa) = 41.10391 54.02892 47.56642
# Shear Modulus (GPa) = 17.75618 22.68114 20.21866
#
# Velocity S-wave (km/s) = 2.95418 3.33883 3.15238
# Velocity P-wave (km/s) = 5.64259 6.43576 6.05218
#
# Compressibility (1/GPa) = 0.02432858
#
# Stress axis : x y z
#
# Youngs Moduli (GPa) = 29.79179 76.68750 73.61291
#
# Poissons Ratio (x) = 0.60721 0.47350
# Poissons Ratio (y) = 0.23589 0.26359
# Poissons Ratio (z) = 0.19163 0.27460
#
# Static dielectric constant tensor:
#      x y z
#    x 1.764560 0.000000 -0.077500 
#    y 0.000000 1.742940 0.000000 
#    z -0.077500 0.000000 2.096250 
# 
# From -- ./inp_files/154952.got.cif
#   From: 2010.05.17/outbox.cif.g08.bks.cpg/sg15_78_cif.got.tgz:154952.got - 2010.06.03 18:47:42.
