data_PCOD9287799
_publ_section_title
;
Structure prediction by ZEFSAII (Michael W. Deem and Ramdas Pophale) SiO2 
 PCOD9287799
Probable space group: C 2/C
;
_chemical_formula_sum "Si O2"
_cell_formula_units_Z 48
_cell_length_a 15.909056
_cell_length_b 12.318981
_cell_length_c 27.103643
_cell_angle_alpha 90.000000
_cell_angle_beta 153.190747
_cell_angle_gamma 90.000000
_cell_volume 2395.765385
_symmetry_space_group_name_H-M "C 2/C"
_symmetry_group_IT_number 15
_symmetry_cell_setting 'monoclinic'
loop_
_space_group_symop_operation_xyz
x,y,z
-x,y,1/2-z
-x,-y,-z
x,-y,1/2+z
1/2+x,1/2+y,z
1/2-x,1/2+y,1/2-z
1/2-x,1/2-y,-z
1/2+x,1/2-y,1/2+z
loop_
_atom_site_type_symbol
_atom_site_label
_atom_site_fract_x
_atom_site_fract_y
_atom_site_fract_z
Si Si1 0.472068 0.542425 0.839333
Si Si2 0.367115 0.075035 0.085959
Si Si3 0.416479 0.744612 0.759387
Si Si4 0.316853 0.558969 0.926779
Si Si5 0.054148 0.816554 0.626612
Si Si6 0.344790 0.888875 0.259722
O O1 0.404161 0.614515 0.758228
O O2 0.421834 0.417987 0.823362
O O3 0.362246 0.603570 0.825918
O O4 0.693236 0.556209 0.959305
O O5 0.438223 0.197401 0.127240
O O6 0.293731 0.031526 0.100408
O O7 0.539717 0.995953 0.165161
O O8 0.500000 0.770054 0.750000
O O9 0.221514 0.796532 0.674930
O O10 0.192405 0.609068 0.818089
O O11 0.500000 0.500000 0.000000
O O12 0.382602 0.647508 0.001844
O O13 0.051215 0.711064 0.659750
#
# Coordination Sequence:
#
# PCOD9287799 Si02
#       6
#     8   8   8   8   8   8
#     4  10  22  38  56  86 122 155 196 260 301 357
#     4  11  20  36  63  86 114 155 211 251 297 357
#     4  11  21  36  61  89 116 156 207 252 302 358
#     4  11  19  36  61  89 117 157 208 254 295 359
#     4  10  22  39  59  86 130 154 198 255 307 362
#     4  11  21  37  59  90 119 159 199 253 310 356
#
# _framework density 20.035350999999999
#
# number of rings (size 3 to 8) (size 9 to 14) (size 15 to 20)
#    0.000    1.333    5.000    3.000    0.000    2.667 
#    0.000    3.333    0.000    4.000    0.000    0.000 
#    0.000    0.000    0.000    0.000    0.000    0.000 
#
# Total GULP energy -133693.120616 kJ/mol
# GULP energy per Si atom -5570.546692 kJ/mol
# Density = 1.998975 g / cm^3
# Si number density = 20.035351 Si / 1000 Ang^3
#
#
#
# Elastic Constant Matrix: (Units=GPa)
#
#
# Indices 1 2 3 4 5 6 
#
# 1 36.9812 10.0243 5.7577 -0.0001 12.0487 0.0000
# 2 10.0243 101.7437 22.6803 0.0000 -12.9627 0.0000
# 3 5.7577 22.6803 63.7650 0.0003 4.4576 0.0000
# 4 -0.0001 0.0000 0.0003 31.2715 0.0000 2.1363
# 5 12.0487 -12.9627 4.4576 0.0000 22.5918 0.0000
# 6 0.0000 0.0000 0.0000 2.1363 0.0000 18.1051
#
#
#
# Elastic Compliance Matrix: (Units=1/GPa)
#
#
# Indices 1 2 3 4 5 6 
#
# 1 0.036377 -0.006733 0.000747 0.000000 -0.023412 0.000000
# 2 -0.006733 0.013126 -0.004906 0.000000 0.012090 0.000000
# 3 0.000747 -0.004906 0.017831 0.000000 -0.006731 0.000000
# 4 0.000000 0.000000 0.000000 0.032238 0.000000 -0.003804
# 5 -0.023412 0.012090 -0.006731 0.000000 0.065015 0.000000
# 6 0.000000 0.000000 0.000000 -0.003804 0.000000 0.055682
#
#
# Mechanical properties :
#
#
# Convention : Reuss Voigt Hill
#
# Bulk Modulus (GPa) = 21.95426 31.04607 26.50017
# Shear Modulus (GPa) = 19.43731 25.32886 22.38308
#
# Velocity S-wave (km/s) = 3.11810 3.55943 3.34605
# Velocity P-wave (km/s) = 4.89336 5.69403 5.30881
#
# Compressibility (1/GPa) = 0.04554925
#
# Stress axis : x y z
#
# Youngs Moduli (GPa) = 27.48959 76.18449 56.08308
#
# Poissons Ratio (x) = 0.51298 -0.04189
# Poissons Ratio (y) = 0.18510 0.27514
# Poissons Ratio (z) = -0.02053 0.37376
#
# Static dielectric constant tensor:
#      x y z
#    x 1.756940 0.000000 0.006850 
#    y 0.000000 1.724450 0.000000 
#    z 0.006850 0.000000 1.736190 
# 
# From -- ./inp_files/152160.got.cif
#   From: 2010.05.17/outbox.cif.g08.bks.cpg/sg15_77_cif.got.tgz:152160.got - 2010.06.03 18:47:42.
