data_PCOD9287813
_publ_section_title
;
Structure prediction by ZEFSAII (Michael W. Deem and Ramdas Pophale) SiO2 
 PCOD9287813
Probable space group: C 2/C
;
_chemical_formula_sum "Si O2"
_cell_formula_units_Z 40
_cell_length_a 15.859439
_cell_length_b 5.459705
_cell_length_c 20.519032
_cell_angle_alpha 90.000000
_cell_angle_beta 118.917019
_cell_angle_gamma 90.000000
_cell_volume 1555.181863
_symmetry_space_group_name_H-M "C 2/C"
_symmetry_group_IT_number 15
_symmetry_cell_setting 'monoclinic'
loop_
_space_group_symop_operation_xyz
x,y,z
-x,y,1/2-z
-x,-y,-z
x,-y,1/2+z
1/2+x,1/2+y,z
1/2-x,1/2+y,1/2-z
1/2-x,1/2-y,-z
1/2+x,1/2-y,1/2+z
loop_
_atom_site_type_symbol
_atom_site_label
_atom_site_fract_x
_atom_site_fract_y
_atom_site_fract_z
Si Si1 0.019887 0.990098 0.895559
Si Si2 0.232469 0.532932 0.823683
Si Si3 0.152593 0.038496 0.765801
Si Si4 0.098792 0.755286 0.549576
Si Si5 0.762177 0.997073 0.545518
O O1 0.946030 0.048235 0.810678
O O2 0.123429 0.981453 0.902122
O O3 0.037475 0.177625 0.962663
O O4 0.974151 0.753414 0.916321
O O5 0.168044 0.291815 0.809434
O O6 0.267270 0.539631 0.761934
O O7 0.327211 0.476183 0.902247
O O8 0.174574 0.782776 0.809982
O O9 0.173208 0.534069 0.563439
O O10 0.750000 0.750000 0.500000
O O11 0.750000 0.250000 0.500000
#
# Coordination Sequence:
#
# PCOD9287813 Si02
#       5
#     8   8   8   8   8
#     4   9  19  37  62  89 118 160 210 257 311 378
#     4   9  18  33  54  82 116 153 195 247 307 368
#     4   9  18  33  54  82 115 151 196 250 305 365
#     4   9  19  37  62  89 120 162 209 256 313 380
#     4  10  22  38  57  86 122 154 194 254 311 363
#
# _framework density 25.720464
#
# number of rings (size 3 to 8) (size 9 to 14) (size 15 to 20)
#    0.000    2.800    0.000    0.000    0.000    7.200 
#    0.000   13.000    0.000    2.400    0.000    0.000 
#    0.000    0.000    0.000    0.000    0.000    0.000 
#
# Total GULP energy -111612.033974 kJ/mol
# GULP energy per Si atom -5580.601699 kJ/mol
# Density = 2.566192 g / cm^3
# Si number density = 25.720464 Si / 1000 Ang^3
#
#
#
# Elastic Constant Matrix: (Units=GPa)
#
#
# Indices 1 2 3 4 5 6 
#
# 1 170.1303 73.4437 44.4362 0.0000 10.5370 0.0000
# 2 73.4437 192.5416 81.1462 -0.0001 27.3791 0.0001
# 3 44.4362 81.1462 126.0588 0.0000 36.3153 0.0000
# 4 0.0000 -0.0001 0.0000 28.3956 0.0000 -7.1791
# 5 10.5370 27.3791 36.3153 0.0000 41.7062 0.0000
# 6 0.0000 0.0001 0.0000 -7.1791 0.0000 41.9376
#
#
#
# Elastic Compliance Matrix: (Units=1/GPa)
#
#
# Indices 1 2 3 4 5 6 
#
# 1 0.007156 -0.002310 -0.001270 0.000000 0.000815 0.000000
# 2 -0.002310 0.007899 -0.003931 0.000000 -0.001179 0.000000
# 3 -0.001270 -0.003931 0.013448 0.000000 -0.008809 0.000000
# 4 0.000000 0.000000 0.000000 0.036810 0.000000 0.006301
# 5 0.000815 -0.001179 -0.008809 0.000000 0.032216 0.000000
# 6 0.000000 0.000000 0.000000 0.006301 0.000000 0.024924
#
#
# Mechanical properties :
#
#
# Convention : Reuss Voigt Hill
#
# Bulk Modulus (GPa) = 74.17420 98.53141 86.35280
# Shear Modulus (GPa) = 35.21872 41.72152 38.47012
#
# Velocity S-wave (km/s) = 3.70440 4.03192 3.87162
# Velocity P-wave (km/s) = 6.87008 7.75028 7.32342
#
# Compressibility (1/GPa) = 0.01348178
#
# Stress axis : x y z
#
# Youngs Moduli (GPa) = 139.73322 126.59452 74.35775
#
# Poissons Ratio (x) = 0.29247 0.09445
# Poissons Ratio (y) = 0.32283 0.29228
# Poissons Ratio (z) = 0.17748 0.49761
#
# Static dielectric constant tensor:
#      x y z
#    x 2.105430 0.000000 -0.054760 
#    y 0.000000 2.572530 0.000000 
#    z -0.054760 0.000000 2.119570 
# 
# From -- ./inp_files/297565.got.cif
#   From: 2010.05.17/outbox.cif.g08.bks.cpg/sg15_149_cif.got.tgz:297565.got - 2010.06.03 18:47:42.
