data_PCOD9287166
_publ_section_title
;
Structure prediction by ZEFSAII (Michael W. Deem and Ramdas Pophale) SiO2 
 PCOD9287166
Probable space group: C 2/C
;
_chemical_formula_sum "Si O2"
_cell_formula_units_Z 56
_cell_length_a 18.363139
_cell_length_b 18.567714
_cell_length_c 9.468156
_cell_angle_alpha 90.000000
_cell_angle_beta 63.525493
_cell_angle_gamma 90.000000
_cell_volume 2889.736457
_symmetry_space_group_name_H-M "C 2/C"
_symmetry_group_IT_number 15
_symmetry_cell_setting 'monoclinic'
loop_
_space_group_symop_operation_xyz
x,y,z
-x,y,1/2-z
-x,-y,-z
x,-y,1/2+z
1/2+x,1/2+y,z
1/2-x,1/2+y,1/2-z
1/2-x,1/2-y,-z
1/2+x,1/2-y,1/2+z
loop_
_atom_site_type_symbol
_atom_site_label
_atom_site_fract_x
_atom_site_fract_y
_atom_site_fract_z
Si Si1 0.000000 0.301476 0.250000
Si Si2 0.697881 0.348250 0.456226
Si Si3 0.500000 0.326875 0.250000
Si Si4 0.166208 0.909021 0.187762
Si Si5 0.416526 0.556499 0.257296
Si Si6 0.843438 0.680136 0.038460
Si Si7 0.579786 0.302542 0.905801
Si Si8 0.251405 0.317013 0.608874
O O1 0.049297 0.249269 0.311715
O O2 0.932091 0.341134 0.403160
O O3 0.709351 0.377761 0.288949
O O4 0.626518 0.394663 0.587954
O O5 0.775224 0.352778 0.492787
O O6 0.667770 0.266368 0.469091
O O7 0.578642 0.370785 0.236862
O O8 0.466167 0.283093 0.411223
O O9 0.144138 0.992340 0.227336
O O10 0.219834 0.886174 0.006183
O O11 0.500000 0.527087 0.250000
O O12 0.436341 0.613211 0.116014
O O13 0.823662 0.667955 0.221502
O O14 0.675676 0.297312 0.846557
O O15 0.250000 0.250000 0.500000
#
# Coordination Sequence:
#
# PCOD9287166 Si02
#       8
#     4   8   4   8   8   8   8   8
#     4  12  22  37  66  90 112 165 214 262 308 358
#     4  11  22  37  60  84 122 166 210 247 296 370
#     4  10  22  33  46  82 124 159 196 232 282 344
#     4  11  24  35  56  85 122 172 200 243 299 361
#     4  12  22  36  59  91 134 169 206 239 293 383
#     4  11  21  41  60  86 115 159 218 265 305 360
#     4  11  22  37  56  87 125 164 204 244 301 364
#     4  11  23  40  58  84 126 165 207 259 311 362
#
# _framework density 19.378928999999999
#
# number of rings (size 3 to 8) (size 9 to 14) (size 15 to 20)
#    0.000    0.857    5.714    2.571    6.000    1.143 
#    0.000    0.000    0.000    0.000    0.000    4.000 
#    0.000    0.000    0.000    0.000    0.000    0.000 
#
# Total GULP energy -156381.049316 kJ/mol
# GULP energy per Si atom -5585.037476 kJ/mol
# Density = 1.933482 g / cm^3
# Si number density = 19.378929 Si / 1000 Ang^3
#
#
#
# Elastic Constant Matrix: (Units=GPa)
#
#
# Indices 1 2 3 4 5 6 
#
# 1 60.1632 16.8733 43.3328 0.0000 0.9378 0.0000
# 2 16.8733 32.8246 12.5786 0.0000 0.8606 0.0000
# 3 43.3328 12.5786 150.6013 0.0000 -17.3465 0.0000
# 4 0.0000 0.0000 0.0000 11.8063 0.0000 -2.6990
# 5 0.9378 0.8606 -17.3465 0.0000 39.5777 0.0000
# 6 0.0000 0.0000 0.0000 -2.6990 0.0000 15.6069
#
#
#
# Elastic Compliance Matrix: (Units=1/GPa)
#
#
# Indices 1 2 3 4 5 6 
#
# 1 0.024092 -0.009817 -0.006480 0.000000 -0.003198 0.000000
# 2 -0.009817 0.035614 -0.000224 0.000000 -0.000640 0.000000
# 3 -0.006480 -0.000224 0.008996 0.000000 0.004101 0.000000
# 4 0.000000 0.000000 0.000000 0.088187 0.000000 0.015251
# 5 -0.003198 -0.000640 0.004101 0.000000 0.027154 0.000000
# 6 0.000000 0.000000 0.000000 0.015251 0.000000 0.066711
#
#
# Mechanical properties :
#
#
# Convention : Reuss Voigt Hill
#
# Bulk Modulus (GPa) = 28.04311 43.23982 35.64146
# Shear Modulus (GPa) = 16.90999 24.78513 20.84756
#
# Velocity S-wave (km/s) = 2.95718 3.58015 3.28347
# Velocity P-wave (km/s) = 5.11490 6.28102 5.72772
#
# Compressibility (1/GPa) = 0.03565938
#
# Stress axis : x y z
#
# Youngs Moduli (GPa) = 41.50723 28.07895 111.16390
#
# Poissons Ratio (x) = 0.27566 0.72039
# Poissons Ratio (y) = 0.40749 0.02485
# Poissons Ratio (z) = 0.26899 0.00628
#
# Static dielectric constant tensor:
#      x y z
#    x 1.701190 0.000000 -0.015010 
#    y 0.000000 1.673710 0.000000 
#    z -0.015010 0.000000 1.778420 
# 
# From -- ./inp_files/49067.got.cif
#   From: 2010.05.17/outbox.cif.g08.bks.cpg/sg15_25_cif.got.tgz:49067.got - 2010.06.03 18:47:42.
