data_PCOD9287190
_publ_section_title
;
Structure prediction by ZEFSAII (Michael W. Deem and Ramdas Pophale) SiO2 
 PCOD9287190
Probable space group: C 2/C
;
_chemical_formula_sum "Si O2"
_cell_formula_units_Z 44
_cell_length_a 9.135590
_cell_length_b 13.767631
_cell_length_c 13.433909
_cell_angle_alpha 90.000000
_cell_angle_beta 89.413933
_cell_angle_gamma 90.000000
_cell_volume 1689.567317
_symmetry_space_group_name_H-M "C 2/C"
_symmetry_group_IT_number 15
_symmetry_cell_setting 'monoclinic'
loop_
_space_group_symop_operation_xyz
x,y,z
-x,y,1/2-z
-x,-y,-z
x,-y,1/2+z
1/2+x,1/2+y,z
1/2-x,1/2+y,1/2-z
1/2-x,1/2-y,-z
1/2+x,1/2-y,1/2+z
loop_
_atom_site_type_symbol
_atom_site_label
_atom_site_fract_x
_atom_site_fract_y
_atom_site_fract_z
Si Si1 0.486212 0.757960 0.104581
Si Si2 0.702709 0.902905 0.117686
Si Si3 0.807377 0.434699 0.018237
Si Si4 0.469436 0.359239 0.398539
Si Si5 0.706398 0.184314 0.191686
Si Si6 0.000000 0.539280 0.250000
O O1 0.649684 0.792536 0.125091
O O2 0.378500 0.707165 0.183732
O O3 0.404160 0.861367 0.082472
O O4 0.490999 0.697061 0.003199
O O5 0.876243 0.904455 0.133144
O O6 0.659981 0.955161 0.013009
O O7 0.608651 0.964017 0.196008
O O8 0.808079 0.378570 0.911735
O O9 0.651522 0.438716 0.073239
O O10 0.386467 0.281988 0.328433
O O11 0.626754 0.119932 0.276666
#
# Coordination Sequence:
#
# PCOD9287190 Si02
#       6
#     8   8   8   8   8   4
#     4   9  17  31  52  74  93 120 155 196 240 279
#     4  11  19  29  49  77 100 117 153 204 235 266
#     4   8  16  31  50  73  97 121 149 188 241 286
#     4   9  17  31  52  74  93 120 155 196 240 279
#     4   8  17  34  50  62  92 134 162 177 222 297
#     4  10  22  34  46  64  96 138 162 182 228 286
#
# _framework density 26.042168
#
# number of rings (size 3 to 8) (size 9 to 14) (size 15 to 20)
#    0.000    2.909    0.000    3.818    0.000    1.455 
#    0.000    0.000    0.000    4.364    0.000    0.000 
#    0.000    0.000    0.000    0.000    0.000    0.000 
#
# Total GULP energy -122609.295285 kJ/mol
# GULP energy per Si atom -5573.149786 kJ/mol
# Density = 2.598290 g / cm^3
# Si number density = 26.042168 Si / 1000 Ang^3
#
#
#
# Elastic Constant Matrix: (Units=GPa)
#
#
# Indices 1 2 3 4 5 6 
#
# 1 82.3587 25.8784 42.7762 0.0000 -53.7403 0.0000
# 2 25.8784 70.2326 37.7176 0.0000 -19.4534 0.0000
# 3 42.7762 37.7176 98.9159 0.0000 -41.6078 0.0000
# 4 0.0000 0.0000 0.0000 47.7642 0.0000 -27.8322
# 5 -53.7403 -19.4534 -41.6078 0.0000 57.4991 0.0000
# 6 0.0000 0.0000 0.0000 -27.8322 0.0000 32.9033
#
#
#
# Elastic Compliance Matrix: (Units=1/GPa)
#
#
# Indices 1 2 3 4 5 6 
#
# 1 0.032069 -0.003673 -0.000550 0.000000 0.028331 0.000000
# 2 -0.003673 0.018430 -0.006124 0.000000 -0.001630 0.000000
# 3 -0.000550 -0.006124 0.016669 0.000000 0.009476 0.000000
# 4 0.000000 0.000000 0.000000 0.041286 0.000000 0.034923
# 5 0.028331 -0.001630 0.009476 0.000000 0.050176 0.000000
# 6 0.000000 0.000000 0.000000 0.034923 0.000000 0.059933
#
#
# Mechanical properties :
#
#
# Convention : Reuss Voigt Hill
#
# Bulk Modulus (GPa) = 21.51883 51.58350 36.55116
# Shear Modulus (GPa) = 19.62729 37.30900 28.46815
#
# Velocity S-wave (km/s) = 2.74829 3.78913 3.30988
# Velocity P-wave (km/s) = 4.28390 6.24452 5.35471
#
# Compressibility (1/GPa) = 0.04647093
#
# Stress axis : x y z
#
# Youngs Moduli (GPa) = 31.18313 54.26080 59.99305
#
# Poissons Ratio (x) = 0.19933 0.03300
# Poissons Ratio (y) = 0.11455 0.36742
# Poissons Ratio (z) = 0.01715 0.33231
#
# Static dielectric constant tensor:
#      x y z
#    x 2.117780 0.000000 0.060200 
#    y 0.000000 2.001450 0.000000 
#    z 0.060200 0.000000 2.132500 
# 
# From -- ./inp_files/188809.got.cif
#   From: 2010.05.17/outbox.cif.g08.bks.cpg/sg15_95_cif.got.tgz:188809.got - 2010.06.03 18:47:42.
