data_PCOD9287749
_publ_section_title
;
Structure prediction by ZEFSAII (Michael W. Deem and Ramdas Pophale) SiO2 
 PCOD9287749
Probable space group: C 2/C
;
_chemical_formula_sum "Si O2"
_cell_formula_units_Z 44
_cell_length_a 18.666833
_cell_length_b 8.138993
_cell_length_c 13.403454
_cell_angle_alpha 90.000000
_cell_angle_beta 132.798618
_cell_angle_gamma 90.000000
_cell_volume 1494.183518
_symmetry_space_group_name_H-M "C 2/C"
_symmetry_group_IT_number 15
_symmetry_cell_setting 'monoclinic'
loop_
_space_group_symop_operation_xyz
x,y,z
-x,y,1/2-z
-x,-y,-z
x,-y,1/2+z
1/2+x,1/2+y,z
1/2-x,1/2+y,1/2-z
1/2-x,1/2-y,-z
1/2+x,1/2-y,1/2+z
loop_
_atom_site_type_symbol
_atom_site_label
_atom_site_fract_x
_atom_site_fract_y
_atom_site_fract_z
Si Si1 0.809854 0.964989 0.442443
Si Si2 0.500000 0.778845 0.750000
Si Si3 0.551626 0.232960 0.955325
Si Si4 0.105147 0.024116 0.701841
Si Si5 0.311755 0.153467 0.969824
Si Si6 0.886229 0.527856 0.838305
O O1 0.868990 0.965491 0.392265
O O2 0.796821 0.150304 0.468585
O O3 0.700958 0.922424 0.314734
O O4 0.869456 0.812961 0.545201
O O5 0.534284 0.654793 0.692462
O O6 0.399501 0.873893 0.630931
O O7 0.461854 0.362210 0.861925
O O8 0.486976 0.069068 0.881346
O O9 0.611501 0.154760 0.109727
O O10 0.212816 0.046071 0.855709
O O11 0.365177 0.140125 0.914045
#
# Coordination Sequence:
#
# PCOD9287749 Si02
#       6
#     8   4   8   8   8   8
#     4  11  21  40  69 104 133 172 239 295 344 399
#     4  12  24  44  66 100 148 190 228 270 346 432
#     4  11  21  39  64 101 140 174 224 287 359 394
#     4  11  23  40  69 100 137 179 232 285 343 409
#     4  11  23  41  70 101 135 184 234 288 341 414
#     4  10  22  37  67 105 135 173 227 299 341 406
#
# _framework density 29.447521999999999
#
# number of rings (size 3 to 8) (size 9 to 14) (size 15 to 20)
#    0.000    1.091    3.636    4.364    2.545    1.455 
#    0.000    0.909    0.000    8.727    0.000    0.000 
#    0.000    0.000    0.000    0.000    0.000    0.000 
#
# Total GULP energy -122611.965270 kJ/mol
# GULP energy per Si atom -5573.271149 kJ/mol
# Density = 2.938050 g / cm^3
# Si number density = 29.447522 Si / 1000 Ang^3
#
#
#
# Elastic Constant Matrix: (Units=GPa)
#
#
# Indices 1 2 3 4 5 6 
#
# 1 81.0325 13.9066 50.8648 0.0000 26.6875 0.0000
# 2 13.9066 93.9356 59.9093 0.0000 24.4390 0.0000
# 3 50.8648 59.9093 134.5482 0.0000 67.7233 0.0000
# 4 0.0000 0.0000 0.0000 53.8393 0.0000 16.5318
# 5 26.6875 24.4390 67.7233 0.0000 63.0240 0.0000
# 6 0.0000 0.0000 0.0000 16.5318 0.0000 64.7134
#
#
#
# Elastic Compliance Matrix: (Units=1/GPa)
#
#
# Indices 1 2 3 4 5 6 
#
# 1 0.016484 0.002126 -0.007078 0.000000 -0.000198 0.000000
# 2 0.002126 0.015396 -0.009149 0.000000 0.002961 0.000000
# 3 -0.007078 -0.009149 0.023713 0.000000 -0.018936 0.000000
# 4 0.000000 0.000000 0.000000 0.020155 0.000000 -0.005149
# 5 -0.000198 0.002961 -0.018936 0.000000 0.035151 0.000000
# 6 0.000000 0.000000 0.000000 -0.005149 0.000000 0.016768
#
#
# Mechanical properties :
#
#
# Convention : Reuss Voigt Hill
#
# Bulk Modulus (GPa) = 36.51032 62.09751 49.30391
# Shear Modulus (GPa) = 30.30283 48.63773 39.47028
#
# Velocity S-wave (km/s) = 3.21135 4.06849 3.66506
# Velocity P-wave (km/s) = 5.11622 6.57293 5.88979
#
# Compressibility (1/GPa) = 0.02738952
#
# Stress axis : x y z
#
# Youngs Moduli (GPa) = 60.66324 64.95389 42.17018
#
# Poissons Ratio (x) = -0.13806 0.29850
# Poissons Ratio (y) = -0.12894 0.38582
# Poissons Ratio (z) = 0.42940 0.59427
#
# Static dielectric constant tensor:
#      x y z
#    x 2.270630 0.000000 -0.099270 
#    y 0.000000 2.849520 0.000000 
#    z -0.099270 0.000000 2.555600 
# 
# From -- ./inp_files/218727.got.cif
#   From: 2010.05.17/outbox.cif.g08.bks.cpg/sg15_110_cif.got.tgz:218727.got - 2010.06.03 18:47:42.
