data_PCOD9287748
_publ_section_title
;
Structure prediction by ZEFSAII (Michael W. Deem and Ramdas Pophale) SiO2 
 PCOD9287748
Probable space group: C 2/C
;
_chemical_formula_sum "Si O2"
_cell_formula_units_Z 48
_cell_length_a 5.072405
_cell_length_b 18.049905
_cell_length_c 26.314362
_cell_angle_alpha 90.000000
_cell_angle_beta 66.582761
_cell_angle_gamma 90.000000
_cell_volume 2210.811426
_symmetry_space_group_name_H-M "C 2/C"
_symmetry_group_IT_number 15
_symmetry_cell_setting 'monoclinic'
loop_
_space_group_symop_operation_xyz
x,y,z
-x,y,1/2-z
-x,-y,-z
x,-y,1/2+z
1/2+x,1/2+y,z
1/2-x,1/2+y,1/2-z
1/2-x,1/2-y,-z
1/2+x,1/2-y,1/2+z
loop_
_atom_site_type_symbol
_atom_site_label
_atom_site_fract_x
_atom_site_fract_y
_atom_site_fract_z
Si Si1 0.866723 0.292848 0.386753
Si Si2 0.318756 0.904022 0.212857
Si Si3 0.003010 0.874619 0.495115
Si Si4 0.649694 0.502812 0.066170
Si Si5 0.506933 0.966594 0.637075
Si Si6 0.144053 0.303306 0.607999
O O1 0.744139 0.327443 0.448172
O O2 0.591718 0.260133 0.378946
O O3 0.030657 0.354223 0.341591
O O4 0.085509 0.226584 0.381611
O O5 0.500000 0.900817 0.250000
O O6 0.000000 0.878359 0.250000
O O7 0.320046 0.987360 0.190796
O O8 0.139886 0.930235 0.526331
O O9 0.771487 0.825905 0.543087
O O10 0.850353 0.926463 0.464776
O O11 0.894089 0.512588 0.089275
O O12 0.337551 0.507645 0.116845
O O13 0.509250 0.878206 0.640925
#
# Coordination Sequence:
#
# PCOD9287748 Si02
#       6
#     8   8   8   8   8   8
#     4  12  25  44  66 101 142 180 220 278 334 410
#     4  12  27  49  74  96 121 174 239 294 341 393
#     4  10  22  39  66 104 145 186 219 260 333 419
#     4  10  22  37  67 102 136 181 219 273 322 397
#     4  11  23  46  67  97 134 172 231 279 333 394
#     4  11  25  41  67 103 144 177 213 264 346 421
#
# _framework density 21.711486000000001
#
# number of rings (size 3 to 8) (size 9 to 14) (size 15 to 20)
#    0.000    1.000    1.667    5.000    2.333   10.000 
#    0.000    5.000    0.000    0.000    0.000    0.000 
#    0.000    0.000    0.000    0.000    0.000    0.000 
#
# Total GULP energy -134427.444731 kJ/mol
# GULP energy per Si atom -5601.143530 kJ/mol
# Density = 2.166207 g / cm^3
# Si number density = 21.711486 Si / 1000 Ang^3
#
#
#
# Elastic Constant Matrix: (Units=GPa)
#
#
# Indices 1 2 3 4 5 6 
#
# 1 77.8542 4.6790 9.1891 0.0000 -6.3300 0.0000
# 2 4.6790 74.6729 28.5709 0.0000 -8.9093 0.0000
# 3 9.1891 28.5709 54.4498 0.0000 -21.3900 0.0000
# 4 0.0000 0.0000 0.0000 20.2759 0.0000 -3.5240
# 5 -6.3300 -8.9093 -21.3900 0.0000 30.3834 0.0000
# 6 0.0000 0.0000 0.0000 -3.5240 0.0000 23.3178
#
#
#
# Elastic Compliance Matrix: (Units=1/GPa)
#
#
# Indices 1 2 3 4 5 6 
#
# 1 0.013164 -0.000032 -0.001564 0.000000 0.001632 0.000000
# 2 -0.000032 0.016824 -0.009520 0.000000 -0.001775 0.000000
# 3 -0.001564 -0.009520 0.030964 0.000000 0.018681 0.000000
# 4 0.000000 0.000000 0.000000 0.050650 0.000000 0.007655
# 5 0.001632 -0.001775 0.018681 0.000000 0.045884 0.000000
# 6 0.000000 0.000000 0.000000 0.007655 0.000000 0.044042
#
#
# Mechanical properties :
#
#
# Convention : Reuss Voigt Hill
#
# Bulk Modulus (GPa) = 25.82619 32.42834 29.12727
# Shear Modulus (GPa) = 21.12680 25.76462 23.44571
#
# Velocity S-wave (km/s) = 3.12279 3.44856 3.28971
# Velocity P-wave (km/s) = 4.99234 5.55205 5.27961
#
# Compressibility (1/GPa) = 0.03872039
#
# Stress axis : x y z
#
# Youngs Moduli (GPa) = 75.96647 59.43722 32.29603
#
# Poissons Ratio (x) = 0.00189 0.05050
# Poissons Ratio (y) = 0.00242 0.30747
# Poissons Ratio (z) = 0.11878 0.56586
#
# Static dielectric constant tensor:
#      x y z
#    x 1.763710 0.000000 -0.022090 
#    y 0.000000 1.797150 0.000000 
#    z -0.022090 0.000000 1.770340 
# 
# From -- ./inp_files/285764.got.cif
#   From: 2010.05.17/outbox.cif.g08.bks.cpg/sg15_143_cif.got.tgz:285764.got - 2010.06.03 18:47:42.
