data_PCOD9287406
_publ_section_title
;
Structure prediction by ZEFSAII (Michael W. Deem and Ramdas Pophale) SiO2 
 PCOD9287406
Probable space group: C 2/C
;
_chemical_formula_sum "Si O2"
_cell_formula_units_Z 56
_cell_length_a 8.602581
_cell_length_b 11.636532
_cell_length_c 28.197008
_cell_angle_alpha 90.000000
_cell_angle_beta 117.928329
_cell_angle_gamma 90.000000
_cell_volume 2493.898145
_symmetry_space_group_name_H-M "C 2/C"
_symmetry_group_IT_number 15
_symmetry_cell_setting 'monoclinic'
loop_
_space_group_symop_operation_xyz
x,y,z
-x,y,1/2-z
-x,-y,-z
x,-y,1/2+z
1/2+x,1/2+y,z
1/2-x,1/2+y,1/2-z
1/2-x,1/2-y,-z
1/2+x,1/2-y,1/2+z
loop_
_atom_site_type_symbol
_atom_site_label
_atom_site_fract_x
_atom_site_fract_y
_atom_site_fract_z
Si Si1 0.222594 0.071362 0.131169
Si Si2 0.234602 0.851427 0.235369
Si Si3 0.524500 0.368422 0.982191
Si Si4 0.500000 0.540811 0.250000
Si Si5 0.500000 0.162449 0.250000
Si Si6 0.602749 0.857280 0.341693
Si Si7 0.113159 0.614640 0.026964
Si Si8 0.882822 0.885115 0.636299
O O1 0.368316 0.104611 0.192436
O O2 0.142695 0.148435 0.077720
O O3 0.040526 0.046978 0.133714
O O4 0.320145 0.965303 0.120371
O O5 0.132380 0.740083 0.238548
O O6 0.416847 0.865892 0.289219
O O7 0.264932 0.845742 0.183964
O O8 0.126779 0.959307 0.238695
O O9 0.711057 0.379239 0.980950
O O10 0.500000 0.500000 0.000000
O O11 0.533919 0.245769 0.012440
O O12 0.597694 0.610936 0.304365
O O13 0.589947 0.747876 0.372741
O O14 0.191957 0.587043 0.090422
O O15 0.000000 0.500000 0.000000
#
# Coordination Sequence:
#
# PCOD9287406 Si02
#       8
#     8   8   8   4   4   8   8   8
#     4  11  23  40  66  94 137 173 220 276 336 406
#     4  10  22  36  60  88 133 177 218 262 320 410
#     4  10  23  48  73 101 134 180 232 288 341 400
#     4  11  22  39  58  96 134 169 216 269 338 402
#     4  11  22  39  56  98 136 169 216 271 340 402
#     4  11  21  38  60  89 127 178 217 263 331 396
#     4  10  24  47  73 101 135 178 234 287 341 400
#     4  11  23  41  65  95 135 175 219 276 336 406
#
# _framework density 22.454806999999999
#
# number of rings (size 3 to 8) (size 9 to 14) (size 15 to 20)
#    0.000    1.429    2.857    2.571    0.000    2.857 
#    7.714    0.000    0.000    0.000    0.000    0.000 
#    0.000    0.000    0.000    0.000    0.000    0.000 
#
# Total GULP energy -155929.748791 kJ/mol
# GULP energy per Si atom -5568.919600 kJ/mol
# Density = 2.240370 g / cm^3
# Si number density = 22.454807 Si / 1000 Ang^3
#
#
#
# Elastic Constant Matrix: (Units=GPa)
#
#
# Indices 1 2 3 4 5 6 
#
# 1 57.0144 35.1717 13.0967 0.0000 7.8827 0.0000
# 2 35.1717 129.1892 48.4389 0.0000 22.0072 0.0000
# 3 13.0967 48.4389 146.2364 0.0000 32.2194 0.0000
# 4 0.0000 0.0000 0.0000 12.6729 0.0000 -1.5781
# 5 7.8827 22.0072 32.2194 0.0000 27.6403 0.0000
# 6 0.0000 0.0000 0.0000 -1.5781 0.0000 32.0102
#
#
#
# Elastic Compliance Matrix: (Units=1/GPa)
#
#
# Indices 1 2 3 4 5 6 
#
# 1 0.021163 -0.005559 0.000404 0.000000 -0.002081 0.000000
# 2 -0.005559 0.010816 -0.002068 0.000000 -0.004616 0.000000
# 3 0.000404 -0.002068 0.009620 0.000000 -0.009683 0.000000
# 4 0.000000 0.000000 0.000000 0.079396 0.000000 0.003914
# 5 -0.002081 -0.004616 -0.009683 0.000000 0.051735 0.000000
# 6 0.000000 0.000000 0.000000 0.003914 0.000000 0.031433
#
#
# Mechanical properties :
#
#
# Convention : Reuss Voigt Hill
#
# Bulk Modulus (GPa) = 36.82550 58.42831 47.62690
# Shear Modulus (GPa) = 21.96262 30.18019 26.07141
#
# Velocity S-wave (km/s) = 3.13082 3.67009 3.41113
# Velocity P-wave (km/s) = 5.43183 6.63599 6.06388
#
# Compressibility (1/GPa) = 0.02715509
#
# Stress axis : x y z
#
# Youngs Moduli (GPa) = 47.25123 92.45945 103.94622
#
# Poissons Ratio (x) = 0.51397 -0.04204
# Poissons Ratio (y) = 0.26266 0.21493
# Poissons Ratio (z) = -0.01911 0.19118
#
# Static dielectric constant tensor:
#      x y z
#    x 1.774910 0.000000 -0.011060 
#    y 0.000000 1.948760 0.000000 
#    z -0.011060 0.000000 1.957390 
# 
# From -- ./inp_files/307584.got.cif
#   From: 2010.05.17/outbox.cif.g08.bks.cpg/sg15_154_cif.got.tgz:307584.got - 2010.06.03 18:47:42.
