data_PCOD9287179
_publ_section_title
;
Structure prediction by ZEFSAII (Michael W. Deem and Ramdas Pophale) SiO2 
 PCOD9287179
Probable space group: C 2/C
;
_chemical_formula_sum "Si O2"
_cell_formula_units_Z 56
_cell_length_a 5.436944
_cell_length_b 25.585183
_cell_length_c 20.812800
_cell_angle_alpha 90.000000
_cell_angle_beta 60.805095
_cell_angle_gamma 90.000000
_cell_volume 2527.382402
_symmetry_space_group_name_H-M "C 2/C"
_symmetry_group_IT_number 15
_symmetry_cell_setting 'monoclinic'
loop_
_space_group_symop_operation_xyz
x,y,z
-x,y,1/2-z
-x,-y,-z
x,-y,1/2+z
1/2+x,1/2+y,z
1/2-x,1/2+y,1/2-z
1/2-x,1/2-y,-z
1/2+x,1/2-y,1/2+z
loop_
_atom_site_type_symbol
_atom_site_label
_atom_site_fract_x
_atom_site_fract_y
_atom_site_fract_z
Si Si1 0.823676 0.304319 0.456255
Si Si2 0.321814 0.591488 0.675768
Si Si3 0.454928 0.559260 0.060593
Si Si4 0.515673 0.479843 0.678033
Si Si5 0.195100 0.304945 0.278475
Si Si6 0.591522 0.040205 0.588827
Si Si7 0.729293 0.634000 0.522107
O O1 0.750000 0.250000 0.500000
O O2 0.529189 0.328718 0.468178
O O3 0.027265 0.303998 0.367196
O O4 0.998006 0.335551 0.488943
O O5 0.333630 0.534061 0.705376
O O6 0.270894 0.639298 0.731114
O O7 0.104069 0.583017 0.643747
O O8 0.609594 0.604425 0.600994
O O9 0.441297 0.566000 0.138010
O O10 0.345589 0.499528 0.074475
O O11 0.775047 0.562309 0.993488
O O12 0.263197 0.593184 0.037794
O O13 0.500000 0.456908 0.750000
O O14 0.819280 0.504481 0.621657
O O15 0.500000 0.280446 0.250000
O O16 0.000000 0.278029 0.250000
#
# Coordination Sequence:
#
# PCOD9287179 Si02
#       7
#     8   8   8   8   8   8   8
#     4  12  26  45  67 103 139 167 220 295 361 413
#     4  10  22  33  57  98 130 174 214 268 342 388
#     4   9  21  37  56  90 122 184 221 263 321 389
#     4  11  23  32  56  91 141 176 218 278 322 385
#     4  12  23  39  64 102 135 174 211 274 350 422
#     4   9  20  36  53  86 137 167 221 266 317 390
#     4  11  24  40  71  94 127 179 224 276 334 419
#
# _framework density 22.157311
#
# number of rings (size 3 to 8) (size 9 to 14) (size 15 to 20)
#    0.000    1.429    2.857    2.143   10.000    1.714 
#    0.000    0.000    0.000    0.857    3.714    0.000 
#    0.000    0.000    0.000    0.000    0.000    0.000 
#
# Total GULP energy -156091.255558 kJ/mol
# GULP energy per Si atom -5574.687698 kJ/mol
# Density = 2.210688 g / cm^3
# Si number density = 22.157311 Si / 1000 Ang^3
#
#
#
# Elastic Constant Matrix: (Units=GPa)
#
#
# Indices 1 2 3 4 5 6 
#
# 1 113.4283 27.1513 39.9537 0.0000 9.9358 0.0000
# 2 27.1513 70.0109 56.0581 0.0000 3.1503 0.0000
# 3 39.9537 56.0581 130.2242 0.0000 36.1712 0.0000
# 4 0.0000 0.0000 0.0000 33.6661 0.0000 5.7576
# 5 9.9358 3.1503 36.1712 0.0000 40.6858 0.0000
# 6 0.0000 0.0000 0.0000 5.7576 0.0000 30.8340
#
#
#
# Elastic Compliance Matrix: (Units=1/GPa)
#
#
# Indices 1 2 3 4 5 6 
#
# 1 0.010109 -0.002347 -0.001934 0.000000 -0.000568 0.000000
# 2 -0.002347 0.025028 -0.012847 0.000000 0.010057 0.000000
# 3 -0.001934 -0.012847 0.017788 0.000000 -0.014347 0.000000
# 4 0.000000 0.000000 0.000000 0.030683 0.000000 -0.005729
# 5 -0.000568 0.010057 -0.014347 0.000000 0.036694 0.000000
# 6 0.000000 0.000000 0.000000 -0.005729 0.000000 0.033502
#
#
# Mechanical properties :
#
#
# Convention : Reuss Voigt Hill
#
# Bulk Modulus (GPa) = 53.56324 62.22107 57.89215
# Shear Modulus (GPa) = 25.73594 33.73720 29.73657
#
# Velocity S-wave (km/s) = 3.41179 3.90631 3.66740
# Velocity P-wave (km/s) = 6.30452 6.96334 6.64211
#
# Compressibility (1/GPa) = 0.01866952
#
# Stress axis : x y z
#
# Youngs Moduli (GPa) = 98.92525 39.95538 56.21847
#
# Poissons Ratio (x) = 0.09376 0.10870
# Poissons Ratio (y) = 0.23213 0.72226
# Poissons Ratio (z) = 0.19127 0.51332
#
# Static dielectric constant tensor:
#      x y z
#    x 1.991000 0.000000 0.042060 
#    y 0.000000 1.816460 0.000000 
#    z 0.042060 0.000000 1.938290 
# 
# From -- ./inp_files/228407.got.cif
#   From: 2010.05.17/outbox.cif.g08.bks.cpg/sg15_115_cif.got.tgz:228407.got - 2010.06.03 18:47:42.
