data_PCOD9287075
_publ_section_title
;
Structure prediction by ZEFSAII (Michael W. Deem and Ramdas Pophale) SiO2 
 PCOD9287075
Probable space group: C 2/C
;
_chemical_formula_sum "Si O2"
_cell_formula_units_Z 24
_cell_length_a 6.987427
_cell_length_b 13.372481
_cell_length_c 14.312481
_cell_angle_alpha 90.000000
_cell_angle_beta 45.311415
_cell_angle_gamma 90.000000
_cell_volume 950.773131
_symmetry_space_group_name_H-M "C 2/C"
_symmetry_group_IT_number 15
_symmetry_cell_setting 'monoclinic'
loop_
_space_group_symop_operation_xyz
x,y,z
-x,y,1/2-z
-x,-y,-z
x,-y,1/2+z
1/2+x,1/2+y,z
1/2-x,1/2+y,1/2-z
1/2-x,1/2-y,-z
1/2+x,1/2-y,1/2+z
loop_
_atom_site_type_symbol
_atom_site_label
_atom_site_fract_x
_atom_site_fract_y
_atom_site_fract_z
Si Si1 0.110701 0.654394 0.448212
Si Si2 0.084529 0.026894 0.575597
Si Si3 0.766511 0.202513 0.761455
O O1 0.332488 0.573298 0.399641
O O2 0.212141 0.734283 0.339302
O O3 0.849960 0.597536 0.492292
O O4 0.993449 0.700014 0.584597
O O5 0.845610 0.089019 0.706346
O O6 0.000000 0.000000 0.500000
O O7 0.000000 0.241263 0.750000
#
# Coordination Sequence:
#
# PCOD9287075 Si02
#       3
#     8   8   8
#     4  10  23  47  70 103 144 185 235 296 361 420
#     4  10  22  43  69 102 139 187 236 288 350 433
#     4  10  21  46  70 103 145 184 237 296 358 424
#
# _framework density 25.242616999999999
#
# number of rings (size 3 to 8) (size 9 to 14) (size 15 to 20)
#    0.000    2.000    0.000    4.000    0.000    2.667 
#   54.000    6.667    0.000    0.000    0.000    0.000 
#    0.000    0.000    0.000    0.000    0.000    0.000 
#
# Total GULP energy -67358.144429 kJ/mol
# GULP energy per Si atom -5613.178702 kJ/mol
# Density = 2.518516 g / cm^3
# Si number density = 25.242617 Si / 1000 Ang^3
#
#
#
# Elastic Constant Matrix: (Units=GPa)
#
#
# Indices 1 2 3 4 5 6 
#
# 1 149.5963 58.1183 104.9752 -0.0015 31.2057 0.0015
# 2 58.1183 153.0720 139.7636 -0.0004 18.0968 0.0008
# 3 104.9752 139.7636 258.6379 -0.0019 32.4772 0.0023
# 4 -0.0015 -0.0004 -0.0019 44.2186 0.0015 7.3123
# 5 31.2057 18.0968 32.4772 0.0015 48.7255 -0.0015
# 6 0.0015 0.0008 0.0023 7.3123 -0.0015 37.6613
#
#
#
# Elastic Compliance Matrix: (Units=1/GPa)
#
#
# Indices 1 2 3 4 5 6 
#
# 1 0.010031 -0.000151 -0.003481 0.000000 -0.004047 0.000000
# 2 -0.000151 0.012899 -0.006897 0.000000 -0.000097 0.000000
# 3 -0.003481 -0.006897 0.009172 0.000000 -0.001323 0.000000
# 4 0.000000 0.000000 0.000000 0.023365 -0.000001 -0.004537
# 5 -0.004047 -0.000097 -0.001323 -0.000001 0.024033 0.000001
# 6 0.000000 0.000000 0.000000 -0.004537 0.000001 0.027433
#
#
# Mechanical properties :
#
#
# Convention : Reuss Voigt Hill
#
# Bulk Modulus (GPa) = 90.55338 129.66895 110.11116
# Shear Modulus (GPa) = 37.97291 43.35100 40.66195
#
# Velocity S-wave (km/s) = 3.88276 4.14862 4.01789
# Velocity P-wave (km/s) = 7.48680 8.62720 8.07715
#
# Compressibility (1/GPa) = 0.01104321
#
# Stress axis : x y z
#
# Youngs Moduli (GPa) = 99.69538 77.52556 109.02395
#
# Poissons Ratio (x) = 0.01174 0.37952
# Poissons Ratio (y) = 0.01510 0.75191
# Poissons Ratio (z) = 0.34705 0.53468
#
# Static dielectric constant tensor:
#      x y z
#    x 2.036520 0.000000 -0.069320 
#    y 0.000000 1.977330 0.000000 
#    z -0.069320 0.000000 1.998770 
# 
# From -- ./inp_files/21103.got.cif
#   From: 2010.05.17/outbox.cif.g08.bks.cpg/sg15_11_cif.got.tgz:21103.got - 2010.06.03 18:47:42.
