data_PCOD9287570
_publ_section_title
;
Structure prediction by ZEFSAII (Michael W. Deem and Ramdas Pophale) SiO2 
 PCOD9287570
Probable space group: C 2/C
;
_chemical_formula_sum "Si O2"
_cell_formula_units_Z 48
_cell_length_a 8.893785
_cell_length_b 10.970636
_cell_length_c 23.189788
_cell_angle_alpha 90.000000
_cell_angle_beta 65.767495
_cell_angle_gamma 90.000000
_cell_volume 2063.271747
_symmetry_space_group_name_H-M "C 2/C"
_symmetry_group_IT_number 15
_symmetry_cell_setting 'monoclinic'
loop_
_space_group_symop_operation_xyz
x,y,z
-x,y,1/2-z
-x,-y,-z
x,-y,1/2+z
1/2+x,1/2+y,z
1/2-x,1/2+y,1/2-z
1/2-x,1/2-y,-z
1/2+x,1/2-y,1/2+z
loop_
_atom_site_type_symbol
_atom_site_label
_atom_site_fract_x
_atom_site_fract_y
_atom_site_fract_z
Si Si1 0.284312 0.410850 0.428634
Si Si2 0.598396 0.539026 0.372611
Si Si3 0.000586 0.257910 0.181732
Si Si4 0.020670 0.528180 0.178101
Si Si5 0.359650 0.842634 0.596911
Si Si6 0.092535 0.813045 0.977104
O O1 0.470426 0.433331 0.376262
O O2 0.180082 0.527517 0.426742
O O3 0.199435 0.284595 0.424275
O O4 0.296021 0.388636 0.495804
O O5 0.604997 0.645020 0.324553
O O6 0.783190 0.507724 0.360216
O O7 0.514734 0.599116 0.442415
O O8 0.944944 0.394764 0.175318
O O9 0.186089 0.225463 0.132841
O O10 0.000000 0.255247 0.250000
O O11 0.000000 0.554933 0.250000
O O12 0.946673 0.624429 0.144297
O O13 0.467380 0.761017 0.536822
#
# Coordination Sequence:
#
# PCOD9287570 Si02
#       6
#     8   8   8   8   8   8
#     4  10  22  37  57  85 119 154 189 233 289 352
#     4  11  23  39  61  88 120 157 197 244 298 354
#     4  10  23  42  62  86 117 156 202 248 294 347
#     4  11  23  40  62  86 115 155 203 251 297 349
#     4  11  23  39  61  88 120 157 197 244 298 354
#     4  11  22  37  60  91 124 155 194 241 296 359
#
# _framework density 23.264021
#
# number of rings (size 3 to 8) (size 9 to 14) (size 15 to 20)
#    0.000    1.333    0.000    6.000    0.000    5.333 
#    0.000    0.000    0.000   15.000    0.000    0.000 
#    0.000    0.000    0.000    0.000    0.000    0.000 
#
# Total GULP energy -134152.628615 kJ/mol
# GULP energy per Si atom -5589.692859 kJ/mol
# Density = 2.321107 g / cm^3
# Si number density = 23.264021 Si / 1000 Ang^3
#
#
#
# Elastic Constant Matrix: (Units=GPa)
#
#
# Indices 1 2 3 4 5 6 
#
# 1 46.8180 2.3571 8.8921 0.0000 -2.7485 0.0000
# 2 2.3571 80.3335 26.6704 0.0000 7.5590 0.0000
# 3 8.8921 26.6704 73.3432 0.0000 5.8626 0.0000
# 4 0.0000 0.0000 0.0000 17.2020 0.0000 5.4581
# 5 -2.7485 7.5590 5.8626 0.0000 28.6245 0.0000
# 6 0.0000 0.0000 0.0000 5.4581 0.0000 31.3836
#
#
#
# Elastic Compliance Matrix: (Units=1/GPa)
#
#
# Indices 1 2 3 4 5 6 
#
# 1 0.022068 0.000066 -0.002915 0.000000 0.002698 0.000000
# 2 0.000066 0.014370 -0.005013 0.000000 -0.002762 0.000000
# 3 -0.002915 -0.005013 0.015989 0.000000 -0.002231 0.000000
# 4 0.000000 0.000000 0.000000 0.061528 0.000000 -0.010701
# 5 0.002698 -0.002762 -0.002231 0.000000 0.036380 0.000000
# 6 0.000000 0.000000 0.000000 -0.010701 0.000000 0.033725
#
#
# Mechanical properties :
#
#
# Convention : Reuss Voigt Hill
#
# Bulk Modulus (GPa) = 27.24501 30.70376 28.97438
# Shear Modulus (GPa) = 23.58277 26.28034 24.93156
#
# Velocity S-wave (km/s) = 3.18732 3.36468 3.27720
# Velocity P-wave (km/s) = 5.02812 5.32178 5.17704
#
# Compressibility (1/GPa) = 0.03670397
#
# Stress axis : x y z
#
# Youngs Moduli (GPa) = 45.31428 69.58802 62.54227
#
# Poissons Ratio (x) = -0.00463 0.18234
# Poissons Ratio (y) = -0.00301 0.31352
# Poissons Ratio (z) = 0.13211 0.34884
#
# Static dielectric constant tensor:
#      x y z
#    x 1.895640 0.000000 -0.034090 
#    y 0.000000 1.918750 0.000000 
#    z -0.034090 0.000000 1.852570 
# 
# From -- ./inp_files/263469.got.cif
#   From: 2010.05.17/outbox.cif.g08.bks.cpg/sg15_132_cif.got.tgz:263469.got - 2010.06.03 18:47:42.
