data_PCOD9287159
_publ_section_title
;
Structure prediction by ZEFSAII (Michael W. Deem and Ramdas Pophale) SiO2 
 PCOD9287159
Probable space group: C 2/C
;
_chemical_formula_sum "Si O2"
_cell_formula_units_Z 44
_cell_length_a 23.830518
_cell_length_b 18.548621
_cell_length_c 5.216191
_cell_angle_alpha 90.000000
_cell_angle_beta 113.805447
_cell_angle_gamma 90.000000
_cell_volume 2109.513620
_symmetry_space_group_name_H-M "C 2/C"
_symmetry_group_IT_number 15
_symmetry_cell_setting 'monoclinic'
loop_
_space_group_symop_operation_xyz
x,y,z
-x,y,1/2-z
-x,-y,-z
x,-y,1/2+z
1/2+x,1/2+y,z
1/2-x,1/2+y,1/2-z
1/2-x,1/2-y,-z
1/2+x,1/2-y,1/2+z
loop_
_atom_site_type_symbol
_atom_site_label
_atom_site_fract_x
_atom_site_fract_y
_atom_site_fract_z
Si Si1 0.500000 0.276852 0.750000
Si Si2 0.927735 0.954586 0.155517
Si Si3 0.793160 0.752796 0.329032
Si Si4 0.614856 0.320795 0.680955
Si Si5 0.097456 0.692251 0.256578
Si Si6 0.069891 0.470653 0.678846
O O1 0.549110 0.323762 0.693761
O O2 0.461710 0.227853 0.484877
O O3 0.000000 0.936427 0.250000
O O4 0.916577 0.985467 0.416367
O O5 0.884978 0.886458 0.013811
O O6 0.750000 0.750000 0.500000
O O7 0.835733 0.819596 0.500094
O O8 0.846592 0.695819 0.345466
O O9 0.750000 0.750000 0.000000
O O10 0.616193 0.245047 0.525464
O O11 0.078030 0.611130 0.285773
O O12 0.098260 0.479654 0.450601
O O13 0.000000 0.500000 0.500000
#
# Coordination Sequence:
#
# PCOD9287159 Si02
#       6
#     4   8   8   8   8   8
#     4  10  22  32  60 102 134 158 218 266 338 390
#     4  10  23  38  60  92 138 173 203 256 337 416
#     4  11  24  44  68  98 123 169 234 296 333 382
#     4  11  24  39  67  98 136 170 226 279 337 412
#     4  11  23  39  68  96 136 178 225 283 337 410
#     4  10  23  37  58  90 138 179 213 257 332 411
#
# _framework density 20.857887000000002
#
# number of rings (size 3 to 8) (size 9 to 14) (size 15 to 20)
#    0.000    1.455    1.818    2.727   19.091    0.000 
#    0.000    0.000    0.000    6.545    0.000    0.000 
#    0.000    0.000    0.000    0.000    0.000    0.000 
#
# Total GULP energy -122604.421731 kJ/mol
# GULP energy per Si atom -5572.928261 kJ/mol
# Density = 2.081041 g / cm^3
# Si number density = 20.857887 Si / 1000 Ang^3
#
#
#
# Elastic Constant Matrix: (Units=GPa)
#
#
# Indices 1 2 3 4 5 6 
#
# 1 102.2577 1.1716 23.5806 0.0000 -1.0956 0.0000
# 2 1.1716 91.4548 41.0632 0.0000 9.6186 0.0000
# 3 23.5806 41.0632 155.0395 0.0000 3.1101 0.0000
# 4 0.0000 0.0000 0.0000 38.5837 0.0000 -6.6497
# 5 -1.0956 9.6186 3.1101 0.0000 37.9917 0.0000
# 6 0.0000 0.0000 0.0000 -6.6497 0.0000 9.4730
#
#
#
# Elastic Compliance Matrix: (Units=1/GPa)
#
#
# Indices 1 2 3 4 5 6 
#
# 1 0.010170 0.000610 -0.001714 0.000000 0.000279 0.000000
# 2 0.000610 0.012769 -0.003416 0.000000 -0.002936 0.000000
# 3 -0.001714 -0.003416 0.007612 0.000000 0.000192 0.000000
# 4 0.000000 0.000000 0.000000 0.029485 0.000000 0.020697
# 5 0.000279 -0.002936 0.000192 0.000000 0.027057 0.000000
# 6 0.000000 0.000000 0.000000 0.020697 0.000000 0.120091
#
#
# Mechanical properties :
#
#
# Convention : Reuss Voigt Hill
#
# Bulk Modulus (GPa) = 46.48748 53.37585 49.93166
# Shear Modulus (GPa) = 22.38197 36.07213 29.22705
#
# Velocity S-wave (km/s) = 3.27933 4.16315 3.74738
# Velocity P-wave (km/s) = 6.05597 6.98247 6.53566
#
# Compressibility (1/GPa) = 0.02151117
#
# Stress axis : x y z
#
# Youngs Moduli (GPa) = 98.32390 78.31471 131.38011
#
# Poissons Ratio (x) = -0.04777 0.22519
# Poissons Ratio (y) = -0.05997 0.44877
# Poissons Ratio (z) = 0.16853 0.26751
#
# Static dielectric constant tensor:
#      x y z
#    x 2.762980 0.000000 -0.178850 
#    y 0.000000 1.753230 0.000000 
#    z -0.178850 0.000000 1.840320 
# 
# From -- ./inp_files/15464.got.cif
#   From: 2010.05.17/outbox.cif.g08.bks.cpg/sg15_8_cif.got.tgz:15464.got - 2010.06.03 18:47:42.
