data_PCOD9287171
_publ_section_title
;
Structure prediction by ZEFSAII (Michael W. Deem and Ramdas Pophale) SiO2 
 PCOD9287171
Probable space group: C 2/C
;
_chemical_formula_sum "Si O2"
_cell_formula_units_Z 48
_cell_length_a 22.265398
_cell_length_b 17.361469
_cell_length_c 21.095285
_cell_angle_alpha 90.000000
_cell_angle_beta 16.258152
_cell_angle_gamma 90.000000
_cell_volume 2283.005779
_symmetry_space_group_name_H-M "C 2/C"
_symmetry_group_IT_number 15
_symmetry_cell_setting 'monoclinic'
loop_
_space_group_symop_operation_xyz
x,y,z
-x,y,1/2-z
-x,-y,-z
x,-y,1/2+z
1/2+x,1/2+y,z
1/2-x,1/2+y,1/2-z
1/2-x,1/2-y,-z
1/2+x,1/2-y,1/2+z
loop_
_atom_site_type_symbol
_atom_site_label
_atom_site_fract_x
_atom_site_fract_y
_atom_site_fract_z
Si Si1 0.824878 0.919440 0.007476
Si Si2 0.120067 0.715773 0.944813
Si Si3 0.073774 0.644700 0.865259
Si Si4 0.812094 0.324230 0.979946
Si Si5 0.500000 0.556502 0.750000
Si Si6 0.704058 0.693247 0.164009
Si Si7 0.000000 0.674926 0.750000
O O1 0.028692 0.864026 0.812340
O O2 0.876723 0.999280 0.921958
O O3 0.708882 0.920017 0.192824
O O4 0.660432 0.877402 0.127265
O O5 0.374471 0.747237 0.679953
O O6 0.113087 0.648950 0.899421
O O7 0.113481 0.698143 0.025860
O O8 0.141886 0.729304 0.765746
O O9 0.831668 0.641971 0.086030
O O10 0.000000 0.363840 0.750000
O O11 0.750000 0.250000 0.000000
O O12 0.624415 0.385514 0.170055
O O13 0.857857 0.715916 0.948480
#
# Coordination Sequence:
#
# PCOD9287171 Si02
#       7
#     8   8   8   8   4   8   4
#     4  11  23  41  59  97 142 187 238 281 348 413
#     4  12  23  43  74 111 146 181 233 302 365 421
#     4  11  23  36  63  98 141 196 235 279 331 415
#     4  12  25  47  78 109 130 165 232 307 380 439
#     4  12  26  45  71 102 140 182 224 308 366 423
#     4  11  19  36  56  91 137 188 240 279 322 398
#     4  10  22  33  53  86 134 184 238 278 326 387
#
# _framework density 21.024913999999999
#
# number of rings (size 3 to 8) (size 9 to 14) (size 15 to 20)
#    0.000    0.667    7.500    0.000    1.167    3.333 
#    0.000    0.833    0.000    2.000    0.000    0.000 
#    0.000    0.000    0.000    0.000    0.000    0.000 
#
# Total GULP energy -133630.019922 kJ/mol
# GULP energy per Si atom -5567.917497 kJ/mol
# Density = 2.097706 g / cm^3
# Si number density = 21.024914 Si / 1000 Ang^3
#
#
#
# Elastic Constant Matrix: (Units=GPa)
#
#
# Indices 1 2 3 4 5 6 
#
# 1 158.0262 21.7696 24.9499 0.0055 -9.4626 -0.0171
# 2 21.7696 65.9011 18.7541 -0.0843 -11.2376 0.0056
# 3 24.9499 18.7541 75.1216 -0.0283 -23.0092 0.0518
# 4 0.0055 -0.0843 -0.0283 8.0791 -0.0273 3.1172
# 5 -9.4626 -11.2376 -23.0092 -0.0273 38.5073 -0.0050
# 6 -0.0171 0.0056 0.0518 3.1172 -0.0050 9.9012
#
#
#
# Elastic Compliance Matrix: (Units=1/GPa)
#
#
# Indices 1 2 3 4 5 6 
#
# 1 0.006859 -0.001733 -0.001817 -0.000043 0.000094 0.000036
# 2 -0.001733 0.017033 -0.002796 0.000202 0.002874 -0.000060
# 3 -0.001817 -0.002796 0.017414 0.000111 0.009143 -0.000123
# 4 -0.000043 0.000202 0.000111 0.140895 0.000209 -0.044358
# 5 0.000094 0.002874 0.009143 0.000209 0.032294 -0.000099
# 6 0.000036 -0.000060 -0.000123 -0.044358 -0.000099 0.114964
#
#
# Mechanical properties :
#
#
# Convention : Reuss Voigt Hill
#
# Bulk Modulus (GPa) = 34.94775 47.77735 41.36255
# Shear Modulus (GPa) = 14.21715 26.86920 20.54317
#
# Velocity S-wave (km/s) = 2.60321 3.57875 3.12923
# Velocity P-wave (km/s) = 5.06890 6.31269 5.72468
#
# Compressibility (1/GPa) = 0.02861415
#
# Stress axis : x y z
#
# Youngs Moduli (GPa) = 145.78830 58.71023 57.42604
#
# Poissons Ratio (x) = 0.10174 0.10433
# Poissons Ratio (y) = 0.25263 0.16058
# Poissons Ratio (z) = 0.26485 0.16417
#
# Static dielectric constant tensor:
#      x y z
#    x 1.774850 -0.000020 -0.051150 
#    y -0.000020 1.717470 0.000090 
#    z -0.051150 0.000090 2.032080 
# 
# From -- ./inp_files/253294.got.cif
#   From: 2010.05.17/outbox.cif.g08.bks.cpg/sg15_127_cif.got.tgz:253294.got - 2010.06.03 18:47:42.
