data_PCOD9287722
_publ_section_title
;
Structure prediction by ZEFSAII (Michael W. Deem and Ramdas Pophale) SiO2 
 PCOD9287722
Probable space group: C 2/C
;
_chemical_formula_sum "Si O2"
_cell_formula_units_Z 40
_cell_length_a 15.882087
_cell_length_b 11.078760
_cell_length_c 24.034979
_cell_angle_alpha 90.000000
_cell_angle_beta 25.232279
_cell_angle_gamma 90.000000
_cell_volume 1802.795970
_symmetry_space_group_name_H-M "C 2/C"
_symmetry_group_IT_number 15
_symmetry_cell_setting 'monoclinic'
loop_
_space_group_symop_operation_xyz
x,y,z
-x,y,1/2-z
-x,-y,-z
x,-y,1/2+z
1/2+x,1/2+y,z
1/2-x,1/2+y,1/2-z
1/2-x,1/2-y,-z
1/2+x,1/2-y,1/2+z
loop_
_atom_site_type_symbol
_atom_site_label
_atom_site_fract_x
_atom_site_fract_y
_atom_site_fract_z
Si Si1 0.001709 0.801373 0.511139
Si Si2 0.579858 0.615781 0.616388
Si Si3 0.265383 0.012286 0.391982
Si Si4 0.355330 0.056255 0.632915
Si Si5 0.015416 0.345234 0.588177
O O1 0.921671 0.695123 0.598698
O O2 0.060096 0.733954 0.418694
O O3 0.175970 0.880923 0.432079
O O4 0.832078 0.894232 0.593360
O O5 0.684086 0.555561 0.500510
O O6 0.372502 0.550462 0.748369
O O7 0.751499 0.622047 0.559539
O O8 0.523340 0.753716 0.634768
O O9 0.500000 0.014602 0.250000
O O10 0.500000 0.000000 0.500000
O O11 0.395434 0.969410 0.661457
#
# Coordination Sequence:
#
# PCOD9287722 Si02
#       5
#     8   8   8   8   8
#     4   9  21  39  61  88 120 166 201 251 310 370
#     4  10  22  37  65  91 118 162 212 250 308 374
#     4  10  22  39  63  90 125 161 206 253 312 372
#     4  10  22  39  62  88 125 159 202 259 307 368
#     4   9  21  40  59  92 119 161 207 253 307 366
#
# _framework density 22.187757000000001
#
# number of rings (size 3 to 8) (size 9 to 14) (size 15 to 20)
#    0.000    2.400    0.000    0.000   11.200    5.600 
#    7.200    1.000    0.000    0.000    0.000    0.000 
#    0.000    0.000    0.000    0.000    0.000    0.000 
#
# Total GULP energy -111691.422415 kJ/mol
# GULP energy per Si atom -5584.571121 kJ/mol
# Density = 2.213726 g / cm^3
# Si number density = 22.187757 Si / 1000 Ang^3
#
#
#
# Elastic Constant Matrix: (Units=GPa)
#
#
# Indices 1 2 3 4 5 6 
#
# 1 58.0663 34.5650 26.5342 -0.0004 -0.1980 0.0006
# 2 34.5650 128.8454 41.6918 0.0020 -13.2477 0.0011
# 3 26.5342 41.6918 160.1021 -0.0032 -11.4193 0.0032
# 4 -0.0004 0.0020 -0.0032 30.1956 0.0021 -11.1630
# 5 -0.1980 -13.2477 -11.4193 0.0021 28.5967 0.0000
# 6 0.0006 0.0011 0.0032 -11.1630 0.0000 38.7948
#
#
#
# Elastic Compliance Matrix: (Units=1/GPa)
#
#
# Indices 1 2 3 4 5 6 
#
# 1 0.021477 -0.005319 -0.002408 0.000001 -0.003277 0.000000
# 2 -0.005319 0.010075 -0.001453 -0.000001 0.004050 0.000000
# 3 -0.002408 -0.001453 0.007179 0.000001 0.002177 0.000000
# 4 0.000001 -0.000001 0.000001 0.037060 -0.000003 0.010664
# 5 -0.003277 0.004050 0.002177 -0.000003 0.037692 -0.000001
# 6 0.000000 0.000000 0.000000 0.010664 -0.000001 0.028845
#
#
# Mechanical properties :
#
#
# Convention : Reuss Voigt Hill
#
# Bulk Modulus (GPa) = 49.09199 61.39953 55.24576
# Shear Modulus (GPa) = 29.85451 35.79894 32.82673
#
# Velocity S-wave (km/s) = 3.67214 4.02114 3.85060
# Velocity P-wave (km/s) = 6.33666 7.02084 6.68750
#
# Compressibility (1/GPa) = 0.02036992
#
# Stress axis : x y z
#
# Youngs Moduli (GPa) = 46.56059 99.25657 139.29983
#
# Poissons Ratio (x) = 0.52799 0.33544
# Poissons Ratio (y) = 0.24768 0.20242
# Poissons Ratio (z) = 0.11212 0.14423
#
# Static dielectric constant tensor:
#      x y z
#    x 1.881420 0.000000 0.051830 
#    y 0.000000 1.852820 0.000000 
#    z 0.051830 0.000000 1.836940 
# 
# From -- ./inp_files/316013.got.cif
#   From: 2010.05.17/outbox.cif.g08.bks.cpg/sg15_159_cif.got.tgz:316013.got - 2010.06.03 18:47:42.
