data_PCOD9287363
_publ_section_title
;
Structure prediction by ZEFSAII (Michael W. Deem and Ramdas Pophale) SiO2 
 PCOD9287363
Probable space group: C 2/C
;
_chemical_formula_sum "Si O2"
_cell_formula_units_Z 44
_cell_length_a 10.940568
_cell_length_b 15.063014
_cell_length_c 10.537406
_cell_angle_alpha 90.000000
_cell_angle_beta 87.105396
_cell_angle_gamma 90.000000
_cell_volume 1734.327061
_symmetry_space_group_name_H-M "C 2/C"
_symmetry_group_IT_number 15
_symmetry_cell_setting 'monoclinic'
loop_
_space_group_symop_operation_xyz
x,y,z
-x,y,1/2-z
-x,-y,-z
x,-y,1/2+z
1/2+x,1/2+y,z
1/2-x,1/2+y,1/2-z
1/2-x,1/2-y,-z
1/2+x,1/2-y,1/2+z
loop_
_atom_site_type_symbol
_atom_site_label
_atom_site_fract_x
_atom_site_fract_y
_atom_site_fract_z
Si Si1 0.246874 0.154210 0.685332
Si Si2 0.000000 0.652026 0.750000
Si Si3 0.541946 0.354174 0.997070
Si Si4 0.639857 0.494836 0.358907
Si Si5 0.599312 0.214362 0.358483
Si Si6 0.624716 0.948531 0.019937
O O1 0.388872 0.180461 0.662130
O O2 0.164813 0.170213 0.566095
O O3 0.200101 0.055619 0.735526
O O4 0.201062 0.222924 0.794297
O O5 0.910620 0.600714 0.849148
O O6 0.463602 0.427005 0.083796
O O7 0.454871 0.269079 0.018805
O O8 0.579240 0.407387 0.867780
O O9 0.752484 0.500353 0.452988
O O10 0.500000 0.202897 0.250000
O O11 0.645465 0.120743 0.406183
O O12 0.500000 0.000000 0.000000
#
# Coordination Sequence:
#
# PCOD9287363 Si02
#       6
#     8   4   8   8   8   8
#     4   9  18  36  60  86 118 158 193 239 294 356
#     4  10  22  36  58  88 120 150 184 250 300 340
#     4   9  17  35  60  86 116 150 200 240 284 353
#     4   9  18  32  58  86 112 155 188 239 293 343
#     4   9  20  39  65  84 112 161 202 239 297 356
#     4  11  23  38  60  86 120 156 197 248 299 362
#
# _framework density 25.370072
#
# number of rings (size 3 to 8) (size 9 to 14) (size 15 to 20)
#    0.000    2.545    0.000    2.727    1.273    6.545 
#    0.000    8.182   12.000    0.000    0.000    0.000 
#    0.000    0.000    0.000    0.000    0.000    0.000 
#
# Total GULP energy -122639.334246 kJ/mol
# GULP energy per Si atom -5574.515193 kJ/mol
# Density = 2.531233 g / cm^3
# Si number density = 25.370072 Si / 1000 Ang^3
#
#
#
# Elastic Constant Matrix: (Units=GPa)
#
#
# Indices 1 2 3 4 5 6 
#
# 1 164.9676 -0.2566 11.5576 0.0000 6.7107 0.0000
# 2 -0.2566 59.2138 25.2188 0.0000 -4.5239 0.0000
# 3 11.5576 25.2188 57.5134 0.0000 -13.4428 0.0000
# 4 0.0000 0.0000 0.0000 147.6412 0.0000 -0.9442
# 5 6.7107 -4.5239 -13.4428 0.0000 31.7696 0.0000
# 6 0.0000 0.0000 0.0000 -0.9442 0.0000 32.0568
#
#
#
# Elastic Compliance Matrix: (Units=1/GPa)
#
#
# Indices 1 2 3 4 5 6 
#
# 1 0.006295 0.000756 -0.002089 0.000000 -0.002106 0.000000
# 2 0.000756 0.020885 -0.009601 0.000000 -0.001248 0.000000
# 3 -0.002089 -0.009601 0.024193 0.000000 0.009311 0.000000
# 4 0.000000 0.000000 0.000000 0.006774 0.000000 0.000200
# 5 -0.002106 -0.001248 0.009311 0.000000 0.035683 0.000000
# 6 0.000000 0.000000 0.000000 0.000200 0.000000 0.031200
#
#
# Mechanical properties :
#
#
# Convention : Reuss Voigt Hill
#
# Bulk Modulus (GPa) = 33.89261 39.41492 36.65376
# Shear Modulus (GPa) = 31.90094 58.63853 45.26974
#
# Velocity S-wave (km/s) = 3.54986 4.81284 4.22877
# Velocity P-wave (km/s) = 5.49457 6.81574 6.19050
#
# Compressibility (1/GPa) = 0.02950496
#
# Stress axis : x y z
#
# Youngs Moduli (GPa) = 158.85700 47.88108 41.33364
#
# Poissons Ratio (x) = -0.03620 0.08633
# Poissons Ratio (y) = -0.12009 0.39686
# Poissons Ratio (z) = 0.33180 0.45973
#
# Static dielectric constant tensor:
#      x y z
#    x 2.672080 0.000000 1.034890 
#    y 0.000000 2.118400 0.000000 
#    z 1.034890 0.000000 3.475480 
# 
# From -- ./inp_files/86121.got.cif
#   From: 2010.05.17/outbox.cif.g08.bks.cpg/sg15_44_cif.got.tgz:86121.got - 2010.06.03 18:47:42.
