data_PCOD9287000
_publ_section_title
;
Structure prediction by ZEFSAII (Michael W. Deem and Ramdas Pophale) SiO2 
 PCOD9287000
Probable space group: C 2/C
;
_chemical_formula_sum "Si O2"
_cell_formula_units_Z 44
_cell_length_a 12.016546
_cell_length_b 15.304346
_cell_length_c 9.558260
_cell_angle_alpha 90.000000
_cell_angle_beta 88.185195
_cell_angle_gamma 90.000000
_cell_volume 1756.933714
_symmetry_space_group_name_H-M "C 2/C"
_symmetry_group_IT_number 15
_symmetry_cell_setting 'monoclinic'
loop_
_space_group_symop_operation_xyz
x,y,z
-x,y,1/2-z
-x,-y,-z
x,-y,1/2+z
1/2+x,1/2+y,z
1/2-x,1/2+y,1/2-z
1/2-x,1/2-y,-z
1/2+x,1/2-y,1/2+z
loop_
_atom_site_type_symbol
_atom_site_label
_atom_site_fract_x
_atom_site_fract_y
_atom_site_fract_z
Si Si1 0.309363 0.770787 0.352840
Si Si2 0.500000 0.119730 0.750000
Si Si3 0.389644 0.603906 0.692994
Si Si4 0.612610 0.990167 0.583450
Si Si5 0.234625 0.835764 0.905884
Si Si6 0.340226 0.496777 0.944932
O O1 0.250000 0.750000 0.500000
O O2 0.218615 0.836933 0.288665
O O3 0.309948 0.691359 0.243591
O O4 0.286825 0.970302 0.512321
O O5 0.566103 0.187913 0.646011
O O6 0.596662 0.045300 0.726341
O O7 0.500000 0.647061 0.750000
O O8 0.407640 0.572268 0.533537
O O9 0.368578 0.515750 0.784688
O O10 0.649676 0.890841 0.608531
O O11 0.500000 0.000000 0.500000
O O12 0.157327 0.906130 0.986735
O O13 0.250000 0.750000 0.000000
#
# Coordination Sequence:
#
# PCOD9287000 Si02
#       6
#     8   4   8   8   8   8
#     4  12  27  48  75 115 158 197 261 329 396 470
#     4  12  24  48  74 106 154 204 256 320 388 476
#     4  12  25  48  71 103 151 201 261 312 384 474
#     4  10  22  39  75 102 144 198 260 310 388 461
#     4  10  21  45  71 104 157 193 247 325 393 448
#     4  10  24  43  74 100 145 197 262 307 382 465
#
# _framework density 25.043631999999999
#
# number of rings (size 3 to 8) (size 9 to 14) (size 15 to 20)
#    1.091    0.000    3.636    2.727    2.545    2.909 
#    6.545    0.000    0.000    0.000    0.000    0.000 
#    0.000    0.000    0.000    0.000    0.000    0.000 
#
# Total GULP energy -122528.649533 kJ/mol
# GULP energy per Si atom -5569.484070 kJ/mol
# Density = 2.498663 g / cm^3
# Si number density = 25.043632 Si / 1000 Ang^3
#
#
#
# Elastic Constant Matrix: (Units=GPa)
#
#
# Indices 1 2 3 4 5 6 
#
# 1 125.6998 28.2699 28.5152 0.0000 -17.9882 0.0000
# 2 28.2699 99.0927 13.0483 0.0000 0.4309 0.0000
# 3 28.5152 13.0483 109.6903 0.0000 -12.6724 0.0000
# 4 0.0000 0.0000 0.0000 40.1989 0.0000 -13.0367
# 5 -17.9882 0.4309 -12.6724 0.0000 42.8865 0.0000
# 6 0.0000 0.0000 0.0000 -13.0367 0.0000 48.2245
#
#
#
# Elastic Compliance Matrix: (Units=1/GPa)
#
#
# Indices 1 2 3 4 5 6 
#
# 1 0.009401 -0.002466 -0.001752 0.000000 0.003450 0.000000
# 2 -0.002466 0.010909 -0.000817 0.000000 -0.001385 0.000000
# 3 -0.001752 -0.000817 0.009924 0.000000 0.002206 0.000000
# 4 0.000000 0.000000 0.000000 0.027267 0.000000 0.007371
# 5 0.003450 -0.001385 0.002206 0.000000 0.025430 0.000000
# 6 0.000000 0.000000 0.000000 0.007371 0.000000 0.022729
#
#
# Mechanical properties :
#
#
# Convention : Reuss Voigt Hill
#
# Bulk Modulus (GPa) = 49.59276 52.68331 51.13803
# Shear Modulus (GPa) = 40.83254 43.90528 42.36891
#
# Velocity S-wave (km/s) = 4.04227 4.19161 4.11762
# Velocity P-wave (km/s) = 6.45230 6.67146 6.56279
#
# Compressibility (1/GPa) = 0.02016423
#
# Stress axis : x y z
#
# Youngs Moduli (GPa) = 106.36759 91.66961 100.76602
#
# Poissons Ratio (x) = 0.22609 0.17654
# Poissons Ratio (y) = 0.26235 0.08228
# Poissons Ratio (z) = 0.18635 0.07485
#
# Static dielectric constant tensor:
#      x y z
#    x 2.055640 0.000000 0.104810 
#    y 0.000000 2.024220 0.000000 
#    z 0.104810 0.000000 2.147350 
# 
# From -- ./inp_files/47085.got.cif
#   From: 2010.05.17/outbox.cif.g08.bks.cpg/sg15_24_cif.got.tgz:47085.got - 2010.06.03 18:47:42.
