data_PCOD9287571
_publ_section_title
;
Structure prediction by ZEFSAII (Michael W. Deem and Ramdas Pophale) SiO2 
 PCOD9287571
Probable space group: C 2/C
;
_chemical_formula_sum "Si O2"
_cell_formula_units_Z 56
_cell_length_a 24.563177
_cell_length_b 14.554940
_cell_length_c 9.241679
_cell_angle_alpha 90.000000
_cell_angle_beta 73.422524
_cell_angle_gamma 90.000000
_cell_volume 3166.710889
_symmetry_space_group_name_H-M "C 2/C"
_symmetry_group_IT_number 15
_symmetry_cell_setting 'monoclinic'
loop_
_space_group_symop_operation_xyz
x,y,z
-x,y,1/2-z
-x,-y,-z
x,-y,1/2+z
1/2+x,1/2+y,z
1/2-x,1/2+y,1/2-z
1/2-x,1/2-y,-z
1/2+x,1/2-y,1/2+z
loop_
_atom_site_type_symbol
_atom_site_label
_atom_site_fract_x
_atom_site_fract_y
_atom_site_fract_z
Si Si1 0.252530 0.912130 0.238625
Si Si2 0.958317 0.005956 0.167649
Si Si3 0.128706 0.149489 0.373008
Si Si4 0.746514 0.604050 0.406193
Si Si5 0.813061 0.280226 0.399171
Si Si6 0.333055 0.247021 0.196045
Si Si7 0.936859 0.801344 0.309593
O O1 0.301041 0.862266 0.296769
O O2 0.196200 0.847995 0.299238
O O3 0.248066 0.013269 0.306819
O O4 0.263135 0.914448 0.059089
O O5 0.901907 0.059332 0.165337
O O6 0.000000 0.056077 0.250000
O O7 0.941799 0.907405 0.248547
O O8 0.000000 0.000000 0.000000
O O9 0.181000 0.133952 0.443028
O O10 0.154882 0.203844 0.218567
O O11 0.082475 0.198809 0.508884
O O12 0.786171 0.683613 0.310766
O O13 0.750000 0.250000 0.500000
O O14 0.843973 0.294398 0.528291
O O15 0.389564 0.253879 0.247027
O O16 0.000000 0.762006 0.250000
#
# Coordination Sequence:
#
# PCOD9287571 Si02
#       7
#     8   8   8   8   8   8   8
#     4  11  22  37  57  88 124 156 204 244 317 377
#     4  11  23  39  54  86 126 167 218 250 294 373
#     4  12  22  36  58  81 122 165 201 255 306 362
#     4  12  23  36  61  90 120 167 198 258 324 364
#     4  10  22  37  57  85 120 156 208 249 317 370
#     4  11  22  41  59  85 129 155 207 260 305 379
#     4  11  23  39  56  84 118 168 209 249 303 368
#
# _framework density 17.683964
#
# number of rings (size 3 to 8) (size 9 to 14) (size 15 to 20)
#    0.000    0.857    7.143    3.000    4.000    0.000 
#    0.000    0.000    0.000    0.000    0.000   10.000 
#    0.000    0.000    0.000    0.000    0.000    0.000 
#
# Total GULP energy -156211.000263 kJ/mol
# GULP energy per Si atom -5578.964295 kJ/mol
# Density = 1.764371 g / cm^3
# Si number density = 17.683964 Si / 1000 Ang^3
#
#
#
# Elastic Constant Matrix: (Units=GPa)
#
#
# Indices 1 2 3 4 5 6 
#
# 1 106.6644 28.9818 30.2972 0.0000 2.5903 0.0000
# 2 28.9818 41.1070 15.2946 0.0000 -11.6230 0.0000
# 3 30.2972 15.2946 123.0134 0.0000 6.2105 0.0000
# 4 0.0000 0.0000 0.0000 28.0156 0.0000 1.3272
# 5 2.5903 -11.6230 6.2105 0.0000 35.8890 0.0000
# 6 0.0000 0.0000 0.0000 1.3272 0.0000 32.0659
#
#
#
# Elastic Compliance Matrix: (Units=1/GPa)
#
#
# Indices 1 2 3 4 5 6 
#
# 1 0.012437 -0.009120 -0.001750 0.000000 -0.003549 0.000000
# 2 -0.009120 0.035353 -0.002785 0.000000 0.012589 0.000000
# 3 -0.001750 -0.002785 0.009024 0.000000 -0.002337 0.000000
# 4 0.000000 0.000000 0.000000 0.035765 0.000000 -0.001480
# 5 -0.003549 0.012589 -0.002337 0.000000 0.032602 0.000000
# 6 0.000000 0.000000 0.000000 -0.001480 0.000000 0.031247
#
#
# Mechanical properties :
#
#
# Convention : Reuss Voigt Hill
#
# Bulk Modulus (GPa) = 33.89437 46.65910 40.27673
# Shear Modulus (GPa) = 25.83024 32.27484 29.05254
#
# Velocity S-wave (km/s) = 3.82600 4.27674 4.05764
# Velocity P-wave (km/s) = 6.22303 7.12949 6.69163
#
# Compressibility (1/GPa) = 0.02950343
#
# Stress axis : x y z
#
# Youngs Moduli (GPa) = 80.40820 28.28635 110.81039
#
# Poissons Ratio (x) = 0.25798 0.19391
# Poissons Ratio (y) = 0.73336 0.30859
# Poissons Ratio (z) = 0.14071 0.07877
#
# Static dielectric constant tensor:
#      x y z
#    x 1.624450 0.000000 -0.006860 
#    y 0.000000 1.615200 0.000000 
#    z -0.006860 0.000000 1.495030 
# 
# From -- ./inp_files/61820.got.cif
#   From: 2010.05.17/outbox.cif.g08.bks.cpg/sg15_31_cif.got.tgz:61820.got - 2010.06.03 18:47:42.
