data_PCOD9287404
_publ_section_title
;
Structure prediction by ZEFSAII (Michael W. Deem and Ramdas Pophale) SiO2 
 PCOD9287404
Probable space group: C 2/C
;
_chemical_formula_sum "Si O2"
_cell_formula_units_Z 52
_cell_length_a 14.193715
_cell_length_b 17.333393
_cell_length_c 12.785679
_cell_angle_alpha 90.000000
_cell_angle_beta 135.520017
_cell_angle_gamma 90.000000
_cell_volume 2203.996040
_symmetry_space_group_name_H-M "C 2/C"
_symmetry_group_IT_number 15
_symmetry_cell_setting 'monoclinic'
loop_
_space_group_symop_operation_xyz
x,y,z
-x,y,1/2-z
-x,-y,-z
x,-y,1/2+z
1/2+x,1/2+y,z
1/2-x,1/2+y,1/2-z
1/2-x,1/2-y,-z
1/2+x,1/2-y,1/2+z
loop_
_atom_site_type_symbol
_atom_site_label
_atom_site_fract_x
_atom_site_fract_y
_atom_site_fract_z
Si Si1 0.615646 0.406572 0.773565
Si Si2 0.786985 0.505349 0.565117
Si Si3 0.500000 0.138317 0.750000
Si Si4 0.500000 0.115624 0.250000
Si Si5 0.673615 0.764555 0.769502
Si Si6 0.116552 0.103506 0.050450
Si Si7 0.500000 0.350831 0.250000
Si Si8 0.665948 0.219363 0.033720
O O1 0.500000 0.367037 0.750000
O O2 0.552526 0.416495 0.610128
O O3 0.674850 0.475298 0.890102
O O4 0.746478 0.354190 0.860823
O O5 0.870847 0.582499 0.657230
O O6 0.892373 0.440897 0.610832
O O7 0.725040 0.463932 0.616690
O O8 0.526648 0.190590 0.872973
O O9 0.434536 0.169091 0.286573
O O10 0.813867 0.810873 0.893422
O O11 0.631248 0.700147 0.820548
O O12 0.654864 0.735579 0.634580
O O13 0.028448 0.103462 0.877612
O O14 0.750000 0.250000 0.000000
#
# Coordination Sequence:
#
# PCOD9287404 Si02
#       8
#     8   8   4   4   8   8   4   8
#     4  10  23  39  57  83 124 157 193 244 294 351
#     4   9  19  39  60  86 115 154 198 244 291 346
#     4   9  20  39  60  87 118 153 202 234 294 349
#     4   8  16  36  66  84 114 148 200 246 294 346
#     4   9  20  38  59  88 118 152 195 249 296 349
#     4  10  22  39  59  87 117 154 201 244 294 355
#     4  11  22  37  62  87 118 155 198 244 302 349
#     4  10  22  36  60  88 119 158 195 240 293 354
#
# _framework density 23.593509999999998
#
# number of rings (size 3 to 8) (size 9 to 14) (size 15 to 20)
#    0.000    2.462    0.000    0.462    4.308    3.077 
#    0.000    6.154    0.000    0.000    0.000    0.000 
#    0.000    0.000    0.000    0.000    0.000    0.000 
#
# Total GULP energy -145010.898508 kJ/mol
# GULP energy per Si atom -5577.342250 kJ/mol
# Density = 2.353981 g / cm^3
# Si number density = 23.593510 Si / 1000 Ang^3
#
#
#
# Elastic Constant Matrix: (Units=GPa)
#
#
# Indices 1 2 3 4 5 6 
#
# 1 78.3257 10.6903 37.4507 0.0000 -29.6225 0.0000
# 2 10.6903 45.6343 22.7494 0.0000 -7.5561 0.0000
# 3 37.4507 22.7494 135.2423 0.0000 -30.1072 0.0000
# 4 0.0000 0.0000 0.0000 22.0036 0.0000 9.9350
# 5 -29.6225 -7.5561 -30.1072 0.0000 44.1863 0.0000
# 6 0.0000 0.0000 0.0000 9.9350 0.0000 8.2072
#
#
#
# Elastic Compliance Matrix: (Units=1/GPa)
#
#
# Indices 1 2 3 4 5 6 
#
# 1 0.017968 -0.001284 -0.002507 0.000000 0.010118 0.000000
# 2 -0.001284 0.024106 -0.003505 0.000000 0.000873 0.000000
# 3 -0.002507 -0.003505 0.009631 0.000000 0.004282 0.000000
# 4 0.000000 0.000000 0.000000 0.100229 0.000000 -0.121328
# 5 0.010118 0.000873 0.004282 0.000000 0.032482 0.000000
# 6 0.000000 0.000000 0.000000 -0.121328 0.000000 0.268714
#
#
# Mechanical properties :
#
#
# Convention : Reuss Voigt Hill
#
# Bulk Modulus (GPa) = 26.94492 44.55368 35.74930
# Shear Modulus (GPa) = 10.41466 27.43355 18.92410
#
# Velocity S-wave (km/s) = 2.10328 3.41362 2.83519
# Velocity P-wave (km/s) = 4.16457 5.87043 5.08948
#
# Compressibility (1/GPa) = 0.03711275
#
# Stress axis : x y z
#
# Youngs Moduli (GPa) = 55.65542 41.48345 103.82804
#
# Poissons Ratio (x) = 0.05326 0.26032
# Poissons Ratio (y) = 0.07146 0.36391
# Poissons Ratio (z) = 0.13954 0.14540
#
# Static dielectric constant tensor:
#      x y z
#    x 1.899470 0.000000 0.029630 
#    y 0.000000 1.925800 0.000000 
#    z 0.029630 0.000000 1.943100 
# 
# From -- ./inp_files/99725.got.cif
#   From: 2010.05.17/outbox.cif.g08.bks.cpg/sg15_50_cif.got.tgz:99725.got - 2010.06.03 18:47:42.
