data_PCOD9287258
_publ_section_title
;
Structure prediction by ZEFSAII (Michael W. Deem and Ramdas Pophale) SiO2 
 PCOD9287258
Probable space group: C 2/C
;
_chemical_formula_sum "Si O2"
_cell_formula_units_Z 48
_cell_length_a 8.435896
_cell_length_b 33.757607
_cell_length_c 12.798003
_cell_angle_alpha 90.000000
_cell_angle_beta 42.356604
_cell_angle_gamma 90.000000
_cell_volume 2455.496220
_symmetry_space_group_name_H-M "C 2/C"
_symmetry_group_IT_number 15
_symmetry_cell_setting 'monoclinic'
loop_
_space_group_symop_operation_xyz
x,y,z
-x,y,1/2-z
-x,-y,-z
x,-y,1/2+z
1/2+x,1/2+y,z
1/2-x,1/2+y,1/2-z
1/2-x,1/2-y,-z
1/2+x,1/2-y,1/2+z
loop_
_atom_site_type_symbol
_atom_site_label
_atom_site_fract_x
_atom_site_fract_y
_atom_site_fract_z
Si Si1 0.128199 0.530295 0.797514
Si Si2 0.643067 0.196282 0.497950
Si Si3 0.500000 0.185639 0.250000
Si Si4 0.888920 0.225929 0.165442
Si Si5 0.042287 0.627075 0.036570
Si Si6 0.765412 0.549835 0.160486
Si Si7 0.500000 0.420936 0.250000
O O1 0.193336 0.483796 0.772520
O O2 0.362500 0.553196 0.727406
O O3 0.000000 0.540293 0.750000
O O4 0.933449 0.538777 0.981163
O O5 0.745855 0.214696 0.339515
O O6 0.460933 0.228384 0.629511
O O7 0.537484 0.153492 0.524542
O O8 0.876938 0.198891 0.453643
O O9 0.722799 0.213881 0.152905
O O10 0.540462 0.157409 0.132250
O O11 0.850516 0.593137 0.152132
O O12 0.292283 0.605976 0.898546
O O13 0.500000 0.549529 0.250000
#
# Coordination Sequence:
#
# PCOD9287258 Si02
#       7
#     8   8   4   8   8   8   4
#     4  10  22  42  63  88 119 162 202 247 299 359
#     4   9  19  37  56  79 111 152 188 243 287 343
#     4  10  22  35  54  90 112 148 198 238 294 357
#     4   9  19  35  56  79 111 146 198 233 285 360
#     4  10  23  37  58  85 121 151 187 250 298 339
#     4  10  22  39  61  89 120 155 203 246 295 361
#     4  10  22  45  56  88 126 154 204 244 296 367
#
# _framework density 19.547986000000002
#
# number of rings (size 3 to 8) (size 9 to 14) (size 15 to 20)
#    0.000    2.333    0.833    0.000    5.833    6.667 
#    3.000    0.000    3.667    0.000    0.000    0.000 
#    0.000    0.000    0.000    0.000    0.000    0.000 
#
# Total GULP energy -133770.432549 kJ/mol
# GULP energy per Si atom -5573.768023 kJ/mol
# Density = 1.950349 g / cm^3
# Si number density = 19.547986 Si / 1000 Ang^3
#
#
#
# Elastic Constant Matrix: (Units=GPa)
#
#
# Indices 1 2 3 4 5 6 
#
# 1 126.2898 47.1956 24.5774 0.0000 -30.0003 0.0000
# 2 47.1956 75.3691 26.9672 0.0000 -28.7963 0.0000
# 3 24.5774 26.9672 41.7425 0.0000 -24.9778 0.0000
# 4 0.0000 0.0000 0.0000 25.4154 0.0000 -6.7398
# 5 -30.0003 -28.7963 -24.9778 0.0000 30.6335 0.0000
# 6 0.0000 0.0000 0.0000 -6.7398 0.0000 34.8121
#
#
#
# Elastic Compliance Matrix: (Units=1/GPa)
#
#
# Indices 1 2 3 4 5 6 
#
# 1 0.011190 -0.004449 0.000665 0.000000 0.007319 0.000000
# 2 -0.004449 0.022719 -0.003682 0.000000 0.013998 0.000000
# 3 0.000665 -0.003682 0.047378 0.000000 0.035821 0.000000
# 4 0.000000 0.000000 0.000000 0.041476 0.000000 0.008030
# 5 0.007319 0.013998 0.035821 0.000000 0.082178 0.000000
# 6 0.000000 0.000000 0.000000 0.008030 0.000000 0.030280
#
#
# Mechanical properties :
#
#
# Convention : Reuss Voigt Hill
#
# Bulk Modulus (GPa) = 15.07024 48.98685 32.02855
# Shear Modulus (GPa) = 18.36399 27.81626 23.09012
#
# Velocity S-wave (km/s) = 3.06834 3.77632 3.44059
# Velocity P-wave (km/s) = 4.50322 6.64292 5.67483
#
# Compressibility (1/GPa) = 0.06635595
#
# Stress axis : x y z
#
# Youngs Moduli (GPa) = 89.36523 44.01523 21.10671
#
# Poissons Ratio (x) = 0.19581 -0.01404
# Poissons Ratio (y) = 0.39755 0.07772
# Poissons Ratio (z) = -0.05944 0.16208
#
# Static dielectric constant tensor:
#      x y z
#    x 1.770450 0.000000 0.013580 
#    y 0.000000 1.694570 0.000000 
#    z 0.013580 0.000000 1.671010 
# 
# From -- ./inp_files/139420.got.cif
#   From: 2010.05.17/outbox.cif.g08.bks.cpg/sg15_70_cif.got.tgz:139420.got - 2010.06.03 18:47:42.
