data_PCOD9287094
_publ_section_title
;
Structure prediction by ZEFSAII (Michael W. Deem and Ramdas Pophale) SiO2 
 PCOD9287094
Probable space group: C 2/C
;
_chemical_formula_sum "Si O2"
_cell_formula_units_Z 40
_cell_length_a 29.948368
_cell_length_b 7.524631
_cell_length_c 9.060357
_cell_angle_alpha 90.000000
_cell_angle_beta 53.887668
_cell_angle_gamma 90.000000
_cell_volume 1649.458615
_symmetry_space_group_name_H-M "C 2/C"
_symmetry_group_IT_number 15
_symmetry_cell_setting 'monoclinic'
loop_
_space_group_symop_operation_xyz
x,y,z
-x,y,1/2-z
-x,-y,-z
x,-y,1/2+z
1/2+x,1/2+y,z
1/2-x,1/2+y,1/2-z
1/2-x,1/2-y,-z
1/2+x,1/2-y,1/2+z
loop_
_atom_site_type_symbol
_atom_site_label
_atom_site_fract_x
_atom_site_fract_y
_atom_site_fract_z
Si Si1 0.802542 0.210570 0.587007
Si Si2 0.000000 0.952382 0.750000
Si Si3 0.879916 0.549633 0.443963
Si Si4 0.684148 0.349011 0.780733
Si Si5 0.000000 0.538257 0.250000
Si Si6 0.949624 0.780857 0.132608
O O1 0.836326 0.393867 0.523916
O O2 0.739483 0.264820 0.746446
O O3 0.805393 0.142699 0.413430
O O4 0.823872 0.047986 0.644327
O O5 0.033043 0.851904 0.557887
O O6 0.045601 0.061525 0.756145
O O7 0.862805 0.704345 0.591177
O O8 0.894498 0.664974 0.267349
O O9 0.939185 0.461414 0.363558
O O10 0.001353 0.657749 0.395676
#
# Coordination Sequence:
#
# PCOD9287094 Si02
#       6
#     8   4   8   8   4   8
#     4  11  25  47  80 109 153 194 258 317 379 451
#     4   9  14  32  62 110 153 194 261 315 364 455
#     4  10  21  46  74 110 156 198 249 313 372 456
#     4  11  25  46  78 113 147 199 251 319 386 443
#     4   7  18  40  70  96 155 200 251 297 378 443
#     4   8  17  32  67 100 152 197 250 311 378 443
#
# _framework density 24.250381000000001
#
# number of rings (size 3 to 8) (size 9 to 14) (size 15 to 20)
#    1.200    1.200    2.000    0.000    0.000    4.000 
#    0.000    2.000    4.400    1.200    0.000    1.400 
#    0.000    0.000    0.000    0.000    0.000    0.000 
#
# Total GULP energy -111615.894738 kJ/mol
# GULP energy per Si atom -5580.794737 kJ/mol
# Density = 2.419519 g / cm^3
# Si number density = 24.250381 Si / 1000 Ang^3
#
#
#
# Elastic Constant Matrix: (Units=GPa)
#
#
# Indices 1 2 3 4 5 6 
#
# 1 43.4670 25.9870 18.5398 0.0000 -16.9415 0.0000
# 2 25.9870 149.1045 60.5932 0.0000 9.7016 0.0000
# 3 18.5398 60.5932 111.7382 0.0000 6.4145 0.0000
# 4 0.0000 0.0000 0.0000 35.2083 0.0000 3.3656
# 5 -16.9415 9.7016 6.4145 0.0000 37.1573 0.0000
# 6 0.0000 0.0000 0.0000 3.3656 0.0000 36.8787
#
#
#
# Elastic Compliance Matrix: (Units=1/GPa)
#
#
# Indices 1 2 3 4 5 6 
#
# 1 0.035148 -0.005791 -0.003735 0.000000 0.018182 0.000000
# 2 -0.005791 0.009635 -0.004008 0.000000 -0.004464 0.000000
# 3 -0.003735 -0.004008 0.011898 0.000000 -0.002711 0.000000
# 4 0.000000 0.000000 0.000000 0.028652 0.000000 -0.002615
# 5 0.018182 -0.004464 -0.002711 0.000000 0.036836 0.000000
# 6 0.000000 0.000000 0.000000 -0.002615 0.000000 0.027355
#
#
# Mechanical properties :
#
#
# Convention : Reuss Voigt Hill
#
# Bulk Modulus (GPa) = 33.76872 57.17219 45.47046
# Shear Modulus (GPa) = 26.81492 35.12816 30.97154
#
# Velocity S-wave (km/s) = 3.32889 3.81013 3.57761
# Velocity P-wave (km/s) = 5.36010 6.55615 5.98806
#
# Compressibility (1/GPa) = 0.02961320
#
# Stress axis : x y z
#
# Youngs Moduli (GPa) = 28.45122 103.78660 84.04620
#
# Poissons Ratio (x) = 0.60102 0.31394
# Poissons Ratio (y) = 0.16476 0.33684
# Poissons Ratio (z) = 0.10627 0.41596
#
# Static dielectric constant tensor:
#      x y z
#    x 1.991380 0.000000 0.059630 
#    y 0.000000 2.002360 0.000000 
#    z 0.059630 0.000000 1.986430 
# 
# From -- ./inp_files/68271.got.cif
#   From: 2010.05.17/outbox.cif.g08.bks.cpg/sg15_35_cif.got.tgz:68271.got - 2010.06.03 18:47:42.
