data_PCOD9287670
_publ_section_title
;
Structure prediction by ZEFSAII (Michael W. Deem and Ramdas Pophale) SiO2 
 PCOD9287670
Probable space group: C 2/C
;
_chemical_formula_sum "Si O2"
_cell_formula_units_Z 48
_cell_length_a 9.270736
_cell_length_b 21.010385
_cell_length_c 11.537816
_cell_angle_alpha 90.000000
_cell_angle_beta 107.509703
_cell_angle_gamma 90.000000
_cell_volume 2143.226836
_symmetry_space_group_name_H-M "C 2/C"
_symmetry_group_IT_number 15
_symmetry_cell_setting 'monoclinic'
loop_
_space_group_symop_operation_xyz
x,y,z
-x,y,1/2-z
-x,-y,-z
x,-y,1/2+z
1/2+x,1/2+y,z
1/2-x,1/2+y,1/2-z
1/2-x,1/2-y,-z
1/2+x,1/2-y,1/2+z
loop_
_atom_site_type_symbol
_atom_site_label
_atom_site_fract_x
_atom_site_fract_y
_atom_site_fract_z
Si Si1 0.173291 0.315165 0.254190
Si Si2 0.109394 0.108889 0.514689
Si Si3 0.756074 0.492644 0.439838
Si Si4 0.762001 0.698158 0.398501
Si Si5 0.370239 0.627296 0.636160
Si Si6 0.484123 0.091915 0.383235
O O1 0.268293 0.361222 0.364692
O O2 0.225140 0.242466 0.281689
O O3 0.219366 0.336443 0.136642
O O4 0.000000 0.321332 0.250000
O O5 0.135529 0.147068 0.402392
O O6 0.946158 0.123495 0.528876
O O7 0.157645 0.036783 0.500812
O O8 0.656281 0.446346 0.337655
O O9 0.859132 0.539085 0.388706
O O10 0.863636 0.441702 0.532170
O O11 0.750000 0.750000 0.500000
O O12 0.915454 0.657470 0.420429
O O13 0.500000 0.656136 0.750000
O O14 0.500000 0.100134 0.250000
#
# Coordination Sequence:
#
# PCOD9287670 Si02
#       6
#     8   8   8   8   8   8
#     4  10  22  37  64  88 120 170 218 256 314 384
#     4   9  20  40  59  87 127 160 204 268 321 374
#     4  10  22  38  64  94 128 166 210 265 327 387
#     4   9  20  40  59  81 125 162 207 270 313 360
#     4  10  22  37  62  93 122 166 207 257 325 387
#     4  10  23  38  63  97 125 168 211 271 317 385
#
# _framework density 22.396135999999998
#
# number of rings (size 3 to 8) (size 9 to 14) (size 15 to 20)
#    0.000    2.333    0.000    0.500   14.000    3.333 
#    3.000    2.500    0.000    0.000    0.000    0.000 
#    0.000    0.000    0.000    0.000    0.000    0.000 
#
# Total GULP energy -133699.185286 kJ/mol
# GULP energy per Si atom -5570.799387 kJ/mol
# Density = 2.234516 g / cm^3
# Si number density = 22.396136 Si / 1000 Ang^3
#
#
#
# Elastic Constant Matrix: (Units=GPa)
#
#
# Indices 1 2 3 4 5 6 
#
# 1 158.4361 74.7113 47.9845 0.0000 -29.9787 0.0000
# 2 74.7113 136.3018 44.6860 0.0000 -22.7901 0.0000
# 3 47.9845 44.6860 56.2047 0.0000 -29.0527 0.0000
# 4 0.0000 0.0000 0.0000 31.4876 0.0000 0.3653
# 5 -29.9787 -22.7901 -29.0527 0.0000 31.2086 0.0000
# 6 0.0000 0.0000 0.0000 0.3653 0.0000 19.8485
#
#
#
# Elastic Compliance Matrix: (Units=1/GPa)
#
#
# Indices 1 2 3 4 5 6 
#
# 1 0.009758 -0.003550 -0.003861 0.000000 0.003187 0.000000
# 2 -0.003550 0.011215 -0.006583 0.000000 -0.001348 0.000000
# 3 -0.003861 -0.006583 0.042252 0.000000 0.030817 0.000000
# 4 0.000000 0.000000 0.000000 0.031765 0.000000 -0.000585
# 5 0.003187 -0.001348 0.030817 0.000000 0.062807 0.000000
# 6 0.000000 0.000000 0.000000 -0.000585 0.000000 0.050392
#
#
# Mechanical properties :
#
#
# Convention : Reuss Voigt Hill
#
# Bulk Modulus (GPa) = 28.37943 76.18957 52.28450
# Shear Modulus (GPa) = 20.16748 28.74633 24.45690
#
# Velocity S-wave (km/s) = 3.00407 3.58654 3.30815
# Velocity P-wave (km/s) = 4.97309 7.15849 6.16342
#
# Compressibility (1/GPa) = 0.03523679
#
# Stress axis : x y z
#
# Youngs Moduli (GPa) = 102.47874 89.16405 23.66756
#
# Poissons Ratio (x) = 0.31653 0.09139
# Poissons Ratio (y) = 0.36380 0.15580
# Poissons Ratio (z) = 0.39570 0.58696
#
# Static dielectric constant tensor:
#      x y z
#    x 1.913210 0.000000 0.016590 
#    y 0.000000 1.833390 0.000000 
#    z 0.016590 0.000000 1.950180 
# 
# From -- ./inp_files/135477.got.cif
#   From: 2010.05.17/outbox.cif.g08.bks.cpg/sg15_68_cif.got.tgz:135477.got - 2010.06.03 18:47:42.
