data_PCOD9287903
_publ_section_title
;
Structure prediction by ZEFSAII (Michael W. Deem and Ramdas Pophale) SiO2 
 PCOD9287903
Probable space group: C 2/C
;
_chemical_formula_sum "Si O2"
_cell_formula_units_Z 32
_cell_length_a 5.128860
_cell_length_b 28.802418
_cell_length_c 10.453632
_cell_angle_alpha 90.000000
_cell_angle_beta 59.479797
_cell_angle_gamma 90.000000
_cell_volume 1330.292520
_symmetry_space_group_name_H-M "C 2/C"
_symmetry_group_IT_number 15
_symmetry_cell_setting 'monoclinic'
loop_
_space_group_symop_operation_xyz
x,y,z
-x,y,1/2-z
-x,-y,-z
x,-y,1/2+z
1/2+x,1/2+y,z
1/2-x,1/2+y,1/2-z
1/2-x,1/2-y,-z
1/2+x,1/2-y,1/2+z
loop_
_atom_site_type_symbol
_atom_site_label
_atom_site_fract_x
_atom_site_fract_y
_atom_site_fract_z
Si Si1 0.137068 0.331151 0.353979
Si Si2 0.362190 0.273259 0.645987
Si Si3 0.863485 0.965794 0.641043
Si Si4 0.750820 0.367569 0.922086
O O1 0.500000 0.332240 0.250000
O O2 0.042067 0.278559 0.418929
O O3 0.082784 0.366484 0.483116
O O4 0.000000 0.341936 0.250000
O O5 0.500000 0.281773 0.750000
O O6 0.425729 0.318529 0.545219
O O7 0.000000 0.269478 0.750000
O O8 0.500000 0.971555 0.750000
O O9 0.921485 0.914353 0.567898
O O10 0.000000 0.970425 0.750000
O O11 0.000000 0.000000 0.500000
O O12 0.000000 0.364794 0.750000
#
# Coordination Sequence:
#
# PCOD9287903 Si02
#       4
#     8   8   8   8
#     4  10  22  38  59  92 133 172 211 257 317 383
#     4   9  18  34  57  88 127 169 211 259 312 379
#     4  11  25  47  73 102 134 174 223 282 346 405
#     4  10  22  41  65  94 126 169 219 268 323 393
#
# _framework density 24.054862
#
# number of rings (size 3 to 8) (size 9 to 14) (size 15 to 20)
#    0.000    2.000    0.000    2.250    0.000    9.000 
#    0.000   17.500    0.000    0.000    0.000    0.000 
#    0.000    0.000    0.000    0.000    0.000    0.000 
#
# Total GULP energy -89541.629530 kJ/mol
# GULP energy per Si atom -5596.351846 kJ/mol
# Density = 2.400011 g / cm^3
# Si number density = 24.054862 Si / 1000 Ang^3
#
#
#
# Elastic Constant Matrix: (Units=GPa)
#
#
# Indices 1 2 3 4 5 6 
#
# 1 181.1425 53.3029 81.4287 0.0000 42.0913 0.0000
# 2 53.3029 109.0272 80.7614 0.0000 28.3694 0.0000
# 3 81.4287 80.7614 185.6917 0.0000 48.2385 0.0000
# 4 0.0000 0.0000 0.0000 2.3083 0.0000 4.6867
# 5 42.0913 28.3694 48.2385 0.0000 57.3185 0.0000
# 6 0.0000 0.0000 0.0000 4.6867 0.0000 25.4441
#
#
#
# Elastic Compliance Matrix: (Units=1/GPa)
#
#
# Indices 1 2 3 4 5 6 
#
# 1 0.007531 -0.001496 -0.001802 0.000000 -0.003274 0.000000
# 2 -0.001496 0.014055 -0.005036 0.000000 -0.001620 0.000000
# 3 -0.001802 -0.005036 0.009438 0.000000 -0.004127 0.000000
# 4 0.000000 0.000000 0.000000 0.692025 0.000000 -0.127469
# 5 -0.003274 -0.001620 -0.004127 0.000000 0.024126 0.000000
# 6 0.000000 0.000000 0.000000 -0.127469 0.000000 0.062781
#
#
# Mechanical properties :
#
#
# Convention : Reuss Voigt Hill
#
# Bulk Modulus (GPa) = 69.65024 100.76080 85.20552
# Shear Modulus (GPa) = 6.01389 34.37208 20.19298
#
# Velocity S-wave (km/s) = 1.58288 3.78419 2.90048
# Velocity P-wave (km/s) = 5.68843 7.81487 6.83486
#
# Compressibility (1/GPa) = 0.01435745
#
# Stress axis : x y z
#
# Youngs Moduli (GPa) = 132.78015 71.14736 105.95642
#
# Poissons Ratio (x) = 0.10640 0.19089
# Poissons Ratio (y) = 0.19858 0.53363
# Poissons Ratio (z) = 0.23922 0.35832
#
# Static dielectric constant tensor:
#      x y z
#    x 1.997340 0.000000 -0.039250 
#    y 0.000000 1.978350 0.000000 
#    z -0.039250 0.000000 1.911100 
# 
# From -- ./inp_files/19950.got.cif
#   From: 2010.05.17/outbox.cif.g08.bks.cpg/sg15_10_cif.got.tgz:19950.got - 2010.06.03 18:47:42.
