data_PCOD9287314
_publ_section_title
;
Structure prediction by ZEFSAII (Michael W. Deem and Ramdas Pophale) SiO2 
 PCOD9287314
Probable space group: C 2/C
;
_chemical_formula_sum "Si O2"
_cell_formula_units_Z 52
_cell_length_a 27.390392
_cell_length_b 9.015445
_cell_length_c 25.970400
_cell_angle_alpha 90.000000
_cell_angle_beta 23.396333
_cell_angle_gamma 90.000000
_cell_volume 2546.549239
_symmetry_space_group_name_H-M "C 2/C"
_symmetry_group_IT_number 15
_symmetry_cell_setting 'monoclinic'
loop_
_space_group_symop_operation_xyz
x,y,z
-x,y,1/2-z
-x,-y,-z
x,-y,1/2+z
1/2+x,1/2+y,z
1/2-x,1/2+y,1/2-z
1/2-x,1/2-y,-z
1/2+x,1/2-y,1/2+z
loop_
_atom_site_type_symbol
_atom_site_label
_atom_site_fract_x
_atom_site_fract_y
_atom_site_fract_z
Si Si1 0.189042 0.285610 0.114693
Si Si2 0.689125 0.032337 0.449573
Si Si3 0.652807 0.344995 0.124508
Si Si4 0.000000 0.902333 0.750000
Si Si5 0.654191 0.123526 0.874554
Si Si6 0.123591 0.351339 0.830514
Si Si7 0.072616 0.579544 0.262796
O O1 0.268566 0.200561 0.080623
O O2 0.160572 0.455491 0.153066
O O3 0.057210 0.201519 0.237803
O O4 0.250000 0.250000 0.000000
O O5 0.785153 0.931312 0.387979
O O6 0.680435 0.978987 0.399401
O O7 0.558308 0.997320 0.601819
O O8 0.602228 0.475903 0.137065
O O9 0.562273 0.225230 0.237885
O O10 0.750000 0.250000 0.000000
O O11 0.765759 0.240127 0.761964
O O12 0.646487 0.011613 0.834143
O O13 0.516598 0.191995 0.016468
O O14 0.121350 0.370420 0.771244
#
# Coordination Sequence:
#
# PCOD9287314 Si02
#       7
#     8   8   8   4   8   8   8
#     4  11  23  38  56  86 122 163 206 251 302 365
#     4  10  22  39  59  85 123 158 203 256 311 367
#     4  11  21  36  59  85 115 159 203 251 300 365
#     4  10  22  36  52  80 114 154 194 246 298 346
#     4  10  22  44  66  96 126 162 206 263 317 380
#     4  10  23  42  69  95 129 160 209 258 321 377
#     4  11  22  39  61  89 119 163 205 256 308 374
#
# _framework density 20.419788
#
# number of rings (size 3 to 8) (size 9 to 14) (size 15 to 20)
#    0.000    1.538    1.538    3.692    2.154    2.462 
#    0.000    1.538    0.000    0.000    0.000    0.000 
#    0.000    0.000    0.000    0.000    0.000    0.000 
#
# Total GULP energy -145070.131140 kJ/mol
# GULP energy per Si atom -5579.620428 kJ/mol
# Density = 2.037331 g / cm^3
# Si number density = 20.419788 Si / 1000 Ang^3
#
#
#
# Elastic Constant Matrix: (Units=GPa)
#
#
# Indices 1 2 3 4 5 6 
#
# 1 66.1934 20.3500 29.3707 -0.0039 -2.1381 0.0012
# 2 20.3500 97.4150 45.0992 -0.0088 -3.8509 0.0040
# 3 29.3707 45.0992 91.8475 -0.0062 -11.5453 0.0033
# 4 -0.0039 -0.0088 -0.0062 36.5699 0.0014 -9.5134
# 5 -2.1381 -3.8509 -11.5453 0.0014 31.5641 -0.0003
# 6 0.0012 0.0040 0.0033 -9.5134 -0.0003 29.2474
#
#
#
# Elastic Compliance Matrix: (Units=1/GPa)
#
#
# Indices 1 2 3 4 5 6 
#
# 1 0.017772 -0.001380 -0.005110 0.000001 -0.000834 0.000000
# 2 -0.001380 0.013412 -0.006237 0.000002 -0.000739 0.000000
# 3 -0.005110 -0.006237 0.016190 0.000000 0.004815 -0.000001
# 4 0.000001 0.000002 0.000000 0.029873 -0.000001 0.009717
# 5 -0.000834 -0.000739 0.004815 -0.000001 0.033296 0.000000
# 6 0.000000 0.000000 -0.000001 0.009717 0.000000 0.037352
#
#
# Mechanical properties :
#
#
# Convention : Reuss Voigt Hill
#
# Bulk Modulus (GPa) = 45.62254 49.45509 47.53881
# Shear Modulus (GPa) = 27.67708 30.18535 28.93122
#
# Velocity S-wave (km/s) = 3.68558 3.84896 3.76815
# Velocity P-wave (km/s) = 6.36413 6.63509 6.50102
#
# Compressibility (1/GPa) = 0.02191899
#
# Stress axis : x y z
#
# Youngs Moduli (GPa) = 56.26828 74.56038 61.76792
#
# Poissons Ratio (x) = 0.10286 0.31566
# Poissons Ratio (y) = 0.07763 0.38526
# Poissons Ratio (z) = 0.28756 0.46505
#
# Static dielectric constant tensor:
#      x y z
#    x 1.713760 0.000000 -0.056320 
#    y 0.000000 1.714410 0.000000 
#    z -0.056320 0.000000 1.853930 
# 
# From -- ./inp_files/125494.got.cif
#   From: 2010.05.17/outbox.cif.g08.bks.cpg/sg15_63_cif.got.tgz:125494.got - 2010.06.03 18:47:42.
