data_PCOD9287636
_publ_section_title
;
Structure prediction by ZEFSAII (Michael W. Deem and Ramdas Pophale) SiO2 
 PCOD9287636
Probable space group: C 2/C
;
_chemical_formula_sum "Si O2"
_cell_formula_units_Z 40
_cell_length_a 12.455506
_cell_length_b 29.082453
_cell_length_c 5.142158
_cell_angle_alpha 90.000000
_cell_angle_beta 111.299738
_cell_angle_gamma 90.000000
_cell_volume 1735.444014
_symmetry_space_group_name_H-M "C 2/C"
_symmetry_group_IT_number 15
_symmetry_cell_setting 'monoclinic'
loop_
_space_group_symop_operation_xyz
x,y,z
-x,y,1/2-z
-x,-y,-z
x,-y,1/2+z
1/2+x,1/2+y,z
1/2-x,1/2+y,1/2-z
1/2-x,1/2-y,-z
1/2+x,1/2-y,1/2+z
loop_
_atom_site_type_symbol
_atom_site_label
_atom_site_fract_x
_atom_site_fract_y
_atom_site_fract_z
Si Si1 0.281955 0.279798 0.278669
Si Si2 0.837930 0.107759 0.341336
Si Si3 0.872687 0.521674 0.905372
Si Si4 0.709564 0.882241 0.238099
Si Si5 0.000000 0.967990 0.750000
Si Si6 0.000000 0.816250 0.750000
O O1 0.250000 0.250000 0.500000
O O2 0.209361 0.327558 0.190384
O O3 0.415260 0.291513 0.469067
O O4 0.250000 0.250000 0.000000
O O5 0.812313 0.103063 0.623914
O O6 0.898501 0.066582 0.243067
O O7 0.916125 0.152011 0.350078
O O8 0.725363 0.114689 0.063522
O O9 0.812233 0.499441 0.603032
O O10 0.878813 0.576720 0.905666
O O11 0.000000 0.500000 0.000000
O O12 0.000000 0.000000 0.500000
#
# Coordination Sequence:
#
# PCOD9287636 Si02
#       6
#     8   8   8   8   4   4
#     4  11  24  42  68 101 131 174 231 292 361 431
#     4  10  22  37  61  86 119 173 210 257 339 403
#     4  10  22  40  62  88 125 174 220 270 337 410
#     4  11  22  40  64  91 125 168 225 280 335 422
#     4  11  22  34  50  86 126 152 200 262 312 379
#     4   9  22  44  64  90 136 174 216 282 354 421
#
# _framework density 23.048856000000001
#
# number of rings (size 3 to 8) (size 9 to 14) (size 15 to 20)
#    0.000    1.600    0.000    4.800    0.000   15.200 
#    0.000    6.000    0.000    0.000    0.000    0.000 
#    0.000    0.000    0.000    0.000    0.000    0.000 
#
# Total GULP energy -111440.291429 kJ/mol
# GULP energy per Si atom -5572.014571 kJ/mol
# Density = 2.299640 g / cm^3
# Si number density = 23.048856 Si / 1000 Ang^3
#
#
#
# Elastic Constant Matrix: (Units=GPa)
#
#
# Indices 1 2 3 4 5 6 
#
# 1 49.8803 32.9259 29.7556 0.0000 0.9007 0.0000
# 2 32.9259 201.2381 71.6841 0.0000 10.6752 0.0000
# 3 29.7556 71.6841 172.1163 0.0000 -28.2134 0.0000
# 4 0.0000 0.0000 0.0000 43.9710 0.0000 6.4213
# 5 0.9007 10.6752 -28.2134 0.0000 40.0270 0.0000
# 6 0.0000 0.0000 0.0000 6.4213 0.0000 38.8470
#
#
#
# Elastic Compliance Matrix: (Units=1/GPa)
#
#
# Indices 1 2 3 4 5 6 
#
# 1 0.023820 -0.002557 -0.003425 0.000000 -0.002268 0.000000
# 2 -0.002557 0.006637 -0.002943 0.000000 -0.003787 0.000000
# 3 -0.003425 -0.002943 0.008784 0.000000 0.007053 0.000000
# 4 0.000000 0.000000 0.000000 0.023305 0.000000 -0.003852
# 5 -0.002268 -0.003787 0.007053 0.000000 0.031016 0.000000
# 6 0.000000 0.000000 0.000000 -0.003852 0.000000 0.026379
#
#
# Mechanical properties :
#
#
# Convention : Reuss Voigt Hill
#
# Bulk Modulus (GPa) = 46.74795 76.88508 61.81652
# Shear Modulus (GPa) = 34.50191 43.82694 39.16442
#
# Velocity S-wave (km/s) = 3.87318 4.36533 4.12660
# Velocity P-wave (km/s) = 6.35045 7.67059 7.04153
#
# Compressibility (1/GPa) = 0.02139131
#
# Stress axis : x y z
#
# Youngs Moduli (GPa) = 41.98173 150.67617 113.84445
#
# Poissons Ratio (x) = 0.38529 0.38989
# Poissons Ratio (y) = 0.10735 0.33502
# Poissons Ratio (z) = 0.14378 0.44341
#
# Static dielectric constant tensor:
#      x y z
#    x 1.873480 0.000000 0.008570 
#    y 0.000000 1.961680 0.000000 
#    z 0.008570 0.000000 2.161430 
# 
# From -- ./inp_files/7672.got.cif
#   From: 2010.05.17/outbox.cif.g08.bks.cpg/sg15_4_cif.got.tgz:7672.got - 2010.06.03 18:47:42.
