data_PCOD9287617
_publ_section_title
;
Structure prediction by ZEFSAII (Michael W. Deem and Ramdas Pophale) SiO2 
 PCOD9287617
Probable space group: C 2/C
;
_chemical_formula_sum "Si O2"
_cell_formula_units_Z 48
_cell_length_a 30.554864
_cell_length_b 8.578060
_cell_length_c 17.167051
_cell_angle_alpha 90.000000
_cell_angle_beta 29.174722
_cell_angle_gamma 90.000000
_cell_volume 2193.395901
_symmetry_space_group_name_H-M "C 2/C"
_symmetry_group_IT_number 15
_symmetry_cell_setting 'monoclinic'
loop_
_space_group_symop_operation_xyz
x,y,z
-x,y,1/2-z
-x,-y,-z
x,-y,1/2+z
1/2+x,1/2+y,z
1/2-x,1/2+y,1/2-z
1/2-x,1/2-y,-z
1/2+x,1/2-y,1/2+z
loop_
_atom_site_type_symbol
_atom_site_label
_atom_site_fract_x
_atom_site_fract_y
_atom_site_fract_z
Si Si1 0.860606 0.029664 0.225167
Si Si2 0.510946 0.238605 0.465341
Si Si3 0.428060 0.105062 0.294802
Si Si4 0.157511 0.555011 0.320196
Si Si5 0.779336 0.573673 0.941076
Si Si6 0.218733 0.349080 0.359202
O O1 0.808420 0.992466 0.386094
O O2 0.930507 0.891314 0.107057
O O3 0.782153 0.994870 0.285607
O O4 0.911087 0.195550 0.138563
O O5 0.530472 0.192894 0.344813
O O6 0.557633 0.110786 0.449651
O O7 0.500000 0.062547 0.250000
O O8 0.350315 0.195305 0.464427
O O9 0.369332 0.963984 0.350199
O O10 0.203244 0.489666 0.171237
O O11 0.162640 0.419289 0.375378
O O12 0.214634 0.705379 0.258441
O O13 0.750000 0.750000 0.000000
#
# Coordination Sequence:
#
# PCOD9287617 Si02
#       6
#     8   8   8   8   8   8
#     4   9  19  38  63  86 124 162 213 255 315 378
#     4   9  19  39  63  91 120 166 207 262 314 379
#     4  10  22  37  59  91 129 160 210 264 323 372
#     4  10  22  38  63  92 126 168 214 261 319 379
#     4  10  22  39  62  88 123 170 209 259 319 382
#     4  10  22  37  62  91 127 168 214 264 316 380
#
# _framework density 21.883875
#
# number of rings (size 3 to 8) (size 9 to 14) (size 15 to 20)
#    0.000    2.333    0.000    1.000    7.000    5.333 
#    0.000    3.333    0.000    0.000    0.000    0.000 
#    0.000    0.000    0.000    0.000    0.000    0.000 
#
# Total GULP energy -133805.886388 kJ/mol
# GULP energy per Si atom -5575.245266 kJ/mol
# Density = 2.183407 g / cm^3
# Si number density = 21.883875 Si / 1000 Ang^3
#
#
#
# Elastic Constant Matrix: (Units=GPa)
#
#
# Indices 1 2 3 4 5 6 
#
# 1 134.3559 53.7086 49.1122 0.0000 -0.3893 0.0000
# 2 53.7086 76.7095 37.7175 -0.0003 -8.4689 0.0000
# 3 49.1122 37.7175 122.1996 -0.0002 -10.1248 0.0000
# 4 0.0000 -0.0003 -0.0002 41.9608 -0.0001 -8.6822
# 5 -0.3893 -8.4689 -10.1248 -0.0001 27.0686 0.0000
# 6 0.0000 0.0000 0.0000 -8.6822 0.0000 35.6877
#
#
#
# Elastic Compliance Matrix: (Units=1/GPa)
#
#
# Indices 1 2 3 4 5 6 
#
# 1 0.011116 -0.006828 -0.002604 0.000000 -0.002951 0.000000
# 2 -0.006828 0.019824 -0.002961 0.000000 0.004997 0.000000
# 3 -0.002604 -0.002961 0.010386 0.000000 0.002921 0.000000
# 4 0.000000 0.000000 0.000000 0.025095 0.000000 0.006105
# 5 -0.002951 0.004997 0.002921 0.000000 0.039557 0.000000
# 6 0.000000 0.000000 0.000000 0.006105 0.000000 0.029506
#
#
# Mechanical properties :
#
#
# Convention : Reuss Voigt Hill
#
# Bulk Modulus (GPa) = 60.46027 68.26017 64.36022
# Shear Modulus (GPa) = 30.15987 33.79188 31.97588
#
# Velocity S-wave (km/s) = 3.71641 3.93382 3.82666
# Velocity P-wave (km/s) = 6.78994 7.20368 6.99987
#
# Compressibility (1/GPa) = 0.01653979
#
# Stress axis : x y z
#
# Youngs Moduli (GPa) = 89.96144 50.44330 96.28433
#
# Poissons Ratio (x) = 0.34443 0.25077
# Poissons Ratio (y) = 0.61426 0.28507
# Poissons Ratio (z) = 0.23430 0.14935
#
# Static dielectric constant tensor:
#      x y z
#    x 1.835030 0.000000 -0.006150 
#    y 0.000000 1.845930 0.000000 
#    z -0.006150 0.000000 1.897680 
# 
# From -- ./inp_files/208962.got.cif
#   From: 2010.05.17/outbox.cif.g08.bks.cpg/sg15_105_cif.got.tgz:208962.got - 2010.06.03 18:47:42.
