data_PCOD9287530
_publ_section_title
;
Structure prediction by ZEFSAII (Michael W. Deem and Ramdas Pophale) SiO2 
 PCOD9287530
Probable space group: C 2/C
;
_chemical_formula_sum "Si O2"
_cell_formula_units_Z 28
_cell_length_a 15.575785
_cell_length_b 14.804213
_cell_length_c 7.260584
_cell_angle_alpha 90.000000
_cell_angle_beta 42.066883
_cell_angle_gamma 90.000000
_cell_volume 1121.708727
_symmetry_space_group_name_H-M "C 2/C"
_symmetry_group_IT_number 15
_symmetry_cell_setting 'monoclinic'
loop_
_space_group_symop_operation_xyz
x,y,z
-x,y,1/2-z
-x,-y,-z
x,-y,1/2+z
1/2+x,1/2+y,z
1/2-x,1/2+y,1/2-z
1/2-x,1/2-y,-z
1/2+x,1/2-y,1/2+z
loop_
_atom_site_type_symbol
_atom_site_label
_atom_site_fract_x
_atom_site_fract_y
_atom_site_fract_z
Si Si1 0.406723 0.302719 0.675529
Si Si2 0.249392 0.093342 0.345821
Si Si3 0.500000 0.138413 0.750000
Si Si4 0.166422 0.899946 0.363528
O O1 0.332253 0.324343 0.609139
O O2 0.458229 0.205330 0.650221
O O3 0.529382 0.369942 0.497833
O O4 0.316808 0.334706 0.988931
O O5 0.264179 0.107445 0.539109
O O6 0.172354 0.001018 0.431747
O O7 0.380360 0.085467 0.022699
#
# Coordination Sequence:
#
# PCOD9287530 Si02
#       4
#     8   8   4   8
#     4  10  23  42  62  94 118 157 209 255 290 363
#     4  12  21  41  64  91 123 161 201 254 295 363
#     4  10  26  40  60  90 132 160 194 246 320 356
#     4  10  22  36  69  92 113 157 212 246 299 346
#
# _framework density 24.961919999999999
#
# number of rings (size 3 to 8) (size 9 to 14) (size 15 to 20)
#    0.000    1.714    2.857    2.571    4.000    5.714 
#    0.000    5.714    0.000    0.000    0.000    0.000 
#    0.000    0.000    0.000    0.000    0.000    0.000 
#
# Total GULP energy -78380.967018 kJ/mol
# GULP energy per Si atom -5598.640501 kJ/mol
# Density = 2.490511 g / cm^3
# Si number density = 24.961920 Si / 1000 Ang^3
#
#
#
# Elastic Constant Matrix: (Units=GPa)
#
#
# Indices 1 2 3 4 5 6 
#
# 1 56.7592 7.5412 11.8222 0.0000 13.4268 0.0000
# 2 7.5412 65.1891 15.4478 0.0000 0.9247 0.0000
# 3 11.8222 15.4478 104.6889 0.0000 6.2806 0.0000
# 4 0.0000 0.0000 0.0000 38.9740 0.0000 -5.1488
# 5 13.4268 0.9247 6.2806 0.0000 51.0453 0.0000
# 6 0.0000 0.0000 0.0000 -5.1488 0.0000 7.7847
#
#
#
# Elastic Compliance Matrix: (Units=1/GPa)
#
#
# Indices 1 2 3 4 5 6 
#
# 1 0.019343 -0.001782 -0.001630 0.000000 -0.004855 0.000000
# 2 -0.001782 0.016060 -0.002195 0.000000 0.000448 0.000000
# 3 -0.001630 -0.002195 0.010107 0.000000 -0.000775 0.000000
# 4 0.000000 0.000000 0.000000 0.028115 0.000000 0.018595
# 5 -0.004855 0.000448 -0.000775 0.000000 0.020955 0.000000
# 6 0.000000 0.000000 0.000000 0.018595 0.000000 0.140756
#
#
# Mechanical properties :
#
#
# Convention : Reuss Voigt Hill
#
# Bulk Modulus (GPa) = 29.15969 32.91774 31.03871
# Shear Modulus (GPa) = 19.38116 32.34920 25.86518
#
# Velocity S-wave (km/s) = 2.78947 3.60382 3.22248
# Velocity P-wave (km/s) = 4.69914 5.52563 5.12906
#
# Compressibility (1/GPa) = 0.03429392
#
# Stress axis : x y z
#
# Youngs Moduli (GPa) = 51.69791 62.26622 98.94488
#
# Poissons Ratio (x) = 0.11099 0.16129
# Poissons Ratio (y) = 0.09215 0.21722
# Poissons Ratio (z) = 0.08427 0.13670
#
# Static dielectric constant tensor:
#      x y z
#    x 1.957230 0.000000 -0.032410 
#    y 0.000000 1.952170 0.000000 
#    z -0.032410 0.000000 2.038140 
# 
# From -- ./inp_files/21605.got.cif
#   From: 2010.05.17/outbox.cif.g08.bks.cpg/sg15_11_cif.got.tgz:21605.got - 2010.06.03 18:47:42.
