data_PCOD9287843
_publ_section_title
;
Structure prediction by ZEFSAII (Michael W. Deem and Ramdas Pophale) SiO2 
 PCOD9287843
Probable space group: C 2/C
;
_chemical_formula_sum "Si O2"
_cell_formula_units_Z 64
_cell_length_a 9.746082
_cell_length_b 23.993710
_cell_length_c 20.309679
_cell_angle_alpha 90.000000
_cell_angle_beta 140.895452
_cell_angle_gamma 90.000000
_cell_volume 2995.567524
_symmetry_space_group_name_H-M "C 2/C"
_symmetry_group_IT_number 15
_symmetry_cell_setting 'monoclinic'
loop_
_space_group_symop_operation_xyz
x,y,z
-x,y,1/2-z
-x,-y,-z
x,-y,1/2+z
1/2+x,1/2+y,z
1/2-x,1/2+y,1/2-z
1/2-x,1/2-y,-z
1/2+x,1/2-y,1/2+z
loop_
_atom_site_type_symbol
_atom_site_label
_atom_site_fract_x
_atom_site_fract_y
_atom_site_fract_z
Si Si1 0.528546 0.101889 0.400355
Si Si2 0.360510 0.313434 0.765131
Si Si3 0.473581 0.938332 0.017595
Si Si4 0.841541 0.916406 0.253535
Si Si5 0.568406 0.434716 0.529288
Si Si6 0.200259 0.137748 0.490217
Si Si7 0.186648 0.513309 0.269651
Si Si8 0.101027 0.683537 0.716046
O O1 0.364944 0.151734 0.320107
O O2 0.550401 0.100718 0.486899
O O3 0.769582 0.093838 0.461677
O O4 0.413280 0.045470 0.329872
O O5 0.500000 0.326133 0.750000
O O6 0.323206 0.247285 0.753040
O O7 0.512826 0.327506 0.884552
O O8 0.612377 0.931799 0.134649
O O9 0.246270 0.912930 0.955677
O O10 0.500000 0.000000 0.000000
O O11 0.861101 0.966729 0.312907
O O12 0.798802 0.857798 0.271824
O O13 0.000000 0.916571 0.250000
O O14 0.500000 0.500000 0.500000
O O15 0.371356 0.394154 0.470586
O O16 0.709281 0.437694 0.648730
O O17 0.411088 0.173740 0.589979
O O18 0.000000 0.489615 0.250000
O O19 0.000000 0.670276 0.750000
#
# Coordination Sequence:
#
# PCOD9287843 Si02
#       8
#     8   8   8   8   8   8   8   8
#     4  11  22  40  62  98 132 167 217 263 328 388
#     4  11  22  44  70  92 126 170 227 280 323 388
#     4  11  22  37  60  93 133 161 200 262 327 395
#     4  11  25  39  62  92 127 169 213 269 327 389
#     4  11  25  37  62  98 134 173 209 261 326 403
#     4  11  23  40  66  96 124 170 222 265 328 393
#     4  10  22  38  58  87 130 171 209 247 320 401
#     4  10  25  45  68  87 124 177 224 273 329 394
#
# _framework density 21.364901
#
# number of rings (size 3 to 8) (size 9 to 14) (size 15 to 20)
#    0.000    1.250    3.750    1.500   10.500    0.500 
#    2.250    0.000    0.000    2.250    0.000    0.000 
#    0.000    0.000    0.000    0.000    0.000    0.000 
#
# Total GULP energy -178438.475525 kJ/mol
# GULP energy per Si atom -5576.202360 kJ/mol
# Density = 2.131627 g / cm^3
# Si number density = 21.364901 Si / 1000 Ang^3
#
#
#
# Elastic Constant Matrix: (Units=GPa)
#
#
# Indices 1 2 3 4 5 6 
#
# 1 120.5720 57.0781 -5.6074 -0.0021 12.1011 0.0005
# 2 57.0781 116.3147 13.1480 -0.0007 12.3592 0.0002
# 3 -5.6074 13.1480 38.8898 -0.0004 -15.9681 0.0002
# 4 -0.0021 -0.0007 -0.0004 -181.7899 -0.0008 61.9355
# 5 12.1011 12.3592 -15.9681 -0.0008 23.0998 0.0002
# 6 0.0005 0.0002 0.0002 61.9355 0.0002 16.8638
#
#
#
# Elastic Compliance Matrix: (Units=1/GPa)
#
#
# Indices 1 2 3 4 5 6 
#
# 1 0.011279 -0.005889 0.003470 0.000000 -0.000359 0.000000
# 2 -0.005889 0.013850 -0.010203 0.000000 -0.011378 0.000000
# 3 0.003470 -0.010203 0.043508 0.000000 0.033717 0.000000
# 4 0.000000 0.000000 0.000000 -0.002443 0.000000 0.008974
# 5 -0.000359 -0.011378 0.033717 0.000000 0.072874 0.000000
# 6 0.000000 0.000000 0.000000 0.008974 0.000000 0.026340
#
#
# Mechanical properties :
#
#
# Convention : Reuss Voigt Hill
#
# Bulk Modulus (GPa) = 23.04623 45.00156 34.02390
# Shear Modulus (GPa) = 24.37658 -14.28808 5.04425
#
# Velocity S-wave (km/s) = 3.38148 -2.58885 1.53822
# Velocity P-wave (km/s) = 5.10453 3.48896 4.37202
#
# Compressibility (1/GPa) = 0.04339104
#
# Stress axis : x y z
#
# Youngs Moduli (GPa) = 88.66046 72.20470 22.98452
#
# Poissons Ratio (x) = 0.42520 -0.07975
# Poissons Ratio (y) = 0.52211 0.23452
# Poissons Ratio (z) = -0.30762 0.73672
#
# Static dielectric constant tensor:
#      x y z
#    x 1.860510 0.000000 0.028800 
#    y 0.000000 1.768940 0.000000 
#    z 0.028800 0.000000 1.850570 
# 
# From -- ./inp_files/234475.got.cif
#   From: 2010.05.17/outbox.cif.g08.bks.cpg/sg15_118_cif.got.tgz:234475.got - 2010.06.03 18:47:42.
