data_PCOD9287097
_publ_section_title
;
Structure prediction by ZEFSAII (Michael W. Deem and Ramdas Pophale) SiO2 
 PCOD9287097
Probable space group: C 2/C
;
_chemical_formula_sum "Si O2"
_cell_formula_units_Z 36
_cell_length_a 16.800252
_cell_length_b 8.758255
_cell_length_c 12.815841
_cell_angle_alpha 90.000000
_cell_angle_beta 41.592467
_cell_angle_gamma 90.000000
_cell_volume 1251.802997
_symmetry_space_group_name_H-M "C 2/C"
_symmetry_group_IT_number 15
_symmetry_cell_setting 'monoclinic'
loop_
_space_group_symop_operation_xyz
x,y,z
-x,y,1/2-z
-x,-y,-z
x,-y,1/2+z
1/2+x,1/2+y,z
1/2-x,1/2+y,1/2-z
1/2-x,1/2-y,-z
1/2+x,1/2-y,1/2+z
loop_
_atom_site_type_symbol
_atom_site_label
_atom_site_fract_x
_atom_site_fract_y
_atom_site_fract_z
Si Si1 0.642391 0.903446 0.605728
Si Si2 0.410024 0.620451 0.697843
Si Si3 0.289211 0.641822 0.593003
Si Si4 0.908512 0.639144 0.563493
Si Si5 0.000000 0.151026 0.250000
O O1 0.500000 0.952547 0.750000
O O2 0.642161 0.739852 0.664387
O O3 0.671053 0.921741 0.455048
O O4 0.734925 0.002639 0.581305
O O5 0.354038 0.601799 0.637851
O O6 0.527399 0.718873 0.551674
O O7 0.444988 0.465969 0.719673
O O8 0.165250 0.700881 0.765873
O O9 0.386587 0.726030 0.423274
O O10 0.000000 0.500000 0.500000
#
# Coordination Sequence:
#
# PCOD9287097 Si02
#       5
#     8   8   8   8   4
#     4  10  21  46  75 109 142 197 247 309 366 454
#     4  11  24  46  78 111 148 198 257 302 382 440
#     4  12  26  43  76 109 156 189 254 314 373 445
#     4  11  22  45  77 110 143 196 255 302 368 454
#     4  12  26  48  70 116 156 198 248 316 384 436
#
# _framework density 28.758520000000001
#
# number of rings (size 3 to 8) (size 9 to 14) (size 15 to 20)
#    0.000    0.889    7.778    2.000    3.111    1.778 
#    0.000    4.444    0.000    0.000    0.000    0.000 
#    0.000    0.000    0.000    0.000    0.000    0.000 
#
# Total GULP energy -100744.208849 kJ/mol
# GULP energy per Si atom -5596.900492 kJ/mol
# Density = 2.869306 g / cm^3
# Si number density = 28.758520 Si / 1000 Ang^3
#
#
#
# Elastic Constant Matrix: (Units=GPa)
#
#
# Indices 1 2 3 4 5 6 
#
# 1 188.7610 56.5486 23.0452 0.0000 44.6794 0.0000
# 2 56.5486 91.6086 49.2741 0.0000 11.2113 0.0000
# 3 23.0452 49.2741 299.1830 0.0000 15.5426 0.0000
# 4 0.0000 0.0000 0.0000 36.3508 0.0000 -1.1561
# 5 44.6794 11.2113 15.5426 0.0000 57.0802 0.0000
# 6 0.0000 0.0000 0.0000 -1.1561 0.0000 38.8780
#
#
#
# Elastic Compliance Matrix: (Units=1/GPa)
#
#
# Indices 1 2 3 4 5 6 
#
# 1 0.007840 -0.004396 0.000400 0.000000 -0.005382 0.000000
# 2 -0.004396 0.014635 -0.002131 0.000000 0.001146 0.000000
# 3 0.000400 -0.002131 0.003710 0.000000 -0.000904 0.000000
# 4 0.000000 0.000000 0.000000 0.027536 0.000000 0.000819
# 5 -0.005382 0.001146 -0.000904 0.000000 0.021753 0.000000
# 6 0.000000 0.000000 0.000000 0.000819 0.000000 0.025746
#
#
# Mechanical properties :
#
#
# Convention : Reuss Voigt Hill
#
# Bulk Modulus (GPa) = 71.78683 93.03203 82.40943
# Shear Modulus (GPa) = 42.33080 56.50744 49.41912
#
# Velocity S-wave (km/s) = 3.84075 4.43752 4.14988
# Velocity P-wave (km/s) = 6.68465 7.65997 7.18887
#
# Compressibility (1/GPa) = 0.01393013
#
# Stress axis : x y z
#
# Youngs Moduli (GPa) = 127.55710 68.32725 269.56666
#
# Poissons Ratio (x) = 0.30034 -0.10774
# Poissons Ratio (y) = 0.56069 0.57455
# Poissons Ratio (z) = -0.05098 0.14563
#
# Static dielectric constant tensor:
#      x y z
#    x 2.397740 0.000000 -0.208120 
#    y 0.000000 2.132700 0.000000 
#    z -0.208120 0.000000 2.468270 
# 
# From -- ./inp_files/103534.got.cif
#   From: 2010.05.17/outbox.cif.g08.bks.cpg/sg15_52_cif.got.tgz:103534.got - 2010.06.03 18:47:42.
