data_PCOD9287955
_publ_section_title
;
Structure prediction by ZEFSAII (Michael W. Deem and Ramdas Pophale) SiO2 
 PCOD9287955
Probable space group: C 2/C
;
_chemical_formula_sum "Si O2"
_cell_formula_units_Z 60
_cell_length_a 19.904015
_cell_length_b 12.747359
_cell_length_c 13.713229
_cell_angle_alpha 90.000000
_cell_angle_beta 54.416807
_cell_angle_gamma 90.000000
_cell_volume 2829.672543
_symmetry_space_group_name_H-M "C 2/C"
_symmetry_group_IT_number 15
_symmetry_cell_setting 'monoclinic'
loop_
_space_group_symop_operation_xyz
x,y,z
-x,y,1/2-z
-x,-y,-z
x,-y,1/2+z
1/2+x,1/2+y,z
1/2-x,1/2+y,1/2-z
1/2-x,1/2-y,-z
1/2+x,1/2-y,1/2+z
loop_
_atom_site_type_symbol
_atom_site_label
_atom_site_fract_x
_atom_site_fract_y
_atom_site_fract_z
Si Si1 0.167025 0.172127 0.291717
Si Si2 0.185656 0.621139 0.688217
Si Si3 0.509071 0.299343 0.457337
Si Si4 0.241493 0.300223 0.402665
Si Si5 0.998199 0.407818 0.424749
Si Si6 0.128607 0.464248 0.588898
Si Si7 0.338268 0.567616 0.700819
Si Si8 0.500000 0.796471 0.750000
O O1 0.184561 0.251375 0.187107
O O2 0.221438 0.215511 0.336415
O O3 0.075837 0.177149 0.415487
O O4 0.176215 0.051726 0.258561
O O5 0.092617 0.604526 0.809305
O O6 0.190800 0.537103 0.596944
O O7 0.262818 0.595020 0.692321
O O8 0.537498 0.194799 0.491306
O O9 0.573745 0.394260 0.413485
O O10 0.493093 0.267896 0.357190
O O11 0.250000 0.250000 0.500000
O O12 0.173015 0.393117 0.469009
O O13 0.325447 0.357734 0.304333
O O14 0.000000 0.500000 0.500000
O O15 0.936911 0.451532 0.395204
O O16 0.078201 0.376161 0.691958
#
# Coordination Sequence:
#
# PCOD9287955 Si02
#       8
#     8   8   8   8   8   8   8   4
#     4  10  22  43  62  86 129 170 213 259 321 390
#     4  10  22  38  60  92 127 162 208 267 326 376
#     4  11  23  39  63  91 123 167 222 258 315 388
#     4  11  23  39  62  95 128 161 215 273 320 376
#     4  11  19  36  62  92 122 158 210 267 322 374
#     4  12  20  37  65  95 127 163 211 270 320 382
#     4  11  24  41  62  88 128 176 205 262 331 383
#     4  12  20  36  68  96 118 158 224 272 306 368
#
# _framework density 21.203866000000001
#
# number of rings (size 3 to 8) (size 9 to 14) (size 15 to 20)
#    0.000    1.067    4.000    3.600    0.000    5.333 
#    0.000    4.000    5.867    0.000    0.000    0.000 
#    0.000    0.000    0.000    0.000    0.000    0.000 
#
# Total GULP energy -167307.517229 kJ/mol
# GULP energy per Si atom -5576.917241 kJ/mol
# Density = 2.115561 g / cm^3
# Si number density = 21.203866 Si / 1000 Ang^3
#
#
#
# Elastic Constant Matrix: (Units=GPa)
#
#
# Indices 1 2 3 4 5 6 
#
# 1 59.3918 22.5844 -1.4734 0.0000 11.5733 0.0000
# 2 22.5844 116.9632 -6.1412 0.0000 3.5794 0.0000
# 3 -1.4734 -6.1412 22.7470 0.0000 3.3713 0.0000
# 4 0.0000 0.0000 0.0000 25.2732 0.0000 -0.5889
# 5 11.5733 3.5794 3.3713 0.0000 24.9764 0.0000
# 6 0.0000 0.0000 0.0000 -0.5889 0.0000 27.6671
#
#
#
# Elastic Compliance Matrix: (Units=1/GPa)
#
#
# Indices 1 2 3 4 5 6 
#
# 1 0.019955 -0.003490 0.001680 0.000000 -0.008973 0.000000
# 2 -0.003490 0.009345 0.002302 0.000000 -0.000033 0.000000
# 3 0.001680 0.002302 0.045772 0.000000 -0.007287 0.000000
# 4 0.000000 0.000000 0.000000 0.039587 0.000000 0.000843
# 5 -0.008973 -0.000033 -0.007287 0.000000 0.045184 0.000000
# 6 0.000000 0.000000 0.000000 0.000843 0.000000 0.036162
#
#
# Mechanical properties :
#
#
# Convention : Reuss Voigt Hill
#
# Bulk Modulus (GPa) = 13.14828 25.44908 19.29868
# Shear Modulus (GPa) = 22.68872 27.85882 25.27377
#
# Velocity S-wave (km/s) = 3.27468 3.62865 3.45620
# Velocity P-wave (km/s) = 4.52906 5.43914 5.00483
#
# Compressibility (1/GPa) = 0.07605560
#
# Stress axis : x y z
#
# Youngs Moduli (GPa) = 50.11337 107.00353 21.84742
#
# Poissons Ratio (x) = 0.37347 -0.03671
# Poissons Ratio (y) = 0.17491 -0.05029
# Poissons Ratio (z) = -0.08419 -0.24631
#
# Static dielectric constant tensor:
#      x y z
#    x 1.287530 0.000000 -0.329440 
#    y 0.000000 1.777380 0.000000 
#    z -0.329440 0.000000 1.640210 
# 
# From -- ./inp_files/167603.got.cif
#   From: 2010.05.17/outbox.cif.g08.bks.cpg/sg15_84_cif.got.tgz:167603.got - 2010.06.03 18:47:42.
