data_PCOD9287419
_publ_section_title
;
Structure prediction by ZEFSAII (Michael W. Deem and Ramdas Pophale) SiO2 
 PCOD9287419
Probable space group: C 2/C
;
_chemical_formula_sum "Si O2"
_cell_formula_units_Z 40
_cell_length_a 23.017885
_cell_length_b 8.660939
_cell_length_c 28.217066
_cell_angle_alpha 90.000000
_cell_angle_beta 19.736761
_cell_angle_gamma 90.000000
_cell_volume 1899.644476
_symmetry_space_group_name_H-M "C 2/C"
_symmetry_group_IT_number 15
_symmetry_cell_setting 'monoclinic'
loop_
_space_group_symop_operation_xyz
x,y,z
-x,y,1/2-z
-x,-y,-z
x,-y,1/2+z
1/2+x,1/2+y,z
1/2-x,1/2+y,1/2-z
1/2-x,1/2-y,-z
1/2+x,1/2-y,1/2+z
loop_
_atom_site_type_symbol
_atom_site_label
_atom_site_fract_x
_atom_site_fract_y
_atom_site_fract_z
Si Si1 0.223788 0.085842 0.355027
Si Si2 0.167595 0.432464 0.398845
Si Si3 0.489837 0.156732 0.662476
Si Si4 0.166325 0.112718 0.143386
Si Si5 0.915588 0.087817 0.140463
O O1 0.161672 0.254465 0.418029
O O2 0.204679 0.099291 0.313002
O O3 0.409058 0.013877 0.222919
O O4 0.094785 0.963591 0.479101
O O5 0.217996 0.526569 0.406566
O O6 0.329995 0.459040 0.239304
O O7 0.000000 0.500000 0.500000
O O8 0.694399 0.152744 0.502920
O O9 0.416872 0.244521 0.764253
O O10 0.430493 0.259815 0.661888
O O11 0.000000 0.025841 0.250000
#
# Coordination Sequence:
#
# PCOD9287419 Si02
#       5
#     8   8   8   8   8
#     4  11  22  37  63  96 130 172 210 270 329 387
#     4  11  25  40  65  96 133 171 216 269 328 392
#     4  11  22  43  64  94 126 173 223 266 330 386
#     4  11  24  44  67  92 132 174 220 273 330 392
#     4  10  22  36  60  94 131 164 213 266 327 386
#
# _framework density 21.056571999999999
#
# number of rings (size 3 to 8) (size 9 to 14) (size 15 to 20)
#    0.000    1.200    2.000    4.200   14.000    0.000 
#    0.000    2.000    0.000    0.000    0.000    0.000 
#    0.000    0.000    0.000    0.000    0.000    0.000 
#
# Total GULP energy -111597.128099 kJ/mol
# GULP energy per Si atom -5579.856405 kJ/mol
# Density = 2.100865 g / cm^3
# Si number density = 21.056572 Si / 1000 Ang^3
#
#
#
# Elastic Constant Matrix: (Units=GPa)
#
#
# Indices 1 2 3 4 5 6 
#
# 1 73.3410 23.8596 27.6746 0.0025 -20.4125 -0.0016
# 2 23.8596 85.4305 23.7958 -0.0009 -9.5979 -0.0003
# 3 27.6746 23.7958 92.0792 0.0034 -9.7799 0.0014
# 4 0.0025 -0.0009 0.0034 21.5078 -0.0003 -1.0400
# 5 -20.4125 -9.5979 -9.7799 -0.0003 27.3420 -0.0008
# 6 -0.0016 -0.0003 0.0014 -1.0400 -0.0008 13.9631
#
#
#
# Elastic Compliance Matrix: (Units=1/GPa)
#
#
# Indices 1 2 3 4 5 6 
#
# 1 0.019398 -0.003011 -0.003769 -0.000002 0.012077 0.000003
# 2 -0.003011 0.013391 -0.002386 0.000001 0.001599 0.000000
# 3 -0.003769 -0.002386 0.012704 -0.000002 0.000893 -0.000002
# 4 -0.000002 0.000001 -0.000002 0.046663 -0.000001 0.003475
# 5 0.012077 0.001599 0.000893 -0.000001 0.046471 0.000004
# 6 0.000003 0.000000 -0.000002 0.003475 0.000004 0.071876
#
#
# Mechanical properties :
#
#
# Convention : Reuss Voigt Hill
#
# Bulk Modulus (GPa) = 36.81729 44.61230 40.71480
# Shear Modulus (GPa) = 21.01829 24.26395 22.64112
#
# Velocity S-wave (km/s) = 3.16283 3.39827 3.28266
# Velocity P-wave (km/s) = 5.55526 6.05232 5.80911
#
# Compressibility (1/GPa) = 0.02716115
#
# Stress axis : x y z
#
# Youngs Moduli (GPa) = 51.55167 74.67969 78.71266
#
# Poissons Ratio (x) = 0.22485 0.29669
# Poissons Ratio (y) = 0.15522 0.18778
# Poissons Ratio (z) = 0.19431 0.17816
#
# Static dielectric constant tensor:
#      x y z
#    x 1.813260 0.000000 0.029400 
#    y 0.000000 1.809670 0.000000 
#    z 0.029400 0.000000 1.836720 
# 
# From -- ./inp_files/109760.got.cif
#   From: 2010.05.17/outbox.cif.g08.bks.cpg/sg15_55_cif.got.tgz:109760.got - 2010.06.03 18:47:42.
