data_PCOD9287375
_publ_section_title
;
Structure prediction by ZEFSAII (Michael W. Deem and Ramdas Pophale) SiO2 
 PCOD9287375
Probable space group: C 2/C
;
_chemical_formula_sum "Si O2"
_cell_formula_units_Z 60
_cell_length_a 17.822223
_cell_length_b 14.390334
_cell_length_c 13.283835
_cell_angle_alpha 90.000000
_cell_angle_beta 124.296815
_cell_angle_gamma 90.000000
_cell_volume 2814.520479
_symmetry_space_group_name_H-M "C 2/C"
_symmetry_group_IT_number 15
_symmetry_cell_setting 'monoclinic'
loop_
_space_group_symop_operation_xyz
x,y,z
-x,y,1/2-z
-x,-y,-z
x,-y,1/2+z
1/2+x,1/2+y,z
1/2-x,1/2+y,1/2-z
1/2-x,1/2-y,-z
1/2+x,1/2-y,1/2+z
loop_
_atom_site_type_symbol
_atom_site_label
_atom_site_fract_x
_atom_site_fract_y
_atom_site_fract_z
Si Si1 0.000000 0.468570 0.250000
Si Si2 0.949057 0.592304 0.924885
Si Si3 0.142918 0.853669 0.172392
Si Si4 0.045171 0.803186 0.526124
Si Si5 0.684662 0.908469 0.903008
Si Si6 0.758981 0.828912 0.746771
Si Si7 0.595437 0.726688 0.853530
Si Si8 0.260279 0.987951 0.358601
O O1 0.974573 0.406328 0.326882
O O2 0.909126 0.532179 0.169251
O O3 0.974151 0.691693 0.990733
O O4 0.846731 0.567678 0.879460
O O5 0.000000 0.500000 0.000000
O O6 0.213048 0.771644 0.195802
O O7 0.121338 0.824751 0.271761
O O8 0.183406 0.955132 0.221737
O O9 0.052888 0.850107 0.036540
O O10 0.132105 0.818336 0.662200
O O11 0.078877 0.832359 0.440116
O O12 0.720126 0.879169 0.819524
O O13 0.663509 0.807761 0.933753
O O14 0.749032 0.958927 0.031902
O O15 0.729975 0.901982 0.640256
O O16 0.500000 0.773111 0.750000
#
# Coordination Sequence:
#
# PCOD9287375 Si02
#       8
#     4   8   8   8   8   8   8   8
#     4  12  22  34  58  94 124 154 202 254 312 358
#     4  12  22  37  61  91 121 159 204 258 306 354
#     4  10  22  36  58  92 121 155 200 249 311 368
#     4  11  21  38  61  85 122 163 200 247 306 365
#     4  11  20  33  57  91 121 153 191 253 307 364
#     4  11  23  38  61  90 123 162 203 247 307 366
#     4   9  16  30  55  87 117 144 182 248 313 363
#     4  12  22  37  59  86 123 157 201 253 303 364
#
# _framework density 21.318017999999999
#
# number of rings (size 3 to 8) (size 9 to 14) (size 15 to 20)
#    0.000    1.067    6.000    1.600    1.867    2.667 
#    0.000    0.000    2.933    2.400    0.000    0.000 
#    0.000    0.000    0.000    0.000    0.000    0.000 
#
# Total GULP energy -167249.968172 kJ/mol
# GULP energy per Si atom -5574.998939 kJ/mol
# Density = 2.126950 g / cm^3
# Si number density = 21.318018 Si / 1000 Ang^3
#
#
#
# Elastic Constant Matrix: (Units=GPa)
#
#
# Indices 1 2 3 4 5 6 
#
# 1 30.5850 3.3257 9.1753 0.0000 3.1541 0.0000
# 2 3.3257 39.5738 -12.9080 0.0000 4.9865 0.0000
# 3 9.1753 -12.9080 39.3656 0.0000 13.3439 0.0000
# 4 0.0000 0.0000 0.0000 33.1874 0.0000 4.0017
# 5 3.1541 4.9865 13.3439 0.0000 36.1531 0.0000
# 6 0.0000 0.0000 0.0000 4.0017 0.0000 16.5989
#
#
#
# Elastic Compliance Matrix: (Units=1/GPa)
#
#
# Indices 1 2 3 4 5 6 
#
# 1 0.036738 -0.007130 -0.011599 0.000000 0.002059 0.000000
# 2 -0.007130 0.032087 0.015399 0.000000 -0.009487 0.000000
# 3 -0.011599 0.015399 0.038328 0.000000 -0.015259 0.000000
# 4 0.000000 0.000000 0.000000 0.031034 0.000000 -0.007482
# 5 0.002059 -0.009487 -0.015259 0.000000 0.034421 0.000000
# 6 0.000000 0.000000 0.000000 -0.007482 0.000000 0.062049
#
#
# Mechanical properties :
#
#
# Convention : Reuss Voigt Hill
#
# Bulk Modulus (GPa) = 9.95097 12.07895 11.01496
# Shear Modulus (GPa) = 18.19403 24.51662 21.35532
#
# Velocity S-wave (km/s) = 2.92457 3.39491 3.16848
# Velocity P-wave (km/s) = 4.01025 4.58754 4.30858
#
# Compressibility (1/GPa) = 0.10049275
#
# Stress axis : x y z
#
# Youngs Moduli (GPa) = 27.21945 31.16549 26.09049
#
# Poissons Ratio (x) = 0.22222 0.30263
# Poissons Ratio (y) = 0.19408 -0.40177
# Poissons Ratio (z) = 0.31572 -0.47992
#
# Static dielectric constant tensor:
#      x y z
#    x 1.867820 0.000000 0.037860 
#    y 0.000000 1.763790 0.000000 
#    z 0.037860 0.000000 1.854620 
# 
# From -- ./inp_files/168289.got.cif
#   From: 2010.05.17/outbox.cif.g08.bks.cpg/sg15_85_cif.got.tgz:168289.got - 2010.06.03 18:47:42.
