data_PCOD9287087
_publ_section_title
;
Structure prediction by ZEFSAII (Michael W. Deem and Ramdas Pophale) SiO2 
 PCOD9287087
Probable space group: C 2/C
;
_chemical_formula_sum "Si O2"
_cell_formula_units_Z 48
_cell_length_a 11.087882
_cell_length_b 18.446287
_cell_length_c 9.069494
_cell_angle_alpha 90.000000
_cell_angle_beta 68.378566
_cell_angle_gamma 90.000000
_cell_volume 1724.466702
_symmetry_space_group_name_H-M "C 2/C"
_symmetry_group_IT_number 15
_symmetry_cell_setting 'monoclinic'
loop_
_space_group_symop_operation_xyz
x,y,z
-x,y,1/2-z
-x,-y,-z
x,-y,1/2+z
1/2+x,1/2+y,z
1/2-x,1/2+y,1/2-z
1/2-x,1/2-y,-z
1/2+x,1/2-y,1/2+z
loop_
_atom_site_type_symbol
_atom_site_label
_atom_site_fract_x
_atom_site_fract_y
_atom_site_fract_z
Si Si1 0.238532 0.062651 0.032531
Si Si2 0.138124 0.768120 0.269868
Si Si3 0.823648 0.854569 0.645230
Si Si4 0.441068 0.177832 0.923764
Si Si5 0.060953 0.081036 0.864455
Si Si6 0.594168 0.930309 0.572517
O O1 0.175413 0.106100 0.196365
O O2 0.329752 0.123360 0.919507
O O3 0.141422 0.036807 0.947716
O O4 0.333239 0.997635 0.037754
O O5 0.272377 0.728470 0.165432
O O6 0.115906 0.738686 0.444507
O O7 0.146460 0.854303 0.255703
O O8 0.000000 0.748251 0.250000
O O9 0.705340 0.889661 0.610922
O O10 0.954564 0.873762 0.503575
O O11 0.500000 0.210317 0.750000
O O12 0.526677 0.124588 0.989265
O O13 0.000000 0.041709 0.750000
O O14 0.500000 0.954972 0.750000
#
# Coordination Sequence:
#
# PCOD9287087 Si02
#       6
#     8   8   8   8   8   8
#     4  11  26  42  68 104 144 191 236 294 359 438
#     4  10  21  46  72 105 140 191 242 302 367 428
#     4  11  24  46  75  99 147 190 236 302 367 435
#     4  11  23  38  72 113 136 175 243 306 367 417
#     4  11  28  46  70 106 147 195 245 293 369 441
#     4  12  23  47  74 105 142 189 245 302 364 423
#
# _framework density 27.834690999999999
#
# number of rings (size 3 to 8) (size 9 to 14) (size 15 to 20)
#    0.000    1.000    5.000    1.500    4.667    8.667 
#    0.000    0.000    0.000    0.000    0.000    0.000 
#    0.000    0.000    0.000    0.000    0.000    0.000 
#
# Total GULP energy -134631.324049 kJ/mol
# GULP energy per Si atom -5609.638502 kJ/mol
# Density = 2.777134 g / cm^3
# Si number density = 27.834691 Si / 1000 Ang^3
#
#
#
# Elastic Constant Matrix: (Units=GPa)
#
#
# Indices 1 2 3 4 5 6 
#
# 1 129.9785 19.5698 35.5215 0.0000 28.3494 0.0000
# 2 19.5698 90.7486 17.3834 0.0000 3.8682 0.0000
# 3 35.5215 17.3834 117.6327 0.0000 14.3087 0.0000
# 4 0.0000 0.0000 0.0000 38.1121 0.0000 0.8487
# 5 28.3494 3.8682 14.3087 0.0000 46.0126 0.0000
# 6 0.0000 0.0000 0.0000 0.8487 0.0000 41.2285
#
#
#
# Elastic Compliance Matrix: (Units=1/GPa)
#
#
# Indices 1 2 3 4 5 6 
#
# 1 0.009599 -0.001456 -0.002057 0.000000 -0.005152 0.000000
# 2 -0.001456 0.011570 -0.001310 0.000000 0.000332 0.000000
# 3 -0.002057 -0.001310 0.009508 0.000000 -0.001579 0.000000
# 4 0.000000 0.000000 0.000000 0.026250 0.000000 -0.000540
# 5 -0.005152 0.000332 -0.001579 0.000000 0.025371 0.000000
# 6 0.000000 0.000000 0.000000 -0.000540 0.000000 0.024266
#
#
# Mechanical properties :
#
#
# Convention : Reuss Voigt Hill
#
# Bulk Modulus (GPa) = 47.55116 53.70101 50.62609
# Shear Modulus (GPa) = 40.57756 42.79631 41.68694
#
# Velocity S-wave (km/s) = 3.82226 3.92537 3.87416
# Velocity P-wave (km/s) = 6.04980 6.31502 6.18383
#
# Compressibility (1/GPa) = 0.02102998
#
# Stress axis : x y z
#
# Youngs Moduli (GPa) = 104.18229 86.42754 105.17639
#
# Poissons Ratio (x) = 0.12587 0.21630
# Poissons Ratio (y) = 0.15173 0.13783
# Poissons Ratio (z) = 0.21426 0.11326
#
# Static dielectric constant tensor:
#      x y z
#    x 2.182700 0.000000 -0.035100 
#    y 0.000000 2.172690 0.000000 
#    z -0.035100 0.000000 2.136450 
# 
# From -- ./inp_files/32546.got.cif
#   From: 2010.05.17/outbox.cif.g08.bks.cpg/sg15_17_cif.got.tgz:32546.got - 2010.06.03 18:47:42.
