data_PCOD9287763
_publ_section_title
;
Structure prediction by ZEFSAII (Michael W. Deem and Ramdas Pophale) SiO2 
 PCOD9287763
Probable space group: C 2/C
;
_chemical_formula_sum "Si O2"
_cell_formula_units_Z 56
_cell_length_a 8.922601
_cell_length_b 17.872670
_cell_length_c 21.147443
_cell_angle_alpha 90.000000
_cell_angle_beta 53.172580
_cell_angle_gamma 90.000000
_cell_volume 2699.417470
_symmetry_space_group_name_H-M "C 2/C"
_symmetry_group_IT_number 15
_symmetry_cell_setting 'monoclinic'
loop_
_space_group_symop_operation_xyz
x,y,z
-x,y,1/2-z
-x,-y,-z
x,-y,1/2+z
1/2+x,1/2+y,z
1/2-x,1/2+y,1/2-z
1/2-x,1/2-y,-z
1/2+x,1/2-y,1/2+z
loop_
_atom_site_type_symbol
_atom_site_label
_atom_site_fract_x
_atom_site_fract_y
_atom_site_fract_z
Si Si1 0.131243 0.227193 0.293159
Si Si2 0.176556 0.596842 0.744447
Si Si3 0.000000 0.236831 0.750000
Si Si4 0.707031 0.774805 0.939638
Si Si5 0.897765 0.603302 0.493052
Si Si6 0.686098 0.001387 0.367479
Si Si7 0.500000 0.603456 0.250000
Si Si8 0.001978 0.165067 0.607154
O O1 0.136858 0.314336 0.269916
O O2 0.303827 0.220462 0.296538
O O3 0.919696 0.210721 0.365342
O O4 0.157215 0.159468 0.237942
O O5 0.199448 0.551434 0.802997
O O6 0.362955 0.595534 0.654724
O O7 0.000000 0.568834 0.750000
O O8 0.018175 0.195488 0.676424
O O9 0.610942 0.717884 0.913438
O O10 0.750000 0.750000 0.000000
O O11 0.560909 0.842551 0.977194
O O12 0.837962 0.548964 0.564845
O O13 0.706343 0.647743 0.527476
O O14 0.002253 0.554678 0.413113
O O15 0.876414 0.048913 0.324469
#
# Coordination Sequence:
#
# PCOD9287763 Si02
#       8
#     8   8   4   8   8   8   4   8
#     4  11  21  42  71 101 131 178 241 293 343 408
#     4  11  21  42  70  99 133 184 241 292 341 421
#     4  10  22  37  70 105 136 168 234 302 346 399
#     4  12  23  41  70 105 142 183 232 297 354 417
#     4  11  24  43  65 100 142 187 227 281 367 439
#     4  11  25  42  69  94 146 187 229 283 368 434
#     4  12  22  47  70 101 138 188 236 300 348 409
#     4  11  22  41  70 106 136 179 239 298 347 416
#
# _framework density 20.745217
#
# number of rings (size 3 to 8) (size 9 to 14) (size 15 to 20)
#    0.000    0.857    3.571    5.571    0.000    0.571 
#    1.286    0.714    0.000    0.000    0.000    0.000 
#    0.000    0.000    0.000    0.000    0.000    0.000 
#
# Total GULP energy -155935.300462 kJ/mol
# GULP energy per Si atom -5569.117874 kJ/mol
# Density = 2.069800 g / cm^3
# Si number density = 20.745217 Si / 1000 Ang^3
#
#
#
# Elastic Constant Matrix: (Units=GPa)
#
#
# Indices 1 2 3 4 5 6 
#
# 1 128.5137 34.3511 33.7544 -0.0001 -22.9538 0.0001
# 2 34.3511 80.8971 36.6122 -0.0001 -2.6637 0.0000
# 3 33.7544 36.6122 94.9636 -0.0002 -23.7178 0.0001
# 4 -0.0001 -0.0001 -0.0002 40.1222 0.0001 -5.9535
# 5 -22.9538 -2.6637 -23.7178 0.0001 48.4102 -0.0001
# 6 0.0001 0.0000 0.0001 -5.9535 -0.0001 0.7003
#
#
#
# Elastic Compliance Matrix: (Units=1/GPa)
#
#
# Indices 1 2 3 4 5 6 
#
# 1 0.009697 -0.003471 -0.001148 0.000000 0.003844 0.000003
# 2 -0.003471 0.016442 -0.006028 0.000000 -0.003695 -0.000001
# 3 -0.001148 -0.006028 0.014862 0.000001 0.006405 0.000003
# 4 0.000000 0.000000 0.000001 -0.095318 -0.000001 -0.810342
# 5 0.003844 -0.003695 0.006405 -0.000001 0.025415 -0.000007
# 6 0.000003 -0.000001 0.000003 -0.810342 -0.000007 -5.461099
#
#
# Mechanical properties :
#
#
# Convention : Reuss Voigt Hill
#
# Bulk Modulus (GPa) = 50.74520 57.08999 53.91760
# Shear Modulus (GPa) = -0.91539 31.15699 15.12080
#
# Velocity S-wave (km/s) = -0.66499 3.87962 2.70271
# Velocity P-wave (km/s) = 4.89128 6.90275 5.98217
#
# Compressibility (1/GPa) = 0.01970630
#
# Stress axis : x y z
#
# Youngs Moduli (GPa) = 103.11986 60.82037 67.28450
#
# Poissons Ratio (x) = 0.21114 0.07727
# Poissons Ratio (y) = 0.35798 0.40558
# Poissons Ratio (z) = 0.11842 0.36661
#
# Static dielectric constant tensor:
#      x y z
#    x 1.856990 0.000000 0.115440 
#    y 0.000000 1.815700 0.000000 
#    z 0.115440 0.000000 1.929730 
# 
# From -- ./inp_files/265508.got.cif
#   From: 2010.05.17/outbox.cif.g08.bks.cpg/sg15_133_cif.got.tgz:265508.got - 2010.06.03 18:47:42.
