data_PCOD9287839
_publ_section_title
;
Structure prediction by ZEFSAII (Michael W. Deem and Ramdas Pophale) SiO2 
 PCOD9287839
Probable space group: C 2/C
;
_chemical_formula_sum "Si O2"
_cell_formula_units_Z 40
_cell_length_a 5.552381
_cell_length_b 18.431537
_cell_length_c 18.218753
_cell_angle_alpha 90.000000
_cell_angle_beta 129.168576
_cell_angle_gamma 90.000000
_cell_volume 1445.520343
_symmetry_space_group_name_H-M "C 2/C"
_symmetry_group_IT_number 15
_symmetry_cell_setting 'monoclinic'
loop_
_space_group_symop_operation_xyz
x,y,z
-x,y,1/2-z
-x,-y,-z
x,-y,1/2+z
1/2+x,1/2+y,z
1/2-x,1/2+y,1/2-z
1/2-x,1/2-y,-z
1/2+x,1/2-y,1/2+z
loop_
_atom_site_type_symbol
_atom_site_label
_atom_site_fract_x
_atom_site_fract_y
_atom_site_fract_z
Si Si1 0.337625 0.693650 0.790407
Si Si2 0.941661 0.550794 0.597144
Si Si3 0.427978 0.304650 0.464055
Si Si4 0.007676 0.013762 0.377393
Si Si5 0.443184 0.680191 0.355509
O O1 0.500000 0.662363 0.750000
O O2 0.541960 0.682798 0.902903
O O3 0.243204 0.774010 0.740991
O O4 0.000000 0.664662 0.750000
O O5 0.838231 0.634806 0.574174
O O6 0.734479 0.516391 0.491973
O O7 0.805647 0.517944 0.646626
O O8 0.291147 0.529837 0.643309
O O9 0.845810 0.184853 0.423431
O O10 0.262480 0.226552 0.424866
O O11 0.962542 0.096175 0.341493
#
# Coordination Sequence:
#
# PCOD9287839 Si02
#       5
#     8   8   8   8   8
#     4  10  22  38  58  86 122 156 200 254 300 354
#     4   9  18  33  55  86 121 153 190 241 301 362
#     4   9  19  37  63  92 122 160 204 251 307 367
#     4   9  18  33  55  86 121 153 190 241 301 362
#     4   9  19  37  63  92 122 160 204 251 307 367
#
# _framework density 27.671693999999999
#
# number of rings (size 3 to 8) (size 9 to 14) (size 15 to 20)
#    0.000    2.800    0.000    0.000    0.000    7.200 
#    0.000   12.000    0.000   28.800    0.000    0.000 
#    0.000    0.000    0.000    0.000    0.000    0.000 
#
# Total GULP energy -111708.381345 kJ/mol
# GULP energy per Si atom -5585.419067 kJ/mol
# Density = 2.760871 g / cm^3
# Si number density = 27.671694 Si / 1000 Ang^3
#
#
#
# Elastic Constant Matrix: (Units=GPa)
#
#
# Indices 1 2 3 4 5 6 
#
# 1 202.0280 83.5392 46.2674 0.0000 -49.0519 0.0000
# 2 83.5392 204.5608 34.5566 0.0000 -18.0929 0.0000
# 3 46.2674 34.5566 200.7695 0.0000 -29.4148 0.0000
# 4 0.0000 0.0000 0.0000 37.4174 0.0000 -1.6114
# 5 -49.0519 -18.0929 -29.4148 0.0000 22.7216 0.0000
# 6 0.0000 0.0000 0.0000 -1.6114 0.0000 24.9766
#
#
#
# Elastic Compliance Matrix: (Units=1/GPa)
#
#
# Indices 1 2 3 4 5 6 
#
# 1 0.012005 -0.002894 0.001470 0.000000 0.025514 0.000000
# 2 -0.002894 0.005978 -0.000716 0.000000 -0.002414 0.000000
# 3 0.001470 -0.000716 0.006351 0.000000 0.010825 0.000000
# 4 0.000000 0.000000 0.000000 0.026800 0.000000 0.001729
# 5 0.025514 -0.002414 0.010825 0.000000 0.111183 0.000000
# 6 0.000000 0.000000 0.000000 0.001729 0.000000 0.040149
#
#
# Mechanical properties :
#
#
# Convention : Reuss Voigt Hill
#
# Bulk Modulus (GPa) = 49.86606 104.00940 76.93773
# Shear Modulus (GPa) = 23.42678 46.55614 34.99146
#
# Velocity S-wave (km/s) = 2.91279 4.10621 3.55987
# Velocity P-wave (km/s) = 5.41961 7.75563 6.69037
#
# Compressibility (1/GPa) = 0.02005372
#
# Stress axis : x y z
#
# Youngs Moduli (GPa) = 83.30042 167.28581 157.44709
#
# Poissons Ratio (x) = 0.48415 -0.23141
# Poissons Ratio (y) = 0.24108 0.11268
# Poissons Ratio (z) = -0.12243 0.11972
#
# Static dielectric constant tensor:
#      x y z
#    x 2.256630 0.000000 -0.005340 
#    y 0.000000 2.152650 0.000000 
#    z -0.005340 0.000000 2.301560 
# 
# From -- ./inp_files/260091.got.cif
#   From: 2010.05.17/outbox.cif.g08.bks.cpg/sg15_131_cif.got.tgz:260091.got - 2010.06.03 18:47:42.
