data_PCOD9287493
_publ_section_title
;
Structure prediction by ZEFSAII (Michael W. Deem and Ramdas Pophale) SiO2 
 PCOD9287493
Probable space group: C 2/C
;
_chemical_formula_sum "Si O2"
_cell_formula_units_Z 32
_cell_length_a 27.639448
_cell_length_b 10.258807
_cell_length_c 15.540756
_cell_angle_alpha 90.000000
_cell_angle_beta 162.302391
_cell_angle_gamma 90.000000
_cell_volume 1339.560664
_symmetry_space_group_name_H-M "C 2/C"
_symmetry_group_IT_number 15
_symmetry_cell_setting 'monoclinic'
loop_
_space_group_symop_operation_xyz
x,y,z
-x,y,1/2-z
-x,-y,-z
x,-y,1/2+z
1/2+x,1/2+y,z
1/2-x,1/2+y,1/2-z
1/2-x,1/2-y,-z
1/2+x,1/2-y,1/2+z
loop_
_atom_site_type_symbol
_atom_site_label
_atom_site_fract_x
_atom_site_fract_y
_atom_site_fract_z
Si Si1 0.230220 0.214559 0.585392
Si Si2 0.500000 0.940625 0.250000
Si Si3 0.500000 0.486059 0.750000
Si Si4 0.030192 0.406366 0.633159
Si Si5 0.122633 0.013488 0.784630
O O1 0.418049 0.214074 0.918764
O O2 0.180726 0.133161 0.414839
O O3 0.142181 0.348142 0.456713
O O4 0.147313 0.113023 0.513030
O O5 0.537430 0.028228 0.395338
O O6 0.541032 0.563414 0.734338
O O7 0.000000 0.500000 0.500000
O O8 0.219775 0.402630 0.966495
O O9 0.000000 0.000000 0.500000
#
# Coordination Sequence:
#
# PCOD9287493 Si02
#       5
#     8   4   4   8   8
#     4   8  19  40  55  92 129 151 223 257 299 393
#     4  11  22  38  74  89 130 181 196 276 332 357
#     4   7  16  32  56  81 130 155 200 262 304 369
#     4  10  22  36  64  98 120 167 222 254 318 390
#     4   9  18  33  61  87 123 166 199 261 316 362
#
# _framework density 23.88843
#
# number of rings (size 3 to 8) (size 9 to 14) (size 15 to 20)
#    1.500    1.500    0.000    0.000    3.500    4.000 
#    0.000    0.000    0.000   42.000    0.000    0.000 
#    0.000    0.000    0.000    0.000    0.000    0.000 
#
# Total GULP energy -89214.031120 kJ/mol
# GULP energy per Si atom -5575.876945 kJ/mol
# Density = 2.383406 g / cm^3
# Si number density = 23.888430 Si / 1000 Ang^3
#
#
#
# Elastic Constant Matrix: (Units=GPa)
#
#
# Indices 1 2 3 4 5 6 
#
# 1 133.8413 29.7095 61.5215 0.0000 -18.7130 0.0000
# 2 29.7095 71.9892 36.2730 0.0000 -13.4003 0.0000
# 3 61.5215 36.2730 209.2531 0.0000 -8.1756 0.0000
# 4 0.0000 0.0000 0.0000 30.8620 0.0000 -3.3515
# 5 -18.7130 -13.4003 -8.1756 0.0000 28.4398 0.0000
# 6 0.0000 0.0000 0.0000 -3.3515 0.0000 12.4246
#
#
#
# Elastic Compliance Matrix: (Units=1/GPa)
#
#
# Indices 1 2 3 4 5 6 
#
# 1 0.009626 -0.001921 -0.002311 0.000000 0.004764 0.000000
# 2 -0.001921 0.016887 -0.002125 0.000000 0.006082 0.000000
# 3 -0.002311 -0.002125 0.005793 0.000000 -0.000856 0.000000
# 4 0.000000 0.000000 0.000000 0.033380 0.000000 0.009004
# 5 0.004764 0.006082 -0.000856 0.000000 0.040916 0.000000
# 6 0.000000 0.000000 0.000000 0.009004 0.000000 0.082914
#
#
# Mechanical properties :
#
#
# Convention : Reuss Voigt Hill
#
# Bulk Modulus (GPa) = 51.04153 74.45460 62.74806
# Shear Modulus (GPa) = 23.95075 33.51725 28.73400
#
# Velocity S-wave (km/s) = 3.16984 3.74983 3.47196
# Velocity P-wave (km/s) = 5.90001 7.06991 6.51129
#
# Compressibility (1/GPa) = 0.01959189
#
# Stress axis : x y z
#
# Youngs Moduli (GPa) = 103.88029 59.21877 172.61646
#
# Poissons Ratio (x) = 0.11379 0.39892
# Poissons Ratio (y) = 0.19961 0.36675
# Poissons Ratio (z) = 0.24007 0.12582
#
# Static dielectric constant tensor:
#      x y z
#    x 1.979710 0.000000 0.050010 
#    y 0.000000 1.976920 0.000000 
#    z 0.050010 0.000000 1.920120 
# 
# From -- ./inp_files/85197.got.cif
#   From: 2010.05.17/outbox.cif.g08.bks.cpg/sg15_43_cif.got.tgz:85197.got - 2010.06.03 18:47:42.
