data_PCOD9287871
_publ_section_title
;
Structure prediction by ZEFSAII (Michael W. Deem and Ramdas Pophale) SiO2 
 PCOD9287871
Probable space group: C 2/C
;
_chemical_formula_sum "Si O2"
_cell_formula_units_Z 48
_cell_length_a 21.143233
_cell_length_b 20.943439
_cell_length_c 12.519996
_cell_angle_alpha 90.000000
_cell_angle_beta 157.740025
_cell_angle_gamma 90.000000
_cell_volume 2100.122970
_symmetry_space_group_name_H-M "C 2/C"
_symmetry_group_IT_number 15
_symmetry_cell_setting 'monoclinic'
loop_
_space_group_symop_operation_xyz
x,y,z
-x,y,1/2-z
-x,-y,-z
x,-y,1/2+z
1/2+x,1/2+y,z
1/2-x,1/2+y,1/2-z
1/2-x,1/2-y,-z
1/2+x,1/2-y,1/2+z
loop_
_atom_site_type_symbol
_atom_site_label
_atom_site_fract_x
_atom_site_fract_y
_atom_site_fract_z
Si Si1 0.208608 0.572809 0.182939
Si Si2 0.182876 0.970562 0.431152
Si Si3 0.958413 0.788389 0.805537
Si Si4 0.470232 0.413207 0.909429
Si Si5 0.952916 0.562232 0.062494
Si Si6 0.914488 0.658005 0.812003
O O1 0.321367 0.570514 0.466800
O O2 0.312149 0.595383 0.242820
O O3 0.168615 0.497515 0.108528
O O4 0.042141 0.614866 0.941069
O O5 0.381098 0.972947 0.723103
O O6 0.095226 0.039722 0.286468
O O7 0.102243 0.940169 0.200268
O O8 0.054504 0.851139 0.991478
O O9 0.993444 0.729097 0.937747
O O10 0.770173 0.818628 0.513209
O O11 0.000000 0.768398 0.750000
O O12 0.000000 0.591182 0.250000
O O13 0.900200 0.615986 0.896344
#
# Coordination Sequence:
#
# PCOD9287871 Si02
#       6
#     8   8   8   8   8   8
#     4  11  22  41  67  96 131 167 216 268 328 391
#     4  10  22  38  59 101 129 165 210 269 329 381
#     4  11  26  43  64  92 127 173 219 265 319 382
#     4  11  23  39  67  94 133 171 214 264 328 383
#     4  11  21  39  67  96 126 168 212 271 328 385
#     4  10  25  42  65  92 126 168 221 268 320 384
#
# _framework density 22.855805
#
# number of rings (size 3 to 8) (size 9 to 14) (size 15 to 20)
#    0.000    1.333    1.667    4.500    7.000    2.667 
#    0.000    5.000    0.000    0.000    0.000    0.000 
#    0.000    0.000    0.000    0.000    0.000    0.000 
#
# Total GULP energy -133913.423460 kJ/mol
# GULP energy per Si atom -5579.725977 kJ/mol
# Density = 2.280378 g / cm^3
# Si number density = 22.855805 Si / 1000 Ang^3
#
#
#
# Elastic Constant Matrix: (Units=GPa)
#
#
# Indices 1 2 3 4 5 6 
#
# 1 87.7420 30.4202 35.6731 0.0000 1.6984 0.0000
# 2 30.4202 157.2773 31.2350 0.0000 -21.9570 0.0000
# 3 35.6731 31.2350 96.6349 0.0000 -2.6283 0.0000
# 4 0.0000 0.0000 0.0000 23.6872 0.0000 -6.3222
# 5 1.6984 -21.9570 -2.6283 0.0000 36.4804 0.0000
# 6 0.0000 0.0000 0.0000 -6.3222 0.0000 6.1943
#
#
#
# Elastic Compliance Matrix: (Units=1/GPa)
#
#
# Indices 1 2 3 4 5 6 
#
# 1 0.014029 -0.002125 -0.004553 0.000000 -0.002260 0.000000
# 2 -0.002125 0.007732 -0.001589 0.000000 0.004638 0.000000
# 3 -0.004553 -0.001589 0.012547 0.000000 0.000160 0.000000
# 4 0.000000 0.000000 0.000000 0.058024 0.000000 0.059222
# 5 -0.002260 0.004638 0.000160 0.000000 0.030320 0.000000
# 6 0.000000 0.000000 0.000000 0.059222 0.000000 0.221882
#
#
# Mechanical properties :
#
#
# Convention : Reuss Voigt Hill
#
# Bulk Modulus (GPa) = 56.26130 59.59007 57.92568
# Shear Modulus (GPa) = 13.62425 29.56078 21.59251
#
# Velocity S-wave (km/s) = 2.44416 3.60023 3.07698
# Velocity P-wave (km/s) = 5.71265 6.58870 6.16626
#
# Compressibility (1/GPa) = 0.01777421
#
# Stress axis : x y z
#
# Youngs Moduli (GPa) = 71.28255 129.32918 79.70002
#
# Poissons Ratio (x) = 0.27477 0.36291
# Poissons Ratio (y) = 0.15145 0.12663
# Poissons Ratio (z) = 0.32458 0.20548
#
# Static dielectric constant tensor:
#      x y z
#    x 1.924320 0.000000 0.067970 
#    y 0.000000 1.962000 0.000000 
#    z 0.067970 0.000000 1.968430 
# 
# From -- ./inp_files/178952.got.cif
#   From: 2010.05.17/outbox.cif.g08.bks.cpg/sg15_90_cif.got.tgz:178952.got - 2010.06.03 18:47:42.
