data_PCOD9287177
_publ_section_title
;
Structure prediction by ZEFSAII (Michael W. Deem and Ramdas Pophale) SiO2 
 PCOD9287177
Probable space group: C 2/C
;
_chemical_formula_sum "Si O2"
_cell_formula_units_Z 48
_cell_length_a 11.963123
_cell_length_b 16.332525
_cell_length_c 13.251721
_cell_angle_alpha 90.000000
_cell_angle_beta 134.416501
_cell_angle_gamma 90.000000
_cell_volume 1849.410384
_symmetry_space_group_name_H-M "C 2/C"
_symmetry_group_IT_number 15
_symmetry_cell_setting 'monoclinic'
loop_
_space_group_symop_operation_xyz
x,y,z
-x,y,1/2-z
-x,-y,-z
x,-y,1/2+z
1/2+x,1/2+y,z
1/2-x,1/2+y,1/2-z
1/2-x,1/2-y,-z
1/2+x,1/2-y,1/2+z
loop_
_atom_site_type_symbol
_atom_site_label
_atom_site_fract_x
_atom_site_fract_y
_atom_site_fract_z
Si Si1 0.080050 0.784425 0.396437
Si Si2 0.932593 0.925086 0.843712
Si Si3 0.865901 0.355714 0.282158
Si Si4 0.911018 0.767116 0.501536
Si Si5 0.238547 0.486590 0.889482
Si Si6 0.286125 0.434091 0.116730
O O1 0.250000 0.750000 0.500000
O O2 0.997915 0.770287 0.448861
O O3 0.098270 0.880418 0.381677
O O4 0.000000 0.744009 0.250000
O O5 0.002476 0.834796 0.873999
O O6 0.795599 0.920942 0.842222
O O7 0.854065 0.983040 0.709450
O O8 0.092861 0.969450 0.980711
O O9 0.035367 0.318570 0.415903
O O10 0.860344 0.443069 0.225857
O O11 0.776540 0.376186 0.332748
O O12 0.761684 0.295289 0.143919
O O13 0.168363 0.458277 0.951983
#
# Coordination Sequence:
#
# PCOD9287177 Si02
#       6
#     8   8   8   8   8   8
#     4  12  20  30  50  78 107 135 164 217 271 311
#     4   9  18  26  50  73 104 138 169 219 257 304
#     4  10  22  33  57  80 109 140 170 219 266 314
#     4  11  19  36  48  83 108 137 175 212 269 313
#     4   9  17  30  47  77 106 135 173 216 263 304
#     4  11  18  31  52  80 105 131 178 225 265 294
#
# _framework density 25.954218999999998
#
# number of rings (size 3 to 8) (size 9 to 14) (size 15 to 20)
#    0.000    1.667    5.000    2.500    0.000    0.000 
#    0.000    0.833    0.000    6.000    0.000    0.000 
#    0.000    0.000    0.000    0.000    0.000    0.000 
#
# Total GULP energy -133930.099491 kJ/mol
# GULP energy per Si atom -5580.420812 kJ/mol
# Density = 2.589515 g / cm^3
# Si number density = 25.954219 Si / 1000 Ang^3
#
#
#
# Elastic Constant Matrix: (Units=GPa)
#
#
# Indices 1 2 3 4 5 6 
#
# 1 118.9193 1.1160 43.9070 0.0000 -18.5008 0.0000
# 2 1.1160 52.8697 33.4315 0.0000 -12.5965 0.0000
# 3 43.9070 33.4315 109.1270 0.0000 -24.0514 0.0000
# 4 0.0000 0.0000 0.0000 42.5632 0.0000 -1.2002
# 5 -18.5008 -12.5965 -24.0514 0.0000 27.3755 0.0000
# 6 0.0000 0.0000 0.0000 -1.2002 0.0000 8.3425
#
#
#
# Elastic Compliance Matrix: (Units=1/GPa)
#
#
# Indices 1 2 3 4 5 6 
#
# 1 0.010788 0.003760 -0.004346 0.000000 0.005203 0.000000
# 2 0.003760 0.025471 -0.007655 0.000000 0.007535 0.000000
# 3 -0.004346 -0.007655 0.014675 0.000000 0.006434 0.000000
# 4 0.000000 0.000000 0.000000 0.023590 0.000000 0.003394
# 5 0.005203 0.007535 0.006434 0.000000 0.049165 0.000000
# 6 0.000000 0.000000 0.000000 0.003394 0.000000 0.120357
#
#
# Mechanical properties :
#
#
# Convention : Reuss Voigt Hill
#
# Bulk Modulus (GPa) = 29.02583 48.64724 38.83653
# Shear Modulus (GPa) = 18.38155 29.15366 23.76760
#
# Velocity S-wave (km/s) = 2.66415 3.35516 3.02942
# Velocity P-wave (km/s) = 4.54657 5.81323 5.21848
#
# Compressibility (1/GPa) = 0.03445207
#
# Stress axis : x y z
#
# Youngs Moduli (GPa) = 92.69897 39.26029 68.14173
#
# Poissons Ratio (x) = -0.14761 0.29611
# Poissons Ratio (y) = -0.34852 0.52163
# Poissons Ratio (z) = 0.40283 0.30054
#
# Static dielectric constant tensor:
#      x y z
#    x 2.078610 0.000000 -0.032990 
#    y 0.000000 2.151590 0.000000 
#    z -0.032990 0.000000 2.231020 
# 
# From -- ./inp_files/155278.got.cif
#   From: 2010.05.17/outbox.cif.g08.bks.cpg/sg15_78_cif.got.tgz:155278.got - 2010.06.03 18:47:42.
