data_PCOD9287895
_publ_section_title
;
Structure prediction by ZEFSAII (Michael W. Deem and Ramdas Pophale) SiO2 
 PCOD9287895
Probable space group: C 2/C
;
_chemical_formula_sum "Si O2"
_cell_formula_units_Z 64
_cell_length_a 9.777976
_cell_length_b 30.123226
_cell_length_c 15.247331
_cell_angle_alpha 90.000000
_cell_angle_beta 42.625845
_cell_angle_gamma 90.000000
_cell_volume 3041.349404
_symmetry_space_group_name_H-M "C 2/C"
_symmetry_group_IT_number 15
_symmetry_cell_setting 'monoclinic'
loop_
_space_group_symop_operation_xyz
x,y,z
-x,y,1/2-z
-x,-y,-z
x,-y,1/2+z
1/2+x,1/2+y,z
1/2-x,1/2+y,1/2-z
1/2-x,1/2-y,-z
1/2+x,1/2-y,1/2+z
loop_
_atom_site_type_symbol
_atom_site_label
_atom_site_fract_x
_atom_site_fract_y
_atom_site_fract_z
Si Si1 0.652853 0.462117 0.896313
Si Si2 0.982023 0.429040 0.453308
Si Si3 0.294022 0.654061 0.401110
Si Si4 0.907076 0.293328 0.031883
Si Si5 0.466469 0.021169 0.393188
Si Si6 0.839794 0.863271 0.248868
Si Si7 0.792539 0.298067 0.888137
Si Si8 0.501285 0.365494 0.975557
O O1 0.799857 0.475503 0.747016
O O2 0.814962 0.455507 0.897804
O O3 0.500000 0.500000 0.000000
O O4 0.535619 0.416612 0.935520
O O5 0.811661 0.393921 0.560778
O O6 0.058004 0.454917 0.503026
O O7 0.913451 0.468888 0.422549
O O8 0.164513 0.400195 0.328934
O O9 0.500000 0.657109 0.250000
O O10 0.349145 0.656194 0.477984
O O11 0.132234 0.690413 0.446065
O O12 0.764953 0.317515 0.170153
O O13 0.871875 0.240794 0.044368
O O14 0.834169 0.309234 0.969939
O O15 0.931964 0.860477 0.108760
O O16 0.000000 0.874598 0.250000
O O17 0.000000 0.280611 0.750000
O O18 0.714904 0.340169 0.871216
#
# Coordination Sequence:
#
# PCOD9287895 Si02
#       8
#     8   8   8   8   8   8   8   8
#     4  11  23  39  61  92 133 170 227 284 336 392
#     4  10  22  38  62  88 130 176 223 272 340 395
#     4  11  24  44  66  99 138 176 220 281 336 400
#     4  10  24  43  68  96 135 173 212 279 335 394
#     4  10  22  38  59  89 125 178 224 277 331 400
#     4  11  21  41  66  96 132 169 226 281 336 402
#     4  11  24  42  71 100 128 172 225 266 337 404
#     4  12  25  39  70 100 130 182 225 274 340 403
#
# _framework density 21.043291
#
# number of rings (size 3 to 8) (size 9 to 14) (size 15 to 20)
#    0.000    1.250    1.250    4.125    5.250    3.500 
#    0.000    2.500    0.000    0.000    0.000    0.000 
#    0.000    0.000    0.000    0.000    0.000    0.000 
#
# Total GULP energy -178858.453608 kJ/mol
# GULP energy per Si atom -5589.326675 kJ/mol
# Density = 2.099540 g / cm^3
# Si number density = 21.043291 Si / 1000 Ang^3
#
#
#
# Elastic Constant Matrix: (Units=GPa)
#
#
# Indices 1 2 3 4 5 6 
#
# 1 94.3201 50.0757 23.6934 0.0000 -8.4933 0.0000
# 2 50.0757 68.6709 25.1258 0.0000 -8.1517 0.0000
# 3 23.6934 25.1258 83.7539 0.0000 -11.6531 0.0000
# 4 0.0000 0.0000 0.0000 17.6235 0.0000 -4.1426
# 5 -8.4933 -8.1517 -11.6531 0.0000 32.3696 0.0000
# 6 0.0000 0.0000 0.0000 -4.1426 0.0000 33.0195
#
#
#
# Elastic Compliance Matrix: (Units=1/GPa)
#
#
# Indices 1 2 3 4 5 6 
#
# 1 0.017453 -0.012183 -0.001129 0.000000 0.001105 0.000000
# 2 -0.012183 0.025053 -0.003828 0.000000 0.001734 0.000000
# 3 -0.001129 -0.003828 0.013930 0.000000 0.003755 0.000000
# 4 0.000000 0.000000 0.000000 0.058467 0.000000 0.007335
# 5 0.001105 0.001734 0.003755 0.000000 0.032972 0.000000
# 6 0.000000 0.000000 0.000000 0.007335 0.000000 0.031205
#
#
# Mechanical properties :
#
#
# Convention : Reuss Voigt Hill
#
# Bulk Modulus (GPa) = 45.13367 49.39274 47.26320
# Shear Modulus (GPa) = 22.65062 26.45917 24.55490
#
# Velocity S-wave (km/s) = 3.28439 3.54979 3.41966
# Velocity P-wave (km/s) = 5.98978 6.35014 6.17259
#
# Compressibility (1/GPa) = 0.02215641
#
# Stress axis : x y z
#
# Youngs Moduli (GPa) = 57.29548 39.91584 71.78834
#
# Poissons Ratio (x) = 0.48630 0.08104
# Poissons Ratio (y) = 0.69803 0.27480
# Poissons Ratio (z) = 0.06468 0.15279
#
# Static dielectric constant tensor:
#      x y z
#    x 1.748520 0.000000 0.008430 
#    y 0.000000 1.765170 0.000000 
#    z 0.008430 0.000000 1.764200 
# 
# From -- ./inp_files/139824.got.cif
#   From: 2010.05.17/outbox.cif.g08.bks.cpg/sg15_70_cif.got.tgz:139824.got - 2010.06.03 18:47:42.
