data_PCOD9287442
_publ_section_title
;
Structure prediction by ZEFSAII (Michael W. Deem and Ramdas Pophale) SiO2 
 PCOD9287442
Probable space group: C 2/C
;
_chemical_formula_sum "Si O2"
_cell_formula_units_Z 60
_cell_length_a 5.385454
_cell_length_b 27.978081
_cell_length_c 23.252256
_cell_angle_alpha 90.000000
_cell_angle_beta 125.488775
_cell_angle_gamma 90.000000
_cell_volume 2852.673384
_symmetry_space_group_name_H-M "C 2/C"
_symmetry_group_IT_number 15
_symmetry_cell_setting 'monoclinic'
loop_
_space_group_symop_operation_xyz
x,y,z
-x,y,1/2-z
-x,-y,-z
x,-y,1/2+z
1/2+x,1/2+y,z
1/2-x,1/2+y,1/2-z
1/2-x,1/2-y,-z
1/2+x,1/2-y,1/2+z
loop_
_atom_site_type_symbol
_atom_site_label
_atom_site_fract_x
_atom_site_fract_y
_atom_site_fract_z
Si Si1 0.446209 0.298301 0.905253
Si Si2 0.475918 0.464862 0.676261
Si Si3 0.252175 0.349412 0.081150
Si Si4 0.308023 0.291088 0.437287
Si Si5 0.500000 0.902132 0.750000
Si Si6 0.372659 0.572901 0.797379
Si Si7 0.682330 0.180183 0.195530
Si Si8 0.161279 0.380318 0.578785
O O1 0.680588 0.261453 0.908042
O O2 0.541467 0.353387 0.908160
O O3 0.117823 0.289522 0.834251
O O4 0.482927 0.287746 0.977537
O O5 0.500000 0.460674 0.750000
O O6 0.769651 0.438145 0.689178
O O7 0.507160 0.520496 0.667105
O O8 0.210359 0.432956 0.612017
O O9 0.485574 0.311271 0.085450
O O10 0.459387 0.386829 0.143070
O O11 0.982064 0.324272 0.082314
O O12 0.088345 0.375123 0.004558
O O13 0.303175 0.865657 0.760562
O O14 0.500000 0.578749 0.750000
O O15 0.000000 0.574328 0.750000
O O16 0.608750 0.154818 0.125355
O O17 0.000000 0.205652 0.250000
#
# Coordination Sequence:
#
# PCOD9287442 Si02
#       8
#     8   8   8   8   4   8   8   8
#     4  10  22  36  61  94 127 176 210 260 325 395
#     4  11  21  37  61  94 128 171 209 258 326 406
#     4  11  24  44  67  97 123 173 221 282 322 367
#     4  10  23  41  67  91 130 167 228 264 319 388
#     4  12  18  34  56  88 124 172 206 250 318 404
#     4  11  25  45  72  89 124 174 227 271 331 394
#     4  12  20  33  58  92 134 174 205 255 330 398
#     4  11  21  36  64  95 136 159 209 268 330 395
#
# _framework density 21.032900999999999
#
# number of rings (size 3 to 8) (size 9 to 14) (size 15 to 20)
#    0.000    1.067    6.000    0.800    1.867    2.133 
#    0.000    0.667    7.333    5.600    0.000    0.000 
#    0.000    0.000    0.000    0.000    0.000    0.000 
#
# Total GULP energy -167383.088125 kJ/mol
# GULP energy per Si atom -5579.436271 kJ/mol
# Density = 2.098503 g / cm^3
# Si number density = 21.032901 Si / 1000 Ang^3
#
#
#
# Elastic Constant Matrix: (Units=GPa)
#
#
# Indices 1 2 3 4 5 6 
#
# 1 93.2755 29.4728 36.8042 0.0000 18.0646 0.0000
# 2 29.4728 111.3141 59.5395 0.0000 11.8985 0.0000
# 3 36.8042 59.5395 97.5199 0.0000 19.3572 0.0000
# 4 0.0000 0.0000 0.0000 37.9199 0.0000 2.5537
# 5 18.0646 11.8985 19.3572 0.0000 31.3386 0.0000
# 6 0.0000 0.0000 0.0000 2.5537 0.0000 22.3014
#
#
#
# Elastic Compliance Matrix: (Units=1/GPa)
#
#
# Indices 1 2 3 4 5 6 
#
# 1 0.013418 -0.001248 -0.003261 0.000000 -0.005247 0.000000
# 2 -0.001248 0.013456 -0.007834 0.000000 0.000449 0.000000
# 3 -0.003261 -0.007834 0.017443 0.000000 -0.005920 0.000000
# 4 0.000000 0.000000 0.000000 0.026576 0.000000 -0.003043
# 5 -0.005247 0.000449 -0.005920 0.000000 0.038420 0.000000
# 6 0.000000 0.000000 0.000000 -0.003043 0.000000 0.045189
#
#
# Mechanical properties :
#
#
# Convention : Reuss Voigt Hill
#
# Bulk Modulus (GPa) = 50.93586 61.52694 56.23140
# Shear Modulus (GPa) = 26.92076 30.06484 28.49280
#
# Velocity S-wave (km/s) = 3.58150 3.78487 3.68459
# Velocity P-wave (km/s) = 6.43216 6.95820 6.70034
#
# Compressibility (1/GPa) = 0.01963253
#
# Stress axis : x y z
#
# Youngs Moduli (GPa) = 74.52723 74.31638 57.33045
#
# Poissons Ratio (x) = 0.09273 0.18694
# Poissons Ratio (y) = 0.09299 0.44910
# Poissons Ratio (z) = 0.24301 0.58216
#
# Static dielectric constant tensor:
#      x y z
#    x 1.914320 0.000000 -0.016800 
#    y 0.000000 1.737650 0.000000 
#    z -0.016800 0.000000 1.772840 
# 
# From -- ./inp_files/286762.got.cif
#   From: 2010.05.17/outbox.cif.g08.bks.cpg/sg15_144_cif.got.tgz:286762.got - 2010.06.03 18:47:42.
