data_PCOD9287393
_publ_section_title
;
Structure prediction by ZEFSAII (Michael W. Deem and Ramdas Pophale) SiO2 
 PCOD9287393
Probable space group: C 2/C
;
_chemical_formula_sum "Si O2"
_cell_formula_units_Z 52
_cell_length_a 12.982460
_cell_length_b 22.277922
_cell_length_c 17.392434
_cell_angle_alpha 90.000000
_cell_angle_beta 149.757608
_cell_angle_gamma 90.000000
_cell_volume 2533.546424
_symmetry_space_group_name_H-M "C 2/C"
_symmetry_group_IT_number 15
_symmetry_cell_setting 'monoclinic'
loop_
_space_group_symop_operation_xyz
x,y,z
-x,y,1/2-z
-x,-y,-z
x,-y,1/2+z
1/2+x,1/2+y,z
1/2-x,1/2+y,1/2-z
1/2-x,1/2-y,-z
1/2+x,1/2-y,1/2+z
loop_
_atom_site_type_symbol
_atom_site_label
_atom_site_fract_x
_atom_site_fract_y
_atom_site_fract_z
Si Si1 0.777147 0.576519 0.856108
Si Si2 0.446094 0.439311 0.009889
Si Si3 0.426029 0.683558 0.977937
Si Si4 0.348179 0.032041 0.502725
Si Si5 0.500000 0.023033 0.250000
Si Si6 0.690284 0.658811 0.424693
Si Si7 0.127497 0.699153 0.640430
O O1 0.595728 0.563981 0.679332
O O2 0.755896 0.530850 0.913397
O O3 0.794477 0.648926 0.870100
O O4 0.995017 0.557338 0.959488
O O5 0.208990 0.440435 0.879809
O O6 0.500000 0.500000 0.000000
O O7 0.488440 0.382313 0.983972
O O8 0.268739 0.697141 0.807391
O O9 0.328255 0.681235 0.999942
O O10 0.600685 0.734250 0.090928
O O11 0.482301 0.018209 0.663873
O O12 0.196707 0.085885 0.426747
O O13 0.500000 0.679351 0.250000
O O14 0.900452 0.680753 0.522364
#
# Coordination Sequence:
#
# PCOD9287393 Si02
#       7
#     8   8   8   8   4   8   8
#     4   9  21  41  60  87 123 165 206 259 313 374
#     4  11  23  40  64  90 127 164 208 267 320 378
#     4  11  23  40  62  89 127 166 208 262 322 379
#     4  10  22  36  59  90 124 163 208 255 317 376
#     4  12  24  36  62  92 122 164 208 264 316 384
#     4  11  23  34  58  92 128 169 207 256 313 392
#     4  10  22  40  63  88 125 168 211 258 314 385
#
# _framework density 20.52459
#
# number of rings (size 3 to 8) (size 9 to 14) (size 15 to 20)
#    0.000    1.538    1.538    2.769    8.615    2.462 
#    0.000    0.000    0.000    8.308    0.000    0.000 
#    0.000    0.000    0.000    0.000    0.000    0.000 
#
# Total GULP energy -145232.656450 kJ/mol
# GULP energy per Si atom -5585.871402 kJ/mol
# Density = 2.047788 g / cm^3
# Si number density = 20.524590 Si / 1000 Ang^3
#
#
#
# Elastic Constant Matrix: (Units=GPa)
#
#
# Indices 1 2 3 4 5 6 
#
# 1 23.6304 22.2853 5.0500 0.0003 3.0312 -0.0007
# 2 22.2853 157.1005 44.0040 -0.0008 -8.9101 -0.0003
# 3 5.0500 44.0040 79.3247 0.0016 6.8749 -0.0023
# 4 0.0003 -0.0008 0.0016 25.5235 0.0009 12.7051
# 5 3.0312 -8.9101 6.8749 0.0009 32.0332 -0.0012
# 6 -0.0007 -0.0003 -0.0023 12.7051 -0.0012 16.6690
#
#
#
# Elastic Compliance Matrix: (Units=1/GPa)
#
#
# Indices 1 2 3 4 5 6 
#
# 1 0.050533 -0.008136 0.001943 -0.000003 -0.007462 0.000004
# 2 -0.008136 0.009150 -0.004937 0.000001 0.004375 -0.000001
# 3 0.001943 -0.004937 0.015648 -0.000003 -0.004915 0.000004
# 4 -0.000003 0.000001 -0.000003 0.063133 -0.000002 -0.048120
# 5 -0.007462 0.004375 -0.004915 -0.000002 0.034195 0.000003
# 6 0.000004 -0.000001 0.000004 -0.048120 0.000003 0.096669
#
#
# Mechanical properties :
#
#
# Convention : Reuss Voigt Hill
#
# Bulk Modulus (GPa) = 18.84285 44.74824 31.79554
# Shear Modulus (GPa) = 16.16666 27.42621 21.79644
#
# Velocity S-wave (km/s) = 2.80960 3.65946 3.26232
# Velocity P-wave (km/s) = 4.44136 6.30120 5.45118
#
# Compressibility (1/GPa) = 0.05307053
#
# Stress axis : x y z
#
# Youngs Moduli (GPa) = 19.78912 109.28417 63.90757
#
# Poissons Ratio (x) = 0.88909 -0.12415
# Poissons Ratio (y) = 0.16100 0.31553
# Poissons Ratio (z) = -0.03844 0.53956
#
# Static dielectric constant tensor:
#      x y z
#    x 1.731690 0.000000 0.008030 
#    y 0.000000 1.803510 0.000000 
#    z 0.008030 0.000000 1.710120 
# 
# From -- ./inp_files/40875.got.cif
#   From: 2010.05.17/outbox.cif.g08.bks.cpg/sg15_21_cif.got.tgz:40875.got - 2010.06.03 18:47:42.
