data_PCOD9287775
_publ_section_title
;
Structure prediction by ZEFSAII (Michael W. Deem and Ramdas Pophale) SiO2 
 PCOD9287775
Probable space group: C 2/C
;
_chemical_formula_sum "Si O2"
_cell_formula_units_Z 56
_cell_length_a 15.935786
_cell_length_b 25.953535
_cell_length_c 9.035671
_cell_angle_alpha 90.000000
_cell_angle_beta 124.579281
_cell_angle_gamma 90.000000
_cell_volume 3076.879625
_symmetry_space_group_name_H-M "C 2/C"
_symmetry_group_IT_number 15
_symmetry_cell_setting 'monoclinic'
loop_
_space_group_symop_operation_xyz
x,y,z
-x,y,1/2-z
-x,-y,-z
x,-y,1/2+z
1/2+x,1/2+y,z
1/2-x,1/2+y,1/2-z
1/2-x,1/2-y,-z
1/2+x,1/2-y,1/2+z
loop_
_atom_site_type_symbol
_atom_site_label
_atom_site_fract_x
_atom_site_fract_y
_atom_site_fract_z
Si Si1 0.394996 0.967760 0.049586
Si Si2 0.291910 0.811638 0.321495
Si Si3 0.248012 0.836838 0.594755
Si Si4 0.120510 0.637897 0.852942
Si Si5 0.391486 0.934999 0.711811
Si Si6 0.636009 0.236362 0.076504
Si Si7 0.055627 0.220875 0.963027
O O1 0.500000 0.969139 0.250000
O O2 0.336805 0.915507 0.039947
O O3 0.348092 0.022005 0.054789
O O4 0.412208 0.961198 0.892297
O O5 0.229673 0.828469 0.402217
O O6 0.346438 0.855679 0.282936
O O7 0.218368 0.780819 0.137692
O O8 0.376151 0.772260 0.465056
O O9 0.310825 0.889830 0.663385
O O10 0.325154 0.793798 0.737580
O O11 0.139480 0.824991 0.565637
O O12 0.000000 0.633089 0.750000
O O13 0.139739 0.690918 0.960645
O O14 0.500000 0.916042 0.750000
O O15 0.529420 0.265230 0.999093
O O16 0.000000 0.214310 0.750000
#
# Coordination Sequence:
#
# PCOD9287775 Si02
#       7
#     8   8   8   8   8   8   8
#     4  10  22  38  54  83 109 144 181 226 279 335
#     4  11  22  32  54  80 112 151 190 210 275 331
#     4  11  23  33  57  83 105 153 186 223 275 325
#     4  11  22  33  53  80 116 149 178 220 280 329
#     4  11  23  37  58  81 113 141 183 231 278 329
#     4  11  20  38  52  80 117 150 179 233 261 325
#     4  11  19  36  53  79 113 140 191 229 257 320
#
# _framework density 18.200257000000001
#
# number of rings (size 3 to 8) (size 9 to 14) (size 15 to 20)
#    0.000    1.143    5.714    3.000    8.000    0.000 
#    0.000    0.000    0.000    0.000    0.000    4.000 
#    0.000    0.000    0.000    0.000    0.000    0.000 
#
# Total GULP energy -155906.899910 kJ/mol
# GULP energy per Si atom -5568.103568 kJ/mol
# Density = 1.815883 g / cm^3
# Si number density = 18.200257 Si / 1000 Ang^3
#
#
#
# Elastic Constant Matrix: (Units=GPa)
#
#
# Indices 1 2 3 4 5 6 
#
# 1 90.3944 49.3697 26.3528 0.0000 -0.5670 0.0000
# 2 49.3697 88.4742 16.6453 0.0000 3.0749 0.0000
# 3 26.3528 16.6453 35.5463 0.0000 -1.2311 0.0000
# 4 0.0000 0.0000 0.0000 68.7609 0.0000 -52.1781
# 5 -0.5670 3.0749 -1.2311 0.0000 26.4571 0.0000
# 6 0.0000 0.0000 0.0000 -52.1781 0.0000 77.1999
#
#
#
# Elastic Compliance Matrix: (Units=1/GPa)
#
#
# Indices 1 2 3 4 5 6 
#
# 1 0.018589 -0.008575 -0.009734 0.000000 0.000942 0.000000
# 2 -0.008575 0.016428 -0.001411 0.000000 -0.002159 0.000000
# 3 -0.009734 -0.001411 0.036066 0.000000 0.001634 0.000000
# 4 0.000000 0.000000 0.000000 0.029856 0.000000 0.020179
# 5 0.000942 -0.002159 0.001634 0.000000 0.038144 0.000000
# 6 0.000000 0.000000 0.000000 0.020179 0.000000 0.026592
#
#
# Mechanical properties :
#
#
# Convention : Reuss Voigt Hill
#
# Bulk Modulus (GPa) = 31.60028 44.35006 37.97517
# Shear Modulus (GPa) = 23.18463 42.62006 32.90235
#
# Velocity S-wave (km/s) = 3.57299 4.84439 4.25643
# Velocity P-wave (km/s) = 5.86702 7.46402 6.71318
#
# Compressibility (1/GPa) = 0.03164529
#
# Stress axis : x y z
#
# Youngs Moduli (GPa) = 53.79453 60.87235 27.72722
#
# Poissons Ratio (x) = 0.52195 0.26989
# Poissons Ratio (y) = 0.46126 0.03911
# Poissons Ratio (z) = 0.52362 0.08586
#
# Static dielectric constant tensor:
#      x y z
#    x 1.692990 0.000000 -0.022690 
#    y 0.000000 1.707810 0.000000 
#    z -0.022690 0.000000 1.679380 
# 
# From -- ./inp_files/43209.got.cif
#   From: 2010.05.17/outbox.cif.g08.bks.cpg/sg15_22_cif.got.tgz:43209.got - 2010.06.03 18:47:42.
