data_PCOD9287501
_publ_section_title
;
Structure prediction by ZEFSAII (Michael W. Deem and Ramdas Pophale) SiO2 
 PCOD9287501
Probable space group: C 2/C
;
_chemical_formula_sum "Si O2"
_cell_formula_units_Z 56
_cell_length_a 28.477807
_cell_length_b 5.461708
_cell_length_c 18.799461
_cell_angle_alpha 90.000000
_cell_angle_beta 106.701067
_cell_angle_gamma 90.000000
_cell_volume 2800.676993
_symmetry_space_group_name_H-M "C 2/C"
_symmetry_group_IT_number 15
_symmetry_cell_setting 'monoclinic'
loop_
_space_group_symop_operation_xyz
x,y,z
-x,y,1/2-z
-x,-y,-z
x,-y,1/2+z
1/2+x,1/2+y,z
1/2-x,1/2+y,1/2-z
1/2-x,1/2-y,-z
1/2+x,1/2-y,1/2+z
loop_
_atom_site_type_symbol
_atom_site_label
_atom_site_fract_x
_atom_site_fract_y
_atom_site_fract_z
Si Si1 0.605688 0.728908 0.256531
Si Si2 0.885157 0.677400 0.904950
Si Si3 0.542762 0.197694 0.029534
Si Si4 0.719341 0.217491 0.820090
Si Si5 0.942556 0.729626 0.208654
Si Si6 0.728055 0.784233 0.151229
Si Si7 0.546899 0.598974 0.942303
O O1 0.606701 0.730912 0.171254
O O2 0.661418 0.766020 0.307429
O O3 0.584623 0.466571 0.270515
O O4 0.576305 0.967377 0.271631
O O5 0.907443 0.402966 0.916216
O O6 0.828237 0.704345 0.897894
O O7 0.918883 0.807424 0.978298
O O8 0.511567 0.369952 0.068895
O O9 0.553213 0.309358 0.956330
O O10 0.500000 0.000000 0.000000
O O11 0.726067 0.215314 0.736930
O O12 0.744762 0.465698 0.858440
O O13 0.744095 0.965682 0.857683
O O14 0.937711 0.769494 0.122001
O O15 0.000000 0.748277 0.250000
#
# Coordination Sequence:
#
# PCOD9287501 Si02
#       7
#     8   8   8   8   8   8   8
#     4  11  25  41  64  91 127 168 204 256 309 373
#     4  10  22  36  65  93 121 158 213 259 310 359
#     4   9  20  36  61  84 117 157 205 253 301 357
#     4   9  18  36  56  87 122 154 198 253 316 352
#     4  12  27  42  63  91 130 168 208 248 307 376
#     4   9  18  32  60  90 117 150 202 264 300 357
#     4  10  23  39  61  88 127 167 205 258 308 367
#
# _framework density 19.995163999999999
#
# number of rings (size 3 to 8) (size 9 to 14) (size 15 to 20)
#    0.000    2.000    0.000    2.143   14.000    2.286 
#    0.000    0.000    0.000    5.143    0.000    0.000 
#    0.000    0.000    0.000    0.000    0.000    0.000 
#
# Total GULP energy -156054.251183 kJ/mol
# GULP energy per Si atom -5573.366114 kJ/mol
# Density = 1.994965 g / cm^3
# Si number density = 19.995164 Si / 1000 Ang^3
#
#
#
# Elastic Constant Matrix: (Units=GPa)
#
#
# Indices 1 2 3 4 5 6 
#
# 1 120.6147 55.0126 36.5218 0.0000 33.2251 0.0000
# 2 55.0126 112.8086 22.8680 0.0000 16.6535 0.0000
# 3 36.5218 22.8680 77.9999 0.0000 10.0413 0.0000
# 4 0.0000 0.0000 0.0000 25.1402 0.0000 -4.0129
# 5 33.2251 16.6535 10.0413 0.0000 30.3502 0.0000
# 6 0.0000 0.0000 0.0000 -4.0129 0.0000 13.1242
#
#
#
# Elastic Compliance Matrix: (Units=1/GPa)
#
#
# Indices 1 2 3 4 5 6 
#
# 1 0.015160 -0.004693 -0.004092 0.000000 -0.012667 0.000000
# 2 -0.004693 0.011490 -0.001066 0.000000 -0.000814 0.000000
# 3 -0.004092 -0.001066 0.015037 0.000000 0.000089 0.000000
# 4 0.000000 0.000000 0.000000 0.041818 0.000000 0.012786
# 5 -0.012667 -0.000814 0.000089 0.000000 0.047232 0.000000
# 6 0.000000 0.000000 0.000000 0.012786 0.000000 0.080105
#
#
# Mechanical properties :
#
#
# Convention : Reuss Voigt Hill
#
# Bulk Modulus (GPa) = 45.48677 60.02534 52.75605
# Shear Modulus (GPa) = 21.01970 26.85764 23.93867
#
# Velocity S-wave (km/s) = 3.24580 3.66895 3.46384
# Velocity P-wave (km/s) = 6.07003 6.93061 6.51455
#
# Compressibility (1/GPa) = 0.02198441
#
# Stress axis : x y z
#
# Youngs Moduli (GPa) = 65.96444 87.03477 66.50076
#
# Poissons Ratio (x) = 0.40850 0.27209
# Poissons Ratio (y) = 0.30960 0.07090
# Poissons Ratio (z) = 0.26990 0.09279
#
# Static dielectric constant tensor:
#      x y z
#    x 1.703190 0.000000 -0.026160 
#    y 0.000000 1.992390 0.000000 
#    z -0.026160 0.000000 1.710660 
# 
# From -- ./inp_files/221284.got.cif
#   From: 2010.05.17/outbox.cif.g08.bks.cpg/sg15_111_cif.got.tgz:221284.got - 2010.06.03 18:47:42.
