data_PCOD9287999
_publ_section_title
;
Structure prediction by ZEFSAII (Michael W. Deem and Ramdas Pophale) SiO2 
 PCOD9287999
Probable space group: C 2/C
;
_chemical_formula_sum "Si O2"
_cell_formula_units_Z 64
_cell_length_a 23.636500
_cell_length_b 20.477056
_cell_length_c 17.834562
_cell_angle_alpha 90.000000
_cell_angle_beta 159.291216
_cell_angle_gamma 90.000000
_cell_volume 3052.444720
_symmetry_space_group_name_H-M "C 2/C"
_symmetry_group_IT_number 15
_symmetry_cell_setting 'monoclinic'
loop_
_space_group_symop_operation_xyz
x,y,z
-x,y,1/2-z
-x,-y,-z
x,-y,1/2+z
1/2+x,1/2+y,z
1/2-x,1/2+y,1/2-z
1/2-x,1/2-y,-z
1/2+x,1/2-y,1/2+z
loop_
_atom_site_type_symbol
_atom_site_label
_atom_site_fract_x
_atom_site_fract_y
_atom_site_fract_z
Si Si1 0.490538 0.452092 0.649659
Si Si2 0.492758 0.008654 0.652287
Si Si3 0.607578 0.126954 0.052742
Si Si4 0.568104 0.634193 0.116277
Si Si5 0.168106 0.475034 0.742114
Si Si6 0.454700 0.769172 0.903641
Si Si7 0.857235 0.304007 0.513173
Si Si8 0.675347 0.557600 0.782926
O O1 0.500000 0.445097 0.750000
O O2 0.529442 0.385968 0.653126
O O3 0.310683 0.475168 0.410354
O O4 0.606735 0.510155 0.762722
O O5 0.500000 0.009334 0.750000
O O6 0.515061 0.079446 0.642103
O O7 0.622400 0.963168 0.772250
O O8 0.313251 0.984083 0.412236
O O9 0.742785 0.139301 0.159474
O O10 0.701067 0.089023 0.235642
O O11 0.538207 0.185859 0.013779
O O12 0.506898 0.699431 0.001120
O O13 0.474270 0.577404 0.954256
O O14 0.000000 0.500000 0.500000
O O15 0.276872 0.753323 0.651086
O O16 0.564740 0.798052 0.973582
O O17 0.768262 0.374068 0.416561
O O18 0.000000 0.296268 0.750000
#
# Coordination Sequence:
#
# PCOD9287999 Si02
#       8
#     8   8   8   8   8   8   8   8
#     4  12  24  40  68 101 132 166 217 277 338 392
#     4  11  22  38  63  95 132 161 203 274 335 379
#     4  11  21  41  65  89 125 169 218 260 312 396
#     4  11  22  43  65  90 125 172 216 262 318 389
#     4  10  22  38  61  96 125 165 209 263 330 400
#     4  11  24  42  68  93 126 182 226 256 317 396
#     4  11  24  43  64  97 134 172 216 276 325 385
#     4  11  22  40  66  93 129 172 211 263 334 400
#
# _framework density 20.966799999999999
#
# number of rings (size 3 to 8) (size 9 to 14) (size 15 to 20)
#    0.000    1.000    3.750    4.125    0.000    4.000 
#    0.000    2.500    0.000    1.500    0.000    0.000 
#    0.000    0.000    0.000    0.000    0.000    0.000 
#
# Total GULP energy -178501.212138 kJ/mol
# GULP energy per Si atom -5578.162879 kJ/mol
# Density = 2.091908 g / cm^3
# Si number density = 20.966800 Si / 1000 Ang^3
#
#
#
# Elastic Constant Matrix: (Units=GPa)
#
#
# Indices 1 2 3 4 5 6 
#
# 1 130.3677 20.6568 15.7222 0.0000 7.9494 0.0000
# 2 20.6568 48.1937 -5.0249 0.0000 -3.8632 0.0000
# 3 15.7222 -5.0249 46.9957 0.0000 10.2725 0.0000
# 4 0.0000 0.0000 0.0000 16.0412 0.0000 -2.5556
# 5 7.9494 -3.8632 10.2725 0.0000 39.1971 0.0000
# 6 0.0000 0.0000 0.0000 -2.5556 0.0000 21.4002
#
#
#
# Elastic Compliance Matrix: (Units=1/GPa)
#
#
# Indices 1 2 3 4 5 6 
#
# 1 0.008793 -0.004202 -0.003088 0.000000 -0.001388 0.000000
# 2 -0.004202 0.023083 0.003384 0.000000 0.002240 0.000000
# 3 -0.003088 0.003384 0.023829 0.000000 -0.005285 0.000000
# 4 0.000000 0.000000 0.000000 0.063548 0.000000 0.007589
# 5 -0.001388 0.002240 -0.005285 0.000000 0.027400 0.000000
# 6 0.000000 0.000000 0.000000 0.007589 0.000000 0.047635
#
#
# Mechanical properties :
#
#
# Convention : Reuss Voigt Hill
#
# Bulk Modulus (GPa) = 20.87947 32.02950 26.45449
# Shear Modulus (GPa) = 22.92902 28.27456 25.60179
#
# Velocity S-wave (km/s) = 3.31053 3.67623 3.49816
# Velocity P-wave (km/s) = 4.95911 5.77313 5.38153
#
# Compressibility (1/GPa) = 0.04789393
#
# Stress axis : x y z
#
# Youngs Moduli (GPa) = 113.72041 43.32145 41.96639
#
# Poissons Ratio (x) = 0.18205 0.12958
# Poissons Ratio (y) = 0.47789 -0.14203
# Poissons Ratio (z) = 0.35113 -0.14661
#
# Static dielectric constant tensor:
#      x y z
#    x 1.813980 0.000000 0.007040 
#    y 0.000000 1.826970 0.000000 
#    z 0.007040 0.000000 1.825070 
# 
# From -- ./inp_files/220312.got.cif
#   From: 2010.05.17/outbox.cif.g08.bks.cpg/sg15_111_cif.got.tgz:220312.got - 2010.06.03 18:47:42.
