data_PCOD9287091
_publ_section_title
;
Structure prediction by ZEFSAII (Michael W. Deem and Ramdas Pophale) SiO2 
 PCOD9287091
Probable space group: C 2/C
;
_chemical_formula_sum "Si O2"
_cell_formula_units_Z 48
_cell_length_a 22.849172
_cell_length_b 17.178286
_cell_length_c 5.585269
_cell_angle_alpha 90.000000
_cell_angle_beta 71.931774
_cell_angle_gamma 90.000000
_cell_volume 2084.166185
_symmetry_space_group_name_H-M "C 2/C"
_symmetry_group_IT_number 15
_symmetry_cell_setting 'monoclinic'
loop_
_space_group_symop_operation_xyz
x,y,z
-x,y,1/2-z
-x,-y,-z
x,-y,1/2+z
1/2+x,1/2+y,z
1/2-x,1/2+y,1/2-z
1/2-x,1/2-y,-z
1/2+x,1/2-y,1/2+z
loop_
_atom_site_type_symbol
_atom_site_label
_atom_site_fract_x
_atom_site_fract_y
_atom_site_fract_z
Si Si1 0.799296 0.685543 0.007378
Si Si2 0.213242 0.479781 0.798446
Si Si3 0.895212 0.789281 0.180244
Si Si4 0.902590 0.664394 0.537704
Si Si5 0.500000 0.773095 0.250000
Si Si6 0.500000 0.951388 0.750000
Si Si7 0.147434 0.963102 0.358490
O O1 0.773776 0.612127 0.185335
O O2 0.835102 0.651208 0.730307
O O3 0.750000 0.750000 0.000000
O O4 0.849070 0.730820 0.102728
O O5 0.181073 0.506075 0.085515
O O6 0.278629 0.524722 0.716828
O O7 0.899199 0.751659 0.435703
O O8 0.869680 0.875137 0.182441
O O9 0.962416 0.779916 0.981005
O O10 0.950468 0.671389 0.692240
O O11 0.938784 0.604328 0.322746
O O12 0.500000 0.000000 0.500000
O O13 0.125356 0.987364 0.653654
#
# Coordination Sequence:
#
# PCOD9287091 Si02
#       7
#     8   8   8   8   4   4   8
#     4  11  26  42  70 108 147 197 250 298 363 447
#     4  10  23  42  63  92 146 188 234 286 358 417
#     4  11  24  43  78 100 141 191 246 298 359 438
#     4  11  25  45  74 107 140 194 248 303 371 439
#     4  10  21  46  74 103 142 176 248 302 361 422
#     4  12  27  48  78 107 152 192 246 316 385 438
#     4  10  23  43  68  99 142 189 232 290 363 420
#
# _framework density 23.030794
#
# number of rings (size 3 to 8) (size 9 to 14) (size 15 to 20)
#    0.000    1.333    1.667    2.500   14.000    2.000 
#    0.000    0.833    0.000    0.000    0.000    0.000 
#    0.000    0.000    0.000    0.000    0.000    0.000 
#
# Total GULP energy -134081.425766 kJ/mol
# GULP energy per Si atom -5586.726074 kJ/mol
# Density = 2.297838 g / cm^3
# Si number density = 23.030794 Si / 1000 Ang^3
#
#
#
# Elastic Constant Matrix: (Units=GPa)
#
#
# Indices 1 2 3 4 5 6 
#
# 1 60.8088 15.5555 14.3353 0.0000 -4.8769 0.0000
# 2 15.5555 111.6135 15.7105 0.0000 0.2177 0.0000
# 3 14.3353 15.7105 96.2391 0.0000 20.8484 0.0000
# 4 0.0000 0.0000 0.0000 26.5521 0.0000 12.8315
# 5 -4.8769 0.2177 20.8484 0.0000 43.3408 0.0000
# 6 0.0000 0.0000 0.0000 12.8315 0.0000 24.7834
#
#
#
# Elastic Compliance Matrix: (Units=1/GPa)
#
#
# Indices 1 2 3 4 5 6 
#
# 1 0.017991 -0.002077 -0.003105 0.000000 0.003529 0.000000
# 2 -0.002077 0.009432 -0.001305 0.000000 0.000347 0.000000
# 3 -0.003105 -0.001305 0.012437 0.000000 -0.006325 0.000000
# 4 0.000000 0.000000 0.000000 0.050229 0.000000 -0.026006
# 5 0.003529 0.000347 -0.006325 0.000000 0.026511 0.000000
# 6 0.000000 0.000000 0.000000 -0.026006 0.000000 0.053814
#
#
# Mechanical properties :
#
#
# Convention : Reuss Voigt Hill
#
# Bulk Modulus (GPa) = 37.19636 39.98486 38.59061
# Shear Modulus (GPa) = 25.99399 33.80595 29.89997
#
# Velocity S-wave (km/s) = 3.36320 3.83542 3.60705
# Velocity P-wave (km/s) = 5.59171 6.08384 5.84296
#
# Compressibility (1/GPa) = 0.02688435
#
# Stress axis : x y z
#
# Youngs Moduli (GPa) = 55.58210 106.02130 80.40726
#
# Poissons Ratio (x) = 0.22023 0.24968
# Poissons Ratio (y) = 0.11546 0.10497
# Poissons Ratio (z) = 0.17259 0.13841
#
# Static dielectric constant tensor:
#      x y z
#    x 1.866130 0.000000 0.034200 
#    y 0.000000 1.855110 0.000000 
#    z 0.034200 0.000000 1.998290 
# 
# From -- ./inp_files/15437.got.cif
#   From: 2010.05.17/outbox.cif.g08.bks.cpg/sg15_8_cif.got.tgz:15437.got - 2010.06.03 18:47:42.
