data_PCOD9287575
_publ_section_title
;
Structure prediction by ZEFSAII (Michael W. Deem and Ramdas Pophale) SiO2 
 PCOD9287575
Probable space group: C 2/C
;
_chemical_formula_sum "Si O2"
_cell_formula_units_Z 64
_cell_length_a 21.422827
_cell_length_b 24.618752
_cell_length_c 9.024354
_cell_angle_alpha 90.000000
_cell_angle_beta 133.274914
_cell_angle_gamma 90.000000
_cell_volume 3465.244161
_symmetry_space_group_name_H-M "C 2/C"
_symmetry_group_IT_number 15
_symmetry_cell_setting 'monoclinic'
loop_
_space_group_symop_operation_xyz
x,y,z
-x,y,1/2-z
-x,-y,-z
x,-y,1/2+z
1/2+x,1/2+y,z
1/2-x,1/2+y,1/2-z
1/2-x,1/2-y,-z
1/2+x,1/2-y,1/2+z
loop_
_atom_site_type_symbol
_atom_site_label
_atom_site_fract_x
_atom_site_fract_y
_atom_site_fract_z
Si Si1 0.774622 0.875176 0.769748
Si Si2 0.582880 0.544214 0.462982
Si Si3 0.639721 0.347479 0.126676
Si Si4 0.898918 0.672188 0.055031
Si Si5 0.770316 0.689742 0.588209
Si Si6 0.210453 0.414158 0.966888
Si Si7 0.401516 0.291220 0.146547
Si Si8 0.314263 0.518781 0.150156
O O1 0.729678 0.845403 0.560415
O O2 0.713100 0.895806 0.800634
O O3 0.811013 0.929518 0.752322
O O4 0.844331 0.833992 0.957483
O O5 0.500000 0.520457 0.250000
O O6 0.570326 0.608037 0.468687
O O7 0.662003 0.536593 0.477145
O O8 0.608056 0.516211 0.656142
O O9 0.691563 0.324924 0.070922
O O10 0.708962 0.383640 0.327835
O O11 0.604265 0.305950 0.189498
O O12 0.866130 0.616016 0.073595
O O13 0.866835 0.729546 0.073571
O O14 0.000000 0.673400 0.250000
O O15 0.857167 0.678502 0.823411
O O16 0.750000 0.750000 0.500000
O O17 0.232119 0.478211 0.016642
O O18 0.500000 0.293992 0.250000
#
# Coordination Sequence:
#
# PCOD9287575 Si02
#       8
#     8   8   8   8   8   8   8   8
#     4  11  21  36  61  89 120 156 204 249 293 360
#     4  11  22  35  52  82 123 164 200 242 294 350
#     4   9  21  35  53  84 114 162 202 236 288 354
#     4  10  22  42  64  87 121 157 200 252 311 359
#     4  11  21  36  62  89 117 155 201 247 293 357
#     4   9  21  38  60  81 114 161 204 244 297 358
#     4  10  22  37  57  87 128 167 200 240 300 365
#     4  11  21  38  55  86 117 161 207 245 296 356
#
# _framework density 18.469117000000001
#
# number of rings (size 3 to 8) (size 9 to 14) (size 15 to 20)
#    0.000    1.750    3.750    0.375    3.500    2.000 
#    0.000    0.625    0.000    3.000    0.000    0.000 
#    0.000    0.000    0.000    0.000    0.000    0.000 
#
# Total GULP energy -178169.124032 kJ/mol
# GULP energy per Si atom -5567.785126 kJ/mol
# Density = 1.842708 g / cm^3
# Si number density = 18.469117 Si / 1000 Ang^3
#
#
#
# Elastic Constant Matrix: (Units=GPa)
#
#
# Indices 1 2 3 4 5 6 
#
# 1 26.7521 8.3799 27.5828 0.0000 -14.6820 0.0000
# 2 8.3799 86.2155 26.0506 0.0000 -5.8924 0.0000
# 3 27.5828 26.0506 100.6891 0.0000 -13.1390 0.0000
# 4 0.0000 0.0000 0.0000 25.9968 0.0000 -14.6285
# 5 -14.6820 -5.8924 -13.1390 0.0000 31.8616 0.0000
# 6 0.0000 0.0000 0.0000 -14.6285 0.0000 19.0655
#
#
#
# Elastic Compliance Matrix: (Units=1/GPa)
#
#
# Indices 1 2 3 4 5 6 
#
# 1 0.066136 -0.000273 -0.014877 0.000000 0.024290 0.000000
# 2 -0.000273 0.012616 -0.003066 0.000000 0.000943 0.000000
# 3 -0.014877 -0.003066 0.014618 0.000000 -0.001394 0.000000
# 4 0.000000 0.000000 0.000000 0.067693 0.000000 0.051939
# 5 0.024290 0.000943 -0.001394 0.000000 0.042178 0.000000
# 6 0.000000 0.000000 0.000000 0.051939 0.000000 0.092302
#
#
# Mechanical properties :
#
#
# Convention : Reuss Voigt Hill
#
# Bulk Modulus (GPa) = 17.56301 37.52039 27.54170
# Shear Modulus (GPa) = 14.24684 25.49434 19.87059
#
# Velocity S-wave (km/s) = 2.78040 3.71937 3.28362
# Velocity P-wave (km/s) = 4.45393 6.22931 5.41488
#
# Compressibility (1/GPa) = 0.05693785
#
# Stress axis : x y z
#
# Youngs Moduli (GPa) = 15.12047 79.26237 68.40706
#
# Poissons Ratio (x) = 0.02163 1.01769
# Poissons Ratio (y) = 0.00413 0.20976
# Poissons Ratio (z) = 0.22495 0.24304
#
# Static dielectric constant tensor:
#      x y z
#    x 1.671640 0.000000 -0.007860 
#    y 0.000000 1.732610 0.000000 
#    z -0.007860 0.000000 1.656940 
# 
# From -- ./inp_files/58643.got.cif
#   From: 2010.05.17/outbox.cif.g08.bks.cpg/sg15_30_cif.got.tgz:58643.got - 2010.06.03 18:47:42.
