data_PCOD9287990
_publ_section_title
;
Structure prediction by ZEFSAII (Michael W. Deem and Ramdas Pophale) SiO2 
 PCOD9287990
Probable space group: C 2/C
;
_chemical_formula_sum "Si O2"
_cell_formula_units_Z 56
_cell_length_a 25.184298
_cell_length_b 11.126224
_cell_length_c 13.445740
_cell_angle_alpha 90.000000
_cell_angle_beta 48.747710
_cell_angle_gamma 90.000000
_cell_volume 2832.516519
_symmetry_space_group_name_H-M "C 2/C"
_symmetry_group_IT_number 15
_symmetry_cell_setting 'monoclinic'
loop_
_space_group_symop_operation_xyz
x,y,z
-x,y,1/2-z
-x,-y,-z
x,-y,1/2+z
1/2+x,1/2+y,z
1/2-x,1/2+y,1/2-z
1/2-x,1/2-y,-z
1/2+x,1/2-y,1/2+z
loop_
_atom_site_type_symbol
_atom_site_label
_atom_site_fract_x
_atom_site_fract_y
_atom_site_fract_z
Si Si1 0.876660 0.552558 0.147694
Si Si2 0.007688 0.919275 0.088504
Si Si3 0.745573 0.059846 0.568819
Si Si4 0.697527 0.819551 0.941006
Si Si5 0.431909 0.749303 0.266871
Si Si6 0.529113 0.841068 0.496315
Si Si7 0.893780 0.987982 0.358064
O O1 0.823175 0.497861 0.295694
O O2 0.829121 0.633892 0.132401
O O3 0.946797 0.619151 0.104091
O O4 0.915756 0.443661 0.039306
O O5 0.039386 0.788245 0.032179
O O6 0.057833 0.989208 0.103368
O O7 0.931984 0.898468 0.235311
O O8 0.000000 0.000000 0.000000
O O9 0.741061 0.088815 0.456276
O O10 0.764522 0.188390 0.599383
O O11 0.814063 0.975040 0.491464
O O12 0.627745 0.810394 0.094516
O O13 0.500000 0.741148 0.250000
O O14 0.403098 0.614539 0.288869
O O15 0.452126 0.817306 0.142368
#
# Coordination Sequence:
#
# PCOD9287990 Si02
#       7
#     8   8   8   8   8   8   8
#     4  11  24  42  63  97 124 163 210 260 318 376
#     4  11  21  38  65  95 123 162 211 266 310 360
#     4  10  23  42  62  90 125 169 213 249 306 381
#     4  10  22  40  66  87 124 168 211 258 302 371
#     4  11  16  36  66  90 118 164 221 259 293 365
#     4  11  23  39  65  94 129 159 212 263 315 371
#     4  10  22  38  61  94 124 161 214 256 311 366
#
# _framework density 19.770406999999999
#
# number of rings (size 3 to 8) (size 9 to 14) (size 15 to 20)
#    0.000    1.429    5.714    0.000    2.000    2.286 
#    5.143    0.714    0.000    0.000    0.000    0.000 
#    0.000    0.000    0.000    0.000    0.000    0.000 
#
# Total GULP energy -155996.034006 kJ/mol
# GULP energy per Si atom -5571.286929 kJ/mol
# Density = 1.972541 g / cm^3
# Si number density = 19.770407 Si / 1000 Ang^3
#
#
#
# Elastic Constant Matrix: (Units=GPa)
#
#
# Indices 1 2 3 4 5 6 
#
# 1 46.0742 -0.5497 22.8524 0.0000 -15.9108 0.0000
# 2 -0.5497 40.9306 8.5116 0.0000 -2.9585 0.0000
# 3 22.8524 8.5116 97.8489 0.0000 -17.7229 0.0000
# 4 0.0000 0.0000 0.0000 73.1553 0.0000 5.2546
# 5 -15.9108 -2.9585 -17.7229 0.0000 29.4339 0.0000
# 6 0.0000 0.0000 0.0000 5.2546 0.0000 24.7715
#
#
#
# Elastic Compliance Matrix: (Units=1/GPa)
#
#
# Indices 1 2 3 4 5 6 
#
# 1 0.028408 0.002247 -0.004498 0.000000 0.012873 0.000000
# 2 0.002247 0.025107 -0.002280 0.000000 0.002365 0.000000
# 3 -0.004498 -0.002280 0.012332 0.000000 0.004764 0.000000
# 4 0.000000 0.000000 0.000000 0.013881 0.000000 -0.002944
# 5 0.012873 0.002365 0.004764 0.000000 0.044040 0.000000
# 6 0.000000 0.000000 0.000000 -0.002944 0.000000 0.040994
#
#
# Mechanical properties :
#
#
# Convention : Reuss Voigt Hill
#
# Bulk Modulus (GPa) = 17.61070 27.38692 22.49881
# Shear Modulus (GPa) = 25.94015 35.74143 30.84079
#
# Velocity S-wave (km/s) = 3.62618 4.25646 3.95390
# Velocity P-wave (km/s) = 5.14385 6.16759 5.67884
#
# Compressibility (1/GPa) = 0.05678366
#
# Stress axis : x y z
#
# Youngs Moduli (GPa) = 35.20181 39.82959 81.09159
#
# Poissons Ratio (x) = -0.08951 0.36478
# Poissons Ratio (y) = -0.07911 0.18492
# Poissons Ratio (z) = 0.15835 0.09083
#
# Static dielectric constant tensor:
#      x y z
#    x 2.371660 0.000000 -0.247080 
#    y 0.000000 1.744160 0.000000 
#    z -0.247080 0.000000 1.798450 
# 
# From -- ./inp_files/181555.got.cif
#   From: 2010.05.17/outbox.cif.g08.bks.cpg/sg15_91_cif.got.tgz:181555.got - 2010.06.03 18:47:42.
