data_PCOD9287021
_publ_section_title
;
Structure prediction by ZEFSAII (Michael W. Deem and Ramdas Pophale) SiO2 
 PCOD9287021
Probable space group: C 2/C
;
_chemical_formula_sum "Si O2"
_cell_formula_units_Z 48
_cell_length_a 8.645993
_cell_length_b 16.116695
_cell_length_c 20.098382
_cell_angle_alpha 90.000000
_cell_angle_beta 124.752185
_cell_angle_gamma 90.000000
_cell_volume 2301.048191
_symmetry_space_group_name_H-M "C 2/C"
_symmetry_group_IT_number 15
_symmetry_cell_setting 'monoclinic'
loop_
_space_group_symop_operation_xyz
x,y,z
-x,y,1/2-z
-x,-y,-z
x,-y,1/2+z
1/2+x,1/2+y,z
1/2-x,1/2+y,1/2-z
1/2-x,1/2-y,-z
1/2+x,1/2-y,1/2+z
loop_
_atom_site_type_symbol
_atom_site_label
_atom_site_fract_x
_atom_site_fract_y
_atom_site_fract_z
Si Si1 0.449524 0.384949 0.643645
Si Si2 0.093158 0.198213 0.922907
Si Si3 0.496905 0.987270 0.328239
Si Si4 0.117576 0.915303 0.024195
Si Si5 0.672009 0.837076 0.691760
Si Si6 0.346457 0.568686 0.666070
O O1 0.402039 0.379433 0.554762
O O2 0.289228 0.345011 0.651194
O O3 0.656180 0.348825 0.713030
O O4 0.437630 0.482907 0.660624
O O5 0.198527 0.129015 0.904899
O O6 0.963244 0.149669 0.943235
O O7 0.956389 0.256149 0.845148
O O8 0.250000 0.250000 0.000000
O O9 0.500000 0.970989 0.250000
O O10 0.675988 0.944831 0.405085
O O11 0.321991 0.951858 0.326283
O O12 0.470822 0.086028 0.332540
O O13 0.000000 0.000000 0.000000
O O14 0.500000 0.611113 0.750000
#
# Coordination Sequence:
#
# PCOD9287021 Si02
#       6
#     8   8   8   8   8   8
#     4  10  21  45  73 100 134 190 238 291 338 426
#     4  12  28  45  66 109 147 184 228 301 369 411
#     4  11  23  43  75 102 134 188 241 289 350 425
#     4  12  24  42  73 104 140 180 246 286 342 431
#     4  10  23  45  69 100 145 179 234 292 363 407
#     4  11  22  46  72 100 138 184 240 287 348 430
#
# _framework density 20.860057999999999
#
# number of rings (size 3 to 8) (size 9 to 14) (size 15 to 20)
#    0.000    1.000    5.000    3.000    2.333    4.000 
#    9.000    0.000    0.000    0.000    0.000    0.000 
#    0.000    0.000    0.000    0.000    0.000    0.000 
#
# Total GULP energy -134135.538451 kJ/mol
# GULP energy per Si atom -5588.980769 kJ/mol
# Density = 2.081258 g / cm^3
# Si number density = 20.860058 Si / 1000 Ang^3
#
#
#
# Elastic Constant Matrix: (Units=GPa)
#
#
# Indices 1 2 3 4 5 6 
#
# 1 97.6657 48.9658 66.5615 0.0000 -6.1106 0.0000
# 2 48.9658 91.4013 53.5422 0.0000 6.6972 0.0000
# 3 66.5615 53.5422 117.4697 0.0000 -6.3236 0.0000
# 4 0.0000 0.0000 0.0000 30.8943 0.0000 -2.8892
# 5 -6.1106 6.6972 -6.3236 0.0000 41.3751 0.0000
# 6 0.0000 0.0000 0.0000 -2.8892 0.0000 11.6962
#
#
#
# Elastic Compliance Matrix: (Units=1/GPa)
#
#
# Indices 1 2 3 4 5 6 
#
# 1 0.018487 -0.005486 -0.007845 0.000000 0.002419 0.000000
# 2 -0.005486 0.017069 -0.004904 0.000000 -0.004323 0.000000
# 3 -0.007845 -0.004904 0.015299 0.000000 0.001974 0.000000
# 4 0.000000 0.000000 0.000000 0.033134 0.000000 0.008185
# 5 0.002419 -0.004323 0.001974 0.000000 0.025528 0.000000
# 6 0.000000 0.000000 0.000000 0.008185 0.000000 0.087520
#
#
# Mechanical properties :
#
#
# Convention : Reuss Voigt Hill
#
# Bulk Modulus (GPa) = 69.51147 71.63063 70.57105
# Shear Modulus (GPa) = 20.98176 25.95760 23.46968
#
# Velocity S-wave (km/s) = 3.17493 3.53139 3.35789
# Velocity P-wave (km/s) = 6.84363 7.14428 6.99557
#
# Compressibility (1/GPa) = 0.01438611
#
# Stress axis : x y z
#
# Youngs Moduli (GPa) = 54.09187 58.58436 65.36201
#
# Poissons Ratio (x) = 0.32139 0.51274
# Poissons Ratio (y) = 0.29675 0.32056
# Poissons Ratio (z) = 0.42433 0.28732
#
# Static dielectric constant tensor:
#      x y z
#    x 1.734140 0.000000 -0.022540 
#    y 0.000000 1.746530 0.000000 
#    z -0.022540 0.000000 1.755330 
# 
# From -- ./inp_files/232866.got.cif
#   From: 2010.05.17/outbox.cif.g08.bks.cpg/sg15_117_cif.got.tgz:232866.got - 2010.06.03 18:47:42.
