data_PCOD9287055
_publ_section_title
;
Structure prediction by ZEFSAII (Michael W. Deem and Ramdas Pophale) SiO2 
 PCOD9287055
Probable space group: C 2/C
;
_chemical_formula_sum "Si O2"
_cell_formula_units_Z 32
_cell_length_a 7.474295
_cell_length_b 17.272479
_cell_length_c 12.554916
_cell_angle_alpha 90.000000
_cell_angle_beta 109.936063
_cell_angle_gamma 90.000000
_cell_volume 1523.704051
_symmetry_space_group_name_H-M "C 2/C"
_symmetry_group_IT_number 15
_symmetry_cell_setting 'monoclinic'
loop_
_space_group_symop_operation_xyz
x,y,z
-x,y,1/2-z
-x,-y,-z
x,-y,1/2+z
1/2+x,1/2+y,z
1/2-x,1/2+y,1/2-z
1/2-x,1/2-y,-z
1/2+x,1/2-y,1/2+z
loop_
_atom_site_type_symbol
_atom_site_label
_atom_site_fract_x
_atom_site_fract_y
_atom_site_fract_z
Si Si1 0.381374 0.288783 0.330827
Si Si2 0.000000 0.788998 0.750000
Si Si3 0.665812 0.138810 0.079392
Si Si4 0.820393 0.950845 0.419983
Si Si5 0.000000 0.551397 0.250000
O O1 0.500000 0.274430 0.250000
O O2 0.416913 0.226675 0.434041
O O3 0.397837 0.375329 0.374995
O O4 0.168172 0.267360 0.249606
O O5 0.109822 0.844876 0.852990
O O6 0.563543 0.100489 0.159756
O O7 0.674996 0.084166 0.979847
O O8 0.685234 0.001944 0.318149
O O9 0.000000 0.000000 0.500000
#
# Coordination Sequence:
#
# PCOD9287055 Si02
#       5
#     8   4   8   8   4
#     4  10  22  44  71 100 136 191 233 288 345 424
#     4   8  19  40  74  93 140 174 238 286 329 406
#     4  10  21  46  67 101 134 192 233 282 343 425
#     4  12  27  42  71 106 143 183 234 295 359 423
#     4  12  25  46  68 105 148 184 228 298 363 406
#
# _framework density 21.001453000000001
#
# number of rings (size 3 to 8) (size 9 to 14) (size 15 to 20)
#    1.500    0.000    1.250    3.750    3.500    0.000 
#    4.500    2.500    0.000    0.000    0.000    0.000 
#    0.000    0.000    0.000    0.000    0.000    0.000 
#
# Total GULP energy -89093.335712 kJ/mol
# GULP energy per Si atom -5568.333482 kJ/mol
# Density = 2.095365 g / cm^3
# Si number density = 21.001453 Si / 1000 Ang^3
#
#
#
# Elastic Constant Matrix: (Units=GPa)
#
#
# Indices 1 2 3 4 5 6 
#
# 1 91.9509 23.9581 8.7692 0.0000 -14.5177 0.0000
# 2 23.9581 113.9232 15.1730 0.0000 7.5618 0.0000
# 3 8.7692 15.1730 22.6765 0.0000 -5.8564 0.0000
# 4 0.0000 0.0000 0.0000 33.0324 0.0000 -27.0274
# 5 -14.5177 7.5618 -5.8564 0.0000 39.6702 0.0000
# 6 0.0000 0.0000 0.0000 -27.0274 0.0000 6.5591
#
#
#
# Elastic Compliance Matrix: (Units=1/GPa)
#
#
# Indices 1 2 3 4 5 6 
#
# 1 0.012516 -0.002717 -0.001773 0.000000 0.004837 0.000000
# 2 -0.002717 0.010558 -0.007060 0.000000 -0.004049 0.000000
# 3 -0.001773 -0.007060 0.051657 0.000000 0.008323 0.000000
# 4 0.000000 0.000000 0.000000 -0.012765 0.000000 -0.052601
# 5 0.004837 -0.004049 0.008323 0.000000 0.028978 0.000000
# 6 0.000000 0.000000 0.000000 -0.052601 0.000000 -0.064288
#
#
# Mechanical properties :
#
#
# Convention : Reuss Voigt Hill
#
# Bulk Modulus (GPa) = 19.36776 36.03902 27.70339
# Shear Modulus (GPa) = 74.66433 27.89567 51.28000
#
# Velocity S-wave (km/s) = 5.96902 3.64850 4.94675
# Velocity P-wave (km/s) = 7.53311 5.91154 6.77104
#
# Compressibility (1/GPa) = 0.05163220
#
# Stress axis : x y z
#
# Youngs Moduli (GPa) = 79.89774 94.71278 19.35837
#
# Poissons Ratio (x) = 0.25734 0.03432
# Poissons Ratio (y) = 0.21708 0.13666
# Poissons Ratio (z) = 0.14166 0.66863
#
# Static dielectric constant tensor:
#      x y z
#    x 1.713990 0.000000 -0.020490 
#    y 0.000000 1.781030 0.000000 
#    z -0.020490 0.000000 1.784020 
# 
# From -- ./inp_files/75705.got.cif
#   From: 2010.05.17/outbox.cif.g08.bks.cpg/sg15_38_cif.got.tgz:75705.got - 2010.06.03 18:47:42.
