data_PCOD9287588
_publ_section_title
;
Structure prediction by ZEFSAII (Michael W. Deem and Ramdas Pophale) SiO2 
 PCOD9287588
Probable space group: C 2/C
;
_chemical_formula_sum "Si O2"
_cell_formula_units_Z 44
_cell_length_a 11.269378
_cell_length_b 27.935390
_cell_length_c 15.348543
_cell_angle_alpha 90.000000
_cell_angle_beta 26.795534
_cell_angle_gamma 90.000000
_cell_volume 2178.278583
_symmetry_space_group_name_H-M "C 2/C"
_symmetry_group_IT_number 15
_symmetry_cell_setting 'monoclinic'
loop_
_space_group_symop_operation_xyz
x,y,z
-x,y,1/2-z
-x,-y,-z
x,-y,1/2+z
1/2+x,1/2+y,z
1/2-x,1/2+y,1/2-z
1/2-x,1/2-y,-z
1/2+x,1/2-y,1/2+z
loop_
_atom_site_type_symbol
_atom_site_label
_atom_site_fract_x
_atom_site_fract_y
_atom_site_fract_z
Si Si1 0.456848 0.877512 0.599756
Si Si2 0.031785 0.548812 0.921932
Si Si3 0.279340 0.687422 0.119006
Si Si4 0.500000 0.989061 0.250000
Si Si5 0.894980 0.943495 0.407872
Si Si6 0.697728 0.293907 0.201974
O O1 0.360601 0.913435 0.588379
O O2 0.234367 0.857709 0.808942
O O3 0.685624 0.904586 0.507787
O O4 0.581944 0.830716 0.473048
O O5 0.994797 0.538736 0.844643
O O6 0.325911 0.571537 0.736564
O O7 0.000000 0.500000 0.000000
O O8 0.287382 0.739469 0.159703
O O9 0.000000 0.685865 0.250000
O O10 0.522675 0.686604 0.894837
O O11 0.249906 0.024000 0.426736
O O12 0.000000 0.969426 0.250000
O O13 0.500000 0.290354 0.250000
#
# Coordination Sequence:
#
# PCOD9287588 Si02
#       6
#     8   8   8   4   8   8
#     4  11  22  35  55  85 120 152 197 232 285 356
#     4  11  23  41  59  85 116 151 203 247 285 349
#     4  11  20  29  53  77 119 161 177 229 291 350
#     4  12  22  42  64  78 114 162 192 248 302 320
#     4  10  22  37  58  84 114 149 197 241 284 355
#     4  11  18  33  48  81 120 152 188 226 283 357
#
# _framework density 20.199437
#
# number of rings (size 3 to 8) (size 9 to 14) (size 15 to 20)
#    0.000    1.091    7.273    3.273    1.273    0.000 
#    3.273    0.000    0.000    0.000    0.000    1.273 
#    0.000    0.000    0.000    0.000    0.000    0.000 
#
# Total GULP energy -122658.510940 kJ/mol
# GULP energy per Si atom -5575.386861 kJ/mol
# Density = 2.015346 g / cm^3
# Si number density = 20.199437 Si / 1000 Ang^3
#
#
#
# Elastic Constant Matrix: (Units=GPa)
#
#
# Indices 1 2 3 4 5 6 
#
# 1 58.6960 35.0190 24.4716 -0.0023 32.1489 0.0013
# 2 35.0190 99.4831 25.5321 0.0002 31.0585 -0.0002
# 3 24.4716 25.5321 98.3149 -0.0035 38.4619 0.0015
# 4 -0.0023 0.0002 -0.0035 7.6348 0.0028 40.4962
# 5 32.1489 31.0585 38.4619 0.0028 33.0657 -0.0015
# 6 0.0013 -0.0002 0.0015 40.4962 -0.0015 12.6369
#
#
#
# Elastic Compliance Matrix: (Units=1/GPa)
#
#
# Indices 1 2 3 4 5 6 
#
# 1 0.041244 -0.001370 0.009678 -0.000006 -0.050071 0.000008
# 2 -0.001370 0.014705 0.002578 -0.000001 -0.015479 0.000001
# 3 0.009678 0.002578 0.021509 -0.000004 -0.036850 0.000006
# 4 -0.000006 -0.000001 -0.000004 -0.008187 0.000014 0.026237
# 5 -0.050071 -0.015479 -0.036850 0.000014 0.136329 -0.000018
# 6 0.000008 0.000001 0.000006 0.026237 -0.000018 -0.004947
#
#
# Mechanical properties :
#
#
# Convention : Reuss Voigt Hill
#
# Bulk Modulus (GPa) = 10.07762 47.39328 28.73545
# Shear Modulus (GPa) = 23.58949 22.09892 22.84420
#
# Velocity S-wave (km/s) = 3.42106 3.31121 3.36658
# Velocity P-wave (km/s) = 4.53925 6.17515 5.41928
#
# Compressibility (1/GPa) = 0.09922980
#
# Stress axis : x y z
#
# Youngs Moduli (GPa) = 24.24576 68.00364 46.49164
#
# Poissons Ratio (x) = 0.09317 -0.44995
# Poissons Ratio (y) = 0.03322 -0.11983
# Poissons Ratio (z) = -0.23465 -0.17528
#
# Static dielectric constant tensor:
#      x y z
#    x 1.751620 0.000000 0.002360 
#    y 0.000000 1.794750 0.000000 
#    z 0.002360 0.000000 1.754180 
# 
# From -- ./inp_files/148993.got.cif
#   From: 2010.05.17/outbox.cif.g08.bks.cpg/sg15_75_cif.got.tgz:148993.got - 2010.06.03 18:47:42.
