data_PCOD9287354
_publ_section_title
;
Structure prediction by ZEFSAII (Michael W. Deem and Ramdas Pophale) SiO2 
 PCOD9287354
Probable space group: C 2/C
;
_chemical_formula_sum "Si O2"
_cell_formula_units_Z 40
_cell_length_a 21.864468
_cell_length_b 11.572178
_cell_length_c 26.245282
_cell_angle_alpha 90.000000
_cell_angle_beta 161.529750
_cell_angle_gamma 90.000000
_cell_volume 2103.813197
_symmetry_space_group_name_H-M "C 2/C"
_symmetry_group_IT_number 15
_symmetry_cell_setting 'monoclinic'
loop_
_space_group_symop_operation_xyz
x,y,z
-x,y,1/2-z
-x,-y,-z
x,-y,1/2+z
1/2+x,1/2+y,z
1/2-x,1/2+y,1/2-z
1/2-x,1/2-y,-z
1/2+x,1/2-y,1/2+z
loop_
_atom_site_type_symbol
_atom_site_label
_atom_site_fract_x
_atom_site_fract_y
_atom_site_fract_z
Si Si1 0.309121 0.401019 0.628778
Si Si2 0.406563 0.918714 0.469728
Si Si3 0.041030 0.655401 0.723240
Si Si4 0.249837 0.255931 0.766472
Si Si5 0.384339 0.603804 0.933291
O O1 0.500000 0.442990 0.750000
O O2 0.215925 0.498497 0.590607
O O3 0.378865 0.287263 0.714801
O O4 0.148319 0.360708 0.460704
O O5 0.281205 0.820879 0.341666
O O6 0.580457 0.850879 0.635338
O O7 0.500000 0.000000 0.500000
O O8 0.213188 0.577292 0.836792
O O9 0.000000 0.631180 0.750000
O O10 0.204870 0.172420 0.684368
O O11 0.451960 0.316191 0.913078
O O12 0.500000 0.500000 0.000000
#
# Coordination Sequence:
#
# PCOD9287354 Si02
#       5
#     8   8   8   8   8
#     4  11  23  39  59  86 118 154 191 239 298 350
#     4  11  22  39  61  86 118 154 194 241 292 347
#     4  11  22  36  57  88 120 149 190 241 293 352
#     4  10  22  36  57  87 115 147 196 239 279 343
#     4  11  21  36  58  85 115 150 187 232 288 342
#
# _framework density 19.013093999999999
#
# number of rings (size 3 to 8) (size 9 to 14) (size 15 to 20)
#    0.000    1.200    0.000    9.600    0.000    4.800 
#    0.000    1.000    0.000    4.800    0.000    0.000 
#    0.000    0.000    0.000    0.000    0.000    0.000 
#
# Total GULP energy -111817.027254 kJ/mol
# GULP energy per Si atom -5590.851363 kJ/mol
# Density = 1.896982 g / cm^3
# Si number density = 19.013094 Si / 1000 Ang^3
#
#
#
# Elastic Constant Matrix: (Units=GPa)
#
#
# Indices 1 2 3 4 5 6 
#
# 1 126.1710 59.7160 75.9059 0.0084 25.6404 0.0038
# 2 59.7160 80.4405 68.1326 -0.0256 6.0869 -0.0099
# 3 75.9059 68.1326 167.9286 -0.0448 5.0471 -0.0178
# 4 0.0084 -0.0256 -0.0448 24.9523 0.0006 11.7854
# 5 25.6404 6.0869 5.0471 0.0006 27.3151 0.0028
# 6 0.0038 -0.0099 -0.0178 11.7854 0.0028 30.4317
#
#
#
# Elastic Compliance Matrix: (Units=1/GPa)
#
#
# Indices 1 2 3 4 5 6 
#
# 1 0.016844 -0.008211 -0.003884 -0.000022 -0.013264 0.000003
# 2 -0.008211 0.023161 -0.005794 0.000017 0.003617 -0.000002
# 3 -0.003884 -0.005794 0.009968 0.000014 0.003095 -0.000001
# 4 -0.000022 0.000017 0.000014 0.049048 0.000015 -0.018995
# 5 -0.013264 0.003617 0.003095 0.000015 0.047682 -0.000006
# 6 0.000003 -0.000002 -0.000001 -0.018995 -0.000006 0.040217
#
#
# Mechanical properties :
#
#
# Convention : Reuss Voigt Hill
#
# Bulk Modulus (GPa) = 70.44575 86.89435 78.67005
# Shear Modulus (GPa) = 21.98475 27.92554 24.95514
#
# Velocity S-wave (km/s) = 3.40412 3.83659 3.62681
# Velocity P-wave (km/s) = 7.25137 8.08873 7.68147
#
# Compressibility (1/GPa) = 0.01419532
#
# Stress axis : x y z
#
# Youngs Moduli (GPa) = 59.36840 43.17563 100.31981
#
# Poissons Ratio (x) = 0.35453 0.38959
# Poissons Ratio (y) = 0.48749 0.58127
# Poissons Ratio (z) = 0.23056 0.25017
#
# Static dielectric constant tensor:
#      x y z
#    x 1.657700 -0.000150 -0.000940 
#    y -0.000150 0.963980 0.000140 
#    z -0.000940 0.000140 1.677000 
# 
# From -- ./inp_files/46263.got.cif
#   From: 2010.05.17/outbox.cif.g08.bks.cpg/sg15_24_cif.got.tgz:46263.got - 2010.06.03 18:47:42.
