data_PCOD9287967
_publ_section_title
;
Structure prediction by ZEFSAII (Michael W. Deem and Ramdas Pophale) SiO2 
 PCOD9287967
Probable space group: C 2/C
;
_chemical_formula_sum "Si O2"
_cell_formula_units_Z 44
_cell_length_a 22.087882
_cell_length_b 8.268077
_cell_length_c 10.186926
_cell_angle_alpha 90.000000
_cell_angle_beta 88.245753
_cell_angle_gamma 90.000000
_cell_volume 1859.508408
_symmetry_space_group_name_H-M "C 2/C"
_symmetry_group_IT_number 15
_symmetry_cell_setting 'monoclinic'
loop_
_space_group_symop_operation_xyz
x,y,z
-x,y,1/2-z
-x,-y,-z
x,-y,1/2+z
1/2+x,1/2+y,z
1/2-x,1/2+y,1/2-z
1/2-x,1/2-y,-z
1/2+x,1/2-y,1/2+z
loop_
_atom_site_type_symbol
_atom_site_label
_atom_site_fract_x
_atom_site_fract_y
_atom_site_fract_z
Si Si1 0.608235 0.308484 0.363039
Si Si2 0.077492 0.818628 0.887583
Si Si3 0.703239 0.813261 0.394116
Si Si4 0.734721 0.813310 0.855465
Si Si5 0.000000 0.621809 0.250000
Si Si6 0.453646 0.817018 0.398328
O O1 0.594394 0.494214 0.393204
O O2 0.675835 0.284197 0.309105
O O3 0.557398 0.232637 0.274301
O O4 0.600023 0.202212 0.495774
O O5 0.133825 0.717947 0.939730
O O6 0.067530 0.761445 0.737404
O O7 0.011318 0.782591 0.950840
O O8 0.750000 0.750000 0.500000
O O9 0.716930 0.000178 0.865862
O O10 0.714187 0.282485 0.756729
O O11 0.750000 0.750000 0.000000
O O12 0.021666 0.494595 0.137112
#
# Coordination Sequence:
#
# PCOD9287967 Si02
#       6
#     8   8   8   8   4   8
#     4  12  23  39  65  93 125 166 209 263 324 381
#     4  10  22  41  63  92 126 166 214 263 317 383
#     4  12  26  46  68  96 131 173 220 271 326 389
#     4  12  26  45  68  97 131 174 220 270 325 388
#     4  10  22  38  60  94 126 164 212 258 318 384
#     4  10  22  41  62  90 128 166 207 264 317 379
#
# _framework density 23.662168000000001
#
# number of rings (size 3 to 8) (size 9 to 14) (size 15 to 20)
#    0.000    1.091    0.000    8.727    0.000    4.364 
#    0.000    0.000    0.000    0.000    0.000    0.000 
#    0.000    0.000    0.000    0.000    0.000    0.000 
#
# Total GULP energy -123227.672679 kJ/mol
# GULP energy per Si atom -5601.257849 kJ/mol
# Density = 2.360831 g / cm^3
# Si number density = 23.662168 Si / 1000 Ang^3
#
#
#
# Elastic Constant Matrix: (Units=GPa)
#
#
# Indices 1 2 3 4 5 6 
#
# 1 115.4715 14.8540 5.7387 0.0000 12.6265 0.0000
# 2 14.8540 155.2714 -6.6298 0.0000 8.7645 0.0000
# 3 5.7387 -6.6298 69.7795 0.0000 8.0144 0.0000
# 4 0.0000 0.0000 0.0000 33.2485 0.0000 3.9626
# 5 12.6265 8.7645 8.0144 0.0000 38.4261 0.0000
# 6 0.0000 0.0000 0.0000 3.9626 0.0000 41.8197
#
#
#
# Elastic Compliance Matrix: (Units=1/GPa)
#
#
# Indices 1 2 3 4 5 6 
#
# 1 0.009076 -0.000737 -0.000505 0.000000 -0.002709 0.000000
# 2 -0.000737 0.006629 0.000857 0.000000 -0.001449 0.000000
# 3 -0.000505 0.000857 0.014812 0.000000 -0.003119 0.000000
# 4 0.000000 0.000000 0.000000 0.030420 0.000000 -0.002882
# 5 -0.002709 -0.001449 -0.003119 0.000000 0.027895 0.000000
# 6 0.000000 0.000000 0.000000 -0.002882 0.000000 0.024185
#
#
# Mechanical properties :
#
#
# Convention : Reuss Voigt Hill
#
# Bulk Modulus (GPa) = 33.61735 40.93870 37.27803
# Shear Modulus (GPa) = 40.41901 44.46950 42.44426
#
# Velocity S-wave (km/s) = 4.13749 4.33985 4.23988
# Velocity P-wave (km/s) = 6.08795 6.51547 6.30533
#
# Compressibility (1/GPa) = 0.02974654
#
# Stress axis : x y z
#
# Youngs Moduli (GPa) = 110.17743 150.84805 67.51280
#
# Poissons Ratio (x) = 0.11117 0.03412
# Poissons Ratio (y) = 0.08120 -0.05785
# Poissons Ratio (z) = 0.05568 -0.12925
#
# Static dielectric constant tensor:
#      x y z
#    x 1.842540 0.000000 0.017010 
#    y 0.000000 1.834800 0.000000 
#    z 0.017010 0.000000 1.925490 
# 
# From -- ./inp_files/116369.got.cif
#   From: 2010.05.17/outbox.cif.g08.bks.cpg/sg15_59_cif.got.tgz:116369.got - 2010.06.03 18:47:42.
