data_PCOD9287816
_publ_section_title
;
Structure prediction by ZEFSAII (Michael W. Deem and Ramdas Pophale) SiO2 
 PCOD9287816
Probable space group: C 2/C
;
_chemical_formula_sum "Si O2"
_cell_formula_units_Z 60
_cell_length_a 12.183840
_cell_length_b 21.836775
_cell_length_c 18.989368
_cell_angle_alpha 90.000000
_cell_angle_beta 40.317000
_cell_angle_gamma 90.000000
_cell_volume 3268.874476
_symmetry_space_group_name_H-M "C 2/C"
_symmetry_group_IT_number 15
_symmetry_cell_setting 'monoclinic'
loop_
_space_group_symop_operation_xyz
x,y,z
-x,y,1/2-z
-x,-y,-z
x,-y,1/2+z
1/2+x,1/2+y,z
1/2-x,1/2+y,1/2-z
1/2-x,1/2-y,-z
1/2+x,1/2-y,1/2+z
loop_
_atom_site_type_symbol
_atom_site_label
_atom_site_fract_x
_atom_site_fract_y
_atom_site_fract_z
Si Si1 0.414180 0.673977 0.366925
Si Si2 0.570523 0.579875 0.393021
Si Si3 0.835703 0.944628 0.142454
Si Si4 0.699518 0.825323 0.636137
Si Si5 0.782225 0.810736 0.322898
Si Si6 0.444056 0.192893 0.911528
Si Si7 0.914485 0.143967 0.895458
Si Si8 0.500000 0.882426 0.250000
O O1 0.500000 0.682091 0.250000
O O2 0.481544 0.612838 0.371083
O O3 0.453135 0.734084 0.395177
O O4 0.210991 0.675131 0.462696
O O5 0.662068 0.515297 0.335718
O O6 0.430667 0.565021 0.521166
O O7 0.700157 0.629109 0.361525
O O8 0.645990 0.920482 0.219149
O O9 0.958934 0.908347 0.136782
O O10 0.500000 0.832499 0.750000
O O11 0.747454 0.754877 0.627208
O O12 0.773230 0.841402 0.522709
O O13 0.620314 0.828383 0.357435
O O14 0.823968 0.859993 0.363619
O O15 0.945235 0.803924 0.191794
O O16 0.414665 0.161072 0.850481
#
# Coordination Sequence:
#
# PCOD9287816 Si02
#       8
#     8   8   8   8   8   8   8   4
#     4  11  23  39  60  92 130 161 192 255 316 363
#     4  10  22  41  58  88 117 165 201 247 301 353
#     4  10  22  40  65  82 120 160 211 247 285 366
#     4  11  22  35  58  88 119 150 197 246 297 359
#     4  11  21  36  60  88 122 150 194 244 303 359
#     4  11  23  37  62  94 121 158 204 247 307 372
#     4  10  22  38  57  87 118 162 191 239 305 350
#     4  12  20  38  66  90 114 154 212 258 284 366
#
# _framework density 18.354942000000001
#
# number of rings (size 3 to 8) (size 9 to 14) (size 15 to 20)
#    0.000    1.333    6.000    0.400    0.933    2.133 
#    2.400    0.000    0.000    1.600    0.000    0.000 
#    0.000    0.000    0.000    0.000    0.000    0.000 
#
# Total GULP energy -167170.331013 kJ/mol
# GULP energy per Si atom -5572.344367 kJ/mol
# Density = 1.831317 g / cm^3
# Si number density = 18.354942 Si / 1000 Ang^3
#
#
#
# Elastic Constant Matrix: (Units=GPa)
#
#
# Indices 1 2 3 4 5 6 
#
# 1 90.1053 32.2257 32.2593 -0.0005 -13.4309 0.0005
# 2 32.2257 86.2271 11.0847 0.0002 1.0170 0.0000
# 3 32.2593 11.0847 106.5255 -0.0005 -7.9569 0.0008
# 4 -0.0005 0.0002 -0.0005 18.7209 0.0004 -3.6869
# 5 -13.4309 1.0170 -7.9569 0.0004 17.4905 -0.0002
# 6 0.0005 0.0000 0.0008 -3.6869 -0.0002 18.5140
#
#
#
# Elastic Compliance Matrix: (Units=1/GPa)
#
#
# Indices 1 2 3 4 5 6 
#
# 1 0.016002 -0.005670 -0.003430 0.000000 0.011057 0.000000
# 2 -0.005670 0.013791 -0.000107 0.000000 -0.005204 0.000000
# 3 -0.003430 -0.000107 0.010601 0.000000 0.002195 0.000000
# 4 0.000000 0.000000 0.000000 0.055597 -0.000001 0.011072
# 5 0.011057 -0.005204 0.002195 -0.000001 0.066966 0.000000
# 6 0.000000 0.000000 0.000000 0.011072 0.000000 0.056218
#
#
# Mechanical properties :
#
#
# Convention : Reuss Voigt Hill
#
# Bulk Modulus (GPa) = 45.49343 48.22194 46.85769
# Shear Modulus (GPa) = 20.41516 24.76429 22.58972
#
# Velocity S-wave (km/s) = 3.33865 3.67712 3.51196
# Velocity P-wave (km/s) = 6.30090 6.66012 6.48300
#
# Compressibility (1/GPa) = 0.02198119
#
# Stress axis : x y z
#
# Youngs Moduli (GPa) = 62.49158 72.50875 94.32872
#
# Poissons Ratio (x) = 0.41112 0.32355
# Poissons Ratio (y) = 0.35433 0.01007
# Poissons Ratio (z) = 0.21435 0.00774
#
# Static dielectric constant tensor:
#      x y z
#    x 1.657270 0.000000 -0.010140 
#    y 0.000000 1.628430 0.000000 
#    z -0.010140 0.000000 1.645370 
# 
# From -- ./inp_files/200519.got.cif
#   From: 2010.05.17/outbox.cif.g08.bks.cpg/sg15_101_cif.got.tgz:200519.got - 2010.06.03 18:47:42.
