data_PCOD9287913
_publ_section_title
;
Structure prediction by ZEFSAII (Michael W. Deem and Ramdas Pophale) SiO2 
 PCOD9287913
Probable space group: C 2/C
;
_chemical_formula_sum "Si O2"
_cell_formula_units_Z 52
_cell_length_a 22.006608
_cell_length_b 8.986392
_cell_length_c 14.685679
_cell_angle_alpha 90.000000
_cell_angle_beta 127.032541
_cell_angle_gamma 90.000000
_cell_volume 2318.436127
_symmetry_space_group_name_H-M "C 2/C"
_symmetry_group_IT_number 15
_symmetry_cell_setting 'monoclinic'
loop_
_space_group_symop_operation_xyz
x,y,z
-x,y,1/2-z
-x,-y,-z
x,-y,1/2+z
1/2+x,1/2+y,z
1/2-x,1/2+y,1/2-z
1/2-x,1/2-y,-z
1/2+x,1/2-y,1/2+z
loop_
_atom_site_type_symbol
_atom_site_label
_atom_site_fract_x
_atom_site_fract_y
_atom_site_fract_z
Si Si1 0.000000 0.084652 0.750000
Si Si2 0.134456 0.683756 0.409065
Si Si3 0.325642 0.301372 0.235730
Si Si4 0.611277 0.610248 0.247909
Si Si5 0.668755 0.181079 0.652508
Si Si6 0.923505 0.603080 0.432365
Si Si7 0.584908 0.844542 0.365600
O O1 0.033187 0.974732 0.702630
O O2 0.067513 0.193979 0.839903
O O3 0.188473 0.721587 0.373225
O O4 0.158075 0.694021 0.534886
O O5 0.110109 0.513555 0.370554
O O6 0.331121 0.475569 0.217652
O O7 0.257588 0.283390 0.246419
O O8 0.405743 0.235591 0.346010
O O9 0.614648 0.712152 0.161928
O O10 0.629859 0.718574 0.349900
O O11 0.643401 0.013947 0.651535
O O12 0.915661 0.669157 0.526234
O O13 0.000000 0.500000 0.500000
O O14 0.500000 0.833501 0.250000
#
# Coordination Sequence:
#
# PCOD9287913 Si02
#       7
#     4   8   8   8   8   8   8
#     4  10  22  38  60 104 134 174 222 296 356 404
#     4  10  22  40  68  92 135 181 232 280 350 424
#     4  11  24  44  64  99 143 182 234 295 352 422
#     4  11  24  39  66  97 144 171 227 296 352 407
#     4  11  24  43  67  98 136 191 235 283 360 425
#     4  11  25  43  74 101 132 191 243 282 350 430
#     4  11  21  42  66  99 135 174 230 289 351 418
#
# _framework density 22.428913000000001
#
# number of rings (size 3 to 8) (size 9 to 14) (size 15 to 20)
#    0.000    1.231    1.538    4.154    6.462    3.077 
#    0.000    8.462    0.000    0.000    0.000    0.000 
#    0.000    0.000    0.000    0.000    0.000    0.000 
#
# Total GULP energy -145145.358275 kJ/mol
# GULP energy per Si atom -5582.513780 kJ/mol
# Density = 2.237786 g / cm^3
# Si number density = 22.428913 Si / 1000 Ang^3
#
#
#
# Elastic Constant Matrix: (Units=GPa)
#
#
# Indices 1 2 3 4 5 6 
#
# 1 99.7273 47.5380 6.9146 0.0000 -9.0296 0.0000
# 2 47.5380 148.2910 50.3270 0.0000 -19.7214 0.0000
# 3 6.9146 50.3270 59.7630 0.0000 -18.3249 0.0000
# 4 0.0000 0.0000 0.0000 23.6498 0.0000 -13.0201
# 5 -9.0296 -19.7214 -18.3249 0.0000 30.4075 0.0000
# 6 0.0000 0.0000 0.0000 -13.0201 0.0000 24.9871
#
#
#
# Elastic Compliance Matrix: (Units=1/GPa)
#
#
# Indices 1 2 3 4 5 6 
#
# 1 0.012287 -0.004734 0.003364 0.000000 0.002605 0.000000
# 2 -0.004734 0.011332 -0.008799 0.000000 0.000642 0.000000
# 3 0.003364 -0.008799 0.027367 0.000000 0.011785 0.000000
# 4 0.000000 0.000000 0.000000 0.059293 0.000000 0.030896
# 5 0.002605 0.000642 0.011785 0.000000 0.041178 0.000000
# 6 0.000000 0.000000 0.000000 0.030896 0.000000 0.056119
#
#
# Mechanical properties :
#
#
# Convention : Reuss Voigt Hill
#
# Bulk Modulus (GPa) = 32.62861 57.48225 45.05543
# Shear Modulus (GPa) = 20.99694 29.34234 25.16964
#
# Velocity S-wave (km/s) = 3.06298 3.62088 3.35355
# Velocity P-wave (km/s) = 5.20464 6.57003 5.92679
#
# Compressibility (1/GPa) = 0.03064795
#
# Stress axis : x y z
#
# Youngs Moduli (GPa) = 81.38994 88.24208 36.54100
#
# Poissons Ratio (x) = 0.41772 -0.12291
# Poissons Ratio (y) = 0.38528 0.32151
# Poissons Ratio (z) = -0.27377 0.77642
#
# Static dielectric constant tensor:
#      x y z
#    x 1.933300 0.000000 0.021930 
#    y 0.000000 1.843430 0.000000 
#    z 0.021930 0.000000 1.817000 
# 
# From -- ./inp_files/172064.got.cif
#   From: 2010.05.17/outbox.cif.g08.bks.cpg/sg15_87_cif.got.tgz:172064.got - 2010.06.03 18:47:42.
