data_PCOD9287039
_publ_section_title
;
Structure prediction by ZEFSAII (Michael W. Deem and Ramdas Pophale) SiO2 
 PCOD9287039
Probable space group: C 2/C
;
_chemical_formula_sum "Si O2"
_cell_formula_units_Z 40
_cell_length_a 17.375269
_cell_length_b 7.558159
_cell_length_c 13.158652
_cell_angle_alpha 90.000000
_cell_angle_beta 119.681706
_cell_angle_gamma 90.000000
_cell_volume 1501.321170
_symmetry_space_group_name_H-M "C 2/C"
_symmetry_group_IT_number 15
_symmetry_cell_setting 'monoclinic'
loop_
_space_group_symop_operation_xyz
x,y,z
-x,y,1/2-z
-x,-y,-z
x,-y,1/2+z
1/2+x,1/2+y,z
1/2-x,1/2+y,1/2-z
1/2-x,1/2-y,-z
1/2+x,1/2-y,1/2+z
loop_
_atom_site_type_symbol
_atom_site_label
_atom_site_fract_x
_atom_site_fract_y
_atom_site_fract_z
Si Si1 0.216720 0.453445 0.036927
Si Si2 0.243225 0.158819 0.640966
Si Si3 0.062864 0.760744 0.705734
Si Si4 0.026853 0.683105 0.466243
Si Si5 0.624048 0.371030 0.245922
O O1 0.213422 0.636832 0.102334
O O2 0.291697 0.322507 0.130507
O O3 0.249612 0.543666 0.955010
O O4 0.122684 0.356161 0.981479
O O5 0.344039 0.161144 0.748290
O O6 0.172795 0.081839 0.672111
O O7 0.025359 0.799460 0.569026
O O8 0.000000 0.672768 0.750000
O O9 0.088747 0.948576 0.771197
O O10 0.000000 0.500000 0.500000
O O11 0.956385 0.745922 0.336945
#
# Coordination Sequence:
#
# PCOD9287039 Si02
#       5
#     8   8   8   8   8
#     4  10  22  43  74 108 148 190 247 302 372 454
#     4  10  21  45  77 102 144 200 240 301 381 433
#     4  11  25  45  70 102 146 199 241 301 378 442
#     4  12  23  43  73 105 149 191 246 308 369 445
#     4  11  24  43  73 109 144 193 247 305 369 443
#
# _framework density 26.6432
#
# number of rings (size 3 to 8) (size 9 to 14) (size 15 to 20)
#    0.000    1.200    4.000    1.800    5.600    0.000 
#    0.000    8.000    0.000    0.000    0.000    0.000 
#    0.000    0.000    0.000    0.000    0.000    0.000 
#
# Total GULP energy -111965.645294 kJ/mol
# GULP energy per Si atom -5598.282265 kJ/mol
# Density = 2.658256 g / cm^3
# Si number density = 26.643200 Si / 1000 Ang^3
#
#
#
# Elastic Constant Matrix: (Units=GPa)
#
#
# Indices 1 2 3 4 5 6 
#
# 1 197.8404 14.9445 70.8674 0.0000 17.0445 0.0000
# 2 14.9445 59.6017 37.4593 0.0000 19.0806 0.0000
# 3 70.8674 37.4593 139.8284 0.0000 39.1907 0.0000
# 4 0.0000 0.0000 0.0000 41.9439 0.0000 2.5896
# 5 17.0445 19.0806 39.1907 0.0000 54.7102 0.0000
# 6 0.0000 0.0000 0.0000 2.5896 0.0000 35.1515
#
#
#
# Elastic Compliance Matrix: (Units=1/GPa)
#
#
# Indices 1 2 3 4 5 6 
#
# 1 0.006192 0.000451 -0.003346 0.000000 0.000311 0.000000
# 2 0.000451 0.020917 -0.004690 0.000000 -0.004076 0.000000
# 3 -0.003346 -0.004690 0.011703 0.000000 -0.005705 0.000000
# 4 0.000000 0.000000 0.000000 0.023950 0.000000 -0.001764
# 5 0.000311 -0.004076 -0.005705 0.000000 0.023690 0.000000
# 6 0.000000 0.000000 0.000000 -0.001764 0.000000 0.028578
#
#
# Mechanical properties :
#
#
# Convention : Reuss Voigt Hill
#
# Bulk Modulus (GPa) = 42.29648 71.53476 56.91562
# Shear Modulus (GPa) = 36.21036 44.62774 40.41905
#
# Velocity S-wave (km/s) = 3.69058 4.09713 3.89916
# Velocity P-wave (km/s) = 5.83696 7.02064 6.45599
#
# Compressibility (1/GPa) = 0.02364263
#
# Stress axis : x y z
#
# Youngs Moduli (GPa) = 161.48794 47.80712 85.44847
#
# Poissons Ratio (x) = -0.02156 0.28594
# Poissons Ratio (y) = -0.07283 0.40074
# Poissons Ratio (z) = 0.54039 0.22421
#
# Static dielectric constant tensor:
#      x y z
#    x 2.089310 0.000000 -0.159030 
#    y 0.000000 2.284590 0.000000 
#    z -0.159030 0.000000 2.863770 
# 
# From -- ./inp_files/159505.got.cif
#   From: 2010.05.17/outbox.cif.g08.bks.cpg/sg15_80_cif.got.tgz:159505.got - 2010.06.03 18:47:42.
