data_PCOD9287719
_publ_section_title
;
Structure prediction by ZEFSAII (Michael W. Deem and Ramdas Pophale) SiO2 
 PCOD9287719
Probable space group: C 2/C
;
_chemical_formula_sum "Si O2"
_cell_formula_units_Z 44
_cell_length_a 6.499341
_cell_length_b 25.632565
_cell_length_c 16.913316
_cell_angle_alpha 90.000000
_cell_angle_beta 51.096378
_cell_angle_gamma 90.000000
_cell_volume 2192.720646
_symmetry_space_group_name_H-M "C 2/C"
_symmetry_group_IT_number 15
_symmetry_cell_setting 'monoclinic'
loop_
_space_group_symop_operation_xyz
x,y,z
-x,y,1/2-z
-x,-y,-z
x,-y,1/2+z
1/2+x,1/2+y,z
1/2-x,1/2+y,1/2-z
1/2-x,1/2-y,-z
1/2+x,1/2-y,1/2+z
loop_
_atom_site_type_symbol
_atom_site_label
_atom_site_fract_x
_atom_site_fract_y
_atom_site_fract_z
Si Si1 0.500000 0.847790 0.750000
Si Si2 0.493989 0.894826 0.023451
Si Si3 0.947107 0.933225 0.670643
Si Si4 0.524037 0.451290 0.339618
Si Si5 0.253307 0.308475 0.530688
Si Si6 0.183750 0.357427 0.141368
O O1 0.735017 0.887842 0.713568
O O2 0.612541 0.814530 0.649701
O O3 0.276579 0.939541 0.061257
O O4 0.506280 0.875235 0.110566
O O5 0.407636 0.847061 0.988597
O O6 0.783489 0.915639 0.935114
O O7 0.000000 0.939399 0.750000
O O8 0.875208 0.991522 0.659952
O O9 0.500000 0.446757 0.250000
O O10 0.699902 0.407090 0.338637
O O11 0.250000 0.250000 0.500000
O O12 0.559250 0.327492 0.454003
O O13 0.000000 0.328090 0.250000
#
# Coordination Sequence:
#
# PCOD9287719 Si02
#       6
#     4   8   8   8   8   8
#     4  12  24  46  68 100 134 166 224 280 328 402
#     4  11  22  43  64  94 134 171 224 271 328 391
#     4  11  23  40  65  97 135 174 214 269 329 394
#     4  10  22  37  64  97 136 177 217 259 321 401
#     4  11  27  47  69  97 127 173 227 284 339 390
#     4  11  23  42  65  98 135 176 219 270 325 395
#
# _framework density 20.066395
#
# number of rings (size 3 to 8) (size 9 to 14) (size 15 to 20)
#    0.000    1.091    5.455    0.545    1.273    2.909 
#    3.273    0.000    0.000    0.000    0.000    0.000 
#    0.000    0.000    0.000    0.000    0.000    0.000 
#
# Total GULP energy -122842.513391 kJ/mol
# GULP energy per Si atom -5583.750609 kJ/mol
# Density = 2.002072 g / cm^3
# Si number density = 20.066395 Si / 1000 Ang^3
#
#
#
# Elastic Constant Matrix: (Units=GPa)
#
#
# Indices 1 2 3 4 5 6 
#
# 1 53.8140 14.6791 27.2591 0.0000 3.9480 0.0000
# 2 14.6791 118.7852 47.6093 0.0000 4.5876 0.0000
# 3 27.2591 47.6093 154.4051 0.0000 -0.0509 0.0000
# 4 0.0000 0.0000 0.0000 20.6737 0.0000 4.1958
# 5 3.9480 4.5876 -0.0509 0.0000 39.5383 0.0000
# 6 0.0000 0.0000 0.0000 4.1958 0.0000 7.1670
#
#
#
# Elastic Compliance Matrix: (Units=1/GPa)
#
#
# Indices 1 2 3 4 5 6 
#
# 1 0.020713 -0.001163 -0.003299 0.000000 -0.001938 0.000000
# 2 -0.001163 0.009721 -0.002792 0.000000 -0.001015 0.000000
# 3 -0.003299 -0.002792 0.007920 0.000000 0.000664 0.000000
# 4 0.000000 0.000000 0.000000 0.054893 0.000000 -0.032136
# 5 -0.001938 -0.001015 0.000664 0.000000 0.025604 0.000000
# 6 0.000000 0.000000 0.000000 -0.032136 0.000000 0.158341
#
#
# Mechanical properties :
#
#
# Convention : Reuss Voigt Hill
#
# Bulk Modulus (GPa) = 41.93594 56.23325 49.08459
# Shear Modulus (GPa) = 16.68627 29.30628 22.99627
#
# Velocity S-wave (km/s) = 2.88679 3.82575 3.38895
# Velocity P-wave (km/s) = 5.66175 6.89924 6.31090
#
# Compressibility (1/GPa) = 0.02384590
#
# Stress axis : x y z
#
# Youngs Moduli (GPa) = 48.27929 102.87414 126.26150
#
# Poissons Ratio (x) = 0.11960 0.41652
# Poissons Ratio (y) = 0.05613 0.35257
# Poissons Ratio (z) = 0.15927 0.28726
#
# Static dielectric constant tensor:
#      x y z
#    x 1.703580 0.000000 -0.006760 
#    y 0.000000 1.687360 0.000000 
#    z -0.006760 0.000000 1.738110 
# 
# From -- ./inp_files/129352.got.cif
#   From: 2010.05.17/outbox.cif.g08.bks.cpg/sg15_65_cif.got.tgz:129352.got - 2010.06.03 18:47:42.
