data_PCOD9287328
_publ_section_title
;
Structure prediction by ZEFSAII (Michael W. Deem and Ramdas Pophale) SiO2 
 PCOD9287328
Probable space group: C 2/C
;
_chemical_formula_sum "Si O2"
_cell_formula_units_Z 64
_cell_length_a 22.664861
_cell_length_b 18.852823
_cell_length_c 8.879313
_cell_angle_alpha 90.000000
_cell_angle_beta 77.159055
_cell_angle_gamma 90.000000
_cell_volume 3699.212882
_symmetry_space_group_name_H-M "C 2/C"
_symmetry_group_IT_number 15
_symmetry_cell_setting 'monoclinic'
loop_
_space_group_symop_operation_xyz
x,y,z
-x,y,1/2-z
-x,-y,-z
x,-y,1/2+z
1/2+x,1/2+y,z
1/2-x,1/2+y,1/2-z
1/2-x,1/2-y,-z
1/2+x,1/2-y,1/2+z
loop_
_atom_site_type_symbol
_atom_site_label
_atom_site_fract_x
_atom_site_fract_y
_atom_site_fract_z
Si Si1 0.691738 0.717948 0.944735
Si Si2 0.420256 0.448200 0.958512
Si Si3 0.750169 0.084259 0.192401
Si Si4 0.865701 0.820944 0.543808
Si Si5 0.065427 0.198883 0.193065
Si Si6 0.284035 0.558813 0.501987
Si Si7 0.062664 0.915906 0.211327
Si Si8 0.691599 0.785626 0.613780
O O1 0.685640 0.752259 0.783722
O O2 0.750000 0.750000 0.000000
O O3 0.627223 0.726327 0.071508
O O4 0.708151 0.634424 0.919692
O O5 0.447509 0.375019 0.885390
O O6 0.353987 0.457195 0.921168
O O7 0.453670 0.518449 0.888198
O O8 0.415543 0.442153 0.139670
O O9 0.806967 0.138703 0.143655
O O10 0.744983 0.071252 0.373772
O O11 0.699014 0.130672 0.137644
O O12 0.761561 0.008482 0.108914
O O13 0.912408 0.817930 0.652118
O O14 0.886619 0.870323 0.396211
O O15 0.857761 0.743463 0.474807
O O16 0.000000 0.237120 0.250000
O O17 0.000000 0.872598 0.250000
O O18 0.750000 0.750000 0.500000
#
# Coordination Sequence:
#
# PCOD9287328 Si02
#       8
#     8   8   8   8   8   8   8   8
#     4  11  20  39  59  82 116 158 191 238 298 344
#     4  11  20  33  47  69 105 148 192 236 278 319
#     4  11  21  36  51  81 107 147 188 237 280 337
#     4  11  20  36  51  73 109 146 192 239 285 334
#     4  11  22  37  56  78 110 152 202 241 279 343
#     4  11  21  33  56  76 108 145 191 232 279 335
#     4  12  22  31  46  68 101 145 193 236 275 328
#     4  10  22  36  55  79 111 150 192 239 297 346
#
# _framework density 17.300979000000002
#
# number of rings (size 3 to 8) (size 9 to 14) (size 15 to 20)
#    0.000    1.000    5.000    5.250    3.500    0.000 
#    0.000    0.000    0.000    0.000    0.000    0.000 
#    0.000    5.000    0.000    0.000    0.000    0.000 
#
# Total GULP energy -178294.570700 kJ/mol
# GULP energy per Si atom -5571.705334 kJ/mol
# Density = 1.726160 g / cm^3
# Si number density = 17.300979 Si / 1000 Ang^3
#
#
#
# Elastic Constant Matrix: (Units=GPa)
#
#
# Indices 1 2 3 4 5 6 
#
# 1 50.3225 16.2731 19.9507 0.0000 -2.0850 0.0000
# 2 16.2731 69.0241 15.0855 0.0000 0.5349 0.0000
# 3 19.9507 15.0855 84.6961 0.0000 8.0051 0.0000
# 4 0.0000 0.0000 0.0000 21.8749 0.0000 3.4986
# 5 -2.0850 0.5349 8.0051 0.0000 25.2487 0.0000
# 6 0.0000 0.0000 0.0000 3.4986 0.0000 11.1043
#
#
#
# Elastic Compliance Matrix: (Units=1/GPa)
#
#
# Indices 1 2 3 4 5 6 
#
# 1 0.023477 -0.004453 -0.005082 0.000000 0.003644 0.000000
# 2 -0.004453 0.015926 -0.001774 0.000000 -0.000143 0.000000
# 3 -0.005082 -0.001774 0.013769 0.000000 -0.004747 0.000000
# 4 0.000000 0.000000 0.000000 0.048140 0.000000 -0.015167
# 5 0.003644 -0.000143 -0.004747 0.000000 0.041415 0.000000
# 6 0.000000 0.000000 0.000000 -0.015167 0.000000 0.094834
#
#
# Mechanical properties :
#
#
# Convention : Reuss Voigt Hill
#
# Bulk Modulus (GPa) = 32.72773 34.07347 33.40060
# Shear Modulus (GPa) = 18.49360 21.82781 20.16071
#
# Velocity S-wave (km/s) = 3.27300 3.55583 3.41734
# Velocity P-wave (km/s) = 5.76551 6.04945 5.90919
#
# Compressibility (1/GPa) = 0.03055513
#
# Stress axis : x y z
#
# Youngs Moduli (GPa) = 42.59431 62.78906 72.62876
#
# Poissons Ratio (x) = 0.27958 0.36907
# Poissons Ratio (y) = 0.18966 0.12887
# Poissons Ratio (z) = 0.21645 0.11141
#
# Static dielectric constant tensor:
#      x y z
#    x 1.672790 0.000000 -0.020040 
#    y 0.000000 1.620930 0.000000 
#    z -0.020040 0.000000 1.624620 
# 
# From -- ./inp_files/62467.got.cif
#   From: 2010.05.17/outbox.cif.g08.bks.cpg/sg15_32_cif.got.tgz:62467.got - 2010.06.03 18:47:42.
