data_PCOD9287176
_publ_section_title
;
Structure prediction by ZEFSAII (Michael W. Deem and Ramdas Pophale) SiO2 
 PCOD9287176
Probable space group: C 2/C
;
_chemical_formula_sum "Si O2"
_cell_formula_units_Z 56
_cell_length_a 23.859147
_cell_length_b 13.382148
_cell_length_c 8.793530
_cell_angle_alpha 90.000000
_cell_angle_beta 60.621959
_cell_angle_gamma 90.000000
_cell_volume 2446.597279
_symmetry_space_group_name_H-M "C 2/C"
_symmetry_group_IT_number 15
_symmetry_cell_setting 'monoclinic'
loop_
_space_group_symop_operation_xyz
x,y,z
-x,y,1/2-z
-x,-y,-z
x,-y,1/2+z
1/2+x,1/2+y,z
1/2-x,1/2+y,1/2-z
1/2-x,1/2-y,-z
1/2+x,1/2-y,1/2+z
loop_
_atom_site_type_symbol
_atom_site_label
_atom_site_fract_x
_atom_site_fract_y
_atom_site_fract_z
Si Si1 0.406748 0.315015 0.129951
Si Si2 0.500000 0.664610 0.250000
Si Si3 0.258328 0.360829 0.331820
Si Si4 0.329037 0.866888 0.466389
Si Si5 0.202186 0.464359 0.698445
Si Si6 0.000000 0.833016 0.250000
Si Si7 0.420313 0.553720 0.106848
Si Si8 0.812161 0.202629 0.274943
O O1 0.329243 0.311576 0.225247
O O2 0.442758 0.277495 0.234822
O O3 0.413793 0.436122 0.117585
O O4 0.453741 0.278372 0.931283
O O5 0.451476 0.595455 0.219063
O O6 0.241622 0.397476 0.524686
O O7 0.245762 0.458454 0.240973
O O8 0.209563 0.278063 0.328768
O O9 0.338723 0.898600 0.627656
O O10 0.251926 0.844420 0.567288
O O11 0.351222 0.768519 0.347002
O O12 0.341455 0.963034 0.346177
O O13 0.964665 0.902720 0.417073
O O14 0.353675 0.609696 0.169984
#
# Coordination Sequence:
#
# PCOD9287176 Si02
#       8
#     8   4   8   8   8   4   8   8
#     4  11  21  35  55  77 108 153 201 227 258 320
#     4  10  23  34  56  78 102 157 208 219 258 314
#     4  10  22  33  56  80 110 153 186 227 290 332
#     4   9  19  34  51  76 104 144 181 219 278 338
#     4   9  18  36  52  74 105 148 186 217 265 343
#     4  10  23  38  52  80 104 155 204 227 250 320
#     4  11  20  37  55  76 116 148 189 237 263 319
#     4  10  22  35  50  81 117 148 177 235 292 332
#
# _framework density 22.888932
#
# number of rings (size 3 to 8) (size 9 to 14) (size 15 to 20)
#    0.000    2.000    0.000    5.143   12.000    0.571 
#    0.000    0.000    0.000    0.000    0.000    0.000 
#    0.000   54.857    0.000    0.000    0.000    0.000 
#
# Total GULP energy -156315.707580 kJ/mol
# GULP energy per Si atom -5582.703842 kJ/mol
# Density = 2.283684 g / cm^3
# Si number density = 22.888932 Si / 1000 Ang^3
#
#
#
# Elastic Constant Matrix: (Units=GPa)
#
#
# Indices 1 2 3 4 5 6 
#
# 1 94.8738 4.9418 21.0280 0.0000 11.8181 0.0000
# 2 4.9418 33.7173 16.1270 0.0000 9.4265 0.0000
# 3 21.0280 16.1270 85.2753 0.0000 28.8196 0.0000
# 4 0.0000 0.0000 0.0000 22.6018 0.0000 3.1837
# 5 11.8181 9.4265 28.8196 0.0000 39.0224 0.0000
# 6 0.0000 0.0000 0.0000 3.1837 0.0000 28.1264
#
#
#
# Elastic Compliance Matrix: (Units=1/GPa)
#
#
# Indices 1 2 3 4 5 6 
#
# 1 0.011245 -0.000121 -0.002144 0.000000 -0.001793 0.000000
# 2 -0.000121 0.033194 -0.004731 0.000000 -0.004488 0.000000
# 3 -0.002144 -0.004731 0.016717 0.000000 -0.010554 0.000000
# 4 0.000000 0.000000 0.000000 0.044961 0.000000 -0.005089
# 5 -0.001793 -0.004488 -0.010554 0.000000 0.035048 0.000000
# 6 0.000000 0.000000 0.000000 -0.005089 0.000000 0.036130
#
#
# Mechanical properties :
#
#
# Convention : Reuss Voigt Hill
#
# Bulk Modulus (GPa) = 21.20309 33.11780 27.16044
# Shear Modulus (GPa) = 24.15362 29.40142 26.77752
#
# Velocity S-wave (km/s) = 3.25199 3.58792 3.42408
# Velocity P-wave (km/s) = 4.83572 5.62712 5.24636
#
# Compressibility (1/GPa) = 0.04716294
#
# Stress axis : x y z
#
# Youngs Moduli (GPa) = 88.92698 30.12633 59.81959
#
# Poissons Ratio (x) = 0.00366 0.12826
# Poissons Ratio (y) = 0.01080 0.28300
# Poissons Ratio (z) = 0.19067 0.14252
#
# Static dielectric constant tensor:
#      x y z
#    x 1.941600 0.000000 0.070110 
#    y 0.000000 1.901940 0.000000 
#    z 0.070110 0.000000 1.941440 
# 
# From -- ./inp_files/61511.got.cif
#   From: 2010.05.17/outbox.cif.g08.bks.cpg/sg15_31_cif.got.tgz:61511.got - 2010.06.03 18:47:42.
