data_PCOD9287257
_publ_section_title
;
Structure prediction by ZEFSAII (Michael W. Deem and Ramdas Pophale) SiO2 
 PCOD9287257
Probable space group: C 2/C
;
_chemical_formula_sum "Si O2"
_cell_formula_units_Z 36
_cell_length_a 12.601866
_cell_length_b 19.805794
_cell_length_c 9.162547
_cell_angle_alpha 90.000000
_cell_angle_beta 136.642039
_cell_angle_gamma 90.000000
_cell_volume 1570.066958
_symmetry_space_group_name_H-M "C 2/C"
_symmetry_group_IT_number 15
_symmetry_cell_setting 'monoclinic'
loop_
_space_group_symop_operation_xyz
x,y,z
-x,y,1/2-z
-x,-y,-z
x,-y,1/2+z
1/2+x,1/2+y,z
1/2-x,1/2+y,1/2-z
1/2-x,1/2-y,-z
1/2+x,1/2-y,1/2+z
loop_
_atom_site_type_symbol
_atom_site_label
_atom_site_fract_x
_atom_site_fract_y
_atom_site_fract_z
Si Si1 0.500000 0.654291 0.250000
Si Si2 0.708072 0.715571 0.708072
Si Si3 0.500000 0.345708 0.250000
Si Si4 0.790195 0.872703 0.790195
Si Si5 0.000000 0.500000 0.250000
Si Si6 0.566781 0.091049 0.566781
O O1 0.605473 0.699604 0.462660
O O2 0.609872 0.611868 0.253037
O O3 0.605473 0.699604 0.748286
O O4 0.767868 0.791299 0.767868
O O5 0.847463 0.661867 0.847463
O O6 0.609872 0.388131 0.466707
O O7 0.618491 0.900795 0.618491
O O8 0.900150 0.452271 0.255997
O O9 0.099850 0.547728 0.455696
#
# Coordination Sequence:
#
# PCOD9287257 Si02
#       6
#     4   8   4   8   4   8
#     4  10  22  35  54  89 128 152 190 248 318 374
#     4  11  22  38  62  93 126 162 201 258 318 367
#     4  10  22  35  54  89 128 152 190 248 318 374
#     4  11  22  38  62  93 126 162 201 258 318 367
#     4  10  24  40  64  92 120 168 220 254 284 354
#     4  11  22  42  68  90 122 165 216 254 296 369
#
# _framework density 22.928958999999999
#
# number of rings (size 3 to 8) (size 9 to 14) (size 15 to 20)
#    0.000    1.333    0.000    6.667    0.000    3.556 
#    0.000    0.000    0.000   93.333    0.000    0.000 
#    0.000    0.000    0.000    0.000    0.000    0.000 
#
# Total GULP energy -100770.634964 kJ/mol
# GULP energy per Si atom -5598.368609 kJ/mol
# Density = 2.287677 g / cm^3
# Si number density = 22.928959 Si / 1000 Ang^3
#
#
#
# Elastic Constant Matrix: (Units=GPa)
#
#
# Indices 1 2 3 4 5 6 
#
# 1 151.6087 20.6017 65.6686 0.0000 -8.8570 0.0000
# 2 20.6017 74.1981 20.5673 0.0000 0.5837 0.0000
# 3 65.6686 20.5673 152.6649 0.0000 -9.1370 0.0000
# 4 0.0000 0.0000 0.0000 6.0908 0.0000 11.0794
# 5 -8.8570 0.5837 -9.1370 0.0000 48.0024 0.0000
# 6 0.0000 0.0000 0.0000 11.0794 0.0000 6.7410
#
#
#
# Elastic Compliance Matrix: (Units=1/GPa)
#
#
# Indices 1 2 3 4 5 6 
#
# 1 0.008275 -0.001385 -0.003318 0.000000 0.000912 0.000000
# 2 -0.001385 0.014246 -0.001365 0.000000 -0.000689 0.000000
# 3 -0.003318 -0.001365 0.008219 0.000000 0.000969 0.000000
# 4 0.000000 0.000000 0.000000 -0.082514 0.000000 0.135618
# 5 0.000912 -0.000689 0.000969 0.000000 0.021193 0.000000
# 6 0.000000 0.000000 0.000000 0.135618 0.000000 -0.074554
#
#
# Mechanical properties :
#
#
# Convention : Reuss Voigt Hill
#
# Bulk Modulus (GPa) = 53.75129 65.79410 59.77270
# Shear Modulus (GPa) = -57.60479 30.27577 -13.66451
#
# Velocity S-wave (km/s) = -5.01774 3.63770 -2.44386
# Velocity P-wave (km/s) = 3.17440 6.81182 4.26169
#
# Compressibility (1/GPa) = 0.01860421
#
# Stress axis : x y z
#
# Youngs Moduli (GPa) = 120.85104 70.19674 121.66276
#
# Poissons Ratio (x) = 0.09722 0.40370
# Poissons Ratio (y) = 0.16737 0.16603
# Poissons Ratio (z) = 0.40100 0.09580
#
# Static dielectric constant tensor:
#      x y z
#    x 1.868290 0.000000 -0.012310 
#    y 0.000000 1.799100 0.000000 
#    z -0.012310 0.000000 1.869010 
# 
# From -- ./inp_files/23199.got.cif
#   From: 2010.05.17/outbox.cif.g08.bks.cpg/sg15_12_cif.got.tgz:23199.got - 2010.06.03 18:47:42.
