data_PCOD9287201
_publ_section_title
;
Structure prediction by ZEFSAII (Michael W. Deem and Ramdas Pophale) SiO2 
 PCOD9287201
Probable space group: C 2/C
;
_chemical_formula_sum "Si O2"
_cell_formula_units_Z 36
_cell_length_a 9.473591
_cell_length_b 12.112483
_cell_length_c 18.294325
_cell_angle_alpha 90.000000
_cell_angle_beta 41.079554
_cell_angle_gamma 90.000000
_cell_volume 1379.430516
_symmetry_space_group_name_H-M "C 2/C"
_symmetry_group_IT_number 15
_symmetry_cell_setting 'monoclinic'
loop_
_space_group_symop_operation_xyz
x,y,z
-x,y,1/2-z
-x,-y,-z
x,-y,1/2+z
1/2+x,1/2+y,z
1/2-x,1/2+y,1/2-z
1/2-x,1/2-y,-z
1/2+x,1/2-y,1/2+z
loop_
_atom_site_type_symbol
_atom_site_label
_atom_site_fract_x
_atom_site_fract_y
_atom_site_fract_z
Si Si1 0.500000 0.714188 0.750000
Si Si2 0.998493 0.225726 0.899821
Si Si3 0.408687 0.066395 0.604696
Si Si4 0.212322 0.863099 0.446429
Si Si5 0.165908 0.014947 0.335220
O O1 0.561415 0.780638 0.798480
O O2 0.713780 0.642965 0.655451
O O3 0.017652 0.094003 0.879142
O O4 0.750000 0.250000 0.000000
O O5 0.150168 0.233280 0.912075
O O6 0.587924 0.139555 0.577150
O O7 0.305805 0.987128 0.707260
O O8 0.500000 0.000000 0.500000
O O9 0.267252 0.968840 0.371810
O O10 0.998086 0.890383 0.576265
#
# Coordination Sequence:
#
# PCOD9287201 Si02
#       5
#     4   8   8   8   8
#     4  10  22  34  52  84 114 148 204 246 294 368
#     4   9  18  36  54  73 108 151 195 239 291 353
#     4  11  19  31  55  85 119 156 182 248 313 366
#     4   9  18  35  56  80 116 148 194 244 305 355
#     4   8  18  33  54  84 115 146 196 240 296 364
#
# _framework density 26.097728
#
# number of rings (size 3 to 8) (size 9 to 14) (size 15 to 20)
#    1.333    1.333    0.000    3.333    0.000    0.000 
#    0.000    5.556    0.000    0.000    0.000    3.111 
#    0.000    0.000    0.000    0.000    0.000    0.000 
#
# Total GULP energy -100300.664908 kJ/mol
# GULP energy per Si atom -5572.259162 kJ/mol
# Density = 2.603833 g / cm^3
# Si number density = 26.097728 Si / 1000 Ang^3
#
#
#
# Elastic Constant Matrix: (Units=GPa)
#
#
# Indices 1 2 3 4 5 6 
#
# 1 250.2822 50.5741 68.9285 -0.0001 9.5780 0.0001
# 2 50.5741 77.9080 28.0391 -0.0001 6.5065 0.0001
# 3 68.9285 28.0391 200.9656 -0.0001 31.0587 0.0001
# 4 -0.0001 -0.0001 -0.0001 20.2830 0.0001 -1.9788
# 5 9.5780 6.5065 31.0587 0.0001 54.8074 -0.0001
# 6 0.0001 0.0001 0.0001 -1.9788 -0.0001 28.6948
#
#
#
# Elastic Compliance Matrix: (Units=1/GPa)
#
#
# Indices 1 2 3 4 5 6 
#
# 1 0.004905 -0.002722 -0.001337 0.000000 0.000224 0.000000
# 2 -0.002722 0.015042 -0.001055 0.000000 -0.000712 0.000000
# 3 -0.001337 -0.001055 0.006057 0.000000 -0.003073 0.000000
# 4 0.000000 0.000000 0.000000 0.049636 0.000000 0.003423
# 5 0.000224 -0.000712 -0.003073 0.000000 0.020033 0.000000
# 6 0.000000 0.000000 0.000000 0.003423 0.000000 0.035086
#
#
# Mechanical properties :
#
#
# Convention : Reuss Voigt Hill
#
# Bulk Modulus (GPa) = 63.38870 91.58213 77.48541
# Shear Modulus (GPa) = 34.18928 46.19798 40.19363
#
# Velocity S-wave (km/s) = 3.62339 4.21193 3.92869
# Velocity P-wave (km/s) = 6.46892 7.66955 7.09468
#
# Compressibility (1/GPa) = 0.01577568
#
# Stress axis : x y z
#
# Youngs Moduli (GPa) = 203.86677 66.48231 165.10282
#
# Poissons Ratio (x) = 0.18094 0.22078
# Poissons Ratio (y) = 0.55484 0.17420
# Poissons Ratio (z) = 0.27262 0.07015
#
# Static dielectric constant tensor:
#      x y z
#    x 2.064390 0.000000 0.049380 
#    y 0.000000 2.351190 0.000000 
#    z 0.049380 0.000000 1.889960 
# 
# From -- ./inp_files/103005.got.cif
#   From: 2010.05.17/outbox.cif.g08.bks.cpg/sg15_52_cif.got.tgz:103005.got - 2010.06.03 18:47:42.
