data_PCOD9287038
_publ_section_title
;
Structure prediction by ZEFSAII (Michael W. Deem and Ramdas Pophale) SiO2 
 PCOD9287038
Probable space group: C 2/C
;
_chemical_formula_sum "Si O2"
_cell_formula_units_Z 40
_cell_length_a 16.119055
_cell_length_b 10.553423
_cell_length_c 21.532373
_cell_angle_alpha 90.000000
_cell_angle_beta 23.606812
_cell_angle_gamma 90.000000
_cell_volume 1466.836700
_symmetry_space_group_name_H-M "C 2/C"
_symmetry_group_IT_number 15
_symmetry_cell_setting 'monoclinic'
loop_
_space_group_symop_operation_xyz
x,y,z
-x,y,1/2-z
-x,-y,-z
x,-y,1/2+z
1/2+x,1/2+y,z
1/2-x,1/2+y,1/2-z
1/2-x,1/2-y,-z
1/2+x,1/2-y,1/2+z
loop_
_atom_site_type_symbol
_atom_site_label
_atom_site_fract_x
_atom_site_fract_y
_atom_site_fract_z
Si Si1 0.674486 0.526544 0.578874
Si Si2 0.239413 0.641017 0.100663
Si Si3 0.359911 0.246247 0.644458
Si Si4 0.737630 0.854696 0.088790
Si Si5 0.593043 0.020934 0.367703
O O1 0.500000 0.528348 0.750000
O O2 0.644915 0.631673 0.544911
O O3 0.319090 0.267968 0.599434
O O4 0.685909 0.396067 0.532206
O O5 0.246190 0.492890 0.117369
O O6 0.000000 0.668312 0.250000
O O7 0.100076 0.541868 0.045509
O O8 0.291757 0.113374 0.720094
O O9 0.604085 0.258489 0.490146
O O10 0.248565 0.363618 0.753952
O O11 0.500000 0.815838 0.250000
O O12 0.500000 0.000000 0.500000
#
# Coordination Sequence:
#
# PCOD9287038 Si02
#       5
#     8   8   8   8   8
#     4  10  21  45  75 117 165 206 275 342 412 481
#     4   9  19  43  79 112 154 221 272 326 413 498
#     4  12  25  50  83 116 165 215 274 340 417 488
#     4   9  20  40  77 113 150 214 273 327 412 492
#     4  12  29  50  78 126 162 215 281 344 406 504
#
# _framework density 27.269566000000001
#
# number of rings (size 3 to 8) (size 9 to 14) (size 15 to 20)
#    1.200    0.400    2.000    1.800    0.000    6.400 
#    0.000    4.000    0.000    4.800    0.000    0.000 
#    0.000    0.000    0.000    0.000    0.000    0.000 
#
# Total GULP energy -112287.499691 kJ/mol
# GULP energy per Si atom -5614.374985 kJ/mol
# Density = 2.720750 g / cm^3
# Si number density = 27.269566 Si / 1000 Ang^3
#
#
#
# Elastic Constant Matrix: (Units=GPa)
#
#
# Indices 1 2 3 4 5 6 
#
# 1 159.6651 44.5092 64.1513 -0.0035 5.7320 0.0006
# 2 44.5092 175.3632 53.6457 -0.0094 7.6071 0.0055
# 3 64.1513 53.6457 176.6921 -0.0164 23.1403 0.0060
# 4 -0.0035 -0.0094 -0.0164 40.0067 0.0059 15.9521
# 5 5.7320 7.6071 23.1403 0.0059 55.2165 -0.0002
# 6 0.0006 0.0055 0.0060 15.9521 -0.0002 30.8176
#
#
#
# Elastic Compliance Matrix: (Units=1/GPa)
#
#
# Indices 1 2 3 4 5 6 
#
# 1 0.007559 -0.001191 -0.002435 -0.000001 0.000400 0.000001
# 2 -0.001191 0.006474 -0.001516 0.000001 -0.000133 -0.000002
# 3 -0.002435 -0.001516 0.007347 0.000004 -0.002617 -0.000003
# 4 -0.000001 0.000001 0.000004 0.031497 -0.000005 -0.016304
# 5 0.000400 -0.000133 -0.002617 -0.000005 0.019184 0.000003
# 6 0.000001 -0.000002 -0.000003 -0.016304 0.000003 0.040888
#
#
# Mechanical properties :
#
#
# Convention : Reuss Voigt Hill
#
# Bulk Modulus (GPa) = 90.12270 92.92587 91.52428
# Shear Modulus (GPa) = 39.39113 48.50245 43.94679
#
# Velocity S-wave (km/s) = 3.80479 4.22196 4.01879
# Velocity P-wave (km/s) = 7.24034 7.61034 7.42764
#
# Compressibility (1/GPa) = 0.01109598
#
# Stress axis : x y z
#
# Youngs Moduli (GPa) = 132.28865 154.45898 136.11507
#
# Poissons Ratio (x) = 0.18396 0.33148
# Poissons Ratio (y) = 0.15755 0.20632
# Poissons Ratio (z) = 0.32216 0.23413
#
# Static dielectric constant tensor:
#      x y z
#    x 2.074950 -0.000010 0.065960 
#    y -0.000010 2.194960 0.000010 
#    z 0.065960 0.000010 2.118790 
# 
# From -- ./inp_files/205607.got.cif
#   From: 2010.05.17/outbox.cif.g08.bks.cpg/sg15_103_cif.got.tgz:205607.got - 2010.06.03 18:47:42.
