data_PCOD9287150
_publ_section_title
;
Structure prediction by ZEFSAII (Michael W. Deem and Ramdas Pophale) SiO2 
 PCOD9287150
Probable space group: C 2/C
;
_chemical_formula_sum "Si O2"
_cell_formula_units_Z 36
_cell_length_a 15.249660
_cell_length_b 9.397849
_cell_length_c 8.879806
_cell_angle_alpha 90.000000
_cell_angle_beta 99.349008
_cell_angle_gamma 90.000000
_cell_volume 1255.696744
_symmetry_space_group_name_H-M "C 2/C"
_symmetry_group_IT_number 15
_symmetry_cell_setting 'monoclinic'
loop_
_space_group_symop_operation_xyz
x,y,z
-x,y,1/2-z
-x,-y,-z
x,-y,1/2+z
1/2+x,1/2+y,z
1/2-x,1/2+y,1/2-z
1/2-x,1/2-y,-z
1/2+x,1/2-y,1/2+z
loop_
_atom_site_type_symbol
_atom_site_label
_atom_site_fract_x
_atom_site_fract_y
_atom_site_fract_z
Si Si1 0.500000 0.908056 0.750000
Si Si2 0.205146 0.673643 0.787847
Si Si3 0.108454 0.201455 0.998079
Si Si4 0.123022 0.961467 0.199692
Si Si5 0.127393 0.667589 0.066372
O O1 0.561640 0.821239 0.885150
O O2 0.423536 0.951736 0.851187
O O3 0.183246 0.711251 0.610715
O O4 0.273866 0.543886 0.820659
O O5 0.269680 0.804082 0.861953
O O6 0.126850 0.654025 0.887202
O O7 0.122557 0.079577 0.874602
O O8 0.076855 0.103832 0.131289
O O9 0.085915 0.820731 0.104655
#
# Coordination Sequence:
#
# PCOD9287150 Si02
#       5
#     4   8   8   8   8
#     4  10  22  32  52  86 114 150 166 222 294 328
#     4   9  18  36  55  73 111 146 191 220 254 338
#     4  11  20  33  54  81 118 142 181 222 275 329
#     4   9  19  31  52  80 107 146 181 217 269 318
#     4   8  18  34  52  76 110 140 184 216 273 324
#
# _framework density 28.669345
#
# number of rings (size 3 to 8) (size 9 to 14) (size 15 to 20)
#    1.333    1.333    0.000    2.000    0.000    4.444 
#    0.000    0.000    0.000    0.000    0.000    6.222 
#    0.000    0.000    0.000    0.000    0.000    0.000 
#
# Total GULP energy -100226.516479 kJ/mol
# GULP energy per Si atom -5568.139804 kJ/mol
# Density = 2.860409 g / cm^3
# Si number density = 28.669345 Si / 1000 Ang^3
#
#
#
# Elastic Constant Matrix: (Units=GPa)
#
#
# Indices 1 2 3 4 5 6 
#
# 1 64.1956 -4.7554 59.6197 0.0000 -36.2290 0.0000
# 2 -4.7554 80.2219 45.0854 0.0000 -1.0471 0.0000
# 3 59.6197 45.0854 236.4657 0.0000 0.6668 0.0000
# 4 0.0000 0.0000 0.0000 72.3634 0.0000 -1.5549
# 5 -36.2290 -1.0471 0.6668 0.0000 57.4625 0.0000
# 6 0.0000 0.0000 0.0000 -1.5549 0.0000 10.3922
#
#
#
# Elastic Compliance Matrix: (Units=1/GPa)
#
#
# Indices 1 2 3 4 5 6 
#
# 1 0.045176 0.010642 -0.013500 0.000000 0.028833 0.000000
# 2 0.010642 0.016473 -0.005844 0.000000 0.007077 0.000000
# 3 -0.013500 -0.005844 0.008772 0.000000 -0.008720 0.000000
# 4 0.000000 0.000000 0.000000 0.013864 0.000000 0.002074
# 5 0.028833 0.007077 -0.008720 0.000000 0.035811 0.000000
# 6 0.000000 0.000000 0.000000 0.002074 0.000000 0.096537
#
#
# Mechanical properties :
#
#
# Convention : Reuss Voigt Hill
#
# Bulk Modulus (GPa) = 18.86258 64.53141 41.69700
# Shear Modulus (GPa) = 19.86422 46.77250 33.31836
#
# Velocity S-wave (km/s) = 2.63510 4.04350 3.41274
# Velocity P-wave (km/s) = 3.98146 6.66015 5.48678
#
# Compressibility (1/GPa) = 0.05301502
#
# Stress axis : x y z
#
# Youngs Moduli (GPa) = 22.13580 60.70588 114.00495
#
# Poissons Ratio (x) = -0.64601 1.53911
# Poissons Ratio (y) = -0.23556 0.66622
# Poissons Ratio (z) = 0.29884 0.35475
#
# Static dielectric constant tensor:
#      x y z
#    x 2.477330 0.000000 0.003970 
#    y 0.000000 2.320850 0.000000 
#    z 0.003970 0.000000 2.117390 
# 
# From -- ./inp_files/46505.got.cif
#   From: 2010.05.17/outbox.cif.g08.bks.cpg/sg15_24_cif.got.tgz:46505.got - 2010.06.03 18:47:42.
