data_PCOD9287243
_publ_section_title
;
Structure prediction by ZEFSAII (Michael W. Deem and Ramdas Pophale) SiO2 
 PCOD9287243
Probable space group: C 2/C
;
_chemical_formula_sum "Si O2"
_cell_formula_units_Z 44
_cell_length_a 17.294161
_cell_length_b 8.327955
_cell_length_c 13.646612
_cell_angle_alpha 90.000000
_cell_angle_beta 86.716607
_cell_angle_gamma 90.000000
_cell_volume 1962.226848
_symmetry_space_group_name_H-M "C 2/C"
_symmetry_group_IT_number 15
_symmetry_cell_setting 'monoclinic'
loop_
_space_group_symop_operation_xyz
x,y,z
-x,y,1/2-z
-x,-y,-z
x,-y,1/2+z
1/2+x,1/2+y,z
1/2-x,1/2+y,1/2-z
1/2-x,1/2-y,-z
1/2+x,1/2-y,1/2+z
loop_
_atom_site_type_symbol
_atom_site_label
_atom_site_fract_x
_atom_site_fract_y
_atom_site_fract_z
Si Si1 0.254917 0.878735 0.151382
Si Si2 0.048166 0.646804 0.589204
Si Si3 0.896587 0.457017 0.610048
Si Si4 0.863982 0.141909 0.261914
Si Si5 0.612760 0.819065 0.670199
Si Si6 0.000000 0.062906 0.750000
O O1 0.315369 0.783460 0.215727
O O2 0.192587 0.748717 0.121515
O O3 0.313606 0.977885 0.079809
O O4 0.200172 0.008479 0.208045
O O5 0.066279 0.659421 0.473301
O O6 0.089992 0.783055 0.648818
O O7 0.086021 0.477815 0.618662
O O8 0.958102 0.604468 0.616087
O O9 0.882302 0.369714 0.714891
O O10 0.933990 0.046469 0.203842
O O11 0.548409 0.679066 0.674739
#
# Coordination Sequence:
#
# PCOD9287243 Si02
#       6
#     8   8   8   8   8   4
#     4  11  22  38  65  89 124 160 211 252 317 359
#     4  11  23  39  67  88 127 164 207 253 318 365
#     4  11  22  39  64  93 122 165 208 251 315 373
#     4  11  21  38  61  95 115 167 203 256 305 368
#     4  11  21  42  61  91 124 164 205 265 300 374
#     4  10  22  34  68  82 120 166 208 246 312 356
#
# _framework density 22.423504000000001
#
# number of rings (size 3 to 8) (size 9 to 14) (size 15 to 20)
#    0.000    1.091    5.455    1.091    0.000    1.455 
#    0.000    0.909   12.000    0.000    0.000    0.000 
#    0.000    0.000    0.000    0.000    0.000    0.000 
#
# Total GULP energy -122754.469300 kJ/mol
# GULP energy per Si atom -5579.748605 kJ/mol
# Density = 2.237247 g / cm^3
# Si number density = 22.423504 Si / 1000 Ang^3
#
#
#
# Elastic Constant Matrix: (Units=GPa)
#
#
# Indices 1 2 3 4 5 6 
#
# 1 179.8345 44.8786 18.7995 0.0000 -29.3658 0.0000
# 2 44.8786 95.2421 12.1534 0.0000 -3.8367 0.0000
# 3 18.7995 12.1534 26.1305 0.0000 0.6069 0.0000
# 4 0.0000 0.0000 0.0000 15.8331 0.0000 -2.9097
# 5 -29.3658 -3.8367 0.6069 0.0000 23.2859 0.0000
# 6 0.0000 0.0000 0.0000 -2.9097 0.0000 47.2134
#
#
#
# Elastic Compliance Matrix: (Units=1/GPa)
#
#
# Indices 1 2 3 4 5 6 
#
# 1 0.008516 -0.002957 -0.004992 0.000000 0.010382 0.000000
# 2 -0.002957 0.012281 -0.003547 0.000000 -0.001614 0.000000
# 3 -0.004992 -0.003547 0.043697 0.000000 -0.008019 0.000000
# 4 0.000000 0.000000 0.000000 0.063882 0.000000 0.003937
# 5 0.010382 -0.001614 -0.008019 0.000000 0.055981 0.000000
# 6 0.000000 0.000000 0.000000 0.003937 0.000000 0.021423
#
#
# Mechanical properties :
#
#
# Convention : Reuss Voigt Hill
#
# Bulk Modulus (GPa) = 24.09590 50.31889 37.20740
# Shear Modulus (GPa) = 20.60953 32.29153 26.45053
#
# Velocity S-wave (km/s) = 3.03496 3.79895 3.43824
# Velocity P-wave (km/s) = 4.80109 6.46000 5.69131
#
# Compressibility (1/GPa) = 0.04150084
#
# Stress axis : x y z
#
# Youngs Moduli (GPa) = 117.42616 81.42865 22.88485
#
# Poissons Ratio (x) = 0.24082 0.11425
# Poissons Ratio (y) = 0.34729 0.08116
# Poissons Ratio (z) = 0.58624 0.28879
#
# Static dielectric constant tensor:
#      x y z
#    x 1.847010 0.000000 0.000570 
#    y 0.000000 1.884220 0.000000 
#    z 0.000570 0.000000 1.856140 
# 
# From -- ./inp_files/159308.got.cif
#   From: 2010.05.17/outbox.cif.g08.bks.cpg/sg15_80_cif.got.tgz:159308.got - 2010.06.03 18:47:42.
