data_PCOD9287731
_publ_section_title
;
Structure prediction by ZEFSAII (Michael W. Deem and Ramdas Pophale) SiO2 
 PCOD9287731
Probable space group: C 2/C
;
_chemical_formula_sum "Si O2"
_cell_formula_units_Z 56
_cell_length_a 15.138289
_cell_length_b 12.756732
_cell_length_c 31.062018
_cell_angle_alpha 90.000000
_cell_angle_beta 25.020901
_cell_angle_gamma 90.000000
_cell_volume 2537.077512
_symmetry_space_group_name_H-M "C 2/C"
_symmetry_group_IT_number 15
_symmetry_cell_setting 'monoclinic'
loop_
_space_group_symop_operation_xyz
x,y,z
-x,y,1/2-z
-x,-y,-z
x,-y,1/2+z
1/2+x,1/2+y,z
1/2-x,1/2+y,1/2-z
1/2-x,1/2-y,-z
1/2+x,1/2-y,1/2+z
loop_
_atom_site_type_symbol
_atom_site_label
_atom_site_fract_x
_atom_site_fract_y
_atom_site_fract_z
Si Si1 0.576443 0.303252 0.036803
Si Si2 0.429284 0.897002 0.827108
Si Si3 0.201036 0.584786 0.987968
Si Si4 0.885710 0.465674 0.183642
Si Si5 0.269851 0.886806 0.370344
Si Si6 0.990488 0.957051 0.805545
Si Si7 0.615722 0.238148 0.602467
O O1 0.618591 0.358298 0.063648
O O2 0.396792 0.362326 0.091698
O O3 0.794406 0.318280 0.914754
O O4 0.536785 0.179278 0.054723
O O5 0.500000 0.852384 0.750000
O O6 0.604201 0.955820 0.779227
O O7 0.277234 0.993158 0.881475
O O8 0.294980 0.531080 0.904737
O O9 0.093423 0.498536 0.065436
O O10 0.692366 0.488178 0.238035
O O11 0.927057 0.345530 0.178726
O O12 0.500000 0.863568 0.250000
O O13 0.238534 0.815603 0.425798
O O14 0.000000 0.943026 0.750000
O O15 0.961370 0.847183 0.843499
O O16 0.750000 0.250000 0.500000
#
# Coordination Sequence:
#
# PCOD9287731 Si02
#       7
#     8   8   8   8   8   8   8
#     4  10  22  40  67  94 141 182 225 291 351 422
#     4   9  20  38  63 102 132 176 233 289 351 405
#     4  10  24  43  66 100 136 187 232 283 366 414
#     4  10  24  45  69  97 143 181 234 296 344 429
#     4  10  22  37  65  99 132 175 236 287 343 413
#     4  12  28  45  73 105 144 188 237 294 361 430
#     4  11  24  45  68 100 134 186 238 285 357 421
#
# _framework density 22.07264
#
# number of rings (size 3 to 8) (size 9 to 14) (size 15 to 20)
#    0.000    1.714    1.429    0.857   10.000    6.286 
#    0.000    0.000    0.000    0.000    0.000    0.000 
#    0.000    0.000    0.000    0.000    0.000    0.000 
#
# Total GULP energy -156501.133145 kJ/mol
# GULP energy per Si atom -5589.326184 kJ/mol
# Density = 2.202240 g / cm^3
# Si number density = 22.072640 Si / 1000 Ang^3
#
#
#
# Elastic Constant Matrix: (Units=GPa)
#
#
# Indices 1 2 3 4 5 6 
#
# 1 102.0172 19.1099 39.8910 -0.0008 17.2604 -0.0006
# 2 19.1099 86.9304 20.3614 -0.0011 12.9701 -0.0002
# 3 39.8910 20.3614 69.7542 -0.0098 33.8920 0.0135
# 4 -0.0008 -0.0011 -0.0098 14.4809 0.0091 13.9836
# 5 17.2604 12.9701 33.8920 0.0091 46.1815 -0.0022
# 6 -0.0006 -0.0002 0.0135 13.9836 -0.0022 21.6367
#
#
#
# Elastic Compliance Matrix: (Units=1/GPa)
#
#
# Indices 1 2 3 4 5 6 
#
# 1 0.012768 -0.001216 -0.007451 -0.000027 0.001038 0.000022
# 2 -0.001216 0.012512 -0.002285 -0.000003 -0.001383 0.000003
# 3 -0.007451 -0.002285 0.027353 0.000124 -0.016647 -0.000099
# 4 -0.000027 -0.000003 0.000124 0.183709 -0.000122 -0.118730
# 5 0.001038 -0.001383 -0.016647 -0.000122 0.033871 0.000093
# 6 0.000022 0.000003 -0.000099 -0.118730 0.000093 0.122952
#
#
# Mechanical properties :
#
#
# Convention : Reuss Voigt Hill
#
# Bulk Modulus (GPa) = 32.54319 46.38069 39.46194
# Shear Modulus (GPa) = 11.75605 28.41578 20.08592
#
# Velocity S-wave (km/s) = 2.31033 3.59189 3.01988
# Velocity P-wave (km/s) = 4.67895 6.18552 5.48421
#
# Compressibility (1/GPa) = 0.03072840
#
# Stress axis : x y z
#
# Youngs Moduli (GPa) = 78.32062 79.92111 36.55954
#
# Poissons Ratio (x) = 0.09722 0.27240
# Poissons Ratio (y) = 0.09527 0.08354
# Poissons Ratio (z) = 0.58356 0.18262
#
# Static dielectric constant tensor:
#      x y z
#    x 1.816980 0.000000 0.007730 
#    y 0.000000 1.830210 0.000000 
#    z 0.007730 0.000000 1.843750 
# 
# From -- ./inp_files/313726.got.cif
#   From: 2010.05.17/outbox.cif.g08.bks.cpg/sg15_157_cif.got.tgz:313726.got - 2010.06.03 18:47:42.
