data_PCOD9287426
_publ_section_title
;
Structure prediction by ZEFSAII (Michael W. Deem and Ramdas Pophale) SiO2 
 PCOD9287426
Probable space group: C 2/C
;
_chemical_formula_sum "Si O2"
_cell_formula_units_Z 60
_cell_length_a 13.177432
_cell_length_b 24.408478
_cell_length_c 19.004398
_cell_angle_alpha 90.000000
_cell_angle_beta 28.078483
_cell_angle_gamma 90.000000
_cell_volume 2877.079569
_symmetry_space_group_name_H-M "C 2/C"
_symmetry_group_IT_number 15
_symmetry_cell_setting 'monoclinic'
loop_
_space_group_symop_operation_xyz
x,y,z
-x,y,1/2-z
-x,-y,-z
x,-y,1/2+z
1/2+x,1/2+y,z
1/2-x,1/2+y,1/2-z
1/2-x,1/2-y,-z
1/2+x,1/2-y,1/2+z
loop_
_atom_site_type_symbol
_atom_site_label
_atom_site_fract_x
_atom_site_fract_y
_atom_site_fract_z
Si Si1 0.500000 0.329364 0.250000
Si Si2 0.825302 0.074330 0.663345
Si Si3 0.284479 0.037247 0.339022
Si Si4 0.755815 0.686763 0.470561
Si Si5 0.394737 0.149198 0.590364
Si Si6 0.162783 0.360406 0.785724
Si Si7 0.261109 0.279340 0.918178
Si Si8 0.458402 0.318229 0.014976
O O1 0.361311 0.351632 0.399378
O O2 0.294331 0.310334 0.326122
O O3 0.720945 0.098644 0.798789
O O4 0.827328 0.126534 0.609926
O O5 0.072778 0.051603 0.515135
O O6 0.710445 0.023278 0.696518
O O7 0.500000 0.047599 0.250000
O O8 0.276817 0.080340 0.280251
O O9 0.750000 0.750000 0.500000
O O10 0.615929 0.684716 0.486305
O O11 0.999768 0.667613 0.329140
O O12 0.542665 0.135384 0.432792
O O13 0.565948 0.177321 0.536730
O O14 0.382093 0.325583 0.648891
O O15 0.500000 0.299096 0.750000
O O16 0.188861 0.234065 0.904543
O O17 0.250000 0.250000 0.000000
#
# Coordination Sequence:
#
# PCOD9287426 Si02
#       8
#     4   8   8   8   8   8   8   8
#     4  10  22  36  60  98 128 156 208 284 320 404
#     4  10  22  41  68  90 125 166 219 273 327 401
#     4  10  22  41  64  95 125 165 220 272 337 401
#     4  11  22  33  60  95 131 164 207 265 348 402
#     4  11  23  42  64  97 129 169 219 268 343 398
#     4  10  22  37  63  95 131 162 206 284 342 401
#     4  12  27  43  63  91 136 185 228 270 316 405
#     4  11  21  41  63  87 127 174 223 261 326 396
#
# _framework density 20.854481
#
# number of rings (size 3 to 8) (size 9 to 14) (size 15 to 20)
#    0.000    1.333    1.333    5.200    5.600    2.133 
#    0.000    1.333    0.000    0.000    0.000    0.000 
#    0.000    0.000    0.000    0.000    0.000    0.000 
#
# Total GULP energy -167062.394241 kJ/mol
# GULP energy per Si atom -5568.746475 kJ/mol
# Density = 2.080702 g / cm^3
# Si number density = 20.854481 Si / 1000 Ang^3
#
#
#
# Elastic Constant Matrix: (Units=GPa)
#
#
# Indices 1 2 3 4 5 6 
#
# 1 76.9371 9.5165 35.0125 -0.0083 7.0557 0.0181
# 2 9.5165 92.9139 15.0607 0.0271 2.1734 0.0162
# 3 35.0125 15.0607 108.1976 0.0408 6.8041 -0.0616
# 4 -0.0083 0.0271 0.0408 28.4353 -0.0075 -2.3811
# 5 7.0557 2.1734 6.8041 -0.0075 36.7243 -0.0133
# 6 0.0181 0.0162 -0.0616 -2.3811 -0.0133 24.0123
#
#
#
# Elastic Compliance Matrix: (Units=1/GPa)
#
#
# Indices 1 2 3 4 5 6 
#
# 1 0.015447 -0.000762 -0.004764 0.000010 -0.002040 -0.000024
# 2 -0.000762 0.011054 -0.001275 -0.000010 -0.000272 -0.000011
# 3 -0.004764 -0.001275 0.011028 -0.000014 -0.001052 0.000031
# 4 0.000010 -0.000010 -0.000014 0.035462 0.000010 0.003516
# 5 -0.002040 -0.000272 -0.001052 0.000010 0.027833 0.000015
# 6 -0.000024 -0.000011 0.000031 0.003516 0.000015 0.041994
#
#
# Mechanical properties :
#
#
# Convention : Reuss Voigt Hill
#
# Bulk Modulus (GPa) = 41.79584 44.13643 42.96614
# Shear Modulus (GPa) = 30.41443 32.39831 31.40637
#
# Velocity S-wave (km/s) = 3.82306 3.94578 3.88490
# Velocity P-wave (km/s) = 6.29070 6.47833 6.38521
#
# Compressibility (1/GPa) = 0.02392582
#
# Stress axis : x y z
#
# Youngs Moduli (GPa) = 64.73693 90.46716 90.68045
#
# Poissons Ratio (x) = 0.06895 0.43203
# Poissons Ratio (y) = 0.04934 0.11561
# Poissons Ratio (z) = 0.30843 0.11534
#
# Static dielectric constant tensor:
#      x y z
#    x 1.783050 0.000010 -0.000670 
#    y 0.000010 1.762600 0.000010 
#    z -0.000670 0.000010 1.807790 
# 
# From -- ./inp_files/201227.got.cif
#   From: 2010.05.17/outbox.cif.g08.bks.cpg/sg15_101_cif.got.tgz:201227.got - 2010.06.03 18:47:42.
