data_PCOD9287317
_publ_section_title
;
Structure prediction by ZEFSAII (Michael W. Deem and Ramdas Pophale) SiO2 
 PCOD9287317
Probable space group: C 2/C
;
_chemical_formula_sum "Si O2"
_cell_formula_units_Z 44
_cell_length_a 9.031296
_cell_length_b 10.787776
_cell_length_c 20.460574
_cell_angle_alpha 90.000000
_cell_angle_beta 60.522412
_cell_angle_gamma 90.000000
_cell_volume 1735.372277
_symmetry_space_group_name_H-M "C 2/C"
_symmetry_group_IT_number 15
_symmetry_cell_setting 'monoclinic'
loop_
_space_group_symop_operation_xyz
x,y,z
-x,y,1/2-z
-x,-y,-z
x,-y,1/2+z
1/2+x,1/2+y,z
1/2-x,1/2+y,1/2-z
1/2-x,1/2-y,-z
1/2+x,1/2-y,1/2+z
loop_
_atom_site_type_symbol
_atom_site_label
_atom_site_fract_x
_atom_site_fract_y
_atom_site_fract_z
Si Si1 0.313958 0.421579 0.441889
Si Si2 0.640949 0.476944 0.843909
Si Si3 0.500000 0.638813 0.250000
Si Si4 0.097780 0.490756 0.609404
Si Si5 0.812891 0.334822 0.608554
Si Si6 0.027406 0.269675 0.441462
O O1 0.514999 0.410582 0.389558
O O2 0.255591 0.459172 0.526646
O O3 0.254689 0.536277 0.409287
O O4 0.200533 0.309815 0.440518
O O5 0.611581 0.447221 0.774516
O O6 0.825052 0.493237 0.835099
O O7 0.559928 0.356062 0.896731
O O8 0.352816 0.715279 0.318550
O O9 0.961089 0.382776 0.624436
O O10 0.021723 0.618673 0.597105
O O11 0.887529 0.264222 0.529382
#
# Coordination Sequence:
#
# PCOD9287317 Si02
#       6
#     8   8   4   8   8   8
#     4   8  17  34  55  87 115 133 183 241 276 331
#     4  11  21  36  60  84 116 154 187 235 289 333
#     4  10  22  36  52  84 120 152 190 232 288 344
#     4   9  18  35  61  87 109 144 194 233 278 347
#     4   8  17  35  56  81 119 149 180 241 287 326
#     4   9  19  38  62  86 112 147 192 239 282 330
#
# _framework density 25.354790000000001
#
# number of rings (size 3 to 8) (size 9 to 14) (size 15 to 20)
#    0.000    2.909    0.000    2.727    0.000   10.182 
#    0.000   10.909    0.000   26.182    0.000    0.000 
#    0.000    0.000    0.000    0.000    0.000    0.000 
#
# Total GULP energy -123116.369788 kJ/mol
# GULP energy per Si atom -5596.198627 kJ/mol
# Density = 2.529708 g / cm^3
# Si number density = 25.354790 Si / 1000 Ang^3
#
#
#
# Elastic Constant Matrix: (Units=GPa)
#
#
# Indices 1 2 3 4 5 6 
#
# 1 173.4227 36.3021 39.1638 0.0000 43.4230 0.0000
# 2 36.3021 95.2374 29.4368 0.0000 9.1570 0.0000
# 3 39.1638 29.4368 88.8015 0.0000 -3.7771 0.0000
# 4 0.0000 0.0000 0.0000 18.0813 0.0000 8.2044
# 5 43.4230 9.1570 -3.7771 0.0000 46.3678 0.0000
# 6 0.0000 0.0000 0.0000 8.2044 0.0000 39.8844
#
#
#
# Elastic Compliance Matrix: (Units=1/GPa)
#
#
# Indices 1 2 3 4 5 6 
#
# 1 0.009085 -0.001438 -0.003893 0.000000 -0.008541 0.000000
# 2 -0.001438 0.012256 -0.003486 0.000000 -0.001357 0.000000
# 3 -0.003893 -0.003486 0.014368 0.000000 0.005505 0.000000
# 4 0.000000 0.000000 0.000000 0.060999 0.000000 -0.012548
# 5 -0.008541 -0.001357 0.005505 0.000000 0.030282 0.000000
# 6 0.000000 0.000000 0.000000 -0.012548 0.000000 0.027654
#
#
# Mechanical properties :
#
#
# Convention : Reuss Voigt Hill
#
# Bulk Modulus (GPa) = 55.32919 63.02966 59.17943
# Shear Modulus (GPa) = 28.04183 37.70396 32.87289
#
# Velocity S-wave (km/s) = 3.32923 3.86042 3.60462
# Velocity P-wave (km/s) = 6.05374 6.69205 6.38088
#
# Compressibility (1/GPa) = 0.01807364
#
# Stress axis : x y z
#
# Youngs Moduli (GPa) = 110.06877 81.58975 69.59952
#
# Poissons Ratio (x) = 0.11736 0.27097
# Poissons Ratio (y) = 0.15833 0.24264
# Poissons Ratio (z) = 0.42853 0.28444
#
# Static dielectric constant tensor:
#      x y z
#    x 2.046790 0.000000 -0.010570 
#    y 0.000000 2.019580 0.000000 
#    z -0.010570 0.000000 2.059700 
# 
# From -- ./inp_files/188875.got.cif
#   From: 2010.05.17/outbox.cif.g08.bks.cpg/sg15_95_cif.got.tgz:188875.got - 2010.06.03 18:47:42.
