data_PCOD9287498
_publ_section_title
;
Structure prediction by ZEFSAII (Michael W. Deem and Ramdas Pophale) SiO2 
 PCOD9287498
Probable space group: C 2/C
;
_chemical_formula_sum "Si O2"
_cell_formula_units_Z 52
_cell_length_a 21.436631
_cell_length_b 12.692591
_cell_length_c 9.160594
_cell_angle_alpha 90.000000
_cell_angle_beta 55.997927
_cell_angle_gamma 90.000000
_cell_volume 2066.303294
_symmetry_space_group_name_H-M "C 2/C"
_symmetry_group_IT_number 15
_symmetry_cell_setting 'monoclinic'
loop_
_space_group_symop_operation_xyz
x,y,z
-x,y,1/2-z
-x,-y,-z
x,-y,1/2+z
1/2+x,1/2+y,z
1/2-x,1/2+y,1/2-z
1/2-x,1/2-y,-z
1/2+x,1/2-y,1/2+z
loop_
_atom_site_type_symbol
_atom_site_label
_atom_site_fract_x
_atom_site_fract_y
_atom_site_fract_z
Si Si1 0.925637 0.267850 0.093177
Si Si2 0.134382 0.756535 0.237901
Si Si3 0.770117 0.595899 0.222469
Si Si4 0.000000 0.649403 0.250000
Si Si5 0.110810 0.918851 0.035408
Si Si6 0.717027 0.881456 0.131256
Si Si7 0.396750 0.656791 0.422393
O O1 0.944208 0.166989 0.964245
O O2 0.837343 0.300001 0.216203
O O3 0.933343 0.222751 0.245202
O O4 0.968741 0.365148 0.960826
O O5 0.205257 0.692669 0.206393
O O6 0.089874 0.787968 0.441511
O O7 0.083223 0.685382 0.200495
O O8 0.144975 0.865292 0.136025
O O9 0.680512 0.577065 0.332489
O O10 0.797086 0.491582 0.270157
O O11 0.800679 0.608770 0.018347
O O12 0.080540 0.034223 0.102749
O O13 0.805001 0.850846 0.026126
#
# Coordination Sequence:
#
# PCOD9287498 Si02
#       7
#     8   8   8   4   8   8   8
#     4  11  21  45  62  87 135 165 218 264 316 369
#     4  11  23  43  63  89 132 177 215 262 318 363
#     4  11  23  39  65 102 129 166 204 264 342 390
#     4  10  28  44  64  90 122 186 230 266 290 380
#     4  10  22  36  65 102 132 159 202 263 333 406
#     4  11  24  38  68 103 131 158 207 269 336 406
#     4  11  21  39  67 101 128 162 206 264 335 393
#
# _framework density 25.165714000000001
#
# number of rings (size 3 to 8) (size 9 to 14) (size 15 to 20)
#    0.000    1.231    3.077    2.769   10.769    0.615 
#    0.000   13.077    0.000    0.000    0.000    0.000 
#    0.000    0.000    0.000    0.000    0.000    0.000 
#
# Total GULP energy -144952.731435 kJ/mol
# GULP energy per Si atom -5575.105055 kJ/mol
# Density = 2.510844 g / cm^3
# Si number density = 25.165714 Si / 1000 Ang^3
#
#
#
# Elastic Constant Matrix: (Units=GPa)
#
#
# Indices 1 2 3 4 5 6 
#
# 1 76.2178 9.1264 18.6013 0.0000 10.4694 0.0000
# 2 9.1264 72.0727 19.7653 0.0000 15.3955 0.0000
# 3 18.6013 19.7653 156.6493 0.0000 6.5076 0.0000
# 4 0.0000 0.0000 0.0000 8.7516 0.0000 14.5985
# 5 10.4694 15.3955 6.5076 0.0000 53.9894 0.0000
# 6 0.0000 0.0000 0.0000 14.5985 0.0000 4.8025
#
#
#
# Elastic Compliance Matrix: (Units=1/GPa)
#
#
# Indices 1 2 3 4 5 6 
#
# 1 0.013890 -0.000878 -0.001444 0.000000 -0.002269 0.000000
# 2 -0.000878 0.015294 -0.001660 0.000000 -0.003991 0.000000
# 3 -0.001444 -0.001660 0.006767 0.000000 -0.000062 0.000000
# 4 0.000000 0.000000 0.000000 -0.028071 0.000000 0.085328
# 5 -0.002269 -0.003991 -0.000062 0.000000 0.020108 0.000000
# 6 0.000000 0.000000 0.000000 0.085328 0.000000 -0.051154
#
#
# Mechanical properties :
#
#
# Convention : Reuss Voigt Hill
#
# Bulk Modulus (GPa) = 35.73150 44.43620 40.08385
# Shear Modulus (GPa) = -851.32484 30.67182 -410.32651
#
# Velocity S-wave (km/s) = -18.41255 3.49491 -12.78295
# Velocity P-wave (km/s) = 20.92367 5.82938 14.20947
#
# Compressibility (1/GPa) = 0.02798651
#
# Stress axis : x y z
#
# Youngs Moduli (GPa) = 71.99640 65.38646 147.77197
#
# Poissons Ratio (x) = 0.05741 0.21342
# Poissons Ratio (y) = 0.06322 0.24525
# Poissons Ratio (z) = 0.10398 0.10852
#
# Static dielectric constant tensor:
#      x y z
#    x 2.065350 0.000000 -0.018340 
#    y 0.000000 2.057850 0.000000 
#    z -0.018340 0.000000 2.004800 
# 
# From -- ./inp_files/66116.got.cif
#   From: 2010.05.17/outbox.cif.g08.bks.cpg/sg15_34_cif.got.tgz:66116.got - 2010.06.03 18:47:42.
