data_PCOD9287963
_publ_section_title
;
Structure prediction by ZEFSAII (Michael W. Deem and Ramdas Pophale) SiO2 
 PCOD9287963
Probable space group: C 2/C
;
_chemical_formula_sum "Si O2"
_cell_formula_units_Z 56
_cell_length_a 26.909075
_cell_length_b 5.120423
_cell_length_c 17.396677
_cell_angle_alpha 90.000000
_cell_angle_beta 85.826145
_cell_angle_gamma 90.000000
_cell_volume 2390.658486
_symmetry_space_group_name_H-M "C 2/C"
_symmetry_group_IT_number 15
_symmetry_cell_setting 'monoclinic'
loop_
_space_group_symop_operation_xyz
x,y,z
-x,y,1/2-z
-x,-y,-z
x,-y,1/2+z
1/2+x,1/2+y,z
1/2-x,1/2+y,1/2-z
1/2-x,1/2-y,-z
1/2+x,1/2-y,1/2+z
loop_
_atom_site_type_symbol
_atom_site_label
_atom_site_fract_x
_atom_site_fract_y
_atom_site_fract_z
Si Si1 0.660676 0.438224 0.899538
Si Si2 0.778546 0.192297 0.719721
Si Si3 0.560038 0.706971 0.856768
Si Si4 0.867112 0.458708 0.226636
Si Si5 0.000000 0.841560 0.750000
Si Si6 0.500000 0.500000 0.500000
Si Si7 0.914001 0.250457 0.365554
Si Si8 0.903985 0.254104 0.967894
O O1 0.709211 0.601509 0.869251
O O2 0.613018 0.620023 0.886765
O O3 0.658062 0.208626 0.837106
O O4 0.647500 0.313630 0.982812
O O5 0.743054 0.441834 0.733715
O O6 0.831653 0.293899 0.746306
O O7 0.578186 0.966906 0.811341
O O8 0.539338 0.523837 0.791228
O O9 0.520119 0.695799 0.928770
O O10 0.874250 0.304018 0.304237
O O11 0.031944 0.704732 0.679337
O O12 0.549491 0.688566 0.481917
O O13 0.906434 0.456531 0.434656
O O14 0.911903 0.961286 0.400112
#
# Coordination Sequence:
#
# PCOD9287963 Si02
#       8
#     8   8   8   8   4   4   8   8
#     4  10  23  43  67  99 134 172 222 278 335 401
#     4  11  23  42  76 110 125 160 217 287 347 419
#     4  10  22  38  60  93 133 178 230 278 324 379
#     4  11  24  41  71  99 138 171 226 288 341 400
#     4  12  22  40  60  94 134 190 240 278 312 386
#     4  10  22  40  58  90 130 184 238 278 312 382
#     4  12  27  42  63  95 138 186 230 280 333 384
#     4  11  27  42  63  93 135 189 228 279 331 393
#
# _framework density 23.424509
#
# number of rings (size 3 to 8) (size 9 to 14) (size 15 to 20)
#    0.000    1.143    4.286    0.857   10.000    1.143 
#    0.000    0.000    0.000    5.143    0.000    0.000 
#    0.000    0.000    0.000    0.000    0.000    0.000 
#
# Total GULP energy -155941.390870 kJ/mol
# GULP energy per Si atom -5569.335388 kJ/mol
# Density = 2.337119 g / cm^3
# Si number density = 23.424509 Si / 1000 Ang^3
#
#
#
# Elastic Constant Matrix: (Units=GPa)
#
#
# Indices 1 2 3 4 5 6 
#
# 1 48.2790 22.2099 34.5368 0.0000 -29.2166 0.0000
# 2 22.2099 71.1442 21.9022 0.0000 -6.6146 0.0000
# 3 34.5368 21.9022 86.8768 0.0000 -23.1506 0.0000
# 4 0.0000 0.0000 0.0000 26.7435 0.0000 3.2353
# 5 -29.2166 -6.6146 -23.1506 0.0000 36.4295 0.0000
# 6 0.0000 0.0000 0.0000 3.2353 0.0000 36.3924
#
#
#
# Elastic Compliance Matrix: (Units=1/GPa)
#
#
# Indices 1 2 3 4 5 6 
#
# 1 0.053357 -0.010564 -0.009217 0.000000 0.035017 0.000000
# 2 -0.010564 0.017335 -0.001914 0.000000 -0.006541 0.000000
# 3 -0.009217 -0.001914 0.016366 0.000000 0.002661 0.000000
# 4 0.000000 0.000000 0.000000 0.037799 0.000000 -0.003360
# 5 0.035017 -0.006541 0.002661 0.000000 0.056038 0.000000
# 6 0.000000 0.000000 0.000000 -0.003360 0.000000 0.027777
#
#
# Mechanical properties :
#
#
# Convention : Reuss Voigt Hill
#
# Bulk Modulus (GPa) = 22.89953 40.39976 31.64965
# Shear Modulus (GPa) = 18.75349 28.42316 23.58832
#
# Velocity S-wave (km/s) = 2.83254 3.48716 3.17676
# Velocity P-wave (km/s) = 4.52712 5.78774 5.19581
#
# Compressibility (1/GPa) = 0.04366902
#
# Stress axis : x y z
#
# Youngs Moduli (GPa) = 18.74163 57.68737 61.10145
#
# Poissons Ratio (x) = 0.60940 0.56317
# Poissons Ratio (y) = 0.19798 0.11693
# Poissons Ratio (z) = 0.17274 0.11039
#
# Static dielectric constant tensor:
#      x y z
#    x 1.972660 0.000000 -0.001380 
#    y 0.000000 1.985360 0.000000 
#    z -0.001380 0.000000 1.949710 
# 
# From -- ./inp_files/223612.got.cif
#   From: 2010.05.17/outbox.cif.g08.bks.cpg/sg15_112_cif.got.tgz:223612.got - 2010.06.03 18:47:42.
