data_PCOD9287302
_publ_section_title
;
Structure prediction by ZEFSAII (Michael W. Deem and Ramdas Pophale) SiO2 
 PCOD9287302
Probable space group: C 2/C
;
_chemical_formula_sum "Si O2"
_cell_formula_units_Z 40
_cell_length_a 15.739201
_cell_length_b 18.506515
_cell_length_c 5.493248
_cell_angle_alpha 90.000000
_cell_angle_beta 77.953187
_cell_angle_gamma 90.000000
_cell_volume 1564.823470
_symmetry_space_group_name_H-M "C 2/C"
_symmetry_group_IT_number 15
_symmetry_cell_setting 'monoclinic'
loop_
_space_group_symop_operation_xyz
x,y,z
-x,y,1/2-z
-x,-y,-z
x,-y,1/2+z
1/2+x,1/2+y,z
1/2-x,1/2+y,1/2-z
1/2-x,1/2-y,-z
1/2+x,1/2-y,1/2+z
loop_
_atom_site_type_symbol
_atom_site_label
_atom_site_fract_x
_atom_site_fract_y
_atom_site_fract_z
Si Si1 0.106806 0.961436 0.689632
Si Si2 0.143920 0.675604 0.646263
Si Si3 0.918214 0.188787 0.124181
Si Si4 0.191787 0.796985 0.224534
Si Si5 0.400853 0.972885 0.536926
O O1 0.135512 0.878314 0.722267
O O2 0.000000 0.963813 0.750000
O O3 0.133832 0.993134 0.412630
O O4 0.092528 0.723618 0.872155
O O5 0.163925 0.740060 0.445173
O O6 0.234058 0.651075 0.714193
O O7 0.099414 0.610034 0.541689
O O8 0.000000 0.182941 0.250000
O O9 0.893473 0.172100 0.857259
O O10 0.250000 0.750000 0.000000
O O11 0.500000 0.000000 0.500000
O O12 0.361026 0.985352 0.827721
#
# Coordination Sequence:
#
# PCOD9287302 Si02
#       5
#     8   8   8   8   8
#     4   9  19  36  55  82 126 159 192 254 327 387
#     4  10  22  41  67  90 131 183 229 283 344 418
#     4  10  22  35  64  98 121 166 224 277 339 411
#     4   9  21  41  64  87 128 168 230 277 334 402
#     4  10  24  41  65  99 142 182 224 286 360 416
#
# _framework density 25.561987999999999
#
# number of rings (size 3 to 8) (size 9 to 14) (size 15 to 20)
#    0.000    2.400    0.000    0.000   11.200    2.400 
#    0.000    2.000    0.000    0.000    0.000    0.000 
#    0.000    0.000    0.000    0.000    0.000    0.000 
#
# Total GULP energy -111336.885040 kJ/mol
# GULP energy per Si atom -5566.844252 kJ/mol
# Density = 2.550381 g / cm^3
# Si number density = 25.561988 Si / 1000 Ang^3
#
#
#
# Elastic Constant Matrix: (Units=GPa)
#
#
# Indices 1 2 3 4 5 6 
#
# 1 81.9730 20.9167 31.9107 0.0000 42.3792 0.0000
# 2 20.9167 163.5415 27.5276 0.0000 28.2593 0.0000
# 3 31.9107 27.5276 119.7729 0.0000 47.4629 0.0000
# 4 0.0000 0.0000 0.0000 31.1786 0.0000 8.2491
# 5 42.3792 28.2593 47.4629 0.0000 42.7340 0.0000
# 6 0.0000 0.0000 0.0000 8.2491 0.0000 26.9558
#
#
#
# Elastic Compliance Matrix: (Units=1/GPa)
#
#
# Indices 1 2 3 4 5 6 
#
# 1 0.027717 0.001529 0.006353 0.000000 -0.035555 0.000000
# 2 0.001529 0.006998 0.000748 0.000000 -0.006976 0.000000
# 3 0.006353 0.000748 0.016392 0.000000 -0.025001 0.000000
# 4 0.000000 0.000000 0.000000 0.034899 0.000000 -0.010680
# 5 -0.035555 -0.006976 -0.025001 0.000000 0.091041 0.000000
# 6 0.000000 0.000000 0.000000 -0.010680 0.000000 0.040366
#
#
# Mechanical properties :
#
#
# Convention : Reuss Voigt Hill
#
# Bulk Modulus (GPa) = 14.62646 58.44416 36.53531
# Shear Modulus (GPa) = 22.42751 39.16917 30.79834
#
# Velocity S-wave (km/s) = 2.96527 3.91873 3.47486
# Velocity P-wave (km/s) = 4.17829 6.58701 5.51574
#
# Compressibility (1/GPa) = 0.06836926
#
# Stress axis : x y z
#
# Youngs Moduli (GPa) = 36.07893 142.88821 61.00650
#
# Poissons Ratio (x) = -0.21852 -0.38759
# Poissons Ratio (y) = -0.05518 -0.04566
# Poissons Ratio (z) = -0.22922 -0.10694
#
# Static dielectric constant tensor:
#      x y z
#    x 2.197810 0.000000 -0.085680 
#    y 0.000000 2.119790 0.000000 
#    z -0.085680 0.000000 2.339190 
# 
# From -- ./inp_files/9799.got.cif
#   From: 2010.05.17/outbox.cif.g08.bks.cpg/sg15_5_cif.got.tgz:9799.got - 2010.06.03 18:47:42.
