data_PCOD9287020
_publ_section_title
;
Structure prediction by ZEFSAII (Michael W. Deem and Ramdas Pophale) SiO2 
 PCOD9287020
Probable space group: C 2/C
;
_chemical_formula_sum "Si O2"
_cell_formula_units_Z 40
_cell_length_a 9.153953
_cell_length_b 22.477395
_cell_length_c 9.684029
_cell_angle_alpha 90.000000
_cell_angle_beta 74.447600
_cell_angle_gamma 90.000000
_cell_volume 1919.600740
_symmetry_space_group_name_H-M "C 2/C"
_symmetry_group_IT_number 15
_symmetry_cell_setting 'monoclinic'
loop_
_space_group_symop_operation_xyz
x,y,z
-x,y,1/2-z
-x,-y,-z
x,-y,1/2+z
1/2+x,1/2+y,z
1/2-x,1/2+y,1/2-z
1/2-x,1/2-y,-z
1/2+x,1/2-y,1/2+z
loop_
_atom_site_type_symbol
_atom_site_label
_atom_site_fract_x
_atom_site_fract_y
_atom_site_fract_z
Si Si1 0.575274 0.767174 0.578932
Si Si2 0.365238 0.552304 0.892665
Si Si3 0.190887 0.806021 0.429586
Si Si4 0.887512 0.638966 0.655604
Si Si5 0.425052 0.582796 0.408425
O O1 0.500000 0.779947 0.750000
O O2 0.750000 0.750000 0.500000
O O3 0.482841 0.709133 0.556127
O O4 0.540129 0.823199 0.487225
O O5 0.500000 0.564926 0.750000
O O6 0.217580 0.587576 0.881352
O O7 0.347043 0.480999 0.901911
O O8 0.437258 0.571320 0.019897
O O9 0.250000 0.750000 0.500000
O O10 0.280606 0.814429 0.265347
O O11 0.190853 0.868971 0.505307
O O12 0.000000 0.618427 0.750000
O O13 0.500000 0.605678 0.250000
#
# Coordination Sequence:
#
# PCOD9287020 Si02
#       5
#     8   8   8   8   8
#     4  12  26  42  69 108 145 188 242 297 359 434
#     4  10  21  45  73 100 130 187 249 300 356 428
#     4  12  25  42  68 103 145 186 234 293 364 437
#     4  12  25  45  70 101 149 192 233 296 373 433
#     4  10  23  40  74 103 132 178 250 305 350 425
#
# _framework density 20.837665999999999
#
# number of rings (size 3 to 8) (size 9 to 14) (size 15 to 20)
#    0.000    0.800    6.000    1.200    2.800    1.600 
#    0.000    1.000    0.000    0.000    0.000    0.000 
#    0.000    0.000    0.000    0.000    0.000    0.000 
#
# Total GULP energy -111638.259626 kJ/mol
# GULP energy per Si atom -5581.912981 kJ/mol
# Density = 2.079024 g / cm^3
# Si number density = 20.837666 Si / 1000 Ang^3
#
#
#
# Elastic Constant Matrix: (Units=GPa)
#
#
# Indices 1 2 3 4 5 6 
#
# 1 107.5144 31.6413 32.2452 0.0000 0.9222 0.0000
# 2 31.6413 74.6074 29.0129 0.0000 -1.7960 0.0000
# 3 32.2452 29.0129 145.4669 0.0000 -7.2508 0.0000
# 4 0.0000 0.0000 0.0000 25.4324 0.0000 -0.9179
# 5 0.9222 -1.7960 -7.2508 0.0000 28.0938 0.0000
# 6 0.0000 0.0000 0.0000 -0.9179 0.0000 41.7369
#
#
#
# Elastic Compliance Matrix: (Units=1/GPa)
#
#
# Indices 1 2 3 4 5 6 
#
# 1 0.011004 -0.004036 -0.001687 0.000000 -0.001055 0.000000
# 2 -0.004036 0.016012 -0.002270 0.000000 0.000570 0.000000
# 3 -0.001687 -0.002270 0.007797 0.000000 0.001923 0.000000
# 4 0.000000 0.000000 0.000000 0.039351 0.000000 0.000865
# 5 -0.001055 0.000570 0.001923 0.000000 0.036162 0.000000
# 6 0.000000 0.000000 0.000000 0.000865 0.000000 0.023979
#
#
# Mechanical properties :
#
#
# Convention : Reuss Voigt Hill
#
# Bulk Modulus (GPa) = 53.11811 57.04305 55.08058
# Shear Modulus (GPa) = 31.93520 34.69856 33.31688
#
# Velocity S-wave (km/s) = 3.91905 4.08509 4.00293
# Velocity P-wave (km/s) = 6.78420 7.04876 6.91775
#
# Compressibility (1/GPa) = 0.01882597
#
# Stress axis : x y z
#
# Youngs Moduli (GPa) = 90.87712 62.45348 128.25501
#
# Poissons Ratio (x) = 0.25208 0.21633
# Poissons Ratio (y) = 0.36680 0.29119
# Poissons Ratio (z) = 0.15329 0.14179
#
# Static dielectric constant tensor:
#      x y z
#    x 1.555160 0.000000 0.268190 
#    y 0.000000 1.755540 0.000000 
#    z 0.268190 0.000000 1.645830 
# 
# From -- ./inp_files/23483.got.cif
#   From: 2010.05.17/outbox.cif.g08.bks.cpg/sg15_12_cif.got.tgz:23483.got - 2010.06.03 18:47:42.
