data_PCOD9287582
_publ_section_title
;
Structure prediction by ZEFSAII (Michael W. Deem and Ramdas Pophale) SiO2 
 PCOD9287582
Probable space group: C 2/C
;
_chemical_formula_sum "Si O2"
_cell_formula_units_Z 32
_cell_length_a 12.704419
_cell_length_b 14.965453
_cell_length_c 9.892787
_cell_angle_alpha 90.000000
_cell_angle_beta 142.039120
_cell_angle_gamma 90.000000
_cell_volume 1156.979095
_symmetry_space_group_name_H-M "C 2/C"
_symmetry_group_IT_number 15
_symmetry_cell_setting 'monoclinic'
loop_
_space_group_symop_operation_xyz
x,y,z
-x,y,1/2-z
-x,-y,-z
x,-y,1/2+z
1/2+x,1/2+y,z
1/2-x,1/2+y,1/2-z
1/2-x,1/2-y,-z
1/2+x,1/2-y,1/2+z
loop_
_atom_site_type_symbol
_atom_site_label
_atom_site_fract_x
_atom_site_fract_y
_atom_site_fract_z
Si Si1 0.000000 0.010603 0.250000
Si Si2 0.779197 0.405399 0.687280
Si Si3 0.477192 0.330060 0.517030
Si Si4 0.357254 0.094413 0.869950
Si Si5 0.000000 0.678487 0.750000
O O1 0.165767 0.951856 0.456459
O O2 0.010999 0.079828 0.137719
O O3 0.654147 0.328157 0.615432
O O4 0.818232 0.488768 0.830863
O O5 0.976941 0.376905 0.876666
O O6 0.312748 0.353218 0.263819
O O7 0.429009 0.249740 0.568934
O O8 0.389823 0.118715 0.741721
#
# Coordination Sequence:
#
# PCOD9287582 Si02
#       5
#     4   8   8   8   4
#     4   9  18  36  58  84 119 166 208 249 306 366
#     4  10  22  39  59  88 132 164 214 254 309 378
#     4  10  22  39  60  94 129 162 204 270 318 368
#     4  10  22  37  57  96 126 163 205 262 315 374
#     4  11  24  38  68 102 131 154 210 273 328 360
#
# _framework density 27.658235000000001
#
# number of rings (size 3 to 8) (size 9 to 14) (size 15 to 20)
#    0.000    2.000    0.000    3.750   14.000    0.000 
#    0.000    0.000    0.000    1.500    0.000    0.000 
#    0.000    0.000    0.000    0.000    0.000    0.000 
#
# Total GULP energy -89324.629360 kJ/mol
# GULP energy per Si atom -5582.789335 kJ/mol
# Density = 2.759528 g / cm^3
# Si number density = 27.658235 Si / 1000 Ang^3
#
#
#
# Elastic Constant Matrix: (Units=GPa)
#
#
# Indices 1 2 3 4 5 6 
#
# 1 87.6437 41.0999 45.2347 0.0000 6.9278 0.0000
# 2 41.0999 83.5549 49.7162 0.0000 2.2072 0.0000
# 3 45.2347 49.7162 240.7584 0.0000 54.6601 0.0000
# 4 0.0000 0.0000 0.0000 43.8231 0.0000 -11.9924
# 5 6.9278 2.2072 54.6601 0.0000 41.7817 0.0000
# 6 0.0000 0.0000 0.0000 -11.9924 0.0000 34.0407
#
#
#
# Elastic Compliance Matrix: (Units=1/GPa)
#
#
# Indices 1 2 3 4 5 6 
#
# 1 0.015298 -0.006669 -0.001424 0.000000 -0.000321 0.000000
# 2 -0.006669 0.017095 -0.003305 0.000000 0.004526 0.000000
# 3 -0.001424 -0.003305 0.007127 0.000000 -0.008913 0.000000
# 4 0.000000 0.000000 0.000000 0.025254 0.000000 0.008897
# 5 -0.000321 0.004526 -0.008913 0.000000 0.035409 0.000000
# 6 0.000000 0.000000 0.000000 0.008897 0.000000 0.032511
#
#
# Mechanical properties :
#
#
# Convention : Reuss Voigt Hill
#
# Bulk Modulus (GPa) = 59.79253 76.00650 67.89952
# Shear Modulus (GPa) = 31.04365 42.32284 36.68325
#
# Velocity S-wave (km/s) = 3.35386 3.91603 3.64580
# Velocity P-wave (km/s) = 6.05501 6.92729 6.50578
#
# Compressibility (1/GPa) = 0.01672450
#
# Stress axis : x y z
#
# Youngs Moduli (GPa) = 65.36994 58.49553 140.30882
#
# Poissons Ratio (x) = 0.39010 0.19982
# Poissons Ratio (y) = 0.43594 0.46368
# Poissons Ratio (z) = 0.09310 0.19331
#
# Static dielectric constant tensor:
#      x y z
#    x 2.256050 0.000000 0.054870 
#    y 0.000000 2.176000 0.000000 
#    z 0.054870 0.000000 2.140390 
# 
# From -- ./inp_files/98589.got.cif
#   From: 2010.05.17/outbox.cif.g08.bks.cpg/sg15_50_cif.got.tgz:98589.got - 2010.06.03 18:47:42.
