data_PCOD9287875
_publ_section_title
;
Structure prediction by ZEFSAII (Michael W. Deem and Ramdas Pophale) SiO2 
 PCOD9287875
Probable space group: C 2/C
;
_chemical_formula_sum "Si O2"
_cell_formula_units_Z 44
_cell_length_a 4.806892
_cell_length_b 27.467297
_cell_length_c 14.547903
_cell_angle_alpha 90.000000
_cell_angle_beta 70.705835
_cell_angle_gamma 90.000000
_cell_volume 1812.911408
_symmetry_space_group_name_H-M "C 2/C"
_symmetry_group_IT_number 15
_symmetry_cell_setting 'monoclinic'
loop_
_space_group_symop_operation_xyz
x,y,z
-x,y,1/2-z
-x,-y,-z
x,-y,1/2+z
1/2+x,1/2+y,z
1/2-x,1/2+y,1/2-z
1/2-x,1/2-y,-z
1/2+x,1/2-y,1/2+z
loop_
_atom_site_type_symbol
_atom_site_label
_atom_site_fract_x
_atom_site_fract_y
_atom_site_fract_z
Si Si1 0.437225 0.391216 0.614447
Si Si2 0.565030 0.173818 0.384946
Si Si3 0.166119 0.891216 0.385553
Si Si4 0.500000 0.750000 0.250000
Si Si5 0.000000 0.467818 0.750000
Si Si6 0.165077 0.326182 0.384947
Si Si7 0.500000 0.532182 0.750000
O O1 0.725119 0.374131 0.637798
O O2 0.536597 0.402462 0.500000
O O3 0.233194 0.342922 0.631409
O O4 0.242884 0.434581 0.673864
O O5 0.739377 0.217011 0.319473
O O6 0.487247 0.184704 0.500000
O O7 0.996012 0.842922 0.368592
O O8 0.500714 0.874131 0.362203
O O9 0.090612 0.934581 0.326136
O O10 0.621678 0.782989 0.319473
O O11 0.795803 0.500000 0.704197
#
# Coordination Sequence:
#
# PCOD9287875 Si02
#       7
#     8   8   8   4   4   8   4
#     4  10  22  42  60  80 116 155 187 228 285 340
#     4  10  22  38  59  84 114 154 193 228 277 338
#     4  10  22  42  60  80 116 155 187 228 285 340
#     4  12  22  36  60  88 120 146 190 244 280 316
#     4  12  24  37  60  91 114 141 190 239 284 340
#     4  10  22  38  59  84 114 154 193 228 277 338
#     4  12  24  37  60  91 114 141 190 239 284 340
#
# _framework density 24.270353
#
# number of rings (size 3 to 8) (size 9 to 14) (size 15 to 20)
#    0.000    1.455    0.000    4.909    0.000    4.364 
#    0.000    5.455    0.000    0.000    0.000    0.000 
#    0.000    0.000    0.000    0.000    0.000    0.000 
#
# Total GULP energy -123415.684806 kJ/mol
# GULP energy per Si atom -5609.803855 kJ/mol
# Density = 2.421511 g / cm^3
# Si number density = 24.270353 Si / 1000 Ang^3
#
#
#
# Elastic Constant Matrix: (Units=GPa)
#
#
# Indices 1 2 3 4 5 6 
#
# 1 107.4605 14.3278 20.1249 0.0000 -2.1796 0.0000
# 2 14.3278 85.4864 45.3829 0.0000 2.8708 0.0000
# 3 20.1249 45.3829 86.2525 0.0000 0.2190 0.0000
# 4 0.0000 0.0000 0.0000 9.8697 0.0000 -1.1028
# 5 -2.1796 2.8708 0.2190 0.0000 32.1009 0.0000
# 6 0.0000 0.0000 0.0000 -1.1028 0.0000 21.7978
#
#
#
# Elastic Compliance Matrix: (Units=1/GPa)
#
#
# Indices 1 2 3 4 5 6 
#
# 1 0.009770 -0.000626 -0.001952 0.000000 0.000733 0.000000
# 2 -0.000626 0.016334 -0.008445 0.000000 -0.001446 0.000000
# 3 -0.001952 -0.008445 0.016491 0.000000 0.000510 0.000000
# 4 0.000000 0.000000 0.000000 0.101896 0.000000 0.005155
# 5 0.000733 -0.001446 0.000510 0.000000 0.031327 0.000000
# 6 0.000000 0.000000 0.000000 0.005155 0.000000 0.046137
#
#
# Mechanical properties :
#
#
# Convention : Reuss Voigt Hill
#
# Bulk Modulus (GPa) = 48.66176 48.76340 48.71258
# Shear Modulus (GPa) = 19.93215 26.04461 22.98838
#
# Velocity S-wave (km/s) = 2.86886 3.27938 3.08097
# Velocity P-wave (km/s) = 5.57380 5.87150 5.72458
#
# Compressibility (1/GPa) = 0.02055002
#
# Stress axis : x y z
#
# Youngs Moduli (GPa) = 102.35810 61.22048 60.63743
#
# Poissons Ratio (x) = 0.03830 0.11837
# Poissons Ratio (y) = 0.06404 0.51208
# Poissons Ratio (z) = 0.19982 0.51700
#
# Static dielectric constant tensor:
#      x y z
#    x 1.882380 0.000000 0.003240 
#    y 0.000000 1.950850 0.000000 
#    z 0.003240 0.000000 1.917390 
# 
# From -- ./inp_files/8001.got.cif
#   From: 2010.05.17/outbox.cif.g08.bks.cpg/sg15_5_cif.got.tgz:8001.got - 2010.06.03 18:47:42.
