data_PCOD9287657
_publ_section_title
;
Structure prediction by ZEFSAII (Michael W. Deem and Ramdas Pophale) SiO2 
 PCOD9287657
Probable space group: C 2/C
;
_chemical_formula_sum "Si O2"
_cell_formula_units_Z 44
_cell_length_a 14.476490
_cell_length_b 13.276350
_cell_length_c 9.113898
_cell_angle_alpha 90.000000
_cell_angle_beta 67.109979
_cell_angle_gamma 90.000000
_cell_volume 1613.708639
_symmetry_space_group_name_H-M "C 2/C"
_symmetry_group_IT_number 15
_symmetry_cell_setting 'monoclinic'
loop_
_space_group_symop_operation_xyz
x,y,z
-x,y,1/2-z
-x,-y,-z
x,-y,1/2+z
1/2+x,1/2+y,z
1/2-x,1/2+y,1/2-z
1/2-x,1/2-y,-z
1/2+x,1/2-y,1/2+z
loop_
_atom_site_type_symbol
_atom_site_label
_atom_site_fract_x
_atom_site_fract_y
_atom_site_fract_z
Si Si1 0.352216 0.859243 0.681380
Si Si2 0.142146 0.822598 0.659678
Si Si3 0.457269 0.882177 0.134205
Si Si4 0.500000 0.502933 0.250000
Si Si5 0.775090 0.631519 0.525283
Si Si6 0.598452 0.644314 0.842929
O O1 0.256745 0.829669 0.639626
O O2 0.443338 0.894843 0.526967
O O3 0.405415 0.758279 0.709560
O O4 0.303197 0.915963 0.850252
O O5 0.089058 0.721965 0.757308
O O6 0.129328 0.842267 0.492877
O O7 0.082330 0.918262 0.754381
O O8 0.500000 0.940543 0.250000
O O9 0.367139 0.892863 0.075340
O O10 0.501069 0.420417 0.118069
O O11 0.750000 0.750000 0.500000
O O12 0.681488 0.597683 0.682245
#
# Coordination Sequence:
#
# PCOD9287657 Si02
#       6
#     8   8   8   4   8   8
#     4  11  23  39  67  91 139 180 241 282 345 410
#     4  12  23  43  61 100 139 185 229 289 343 425
#     4  12  21  37  65  94 130 182 235 286 341 406
#     4  12  28  40  68 104 150 180 228 288 372 408
#     4  10  22  37  61  94 133 176 234 290 341 401
#     4  11  23  40  63  96 139 186 224 289 348 415
#
# _framework density 27.266385
#
# number of rings (size 3 to 8) (size 9 to 14) (size 15 to 20)
#    0.000    0.727    6.364    2.727    5.091    2.909 
#    0.000    0.000    0.000    1.091    0.000    0.000 
#    0.000    0.000    0.000    0.000    0.000    0.000 
#
# Total GULP energy -122538.756701 kJ/mol
# GULP energy per Si atom -5569.943486 kJ/mol
# Density = 2.720433 g / cm^3
# Si number density = 27.266385 Si / 1000 Ang^3
#
#
#
# Elastic Constant Matrix: (Units=GPa)
#
#
# Indices 1 2 3 4 5 6 
#
# 1 202.1698 18.9958 57.1271 0.0000 13.9016 0.0000
# 2 18.9958 62.5555 1.6122 0.0000 -2.8745 0.0000
# 3 57.1271 1.6122 237.8878 0.0000 5.9852 0.0000
# 4 0.0000 0.0000 0.0000 18.8278 0.0000 5.1728
# 5 13.9016 -2.8745 5.9852 0.0000 45.6958 0.0000
# 6 0.0000 0.0000 0.0000 5.1728 0.0000 31.6619
#
#
#
# Elastic Compliance Matrix: (Units=1/GPa)
#
#
# Indices 1 2 3 4 5 6 
#
# 1 0.005587 -0.001739 -0.001289 0.000000 -0.001640 0.000000
# 2 -0.001739 0.016578 0.000266 0.000000 0.001537 0.000000
# 3 -0.001289 0.000266 0.004516 0.000000 -0.000183 0.000000
# 4 0.000000 0.000000 0.000000 0.055609 0.000000 -0.009085
# 5 -0.001640 0.001537 -0.000183 0.000000 0.022503 0.000000
# 6 0.000000 0.000000 0.000000 -0.009085 0.000000 0.033068
#
#
# Mechanical properties :
#
#
# Convention : Reuss Voigt Hill
#
# Bulk Modulus (GPa) = 47.26187 73.12038 60.19113
# Shear Modulus (GPa) = 33.23707 47.56230 40.39969
#
# Velocity S-wave (km/s) = 3.49517 4.18108 3.85342
# Velocity P-wave (km/s) = 5.80166 7.08406 6.47469
#
# Compressibility (1/GPa) = 0.02115870
#
# Stress axis : x y z
#
# Youngs Moduli (GPa) = 179.00061 60.32271 221.44058
#
# Poissons Ratio (x) = 0.10488 0.28533
# Poissons Ratio (y) = 0.31121 -0.05901
# Poissons Ratio (z) = 0.23065 -0.01608
#
# Static dielectric constant tensor:
#      x y z
#    x 2.258080 0.000000 -0.130090 
#    y 0.000000 2.307230 0.000000 
#    z -0.130090 0.000000 2.311140 
# 
# From -- ./inp_files/39094.got.cif
#   From: 2010.05.17/outbox.cif.g08.bks.cpg/sg15_20_cif.got.tgz:39094.got - 2010.06.03 18:47:42.
