data_PCOD9287503
_publ_section_title
;
Structure prediction by ZEFSAII (Michael W. Deem and Ramdas Pophale) SiO2 
 PCOD9287503
Probable space group: C 2/C
;
_chemical_formula_sum "Si O2"
_cell_formula_units_Z 56
_cell_length_a 13.248120
_cell_length_b 22.720437
_cell_length_c 9.444808
_cell_angle_alpha 90.000000
_cell_angle_beta 71.367377
_cell_angle_gamma 90.000000
_cell_volume 2693.909487
_symmetry_space_group_name_H-M "C 2/C"
_symmetry_group_IT_number 15
_symmetry_cell_setting 'monoclinic'
loop_
_space_group_symop_operation_xyz
x,y,z
-x,y,1/2-z
-x,-y,-z
x,-y,1/2+z
1/2+x,1/2+y,z
1/2-x,1/2+y,1/2-z
1/2-x,1/2-y,-z
1/2+x,1/2-y,1/2+z
loop_
_atom_site_type_symbol
_atom_site_label
_atom_site_fract_x
_atom_site_fract_y
_atom_site_fract_z
Si Si1 0.157567 0.906932 0.604970
Si Si2 0.046279 0.447290 0.572712
Si Si3 0.573139 0.615787 0.430606
Si Si4 0.523815 0.726740 0.895599
Si Si5 0.273018 0.644549 0.698085
Si Si6 0.038848 0.665954 0.890802
Si Si7 0.795891 0.957255 0.411288
O O1 0.144646 0.873808 0.759489
O O2 0.239814 0.878526 0.457487
O O3 0.043180 0.902256 0.576466
O O4 0.181507 0.974648 0.628996
O O5 0.015550 0.387404 0.506939
O O6 0.174282 0.451732 0.517484
O O7 0.000000 0.449822 0.750000
O O8 0.000000 0.500000 0.500000
O O9 0.558225 0.674137 0.530183
O O10 0.624482 0.565889 0.504255
O O11 0.500000 0.750879 0.750000
O O12 0.637530 0.694576 0.843419
O O13 0.511291 0.775557 0.020981
O O14 0.166599 0.669085 0.816649
O O15 0.307588 0.586782 0.772683
O O16 0.000000 0.653833 0.750000
#
# Coordination Sequence:
#
# PCOD9287503 Si02
#       7
#     8   8   8   8   8   8   8
#     4  10  22  36  65  97 141 165 217 268 339 390
#     4  11  27  46  68  97 136 173 225 276 328 388
#     4  10  22  39  62 100 133 172 219 268 331 409
#     4  11  23  46  68  93 137 173 218 281 332 389
#     4  10  24  43  65 101 131 175 221 276 331 394
#     4  11  27  46  70  99 129 174 231 272 332 401
#     4  11  22  40  67  97 131 181 218 267 335 402
#
# _framework density 20.787633
#
# number of rings (size 3 to 8) (size 9 to 14) (size 15 to 20)
#    0.000    1.429    1.429    2.143   12.000    4.571 
#    2.571    0.000    0.000    0.000    0.000    0.000 
#    0.000    0.000    0.000    0.000    0.000    0.000 
#
# Total GULP energy -156571.019800 kJ/mol
# GULP energy per Si atom -5591.822136 kJ/mol
# Density = 2.074032 g / cm^3
# Si number density = 20.787633 Si / 1000 Ang^3
#
#
#
# Elastic Constant Matrix: (Units=GPa)
#
#
# Indices 1 2 3 4 5 6 
#
# 1 29.0472 20.3559 22.0816 0.0000 -0.6151 0.0000
# 2 20.3559 76.8360 33.9740 0.0000 -17.5088 0.0000
# 3 22.0816 33.9740 152.5942 0.0000 -10.5030 0.0000
# 4 0.0000 0.0000 0.0000 34.3538 0.0000 -4.1475
# 5 -0.6151 -17.5088 -10.5030 0.0000 21.2748 0.0000
# 6 0.0000 0.0000 0.0000 -4.1475 0.0000 9.1874
#
#
#
# Elastic Compliance Matrix: (Units=1/GPa)
#
#
# Indices 1 2 3 4 5 6 
#
# 1 0.046851 -0.012995 -0.004689 0.000000 -0.011655 0.000000
# 2 -0.012995 0.020824 -0.001658 0.000000 0.015943 0.000000
# 3 -0.004689 -0.001658 0.007762 0.000000 0.002331 0.000000
# 4 0.000000 0.000000 0.000000 0.030787 0.000000 0.013898
# 5 -0.011655 0.015943 0.002331 0.000000 0.060939 0.000000
# 6 0.000000 0.000000 0.000000 0.013898 0.000000 0.115119
#
#
# Mechanical properties :
#
#
# Convention : Reuss Voigt Hill
#
# Bulk Modulus (GPa) = 27.20914 45.70005 36.45460
# Shear Modulus (GPa) = 15.00534 25.10093 20.05313
#
# Velocity S-wave (km/s) = 2.68962 3.47867 3.10928
# Velocity P-wave (km/s) = 4.77105 6.17793 5.51950
#
# Compressibility (1/GPa) = 0.03675236
#
# Stress axis : x y z
#
# Youngs Moduli (GPa) = 21.34438 48.02235 128.84061
#
# Poissons Ratio (x) = 0.62403 0.60410
# Poissons Ratio (y) = 0.27736 0.21368
# Poissons Ratio (z) = 0.10008 0.07964
#
# Static dielectric constant tensor:
#      x y z
#    x 1.752620 0.000000 -0.014160 
#    y 0.000000 1.713710 0.000000 
#    z -0.014160 0.000000 1.751710 
# 
# From -- ./inp_files/42115.got.cif
#   From: 2010.05.17/outbox.cif.g08.bks.cpg/sg15_22_cif.got.tgz:42115.got - 2010.06.03 18:47:42.
