data_PCOD9287185
_publ_section_title
;
Structure prediction by ZEFSAII (Michael W. Deem and Ramdas Pophale) SiO2 
 PCOD9287185
Probable space group: C 2/C
;
_chemical_formula_sum "Si O2"
_cell_formula_units_Z 52
_cell_length_a 21.277638
_cell_length_b 16.829216
_cell_length_c 8.245374
_cell_angle_alpha 90.000000
_cell_angle_beta 64.512132
_cell_angle_gamma 90.000000
_cell_volume 2665.199718
_symmetry_space_group_name_H-M "C 2/C"
_symmetry_group_IT_number 15
_symmetry_cell_setting 'monoclinic'
loop_
_space_group_symop_operation_xyz
x,y,z
-x,y,1/2-z
-x,-y,-z
x,-y,1/2+z
1/2+x,1/2+y,z
1/2-x,1/2+y,1/2-z
1/2-x,1/2-y,-z
1/2+x,1/2-y,1/2+z
loop_
_atom_site_type_symbol
_atom_site_label
_atom_site_fract_x
_atom_site_fract_y
_atom_site_fract_z
Si Si1 0.830979 0.063260 0.009250
Si Si2 0.922016 0.186029 0.767456
Si Si3 0.548505 0.561382 0.047223
Si Si4 0.000000 0.373239 0.250000
Si Si5 0.443012 0.145091 0.166710
Si Si6 0.872824 0.527009 0.753213
Si Si7 0.769916 0.493652 0.123591
O O1 0.875595 0.142545 0.953845
O O2 0.885971 0.990170 0.959479
O O3 0.787728 0.061760 0.890853
O O4 0.772757 0.050481 0.209903
O O5 0.926771 0.130401 0.602040
O O6 0.900161 0.276043 0.757859
O O7 0.000000 0.189643 0.750000
O O8 0.500000 0.589954 0.250000
O O9 0.500000 0.500000 0.000000
O O10 0.063324 0.426216 0.245582
O O11 0.974974 0.335976 0.450660
O O12 0.500000 0.133077 0.250000
O O13 0.398576 0.064116 0.204377
O O14 0.837775 0.549658 0.621973
O O15 0.806300 0.541302 0.940322
#
# Coordination Sequence:
#
# PCOD9287185 Si02
#       7
#     8   8   8   4   8   8   8
#     4  11  19  37  57  87 124 163 205 251 300 364
#     4  11  23  38  58  94 129 160 202 263 323 364
#     4  12  19  33  60  86 115 164 218 254 292 362
#     4  12  22  42  72  92 118 164 218 270 318 372
#     4  11  24  40  63  99 131 158 199 276 338 366
#     4  11  20  41  65  91 115 155 216 261 307 375
#     4  10  22  33  61  92 116 157 212 253 296 374
#
# _framework density 19.510732000000001
#
# number of rings (size 3 to 8) (size 9 to 14) (size 15 to 20)
#    0.000    0.923    6.923    1.385    1.077    0.000 
#    0.000    3.077    0.000    3.692    0.000    0.000 
#    0.000    0.000    0.000    0.000    0.000    0.000 
#
# Total GULP energy -144767.720992 kJ/mol
# GULP energy per Si atom -5567.989269 kJ/mol
# Density = 1.946632 g / cm^3
# Si number density = 19.510732 Si / 1000 Ang^3
#
#
#
# Elastic Constant Matrix: (Units=GPa)
#
#
# Indices 1 2 3 4 5 6 
#
# 1 96.8287 13.8205 -18.3797 0.0000 9.2194 0.0000
# 2 13.8205 41.8035 -5.2687 0.0000 -5.0592 0.0000
# 3 -18.3797 -5.2687 77.0081 0.0000 -6.3842 0.0000
# 4 0.0000 0.0000 0.0000 12.6230 0.0000 6.9408
# 5 9.2194 -5.0592 -6.3842 0.0000 35.5198 0.0000
# 6 0.0000 0.0000 0.0000 6.9408 0.0000 -0.0221
#
#
#
# Elastic Compliance Matrix: (Units=1/GPa)
#
#
# Indices 1 2 3 4 5 6 
#
# 1 0.011618 -0.003943 0.002240 0.000000 -0.003174 0.000000
# 2 -0.003943 0.025981 0.001247 0.000000 0.004948 0.000000
# 3 0.002240 0.001247 0.013777 0.000000 0.002072 0.000000
# 4 0.000000 0.000000 0.000000 0.000456 0.000000 0.143246
# 5 -0.003174 0.004948 0.002072 0.000000 0.030054 0.000000
# 6 0.000000 0.000000 0.000000 0.143246 0.000000 -0.260514
#
#
# Mechanical properties :
#
#
# Convention : Reuss Voigt Hill
#
# Bulk Modulus (GPa) = 19.81623 21.77606 20.79615
# Shear Modulus (GPa) = -31.07638 24.65534 -3.21052
#
# Velocity S-wave (km/s) = -3.99530 3.55869 -1.28417
# Velocity P-wave (km/s) = 3.33236 5.29820 2.91259
#
# Compressibility (1/GPa) = 0.05046367
#
# Stress axis : x y z
#
# Youngs Moduli (GPa) = 86.07559 38.48979 72.58283
#
# Poissons Ratio (x) = 0.15176 -0.16258
# Poissons Ratio (y) = 0.33938 -0.09049
# Poissons Ratio (z) = -0.19280 -0.04799
#
# Static dielectric constant tensor:
#      x y z
#    x 1.733470 0.000000 0.069470 
#    y 0.000000 1.672210 0.000000 
#    z 0.069470 0.000000 1.830210 
# 
# From -- ./inp_files/48470.got.cif
#   From: 2010.05.17/outbox.cif.g08.bks.cpg/sg15_25_cif.got.tgz:48470.got - 2010.06.03 18:47:42.
