data_PCOD9287115
_publ_section_title
;
Structure prediction by ZEFSAII (Michael W. Deem and Ramdas Pophale) SiO2 
 PCOD9287115
Probable space group: C 2/C
;
_chemical_formula_sum "Si O2"
_cell_formula_units_Z 40
_cell_length_a 5.084863
_cell_length_b 28.445014
_cell_length_c 11.051596
_cell_angle_alpha 90.000000
_cell_angle_beta 86.579332
_cell_angle_gamma 90.000000
_cell_volume 1595.643864
_symmetry_space_group_name_H-M "C 2/C"
_symmetry_group_IT_number 15
_symmetry_cell_setting 'monoclinic'
loop_
_space_group_symop_operation_xyz
x,y,z
-x,y,1/2-z
-x,-y,-z
x,-y,1/2+z
1/2+x,1/2+y,z
1/2-x,1/2+y,1/2-z
1/2-x,1/2-y,-z
1/2+x,1/2-y,1/2+z
loop_
_atom_site_type_symbol
_atom_site_label
_atom_site_fract_x
_atom_site_fract_y
_atom_site_fract_z
Si Si1 0.487135 0.741753 0.890807
Si Si2 0.753557 0.615042 0.665998
Si Si3 0.740358 0.409549 0.671323
Si Si4 0.160563 0.510722 0.873691
Si Si5 0.608012 0.170230 0.494945
O O1 0.500000 0.728119 0.750000
O O2 0.699196 0.704487 0.936915
O O3 0.250000 0.750000 0.000000
O O4 0.570571 0.796775 0.881485
O O5 0.500000 0.625751 0.750000
O O6 0.716251 0.562370 0.614781
O O7 0.000000 0.613335 0.750000
O O8 0.839929 0.655304 0.570513
O O9 0.500000 0.387635 0.750000
O O10 0.668527 0.463508 0.642284
O O11 0.781366 0.379887 0.549039
O O12 0.000000 0.409204 0.750000
O O13 0.000000 0.512563 0.750000
O O14 0.000000 0.500000 0.000000
#
# Coordination Sequence:
#
# PCOD9287115 Si02
#       5
#     8   8   8   8   8
#     4  11  29  51  79 109 159 202 262 336 412 477
#     4  11  26  45  75 113 159 205 263 320 391 467
#     4  11  25  45  77 113 157 203 261 315 389 467
#     4  10  21  47  71 114 161 211 257 322 385 466
#     4  11  27  46  77 113 152 204 263 328 396 478
#
# _framework density 25.068251
#
# number of rings (size 3 to 8) (size 9 to 14) (size 15 to 20)
#    0.000    1.200    2.000    1.200   11.200    1.600 
#    0.000    4.000    0.000    0.000    0.000    0.000 
#    0.000    0.000    0.000    0.000    0.000    0.000 
#
# Total GULP energy -111605.054794 kJ/mol
# GULP energy per Si atom -5580.252740 kJ/mol
# Density = 2.501119 g / cm^3
# Si number density = 25.068251 Si / 1000 Ang^3
#
#
#
# Elastic Constant Matrix: (Units=GPa)
#
#
# Indices 1 2 3 4 5 6 
#
# 1 109.6476 44.6232 54.4811 0.0000 -36.9034 0.0000
# 2 44.6232 218.2100 63.3359 0.0000 -11.3928 0.0000
# 3 54.4811 63.3359 176.4312 0.0000 -27.4535 0.0000
# 4 0.0000 0.0000 0.0000 -7.0335 0.0000 3.3646
# 5 -36.9034 -11.3928 -27.4535 0.0000 48.8523 0.0000
# 6 0.0000 0.0000 0.0000 3.3646 0.0000 16.6714
#
#
#
# Elastic Compliance Matrix: (Units=1/GPa)
#
#
# Indices 1 2 3 4 5 6 
#
# 1 0.013941 -0.001718 -0.002314 0.000000 0.008830 0.000000
# 2 -0.001718 0.005329 -0.001524 0.000000 -0.000912 0.000000
# 3 -0.002314 -0.001524 0.007235 0.000000 0.001962 0.000000
# 4 0.000000 0.000000 0.000000 -0.129658 0.000000 0.026168
# 5 0.008830 -0.000912 0.001962 0.000000 0.028030 0.000000
# 6 0.000000 0.000000 0.000000 0.026168 0.000000 0.054702
#
#
# Mechanical properties :
#
#
# Convention : Reuss Voigt Hill
#
# Bulk Modulus (GPa) = 64.96968 92.12991 78.54979
# Shear Modulus (GPa) = -1196.95131 34.48795 -581.23168
#
# Velocity S-wave (km/s) = -21.87495 3.71315 -15.24346
# Velocity P-wave (km/s) = 24.73954 7.43066 16.68577
#
# Compressibility (1/GPa) = 0.01539180
#
# Stress axis : x y z
#
# Youngs Moduli (GPa) = 71.73042 187.65472 138.21566
#
# Poissons Ratio (x) = 0.32243 0.31985
# Poissons Ratio (y) = 0.12325 0.21068
# Poissons Ratio (z) = 0.16599 0.28604
#
# Static dielectric constant tensor:
#      x y z
#    x 1.977670 0.000000 0.238640 
#    y 0.000000 2.000850 0.000000 
#    z 0.238640 0.000000 2.523580 
# 
# From -- ./inp_files/73079.got.cif
#   From: 2010.05.17/outbox.cif.g08.bks.cpg/sg15_37_cif.got.tgz:73079.got - 2010.06.03 18:47:42.
