data_PCOD9287672
_publ_section_title
;
Structure prediction by ZEFSAII (Michael W. Deem and Ramdas Pophale) SiO2 
 PCOD9287672
Probable space group: C 2/C
;
_chemical_formula_sum "Si O2"
_cell_formula_units_Z 40
_cell_length_a 12.562352
_cell_length_b 20.159986
_cell_length_c 10.302348
_cell_angle_alpha 90.000000
_cell_angle_beta 42.872592
_cell_angle_gamma 90.000000
_cell_volume 1775.181623
_symmetry_space_group_name_H-M "C 2/C"
_symmetry_group_IT_number 15
_symmetry_cell_setting 'monoclinic'
loop_
_space_group_symop_operation_xyz
x,y,z
-x,y,1/2-z
-x,-y,-z
x,-y,1/2+z
1/2+x,1/2+y,z
1/2-x,1/2+y,1/2-z
1/2-x,1/2-y,-z
1/2+x,1/2-y,1/2+z
loop_
_atom_site_type_symbol
_atom_site_label
_atom_site_fract_x
_atom_site_fract_y
_atom_site_fract_z
Si Si1 0.825495 0.026142 0.655842
Si Si2 0.096386 0.734598 0.947336
Si Si3 0.376648 0.344743 0.260586
Si Si4 0.327554 0.045660 0.967305
Si Si5 0.305496 0.195369 0.055143
O O1 0.838613 0.103742 0.680418
O O2 0.769188 0.013280 0.561560
O O3 0.000000 0.000000 0.500000
O O4 0.710537 0.992802 0.865245
O O5 0.203727 0.686568 0.940233
O O6 0.207271 0.784769 0.769529
O O7 0.979431 0.781819 0.127548
O O8 0.987317 0.698262 0.937540
O O9 0.500000 0.378571 0.250000
O O10 0.500000 0.046094 0.750000
O O11 0.274350 0.121405 0.036096
O O12 0.250000 0.250000 0.000000
#
# Coordination Sequence:
#
# PCOD9287672 Si02
#       5
#     8   8   8   8   8
#     4  12  26  44  67  96 131 176 222 271 329 400
#     4  10  22  37  62  94 125 163 213 273 329 386
#     4  11  22  41  62  90 127 169 216 266 329 395
#     4  12  25  44  67  97 134 175 221 272 330 396
#     4  11  21  38  64  95 126 163 213 274 329 383
#
# _framework density 22.532905
#
# number of rings (size 3 to 8) (size 9 to 14) (size 15 to 20)
#    0.000    0.800    0.000    9.600    0.000    1.600 
#    0.000    3.000    0.000    0.000    0.000    0.000 
#    0.000    0.000    0.000    0.000    0.000    0.000 
#
# Total GULP energy -111631.916182 kJ/mol
# GULP energy per Si atom -5581.595809 kJ/mol
# Density = 2.248162 g / cm^3
# Si number density = 22.532905 Si / 1000 Ang^3
#
#
#
# Elastic Constant Matrix: (Units=GPa)
#
#
# Indices 1 2 3 4 5 6 
#
# 1 86.2040 14.3216 15.8132 0.0000 -0.2989 0.0000
# 2 14.3216 63.8926 15.9393 0.0000 2.3431 0.0000
# 3 15.8132 15.9393 67.9115 0.0000 0.9124 0.0000
# 4 0.0000 0.0000 0.0000 37.4366 0.0000 0.3205
# 5 -0.2989 2.3431 0.9124 0.0000 30.8310 0.0000
# 6 0.0000 0.0000 0.0000 0.3205 0.0000 29.1981
#
#
#
# Elastic Compliance Matrix: (Units=1/GPa)
#
#
# Indices 1 2 3 4 5 6 
#
# 1 0.012403 -0.002200 -0.002376 0.000000 0.000358 0.000000
# 2 -0.002200 0.017056 -0.003474 0.000000 -0.001215 0.000000
# 3 -0.002376 -0.003474 0.016097 0.000000 -0.000235 0.000000
# 4 0.000000 0.000000 0.000000 0.026714 0.000000 -0.000293
# 5 0.000358 -0.001215 -0.000235 0.000000 0.032538 0.000000
# 6 0.000000 0.000000 0.000000 -0.000293 0.000000 0.034252
#
#
# Mechanical properties :
#
#
# Convention : Reuss Voigt Hill
#
# Bulk Modulus (GPa) = 33.95196 34.46182 34.20689
# Shear Modulus (GPa) = 30.30665 30.95542 30.63104
#
# Velocity S-wave (km/s) = 3.67140 3.71048 3.69099
# Velocity P-wave (km/s) = 5.75088 5.80380 5.77740
#
# Compressibility (1/GPa) = 0.02945338
#
# Stress axis : x y z
#
# Youngs Moduli (GPa) = 80.62474 58.63102 62.12330
#
# Poissons Ratio (x) = 0.12901 0.14763
# Poissons Ratio (y) = 0.17741 0.21584
# Poissons Ratio (z) = 0.19160 0.20371
#
# Static dielectric constant tensor:
#      x y z
#    x 2.008780 0.000000 -0.078540 
#    y 0.000000 1.821130 0.000000 
#    z -0.078540 0.000000 1.907740 
# 
# From -- ./inp_files/89313.got.cif
#   From: 2010.05.17/outbox.cif.g08.bks.cpg/sg15_45_cif.got.tgz:89313.got - 2010.06.03 18:47:42.
