data_PCOD9287439
_publ_section_title
;
Structure prediction by ZEFSAII (Michael W. Deem and Ramdas Pophale) SiO2 
 PCOD9287439
Probable space group: C 2/C
;
_chemical_formula_sum "Si O2"
_cell_formula_units_Z 56
_cell_length_a 14.556421
_cell_length_b 16.689454
_cell_length_c 12.147999
_cell_angle_alpha 90.000000
_cell_angle_beta 125.096632
_cell_angle_gamma 90.000000
_cell_volume 2414.638994
_symmetry_space_group_name_H-M "C 2/C"
_symmetry_group_IT_number 15
_symmetry_cell_setting 'monoclinic'
loop_
_space_group_symop_operation_xyz
x,y,z
-x,y,1/2-z
-x,-y,-z
x,-y,1/2+z
1/2+x,1/2+y,z
1/2-x,1/2+y,1/2-z
1/2-x,1/2-y,-z
1/2+x,1/2-y,1/2+z
loop_
_atom_site_type_symbol
_atom_site_label
_atom_site_fract_x
_atom_site_fract_y
_atom_site_fract_z
Si Si1 0.854495 0.069596 0.821488
Si Si2 0.679777 0.312707 0.601108
Si Si3 0.313926 0.987552 0.448038
Si Si4 0.898281 0.671603 0.096834
Si Si5 0.405353 0.529168 0.552674
Si Si6 0.205323 0.227722 0.632114
Si Si7 0.390178 0.844166 0.097655
O O1 0.738035 0.025278 0.709420
O O2 0.837187 0.164915 0.804959
O O3 0.887159 0.049891 0.968732
O O4 0.963460 0.039270 0.830372
O O5 0.788769 0.320817 0.598301
O O6 0.609049 0.240383 0.499698
O O7 0.615825 0.395528 0.543224
O O8 0.720055 0.292450 0.751020
O O9 0.395916 0.914769 0.535927
O O10 0.198615 0.971045 0.436051
O O11 0.365640 0.071842 0.519017
O O12 0.000000 0.680602 0.250000
O O13 0.286664 0.178718 0.606549
O O14 0.112888 0.273993 0.496496
O O15 0.500000 0.847567 0.250000
#
# Coordination Sequence:
#
# PCOD9287439 Si02
#       7
#     8   8   8   8   8   8   8
#     4  11  22  41  65  96 129 171 214 269 321 390
#     4  10  22  39  61  91 130 163 214 266 316 389
#     4  11  21  44  63  96 132 167 216 271 317 391
#     4  10  22  36  61  93 126 166 207 265 323 379
#     4  10  23  38  64  97 128 167 215 265 329 378
#     4  11  24  45  64  97 128 172 223 268 321 403
#     4  11  26  45  69  93 132 174 218 272 331 387
#
# _framework density 23.191872
#
# number of rings (size 3 to 8) (size 9 to 14) (size 15 to 20)
#    0.000    1.429    2.857    1.714    4.000    0.000 
#    2.571    0.714    0.000    0.000    0.000    0.000 
#    0.000    0.000    0.000    0.000    0.000    0.000 
#
# Total GULP energy -156458.440340 kJ/mol
# GULP energy per Si atom -5587.801441 kJ/mol
# Density = 2.313909 g / cm^3
# Si number density = 23.191872 Si / 1000 Ang^3
#
#
#
# Elastic Constant Matrix: (Units=GPa)
#
#
# Indices 1 2 3 4 5 6 
#
# 1 38.6052 5.3620 11.9371 0.0000 13.1842 0.0000
# 2 5.3620 107.9027 45.2978 0.0000 28.4914 0.0000
# 3 11.9371 45.2978 134.7441 0.0000 43.5281 0.0000
# 4 0.0000 0.0000 0.0000 1.5571 0.0000 38.6283
# 5 13.1842 28.4914 43.5281 0.0000 34.6962 0.0000
# 6 0.0000 0.0000 0.0000 38.6283 0.0000 -24.9262
#
#
#
# Elastic Compliance Matrix: (Units=1/GPa)
#
#
# Indices 1 2 3 4 5 6 
#
# 1 0.030265 0.001785 0.001526 0.000000 -0.014880 0.000000
# 2 0.001785 0.012100 -0.001340 0.000000 -0.008933 0.000000
# 3 0.001526 -0.001340 0.012726 0.000000 -0.015445 0.000000
# 4 0.000000 0.000000 0.000000 0.016281 0.000000 0.025231
# 5 -0.014880 -0.008933 -0.015445 0.000000 0.061188 0.000000
# 6 0.000000 0.000000 0.000000 0.025231 0.000000 -0.001017
#
#
# Mechanical properties :
#
#
# Convention : Reuss Voigt Hill
#
# Bulk Modulus (GPa) = 16.93993 45.16067 31.05030
# Shear Modulus (GPa) = 33.94865 16.84244 25.39554
#
# Velocity S-wave (km/s) = 3.83014 2.69777 3.31270
# Velocity P-wave (km/s) = 5.18460 5.40545 5.29617
#
# Compressibility (1/GPa) = 0.05903212
#
# Stress axis : x y z
#
# Youngs Moduli (GPa) = 33.04112 82.64258 78.57803
#
# Poissons Ratio (x) = -0.14748 -0.11989
# Poissons Ratio (y) = -0.05896 0.10530
# Poissons Ratio (z) = -0.05041 0.11075
#
# Static dielectric constant tensor:
#      x y z
#    x 1.896820 0.000000 -0.026340 
#    y 0.000000 1.857980 0.000000 
#    z -0.026340 0.000000 1.898660 
# 
# From -- ./inp_files/106748.got.cif
#   From: 2010.05.17/outbox.cif.g08.bks.cpg/sg15_54_cif.got.tgz:106748.got - 2010.06.03 18:47:42.
