data_PCOD9287032
_publ_section_title
;
Structure prediction by ZEFSAII (Michael W. Deem and Ramdas Pophale) SiO2 
 PCOD9287032
Probable space group: C 2/C
;
_chemical_formula_sum "Si O2"
_cell_formula_units_Z 56
_cell_length_a 6.985402
_cell_length_b 12.314256
_cell_length_c 28.328744
_cell_angle_alpha 90.000000
_cell_angle_beta 56.439507
_cell_angle_gamma 90.000000
_cell_volume 2030.624631
_symmetry_space_group_name_H-M "C 2/C"
_symmetry_group_IT_number 15
_symmetry_cell_setting 'monoclinic'
loop_
_space_group_symop_operation_xyz
x,y,z
-x,y,1/2-z
-x,-y,-z
x,-y,1/2+z
1/2+x,1/2+y,z
1/2-x,1/2+y,1/2-z
1/2-x,1/2-y,-z
1/2+x,1/2-y,1/2+z
loop_
_atom_site_type_symbol
_atom_site_label
_atom_site_fract_x
_atom_site_fract_y
_atom_site_fract_z
Si Si1 0.569201 0.099129 0.935367
Si Si2 0.018860 0.032054 0.925373
Si Si3 0.770432 0.069562 0.704866
Si Si4 0.027329 0.844075 0.799997
Si Si5 0.039685 0.813777 0.982011
Si Si6 0.874536 0.749925 0.326795
Si Si7 0.014779 0.625555 0.394253
O O1 0.445639 0.193816 0.982533
O O2 0.755967 0.046865 0.944792
O O3 0.699957 0.175025 0.880166
O O4 0.477919 0.996024 0.918599
O O5 0.170845 0.058660 0.858877
O O6 0.030975 0.909136 0.943035
O O7 0.063582 0.121497 0.959736
O O8 0.500000 0.068651 0.750000
O O9 0.907532 0.171970 0.706146
O O10 0.892384 0.968107 0.712693
O O11 0.227656 0.790056 0.803176
O O12 0.000000 0.805968 0.750000
O O13 0.782019 0.840826 0.860773
O O14 0.320956 0.803886 0.947341
O O15 0.960219 0.648221 0.346570
#
# Coordination Sequence:
#
# PCOD9287032 Si02
#       7
#     8   8   8   8   8   8   8
#     4  10  21  45  74 109 153 201 260 318 400 474
#     4  10  21  46  78 112 162 212 266 344 396 477
#     4  11  25  53  83 112 161 217 271 332 402 486
#     4  12  28  52  79 113 161 207 270 339 400 480
#     4  10  23  43  77 116 163 209 266 333 409 480
#     4  10  25  53  75 112 158 206 262 328 401 483
#     4  11  24  47  78 114 156 208 259 329 396 492
#
# _framework density 27.577722999999999
#
# number of rings (size 3 to 8) (size 9 to 14) (size 15 to 20)
#    0.000    1.429    2.857    2.143    4.000    1.143 
#   15.429    2.857    0.000    2.571    0.000    0.000 
#    0.000    0.000    0.000    0.000    0.000    0.000 
#
# Total GULP energy -156988.369659 kJ/mol
# GULP energy per Si atom -5606.727488 kJ/mol
# Density = 2.751496 g / cm^3
# Si number density = 27.577723 Si / 1000 Ang^3
#
#
#
# Elastic Constant Matrix: (Units=GPa)
#
#
# Indices 1 2 3 4 5 6 
#
# 1 158.4435 89.6161 81.5218 0.0000 3.0470 -0.0001
# 2 89.6161 198.9262 47.7042 0.0000 19.7105 0.0000
# 3 81.5218 47.7042 135.5138 0.0000 -0.4476 0.0001
# 4 0.0000 0.0000 0.0000 2.6372 0.0000 -16.6003
# 5 3.0470 19.7105 -0.4476 0.0000 57.2416 0.0000
# 6 -0.0001 0.0000 0.0001 -16.6003 0.0000 53.4049
#
#
#
# Elastic Compliance Matrix: (Units=1/GPa)
#
#
# Indices 1 2 3 4 5 6 
#
# 1 0.011258 -0.003840 -0.005419 0.000000 0.000681 0.000000
# 2 -0.003840 0.007016 -0.000167 0.000000 -0.002213 0.000000
# 3 -0.005419 -0.000167 0.010699 0.000000 0.000430 0.000000
# 4 0.000000 0.000000 0.000000 -0.396388 0.000000 -0.123213
# 5 0.000681 -0.002213 0.000430 0.000000 0.018199 0.000000
# 6 0.000000 0.000000 0.000000 -0.123213 0.000000 -0.019574
#
#
# Mechanical properties :
#
#
# Convention : Reuss Voigt Hill
#
# Bulk Modulus (GPa) = 98.79225 103.39640 101.09432
# Shear Modulus (GPa) = -14.42732 40.92617 13.24942
#
# Velocity S-wave (km/s) = -2.28973 3.85649 2.19427
# Velocity P-wave (km/s) = 5.37685 7.57655 6.56942
#
# Compressibility (1/GPa) = 0.01012225
#
# Stress axis : x y z
#
# Youngs Moduli (GPa) = 88.82521 142.52799 93.46361
#
# Poissons Ratio (x) = 0.54727 0.50645
# Poissons Ratio (y) = 0.34107 0.01563
# Poissons Ratio (z) = 0.48131 0.02384
#
# Static dielectric constant tensor:
#      x y z
#    x 2.274480 0.000000 0.037070 
#    y 0.000000 2.099530 0.000000 
#    z 0.037070 0.000000 2.205270 
# 
# From -- ./inp_files/307412.got.cif
#   From: 2010.05.17/outbox.cif.g08.bks.cpg/sg15_154_cif.got.tgz:307412.got - 2010.06.03 18:47:42.
