data_PCOD9287978
_publ_section_title
;
Structure prediction by ZEFSAII (Michael W. Deem and Ramdas Pophale) SiO2 
 PCOD9287978
Probable space group: C 2/C
;
_chemical_formula_sum "Si O2"
_cell_formula_units_Z 60
_cell_length_a 12.532813
_cell_length_b 25.488645
_cell_length_c 9.736394
_cell_angle_alpha 90.000000
_cell_angle_beta 91.721852
_cell_angle_gamma 90.000000
_cell_volume 3108.832392
_symmetry_space_group_name_H-M "C 2/C"
_symmetry_group_IT_number 15
_symmetry_cell_setting 'monoclinic'
loop_
_space_group_symop_operation_xyz
x,y,z
-x,y,1/2-z
-x,-y,-z
x,-y,1/2+z
1/2+x,1/2+y,z
1/2-x,1/2+y,1/2-z
1/2-x,1/2-y,-z
1/2+x,1/2-y,1/2+z
loop_
_atom_site_type_symbol
_atom_site_label
_atom_site_fract_x
_atom_site_fract_y
_atom_site_fract_z
Si Si1 0.917245 0.004151 0.370692
Si Si2 0.136738 0.102950 0.559099
Si Si3 0.738542 0.174534 0.729017
Si Si4 0.179494 0.292871 0.773183
Si Si5 0.000000 0.311615 0.250000
Si Si6 0.840708 0.114369 0.267341
Si Si7 0.996017 0.731954 0.455679
Si Si8 0.427493 0.653085 0.536116
O O1 0.838152 0.954879 0.384335
O O2 0.000000 0.001622 0.250000
O O3 0.850697 0.057810 0.343106
O O4 0.000000 0.000000 0.500000
O O5 0.207450 0.147621 0.634813
O O6 0.140386 0.105931 0.393768
O O7 0.011945 0.111014 0.591173
O O8 0.751605 0.238535 0.725854
O O9 0.613256 0.160258 0.722965
O O10 0.813444 0.153673 0.606995
O O11 0.238835 0.347821 0.768053
O O12 0.106600 0.292673 0.906494
O O13 0.099939 0.287909 0.641375
O O14 0.023050 0.278296 0.386831
O O15 0.917354 0.147743 0.371760
O O16 0.014626 0.792740 0.427800
#
# Coordination Sequence:
#
# PCOD9287978 Si02
#       8
#     8   8   8   8   4   8   8   8
#     4  12  23  43  61  94 127 164 209 265 321 378
#     4  12  24  39  67  94 126 168 212 257 321 374
#     4  11  24  40  61  91 128 173 209 259 312 377
#     4  10  22  42  60  89 128 170 214 249 320 376
#     4  12  24  36  54  88 124 164 210 258 300 358
#     4  12  24  37  62  95 131 168 205 254 316 390
#     4  10  22  38  61  86 128 168 210 259 301 376
#     4  11  21  38  61  91 124 168 209 251 319 370
#
# _framework density 19.299848999999998
#
# number of rings (size 3 to 8) (size 9 to 14) (size 15 to 20)
#    0.000    0.800    4.000    4.000    3.733    3.200 
#    1.200    0.000    0.000    1.600    0.000    7.467 
#    0.000    0.000    0.000    0.000    0.000    0.000 
#
# Total GULP energy -167290.839496 kJ/mol
# GULP energy per Si atom -5576.361317 kJ/mol
# Density = 1.925592 g / cm^3
# Si number density = 19.299849 Si / 1000 Ang^3
#
#
#
# Elastic Constant Matrix: (Units=GPa)
#
#
# Indices 1 2 3 4 5 6 
#
# 1 99.5783 50.5416 21.5263 0.0000 2.9488 0.0000
# 2 50.5416 114.2420 38.8577 0.0000 -10.5734 0.0000
# 3 21.5263 38.8577 116.6973 0.0000 -0.6428 0.0000
# 4 0.0000 0.0000 0.0000 27.9662 0.0000 6.7596
# 5 2.9488 -10.5734 -0.6428 0.0000 20.7040 0.0000
# 6 0.0000 0.0000 0.0000 6.7596 0.0000 28.5836
#
#
#
# Elastic Compliance Matrix: (Units=1/GPa)
#
#
# Indices 1 2 3 4 5 6 
#
# 1 0.013482 -0.006299 -0.000418 0.000000 -0.005150 0.000000
# 2 -0.006299 0.013347 -0.003240 0.000000 0.007613 0.000000
# 3 -0.000418 -0.003240 0.009718 0.000000 -0.001294 0.000000
# 4 0.000000 0.000000 0.000000 0.037925 0.000000 -0.008969
# 5 -0.005150 0.007613 -0.001294 0.000000 0.052881 0.000000
# 6 0.000000 0.000000 0.000000 -0.008969 0.000000 0.037106
#
#
# Mechanical properties :
#
#
# Convention : Reuss Voigt Hill
#
# Bulk Modulus (GPa) = 60.12312 61.37433 60.74873
# Shear Modulus (GPa) = 26.32702 30.09022 28.20862
#
# Velocity S-wave (km/s) = 3.69739 3.95282 3.82723
# Velocity P-wave (km/s) = 7.03188 7.25965 7.14667
#
# Compressibility (1/GPa) = 0.01663254
#
# Stress axis : x y z
#
# Youngs Moduli (GPa) = 74.17058 74.92360 102.90089
#
# Poissons Ratio (x) = 0.47196 0.04300
# Poissons Ratio (y) = 0.46722 0.33343
# Poissons Ratio (z) = 0.03099 0.24278
#
# Static dielectric constant tensor:
#      x y z
#    x 1.702790 0.000000 0.000620 
#    y 0.000000 1.723160 0.000000 
#    z 0.000620 0.000000 1.675470 
# 
# From -- ./inp_files/34272.got.cif
#   From: 2010.05.17/outbox.cif.g08.bks.cpg/sg15_18_cif.got.tgz:34272.got - 2010.06.03 18:47:42.
