data_PCOD9287528
_publ_section_title
;
Structure prediction by ZEFSAII (Michael W. Deem and Ramdas Pophale) SiO2 
 PCOD9287528
Probable space group: C 2/C
;
_chemical_formula_sum "Si O2"
_cell_formula_units_Z 44
_cell_length_a 9.241544
_cell_length_b 21.163332
_cell_length_c 10.683750
_cell_angle_alpha 90.000000
_cell_angle_beta 101.555551
_cell_angle_gamma 90.000000
_cell_volume 2047.194585
_symmetry_space_group_name_H-M "C 2/C"
_symmetry_group_IT_number 15
_symmetry_cell_setting 'monoclinic'
loop_
_space_group_symop_operation_xyz
x,y,z
-x,y,1/2-z
-x,-y,-z
x,-y,1/2+z
1/2+x,1/2+y,z
1/2-x,1/2+y,1/2-z
1/2-x,1/2-y,-z
1/2+x,1/2-y,1/2+z
loop_
_atom_site_type_symbol
_atom_site_label
_atom_site_fract_x
_atom_site_fract_y
_atom_site_fract_z
Si Si1 0.981943 0.789398 0.501758
Si Si2 0.940812 0.345704 0.411692
Si Si3 0.599523 0.496016 0.643396
Si Si4 0.771700 0.375598 0.138381
Si Si5 0.739093 0.867071 0.864715
Si Si6 0.000000 0.721228 0.250000
O O1 0.980761 0.722762 0.571565
O O2 0.107019 0.831818 0.585322
O O3 0.834320 0.829480 0.458426
O O4 0.030512 0.766489 0.371775
O O5 0.827293 0.345199 0.277574
O O6 0.855470 0.362184 0.523458
O O7 0.077728 0.391911 0.409006
O O8 0.500000 0.488404 0.750000
O O9 0.500000 0.500000 0.500000
O O10 0.683129 0.562321 0.660306
O O11 0.716079 0.438268 0.659194
O O12 0.639337 0.825549 0.752635
#
# Coordination Sequence:
#
# PCOD9287528 Si02
#       6
#     8   8   8   8   8   4
#     4  11  20  40  67  97 135 173 221 273 336 410
#     4  10  23  40  65 102 133 171 219 276 349 391
#     4  12  27  47  71  99 133 182 233 279 331 405
#     4  11  23  41  67  96 136 178 220 277 334 404
#     4  11  23  43  66  97 134 176 225 276 332 401
#     4  10  22  36  68  98 132 170 218 284 344 388
#
# _framework density 21.492826999999998
#
# number of rings (size 3 to 8) (size 9 to 14) (size 15 to 20)
#    0.000    1.091    1.818    6.000    1.273    5.091 
#    6.545    0.000    0.000    0.000    0.000    0.000 
#    0.000    0.000    0.000    0.000    0.000    0.000 
#
# Total GULP energy -122980.283293 kJ/mol
# GULP energy per Si atom -5590.012877 kJ/mol
# Density = 2.144391 g / cm^3
# Si number density = 21.492827 Si / 1000 Ang^3
#
#
#
# Elastic Constant Matrix: (Units=GPa)
#
#
# Indices 1 2 3 4 5 6 
#
# 1 113.9908 36.6761 23.3351 0.0000 11.4967 0.0000
# 2 36.6761 100.4934 21.3960 0.0000 18.2929 0.0000
# 3 23.3351 21.3960 60.8304 0.0000 14.4212 0.0000
# 4 0.0000 0.0000 0.0000 11.1017 0.0000 -9.1066
# 5 11.4967 18.2929 14.4212 0.0000 44.4318 0.0000
# 6 0.0000 0.0000 0.0000 -9.1066 0.0000 16.4523
#
#
#
# Elastic Compliance Matrix: (Units=1/GPa)
#
#
# Indices 1 2 3 4 5 6 
#
# 1 0.010392 -0.003110 -0.002772 0.000000 -0.000509 0.000000
# 2 -0.003110 0.012204 -0.002274 0.000000 -0.003482 0.000000
# 3 -0.002772 -0.002274 0.019403 0.000000 -0.004644 0.000000
# 4 0.000000 0.000000 0.000000 0.164988 0.000000 0.091324
# 5 -0.000509 -0.003482 -0.004644 0.000000 0.025579 0.000000
# 6 0.000000 0.000000 0.000000 0.091324 0.000000 0.111331
#
#
# Mechanical properties :
#
#
# Convention : Reuss Voigt Hill
#
# Bulk Modulus (GPa) = 38.92974 48.68100 43.80537
# Shear Modulus (GPa) = 13.55852 27.32432 20.44142
#
# Velocity S-wave (km/s) = 2.51438 3.56943 3.08731
# Velocity P-wave (km/s) = 5.15574 6.29975 5.75624
#
# Compressibility (1/GPa) = 0.02568730
#
# Stress axis : x y z
#
# Youngs Moduli (GPa) = 96.22798 81.94159 51.53737
#
# Poissons Ratio (x) = 0.25483 0.14286
# Poissons Ratio (y) = 0.29925 0.11720
# Poissons Ratio (z) = 0.26674 0.18635
#
# Static dielectric constant tensor:
#      x y z
#    x 1.761380 0.000000 -0.014140 
#    y 0.000000 1.767880 0.000000 
#    z -0.014140 0.000000 1.811210 
# 
# From -- ./inp_files/78361.got.cif
#   From: 2010.05.17/outbox.cif.g08.bks.cpg/sg15_40_cif.got.tgz:78361.got - 2010.06.03 18:47:42.
