data_PCOD9287935
_publ_section_title
;
Structure prediction by ZEFSAII (Michael W. Deem and Ramdas Pophale) SiO2 
 PCOD9287935
Probable space group: C 2/C
;
_chemical_formula_sum "Si O2"
_cell_formula_units_Z 44
_cell_length_a 10.236924
_cell_length_b 12.721779
_cell_length_c 14.632218
_cell_angle_alpha 90.000000
_cell_angle_beta 113.858033
_cell_angle_gamma 90.000000
_cell_volume 1742.750282
_symmetry_space_group_name_H-M "C 2/C"
_symmetry_group_IT_number 15
_symmetry_cell_setting 'monoclinic'
loop_
_space_group_symop_operation_xyz
x,y,z
-x,y,1/2-z
-x,-y,-z
x,-y,1/2+z
1/2+x,1/2+y,z
1/2-x,1/2+y,1/2-z
1/2-x,1/2-y,-z
1/2+x,1/2-y,1/2+z
loop_
_atom_site_type_symbol
_atom_site_label
_atom_site_fract_x
_atom_site_fract_y
_atom_site_fract_z
Si Si1 0.562370 0.849888 0.672863
Si Si2 0.500000 0.218485 0.750000
Si Si3 0.148278 0.899915 0.688918
Si Si4 0.747863 0.857373 0.444337
Si Si5 0.484390 0.378798 0.372688
Si Si6 0.719966 0.086902 0.478137
O O1 0.500000 0.894495 0.750000
O O2 0.716519 0.899214 0.703906
O O3 0.581631 0.724892 0.690958
O O4 0.438378 0.865906 0.563562
O O5 0.558145 0.297386 0.688494
O O6 0.369363 0.153197 0.670016
O O7 0.215656 0.895419 0.606281
O O8 0.062092 0.007512 0.675406
O O9 0.750000 0.750000 0.500000
O O10 0.906494 0.875619 0.449392
O O11 0.709480 0.962033 0.487838
O O12 0.654987 0.368875 0.423148
#
# Coordination Sequence:
#
# PCOD9287935 Si02
#       6
#     8   4   8   8   8   8
#     4  10  22  39  61  90 121 161 205 249 309 376
#     4  12  22  38  64  88 128 160 218 262 306 366
#     4  10  22  38  60  89 119 162 204 252 304 371
#     4  11  23  39  64  95 123 166 210 256 311 374
#     4  11  21  41  62  89 122 163 203 258 317 365
#     4  10  22  40  64  85 127 160 202 255 321 370
#
# _framework density 25.247451000000002
#
# number of rings (size 3 to 8) (size 9 to 14) (size 15 to 20)
#    0.000    1.455    1.818    4.909    7.636    0.000 
#    0.000    0.909    0.000    0.000    0.000    0.000 
#    0.000    0.000    0.000    0.000    0.000    0.000 
#
# Total GULP energy -123122.030872 kJ/mol
# GULP energy per Si atom -5596.455949 kJ/mol
# Density = 2.518999 g / cm^3
# Si number density = 25.247451 Si / 1000 Ang^3
#
#
#
# Elastic Constant Matrix: (Units=GPa)
#
#
# Indices 1 2 3 4 5 6 
#
# 1 65.2787 0.6336 31.2700 0.0000 35.1695 0.0000
# 2 0.6336 86.7661 21.1982 0.0000 6.9469 0.0000
# 3 31.2700 21.1982 86.3567 0.0000 35.1114 0.0000
# 4 0.0000 0.0000 0.0000 39.6350 0.0000 4.8204
# 5 35.1695 6.9469 35.1114 0.0000 55.6459 0.0000
# 6 0.0000 0.0000 0.0000 4.8204 0.0000 23.2777
#
#
#
# Elastic Compliance Matrix: (Units=1/GPa)
#
#
# Indices 1 2 3 4 5 6 
#
# 1 0.024210 0.001822 -0.003901 0.000000 -0.013067 0.000000
# 2 0.001822 0.012408 -0.003507 0.000000 -0.000488 0.000000
# 3 -0.003901 -0.003507 0.017046 0.000000 -0.007852 0.000000
# 4 0.000000 0.000000 0.000000 0.025882 0.000000 -0.005360
# 5 -0.013067 -0.000488 -0.007852 0.000000 0.031245 0.000000
# 6 0.000000 0.000000 0.000000 -0.005360 0.000000 0.044070
#
#
# Mechanical properties :
#
#
# Convention : Reuss Voigt Hill
#
# Bulk Modulus (GPa) = 23.53360 38.28946 30.91153
# Shear Modulus (GPa) = 27.74749 36.06505 31.90627
#
# Velocity S-wave (km/s) = 3.31875 3.78360 3.55877
# Velocity P-wave (km/s) = 4.90172 5.85543 5.39967
#
# Compressibility (1/GPa) = 0.04249243
#
# Stress axis : x y z
#
# Youngs Moduli (GPa) = 41.30518 80.59389 58.66473
#
# Poissons Ratio (x) = -0.14688 0.22884
# Poissons Ratio (y) = -0.07528 0.20576
# Poissons Ratio (z) = 0.16113 0.28268
#
# Static dielectric constant tensor:
#      x y z
#    x 1.989920 0.000000 -0.024080 
#    y 0.000000 1.913550 0.000000 
#    z -0.024080 0.000000 2.110060 
# 
# From -- ./inp_files/182376.got.cif
#   From: 2010.05.17/outbox.cif.g08.bks.cpg/sg15_92_cif.got.tgz:182376.got - 2010.06.03 18:47:42.
