data_PCOD9287398
_publ_section_title
;
Structure prediction by ZEFSAII (Michael W. Deem and Ramdas Pophale) SiO2 
 PCOD9287398
Probable space group: C 2/C
;
_chemical_formula_sum "Si O2"
_cell_formula_units_Z 60
_cell_length_a 5.989335
_cell_length_b 28.896365
_cell_length_c 20.780048
_cell_angle_alpha 90.000000
_cell_angle_beta 57.468316
_cell_angle_gamma 90.000000
_cell_volume 3032.106596
_symmetry_space_group_name_H-M "C 2/C"
_symmetry_group_IT_number 15
_symmetry_cell_setting 'monoclinic'
loop_
_space_group_symop_operation_xyz
x,y,z
-x,y,1/2-z
-x,-y,-z
x,-y,1/2+z
1/2+x,1/2+y,z
1/2-x,1/2+y,1/2-z
1/2-x,1/2-y,-z
1/2+x,1/2-y,1/2+z
loop_
_atom_site_type_symbol
_atom_site_label
_atom_site_fract_x
_atom_site_fract_y
_atom_site_fract_z
Si Si1 0.811913 0.567177 0.692419
Si Si2 0.224891 0.816263 0.054770
Si Si3 0.492349 0.436598 0.827735
Si Si4 0.543021 0.271511 0.948078
Si Si5 0.758576 0.474755 0.072350
Si Si6 0.364604 0.398023 0.088904
Si Si7 0.305150 0.360474 0.952690
Si Si8 0.000000 0.517006 0.250000
O O1 0.500000 0.580041 0.750000
O O2 0.859085 0.561379 0.609025
O O3 0.075224 0.597102 0.666208
O O4 0.864540 0.518607 0.721259
O O5 0.271221 0.772635 0.095252
O O6 0.018909 0.856729 0.101489
O O7 0.131188 0.792717 0.002770
O O8 0.507565 0.840799 0.000009
O O9 0.500000 0.428124 0.750000
O O10 0.358462 0.484908 0.865746
O O11 0.348202 0.397091 0.889925
O O12 0.783252 0.447746 0.810673
O O13 0.502987 0.316862 0.911099
O O14 0.250000 0.250000 0.000000
O O15 0.531289 0.446343 0.069287
O O16 0.000000 0.500000 0.000000
O O17 0.358969 0.382968 0.014673
#
# Coordination Sequence:
#
# PCOD9287398 Si02
#       8
#     8   8   8   8   8   8   8   4
#     4  12  22  40  55  77 115 165 214 253 298 360
#     4   9  17  35  58  92 131 147 189 250 314 381
#     4  12  24  40  56  82 125 166 215 251 299 371
#     4   8  16  33  59  89 131 151 181 241 318 379
#     4  12  24  37  56  83 121 166 199 262 307 361
#     4  11  22  35  58  89 122 161 205 257 314 369
#     4  10  22  36  59  94 128 156 203 256 317 375
#     4  12  22  40  60  72 116 168 212 246 300 356
#
# _framework density 19.788222999999999
#
# number of rings (size 3 to 8) (size 9 to 14) (size 15 to 20)
#    0.000    1.333    4.000    2.400    1.867    3.200 
#    0.000    0.000    0.000    0.000    0.000    0.000 
#  670.000    0.000    0.000    0.000    0.000    0.133 
#
# Total GULP energy -167014.944795 kJ/mol
# GULP energy per Si atom -5567.164826 kJ/mol
# Density = 1.974318 g / cm^3
# Si number density = 19.788223 Si / 1000 Ang^3
#
#
#
# Elastic Constant Matrix: (Units=GPa)
#
#
# Indices 1 2 3 4 5 6 
#
# 1 109.9997 59.3373 40.8130 0.0000 -14.5294 0.0000
# 2 59.3373 129.4989 35.9362 0.0000 -7.8217 0.0000
# 3 40.8130 35.9362 74.4799 0.0000 -7.9360 0.0000
# 4 0.0000 0.0000 0.0000 5.6394 0.0000 -1.4199
# 5 -14.5294 -7.8217 -7.9360 0.0000 32.1937 0.0000
# 6 0.0000 0.0000 0.0000 -1.4199 0.0000 40.1665
#
#
#
# Elastic Compliance Matrix: (Units=1/GPa)
#
#
# Indices 1 2 3 4 5 6 
#
# 1 0.014053 -0.004827 -0.004951 0.000000 0.003949 0.000000
# 2 -0.004827 0.010614 -0.002499 0.000000 -0.000216 0.000000
# 3 -0.004951 -0.002499 0.017502 0.000000 0.001473 0.000000
# 4 0.000000 0.000000 0.000000 0.178917 0.000000 0.006325
# 5 0.003949 -0.000216 0.001473 0.000000 0.033155 0.000000
# 6 0.000000 0.000000 0.000000 0.006325 0.000000 0.025120
#
#
# Mechanical properties :
#
#
# Convention : Reuss Voigt Hill
#
# Bulk Modulus (GPa) = 56.76860 65.12795 60.94828
# Shear Modulus (GPa) = 16.14005 27.45937 21.79971
#
# Velocity S-wave (km/s) = 2.85904 3.72917 3.32271
# Velocity P-wave (km/s) = 6.29676 7.17818 6.75187
#
# Compressibility (1/GPa) = 0.01761537
#
# Stress axis : x y z
#
# Youngs Moduli (GPa) = 71.15743 94.21224 57.13506
#
# Poissons Ratio (x) = 0.45475 0.28288
# Poissons Ratio (y) = 0.34347 0.14280
# Poissons Ratio (z) = 0.35231 0.23547
#
# Static dielectric constant tensor:
#      x y z
#    x 2.008830 0.000000 0.021770 
#    y 0.000000 1.758900 0.000000 
#    z 0.021770 0.000000 1.736940 
# 
# From -- ./inp_files/228610.got.cif
#   From: 2010.05.17/outbox.cif.g08.bks.cpg/sg15_115_cif.got.tgz:228610.got - 2010.06.03 18:47:42.
