data_PCOD9287107
_publ_section_title
;
Structure prediction by ZEFSAII (Michael W. Deem and Ramdas Pophale) SiO2 
 PCOD9287107
Probable space group: C 2/C
;
_chemical_formula_sum "Si O2"
_cell_formula_units_Z 44
_cell_length_a 10.188329
_cell_length_b 13.306649
_cell_length_c 14.169010
_cell_angle_alpha 90.000000
_cell_angle_beta 57.258846
_cell_angle_gamma 90.000000
_cell_volume 1615.736114
_symmetry_space_group_name_H-M "C 2/C"
_symmetry_group_IT_number 15
_symmetry_cell_setting 'monoclinic'
loop_
_space_group_symop_operation_xyz
x,y,z
-x,y,1/2-z
-x,-y,-z
x,-y,1/2+z
1/2+x,1/2+y,z
1/2-x,1/2+y,1/2-z
1/2-x,1/2-y,-z
1/2+x,1/2-y,1/2+z
loop_
_atom_site_type_symbol
_atom_site_label
_atom_site_fract_x
_atom_site_fract_y
_atom_site_fract_z
Si Si1 0.353335 0.116836 0.433340
Si Si2 0.500000 0.945100 0.250000
Si Si3 0.000000 0.218720 0.750000
Si Si4 0.750000 0.750000 0.000000
Si Si5 0.310161 0.901614 0.160181
Si Si6 0.961878 0.117925 0.033929
Si Si7 0.169320 0.886552 0.713794
O O1 0.452528 0.204030 0.349444
O O2 0.390050 0.114172 0.529170
O O3 0.391403 0.015920 0.358079
O O4 0.168339 0.137606 0.495444
O O5 0.414211 0.874311 0.208787
O O6 0.144993 0.152158 0.726006
O O7 0.784876 0.813000 0.888002
O O8 0.120878 0.822419 0.491297
O O9 0.286510 0.020957 0.176234
O O10 0.859149 0.145881 0.167477
O O11 0.000000 0.000000 0.000000
O O12 0.000000 0.929614 0.750000
#
# Coordination Sequence:
#
# PCOD9287107 Si02
#       7
#     8   4   4   4   8   8   8
#     4  11  25  50  81 120 172 227 289 364 459 541
#     4  11  26  50  84 125 166 220 307 364 440 561
#     4  11  28  50  82 121 172 222 291 362 458 553
#     4  10  24  46  86 134 178 232 314 382 458 566
#     4  12  24  52  86 119 168 235 290 367 460 543
#     4  11  24  49  84 129 182 235 300 379 463 547
#     4  10  21  46  81 122 171 226 296 366 450 552
#
# _framework density 27.23217
#
# number of rings (size 3 to 8) (size 9 to 14) (size 15 to 20)
#    0.000    1.091    2.727    3.273    0.000    1.455 
#    9.818    0.909   34.000    3.273    0.000    0.000 
#    0.000    0.000    0.000    0.000    0.000    0.000 
#
# Total GULP energy -122988.001573 kJ/mol
# GULP energy per Si atom -5590.363708 kJ/mol
# Density = 2.717019 g / cm^3
# Si number density = 27.232170 Si / 1000 Ang^3
#
#
#
# Elastic Constant Matrix: (Units=GPa)
#
#
# Indices 1 2 3 4 5 6 
#
# 1 174.4023 54.2360 79.0042 0.0000 32.7769 0.0000
# 2 54.2360 124.9520 82.4785 0.0000 -7.1010 0.0000
# 3 79.0042 82.4785 137.9050 0.0000 26.7308 0.0000
# 4 0.0000 0.0000 0.0000 31.6167 0.0000 8.9505
# 5 32.7769 -7.1010 26.7308 0.0000 50.1172 0.0000
# 6 0.0000 0.0000 0.0000 8.9505 0.0000 34.2204
#
#
#
# Elastic Compliance Matrix: (Units=1/GPa)
#
#
# Indices 1 2 3 4 5 6 
#
# 1 0.008449 -0.002115 -0.002728 0.000000 -0.004370 0.000000
# 2 -0.002115 0.016213 -0.010259 0.000000 0.009152 0.000000
# 3 -0.002728 -0.010259 0.016603 0.000000 -0.008524 0.000000
# 4 0.000000 0.000000 0.000000 0.034158 0.000000 -0.008934
# 5 -0.004370 0.009152 -0.008524 0.000000 0.028655 0.000000
# 6 0.000000 0.000000 0.000000 -0.008934 0.000000 0.031559
#
#
# Mechanical properties :
#
#
# Convention : Reuss Voigt Hill
#
# Bulk Modulus (GPa) = 90.41738 96.52185 93.46962
# Shear Modulus (GPa) = 29.49379 37.96025 33.72702
#
# Velocity S-wave (km/s) = 3.29454 3.73761 3.52305
# Velocity P-wave (km/s) = 6.90988 7.35849 7.13771
#
# Compressibility (1/GPa) = 0.01105982
#
# Stress axis : x y z
#
# Youngs Moduli (GPa) = 118.36136 61.67911 60.23108
#
# Poissons Ratio (x) = 0.13042 0.16434
# Poissons Ratio (y) = 0.25028 0.61793
# Poissons Ratio (z) = 0.32295 0.63278
#
# Static dielectric constant tensor:
#      x y z
#    x 2.199150 0.000000 0.025540 
#    y 0.000000 2.092280 0.000000 
#    z 0.025540 0.000000 2.153720 
# 
# From -- ./inp_files/153261.got.cif
#   From: 2010.05.17/outbox.cif.g08.bks.cpg/sg15_77_cif.got.tgz:153261.got - 2010.06.03 18:47:42.
