data_PCOD9287504
_publ_section_title
;
Structure prediction by ZEFSAII (Michael W. Deem and Ramdas Pophale) SiO2 
 PCOD9287504
Probable space group: C 2/C
;
_chemical_formula_sum "Si O2"
_cell_formula_units_Z 40
_cell_length_a 15.909266
_cell_length_b 11.216103
_cell_length_c 16.736695
_cell_angle_alpha 90.000000
_cell_angle_beta 146.540099
_cell_angle_gamma 90.000000
_cell_volume 1646.613875
_symmetry_space_group_name_H-M "C 2/C"
_symmetry_group_IT_number 15
_symmetry_cell_setting 'monoclinic'
loop_
_space_group_symop_operation_xyz
x,y,z
-x,y,1/2-z
-x,-y,-z
x,-y,1/2+z
1/2+x,1/2+y,z
1/2-x,1/2+y,1/2-z
1/2-x,1/2-y,-z
1/2+x,1/2-y,1/2+z
loop_
_atom_site_type_symbol
_atom_site_label
_atom_site_fract_x
_atom_site_fract_y
_atom_site_fract_z
Si Si1 0.846660 0.950720 0.742843
Si Si2 0.481033 0.302253 0.976650
Si Si3 0.500000 0.391307 0.250000
Si Si4 0.826256 0.311418 0.214448
Si Si5 0.669796 0.143795 0.519337
Si Si6 0.000000 0.502798 0.750000
O O1 0.880856 0.909303 0.859858
O O2 0.825490 0.824742 0.680280
O O3 0.709525 0.039975 0.616329
O O4 0.989694 0.020336 0.818104
O O5 0.449215 0.201795 0.883231
O O6 0.419329 0.250218 0.009622
O O7 0.658832 0.329330 0.118269
O O8 0.658690 0.322655 0.372519
O O9 0.875548 0.410282 0.191575
O O10 0.575169 0.078876 0.376659
#
# Coordination Sequence:
#
# PCOD9287504 Si02
#       6
#     8   8   4   8   8   4
#     4   8  19  35  65  93 132 162 214 275 330 388
#     4  10  22  42  63 100 138 172 220 277 342 387
#     4   8  17  38  66  99 130 166 221 278 336 381
#     4  10  22  36  65  98 131 176 208 280 333 398
#     4  10  22  41  69  99 135 175 220 281 328 405
#     4  12  23  36  70 103 138 166 225 272 344 387
#
# _framework density 24.292276000000001
#
# number of rings (size 3 to 8) (size 9 to 14) (size 15 to 20)
#    2.400    0.000    0.000    3.000    0.000    4.800 
#    0.000    3.000    0.000    3.600    0.000    0.000 
#    0.000    0.000    0.000    0.000    0.000    0.000 
#
# Total GULP energy -111694.829293 kJ/mol
# GULP energy per Si atom -5584.741465 kJ/mol
# Density = 2.423699 g / cm^3
# Si number density = 24.292276 Si / 1000 Ang^3
#
#
#
# Elastic Constant Matrix: (Units=GPa)
#
#
# Indices 1 2 3 4 5 6 
#
# 1 132.9038 82.8656 64.4216 0.0000 20.5090 0.0000
# 2 82.8656 139.2193 61.7617 0.0000 4.5667 0.0000
# 3 64.4216 61.7617 140.0491 0.0000 10.5469 0.0000
# 4 0.0000 0.0000 0.0000 26.8364 0.0000 -25.2108
# 5 20.5090 4.5667 10.5469 0.0000 41.9487 0.0000
# 6 0.0000 0.0000 0.0000 -25.2108 0.0000 30.5862
#
#
#
# Elastic Compliance Matrix: (Units=1/GPa)
#
#
# Indices 1 2 3 4 5 6 
#
# 1 0.014124 -0.006872 -0.003060 0.000000 -0.005388 0.000000
# 2 -0.006872 0.012274 -0.002450 0.000000 0.002640 0.000000
# 3 -0.003060 -0.002450 0.009679 0.000000 -0.000671 0.000000
# 4 0.000000 0.000000 0.000000 0.165118 0.000000 0.136099
# 5 -0.005388 0.002640 -0.000671 0.000000 0.026354 0.000000
# 6 0.000000 0.000000 0.000000 0.136099 0.000000 0.144875
#
#
# Mechanical properties :
#
#
# Convention : Reuss Voigt Hill
#
# Bulk Modulus (GPa) = 88.41150 92.25224 90.33187
# Shear Modulus (GPa) = 12.47002 33.41580 22.94291
#
# Velocity S-wave (km/s) = 2.26814 3.71290 3.07653
# Velocity P-wave (km/s) = 6.58280 7.51260 7.06302
#
# Compressibility (1/GPa) = 0.01131075
#
# Stress axis : x y z
#
# Youngs Moduli (GPa) = 70.80078 81.47318 103.31361
#
# Poissons Ratio (x) = 0.55992 0.31619
# Poissons Ratio (y) = 0.48658 0.25315
# Poissons Ratio (z) = 0.21669 0.19964
#
# Static dielectric constant tensor:
#      x y z
#    x 1.949000 0.000000 -0.031780 
#    y 0.000000 1.955130 0.000000 
#    z -0.031780 0.000000 1.892130 
# 
# From -- ./inp_files/205842.got.cif
#   From: 2010.05.17/outbox.cif.g08.bks.cpg/sg15_103_cif.got.tgz:205842.got - 2010.06.03 18:47:42.
