data_PCOD9287423
_publ_section_title
;
Structure prediction by ZEFSAII (Michael W. Deem and Ramdas Pophale) SiO2 
 PCOD9287423
Probable space group: C 2/C
;
_chemical_formula_sum "Si O2"
_cell_formula_units_Z 40
_cell_length_a 12.089145
_cell_length_b 14.393093
_cell_length_c 15.986647
_cell_angle_alpha 90.000000
_cell_angle_beta 37.315784
_cell_angle_gamma 90.000000
_cell_volume 1686.275075
_symmetry_space_group_name_H-M "C 2/C"
_symmetry_group_IT_number 15
_symmetry_cell_setting 'monoclinic'
loop_
_space_group_symop_operation_xyz
x,y,z
-x,y,1/2-z
-x,-y,-z
x,-y,1/2+z
1/2+x,1/2+y,z
1/2-x,1/2+y,1/2-z
1/2-x,1/2-y,-z
1/2+x,1/2-y,1/2+z
loop_
_atom_site_type_symbol
_atom_site_label
_atom_site_fract_x
_atom_site_fract_y
_atom_site_fract_z
Si Si1 0.905674 0.925663 0.170885
Si Si2 0.352347 0.363563 0.772458
Si Si3 0.800889 0.146096 0.120135
Si Si4 0.000000 0.500879 0.750000
Si Si5 0.012343 0.578703 0.566458
Si Si6 0.500000 0.713543 0.750000
O O1 0.696277 0.894629 0.294355
O O2 0.014754 0.856030 0.164655
O O3 0.902799 0.028955 0.213725
O O4 0.011814 0.901001 0.022544
O O5 0.500000 0.330553 0.750000
O O6 0.331840 0.317861 0.694961
O O7 0.159630 0.355222 0.935757
O O8 0.655734 0.061532 0.199992
O O9 0.683922 0.225515 0.144013
O O10 0.080727 0.551376 0.619016
O O11 0.000000 0.500000 0.500000
#
# Coordination Sequence:
#
# PCOD9287423 Si02
#       6
#     8   8   8   4   8   4
#     4  11  22  40  63  97 130 175 221 270 328 394
#     4  11  22  40  67  95 135 171 224 275 329 394
#     4  11  24  39  64  98 131 177 222 272 332 395
#     4  11  20  36  62  94 135 162 218 277 324 384
#     4  10  22  36  60  96 134 171 219 278 328 387
#     4  11  26  42  68  96 141 170 220 275 336 396
#
# _framework density 23.720921000000001
#
# number of rings (size 3 to 8) (size 9 to 14) (size 15 to 20)
#    0.000    1.200    5.000    2.400    5.600    1.600 
#    0.000    0.000    2.200    2.400    0.000    0.000 
#    0.000    0.000    0.000    0.000    0.000    0.000 
#
# Total GULP energy -111544.160817 kJ/mol
# GULP energy per Si atom -5577.208041 kJ/mol
# Density = 2.366693 g / cm^3
# Si number density = 23.720921 Si / 1000 Ang^3
#
#
#
# Elastic Constant Matrix: (Units=GPa)
#
#
# Indices 1 2 3 4 5 6 
#
# 1 138.0288 6.0667 34.9854 -0.0003 9.5257 0.0002
# 2 6.0667 67.6927 -4.1720 -0.0002 3.8042 0.0002
# 3 34.9854 -4.1720 119.7789 -0.0004 -1.6782 0.0004
# 4 -0.0003 -0.0002 -0.0004 -17.7776 0.0002 -4.1026
# 5 9.5257 3.8042 -1.6782 0.0002 49.8396 -0.0002
# 6 0.0002 0.0002 0.0004 -4.1026 -0.0002 30.5943
#
#
#
# Elastic Compliance Matrix: (Units=1/GPa)
#
#
# Indices 1 2 3 4 5 6 
#
# 1 0.007990 -0.000776 -0.002382 0.000000 -0.001548 0.000000
# 2 -0.000776 0.014942 0.000733 0.000000 -0.000967 0.000000
# 3 -0.002382 0.000733 0.009080 0.000000 0.000705 0.000000
# 4 0.000000 0.000000 0.000000 -0.054562 0.000000 -0.007317
# 5 -0.001548 -0.000967 0.000705 0.000000 0.020458 0.000000
# 6 0.000000 0.000000 0.000000 -0.007317 0.000000 0.031705
#
#
# Mechanical properties :
#
#
# Convention : Reuss Voigt Hill
#
# Bulk Modulus (GPa) = 36.81625 44.36229 40.58927
# Shear Modulus (GPa) = 114.90178 31.77260 73.33719
#
# Velocity S-wave (km/s) = 6.96736 3.66380 5.56631
# Velocity P-wave (km/s) = 8.95990 6.05312 7.64592
#
# Compressibility (1/GPa) = 0.02716192
#
# Stress axis : x y z
#
# Youngs Moduli (GPa) = 125.16207 66.92657 110.13230
#
# Poissons Ratio (x) = 0.05193 0.26237
# Poissons Ratio (y) = 0.09711 -0.08078
# Poissons Ratio (z) = 0.29818 -0.04909
#
# Static dielectric constant tensor:
#      x y z
#    x 2.023080 0.000000 0.165910 
#    y 0.000000 1.962240 0.000000 
#    z 0.165910 0.000000 2.130350 
# 
# From -- ./inp_files/145409.got.cif
#   From: 2010.05.17/outbox.cif.g08.bks.cpg/sg15_73_cif.got.tgz:145409.got - 2010.06.03 18:47:42.
