data_PCOD9287876
_publ_section_title
;
Structure prediction by ZEFSAII (Michael W. Deem and Ramdas Pophale) SiO2 
 PCOD9287876
Probable space group: C 2/C
;
_chemical_formula_sum "Si O2"
_cell_formula_units_Z 44
_cell_length_a 30.370598
_cell_length_b 7.324906
_cell_length_c 9.205968
_cell_angle_alpha 90.000000
_cell_angle_beta 49.969080
_cell_angle_gamma 90.000000
_cell_volume 1568.129986
_symmetry_space_group_name_H-M "C 2/C"
_symmetry_group_IT_number 15
_symmetry_cell_setting 'monoclinic'
loop_
_space_group_symop_operation_xyz
x,y,z
-x,y,1/2-z
-x,-y,-z
x,-y,1/2+z
1/2+x,1/2+y,z
1/2-x,1/2+y,1/2-z
1/2-x,1/2-y,-z
1/2+x,1/2-y,1/2+z
loop_
_atom_site_type_symbol
_atom_site_label
_atom_site_fract_x
_atom_site_fract_y
_atom_site_fract_z
Si Si1 0.951501 0.651393 0.097695
Si Si2 0.882358 0.126182 0.334795
Si Si3 0.731895 0.467339 0.551769
Si Si4 0.000000 0.908621 0.750000
Si Si5 0.696581 0.941754 0.844312
Si Si6 0.598593 0.851086 0.481470
O O1 0.905844 0.545837 0.093776
O O2 0.938664 0.671171 0.295317
O O3 0.000000 0.500000 0.000000
O O4 0.975324 0.811496 0.947607
O O5 0.831957 0.001962 0.373110
O O6 0.934793 0.045712 0.318859
O O7 0.845564 0.289831 0.493128
O O8 0.909942 0.210977 0.129580
O O9 0.750000 0.250000 0.500000
O O10 0.745570 0.492150 0.690379
O O11 0.778637 0.587546 0.367520
O O12 0.661923 0.132173 0.910129
#
# Coordination Sequence:
#
# PCOD9287876 Si02
#       6
#     8   8   8   4   8   8
#     4  12  18  27  46  80 115 160 177 215 295 375
#     4  11  23  37  55  88 121 156 195 239 288 359
#     4  10  22  38  59  84 119 155 199 247 287 349
#     4  12  22  32  54  80 124 152 188 234 298 356
#     4  11  18  36  59  80 118 156 188 245 297 336
#     4  12  18  29  52  81 117 149 184 224 299 356
#
# _framework density 28.058897999999999
#
# number of rings (size 3 to 8) (size 9 to 14) (size 15 to 20)
#    0.000    0.727   10.909    0.000    0.000    0.000 
#    0.000    5.455    0.000    1.091    0.000    0.000 
#    0.000    0.000    0.000    0.000    0.000    0.000 
#
# Total GULP energy -122674.805695 kJ/mol
# GULP energy per Si atom -5576.127532 kJ/mol
# Density = 2.799503 g / cm^3
# Si number density = 28.058898 Si / 1000 Ang^3
#
#
#
# Elastic Constant Matrix: (Units=GPa)
#
#
# Indices 1 2 3 4 5 6 
#
# 1 223.4533 46.1212 30.1904 0.0000 -18.4024 0.0000
# 2 46.1212 76.0096 53.4884 0.0000 5.5887 0.0000
# 3 30.1904 53.4884 214.0260 0.0000 25.0345 0.0000
# 4 0.0000 0.0000 0.0000 28.3093 0.0000 4.4664
# 5 -18.4024 5.5887 25.0345 0.0000 48.6527 0.0000
# 6 0.0000 0.0000 0.0000 4.4664 0.0000 19.3571
#
#
#
# Elastic Compliance Matrix: (Units=1/GPa)
#
#
# Indices 1 2 3 4 5 6 
#
# 1 0.005396 -0.003296 -0.000235 0.000000 0.002541 0.000000
# 2 -0.003296 0.017979 -0.003874 0.000000 -0.001319 0.000000
# 3 -0.000235 -0.003874 0.005993 0.000000 -0.002727 0.000000
# 4 0.000000 0.000000 0.000000 0.036659 0.000000 -0.008459
# 5 0.002541 -0.001319 -0.002727 0.000000 0.023070 0.000000
# 6 0.000000 0.000000 0.000000 -0.008459 0.000000 0.053612
#
#
# Mechanical properties :
#
#
# Convention : Reuss Voigt Hill
#
# Bulk Modulus (GPa) = 68.68744 85.89877 77.29310
# Shear Modulus (GPa) = 30.79351 44.84308 37.81830
#
# Velocity S-wave (km/s) = 3.31639 4.00206 3.67525
# Velocity P-wave (km/s) = 6.26079 7.21356 6.75400
#
# Compressibility (1/GPa) = 0.01455870
#
# Stress axis : x y z
#
# Youngs Moduli (GPa) = 185.30644 55.61892 166.87127
#
# Poissons Ratio (x) = 0.18333 0.03915
# Poissons Ratio (y) = 0.61080 0.64649
# Poissons Ratio (z) = 0.04348 0.21548
#
# Static dielectric constant tensor:
#      x y z
#    x 2.530080 0.000000 -0.079050 
#    y 0.000000 2.298800 0.000000 
#    z -0.079050 0.000000 2.059660 
# 
# From -- ./inp_files/68985.got.cif
#   From: 2010.05.17/outbox.cif.g08.bks.cpg/sg15_35_cif.got.tgz:68985.got - 2010.06.03 18:47:42.
