data_PCOD9287112
_publ_section_title
;
Structure prediction by ZEFSAII (Michael W. Deem and Ramdas Pophale) SiO2 
 PCOD9287112
Probable space group: C 2/C
;
_chemical_formula_sum "Si O2"
_cell_formula_units_Z 48
_cell_length_a 9.568240
_cell_length_b 21.742708
_cell_length_c 11.594194
_cell_angle_alpha 90.000000
_cell_angle_beta 80.614525
_cell_angle_gamma 90.000000
_cell_volume 2379.760904
_symmetry_space_group_name_H-M "C 2/C"
_symmetry_group_IT_number 15
_symmetry_cell_setting 'monoclinic'
loop_
_space_group_symop_operation_xyz
x,y,z
-x,y,1/2-z
-x,-y,-z
x,-y,1/2+z
1/2+x,1/2+y,z
1/2-x,1/2+y,1/2-z
1/2-x,1/2-y,-z
1/2+x,1/2-y,1/2+z
loop_
_atom_site_type_symbol
_atom_site_label
_atom_site_fract_x
_atom_site_fract_y
_atom_site_fract_z
Si Si1 0.659209 0.151455 0.736046
Si Si2 0.667777 0.111890 0.218169
Si Si3 0.643439 0.520275 0.159540
Si Si4 0.609089 0.622969 0.969788
Si Si5 0.649529 0.293485 0.673552
Si Si6 0.209371 0.888184 0.054382
O O1 0.500000 0.126071 0.750000
O O2 0.772507 0.115056 0.643654
O O3 0.656142 0.220847 0.688166
O O4 0.710554 0.151608 0.860697
O O5 0.500000 0.106104 0.250000
O O6 0.747953 0.056352 0.272596
O O7 0.725004 0.172717 0.275400
O O8 0.717523 0.114642 0.079492
O O9 0.500000 0.507882 0.250000
O O10 0.607378 0.565400 0.057514
O O11 0.707081 0.457758 0.101896
O O12 0.646635 0.681545 0.044240
O O13 0.454329 0.631029 0.937096
O O14 0.500000 0.315090 0.750000
#
# Coordination Sequence:
#
# PCOD9287112 Si02
#       6
#     8   8   8   8   8   8
#     4  11  27  41  63 102 135 167 215 281 330 375
#     4  11  25  42  66 100 129 173 218 270 332 386
#     4  11  23  43  70  94 131 172 221 271 319 395
#     4  11  21  44  69  94 126 176 223 264 325 389
#     4  10  21  47  68  91 131 174 221 268 326 392
#     4  12  25  42  69  97 129 175 224 265 321 403
#
# _framework density 20.170093000000001
#
# number of rings (size 3 to 8) (size 9 to 14) (size 15 to 20)
#    0.000    1.000    3.333    3.500    7.000    3.333 
#    0.000    0.000    0.000    0.000    0.000    0.000 
#    0.000    0.000    0.000    0.000    0.000    0.000 
#
# Total GULP energy -134285.820701 kJ/mol
# GULP energy per Si atom -5595.242529 kJ/mol
# Density = 2.012418 g / cm^3
# Si number density = 20.170093 Si / 1000 Ang^3
#
#
#
# Elastic Constant Matrix: (Units=GPa)
#
#
# Indices 1 2 3 4 5 6 
#
# 1 136.6078 -9.5443 59.4700 0.0000 -18.1868 0.0000
# 2 -9.5443 27.4181 -9.7263 0.0000 2.2569 0.0000
# 3 59.4700 -9.7263 115.5899 0.0000 -1.4760 0.0000
# 4 0.0000 0.0000 0.0000 -1.4709 0.0000 7.3655
# 5 -18.1868 2.2569 -1.4760 0.0000 35.5479 0.0000
# 6 0.0000 0.0000 0.0000 7.3655 0.0000 5.9926
#
#
#
# Elastic Compliance Matrix: (Units=1/GPa)
#
#
# Indices 1 2 3 4 5 6 
#
# 1 0.010309 0.001361 -0.005126 0.000000 0.004975 0.000000
# 2 0.001361 0.037956 0.002473 0.000000 -0.001611 0.000000
# 3 -0.005126 0.002473 0.011467 0.000000 -0.002303 0.000000
# 4 0.000000 0.000000 0.000000 -0.095022 0.000000 0.116792
# 5 0.004975 -0.001611 -0.002303 0.000000 0.030683 0.000000
# 6 0.000000 0.000000 0.000000 0.116792 0.000000 0.023323
#
#
# Mechanical properties :
#
#
# Convention : Reuss Voigt Hill
#
# Bulk Modulus (GPa) = 17.49840 40.00163 28.75002
# Shear Modulus (GPa) = 123.91776 23.97502 73.94639
#
# Velocity S-wave (km/s) = 7.84664 3.45141 6.06143
# Velocity P-wave (km/s) = 9.52824 5.97981 7.95442
#
# Compressibility (1/GPa) = 0.05714807
#
# Stress axis : x y z
#
# Youngs Moduli (GPa) = 97.00147 26.34639 87.20526
#
# Poissons Ratio (x) = -0.03585 0.44701
# Poissons Ratio (y) = -0.13199 -0.21567
# Poissons Ratio (z) = 0.49722 -0.06516
#
# Static dielectric constant tensor:
#      x y z
#    x 1.689610 0.000000 -0.003270 
#    y 0.000000 1.717600 0.000000 
#    z -0.003270 0.000000 1.705110 
# 
# From -- ./inp_files/79091.got.cif
#   From: 2010.05.17/outbox.cif.g08.bks.cpg/sg15_40_cif.got.tgz:79091.got - 2010.06.03 18:47:42.
