data_PCOD9287845
_publ_section_title
;
Structure prediction by ZEFSAII (Michael W. Deem and Ramdas Pophale) SiO2 
 PCOD9287845
Probable space group: C 2/C
;
_chemical_formula_sum "Si O2"
_cell_formula_units_Z 40
_cell_length_a 19.737107
_cell_length_b 13.099730
_cell_length_c 17.017613
_cell_angle_alpha 90.000000
_cell_angle_beta 152.303348
_cell_angle_gamma 90.000000
_cell_volume 2045.038774
_symmetry_space_group_name_H-M "C 2/C"
_symmetry_group_IT_number 15
_symmetry_cell_setting 'monoclinic'
loop_
_space_group_symop_operation_xyz
x,y,z
-x,y,1/2-z
-x,-y,-z
x,-y,1/2+z
1/2+x,1/2+y,z
1/2-x,1/2+y,1/2-z
1/2-x,1/2-y,-z
1/2+x,1/2-y,1/2+z
loop_
_atom_site_type_symbol
_atom_site_label
_atom_site_fract_x
_atom_site_fract_y
_atom_site_fract_z
Si Si1 0.644311 0.449933 0.690713
Si Si2 0.317245 0.147247 0.927587
Si Si3 0.145060 0.647138 0.222186
Si Si4 0.154202 0.528174 0.390611
Si Si5 0.348646 0.657642 0.136465
O O1 0.500000 0.500000 0.500000
O O2 0.730862 0.548092 0.811053
O O3 0.758429 0.396330 0.749188
O O4 0.624013 0.368560 0.742205
O O5 0.216055 0.244768 0.815496
O O6 0.469472 0.158391 0.036378
O O7 0.347476 0.122651 0.050146
O O8 0.164297 0.569353 0.313858
O O9 0.279014 0.448004 0.535074
O O10 0.000000 0.474030 0.250000
O O11 0.500000 0.674041 0.250000
O O12 0.250000 0.750000 0.000000
#
# Coordination Sequence:
#
# PCOD9287845 Si02
#       5
#     8   8   8   8   8
#     4  11  24  41  61  89 121 157 204 257 309 366
#     4  10  22  38  58  88 120 156 197 243 304 368
#     4  11  21  37  62  88 118 155 196 250 302 363
#     4   9  20  39  61  86 119 156 199 246 301 364
#     4  11  24  41  62  87 120 162 205 252 309 375
#
# _framework density 19.559531
#
# number of rings (size 3 to 8) (size 9 to 14) (size 15 to 20)
#    0.000    1.600    0.000    4.200    0.000    6.400 
#    0.000    1.000    0.000    0.000    0.000    0.000 
#    0.000    0.000    0.000    0.000    0.000    0.000 
#
# Total GULP energy -111460.992660 kJ/mol
# GULP energy per Si atom -5573.049633 kJ/mol
# Density = 1.951501 g / cm^3
# Si number density = 19.559531 Si / 1000 Ang^3
#
#
#
# Elastic Constant Matrix: (Units=GPa)
#
#
# Indices 1 2 3 4 5 6 
#
# 1 151.2327 35.2906 63.6114 0.0000 18.8556 0.0000
# 2 35.2906 71.3365 41.6532 -0.0001 10.4200 0.0001
# 3 63.6114 41.6532 129.1190 -0.0001 23.1322 0.0000
# 4 0.0000 -0.0001 -0.0001 31.1926 0.0000 18.3029
# 5 18.8556 10.4200 23.1322 0.0000 34.4079 0.0000
# 6 0.0000 0.0001 0.0000 18.3029 0.0000 -39.1639
#
#
#
# Elastic Compliance Matrix: (Units=1/GPa)
#
#
# Indices 1 2 3 4 5 6 
#
# 1 0.008723 -0.002126 -0.003264 0.000000 -0.001942 0.000000
# 2 -0.002126 0.017876 -0.004500 0.000000 -0.001223 0.000000
# 3 -0.003264 -0.004500 0.011642 0.000000 -0.004676 0.000000
# 4 0.000000 0.000000 0.000000 0.025160 0.000000 0.011758
# 5 -0.001942 -0.001223 -0.004676 0.000000 0.033641 0.000000
# 6 0.000000 0.000000 0.000000 0.011758 0.000000 -0.020039
#
#
# Mechanical properties :
#
#
# Convention : Reuss Voigt Hill
#
# Bulk Modulus (GPa) = 54.16687 70.31097 62.23892
# Shear Modulus (GPa) = 48.57292 19.36285 33.96789
#
# Velocity S-wave (km/s) = 4.98872 3.14975 4.17182
# Velocity P-wave (km/s) = 7.80618 7.01806 7.42259
#
# Compressibility (1/GPa) = 0.01846147
#
# Stress axis : x y z
#
# Youngs Moduli (GPa) = 114.63347 55.94033 85.89490
#
# Poissons Ratio (x) = 0.11893 0.28035
# Poissons Ratio (y) = 0.24372 0.38655
# Poissons Ratio (z) = 0.37414 0.25174
#
# Static dielectric constant tensor:
#      x y z
#    x 1.700870 0.000000 -0.042340 
#    y 0.000000 1.664380 0.000000 
#    z -0.042340 0.000000 1.655710 
# 
# From -- ./inp_files/54223.got.cif
#   From: 2010.05.17/outbox.cif.g08.bks.cpg/sg15_28_cif.got.tgz:54223.got - 2010.06.03 18:47:42.
