data_PCOD9287633
_publ_section_title
;
Structure prediction by ZEFSAII (Michael W. Deem and Ramdas Pophale) SiO2 
 PCOD9287633
Probable space group: C 2/C
;
_chemical_formula_sum "Si O2"
_cell_formula_units_Z 44
_cell_length_a 18.541754
_cell_length_b 16.273910
_cell_length_c 7.761266
_cell_angle_alpha 90.000000
_cell_angle_beta 117.637104
_cell_angle_gamma 90.000000
_cell_volume 2074.730284
_symmetry_space_group_name_H-M "C 2/C"
_symmetry_group_IT_number 15
_symmetry_cell_setting 'monoclinic'
loop_
_space_group_symop_operation_xyz
x,y,z
-x,y,1/2-z
-x,-y,-z
x,-y,1/2+z
1/2+x,1/2+y,z
1/2-x,1/2+y,1/2-z
1/2-x,1/2-y,-z
1/2+x,1/2-y,1/2+z
loop_
_atom_site_type_symbol
_atom_site_label
_atom_site_fract_x
_atom_site_fract_y
_atom_site_fract_z
Si Si1 0.500000 0.338327 0.750000
Si Si2 0.218834 0.612427 0.485652
Si Si3 0.172604 0.199791 0.342384
Si Si4 0.050677 0.913076 0.148873
Si Si5 0.354147 0.733316 0.595021
Si Si6 0.790489 0.024829 0.233039
O O1 0.413735 0.290187 0.655459
O O2 0.500388 0.392116 0.576740
O O3 0.278726 0.686590 0.607808
O O4 0.142485 0.669773 0.357135
O O5 0.267229 0.568957 0.384389
O O6 0.216341 0.538183 0.614627
O O7 0.250000 0.250000 0.500000
O O8 0.196269 0.102778 0.377293
O O9 0.153559 0.221974 0.120692
O O10 0.076767 0.824770 0.254288
O O11 0.000000 0.950746 0.250000
O O12 0.128538 0.968873 0.185190
#
# Coordination Sequence:
#
# PCOD9287633 Si02
#       6
#     4   8   8   8   8   8
#     4  12  26  40  68 102 136 190 234 284 344 428
#     4   9  19  35  58  88 124 175 221 268 332 398
#     4  11  25  41  63 100 137 183 236 282 345 425
#     4  11  23  43  63 100 150 183 224 280 365 426
#     4   9  20  40  60  86 137 187 223 276 340 408
#     4  10  22  37  60  95 136 177 218 280 349 414
#
# _framework density 21.207577000000001
#
# number of rings (size 3 to 8) (size 9 to 14) (size 15 to 20)
#    0.000    1.818    1.818    1.091   14.000    0.727 
#    0.000    0.000    0.000    0.000    2.364    3.818 
#    0.000    0.000    0.000    0.000    0.000    0.000 
#
# Total GULP energy -122569.372488 kJ/mol
# GULP energy per Si atom -5571.335113 kJ/mol
# Density = 2.115931 g / cm^3
# Si number density = 21.207577 Si / 1000 Ang^3
#
#
#
# Elastic Constant Matrix: (Units=GPa)
#
#
# Indices 1 2 3 4 5 6 
#
# 1 84.6607 49.3373 34.1073 0.0000 -6.5052 0.0000
# 2 49.3373 145.4301 45.4390 0.0000 15.6021 0.0000
# 3 34.1073 45.4390 103.3162 0.0000 -3.2919 0.0000
# 4 0.0000 0.0000 0.0000 35.4506 0.0000 7.4623
# 5 -6.5052 15.6021 -3.2919 0.0000 30.6732 0.0000
# 6 0.0000 0.0000 0.0000 7.4623 0.0000 35.5602
#
#
#
# Elastic Compliance Matrix: (Units=1/GPa)
#
#
# Indices 1 2 3 4 5 6 
#
# 1 0.016556 -0.005335 -0.002931 0.000000 0.005910 0.000000
# 2 -0.005335 0.010345 -0.003002 0.000000 -0.006715 0.000000
# 3 -0.002931 -0.003002 0.012037 0.000000 0.002197 0.000000
# 4 0.000000 0.000000 0.000000 0.029512 0.000000 -0.006193
# 5 0.005910 -0.006715 0.002197 0.000000 0.037507 0.000000
# 6 0.000000 0.000000 0.000000 -0.006193 0.000000 0.029421
#
#
# Mechanical properties :
#
#
# Convention : Reuss Voigt Hill
#
# Bulk Modulus (GPa) = 60.97144 65.68600 63.32872
# Shear Modulus (GPa) = 30.60346 33.97170 32.28758
#
# Velocity S-wave (km/s) = 3.80286 4.00667 3.90610
# Velocity P-wave (km/s) = 6.93503 7.24187 7.09011
#
# Compressibility (1/GPa) = 0.01640112
#
# Stress axis : x y z
#
# Youngs Moduli (GPa) = 60.40208 96.66925 83.07682
#
# Poissons Ratio (x) = 0.51572 0.24349
# Poissons Ratio (y) = 0.32224 0.24943
# Poissons Ratio (z) = 0.17703 0.29024
#
# Static dielectric constant tensor:
#      x y z
#    x 1.902400 0.000000 0.044510 
#    y 0.000000 1.873190 0.000000 
#    z 0.044510 0.000000 1.910700 
# 
# From -- ./inp_files/55480.got.cif
#   From: 2010.05.17/outbox.cif.g08.bks.cpg/sg15_28_cif.got.tgz:55480.got - 2010.06.03 18:47:42.
