data_PCOD9287829
_publ_section_title
;
Structure prediction by ZEFSAII (Michael W. Deem and Ramdas Pophale) SiO2 
 PCOD9287829
Probable space group: C 2/C
;
_chemical_formula_sum "Si O2"
_cell_formula_units_Z 48
_cell_length_a 14.222337
_cell_length_b 18.069937
_cell_length_c 15.949857
_cell_angle_alpha 90.000000
_cell_angle_beta 148.001524
_cell_angle_gamma 90.000000
_cell_volume 2172.079005
_symmetry_space_group_name_H-M "C 2/C"
_symmetry_group_IT_number 15
_symmetry_cell_setting 'monoclinic'
loop_
_space_group_symop_operation_xyz
x,y,z
-x,y,1/2-z
-x,-y,-z
x,-y,1/2+z
1/2+x,1/2+y,z
1/2-x,1/2+y,1/2-z
1/2-x,1/2-y,-z
1/2+x,1/2-y,1/2+z
loop_
_atom_site_type_symbol
_atom_site_label
_atom_site_fract_x
_atom_site_fract_y
_atom_site_fract_z
Si Si1 0.453142 0.341487 0.798427
Si Si2 0.071952 0.617316 0.073579
Si Si3 0.787508 0.923153 0.277309
Si Si4 0.886281 0.012794 0.035182
Si Si5 0.333427 0.882884 0.671224
Si Si6 0.992974 0.213388 0.516023
O O1 0.500000 0.296703 0.750000
O O2 0.584789 0.412185 0.893113
O O3 0.487158 0.298724 0.911024
O O4 0.252715 0.371803 0.657642
O O5 0.912789 0.576330 0.906177
O O6 0.011396 0.701148 0.048388
O O7 0.118225 0.585455 0.200096
O O8 0.833787 0.956089 0.403504
O O9 0.847403 0.837186 0.328173
O O10 0.926057 0.969052 0.325095
O O11 0.741625 0.949911 0.942703
O O12 0.500000 0.849510 0.750000
O O13 0.179999 0.824299 0.574650
#
# Coordination Sequence:
#
# PCOD9287829 Si02
#       6
#     8   8   8   8   8   8
#     4  10  22  38  58  84 113 149 188 231 283 335
#     4  11  21  35  60  83 106 150 197 229 276 343
#     4   9  17  34  57  78 109 151 186 229 285 331
#     4   9  20  36  52  79 120 148 180 239 286 325
#     4  10  22  38  58  84 113 149 188 231 283 335
#     4   9  20  40  57  81 119 146 181 239 283 325
#
# _framework density 22.098644
#
# number of rings (size 3 to 8) (size 9 to 14) (size 15 to 20)
#    0.000    2.333    0.000    5.000    0.000    6.667 
#    0.000    5.000    0.000    0.000    0.000    0.000 
#    0.000    0.000    0.000    0.000    0.000    0.000 
#
# Total GULP energy -133955.064516 kJ/mol
# GULP energy per Si atom -5581.461021 kJ/mol
# Density = 2.204835 g / cm^3
# Si number density = 22.098644 Si / 1000 Ang^3
#
#
#
# Elastic Constant Matrix: (Units=GPa)
#
#
# Indices 1 2 3 4 5 6 
#
# 1 66.0343 -23.0439 2.5316 -0.0019 16.4408 -0.0009
# 2 -23.0439 77.3194 5.2209 -0.0021 -1.8741 0.0000
# 3 2.5316 5.2209 105.0056 -0.0063 9.6140 0.0003
# 4 -0.0019 -0.0021 -0.0063 21.7347 0.0005 -3.2734
# 5 16.4408 -1.8741 9.6140 0.0005 11.7881 0.0013
# 6 -0.0009 0.0000 0.0003 -3.2734 0.0013 1.1795
#
#
#
# Elastic Compliance Matrix: (Units=1/GPa)
#
#
# Indices 1 2 3 4 5 6 
#
# 1 0.027152 0.006978 0.002555 0.000025 -0.038842 0.000133
# 2 0.006978 0.014856 -0.000251 0.000007 -0.007166 0.000033
# 3 0.002555 -0.000251 0.010595 0.000009 -0.012244 0.000039
# 4 0.000025 0.000007 0.000009 0.079051 -0.000069 0.219386
# 5 -0.038842 -0.007166 -0.012244 -0.000069 0.147851 -0.000386
# 6 0.000133 0.000033 0.000039 0.219386 -0.000386 1.456664
#
#
# Mechanical properties :
#
#
# Convention : Reuss Voigt Hill
#
# Bulk Modulus (GPa) = 14.05135 24.19736 19.12436
# Shear Modulus (GPa) = 2.87137 24.51718 13.69428
#
# Velocity S-wave (km/s) = 1.14112 3.33444 2.49206
# Velocity P-wave (km/s) = 2.84754 5.07919 4.11744
#
# Compressibility (1/GPa) = 0.07116753
#
# Stress axis : x y z
#
# Youngs Moduli (GPa) = 36.83019 67.31121 94.38220
#
# Poissons Ratio (x) = -0.46971 -0.24112
# Poissons Ratio (y) = -0.25701 0.02367
# Poissons Ratio (z) = -0.09409 0.01688
#
# Static dielectric constant tensor:
#      x y z
#    x 1.782200 0.000000 -0.011020 
#    y 0.000000 1.805040 0.000000 
#    z -0.011020 0.000000 1.828830 
# 
# From -- ./inp_files/206503.got.cif
#   From: 2010.05.17/outbox.cif.g08.bks.cpg/sg15_104_cif.got.tgz:206503.got - 2010.06.03 18:47:42.
