data_PCOD9287934
_publ_section_title
;
Structure prediction by ZEFSAII (Michael W. Deem and Ramdas Pophale) SiO2 
 PCOD9287934
Probable space group: C 2/C
;
_chemical_formula_sum "Si O2"
_cell_formula_units_Z 60
_cell_length_a 19.997534
_cell_length_b 26.901374
_cell_length_c 10.845923
_cell_angle_alpha 90.000000
_cell_angle_beta 149.426714
_cell_angle_gamma 90.000000
_cell_volume 2967.754481
_symmetry_space_group_name_H-M "C 2/C"
_symmetry_group_IT_number 15
_symmetry_cell_setting 'monoclinic'
loop_
_space_group_symop_operation_xyz
x,y,z
-x,y,1/2-z
-x,-y,-z
x,-y,1/2+z
1/2+x,1/2+y,z
1/2-x,1/2+y,1/2-z
1/2-x,1/2-y,-z
1/2+x,1/2-y,1/2+z
loop_
_atom_site_type_symbol
_atom_site_label
_atom_site_fract_x
_atom_site_fract_y
_atom_site_fract_z
Si Si1 0.505777 0.776791 0.043895
Si Si2 0.254540 0.318686 0.960043
Si Si3 0.620915 0.604381 0.537908
Si Si4 0.628485 0.163838 0.517379
Si Si5 0.986171 0.172456 0.518916
Si Si6 0.000000 0.349609 0.250000
Si Si7 0.415000 0.492551 0.990616
Si Si8 0.242615 0.107810 0.232546
O O1 0.572391 0.796448 0.024348
O O2 0.551267 0.812668 0.225093
O O3 0.348132 0.786935 0.783232
O O4 0.537163 0.718962 0.108124
O O5 0.245527 0.374884 0.891351
O O6 0.201365 0.314139 0.014191
O O7 0.407982 0.306877 0.214269
O O8 0.759552 0.631755 0.736436
O O9 0.560172 0.627937 0.565711
O O10 0.650816 0.546192 0.595984
O O11 0.500000 0.610609 0.250000
O O12 0.500000 0.137933 0.250000
O O13 0.857048 0.149304 0.371793
O O14 0.116487 0.383496 0.484782
O O15 0.500000 0.484082 0.250000
O O16 0.500000 0.500000 0.000000
O O17 0.318112 0.445556 0.833869
#
# Coordination Sequence:
#
# PCOD9287934 Si02
#       8
#     8   8   8   8   8   4   8   8
#     4  10  22  38  60  88 132 171 209 255 317 391
#     4   9  20  38  60  92 121 161 213 266 309 377
#     4  10  23  39  60  92 125 161 209 271 328 378
#     4   9  20  39  62  85 126 164 208 259 309 379
#     4  11  21  35  64  91 123 168 214 261 324 384
#     4  10  26  42  58  90 136 176 210 260 320 402
#     4  11  23  42  69  95 124 161 211 280 336 387
#     4  11  23  41  64  90 128 168 218 269 328 385
#
# _framework density 20.217305
#
# number of rings (size 3 to 8) (size 9 to 14) (size 15 to 20)
#    0.000    1.867    1.333    1.600    4.667    8.000 
#    1.200    0.000    0.000    3.200    0.000    0.000 
#    0.000    0.000    0.000    0.000    0.000    0.000 
#
# Total GULP energy -167277.972847 kJ/mol
# GULP energy per Si atom -5575.932428 kJ/mol
# Density = 2.017129 g / cm^3
# Si number density = 20.217305 Si / 1000 Ang^3
#
#
#
# Elastic Constant Matrix: (Units=GPa)
#
#
# Indices 1 2 3 4 5 6 
#
# 1 86.9434 24.4767 25.1842 0.0000 -1.3786 0.0000
# 2 24.4767 128.0740 42.5764 0.0000 3.0442 0.0000
# 3 25.1842 42.5764 89.4010 0.0000 8.8683 0.0000
# 4 0.0000 0.0000 0.0000 15.7026 0.0000 6.4920
# 5 -1.3786 3.0442 8.8683 0.0000 30.2873 0.0000
# 6 0.0000 0.0000 0.0000 6.4920 0.0000 26.9538
#
#
#
# Elastic Compliance Matrix: (Units=1/GPa)
#
#
# Indices 1 2 3 4 5 6 
#
# 1 0.012832 -0.001468 -0.003078 0.000000 0.001633 0.000000
# 2 -0.001468 0.009449 -0.004105 0.000000 0.000185 0.000000
# 3 -0.003078 -0.004105 0.014399 0.000000 -0.003944 0.000000
# 4 0.000000 0.000000 0.000000 0.070726 0.000000 -0.017035
# 5 0.001633 0.000185 -0.003944 0.000000 0.034228 0.000000
# 6 0.000000 0.000000 0.000000 -0.017035 0.000000 0.041203
#
#
# Mechanical properties :
#
#
# Convention : Reuss Voigt Hill
#
# Bulk Modulus (GPa) = 51.60302 54.32144 52.96223
# Shear Modulus (GPa) = 24.20164 28.73414 26.46789
#
# Velocity S-wave (km/s) = 3.46363 3.77406 3.62217
# Velocity P-wave (km/s) = 6.44789 6.77632 6.61414
#
# Compressibility (1/GPa) = 0.01937871
#
# Stress axis : x y z
#
# Youngs Moduli (GPa) = 77.92754 105.83463 69.45151
#
# Poissons Ratio (x) = 0.15538 0.21375
# Poissons Ratio (y) = 0.11441 0.28508
# Poissons Ratio (z) = 0.23984 0.43442
#
# Static dielectric constant tensor:
#      x y z
#    x 1.766240 0.000000 -0.038700 
#    y 0.000000 1.716460 0.000000 
#    z -0.038700 0.000000 1.768210 
# 
# From -- ./inp_files/114843.got.cif
#   From: 2010.05.17/outbox.cif.g08.bks.cpg/sg15_58_cif.got.tgz:114843.got - 2010.06.03 18:47:42.
