data_PCOD9287942
_publ_section_title
;
Structure prediction by ZEFSAII (Michael W. Deem and Ramdas Pophale) SiO2 
 PCOD9287942
Probable space group: C 2/C
;
_chemical_formula_sum "Si O2"
_cell_formula_units_Z 36
_cell_length_a 8.296289
_cell_length_b 13.208981
_cell_length_c 13.443862
_cell_angle_alpha 90.000000
_cell_angle_beta 85.315056
_cell_angle_gamma 90.000000
_cell_volume 1468.330351
_symmetry_space_group_name_H-M "C 2/C"
_symmetry_group_IT_number 15
_symmetry_cell_setting 'monoclinic'
loop_
_space_group_symop_operation_xyz
x,y,z
-x,y,1/2-z
-x,-y,-z
x,-y,1/2+z
1/2+x,1/2+y,z
1/2-x,1/2+y,1/2-z
1/2-x,1/2-y,-z
1/2+x,1/2-y,1/2+z
loop_
_atom_site_type_symbol
_atom_site_label
_atom_site_fract_x
_atom_site_fract_y
_atom_site_fract_z
Si Si1 0.901266 0.374779 0.515097
Si Si2 0.258115 0.862598 0.952361
Si Si3 0.500000 0.581321 0.750000
Si Si4 0.572172 0.358298 0.458384
Si Si5 0.176872 0.445691 0.762166
O O1 0.750452 0.406652 0.454965
O O2 0.914851 0.254020 0.497611
O O3 0.843448 0.390795 0.631290
O O4 0.087452 0.411602 0.498151
O O5 0.296111 0.871232 0.833413
O O6 0.250000 0.750000 0.000000
O O7 0.079236 0.906700 0.976715
O O8 0.483347 0.646535 0.652136
O O9 0.335724 0.515139 0.763248
O O10 0.000000 0.496644 0.750000
#
# Coordination Sequence:
#
# PCOD9287942 Si02
#       5
#     8   8   4   8   8
#     4   9  20  40  63  86 117 162 208 248 292 367
#     4   9  19  36  63  89 115 156 209 251 293 355
#     4  12  26  38  60  94 132 158 196 260 316 358
#     4  10  22  38  60  90 121 158 206 251 301 358
#     4  10  22  39  61  88 126 163 199 247 311 364
#
# _framework density 24.517644000000001
#
# number of rings (size 3 to 8) (size 9 to 14) (size 15 to 20)
#    0.000    2.222    0.000    1.333    7.778    5.333 
#    0.000    4.444    2.444    0.000    0.000    0.000 
#    0.000    0.000    0.000    0.000    0.000    0.000 
#
# Total GULP energy -100554.064520 kJ/mol
# GULP energy per Si atom -5586.336918 kJ/mol
# Density = 2.446184 g / cm^3
# Si number density = 24.517644 Si / 1000 Ang^3
#
#
#
# Elastic Constant Matrix: (Units=GPa)
#
#
# Indices 1 2 3 4 5 6 
#
# 1 253.6519 43.1470 41.8092 0.0000 -6.2116 0.0000
# 2 43.1470 59.9859 -8.2231 0.0000 -5.1222 0.0000
# 3 41.8092 -8.2231 99.8383 0.0000 4.5422 0.0000
# 4 0.0000 0.0000 0.0000 17.1854 0.0000 -5.8276
# 5 -6.2116 -5.1222 4.5422 0.0000 48.8620 0.0000
# 6 0.0000 0.0000 0.0000 -5.8276 0.0000 43.5315
#
#
#
# Elastic Compliance Matrix: (Units=1/GPa)
#
#
# Indices 1 2 3 4 5 6 
#
# 1 0.005021 -0.003908 -0.002445 0.000000 0.000456 0.000000
# 2 -0.003908 0.020035 0.003228 0.000000 0.001303 0.000000
# 3 -0.002445 0.003228 0.011353 0.000000 -0.001028 0.000000
# 4 0.000000 0.000000 0.000000 0.060956 0.000000 0.008160
# 5 0.000456 0.001303 -0.001028 0.000000 0.020756 0.000000
# 6 0.000000 0.000000 0.000000 0.008160 0.000000 0.024064
#
#
# Mechanical properties :
#
#
# Convention : Reuss Voigt Hill
#
# Bulk Modulus (GPa) = 33.15922 62.99358 48.07640
# Shear Modulus (GPa) = 31.54760 44.36532 37.95646
#
# Velocity S-wave (km/s) = 3.59099 4.25847 3.93889
# Velocity P-wave (km/s) = 5.54506 7.06600 6.35122
#
# Compressibility (1/GPa) = 0.03015753
#
# Stress axis : x y z
#
# Youngs Moduli (GPa) = 199.14568 49.91168 88.08332
#
# Poissons Ratio (x) = 0.19506 0.21541
# Poissons Ratio (y) = 0.77829 -0.28429
# Poissons Ratio (z) = 0.48700 -0.16109
#
# Static dielectric constant tensor:
#      x y z
#    x 2.051060 0.000000 -0.031450 
#    y 0.000000 2.043030 0.000000 
#    z -0.031450 0.000000 1.876770 
# 
# From -- ./inp_files/76624.got.cif
#   From: 2010.05.17/outbox.cif.g08.bks.cpg/sg15_39_cif.got.tgz:76624.got - 2010.06.03 18:47:42.
