data_PCOD9287275
_publ_section_title
;
Structure prediction by ZEFSAII (Michael W. Deem and Ramdas Pophale) SiO2 
 PCOD9287275
Probable space group: C 2/C
;
_chemical_formula_sum "Si O2"
_cell_formula_units_Z 44
_cell_length_a 23.204246
_cell_length_b 10.958719
_cell_length_c 9.355812
_cell_angle_alpha 90.000000
_cell_angle_beta 122.076012
_cell_angle_gamma 90.000000
_cell_volume 2015.898514
_symmetry_space_group_name_H-M "C 2/C"
_symmetry_group_IT_number 15
_symmetry_cell_setting 'monoclinic'
loop_
_space_group_symop_operation_xyz
x,y,z
-x,y,1/2-z
-x,-y,-z
x,-y,1/2+z
1/2+x,1/2+y,z
1/2-x,1/2+y,1/2-z
1/2-x,1/2-y,-z
1/2+x,1/2-y,1/2+z
loop_
_atom_site_type_symbol
_atom_site_label
_atom_site_fract_x
_atom_site_fract_y
_atom_site_fract_z
Si Si1 0.858970 0.635461 0.899662
Si Si2 0.585158 0.607870 0.101705
Si Si3 0.790874 0.763580 0.354013
Si Si4 0.285559 0.447037 0.580868
Si Si5 0.500000 0.489006 0.750000
Si Si6 0.336401 0.902989 0.685107
O O1 0.897392 0.750102 0.885705
O O2 0.779606 0.675721 0.788600
O O3 0.866120 0.514146 0.816162
O O4 0.873913 0.614023 0.085216
O O5 0.653964 0.531447 0.228672
O O6 0.534650 0.584788 0.166824
O O7 0.554793 0.568601 0.909521
O O8 0.769847 0.640329 0.413286
O O9 0.818825 0.860183 0.503851
O O10 0.834211 0.717747 0.278402
O O11 0.242117 0.555807 0.454934
#
# Coordination Sequence:
#
# PCOD9287275 Si02
#       6
#     8   8   8   8   4   8
#     4  10  22  35  58  90 131 161 202 231 302 365
#     4  10  23  43  65  92 111 160 207 269 303 350
#     4   9  18  33  51  88 131 167 191 223 279 386
#     4   9  19  33  57  89 127 159 194 234 298 363
#     4  10  24  48  68  82 114 148 220 280 310 330
#     4  11  19  35  56  94 136 165 187 232 288 393
#
# _framework density 21.826495999999999
#
# number of rings (size 3 to 8) (size 9 to 14) (size 15 to 20)
#    0.000    2.182    1.818    1.636    5.091    0.000 
#    6.545    0.000    0.000    3.273    0.000    0.000 
#    0.000    0.000    0.000    0.000    0.000    0.000 
#
# Total GULP energy -122970.134479 kJ/mol
# GULP energy per Si atom -5589.551567 kJ/mol
# Density = 2.177682 g / cm^3
# Si number density = 21.826496 Si / 1000 Ang^3
#
#
#
# Elastic Constant Matrix: (Units=GPa)
#
#
# Indices 1 2 3 4 5 6 
#
# 1 22.5274 15.2513 21.7016 0.0000 -11.1230 0.0000
# 2 15.2513 59.8627 33.1731 0.0000 -13.0495 0.0000
# 3 21.7016 33.1731 132.4398 0.0000 -20.3935 0.0000
# 4 0.0000 0.0000 0.0000 32.4638 0.0000 -11.7108
# 5 -11.1230 -13.0495 -20.3935 0.0000 36.7512 0.0000
# 6 0.0000 0.0000 0.0000 -11.7108 0.0000 14.5518
#
#
#
# Elastic Compliance Matrix: (Units=1/GPa)
#
#
# Indices 1 2 3 4 5 6 
#
# 1 0.062937 -0.010106 -0.005906 0.000000 0.012183 0.000000
# 2 -0.010106 0.021753 -0.003361 0.000000 0.002800 0.000000
# 3 -0.005906 -0.003361 0.009733 0.000000 0.002420 0.000000
# 4 0.000000 0.000000 0.000000 0.043404 0.000000 0.034930
# 5 0.012183 0.002800 0.002420 0.000000 0.033234 0.000000
# 6 0.000000 0.000000 0.000000 0.034930 0.000000 0.096831
#
#
# Mechanical properties :
#
#
# Convention : Reuss Voigt Hill
#
# Bulk Modulus (GPa) = 17.96100 39.45355 28.70727
# Shear Modulus (GPa) = 15.37532 26.40027 20.88779
#
# Velocity S-wave (km/s) = 2.65700 3.48163 3.09689
# Velocity P-wave (km/s) = 4.20234 5.85471 5.09594
#
# Compressibility (1/GPa) = 0.05567619
#
# Stress axis : x y z
#
# Youngs Moduli (GPa) = 15.88893 45.97121 102.74456
#
# Poissons Ratio (x) = 0.46459 0.60676
# Poissons Ratio (y) = 0.16058 0.34537
# Poissons Ratio (z) = 0.09383 0.15453
#
# Static dielectric constant tensor:
#      x y z
#    x 1.805130 0.000000 -0.013290 
#    y 0.000000 1.811860 0.000000 
#    z -0.013290 0.000000 1.862790 
# 
# From -- ./inp_files/54420.got.cif
#   From: 2010.05.17/outbox.cif.g08.bks.cpg/sg15_28_cif.got.tgz:54420.got - 2010.06.03 18:47:42.
