data_PCOD9287694
_publ_section_title
;
Structure prediction by ZEFSAII (Michael W. Deem and Ramdas Pophale) SiO2 
 PCOD9287694
Probable space group: C 2/C
;
_chemical_formula_sum "Si O2"
_cell_formula_units_Z 56
_cell_length_a 24.875531
_cell_length_b 17.925266
_cell_length_c 17.588496
_cell_angle_alpha 90.000000
_cell_angle_beta 160.411225
_cell_angle_gamma 90.000000
_cell_volume 2629.404998
_symmetry_space_group_name_H-M "C 2/C"
_symmetry_group_IT_number 15
_symmetry_cell_setting 'monoclinic'
loop_
_space_group_symop_operation_xyz
x,y,z
-x,y,1/2-z
-x,-y,-z
x,-y,1/2+z
1/2+x,1/2+y,z
1/2-x,1/2+y,1/2-z
1/2-x,1/2-y,-z
1/2+x,1/2-y,1/2+z
loop_
_atom_site_type_symbol
_atom_site_label
_atom_site_fract_x
_atom_site_fract_y
_atom_site_fract_z
Si Si1 0.000000 0.155494 0.250000
Si Si2 0.293779 0.816648 0.715388
Si Si3 0.787024 0.031730 0.029484
Si Si4 0.500000 0.596674 0.750000
Si Si5 0.922076 0.268617 0.263135
Si Si6 0.042222 0.574963 0.955609
Si Si7 0.360608 0.558128 0.301556
Si Si8 0.921550 0.775588 0.935591
O O1 0.146111 0.099533 0.432092
O O2 0.973170 0.207130 0.141030
O O3 0.136318 0.852145 0.468505
O O4 0.407633 0.763075 0.816576
O O5 0.218445 0.770859 0.687540
O O6 0.401600 0.886157 0.890783
O O7 0.805463 0.059496 0.140434
O O8 0.608517 0.021415 0.758819
O O9 0.900997 0.959967 0.172287
O O10 0.992450 0.350438 0.341266
O O11 0.899262 0.259870 0.322477
O O12 0.750000 0.250000 0.000000
O O13 0.201801 0.538090 0.136593
O O14 0.500000 0.500000 0.500000
O O15 0.422818 0.636851 0.416851
#
# Coordination Sequence:
#
# PCOD9287694 Si02
#       8
#     4   8   8   4   8   8   8   8
#     4  11  22  30  56  96 131 170 196 250 325 400
#     4  10  24  44  68  95 127 171 218 283 326 389
#     4  11  22  38  61  93 129 173 211 262 331 401
#     4  11  26  48  64  88 135 172 228 274 327 372
#     4  11  21  31  57  97 136 163 198 257 323 400
#     4  10  22  37  63  94 129 165 211 260 332 391
#     4  11  22  40  61  90 132 170 211 267 325 389
#     4  10  22  41  66  94 127 169 216 265 329 385
#
# _framework density 21.297594
#
# number of rings (size 3 to 8) (size 9 to 14) (size 15 to 20)
#    0.000    1.429    2.857    2.143    8.000    1.143 
#    2.571    0.000    0.000    0.000    0.000    0.000 
#    0.000    0.000    0.000    0.000    0.000    0.000 
#
# Total GULP energy -156157.880590 kJ/mol
# GULP energy per Si atom -5577.067164 kJ/mol
# Density = 2.124912 g / cm^3
# Si number density = 21.297594 Si / 1000 Ang^3
#
#
#
# Elastic Constant Matrix: (Units=GPa)
#
#
# Indices 1 2 3 4 5 6 
#
# 1 26.1533 -0.3688 -13.8379 0.0000 9.8526 0.0000
# 2 -0.3688 27.8487 28.2932 0.0000 5.4068 0.0000
# 3 -13.8379 28.2932 118.5801 0.0000 -0.2676 0.0000
# 4 0.0000 0.0000 0.0000 50.7255 0.0000 1.6679
# 5 9.8526 5.4068 -0.2676 0.0000 36.1756 0.0000
# 6 0.0000 0.0000 0.0000 1.6679 0.0000 20.0388
#
#
#
# Elastic Compliance Matrix: (Units=1/GPa)
#
#
# Indices 1 2 3 4 5 6 
#
# 1 0.045938 -0.003281 0.006117 0.000000 -0.011976 0.000000
# 2 -0.003281 0.049567 -0.012224 0.000000 -0.006605 0.000000
# 3 0.006117 -0.012224 0.012064 0.000000 0.000250 0.000000
# 4 0.000000 0.000000 0.000000 0.019768 0.000000 -0.001645
# 5 -0.011976 -0.006605 0.000250 0.000000 0.031894 0.000000
# 6 0.000000 0.000000 0.000000 -0.001645 0.000000 0.050040
#
#
# Mechanical properties :
#
#
# Convention : Reuss Voigt Hill
#
# Bulk Modulus (GPa) = 11.26234 22.30613 16.78424
# Shear Modulus (GPa) = 19.40658 31.95437 25.68048
#
# Velocity S-wave (km/s) = 3.02190 3.87767 3.47622
# Velocity P-wave (km/s) = 4.18036 5.52673 4.90001
#
# Compressibility (1/GPa) = 0.08879146
#
# Stress axis : x y z
#
# Youngs Moduli (GPa) = 21.76860 20.17488 82.89003
#
# Poissons Ratio (x) = 0.06619 -0.50700
# Poissons Ratio (y) = 0.07142 1.01327
# Poissons Ratio (z) = -0.13315 0.24662
#
# Static dielectric constant tensor:
#      x y z
#    x 1.829120 0.000000 0.015470 
#    y 0.000000 1.792910 0.000000 
#    z 0.015470 0.000000 1.886590 
# 
# From -- ./inp_files/220221.got.cif
#   From: 2010.05.17/outbox.cif.g08.bks.cpg/sg15_111_cif.got.tgz:220221.got - 2010.06.03 18:47:42.
