data_PCOD9287464
_publ_section_title
;
Structure prediction by ZEFSAII (Michael W. Deem and Ramdas Pophale) SiO2 
 PCOD9287464
Probable space group: C 2/C
;
_chemical_formula_sum "Si O2"
_cell_formula_units_Z 32
_cell_length_a 13.902158
_cell_length_b 14.246257
_cell_length_c 9.514005
_cell_angle_alpha 90.000000
_cell_angle_beta 139.120008
_cell_angle_gamma 90.000000
_cell_volume 1233.220238
_symmetry_space_group_name_H-M "C 2/C"
_symmetry_group_IT_number 15
_symmetry_cell_setting 'monoclinic'
loop_
_space_group_symop_operation_xyz
x,y,z
-x,y,1/2-z
-x,-y,-z
x,-y,1/2+z
1/2+x,1/2+y,z
1/2-x,1/2+y,1/2-z
1/2-x,1/2-y,-z
1/2+x,1/2-y,1/2+z
loop_
_atom_site_type_symbol
_atom_site_label
_atom_site_fract_x
_atom_site_fract_y
_atom_site_fract_z
Si Si1 0.086838 0.814043 0.990099
Si Si2 0.370522 0.518056 0.517239
Si Si3 0.580156 0.843134 0.097720
Si Si4 0.337234 0.029701 0.456211
O O1 0.063174 0.924881 0.983943
O O2 0.000000 0.790068 0.750000
O O3 0.019448 0.748190 0.035391
O O4 0.262372 0.804051 0.176961
O O5 0.500000 0.565337 0.750000
O O6 0.268158 0.564163 0.288007
O O7 0.257963 0.474440 0.508730
O O8 0.617539 0.920865 0.021522
O O9 0.479409 0.906108 0.090317
#
# Coordination Sequence:
#
# PCOD9287464 Si02
#       4
#     8   8   8   8
#     4  10  22  36  63 103 129 168 226 288 326 381
#     4  10  22  41  67 102 133 177 226 283 332 403
#     4  10  23  37  62  99 135 173 215 285 334 394
#     4  10  23  40  65  99 141 180 219 273 351 400
#
# _framework density 25.948326999999999
#
# number of rings (size 3 to 8) (size 9 to 14) (size 15 to 20)
#    0.000    2.000    0.000    1.500   14.000    5.000 
#    0.000    0.000    0.000   13.500    0.000    0.000 
#    0.000    0.000    0.000    0.000    0.000    0.000 
#
# Total GULP energy -89404.550326 kJ/mol
# GULP energy per Si atom -5587.784395 kJ/mol
# Density = 2.588927 g / cm^3
# Si number density = 25.948327 Si / 1000 Ang^3
#
#
#
# Elastic Constant Matrix: (Units=GPa)
#
#
# Indices 1 2 3 4 5 6 
#
# 1 86.5094 32.5026 51.5763 0.0000 30.6756 0.0000
# 2 32.5026 120.2147 17.4292 0.0000 17.3365 0.0000
# 3 51.5763 17.4292 168.3109 0.0000 46.8249 0.0000
# 4 0.0000 0.0000 0.0000 31.0898 0.0000 17.2254
# 5 30.6756 17.3365 46.8249 0.0000 50.8543 0.0000
# 6 0.0000 0.0000 0.0000 17.2254 0.0000 34.1884
#
#
#
# Elastic Compliance Matrix: (Units=1/GPa)
#
#
# Indices 1 2 3 4 5 6 
#
# 1 0.016804 -0.003201 -0.003094 0.000000 -0.006196 0.000000
# 2 -0.003201 0.009360 0.000487 0.000000 -0.001708 0.000000
# 3 -0.003094 0.000487 0.008558 0.000000 -0.006180 0.000000
# 4 0.000000 0.000000 0.000000 0.044621 0.000000 -0.022482
# 5 -0.006196 -0.001708 -0.006180 0.000000 0.029674 0.000000
# 6 0.000000 0.000000 0.000000 -0.022482 0.000000 0.040577
#
#
# Mechanical properties :
#
#
# Convention : Reuss Voigt Hill
#
# Bulk Modulus (GPa) = 43.27994 64.22791 53.75393
# Shear Modulus (GPa) = 29.60118 41.46163 35.53141
#
# Velocity S-wave (km/s) = 3.38120 4.00165 3.70444
# Velocity P-wave (km/s) = 5.65321 6.79389 6.24963
#
# Compressibility (1/GPa) = 0.02310539
#
# Stress axis : x y z
#
# Youngs Moduli (GPa) = 59.51017 106.84118 116.84484
#
# Poissons Ratio (x) = 0.34201 0.36152
# Poissons Ratio (y) = 0.19050 -0.05690
# Poissons Ratio (z) = 0.18413 -0.05202
#
# Static dielectric constant tensor:
#      x y z
#    x 2.071170 0.000000 -0.056090 
#    y 0.000000 2.077870 0.000000 
#    z -0.056090 0.000000 2.206840 
# 
# From -- ./inp_files/97610.got.cif
#   From: 2010.05.17/outbox.cif.g08.bks.cpg/sg15_49_cif.got.tgz:97610.got - 2010.06.03 18:47:42.
