data_PCOD9287335
_publ_section_title
;
Structure prediction by ZEFSAII (Michael W. Deem and Ramdas Pophale) SiO2 
 PCOD9287335
Probable space group: C 2/C
;
_chemical_formula_sum "Si O2"
_cell_formula_units_Z 56
_cell_length_a 25.811759
_cell_length_b 12.357727
_cell_length_c 8.971485
_cell_angle_alpha 90.000000
_cell_angle_beta 121.279691
_cell_angle_gamma 90.000000
_cell_volume 2445.711554
_symmetry_space_group_name_H-M "C 2/C"
_symmetry_group_IT_number 15
_symmetry_cell_setting 'monoclinic'
loop_
_space_group_symop_operation_xyz
x,y,z
-x,y,1/2-z
-x,-y,-z
x,-y,1/2+z
1/2+x,1/2+y,z
1/2-x,1/2+y,1/2-z
1/2-x,1/2-y,-z
1/2+x,1/2-y,1/2+z
loop_
_atom_site_type_symbol
_atom_site_label
_atom_site_fract_x
_atom_site_fract_y
_atom_site_fract_z
Si Si1 0.059285 0.435665 0.444565
Si Si2 0.160178 0.060891 0.547686
Si Si3 0.300300 0.911856 0.229080
Si Si4 0.170995 0.139486 0.899122
Si Si5 0.521340 0.832039 0.938077
Si Si6 0.688733 0.875118 0.906768
Si Si7 0.386208 0.235024 0.686929
O O1 0.065405 0.564971 0.468949
O O2 0.105399 0.358684 0.426226
O O3 0.000000 0.427683 0.250000
O O4 0.036342 0.385074 0.565068
O O5 0.228809 0.078318 0.588392
O O6 0.162571 0.082083 0.727174
O O7 0.121502 0.152280 0.407924
O O8 0.141848 0.938876 0.477633
O O9 0.304467 0.907599 0.412095
O O10 0.328810 0.806235 0.196502
O O11 0.332546 0.020852 0.216440
O O12 0.152052 0.263593 0.850076
O O13 0.242622 0.147653 0.048863
O O14 0.500000 0.782818 0.750000
O O15 0.557906 0.762862 0.113410
#
# Coordination Sequence:
#
# PCOD9287335 Si02
#       7
#     8   8   8   8   8   8   8
#     4   8  17  35  55  81 122 157 193 252 323 378
#     4  10  22  39  56  82 122 171 212 250 290 360
#     4  10  22  36  55  87 129 160 204 256 303 360
#     4   9  20  39  58  74 117 170 216 249 296 340
#     4   9  18  37  58  84 121 155 195 259 324 378
#     4   9  20  37  56  81 117 169 207 255 297 349
#     4  11  22  33  57  90 119 161 202 246 313 377
#
# _framework density 22.897220999999998
#
# number of rings (size 3 to 8) (size 9 to 14) (size 15 to 20)
#    0.000    2.571    0.000    1.286    6.000    0.000 
#    2.571    0.000    0.000    0.000    0.000   13.000 
#    0.000    0.000    0.000    0.000    0.000    0.000 
#
# Total GULP energy -156493.996348 kJ/mol
# GULP energy per Si atom -5589.071298 kJ/mol
# Density = 2.284511 g / cm^3
# Si number density = 22.897221 Si / 1000 Ang^3
#
#
#
# Elastic Constant Matrix: (Units=GPa)
#
#
# Indices 1 2 3 4 5 6 
#
# 1 28.6457 -8.8043 5.0146 0.0000 2.4826 0.0000
# 2 -8.8043 109.3965 40.4291 0.0000 -3.8953 0.0000
# 3 5.0146 40.4291 91.3225 0.0000 -9.8936 0.0000
# 4 0.0000 0.0000 0.0000 36.7506 0.0000 3.0564
# 5 2.4826 -3.8953 -9.8936 0.0000 25.6993 0.0000
# 6 0.0000 0.0000 0.0000 3.0564 0.0000 19.9095
#
#
#
# Elastic Compliance Matrix: (Units=1/GPa)
#
#
# Indices 1 2 3 4 5 6 
#
# 1 0.037515 0.004545 -0.004581 0.000000 -0.004699 0.000000
# 2 0.004545 0.011481 -0.005417 0.000000 -0.000784 0.000000
# 3 -0.004581 -0.005417 0.014149 0.000000 0.005068 0.000000
# 4 0.000000 0.000000 0.000000 0.027562 0.000000 -0.004231
# 5 -0.004699 -0.000784 0.005068 0.000000 0.041198 0.000000
# 6 0.000000 0.000000 0.000000 -0.004231 0.000000 0.050877
#
#
# Mechanical properties :
#
#
# Convention : Reuss Voigt Hill
#
# Bulk Modulus (GPa) = 19.14293 33.62705 26.38499
# Shear Modulus (GPa) = 23.68524 29.32023 26.50274
#
# Velocity S-wave (km/s) = 3.21972 3.58231 3.40584
# Velocity P-wave (km/s) = 4.71176 5.64168 5.19756
#
# Compressibility (1/GPa) = 0.05223861
#
# Stress axis : x y z
#
# Youngs Moduli (GPa) = 26.65577 87.10096 70.67591
#
# Poissons Ratio (x) = -0.39587 0.32378
# Poissons Ratio (y) = -0.12115 0.38287
# Poissons Ratio (z) = 0.12211 0.47185
#
# Static dielectric constant tensor:
#      x y z
#    x 1.934730 0.000000 0.044500 
#    y 0.000000 1.871370 0.000000 
#    z 0.044500 0.000000 1.885830 
# 
# From -- ./inp_files/69431.got.cif
#   From: 2010.05.17/outbox.cif.g08.bks.cpg/sg15_35_cif.got.tgz:69431.got - 2010.06.03 18:47:42.
