data_PCOD9287197
_publ_section_title
;
Structure prediction by ZEFSAII (Michael W. Deem and Ramdas Pophale) SiO2 
 PCOD9287197
Probable space group: C 2/C
;
_chemical_formula_sum "Si O2"
_cell_formula_units_Z 36
_cell_length_a 14.598210
_cell_length_b 27.427767
_cell_length_c 5.067814
_cell_angle_alpha 90.000000
_cell_angle_beta 112.919834
_cell_angle_gamma 90.000000
_cell_volume 1868.935174
_symmetry_space_group_name_H-M "C 2/C"
_symmetry_group_IT_number 15
_symmetry_cell_setting 'monoclinic'
loop_
_space_group_symop_operation_xyz
x,y,z
-x,y,1/2-z
-x,-y,-z
x,-y,1/2+z
1/2+x,1/2+y,z
1/2-x,1/2+y,1/2-z
1/2-x,1/2-y,-z
1/2+x,1/2-y,1/2+z
loop_
_atom_site_type_symbol
_atom_site_label
_atom_site_fract_x
_atom_site_fract_y
_atom_site_fract_z
Si Si1 0.500000 0.203333 0.250000
Si Si2 0.890978 0.635624 0.758115
Si Si3 0.783414 0.802356 0.650572
Si Si4 0.909454 0.798154 0.308309
Si Si5 0.119467 0.474315 0.337086
O O1 0.585904 0.169417 0.464237
O O2 0.450939 0.242671 0.394568
O O3 0.806962 0.660783 0.489995
O O4 0.863219 0.579198 0.761542
O O5 0.000000 0.635104 0.750000
O O6 0.750000 0.750000 0.500000
O O7 0.870929 0.817483 0.542606
O O8 0.822553 0.797500 0.991407
O O9 0.000000 0.823270 0.250000
O O10 0.157858 0.485959 0.671831
O O11 0.000000 0.478734 0.250000
#
# Coordination Sequence:
#
# PCOD9287197 Si02
#       5
#     4   8   8   8   8
#     4  10  22  34  52  74 112 150 178 222 258 308
#     4  11  24  33  56  79 112 146 187 217 261 328
#     4  12  21  36  54  78 106 146 183 220 265 317
#     4  10  23  37  53  72 111 144 181 224 265 303
#     4   9  20  36  51  72 103 142 179 221 265 306
#
# _framework density 19.262304
#
# number of rings (size 3 to 8) (size 9 to 14) (size 15 to 20)
#    0.667    0.889    2.222    2.667   10.889    0.000 
#    0.000    0.000    0.000    0.000    0.000    0.000 
#    0.000   17.778    0.000    0.000    0.000    0.000 
#
# Total GULP energy -100344.239388 kJ/mol
# GULP energy per Si atom -5574.679966 kJ/mol
# Density = 1.921846 g / cm^3
# Si number density = 19.262304 Si / 1000 Ang^3
#
#
#
# Elastic Constant Matrix: (Units=GPa)
#
#
# Indices 1 2 3 4 5 6 
#
# 1 68.2650 16.1287 8.4462 0.0000 -5.8015 0.0000
# 2 16.1287 61.9048 25.6676 0.0000 2.9910 0.0000
# 3 8.4462 25.6676 93.2340 0.0000 -3.8792 0.0000
# 4 0.0000 0.0000 0.0000 18.3472 0.0000 -0.2545
# 5 -5.8015 2.9910 -3.8792 0.0000 28.4695 0.0000
# 6 0.0000 0.0000 0.0000 -0.2545 0.0000 5.8377
#
#
#
# Elastic Compliance Matrix: (Units=1/GPa)
#
#
# Indices 1 2 3 4 5 6 
#
# 1 0.015992 -0.004299 -0.000111 0.000000 0.003695 0.000000
# 2 -0.004299 0.019587 -0.005154 0.000000 -0.003636 0.000000
# 3 -0.000111 -0.005154 0.012246 0.000000 0.002187 0.000000
# 4 0.000000 0.000000 0.000000 0.054537 0.000000 0.002378
# 5 0.003695 -0.003636 0.002187 0.000000 0.036558 0.000000
# 6 0.000000 0.000000 0.000000 0.002378 0.000000 0.171405
#
#
# Mechanical properties :
#
#
# Convention : Reuss Voigt Hill
#
# Bulk Modulus (GPa) = 34.84855 35.98765 35.41810
# Shear Modulus (GPa) = 14.74841 22.07496 18.41169
#
# Velocity S-wave (km/s) = 2.77006 3.38896 3.09502
# Velocity P-wave (km/s) = 5.32558 5.83412 5.58564
#
# Compressibility (1/GPa) = 0.02869560
#
# Stress axis : x y z
#
# Youngs Moduli (GPa) = 62.52993 51.05528 81.66094
#
# Poissons Ratio (x) = 0.21948 0.00910
# Poissons Ratio (y) = 0.26881 0.42089
# Poissons Ratio (z) = 0.00697 0.26314
#
# Static dielectric constant tensor:
#      x y z
#    x 1.781510 0.000000 -0.027790 
#    y 0.000000 1.674370 0.000000 
#    z -0.027790 0.000000 1.718760 
# 
# From -- ./inp_files/7895.got.cif
#   From: 2010.05.17/outbox.cif.g08.bks.cpg/sg15_4_cif.got.tgz:7895.got - 2010.06.03 18:47:42.
