data_PCOD9287010
_publ_section_title
;
Structure prediction by ZEFSAII (Michael W. Deem and Ramdas Pophale) SiO2 
 PCOD9287010
Probable space group: C 2/C
;
_chemical_formula_sum "Si O2"
_cell_formula_units_Z 56
_cell_length_a 29.004784
_cell_length_b 11.915576
_cell_length_c 14.294282
_cell_angle_alpha 90.000000
_cell_angle_beta 31.102315
_cell_angle_gamma 90.000000
_cell_volume 2551.963502
_symmetry_space_group_name_H-M "C 2/C"
_symmetry_group_IT_number 15
_symmetry_cell_setting 'monoclinic'
loop_
_space_group_symop_operation_xyz
x,y,z
-x,y,1/2-z
-x,-y,-z
x,-y,1/2+z
1/2+x,1/2+y,z
1/2-x,1/2+y,1/2-z
1/2-x,1/2-y,-z
1/2+x,1/2-y,1/2+z
loop_
_atom_site_type_symbol
_atom_site_label
_atom_site_fract_x
_atom_site_fract_y
_atom_site_fract_z
Si Si1 0.721784 0.234331 0.658858
Si Si2 0.788171 0.403620 0.015970
Si Si3 0.184880 0.952893 0.836363
Si Si4 0.579589 0.269169 0.683569
Si Si5 0.991700 0.001376 0.124918
Si Si6 0.658740 0.347527 0.072755
Si Si7 0.912391 0.430203 0.183034
O O1 0.750000 0.250000 0.500000
O O2 0.677598 0.344320 0.780530
O O3 0.820572 0.230697 0.532819
O O4 0.653616 0.129487 0.778606
O O5 0.755059 0.465114 0.166349
O O6 0.705475 0.379889 0.089365
O O7 0.832508 0.284247 0.958081
O O8 0.853215 0.484918 0.846606
O O9 0.204782 0.910626 0.905756
O O10 0.088382 0.011094 0.002687
O O11 0.500000 0.251107 0.750000
O O12 0.567826 0.391947 0.747126
O O13 0.566038 0.174839 0.786663
O O14 0.941943 0.890422 0.246049
O O15 0.000000 0.000000 0.000000
O O16 0.000000 0.500000 0.000000
#
# Coordination Sequence:
#
# PCOD9287010 Si02
#       7
#     8   8   8   8   8   8   8
#     4  10  21  45  71  99 141 190 238 286 359 436
#     4  11  25  49  67 105 150 182 240 312 363 428
#     4  12  24  46  74 104 139 198 239 298 368 436
#     4  11  24  44  70 104 138 183 247 294 346 440
#     4  12  24  44  71 102 140 181 239 301 361 431
#     4  11  27  44  72 105 141 186 244 304 368 436
#     4  11  25  44  72 102 144 197 235 294 375 432
#
# _framework density 21.943888999999999
#
# number of rings (size 3 to 8) (size 9 to 14) (size 15 to 20)
#    0.000    0.857    4.286    3.857    4.000    4.571 
#    2.571    0.000    0.000    0.000    0.000    0.000 
#    0.000    0.000    0.000    0.000    0.000    0.000 
#
# Total GULP energy -156632.935494 kJ/mol
# GULP energy per Si atom -5594.033410 kJ/mol
# Density = 2.189394 g / cm^3
# Si number density = 21.943889 Si / 1000 Ang^3
#
#
#
# Elastic Constant Matrix: (Units=GPa)
#
#
# Indices 1 2 3 4 5 6 
#
# 1 70.9131 25.9638 6.1326 0.0000 -0.4518 0.0000
# 2 25.9638 135.5596 51.3758 0.0000 -0.3361 0.0000
# 3 6.1326 51.3758 100.0114 0.0000 -11.5827 0.0000
# 4 0.0000 0.0000 0.0000 42.9697 0.0000 -4.0145
# 5 -0.4518 -0.3361 -11.5827 0.0000 38.7848 0.0000
# 6 0.0000 0.0000 0.0000 -4.0145 0.0000 29.7603
#
#
#
# Elastic Compliance Matrix: (Units=1/GPa)
#
#
# Indices 1 2 3 4 5 6 
#
# 1 0.015210 -0.003198 0.000753 0.000000 0.000374 0.000000
# 2 -0.003198 0.009904 -0.005061 0.000000 -0.001463 0.000000
# 3 0.000753 -0.005061 0.012998 0.000000 0.003847 0.000000
# 4 0.000000 0.000000 0.000000 0.023569 0.000000 0.003179
# 5 0.000374 -0.001463 0.003847 0.000000 0.026924 0.000000
# 6 0.000000 0.000000 0.000000 0.003179 0.000000 0.034031
#
#
# Mechanical properties :
#
#
# Convention : Reuss Voigt Hill
#
# Bulk Modulus (GPa) = 43.28815 52.60317 47.94566
# Shear Modulus (GPa) = 34.40071 37.17040 35.78555
#
# Velocity S-wave (km/s) = 3.96367 4.12015 4.04267
# Velocity P-wave (km/s) = 6.38100 6.83066 6.60965
#
# Compressibility (1/GPa) = 0.02310101
#
# Stress axis : x y z
#
# Youngs Moduli (GPa) = 65.74704 100.97257 76.93542
#
# Poissons Ratio (x) = 0.32288 -0.05796
# Poissons Ratio (y) = 0.21024 0.38936
# Poissons Ratio (z) = -0.04953 0.51101
#
# Static dielectric constant tensor:
#      x y z
#    x 1.865300 0.000000 -0.005340 
#    y 0.000000 1.783740 0.000000 
#    z -0.005340 0.000000 1.773550 
# 
# From -- ./inp_files/181880.got.cif
#   From: 2010.05.17/outbox.cif.g08.bks.cpg/sg15_91_cif.got.tgz:181880.got - 2010.06.03 18:47:42.
