data_PCOD9287547
_publ_section_title
;
Structure prediction by ZEFSAII (Michael W. Deem and Ramdas Pophale) SiO2 
 PCOD9287547
Probable space group: C 2/C
;
_chemical_formula_sum "Si O2"
_cell_formula_units_Z 52
_cell_length_a 25.865223
_cell_length_b 14.341774
_cell_length_c 9.224149
_cell_angle_alpha 90.000000
_cell_angle_beta 35.404874
_cell_angle_gamma 90.000000
_cell_volume 1982.379535
_symmetry_space_group_name_H-M "C 2/C"
_symmetry_group_IT_number 15
_symmetry_cell_setting 'monoclinic'
loop_
_space_group_symop_operation_xyz
x,y,z
-x,y,1/2-z
-x,-y,-z
x,-y,1/2+z
1/2+x,1/2+y,z
1/2-x,1/2+y,1/2-z
1/2-x,1/2-y,-z
1/2+x,1/2-y,1/2+z
loop_
_atom_site_type_symbol
_atom_site_label
_atom_site_fract_x
_atom_site_fract_y
_atom_site_fract_z
Si Si1 0.854607 0.225033 0.613464
Si Si2 0.500000 0.960782 0.250000
Si Si3 0.344434 0.298996 0.809565
Si Si4 0.754320 0.091972 0.070443
Si Si5 0.533785 0.255625 0.384705
Si Si6 0.593524 0.563270 0.572209
Si Si7 0.893422 0.428131 0.782498
O O1 0.854224 0.181444 0.457126
O O2 0.807579 0.328035 0.709594
O O3 0.946640 0.234205 0.490538
O O4 0.804641 0.156541 0.838203
O O5 0.466529 0.922667 0.483258
O O6 0.581536 0.019052 0.130025
O O7 0.431479 0.232539 0.582450
O O8 0.362827 0.389648 0.669505
O O9 0.250000 0.250000 0.000000
O O10 0.690909 0.033125 0.109697
O O11 0.821523 0.037228 0.021308
O O12 0.554420 0.351197 0.256955
O O13 0.607439 0.179990 0.169030
O O14 0.500000 0.508243 0.750000
#
# Coordination Sequence:
#
# PCOD9287547 Si02
#       7
#     8   4   8   8   8   8   8
#     4   9  17  29  44  71  97 124 175 191 230 320
#     4  10  24  38  48  76  92 128 186 238 242 298
#     4  11  19  24  42  72 102 128 170 203 218 289
#     4   9  17  32  50  66  96 137 154 202 261 301
#     4   9  20  32  49  65 101 150 159 190 262 301
#     4   9  18  31  45  78 109 130 164 193 239 323
#     4  10  22  37  54  66  99 130 180 219 264 288
#
# _framework density 26.231103000000001
#
# number of rings (size 3 to 8) (size 9 to 14) (size 15 to 20)
#    0.000    2.462    1.538    1.385    7.538    0.000 
#    0.000    1.538    0.000    0.000    0.000    1.077 
#    0.000    0.000    0.000    0.000    0.000    0.000 
#
# Total GULP energy -144930.853377 kJ/mol
# GULP energy per Si atom -5574.263591 kJ/mol
# Density = 2.617140 g / cm^3
# Si number density = 26.231103 Si / 1000 Ang^3
#
#
#
# Elastic Constant Matrix: (Units=GPa)
#
#
# Indices 1 2 3 4 5 6 
#
# 1 227.0803 22.7757 41.1468 0.0000 -15.6325 0.0000
# 2 22.7757 26.9646 7.0772 0.0000 6.4863 0.0000
# 3 41.1468 7.0772 61.8495 0.0000 -0.6467 0.0000
# 4 0.0000 0.0000 0.0000 -4.5591 0.0000 28.6233
# 5 -15.6325 6.4863 -0.6467 0.0000 60.4995 0.0000
# 6 0.0000 0.0000 0.0000 28.6233 0.0000 -61.2449
#
#
#
# Elastic Compliance Matrix: (Units=1/GPa)
#
#
# Indices 1 2 3 4 5 6 
#
# 1 0.005537 -0.004291 -0.003173 0.000000 0.001857 0.000000
# 2 -0.004291 0.042628 -0.002083 0.000000 -0.005701 0.000000
# 3 -0.003173 -0.002083 0.018513 0.000000 -0.000399 0.000000
# 4 0.000000 0.000000 0.000000 0.113402 0.000000 0.053000
# 5 0.001857 -0.005701 -0.000399 0.000000 0.017616 0.000000
# 6 0.000000 0.000000 0.000000 0.053000 0.000000 0.008442
#
#
# Mechanical properties :
#
#
# Convention : Reuss Voigt Hill
#
# Bulk Modulus (GPa) = 21.01511 50.87710 35.94611
# Shear Modulus (GPa) = 20.73886 15.26539 18.00212
#
# Velocity S-wave (km/s) = 2.81485 2.41500 2.62255
# Velocity P-wave (km/s) = 4.31201 5.21671 4.78579
#
# Compressibility (1/GPa) = 0.04758481
#
# Stress axis : x y z
#
# Youngs Moduli (GPa) = 180.60786 23.45884 54.01465
#
# Poissons Ratio (x) = 0.10065 0.17140
# Poissons Ratio (y) = 0.77490 0.11251
# Poissons Ratio (z) = 0.57310 0.04886
#
# Static dielectric constant tensor:
#      x y z
#    x 2.077500 0.000000 -0.091660 
#    y 0.000000 2.128130 0.000000 
#    z -0.091660 0.000000 2.186470 
# 
# From -- ./inp_files/63365.got.cif
#   From: 2010.05.17/outbox.cif.g08.bks.cpg/sg15_32_cif.got.tgz:63365.got - 2010.06.03 18:47:42.
