data_PCOD9287362
_publ_section_title
;
Structure prediction by ZEFSAII (Michael W. Deem and Ramdas Pophale) SiO2 
 PCOD9287362
Probable space group: C 2/C
;
_chemical_formula_sum "Si O2"
_cell_formula_units_Z 64
_cell_length_a 24.386685
_cell_length_b 18.989465
_cell_length_c 17.962542
_cell_angle_alpha 90.000000
_cell_angle_beta 156.056973
_cell_angle_gamma 90.000000
_cell_volume 3375.789426
_symmetry_space_group_name_H-M "C 2/C"
_symmetry_group_IT_number 15
_symmetry_cell_setting 'monoclinic'
loop_
_space_group_symop_operation_xyz
x,y,z
-x,y,1/2-z
-x,-y,-z
x,-y,1/2+z
1/2+x,1/2+y,z
1/2-x,1/2+y,1/2-z
1/2-x,1/2-y,-z
1/2+x,1/2-y,1/2+z
loop_
_atom_site_type_symbol
_atom_site_label
_atom_site_fract_x
_atom_site_fract_y
_atom_site_fract_z
Si Si1 0.569875 0.104499 0.571993
Si Si2 0.154151 0.881723 0.438086
Si Si3 0.352002 0.465938 0.223277
Si Si4 0.577649 0.591138 0.108900
Si Si5 0.216780 0.540847 0.261169
Si Si6 0.273139 0.750364 0.656817
Si Si7 0.905760 0.758429 0.916042
Si Si8 0.392340 0.891855 0.552330
O O1 0.424455 0.083036 0.423656
O O2 0.621574 0.182614 0.655191
O O3 0.547721 0.110388 0.455395
O O4 0.673678 0.040837 0.715054
O O5 0.151791 0.928796 0.361109
O O6 0.204444 0.930565 0.568528
O O7 0.239936 0.810519 0.555324
O O8 0.000000 0.856376 0.250000
O O9 0.413651 0.543755 0.306644
O O10 0.438040 0.421920 0.391127
O O11 0.196690 0.461923 0.054235
O O12 0.686814 0.557564 0.187996
O O13 0.605672 0.673337 0.150012
O O14 0.194191 0.769982 0.636782
O O15 0.205501 0.675076 0.556712
O O16 0.434843 0.744338 0.863743
O O17 0.500000 0.891127 0.750000
#
# Coordination Sequence:
#
# PCOD9287362 Si02
#       8
#     8   8   8   8   8   8   8   8
#     4  10  22  36  58  82 114 156 198 240 294 349
#     4  12  22  37  56  85 117 159 195 241 300 355
#     4  11  23  35  57  82 115 154 195 238 285 347
#     4  11  21  39  59  81 118 154 198 245 283 347
#     4  11  20  39  58  81 116 155 199 246 287 352
#     4  11  23  35  56  88 124 160 191 233 298 369
#     4  11  20  39  59  88 118 161 195 243 297 357
#     4  11  22  35  51  86 123 155 187 233 291 359
#
# _framework density 18.958528000000001
#
# number of rings (size 3 to 8) (size 9 to 14) (size 15 to 20)
#    0.000    1.000    6.250    1.125    1.750    1.500 
#    0.000    0.000    0.000    0.750    0.000    0.875 
#    0.000    0.000    0.000    0.000    0.000    0.000 
#
# Total GULP energy -178559.287638 kJ/mol
# GULP energy per Si atom -5579.977739 kJ/mol
# Density = 1.891538 g / cm^3
# Si number density = 18.958528 Si / 1000 Ang^3
#
#
#
# Elastic Constant Matrix: (Units=GPa)
#
#
# Indices 1 2 3 4 5 6 
#
# 1 43.9470 1.6969 8.8282 0.0000 5.2544 0.0000
# 2 1.6969 128.8091 22.7650 0.0000 -16.2842 0.0000
# 3 8.8282 22.7650 61.7129 0.0000 6.4434 0.0000
# 4 0.0000 0.0000 0.0000 34.3752 0.0000 -3.0942
# 5 5.2544 -16.2842 6.4434 0.0000 29.3865 0.0000
# 6 0.0000 0.0000 0.0000 -3.0942 0.0000 24.2163
#
#
#
# Elastic Compliance Matrix: (Units=1/GPa)
#
#
# Indices 1 2 3 4 5 6 
#
# 1 0.023801 -0.000276 -0.002909 0.000000 -0.003771 0.000000
# 2 -0.000276 0.009238 -0.004000 0.000000 0.006046 0.000000
# 3 -0.002909 -0.004000 0.018701 0.000000 -0.005797 0.000000
# 4 0.000000 0.000000 0.000000 0.029429 0.000000 0.003760
# 5 -0.003771 0.006046 -0.005797 0.000000 0.039324 0.000000
# 6 0.000000 0.000000 0.000000 0.003760 0.000000 0.041775
#
#
# Mechanical properties :
#
#
# Convention : Reuss Voigt Hill
#
# Bulk Modulus (GPa) = 26.75948 33.44993 30.10470
# Shear Modulus (GPa) = 26.44178 31.00751 28.72465
#
# Velocity S-wave (km/s) = 3.73864 4.04857 3.89669
# Velocity P-wave (km/s) = 5.72556 6.28782 6.01326
#
# Compressibility (1/GPa) = 0.03736993
#
# Stress axis : x y z
#
# Youngs Moduli (GPa) = 42.01572 108.24611 53.47358
#
# Poissons Ratio (x) = 0.02989 0.15557
# Poissons Ratio (y) = 0.01160 0.21387
# Poissons Ratio (z) = 0.12223 0.43294
#
# Static dielectric constant tensor:
#      x y z
#    x 1.744810 0.000000 0.033260 
#    y 0.000000 1.726230 0.000000 
#    z 0.033260 0.000000 1.643200 
# 
# From -- ./inp_files/223176.got.cif
#   From: 2010.05.17/outbox.cif.g08.bks.cpg/sg15_112_cif.got.tgz:223176.got - 2010.06.03 18:47:42.
