data_PCOD9287826
_publ_section_title
;
Structure prediction by ZEFSAII (Michael W. Deem and Ramdas Pophale) SiO2 
 PCOD9287826
Probable space group: C 2/C
;
_chemical_formula_sum "Si O2"
_cell_formula_units_Z 36
_cell_length_a 23.247299
_cell_length_b 5.073086
_cell_length_c 13.758787
_cell_angle_alpha 90.000000
_cell_angle_beta 90.242140
_cell_angle_gamma 90.000000
_cell_volume 1622.635582
_symmetry_space_group_name_H-M "C 2/C"
_symmetry_group_IT_number 15
_symmetry_cell_setting 'monoclinic'
loop_
_space_group_symop_operation_xyz
x,y,z
-x,y,1/2-z
-x,-y,-z
x,-y,1/2+z
1/2+x,1/2+y,z
1/2-x,1/2+y,1/2-z
1/2-x,1/2-y,-z
1/2+x,1/2-y,1/2+z
loop_
_atom_site_type_symbol
_atom_site_label
_atom_site_fract_x
_atom_site_fract_y
_atom_site_fract_z
Si Si1 0.377954 0.337483 0.247828
Si Si2 0.470184 0.248987 0.953351
Si Si3 0.500000 0.531895 0.250000
Si Si4 0.853728 0.662525 0.877245
Si Si5 0.761594 0.720889 0.185419
O O1 0.444813 0.353745 0.221679
O O2 0.364053 0.625399 0.290917
O O3 0.329272 0.266536 0.168641
O O4 0.368128 0.124771 0.333961
O O5 0.483665 0.284163 0.839745
O O6 0.401043 0.230518 0.958179
O O7 0.500000 0.500000 0.000000
O O8 0.500000 0.000000 0.000000
O O9 0.785782 0.700076 0.894991
O O10 0.752743 0.425365 0.225715
#
# Coordination Sequence:
#
# PCOD9287826 Si02
#       5
#     8   8   4   8   8
#     4   9  17  29  51  78 104 140 178 220 272 320
#     4  11  23  37  56  82 111 147 185 225 275 326
#     4  10  22  38  58  82 116 144 182 230 274 330
#     4   9  17  31  50  75 106 139 180 224 266 319
#     4   8  14  26  46  73 101 133 178 219 260 319
#
# _framework density 22.186129999999999
#
# number of rings (size 3 to 8) (size 9 to 14) (size 15 to 20)
#    0.000    2.667    0.000    2.667    0.000    8.000 
#    0.000    0.000    0.000    2.667    0.000    0.000 
#    0.000    0.000    0.000    0.000    0.000    0.000 
#
# Total GULP energy -100362.880241 kJ/mol
# GULP energy per Si atom -5575.715569 kJ/mol
# Density = 2.213563 g / cm^3
# Si number density = 22.186130 Si / 1000 Ang^3
#
#
#
# Elastic Constant Matrix: (Units=GPa)
#
#
# Indices 1 2 3 4 5 6 
#
# 1 191.6862 23.2991 54.0490 0.0000 65.0533 0.0000
# 2 23.2991 117.2222 20.8197 0.0000 10.5931 0.0000
# 3 54.0490 20.8197 70.2579 0.0000 27.4986 0.0000
# 4 0.0000 0.0000 0.0000 21.0379 0.0000 12.4799
# 5 65.0533 10.5931 27.4986 0.0000 58.5208 0.0000
# 6 0.0000 0.0000 0.0000 12.4799 0.0000 26.9335
#
#
#
# Elastic Compliance Matrix: (Units=1/GPa)
#
#
# Indices 1 2 3 4 5 6 
#
# 1 0.009130 -0.000414 -0.003625 0.000000 -0.008371 0.000000
# 2 -0.000414 0.009034 -0.002326 0.000000 -0.000081 0.000000
# 3 -0.003625 -0.002326 0.019568 0.000000 -0.004745 0.000000
# 4 0.000000 0.000000 0.000000 0.065551 0.000000 -0.030374
# 5 -0.008371 -0.000081 -0.004745 0.000000 0.028638 0.000000
# 6 0.000000 0.000000 0.000000 -0.030374 0.000000 0.051202
#
#
# Mechanical properties :
#
#
# Convention : Reuss Voigt Hill
#
# Bulk Modulus (GPa) = 39.99784 63.94466 51.97125
# Shear Modulus (GPa) = 24.48728 40.03169 32.25949
#
# Velocity S-wave (km/s) = 3.32583 4.25238 3.81732
# Velocity P-wave (km/s) = 5.72850 7.27975 6.55021
#
# Compressibility (1/GPa) = 0.02500135
#
# Stress axis : x y z
#
# Youngs Moduli (GPa) = 109.52658 110.69642 51.10381
#
# Poissons Ratio (x) = 0.04588 0.18523
# Poissons Ratio (y) = 0.04540 0.11888
# Poissons Ratio (z) = 0.39698 0.25751
#
# Static dielectric constant tensor:
#      x y z
#    x 1.950450 0.000000 0.058460 
#    y 0.000000 1.755860 0.000000 
#    z 0.058460 0.000000 1.839730 
# 
# From -- ./inp_files/120585.got.cif
#   From: 2010.05.17/outbox.cif.g08.bks.cpg/sg15_61_cif.got.tgz:120585.got - 2010.06.03 18:47:42.
