data_PCOD9287790
_publ_section_title
;
Structure prediction by ZEFSAII (Michael W. Deem and Ramdas Pophale) SiO2 
 PCOD9287790
Probable space group: C 2/C
;
_chemical_formula_sum "Si O2"
_cell_formula_units_Z 36
_cell_length_a 25.331141
_cell_length_b 4.925796
_cell_length_c 10.315411
_cell_angle_alpha 90.000000
_cell_angle_beta 103.504171
_cell_angle_gamma 90.000000
_cell_volume 1251.531067
_symmetry_space_group_name_H-M "C 2/C"
_symmetry_group_IT_number 15
_symmetry_cell_setting 'monoclinic'
loop_
_space_group_symop_operation_xyz
x,y,z
-x,y,1/2-z
-x,-y,-z
x,-y,1/2+z
1/2+x,1/2+y,z
1/2-x,1/2+y,1/2-z
1/2-x,1/2-y,-z
1/2+x,1/2-y,1/2+z
loop_
_atom_site_type_symbol
_atom_site_label
_atom_site_fract_x
_atom_site_fract_y
_atom_site_fract_z
Si Si1 0.500000 0.218047 0.750000
Si Si2 0.406254 0.045952 0.046305
Si Si3 0.183538 0.067860 0.263184
Si Si4 0.704958 0.069504 0.091423
Si Si5 0.926582 0.955708 0.382795
O O1 0.450026 0.028460 0.679170
O O2 0.519782 0.418560 0.647987
O O3 0.343142 0.974535 0.039519
O O4 0.424048 0.844317 0.938288
O O5 0.410630 0.344784 0.991453
O O6 0.230805 0.032595 0.397526
O O7 0.189618 0.355490 0.196054
O O8 0.121144 0.995357 0.252051
O O9 0.198262 0.856098 0.157356
#
# Coordination Sequence:
#
# PCOD9287790 Si02
#       5
#     4   8   8   8   8
#     4  12  24  38  58  80 108 150 184 220 268 316
#     4  10  22  38  56  81 110 141 181 224 266 318
#     4   8  14  28  51  75 101 134 169 212 266 314
#     4   8  14  28  51  75 101 134 169 212 266 314
#     4  10  22  38  56  81 110 141 181 224 266 318
#
# _framework density 28.764766999999999
#
# number of rings (size 3 to 8) (size 9 to 14) (size 15 to 20)
#    0.000    2.667    0.000    1.333    0.000    3.556 
#    0.000    1.111    0.000    0.000    0.000   31.111 
#    0.000    0.000    0.000    0.000    0.000    0.000 
#
# Total GULP energy -101008.316708 kJ/mol
# GULP energy per Si atom -5611.573150 kJ/mol
# Density = 2.869930 g / cm^3
# Si number density = 28.764767 Si / 1000 Ang^3
#
#
#
# Elastic Constant Matrix: (Units=GPa)
#
#
# Indices 1 2 3 4 5 6 
#
# 1 133.7414 9.2375 59.0336 0.0000 43.5131 0.0000
# 2 9.2375 111.5957 48.8303 0.0000 -13.4155 0.0000
# 3 59.0336 48.8303 136.0916 0.0000 34.6560 0.0000
# 4 0.0000 0.0000 0.0000 31.2102 0.0000 10.3498
# 5 43.5131 -13.4155 34.6560 0.0000 77.3874 0.0000
# 6 0.0000 0.0000 0.0000 10.3498 0.0000 33.0618
#
#
#
# Elastic Compliance Matrix: (Units=1/GPa)
#
#
# Indices 1 2 3 4 5 6 
#
# 1 0.010386 0.000149 -0.003474 0.000000 -0.004258 0.000000
# 2 0.000149 0.011860 -0.005443 0.000000 0.004410 0.000000
# 3 -0.003474 -0.005443 0.011909 0.000000 -0.004323 0.000000
# 4 0.000000 0.000000 0.000000 0.035752 0.000000 -0.011192
# 5 -0.004258 0.004410 -0.004323 0.000000 0.018017 0.000000
# 6 0.000000 0.000000 0.000000 -0.011192 0.000000 0.033750
#
#
# Mechanical properties :
#
#
# Convention : Reuss Voigt Hill
#
# Bulk Modulus (GPa) = 60.17602 68.40349 64.28975
# Shear Modulus (GPa) = 34.54214 45.95369 40.24792
#
# Velocity S-wave (km/s) = 3.46909 4.00130 3.74466
# Velocity P-wave (km/s) = 6.08371 6.72154 6.41056
#
# Compressibility (1/GPa) = 0.01661792
#
# Stress axis : x y z
#
# Youngs Moduli (GPa) = 96.28634 84.31365 83.97090
#
# Poissons Ratio (x) = -0.01252 0.29172
# Poissons Ratio (y) = -0.01430 0.45706
# Poissons Ratio (z) = 0.33450 0.45892
#
# Static dielectric constant tensor:
#      x y z
#    x 2.226570 0.000000 0.134630 
#    y 0.000000 2.134890 0.000000 
#    z 0.134630 0.000000 2.276420 
# 
# From -- ./inp_files/16702.got.cif
#   From: 2010.05.17/outbox.cif.g08.bks.cpg/sg15_9_cif.got.tgz:16702.got - 2010.06.03 18:47:42.
