data_PCOD9287977
_publ_section_title
;
Structure prediction by ZEFSAII (Michael W. Deem and Ramdas Pophale) SiO2 
 PCOD9287977
Probable space group: C 2/C
;
_chemical_formula_sum "Si O2"
_cell_formula_units_Z 52
_cell_length_a 8.079107
_cell_length_b 27.946115
_cell_length_c 21.250090
_cell_angle_alpha 90.000000
_cell_angle_beta 37.343339
_cell_angle_gamma 90.000000
_cell_volume 2910.320186
_symmetry_space_group_name_H-M "C 2/C"
_symmetry_group_IT_number 15
_symmetry_cell_setting 'monoclinic'
loop_
_space_group_symop_operation_xyz
x,y,z
-x,y,1/2-z
-x,-y,-z
x,-y,1/2+z
1/2+x,1/2+y,z
1/2-x,1/2+y,1/2-z
1/2-x,1/2-y,-z
1/2+x,1/2-y,1/2+z
loop_
_atom_site_type_symbol
_atom_site_label
_atom_site_fract_x
_atom_site_fract_y
_atom_site_fract_z
Si Si1 0.885602 0.847979 0.982670
Si Si2 0.084600 0.690799 0.793482
Si Si3 0.496566 0.068934 0.551223
Si Si4 0.457089 0.115879 0.338474
Si Si5 0.253636 0.794743 0.774127
Si Si6 0.173139 0.466798 0.859786
Si Si7 0.000000 0.127994 0.750000
O O1 0.146105 0.868064 0.941612
O O2 0.005950 0.816927 0.889000
O O3 0.685188 0.815113 0.083058
O O4 0.717414 0.894058 0.010941
O O5 0.179849 0.745738 0.763145
O O6 0.317813 0.660093 0.758044
O O7 0.000000 0.673469 0.750000
O O8 0.592565 0.054732 0.452322
O O9 0.206692 0.095887 0.646162
O O10 0.457418 0.019693 0.601548
O O11 0.500000 0.109508 0.250000
O O12 0.640610 0.161850 0.301142
O O13 0.546414 0.068816 0.347072
O O14 0.500000 0.785400 0.750000
O O15 0.500000 0.469517 0.750000
#
# Coordination Sequence:
#
# PCOD9287977 Si02
#       7
#     8   8   8   8   8   8   4
#     4   9  20  38  56  83 120 156 190 249 306 350
#     4  11  22  35  62  87 119 162 208 239 303 372
#     4  10  22  38  61  83 119 162 199 248 307 361
#     4   9  20  37  60  85 122 147 196 254 299 353
#     4   9  18  38  58  82 119 158 191 251 305 349
#     4  11  21  37  62  88 113 155 212 245 299 373
#     4  10  22  44  56  86 136 164 190 260 306 352
#
# _framework density 17.867450000000002
#
# number of rings (size 3 to 8) (size 9 to 14) (size 15 to 20)
#    0.000    2.462    1.538    2.308    2.154    2.462 
#    0.000    6.154    0.000    0.000    0.000    0.000 
#    0.000    0.000    0.000    0.000    0.000    0.000 
#
# Total GULP energy -144945.541432 kJ/mol
# GULP energy per Si atom -5574.828517 kJ/mol
# Density = 1.782678 g / cm^3
# Si number density = 17.867450 Si / 1000 Ang^3
#
#
#
# Elastic Constant Matrix: (Units=GPa)
#
#
# Indices 1 2 3 4 5 6 
#
# 1 52.2744 32.8411 22.0548 0.0001 -3.1691 -0.0001
# 2 32.8411 104.2654 34.1321 0.0002 -0.7272 -0.0004
# 3 22.0548 34.1321 104.9429 0.0005 -14.3794 -0.0001
# 4 0.0001 0.0002 0.0005 7.8947 -0.0001 5.9128
# 5 -3.1691 -0.7272 -14.3794 -0.0001 16.4492 -0.0001
# 6 -0.0001 -0.0004 -0.0001 5.9128 -0.0001 -30.5467
#
#
#
# Elastic Compliance Matrix: (Units=1/GPa)
#
#
# Indices 1 2 3 4 5 6 
#
# 1 0.024715 -0.006900 -0.002658 0.000000 0.002133 0.000000
# 2 -0.006900 0.012786 -0.003196 0.000000 -0.003558 0.000000
# 3 -0.002658 -0.003196 0.012539 -0.000001 0.010308 0.000000
# 4 0.000000 0.000000 -0.000001 0.110629 0.000000 0.021414
# 5 0.002133 -0.003558 0.010308 0.000000 0.070058 0.000000
# 6 0.000000 0.000000 0.000000 0.021414 0.000000 -0.028592
#
#
# Mechanical properties :
#
#
# Convention : Reuss Voigt Hill
#
# Bulk Modulus (GPa) = 40.76071 48.83761 44.79916
# Shear Modulus (GPa) = 21.20258 10.25643 15.72950
#
# Velocity S-wave (km/s) = 3.44853 2.39849 2.97028
# Velocity P-wave (km/s) = 6.22245 5.92140 6.07379
#
# Compressibility (1/GPa) = 0.02453343
#
# Stress axis : x y z
#
# Youngs Moduli (GPa) = 40.46094 78.21338 79.74852
#
# Poissons Ratio (x) = 0.53965 0.21195
# Poissons Ratio (y) = 0.27917 0.25486
# Poissons Ratio (z) = 0.10753 0.24996
#
# Static dielectric constant tensor:
#      x y z
#    x 1.607610 0.000000 0.000090 
#    y 0.000000 1.602390 0.000000 
#    z 0.000090 0.000000 1.619080 
# 
# From -- ./inp_files/266625.got.cif
#   From: 2010.05.17/outbox.cif.g08.bks.cpg/sg15_134_cif.got.tgz:266625.got - 2010.06.03 18:47:42.
