data_PCOD9287479
_publ_section_title
;
Structure prediction by ZEFSAII (Michael W. Deem and Ramdas Pophale) SiO2 
 PCOD9287479
Probable space group: C 2/C
;
_chemical_formula_sum "Si O2"
_cell_formula_units_Z 36
_cell_length_a 20.930555
_cell_length_b 8.969682
_cell_length_c 12.189890
_cell_angle_alpha 90.000000
_cell_angle_beta 143.029119
_cell_angle_gamma 90.000000
_cell_volume 1376.345744
_symmetry_space_group_name_H-M "C 2/C"
_symmetry_group_IT_number 15
_symmetry_cell_setting 'monoclinic'
loop_
_space_group_symop_operation_xyz
x,y,z
-x,y,1/2-z
-x,-y,-z
x,-y,1/2+z
1/2+x,1/2+y,z
1/2-x,1/2+y,1/2-z
1/2-x,1/2-y,-z
1/2+x,1/2-y,1/2+z
loop_
_atom_site_type_symbol
_atom_site_label
_atom_site_fract_x
_atom_site_fract_y
_atom_site_fract_z
Si Si1 0.383032 0.880228 0.382461
Si Si2 0.028276 0.785042 0.934558
Si Si3 0.370023 0.560510 0.712565
Si Si4 0.500000 0.769147 0.750000
Si Si5 0.213069 0.622537 0.116862
O O1 0.460068 0.854030 0.386070
O O2 0.455248 0.861524 0.588642
O O3 0.306902 0.736787 0.269968
O O4 0.312913 0.024245 0.310991
O O5 0.109231 0.722924 0.955298
O O6 0.099222 0.850444 0.133640
O O7 0.952373 0.924461 0.809026
O O8 0.400577 0.670084 0.656515
O O9 0.255542 0.486182 0.578848
#
# Coordination Sequence:
#
# PCOD9287479 Si02
#       5
#     8   8   8   4   8
#     4  10  22  36  64  87 120 153 201 246 292 346
#     4   9  18  36  60  85 117 154 203 243 283 349
#     4   9  19  36  59  86 121 156 192 243 299 349
#     4  10  22  40  56  88 130 158 182 250 312 338
#     4  11  19  37  63  91 109 160 209 236 280 367
#
# _framework density 26.156220000000001
#
# number of rings (size 3 to 8) (size 9 to 14) (size 15 to 20)
#    0.000    2.222    2.222    2.000    0.000    0.889 
#    0.000    2.222    0.000    0.000    0.000    0.000 
#    0.000    0.000    0.000    0.000    0.000    0.000 
#
# Total GULP energy -100763.167938 kJ/mol
# GULP energy per Si atom -5597.953774 kJ/mol
# Density = 2.609669 g / cm^3
# Si number density = 26.156220 Si / 1000 Ang^3
#
#
#
# Elastic Constant Matrix: (Units=GPa)
#
#
# Indices 1 2 3 4 5 6 
#
# 1 139.7324 56.3050 46.7094 0.0000 29.6189 0.0000
# 2 56.3050 129.3985 25.1801 0.0000 15.6671 0.0000
# 3 46.7094 25.1801 53.6616 0.0000 18.8951 0.0000
# 4 0.0000 0.0000 0.0000 16.9526 0.0000 19.5074
# 5 29.6189 15.6671 18.8951 0.0000 39.7477 0.0000
# 6 0.0000 0.0000 0.0000 19.5074 0.0000 66.7376
#
#
#
# Elastic Compliance Matrix: (Units=1/GPa)
#
#
# Indices 1 2 3 4 5 6 
#
# 1 0.011738 -0.003201 -0.007302 0.000000 -0.004014 0.000000
# 2 -0.003201 0.009480 -0.001425 0.000000 -0.000674 0.000000
# 3 -0.007302 -0.001425 0.028280 0.000000 -0.007441 0.000000
# 4 0.000000 0.000000 0.000000 0.088884 0.000000 -0.025981
# 5 -0.004014 -0.000674 -0.007441 0.000000 0.031953 0.000000
# 6 0.000000 0.000000 0.000000 -0.025981 0.000000 0.022578
#
#
# Mechanical properties :
#
#
# Convention : Reuss Voigt Hill
#
# Bulk Modulus (GPa) = 38.99769 64.35350 51.67559
# Shear Modulus (GPa) = 22.19115 37.66080 29.92598
#
# Velocity S-wave (km/s) = 2.91590 3.79864 3.38616
# Velocity P-wave (km/s) = 5.12626 6.62544 5.92347
#
# Compressibility (1/GPa) = 0.02564255
#
# Stress axis : x y z
#
# Youngs Moduli (GPa) = 85.19378 105.48933 35.36086
#
# Poissons Ratio (x) = 0.33763 0.25820
# Poissons Ratio (y) = 0.27267 0.05039
# Poissons Ratio (z) = 0.62208 0.15031
#
# Static dielectric constant tensor:
#      x y z
#    x 2.044010 0.000000 0.021980 
#    y 0.000000 2.050660 0.000000 
#    z 0.021980 0.000000 2.063720 
# 
# From -- ./inp_files/94427.got.cif
#   From: 2010.05.17/outbox.cif.g08.bks.cpg/sg15_48_cif.got.tgz:94427.got - 2010.06.03 18:47:42.
