data_PCOD9287149
_publ_section_title
;
Structure prediction by ZEFSAII (Michael W. Deem and Ramdas Pophale) SiO2 
 PCOD9287149
Probable space group: C 2/C
;
_chemical_formula_sum "Si O2"
_cell_formula_units_Z 52
_cell_length_a 23.199394
_cell_length_b 16.770784
_cell_length_c 7.481492
_cell_angle_alpha 90.000000
_cell_angle_beta 55.303736
_cell_angle_gamma 90.000000
_cell_volume 2393.237188
_symmetry_space_group_name_H-M "C 2/C"
_symmetry_group_IT_number 15
_symmetry_cell_setting 'monoclinic'
loop_
_space_group_symop_operation_xyz
x,y,z
-x,y,1/2-z
-x,-y,-z
x,-y,1/2+z
1/2+x,1/2+y,z
1/2-x,1/2+y,1/2-z
1/2-x,1/2-y,-z
1/2+x,1/2-y,1/2+z
loop_
_atom_site_type_symbol
_atom_site_label
_atom_site_fract_x
_atom_site_fract_y
_atom_site_fract_z
Si Si1 0.009058 0.607633 0.435332
Si Si2 0.108167 0.624347 0.578969
Si Si3 0.396168 0.606946 0.929810
Si Si4 0.161740 0.204350 0.999590
Si Si5 0.240486 0.167944 0.232403
Si Si6 0.928989 0.937228 0.987831
Si Si7 0.000000 0.238223 0.750000
O O1 0.937622 0.595030 0.672652
O O2 0.928154 0.408837 0.536874
O O3 0.021333 0.701179 0.368188
O O4 0.000000 0.572485 0.250000
O O5 0.106693 0.721803 0.598307
O O6 0.192037 0.612332 0.427615
O O7 0.400547 0.527410 0.037366
O O8 0.438280 0.586853 0.675780
O O9 0.436179 0.684428 0.928360
O O10 0.315755 0.629609 0.037459
O O11 0.196690 0.184431 0.128619
O O12 0.126560 0.125245 0.990854
O O13 0.224671 0.247281 0.777110
O O14 0.000000 0.932107 0.750000
#
# Coordination Sequence:
#
# PCOD9287149 Si02
#       7
#     8   8   8   8   8   8   4
#     4   9  19  29  54  83 113 149 191 243 297 367
#     4   9  17  36  53  78 119 153 189 248 306 348
#     4  12  24  39  54  82 119 164 211 243 296 363
#     4   9  20  36  57  80 113 156 202 242 307 347
#     4   9  21  37  56  80 116 159 201 252 305 351
#     4  12  26  38  59  83 119 168 205 248 297 360
#     4  10  22  32  52  82 116 152 210 240 286 364
#
# _framework density 21.727893999999999
#
# number of rings (size 3 to 8) (size 9 to 14) (size 15 to 20)
#    1.385    0.615    0.769    3.231    6.462    0.615 
#    2.769    0.000    0.000    0.000    0.000    0.000 
#    0.000   22.154    0.000    0.000    0.000    0.000 
#
# Total GULP energy -144836.501363 kJ/mol
# GULP energy per Si atom -5570.634668 kJ/mol
# Density = 2.167844 g / cm^3
# Si number density = 21.727894 Si / 1000 Ang^3
#
#
#
# Elastic Constant Matrix: (Units=GPa)
#
#
# Indices 1 2 3 4 5 6 
#
# 1 98.1429 26.5702 44.6382 0.0000 -3.6877 0.0000
# 2 26.5702 85.9574 15.5695 0.0000 -6.0554 0.0000
# 3 44.6382 15.5695 103.9250 0.0000 -13.2192 0.0000
# 4 0.0000 0.0000 0.0000 26.6964 0.0000 -5.4970
# 5 -3.6877 -6.0554 -13.2192 0.0000 42.1859 0.0000
# 6 0.0000 0.0000 0.0000 -5.4970 0.0000 22.2145
#
#
#
# Elastic Compliance Matrix: (Units=1/GPa)
#
#
# Indices 1 2 3 4 5 6 
#
# 1 0.013509 -0.003260 -0.005440 0.000000 -0.000992 0.000000
# 2 -0.003260 0.012804 -0.000334 0.000000 0.001448 0.000000
# 3 -0.005440 -0.000334 0.012438 0.000000 0.003374 0.000000
# 4 0.000000 0.000000 0.000000 0.039469 0.000000 0.009767
# 5 -0.000992 0.001448 0.003374 0.000000 0.024883 0.000000
# 6 0.000000 0.000000 0.000000 0.009767 0.000000 0.047433
#
#
# Mechanical properties :
#
#
# Convention : Reuss Voigt Hill
#
# Bulk Modulus (GPa) = 48.34889 51.28680 49.81784
# Shear Modulus (GPa) = 28.49032 31.63585 30.06309
#
# Velocity S-wave (km/s) = 3.62502 3.81990 3.72374
# Velocity P-wave (km/s) = 6.31042 6.56589 6.43942
#
# Compressibility (1/GPa) = 0.02068300
#
# Stress axis : x y z
#
# Youngs Moduli (GPa) = 74.02519 78.10129 80.39777
#
# Poissons Ratio (x) = 0.25463 0.43737
# Poissons Ratio (y) = 0.24134 0.02682
# Poissons Ratio (z) = 0.40271 0.02606
#
# Static dielectric constant tensor:
#      x y z
#    x 1.798600 0.000000 0.018040 
#    y 0.000000 1.833600 0.000000 
#    z 0.018040 0.000000 1.835960 
# 
# From -- ./inp_files/66127.got.cif
#   From: 2010.05.17/outbox.cif.g08.bks.cpg/sg15_34_cif.got.tgz:66127.got - 2010.06.03 18:47:42.
