data_PCOD9287246
_publ_section_title
;
Structure prediction by ZEFSAII (Michael W. Deem and Ramdas Pophale) SiO2 
 PCOD9287246
Probable space group: C 2/C
;
_chemical_formula_sum "Si O2"
_cell_formula_units_Z 44
_cell_length_a 16.921419
_cell_length_b 14.224211
_cell_length_c 13.056647
_cell_angle_alpha 90.000000
_cell_angle_beta 129.258951
_cell_angle_gamma 90.000000
_cell_volume 2433.337811
_symmetry_space_group_name_H-M "C 2/C"
_symmetry_group_IT_number 15
_symmetry_cell_setting 'monoclinic'
loop_
_space_group_symop_operation_xyz
x,y,z
-x,y,1/2-z
-x,-y,-z
x,-y,1/2+z
1/2+x,1/2+y,z
1/2-x,1/2+y,1/2-z
1/2-x,1/2-y,-z
1/2+x,1/2-y,1/2+z
loop_
_atom_site_type_symbol
_atom_site_label
_atom_site_fract_x
_atom_site_fract_y
_atom_site_fract_z
Si Si1 0.500000 0.698853 0.250000
Si Si2 0.273583 0.354314 0.559893
Si Si3 0.057251 0.359996 0.693751
Si Si4 0.318044 0.960308 0.199881
Si Si5 0.767700 0.138692 0.292771
Si Si6 0.427031 0.793492 0.395079
O O1 0.603364 0.638604 0.343239
O O2 0.487261 0.762716 0.341447
O O3 0.250000 0.250000 0.500000
O O4 0.215195 0.425500 0.438619
O O5 0.241167 0.361981 0.650730
O O6 0.083188 0.471623 0.719611
O O7 0.171452 0.318390 0.775193
O O8 0.000000 0.331831 0.750000
O O9 0.994806 0.334619 0.541321
O O10 0.344357 0.870567 0.290304
O O11 0.230662 0.030180 0.170876
O O12 0.867543 0.201121 0.385438
#
# Coordination Sequence:
#
# PCOD9287246 Si02
#       6
#     4   8   8   8   8   8
#     4  10  22  34  72  92 114 162 214 258 314 354
#     4  11  19  40  62  92 126 162 207 264 310 357
#     4  10  24  37  59  91 123 163 208 249 314 375
#     4  10  23  35  63  91 125 158 201 269 301 367
#     4   9  23  38  59  92 121 160 205 257 314 358
#     4  11  21  39  62  92 124 161 204 261 309 364
#
# _framework density 18.082158
#
# number of rings (size 3 to 8) (size 9 to 14) (size 15 to 20)
#    1.091    0.727    3.636    1.636    3.818    0.727 
#    0.000    3.636    2.000    0.000    0.000    0.000 
#    0.000    0.000    0.000    0.000    0.000    0.000 
#
# Total GULP energy -122518.412935 kJ/mol
# GULP energy per Si atom -5569.018770 kJ/mol
# Density = 1.804100 g / cm^3
# Si number density = 18.082158 Si / 1000 Ang^3
#
#
#
# Elastic Constant Matrix: (Units=GPa)
#
#
# Indices 1 2 3 4 5 6 
#
# 1 97.4741 21.6293 12.5021 0.0000 -15.6395 0.0000
# 2 21.6293 55.4792 18.2449 0.0000 -11.5493 0.0000
# 3 12.5021 18.2449 73.4207 0.0000 -13.7504 0.0000
# 4 0.0000 0.0000 0.0000 41.6469 0.0000 0.7394
# 5 -15.6395 -11.5493 -13.7504 0.0000 24.0641 0.0000
# 6 0.0000 0.0000 0.0000 0.7394 0.0000 25.1607
#
#
#
# Elastic Compliance Matrix: (Units=1/GPa)
#
#
# Indices 1 2 3 4 5 6 
#
# 1 0.012003 -0.003383 -0.000052 0.000000 0.006148 0.000000
# 2 -0.003383 0.021844 -0.003696 0.000000 0.006173 0.000000
# 3 -0.000052 -0.003696 0.015912 0.000000 0.007284 0.000000
# 4 0.000000 0.000000 0.000000 0.024024 0.000000 -0.000706
# 5 0.006148 0.006173 0.007284 0.000000 0.052676 0.000000
# 6 0.000000 0.000000 0.000000 -0.000706 0.000000 0.039765
#
#
# Mechanical properties :
#
#
# Convention : Reuss Voigt Hill
#
# Bulk Modulus (GPa) = 28.17105 36.79184 32.48144
# Shear Modulus (GPa) = 25.99863 29.77417 27.88640
#
# Velocity S-wave (km/s) = 3.79595 4.06224 3.93135
# Velocity P-wave (km/s) = 5.90133 6.51104 6.21366
#
# Compressibility (1/GPa) = 0.03549743
#
# Stress axis : x y z
#
# Youngs Moduli (GPa) = 83.31420 45.77884 62.84688
#
# Poissons Ratio (x) = 0.15485 0.00326
# Poissons Ratio (y) = 0.28182 0.23229
# Poissons Ratio (z) = 0.00433 0.16920
#
# Static dielectric constant tensor:
#      x y z
#    x 1.653480 0.000000 0.017040 
#    y 0.000000 1.624080 0.000000 
#    z 0.017040 0.000000 1.605170 
# 
# From -- ./inp_files/106205.got.cif
#   From: 2010.05.17/outbox.cif.g08.bks.cpg/sg15_54_cif.got.tgz:106205.got - 2010.06.03 18:47:42.
