data_PCOD9287119
_publ_section_title
;
Structure prediction by ZEFSAII (Michael W. Deem and Ramdas Pophale) SiO2 
 PCOD9287119
Probable space group: C 2/C
;
_chemical_formula_sum "Si O2"
_cell_formula_units_Z 56
_cell_length_a 20.267109
_cell_length_b 11.396197
_cell_length_c 17.835183
_cell_angle_alpha 90.000000
_cell_angle_beta 35.094861
_cell_angle_gamma 90.000000
_cell_volume 2368.349013
_symmetry_space_group_name_H-M "C 2/C"
_symmetry_group_IT_number 15
_symmetry_cell_setting 'monoclinic'
loop_
_space_group_symop_operation_xyz
x,y,z
-x,y,1/2-z
-x,-y,-z
x,-y,1/2+z
1/2+x,1/2+y,z
1/2-x,1/2+y,1/2-z
1/2-x,1/2-y,-z
1/2+x,1/2-y,1/2+z
loop_
_atom_site_type_symbol
_atom_site_label
_atom_site_fract_x
_atom_site_fract_y
_atom_site_fract_z
Si Si1 0.755032 0.840981 0.767274
Si Si2 0.665913 0.262275 0.650011
Si Si3 0.324223 0.158483 0.502196
Si Si4 0.132901 0.903231 0.994438
Si Si5 0.646434 0.009032 0.663651
Si Si6 0.473073 0.102141 0.082447
Si Si7 0.876212 0.986666 0.257157
O O1 0.786368 0.757258 0.808013
O O2 0.825669 0.853678 0.624680
O O3 0.622459 0.818994 0.869773
O O4 0.790226 0.965735 0.772407
O O5 0.750000 0.250000 0.500000
O O6 0.598753 0.140396 0.705974
O O7 0.614494 0.394795 0.699876
O O8 0.159220 0.203781 0.527588
O O9 0.407897 0.145094 0.495789
O O10 0.366173 0.066926 0.399940
O O11 0.195890 0.119629 0.641719
O O12 0.001644 0.944140 0.116878
O O13 0.217722 0.006683 0.942138
O O14 0.591298 0.942957 0.784191
O O15 0.500000 0.000000 0.000000
#
# Coordination Sequence:
#
# PCOD9287119 Si02
#       7
#     8   8   8   8   8   8   8
#     4   9  22  44  72 109 151 196 255 317 379 469
#     4  10  21  47  73 102 150 195 248 315 366 453
#     4  12  25  47  73 106 154 197 250 315 380 467
#     4  11  26  43  75 111 153 202 247 319 391 452
#     4  11  25  48  71 108 149 195 261 308 385 461
#     4  11  23  44  70 105 139 193 248 315 375 446
#     4  10  23  46  71 111 155 197 260 307 382 457
#
# _framework density 23.645164999999999
#
# number of rings (size 3 to 8) (size 9 to 14) (size 15 to 20)
#    0.857    0.571    2.857    1.286    6.000    0.571 
#   10.286    0.000    0.000    0.000    0.000    0.000 
#    0.000    0.000    0.000    0.000    0.000    0.000 
#
# Total GULP energy -156053.254811 kJ/mol
# GULP energy per Si atom -5573.330529 kJ/mol
# Density = 2.359135 g / cm^3
# Si number density = 23.645165 Si / 1000 Ang^3
#
#
#
# Elastic Constant Matrix: (Units=GPa)
#
#
# Indices 1 2 3 4 5 6 
#
# 1 143.5819 40.6081 56.4933 0.0000 3.7761 0.0000
# 2 40.6081 100.0326 24.0337 0.0000 -6.2942 0.0000
# 3 56.4933 24.0337 81.7756 0.0000 -10.0465 0.0000
# 4 0.0000 0.0000 0.0000 11.0530 0.0000 18.7397
# 5 3.7761 -6.2942 -10.0465 0.0000 43.6325 0.0000
# 6 0.0000 0.0000 0.0000 18.7397 0.0000 32.9443
#
#
#
# Elastic Compliance Matrix: (Units=1/GPa)
#
#
# Indices 1 2 3 4 5 6 
#
# 1 0.010506 -0.002816 -0.006784 0.000000 -0.002877 0.000000
# 2 -0.002816 0.011542 -0.001247 0.000000 0.001621 0.000000
# 3 -0.006784 -0.001247 0.017836 0.000000 0.004514 0.000000
# 4 0.000000 0.000000 0.000000 2.542775 0.000000 -1.446407
# 5 -0.002877 0.001621 0.004514 0.000000 0.024441 0.000000
# 6 0.000000 0.000000 0.000000 -1.446407 0.000000 0.853114
#
#
# Mechanical properties :
#
#
# Convention : Reuss Voigt Hill
#
# Bulk Modulus (GPa) = 54.97729 63.07338 59.02533
# Shear Modulus (GPa) = 1.43350 31.14295 16.28822
#
# Velocity S-wave (km/s) = 0.77947 3.63312 2.62746
# Velocity P-wave (km/s) = 4.91035 6.65825 5.84995
#
# Compressibility (1/GPa) = 0.01818933
#
# Stress axis : x y z
#
# Youngs Moduli (GPa) = 95.18489 86.64274 56.06589
#
# Poissons Ratio (x) = 0.24399 0.38033
# Poissons Ratio (y) = 0.26805 0.06994
# Poissons Ratio (z) = 0.64570 0.10808
#
# Static dielectric constant tensor:
#      x y z
#    x 1.986940 0.000000 -0.035260 
#    y 0.000000 2.004870 0.000000 
#    z -0.035260 0.000000 1.902280 
# 
# From -- ./inp_files/215714.got.cif
#   From: 2010.05.17/outbox.cif.g08.bks.cpg/sg15_108_cif.got.tgz:215714.got - 2010.06.03 18:47:42.
