data_PCOD9287114
_publ_section_title
;
Structure prediction by ZEFSAII (Michael W. Deem and Ramdas Pophale) SiO2 
 PCOD9287114
Probable space group: C 2/C
;
_chemical_formula_sum "Si O2"
_cell_formula_units_Z 36
_cell_length_a 7.590810
_cell_length_b 15.097612
_cell_length_c 13.633689
_cell_angle_alpha 90.000000
_cell_angle_beta 81.222461
_cell_angle_gamma 90.000000
_cell_volume 1544.163948
_symmetry_space_group_name_H-M "C 2/C"
_symmetry_group_IT_number 15
_symmetry_cell_setting 'monoclinic'
loop_
_space_group_symop_operation_xyz
x,y,z
-x,y,1/2-z
-x,-y,-z
x,-y,1/2+z
1/2+x,1/2+y,z
1/2-x,1/2+y,1/2-z
1/2-x,1/2-y,-z
1/2+x,1/2-y,1/2+z
loop_
_atom_site_type_symbol
_atom_site_label
_atom_site_fract_x
_atom_site_fract_y
_atom_site_fract_z
Si Si1 0.500000 0.134674 0.750000
Si Si2 0.218634 0.203748 0.307528
Si Si3 0.417723 0.772252 0.603094
Si Si4 0.957463 0.409708 0.056181
Si Si5 0.062501 0.101240 0.502215
O O1 0.372489 0.200917 0.701116
O O2 0.455947 0.074034 0.844328
O O3 0.401138 0.214293 0.350819
O O4 0.268269 0.187356 0.188696
O O5 0.104681 0.140752 0.389028
O O6 0.438846 0.829382 0.504216
O O7 0.426918 0.669367 0.568993
O O8 0.746635 0.395894 0.049667
O O9 0.000000 0.500000 0.000000
O O10 0.000000 0.000000 0.500000
#
# Coordination Sequence:
#
# PCOD9287114 Si02
#       5
#     4   8   8   8   8
#     4  12  22  42  70 100 138 176 248 278 354 422
#     4  10  22  41  71  99 131 191 226 286 353 417
#     4  10  21  47  69  93 145 185 232 287 351 421
#     4  11  25  43  69 103 141 185 233 294 353 420
#     4  11  23  46  71 104 141 186 240 294 352 425
#
# _framework density 23.313586000000001
#
# number of rings (size 3 to 8) (size 9 to 14) (size 15 to 20)
#    0.000    1.333    4.444    1.333    3.111    6.222 
#    0.000    2.222    0.000    0.000    0.000    0.000 
#    0.000    0.000    0.000    0.000    0.000    0.000 
#
# Total GULP energy -100298.720786 kJ/mol
# GULP energy per Si atom -5572.151155 kJ/mol
# Density = 2.326052 g / cm^3
# Si number density = 23.313586 Si / 1000 Ang^3
#
#
#
# Elastic Constant Matrix: (Units=GPa)
#
#
# Indices 1 2 3 4 5 6 
#
# 1 77.9969 10.7485 35.9497 0.0000 18.6572 0.0000
# 2 10.7485 123.2288 71.5842 0.0000 4.8662 0.0000
# 3 35.9497 71.5842 221.0189 0.0000 7.7563 0.0000
# 4 0.0000 0.0000 0.0000 47.1321 0.0000 -1.5363
# 5 18.6572 4.8662 7.7563 0.0000 24.8249 0.0000
# 6 0.0000 0.0000 0.0000 -1.5363 0.0000 0.2249
#
#
#
# Elastic Compliance Matrix: (Units=1/GPa)
#
#
# Indices 1 2 3 4 5 6 
#
# 1 0.016734 0.000430 -0.002443 0.000000 -0.011897 0.000000
# 2 0.000430 0.010029 -0.003274 0.000000 -0.001266 0.000000
# 3 -0.002443 -0.003274 0.005961 0.000000 0.000616 0.000000
# 4 0.000000 0.000000 0.000000 0.027295 0.000000 0.186458
# 5 -0.011897 -0.001266 0.000616 0.000000 0.049279 0.000000
# 6 0.000000 0.000000 0.000000 0.186458 0.000000 5.720470
#
#
# Mechanical properties :
#
#
# Convention : Reuss Voigt Hill
#
# Bulk Modulus (GPa) = 45.14957 73.20103 59.17530
# Shear Modulus (GPa) = 0.85503 34.70053 17.77778
#
# Velocity S-wave (km/s) = 0.60626 3.86220 2.76443
# Velocity P-wave (km/s) = 4.46075 7.16627 5.96882
#
# Compressibility (1/GPa) = 0.02214861
#
# Stress axis : x y z
#
# Youngs Moduli (GPa) = 59.75894 99.70846 167.76713
#
# Poissons Ratio (x) = -0.04284 0.40994
# Poissons Ratio (y) = -0.02568 0.54923
# Poissons Ratio (z) = 0.14602 0.32642
#
# Static dielectric constant tensor:
#      x y z
#    x 3.233110 0.000000 6.245830 
#    y 0.000000 2.021290 0.000000 
#    z 6.245830 0.000000 34.214180 
# 
# From -- ./inp_files/132693.got.cif
#   From: 2010.05.17/outbox.cif.g08.bks.cpg/sg15_67_cif.got.tgz:132693.got - 2010.06.03 18:47:42.
