data_PCOD9287312
_publ_section_title
;
Structure prediction by ZEFSAII (Michael W. Deem and Ramdas Pophale) SiO2 
 PCOD9287312
Probable space group: C 2/C
;
_chemical_formula_sum "Si O2"
_cell_formula_units_Z 32
_cell_length_a 15.290663
_cell_length_b 9.926123
_cell_length_c 18.196296
_cell_angle_alpha 90.000000
_cell_angle_beta 28.524700
_cell_angle_gamma 90.000000
_cell_volume 1318.853353
_symmetry_space_group_name_H-M "C 2/C"
_symmetry_group_IT_number 15
_symmetry_cell_setting 'monoclinic'
loop_
_space_group_symop_operation_xyz
x,y,z
-x,y,1/2-z
-x,-y,-z
x,-y,1/2+z
1/2+x,1/2+y,z
1/2-x,1/2+y,1/2-z
1/2-x,1/2-y,-z
1/2+x,1/2-y,1/2+z
loop_
_atom_site_type_symbol
_atom_site_label
_atom_site_fract_x
_atom_site_fract_y
_atom_site_fract_z
Si Si1 0.548432 0.442128 0.791616
Si Si2 0.731477 0.209514 0.928018
Si Si3 0.189152 0.492689 0.153464
Si Si4 0.872590 0.427904 0.653091
O O1 0.500000 0.370184 0.750000
O O2 0.647408 0.582329 0.689577
O O3 0.694696 0.380240 0.739897
O O4 0.361131 0.454224 0.976275
O O5 0.787612 0.347506 0.849833
O O6 0.750000 0.250000 0.000000
O O7 0.519916 0.181858 0.070084
O O8 0.176501 0.458236 0.248835
O O9 0.000000 0.467459 0.250000
O O10 0.000000 0.500000 0.500000
#
# Coordination Sequence:
#
# PCOD9287312 Si02
#       4
#     8   8   8   8
#     4  11  21  35  55  84 124 161 195 243 302 360
#     4  11  19  36  58  90 120 154 200 254 298 350
#     4  12  20  33  58  87 117 156 203 247 297 351
#     4  10  22  36  51  84 127 157 192 247 306 356
#
# _framework density 24.263501999999999
#
# number of rings (size 3 to 8) (size 9 to 14) (size 15 to 20)
#    0.000    1.000    5.000    4.500    0.000    0.000 
#    0.000    0.000    0.000    1.500    0.000    8.750 
#    0.000    0.000    0.000    0.000    0.000    0.000 
#
# Total GULP energy -89229.477125 kJ/mol
# GULP energy per Si atom -5576.842320 kJ/mol
# Density = 2.420828 g / cm^3
# Si number density = 24.263502 Si / 1000 Ang^3
#
#
#
# Elastic Constant Matrix: (Units=GPa)
#
#
# Indices 1 2 3 4 5 6 
#
# 1 193.0000 12.3122 70.5723 0.0001 -29.1335 0.0000
# 2 12.3122 41.7734 15.7419 0.0004 -9.5818 -0.0001
# 3 70.5723 15.7419 182.7093 0.0004 1.1732 0.0000
# 4 0.0001 0.0004 0.0004 6.8397 0.0000 -7.0422
# 5 -29.1335 -9.5818 1.1732 0.0000 67.3476 0.0000
# 6 0.0000 -0.0001 0.0000 -7.0422 0.0000 21.4266
#
#
#
# Elastic Compliance Matrix: (Units=1/GPa)
#
#
# Indices 1 2 3 4 5 6 
#
# 1 0.006551 -0.000332 -0.002520 0.000000 0.002831 0.000000
# 2 -0.000332 0.025642 -0.002104 -0.000002 0.003541 -0.000001
# 3 -0.002520 -0.002104 0.006637 0.000000 -0.001505 0.000000
# 4 0.000000 -0.000002 0.000000 0.220987 0.000000 0.072631
# 5 0.002831 0.003541 -0.001505 0.000000 0.016603 0.000000
# 6 0.000000 -0.000001 0.000000 0.072631 0.000000 0.070542
#
#
# Mechanical properties :
#
#
# Convention : Reuss Voigt Hill
#
# Bulk Modulus (GPa) = 34.57959 68.30395 51.44177
# Shear Modulus (GPa) = 13.64207 40.37984 27.01096
#
# Velocity S-wave (km/s) = 2.37375 4.08391 3.34014
# Velocity P-wave (km/s) = 4.66857 7.10280 6.01021
#
# Compressibility (1/GPa) = 0.02891879
#
# Stress axis : x y z
#
# Youngs Moduli (GPa) = 152.64164 38.99920 150.65978
#
# Poissons Ratio (x) = 0.01295 0.37967
# Poissons Ratio (y) = 0.05067 0.31695
# Poissons Ratio (z) = 0.38466 0.08204
#
# Static dielectric constant tensor:
#      x y z
#    x 2.125610 0.000000 0.173790 
#    y 0.000000 1.960340 0.000000 
#    z 0.173790 0.000000 2.059060 
# 
# From -- ./inp_files/36563.got.cif
#   From: 2010.05.17/outbox.cif.g08.bks.cpg/sg15_19_cif.got.tgz:36563.got - 2010.06.03 18:47:42.
