data_PCOD9287979
_publ_section_title
;
Structure prediction by ZEFSAII (Michael W. Deem and Ramdas Pophale) SiO2 
 PCOD9287979
Probable space group: C 2/C
;
_chemical_formula_sum "Si O2"
_cell_formula_units_Z 56
_cell_length_a 8.145747
_cell_length_b 12.278465
_cell_length_c 27.463436
_cell_angle_alpha 90.000000
_cell_angle_beta 67.296945
_cell_angle_gamma 90.000000
_cell_volume 2533.987594
_symmetry_space_group_name_H-M "C 2/C"
_symmetry_group_IT_number 15
_symmetry_cell_setting 'monoclinic'
loop_
_space_group_symop_operation_xyz
x,y,z
-x,y,1/2-z
-x,-y,-z
x,-y,1/2+z
1/2+x,1/2+y,z
1/2-x,1/2+y,1/2-z
1/2-x,1/2-y,-z
1/2+x,1/2-y,1/2+z
loop_
_atom_site_type_symbol
_atom_site_label
_atom_site_fract_x
_atom_site_fract_y
_atom_site_fract_z
Si Si1 0.311997 0.300062 0.704999
Si Si2 0.598147 0.407289 0.458936
Si Si3 0.282228 0.623415 0.861895
Si Si4 0.155536 0.971626 0.340444
Si Si5 0.558534 0.778402 0.577292
Si Si6 0.551279 0.017397 0.550146
Si Si7 0.782164 0.241559 0.316115
O O1 0.248444 0.194522 0.682723
O O2 0.273029 0.410516 0.680635
O O3 0.525445 0.292720 0.687244
O O4 0.238275 0.305855 0.768171
O O5 0.500000 0.500000 0.500000
O O6 0.625970 0.453555 0.401192
O O7 0.488040 0.296129 0.464191
O O8 0.792345 0.395154 0.460309
O O9 0.462285 0.552464 0.838453
O O10 0.314413 0.709561 0.902127
O O11 0.115020 0.552142 0.897658
O O12 0.280898 0.872472 0.310035
O O13 0.620048 0.899031 0.559066
O O14 0.371698 0.786180 0.628141
O O15 0.500000 0.000000 0.500000
#
# Coordination Sequence:
#
# PCOD9287979 Si02
#       7
#     8   8   8   8   8   8   8
#     4  11  21  38  63  85 116 157 193 238 289 340
#     4  10  22  41  62  86 119 154 193 242 292 344
#     4  10  22  38  61  88 114 152 199 236 285 349
#     4  10  22  40  59  86 120 152 193 244 290 340
#     4  10  23  42  58  84 124 151 188 247 290 337
#     4  12  24  38  62  90 115 155 198 234 290 354
#     4   9  22  39  57  88 119 151 193 236 290 345
#
# _framework density 22.099557000000001
#
# number of rings (size 3 to 8) (size 9 to 14) (size 15 to 20)
#    0.000    2.000    0.000    5.143    0.000    9.714 
#    0.000    4.286    0.000    0.000    0.000    0.000 
#    0.000    0.000    0.000    0.000    0.000    0.000 
#
# Total GULP energy -156591.350975 kJ/mol
# GULP energy per Si atom -5592.548249 kJ/mol
# Density = 2.204926 g / cm^3
# Si number density = 22.099557 Si / 1000 Ang^3
#
#
#
# Elastic Constant Matrix: (Units=GPa)
#
#
# Indices 1 2 3 4 5 6 
#
# 1 47.2857 2.2257 -8.1983 0.0000 15.2584 0.0000
# 2 2.2257 77.6912 2.8973 0.0000 -0.7187 0.0000
# 3 -8.1983 2.8973 34.6594 0.0000 7.5847 0.0000
# 4 0.0000 0.0000 0.0000 16.8818 0.0000 -3.6414
# 5 15.2584 -0.7187 7.5847 0.0000 29.4973 0.0000
# 6 0.0000 0.0000 0.0000 -3.6414 0.0000 17.2618
#
#
#
# Elastic Compliance Matrix: (Units=1/GPa)
#
#
# Indices 1 2 3 4 5 6 
#
# 1 0.028802 -0.001392 0.010805 0.000000 -0.017711 0.000000
# 2 -0.001392 0.012990 -0.001740 0.000000 0.001484 0.000000
# 3 0.010805 -0.001740 0.034741 0.000000 -0.014564 0.000000
# 4 0.000000 0.000000 0.000000 0.062059 0.000000 0.013092
# 5 -0.017711 0.001484 -0.014564 0.000000 0.046844 0.000000
# 6 0.000000 0.000000 0.000000 0.013092 0.000000 0.060693
#
#
# Mechanical properties :
#
#
# Convention : Reuss Voigt Hill
#
# Bulk Modulus (GPa) = 10.88390 17.05396 13.96893
# Shear Modulus (GPa) = 19.12713 23.57563 21.35138
#
# Velocity S-wave (km/s) = 2.94513 3.26972 3.11166
# Velocity P-wave (km/s) = 4.06210 4.68918 4.38686
#
# Compressibility (1/GPa) = 0.09187886
#
# Stress axis : x y z
#
# Youngs Moduli (GPa) = 34.71992 76.98258 28.78473
#
# Poissons Ratio (x) = 0.10715 -0.31102
# Poissons Ratio (y) = 0.04833 0.05008
# Poissons Ratio (z) = -0.37514 0.13394
#
# Static dielectric constant tensor:
#      x y z
#    x 1.784230 0.000000 0.014680 
#    y 0.000000 1.801560 0.000000 
#    z 0.014680 0.000000 1.791410 
# 
# From -- ./inp_files/307063.got.cif
#   From: 2010.05.17/outbox.cif.g08.bks.cpg/sg15_154_cif.got.tgz:307063.got - 2010.06.03 18:47:42.
