data_PCOD9287128
_publ_section_title
;
Structure prediction by ZEFSAII (Michael W. Deem and Ramdas Pophale) SiO2 
 PCOD9287128
Probable space group: C 2/C
;
_chemical_formula_sum "Si O2"
_cell_formula_units_Z 40
_cell_length_a 31.159248
_cell_length_b 9.098081
_cell_length_c 14.358546
_cell_angle_alpha 90.000000
_cell_angle_beta 156.607547
_cell_angle_gamma 90.000000
_cell_volume 1616.096440
_symmetry_space_group_name_H-M "C 2/C"
_symmetry_group_IT_number 15
_symmetry_cell_setting 'monoclinic'
loop_
_space_group_symop_operation_xyz
x,y,z
-x,y,1/2-z
-x,-y,-z
x,-y,1/2+z
1/2+x,1/2+y,z
1/2-x,1/2+y,1/2-z
1/2-x,1/2-y,-z
1/2+x,1/2-y,1/2+z
loop_
_atom_site_type_symbol
_atom_site_label
_atom_site_fract_x
_atom_site_fract_y
_atom_site_fract_z
Si Si1 0.118620 0.532529 0.944979
Si Si2 0.353788 0.138229 0.707611
Si Si3 0.161003 0.817406 0.551870
Si Si4 0.283546 0.405992 0.030041
Si Si5 0.566352 0.588106 0.053439
O O1 0.111503 0.577131 0.822135
O O2 0.000000 0.560880 0.750000
O O3 0.146634 0.358729 0.015591
O O4 0.215602 0.636375 0.177330
O O5 0.250000 0.250000 0.500000
O O6 0.442141 0.244269 0.927359
O O7 0.319132 0.004187 0.703899
O O8 0.140133 0.888254 0.408078
O O9 0.087117 0.887772 0.485363
O O10 0.250000 0.250000 0.000000
O O11 0.324742 0.495458 0.201520
O O12 0.500000 0.500000 0.000000
#
# Coordination Sequence:
#
# PCOD9287128 Si02
#       5
#     8   8   8   8   8
#     4  12  28  48  80 115 151 208 262 318 400 476
#     4  10  21  48  68 100 156 189 252 320 375 464
#     4  12  25  49  78 110 162 204 258 331 396 468
#     4  11  22  43  76 105 149 200 252 322 395 457
#     4  11  26  45  74 111 153 207 257 322 397 468
#
# _framework density 24.750999
#
# number of rings (size 3 to 8) (size 9 to 14) (size 15 to 20)
#    0.000    0.800    6.000    1.200    5.600    3.200 
#    0.000    4.000    0.000    0.000    0.000    0.000 
#    0.000    0.000    0.000    0.000    0.000    0.000 
#
# Total GULP energy -111551.625216 kJ/mol
# GULP energy per Si atom -5577.581261 kJ/mol
# Density = 2.469466 g / cm^3
# Si number density = 24.750999 Si / 1000 Ang^3
#
#
#
# Elastic Constant Matrix: (Units=GPa)
#
#
# Indices 1 2 3 4 5 6 
#
# 1 280.7275 88.3944 58.2690 0.0000 12.7095 0.0000
# 2 88.3944 169.4474 30.3703 0.0000 -0.5297 0.0000
# 3 58.2690 30.3703 64.3701 0.0000 4.4497 0.0000
# 4 0.0000 0.0000 0.0000 33.3301 0.0000 -1.0756
# 5 12.7095 -0.5297 4.4497 0.0000 53.8931 0.0000
# 6 0.0000 0.0000 0.0000 -1.0756 0.0000 50.8085
#
#
#
# Elastic Compliance Matrix: (Units=1/GPa)
#
#
# Indices 1 2 3 4 5 6 
#
# 1 0.004943 -0.001956 -0.003490 0.000000 -0.000897 0.000000
# 2 -0.001956 0.007226 -0.001685 0.000000 0.000671 0.000000
# 3 -0.003490 -0.001685 0.019545 0.000000 -0.000807 0.000000
# 4 0.000000 0.000000 0.000000 0.030023 0.000000 0.000636
# 5 -0.000897 0.000671 -0.000807 0.000000 0.018840 0.000000
# 6 0.000000 0.000000 0.000000 0.000636 0.000000 0.019695
#
#
# Mechanical properties :
#
#
# Convention : Reuss Voigt Hill
#
# Bulk Modulus (GPa) = 57.29858 96.51248 76.90553
# Shear Modulus (GPa) = 41.54499 50.10711 45.82605
#
# Velocity S-wave (km/s) = 4.10142 4.50427 4.30755
# Velocity P-wave (km/s) = 6.75493 8.13199 7.47524
#
# Compressibility (1/GPa) = 0.01745244
#
# Stress axis : x y z
#
# Youngs Moduli (GPa) = 202.30735 138.38920 51.16413
#
# Poissons Ratio (x) = 0.27068 0.17855
# Poissons Ratio (y) = 0.39570 0.08622
# Poissons Ratio (z) = 0.70598 0.23321
#
# Static dielectric constant tensor:
#      x y z
#    x 1.935770 0.000000 0.043360 
#    y 0.000000 2.027270 0.000000 
#    z 0.043360 0.000000 2.714650 
# 
# From -- ./inp_files/150776.got.cif
#   From: 2010.05.17/outbox.cif.g08.bks.cpg/sg15_76_cif.got.tgz:150776.got - 2010.06.03 18:47:42.
