data_PCOD9287756
_publ_section_title
;
Structure prediction by ZEFSAII (Michael W. Deem and Ramdas Pophale) SiO2 
 PCOD9287756
Probable space group: C 2/C
;
_chemical_formula_sum "Si O2"
_cell_formula_units_Z 48
_cell_length_a 4.938097
_cell_length_b 17.704228
_cell_length_c 23.632005
_cell_angle_alpha 90.000000
_cell_angle_beta 77.386409
_cell_angle_gamma 90.000000
_cell_volume 2016.168929
_symmetry_space_group_name_H-M "C 2/C"
_symmetry_group_IT_number 15
_symmetry_cell_setting 'monoclinic'
loop_
_space_group_symop_operation_xyz
x,y,z
-x,y,1/2-z
-x,-y,-z
x,-y,1/2+z
1/2+x,1/2+y,z
1/2-x,1/2+y,1/2-z
1/2-x,1/2-y,-z
1/2+x,1/2-y,1/2+z
loop_
_atom_site_type_symbol
_atom_site_label
_atom_site_fract_x
_atom_site_fract_y
_atom_site_fract_z
Si Si1 0.500000 0.763173 0.250000
Si Si2 0.611460 0.416110 0.859093
Si Si3 0.851677 0.078885 0.600167
Si Si4 0.782878 0.611875 0.674664
Si Si5 0.035546 0.782842 0.465731
Si Si6 0.613223 0.816559 0.854993
Si Si7 0.000000 0.489066 0.750000
O O1 0.655437 0.815118 0.289815
O O2 0.734704 0.714312 0.207811
O O3 0.620188 0.488586 0.899812
O O4 0.300352 0.388418 0.864000
O O5 0.797126 0.344389 0.867675
O O6 0.775127 0.442416 0.795315
O O7 0.530235 0.102178 0.618346
O O8 0.976013 0.127250 0.543433
O O9 0.999654 0.105438 0.652610
O O10 0.831777 0.541912 0.714412
O O11 0.250000 0.750000 0.500000
O O12 0.120705 0.748159 0.401447
O O13 0.750000 0.750000 0.500000
#
# Coordination Sequence:
#
# PCOD9287756 Si02
#       7
#     4   8   8   8   8   8   4
#     4  11  24  40  70 110 151 178 232 292 353 424
#     4  11  24  42  65 101 148 179 226 274 352 424
#     4  11  23  46  70  98 135 184 233 279 343 417
#     4  10  22  37  68 103 140 179 235 271 329 423
#     4  12  27  50  75  99 132 182 245 300 347 407
#     4  12  26  44  68 107 142 182 225 292 354 410
#     4   9  20  38  62 102 143 194 210 264 337 430
#
# _framework density 23.807528999999999
#
# number of rings (size 3 to 8) (size 9 to 14) (size 15 to 20)
#    0.000    1.000    1.667    5.000    2.333   10.000 
#    0.000    5.000    0.000    0.000    0.000    0.000 
#    0.000    0.000    0.000    0.000    0.000    0.000 
#
# Total GULP energy -134464.012987 kJ/mol
# GULP energy per Si atom -5602.667208 kJ/mol
# Density = 2.375334 g / cm^3
# Si number density = 23.807529 Si / 1000 Ang^3
#
#
#
# Elastic Constant Matrix: (Units=GPa)
#
#
# Indices 1 2 3 4 5 6 
#
# 1 83.7083 -5.8732 4.9536 0.0000 -0.5759 0.0000
# 2 -5.8732 86.6641 9.9483 0.0000 5.2925 0.0000
# 3 4.9536 9.9483 35.6415 0.0000 -0.8408 0.0000
# 4 0.0000 0.0000 0.0000 23.4279 0.0000 -7.8902
# 5 -0.5759 5.2925 -0.8408 0.0000 35.3123 0.0000
# 6 0.0000 0.0000 0.0000 -7.8902 0.0000 33.5864
#
#
#
# Elastic Compliance Matrix: (Units=1/GPa)
#
#
# Indices 1 2 3 4 5 6 
#
# 1 0.012137 0.001050 -0.001980 0.000000 -0.000007 0.000000
# 2 0.001050 0.012136 -0.003578 0.000000 -0.001887 0.000000
# 3 -0.001980 -0.003578 0.029359 0.000000 0.001203 0.000000
# 4 0.000000 0.000000 0.000000 0.046351 0.000000 0.010889
# 5 -0.000007 -0.001887 0.001203 0.000000 0.028630 0.000000
# 6 0.000000 0.000000 0.000000 0.010889 0.000000 0.032332
#
#
# Mechanical properties :
#
#
# Convention : Reuss Voigt Hill
#
# Bulk Modulus (GPa) = 22.41306 24.89680 23.65493
# Shear Modulus (GPa) = 27.05132 31.59766 29.32449
#
# Velocity S-wave (km/s) = 3.37449 3.64705 3.51341
# Velocity P-wave (km/s) = 4.96161 5.31176 5.13967
#
# Compressibility (1/GPa) = 0.04461683
#
# Stress axis : x y z
#
# Youngs Moduli (GPa) = 82.39227 82.40006 34.06064
#
# Poissons Ratio (x) = -0.08654 0.06745
# Poissons Ratio (y) = -0.08653 0.12186
# Poissons Ratio (z) = 0.16315 0.29482
#
# Static dielectric constant tensor:
#      x y z
#    x 1.873030 0.000000 0.006470 
#    y 0.000000 1.960100 0.000000 
#    z 0.006470 0.000000 1.896520 
# 
# From -- ./inp_files/260700.got.cif
#   From: 2010.05.17/outbox.cif.g08.bks.cpg/sg15_131_cif.got.tgz:260700.got - 2010.06.03 18:47:42.
