data_PCOD9287965
_publ_section_title
;
Structure prediction by ZEFSAII (Michael W. Deem and Ramdas Pophale) SiO2 
 PCOD9287965
Probable space group: C 2/C
;
_chemical_formula_sum "Si O2"
_cell_formula_units_Z 32
_cell_length_a 16.659513
_cell_length_b 8.794952
_cell_length_c 9.100959
_cell_angle_alpha 90.000000
_cell_angle_beta 59.368912
_cell_angle_gamma 90.000000
_cell_volume 1147.404362
_symmetry_space_group_name_H-M "C 2/C"
_symmetry_group_IT_number 15
_symmetry_cell_setting 'monoclinic'
loop_
_space_group_symop_operation_xyz
x,y,z
-x,y,1/2-z
-x,-y,-z
x,-y,1/2+z
1/2+x,1/2+y,z
1/2-x,1/2+y,1/2-z
1/2-x,1/2-y,-z
1/2+x,1/2-y,1/2+z
loop_
_atom_site_type_symbol
_atom_site_label
_atom_site_fract_x
_atom_site_fract_y
_atom_site_fract_z
Si Si1 0.000000 0.635804 0.750000
Si Si2 0.381505 0.384236 0.952926
Si Si3 0.249504 0.631587 0.321225
Si Si4 0.500000 0.648141 0.750000
Si Si5 0.151212 0.589651 0.134317
O O1 0.952218 0.745381 0.910337
O O2 0.923272 0.534957 0.742133
O O3 0.346865 0.386522 0.814186
O O4 0.445307 0.531973 0.910663
O O5 0.290873 0.301663 0.109594
O O6 0.239938 0.613229 0.156518
O O7 0.188760 0.494975 0.453192
O O8 0.412719 0.760733 0.800802
#
# Coordination Sequence:
#
# PCOD9287965 Si02
#       5
#     4   8   8   4   8
#     4   8  18  38  62  86 118 158 198 242 294 352
#     4   9  20  39  61  87 121 158 198 246 297 351
#     4  10  22  42  63  86 121 162 199 242 298 357
#     4  10  22  38  60  94 122 152 200 252 298 350
#     4  10  22  40  63  89 120 159 200 243 297 356
#
# _framework density 27.889036000000001
#
# number of rings (size 3 to 8) (size 9 to 14) (size 15 to 20)
#    0.000    2.500    0.000    0.000    0.000   17.000 
#    0.000   10.000    0.000    0.000    0.000    0.000 
#    0.000    0.000    0.000    0.000    0.000    0.000 
#
# Total GULP energy -89200.438448 kJ/mol
# GULP energy per Si atom -5575.027403 kJ/mol
# Density = 2.782556 g / cm^3
# Si number density = 27.889036 Si / 1000 Ang^3
#
#
#
# Elastic Constant Matrix: (Units=GPa)
#
#
# Indices 1 2 3 4 5 6 
#
# 1 124.4834 35.8002 51.1049 0.0000 -8.3658 0.0000
# 2 35.8002 204.4471 48.3579 0.0000 -9.3244 0.0000
# 3 51.1049 48.3579 84.3089 0.0000 1.5803 0.0000
# 4 0.0000 0.0000 0.0000 26.3130 0.0000 -25.9901
# 5 -8.3658 -9.3244 1.5803 0.0000 40.4170 0.0000
# 6 0.0000 0.0000 0.0000 -25.9901 0.0000 42.3794
#
#
#
# Elastic Compliance Matrix: (Units=1/GPa)
#
#
# Indices 1 2 3 4 5 6 
#
# 1 0.010958 -0.000260 -0.006540 0.000000 0.002464 0.000000
# 2 -0.000260 0.005749 -0.003167 0.000000 0.001396 0.000000
# 3 -0.006540 -0.003167 0.017694 0.000000 -0.002776 0.000000
# 4 0.000000 0.000000 0.000000 0.096395 0.000000 0.059116
# 5 0.002464 0.001396 -0.002776 0.000000 0.025683 0.000000
# 6 0.000000 0.000000 0.000000 0.059116 0.000000 0.059851
#
#
# Mechanical properties :
#
#
# Convention : Reuss Voigt Hill
#
# Bulk Modulus (GPa) = 69.11137 75.97392 72.54265
# Shear Modulus (GPa) = 20.73964 40.35365 30.54665
#
# Velocity S-wave (km/s) = 2.72995 3.80799 3.31311
# Velocity P-wave (km/s) = 5.89673 6.82898 6.37991
#
# Compressibility (1/GPa) = 0.01446940
#
# Stress axis : x y z
#
# Youngs Moduli (GPa) = 91.25524 173.93203 56.51764
#
# Poissons Ratio (x) = 0.04516 0.36961
# Poissons Ratio (y) = 0.02369 0.17896
# Poissons Ratio (z) = 0.59679 0.55076
#
# Static dielectric constant tensor:
#      x y z
#    x 2.100180 0.000000 -0.017560 
#    y 0.000000 2.216200 0.000000 
#    z -0.017560 0.000000 2.295270 
# 
# From -- ./inp_files/102184.got.cif
#   From: 2010.05.17/outbox.cif.g08.bks.cpg/sg15_52_cif.got.tgz:102184.got - 2010.06.03 18:47:42.
