data_PCOD9287610
_publ_section_title
;
Structure prediction by ZEFSAII (Michael W. Deem and Ramdas Pophale) SiO2 
 PCOD9287610
Probable space group: C 2/C
;
_chemical_formula_sum "Si O2"
_cell_formula_units_Z 52
_cell_length_a 18.656976
_cell_length_b 29.514636
_cell_length_c 12.775068
_cell_angle_alpha 90.000000
_cell_angle_beta 158.977530
_cell_angle_gamma 90.000000
_cell_volume 2523.565054
_symmetry_space_group_name_H-M "C 2/C"
_symmetry_group_IT_number 15
_symmetry_cell_setting 'monoclinic'
loop_
_space_group_symop_operation_xyz
x,y,z
-x,y,1/2-z
-x,-y,-z
x,-y,1/2+z
1/2+x,1/2+y,z
1/2-x,1/2+y,1/2-z
1/2-x,1/2-y,-z
1/2+x,1/2-y,1/2+z
loop_
_atom_site_type_symbol
_atom_site_label
_atom_site_fract_x
_atom_site_fract_y
_atom_site_fract_z
Si Si1 0.410294 0.379411 0.333757
Si Si2 0.500000 0.141532 0.250000
Si Si3 0.634167 0.214837 0.266221
Si Si4 0.500000 0.001848 0.250000
Si Si5 0.296858 0.556538 0.503813
Si Si6 0.151483 0.791769 0.661555
Si Si7 0.500000 0.159808 0.750000
Si Si8 0.171011 0.418966 0.606055
O O1 0.469826 0.327173 0.424288
O O2 0.611499 0.404676 0.645028
O O3 0.383888 0.400032 0.182820
O O4 0.180385 0.384780 0.054386
O O5 0.584180 0.173363 0.273104
O O6 0.750000 0.250000 0.500000
O O7 0.758661 0.202272 0.332750
O O8 0.437458 0.241422 0.956596
O O9 0.652561 0.030177 0.386250
O O10 0.615743 0.966970 0.482494
O O11 0.186152 0.573081 0.249730
O O12 0.500000 0.529497 0.750000
O O13 0.314242 0.807162 0.969747
O O14 0.479452 0.122313 0.628124
#
# Coordination Sequence:
#
# PCOD9287610 Si02
#       8
#     8   4   8   4   8   8   4   8
#     4  10  22  37  59  88 121 154 206 261 310 363
#     4  12  23  34  59  94 120 152 208 262 319 358
#     4  12  22  35  59  93 117 159 202 261 322 352
#     4  11  21  42  64  94 132 164 208 250 316 388
#     4  10  22  37  63  97 121 164 209 263 316 366
#     4  11  22  39  59  83 126 160 206 257 307 382
#     4   9  22  38  63  82 116 178 198 244 313 380
#     4   9  21  40  64  88 124 168 204 245 317 381
#
# _framework density 20.605768999999999
#
# number of rings (size 3 to 8) (size 9 to 14) (size 15 to 20)
#    0.000    1.538    3.077    0.923    8.615    3.077 
#    0.000    1.538    0.000    0.000    0.000    0.000 
#    0.000    0.000    0.000    0.000    0.000    0.000 
#
# Total GULP energy -144738.777295 kJ/mol
# GULP energy per Si atom -5566.876050 kJ/mol
# Density = 2.055887 g / cm^3
# Si number density = 20.605769 Si / 1000 Ang^3
#
#
#
# Elastic Constant Matrix: (Units=GPa)
#
#
# Indices 1 2 3 4 5 6 
#
# 1 38.5503 -2.7989 25.4517 -0.0001 3.3670 0.0000
# 2 -2.7989 52.8627 35.9630 0.0000 -0.5891 0.0000
# 3 25.4517 35.9630 124.6741 0.0003 -7.5227 -0.0001
# 4 -0.0001 0.0000 0.0003 35.1604 0.0001 5.1121
# 5 3.3670 -0.5891 -7.5227 0.0001 41.8396 -0.0001
# 6 0.0000 0.0000 -0.0001 5.1121 -0.0001 16.6294
#
#
#
# Elastic Compliance Matrix: (Units=1/GPa)
#
#
# Indices 1 2 3 4 5 6 
#
# 1 0.033047 0.008044 -0.009322 0.000000 -0.004222 0.000000
# 2 0.008044 0.025527 -0.009122 0.000000 -0.001928 0.000000
# 3 -0.009322 -0.009122 0.012731 0.000000 0.002911 0.000000
# 4 0.000000 0.000000 0.000000 0.029772 0.000000 -0.009152
# 5 -0.004222 -0.001928 0.002911 0.000000 0.024737 0.000000
# 6 0.000000 0.000000 0.000000 -0.009152 0.000000 0.062948
#
#
# Mechanical properties :
#
#
# Convention : Reuss Voigt Hill
#
# Bulk Modulus (GPa) = 19.79938 37.03541 28.41739
# Shear Modulus (GPa) = 22.08516 29.22396 25.65456
#
# Velocity S-wave (km/s) = 3.27738 3.77004 3.53231
# Velocity P-wave (km/s) = 4.89399 6.07974 5.51881
#
# Compressibility (1/GPa) = 0.05050664
#
# Stress axis : x y z
#
# Youngs Moduli (GPa) = 30.25961 39.17389 78.54941
#
# Poissons Ratio (x) = -0.31513 0.73221
# Poissons Ratio (y) = -0.24342 0.71653
# Poissons Ratio (z) = 0.28207 0.35735
#
# Static dielectric constant tensor:
#      x y z
#    x 1.773170 0.000000 0.075800 
#    y 0.000000 1.764710 0.000000 
#    z 0.075800 0.000000 1.866530 
# 
# From -- ./inp_files/169904.got.cif
#   From: 2010.05.17/outbox.cif.g08.bks.cpg/sg15_85_cif.got.tgz:169904.got - 2010.06.03 18:47:42.
