data_PCOD9287133
_publ_section_title
;
Structure prediction by ZEFSAII (Michael W. Deem and Ramdas Pophale) SiO2 
 PCOD9287133
Probable space group: C 2/C
;
_chemical_formula_sum "Si O2"
_cell_formula_units_Z 48
_cell_length_a 10.194270
_cell_length_b 21.182924
_cell_length_c 8.378131
_cell_angle_alpha 90.000000
_cell_angle_beta 79.665939
_cell_angle_gamma 90.000000
_cell_volume 1779.862876
_symmetry_space_group_name_H-M "C 2/C"
_symmetry_group_IT_number 15
_symmetry_cell_setting 'monoclinic'
loop_
_space_group_symop_operation_xyz
x,y,z
-x,y,1/2-z
-x,-y,-z
x,-y,1/2+z
1/2+x,1/2+y,z
1/2-x,1/2+y,1/2-z
1/2-x,1/2-y,-z
1/2+x,1/2-y,1/2+z
loop_
_atom_site_type_symbol
_atom_site_label
_atom_site_fract_x
_atom_site_fract_y
_atom_site_fract_z
Si Si1 0.726634 0.194593 0.886164
Si Si2 0.669394 0.933461 0.934285
Si Si3 0.199219 0.063503 0.596634
Si Si4 0.000000 0.633486 0.750000
Si Si5 0.000000 0.350320 0.750000
Si Si6 0.063087 0.100444 0.971138
Si Si7 0.892120 0.237230 0.564426
O O1 0.730574 0.127802 0.970490
O O2 0.603385 0.183518 0.798598
O O3 0.845236 0.206081 0.738905
O O4 0.750000 0.250000 0.000000
O O5 0.608357 0.900921 0.792765
O O6 0.692937 0.008437 0.921769
O O7 0.579803 0.090599 0.604371
O O8 0.822244 0.912293 0.926723
O O9 0.137293 0.078742 0.786915
O O10 0.072714 0.060337 0.506609
O O11 0.026626 0.298863 0.891530
O O12 0.029102 0.175017 0.013644
O O13 0.750000 0.250000 0.500000
#
# Coordination Sequence:
#
# PCOD9287133 Si02
#       7
#     8   8   8   4   4   8   8
#     4  11  24  45  70 108 149 198 253 309 384 456
#     4  12  25  47  73 114 154 204 252 312 392 465
#     4  10  23  45  77 105 152 203 254 316 387 452
#     4  12  24  47  74 110 161 194 246 322 392 451
#     4  12  24  43  76 120 153 200 258 318 384 475
#     4  10  21  48  77 107 150 198 258 326 379 450
#     4  11  20  42  77 110 152 197 254 315 391 446
#
# _framework density 26.968368999999999
#
# number of rings (size 3 to 8) (size 9 to 14) (size 15 to 20)
#    0.000    1.000    5.000    3.500    0.000    2.667 
#    6.000    0.000    0.000    2.000    0.000    3.500 
#    0.000    0.000    0.000    0.000    0.000    0.000 
#
# Total GULP energy -133842.479683 kJ/mol
# GULP energy per Si atom -5576.769987 kJ/mol
# Density = 2.690699 g / cm^3
# Si number density = 26.968369 Si / 1000 Ang^3
#
#
#
# Elastic Constant Matrix: (Units=GPa)
#
#
# Indices 1 2 3 4 5 6 
#
# 1 122.7687 58.4743 60.4783 0.0000 55.5415 0.0000
# 2 58.4743 234.3994 51.9806 0.0000 24.1245 0.0000
# 3 60.4783 51.9806 96.4393 0.0000 22.2787 0.0000
# 4 0.0000 0.0000 0.0000 37.5951 0.0000 19.5602
# 5 55.5415 24.1245 22.2787 0.0000 64.9123 0.0000
# 6 0.0000 0.0000 0.0000 19.5602 0.0000 64.7771
#
#
#
# Elastic Compliance Matrix: (Units=1/GPa)
#
#
# Indices 1 2 3 4 5 6 
#
# 1 0.018371 -0.001572 -0.007795 0.000000 -0.012459 0.000000
# 2 -0.001572 0.005038 -0.001746 0.000000 0.000072 0.000000
# 3 -0.007795 -0.001746 0.015758 0.000000 0.001911 0.000000
# 4 0.000000 0.000000 0.000000 0.031557 0.000000 -0.009529
# 5 -0.012459 0.000072 0.001911 0.000000 0.025383 0.000000
# 6 0.000000 0.000000 0.000000 -0.009529 0.000000 0.018315
#
#
# Mechanical properties :
#
#
# Convention : Reuss Voigt Hill
#
# Bulk Modulus (GPa) = 59.03294 88.38599 73.70947
# Shear Modulus (GPa) = 35.13821 52.30183 43.72002
#
# Velocity S-wave (km/s) = 3.61354 4.40861 4.03073
# Velocity P-wave (km/s) = 6.27276 7.66548 7.00382
#
# Compressibility (1/GPa) = 0.01693969
#
# Stress axis : x y z
#
# Youngs Moduli (GPa) = 54.43464 198.48158 63.46170
#
# Poissons Ratio (x) = 0.31199 0.49468
# Poissons Ratio (y) = 0.08557 0.11083
# Poissons Ratio (z) = 0.42432 0.34664
#
# Static dielectric constant tensor:
#      x y z
#    x 2.331670 0.000000 0.030570 
#    y 0.000000 2.576250 0.000000 
#    z 0.030570 0.000000 2.213530 
# 
# From -- ./inp_files/87923.got.cif
#   From: 2010.05.17/outbox.cif.g08.bks.cpg/sg15_44_cif.got.tgz:87923.got - 2010.06.03 18:47:42.
