data_PCOD9287555
_publ_section_title
;
Structure prediction by ZEFSAII (Michael W. Deem and Ramdas Pophale) SiO2 
 PCOD9287555
Probable space group: C 2/C
;
_chemical_formula_sum "Si O2"
_cell_formula_units_Z 40
_cell_length_a 15.968135
_cell_length_b 14.159974
_cell_length_c 16.444180
_cell_angle_alpha 90.000000
_cell_angle_beta 154.542923
_cell_angle_gamma 90.000000
_cell_volume 1598.197524
_symmetry_space_group_name_H-M "C 2/C"
_symmetry_group_IT_number 15
_symmetry_cell_setting 'monoclinic'
loop_
_space_group_symop_operation_xyz
x,y,z
-x,y,1/2-z
-x,-y,-z
x,-y,1/2+z
1/2+x,1/2+y,z
1/2-x,1/2+y,1/2-z
1/2-x,1/2-y,-z
1/2+x,1/2-y,1/2+z
loop_
_atom_site_type_symbol
_atom_site_label
_atom_site_fract_x
_atom_site_fract_y
_atom_site_fract_z
Si Si1 0.550872 0.184489 0.382974
Si Si2 0.560288 0.382041 0.191480
Si Si3 0.291013 0.094467 0.740515
Si Si4 0.463812 0.398970 0.625741
Si Si5 0.821612 0.377033 0.826735
O O1 0.500000 0.145776 0.250000
O O2 0.578362 0.297554 0.401101
O O3 0.730847 0.130840 0.581069
O O4 0.371944 0.179613 0.289703
O O5 0.612661 0.374538 0.142264
O O6 0.484411 0.486431 0.142165
O O7 0.235138 0.117398 0.599105
O O8 0.307481 0.983261 0.777548
O O9 0.493149 0.134324 0.951097
O O10 0.500000 0.368078 0.750000
O O11 0.636051 0.359333 0.719698
#
# Coordination Sequence:
#
# PCOD9287555 Si02
#       5
#     8   8   8   8   8
#     4  11  23  35  59  90 128 155 186 238 299 369
#     4  10  22  37  55  92 119 158 189 235 306 355
#     4   9  20  39  60  80 120 156 202 240 290 351
#     4  11  23  38  63  89 115 155 207 248 286 344
#     4   9  20  39  58  86 117 162 191 241 300 341
#
# _framework density 25.028196000000001
#
# number of rings (size 3 to 8) (size 9 to 14) (size 15 to 20)
#    0.000    2.000    0.000    4.800    8.400    0.800 
#    0.000    0.000    0.000    1.200    0.000    0.000 
#    0.000    0.000    0.000    0.000    0.000    0.000 
#
# Total GULP energy -111928.862169 kJ/mol
# GULP energy per Si atom -5596.443108 kJ/mol
# Density = 2.497123 g / cm^3
# Si number density = 25.028196 Si / 1000 Ang^3
#
#
#
# Elastic Constant Matrix: (Units=GPa)
#
#
# Indices 1 2 3 4 5 6 
#
# 1 134.4685 5.5251 77.7176 0.0035 -41.9904 0.0004
# 2 5.5251 46.2901 -9.1245 -0.0049 -2.1174 0.0011
# 3 77.7176 -9.1245 185.8055 -0.0088 -58.1853 0.0006
# 4 0.0035 -0.0049 -0.0088 21.2730 -0.0029 4.4431
# 5 -41.9904 -2.1174 -58.1853 -0.0029 49.7727 0.0004
# 6 0.0004 0.0011 0.0006 4.4431 0.0004 27.0537
#
#
#
# Elastic Compliance Matrix: (Units=1/GPa)
#
#
# Indices 1 2 3 4 5 6 
#
# 1 0.010973 -0.001597 -0.002825 -0.000003 0.005888 0.000000
# 2 -0.001597 0.022426 0.002597 0.000007 0.002642 -0.000002
# 3 -0.002825 0.002597 0.009432 0.000006 0.008754 -0.000001
# 4 -0.000003 0.000007 0.000006 0.048678 0.000009 -0.007994
# 5 0.005888 0.002642 0.008754 0.000009 0.035404 -0.000002
# 6 0.000000 -0.000002 -0.000001 -0.007994 -0.000002 0.038276
#
#
# Mechanical properties :
#
#
# Convention : Reuss Voigt Hill
#
# Bulk Modulus (GPa) = 25.52193 57.20004 41.36098
# Shear Modulus (GPa) = 27.48748 39.11629 33.30189
#
# Velocity S-wave (km/s) = 3.31760 3.95763 3.65166
# Velocity P-wave (km/s) = 4.98946 6.61722 5.86013
#
# Compressibility (1/GPa) = 0.03918199
#
# Stress axis : x y z
#
# Youngs Moduli (GPa) = 91.13006 44.59054 106.01879
#
# Poissons Ratio (x) = 0.07122 0.29946
# Poissons Ratio (y) = 0.14555 -0.27531
# Poissons Ratio (z) = 0.25740 -0.11579
#
# Static dielectric constant tensor:
#      x y z
#    x 2.000060 0.000000 0.019930 
#    y 0.000000 2.031940 0.000000 
#    z 0.019930 0.000000 2.003600 
# 
# From -- ./inp_files/46907.got.cif
#   From: 2010.05.17/outbox.cif.g08.bks.cpg/sg15_24_cif.got.tgz:46907.got - 2010.06.03 18:47:42.
