data_PCOD9287234
_publ_section_title
;
Structure prediction by ZEFSAII (Michael W. Deem and Ramdas Pophale) SiO2 
 PCOD9287234
Probable space group: C 2/C
;
_chemical_formula_sum "Si O2"
_cell_formula_units_Z 52
_cell_length_a 11.803068
_cell_length_b 29.926712
_cell_length_c 7.605097
_cell_angle_alpha 90.000000
_cell_angle_beta 73.710290
_cell_angle_gamma 90.000000
_cell_volume 2578.485013
_symmetry_space_group_name_H-M "C 2/C"
_symmetry_group_IT_number 15
_symmetry_cell_setting 'monoclinic'
loop_
_space_group_symop_operation_xyz
x,y,z
-x,y,1/2-z
-x,-y,-z
x,-y,1/2+z
1/2+x,1/2+y,z
1/2-x,1/2+y,1/2-z
1/2-x,1/2-y,-z
1/2+x,1/2-y,1/2+z
loop_
_atom_site_type_symbol
_atom_site_label
_atom_site_fract_x
_atom_site_fract_y
_atom_site_fract_z
Si Si1 0.752960 0.824794 0.310143
Si Si2 0.426798 0.651091 0.044831
Si Si3 0.601201 0.434774 0.486563
Si Si4 0.989368 0.669359 0.954892
Si Si5 0.000000 0.984494 0.250000
Si Si6 0.242461 0.631536 0.426280
Si Si7 0.573930 0.261231 0.390106
O O1 0.850865 0.846170 0.396947
O O2 0.624861 0.827318 0.455063
O O3 0.798827 0.775248 0.241099
O O4 0.749785 0.846891 0.118495
O O5 0.505831 0.606226 0.031912
O O6 0.334651 0.651737 0.246283
O O7 0.510227 0.694984 0.999238
O O8 0.599137 0.451512 0.287255
O O9 0.561675 0.480076 0.596584
O O10 0.713937 0.417749 0.543448
O O11 0.000000 0.653579 0.750000
O O12 0.890188 0.638471 0.085330
O O13 0.932264 0.718848 0.982587
O O14 0.500000 0.248179 0.250000
#
# Coordination Sequence:
#
# PCOD9287234 Si02
#       7
#     8   8   8   8   4   8   8
#     4  10  23  39  54  83 116 162 205 244 295 338
#     4  11  22  37  62  85 118 159 195 245 302 356
#     4  11  20  39  58  98 119 148 189 236 317 356
#     4  10  25  38  55  85 117 164 212 246 290 337
#     4  10  22  34  64  92 132 140 180 256 300 378
#     4  11  22  38  60  83 123 156 195 247 292 361
#     4  10  23  36  57  84 117 161 204 255 296 335
#
# _framework density 20.166879999999999
#
# number of rings (size 3 to 8) (size 9 to 14) (size 15 to 20)
#    0.000    1.538    3.077    0.923    7.538    2.462 
#    0.000    0.000    0.000    0.000    0.000   29.077 
#    0.000    0.000    0.000    0.000    0.000    0.000 
#
# Total GULP energy -144813.746108 kJ/mol
# GULP energy per Si atom -5569.759466 kJ/mol
# Density = 2.012098 g / cm^3
# Si number density = 20.166880 Si / 1000 Ang^3
#
#
#
# Elastic Constant Matrix: (Units=GPa)
#
#
# Indices 1 2 3 4 5 6 
#
# 1 101.5226 31.3079 19.5818 0.0000 -31.4836 0.0000
# 2 31.3079 66.5913 23.9479 0.0000 -20.2221 0.0000
# 3 19.5818 23.9479 65.3423 0.0000 -9.8553 0.0000
# 4 0.0000 0.0000 0.0000 26.0350 0.0000 2.3749
# 5 -31.4836 -20.2221 -9.8553 0.0000 26.0445 0.0000
# 6 0.0000 0.0000 0.0000 2.3749 0.0000 21.2069
#
#
#
# Elastic Compliance Matrix: (Units=1/GPa)
#
#
# Indices 1 2 3 4 5 6 
#
# 1 0.016127 -0.001674 -0.001564 0.000000 0.017603 0.000000
# 2 -0.001674 0.021642 -0.005516 0.000000 0.012693 0.000000
# 3 -0.001564 -0.005516 0.017884 0.000000 0.000593 0.000000
# 4 0.000000 0.000000 0.000000 0.038806 0.000000 -0.004346
# 5 0.017603 0.012693 0.000593 0.000000 0.069756 0.000000
# 6 0.000000 0.000000 0.000000 -0.004346 0.000000 0.047641
#
#
# Mechanical properties :
#
#
# Convention : Reuss Voigt Hill
#
# Bulk Modulus (GPa) = 26.21569 42.57014 34.39291
# Shear Modulus (GPa) = 20.65438 25.23185 22.94311
#
# Velocity S-wave (km/s) = 3.20374 3.54100 3.37659
# Velocity P-wave (km/s) = 5.16845 6.15411 5.68269
#
# Compressibility (1/GPa) = 0.03814510
#
# Stress axis : x y z
#
# Youngs Moduli (GPa) = 62.00767 46.20615 55.91626
#
# Poissons Ratio (x) = 0.07734 0.08748
# Poissons Ratio (y) = 0.10379 0.30842
# Poissons Ratio (z) = 0.09701 0.25486
#
# Static dielectric constant tensor:
#      x y z
#    x 1.891260 0.000000 0.096190 
#    y 0.000000 1.732480 0.000000 
#    z 0.096190 0.000000 1.895750 
# 
# From -- ./inp_files/33495.got.cif
#   From: 2010.05.17/outbox.cif.g08.bks.cpg/sg15_17_cif.got.tgz:33495.got - 2010.06.03 18:47:42.
