data_PCOD9287784
_publ_section_title
;
Structure prediction by ZEFSAII (Michael W. Deem and Ramdas Pophale) SiO2 
 PCOD9287784
Probable space group: C 2/C
;
_chemical_formula_sum "Si O2"
_cell_formula_units_Z 32
_cell_length_a 8.117601
_cell_length_b 11.736415
_cell_length_c 15.011769
_cell_angle_alpha 90.000000
_cell_angle_beta 92.287069
_cell_angle_gamma 90.000000
_cell_volume 1429.055009
_symmetry_space_group_name_H-M "C 2/C"
_symmetry_group_IT_number 15
_symmetry_cell_setting 'monoclinic'
loop_
_space_group_symop_operation_xyz
x,y,z
-x,y,1/2-z
-x,-y,-z
x,-y,1/2+z
1/2+x,1/2+y,z
1/2-x,1/2+y,1/2-z
1/2-x,1/2-y,-z
1/2+x,1/2-y,1/2+z
loop_
_atom_site_type_symbol
_atom_site_label
_atom_site_fract_x
_atom_site_fract_y
_atom_site_fract_z
Si Si1 0.070666 0.892656 0.838327
Si Si2 0.395310 0.218633 0.385238
Si Si3 0.252628 0.817503 0.592963
Si Si4 0.733224 0.563809 0.515940
O O1 0.242288 0.827285 0.823830
O O2 0.000000 0.954502 0.750000
O O3 0.924127 0.806590 0.863267
O O4 0.115857 0.962833 0.927914
O O5 0.750000 0.250000 0.500000
O O6 0.579956 0.218141 0.354172
O O7 0.348091 0.340396 0.424168
O O8 0.383503 0.130101 0.469856
O O9 0.268376 0.951574 0.571088
#
# Coordination Sequence:
#
# PCOD9287784 Si02
#       4
#     8   8   8   8
#     4  10  22  38  55  86 125 144 188 256 295 336
#     4   9  20  36  62  84 111 153 201 236 290 349
#     4  12  20  35  67  83 108 163 201 231 299 354
#     4   9  19  39  59  85 117 142 208 242 270 364
#
# _framework density 22.392420000000001
#
# number of rings (size 3 to 8) (size 9 to 14) (size 15 to 20)
#    1.500    0.500    2.500    1.500    0.000    1.000 
#    0.000    2.500    0.000    0.000    0.000    0.000 
#    0.000    0.000    0.000    0.000    0.000    0.000 
#
# Total GULP energy -89139.310378 kJ/mol
# GULP energy per Si atom -5571.206899 kJ/mol
# Density = 2.234145 g / cm^3
# Si number density = 22.392420 Si / 1000 Ang^3
#
#
#
# Elastic Constant Matrix: (Units=GPa)
#
#
# Indices 1 2 3 4 5 6 
#
# 1 152.0548 -6.0360 5.3034 0.0000 22.6044 0.0000
# 2 -6.0360 67.5910 -3.1959 0.0000 4.4211 0.0000
# 3 5.3034 -3.1959 71.7732 0.0000 19.2617 0.0000
# 4 0.0000 0.0000 0.0000 10.9381 0.0000 6.1011
# 5 22.6044 4.4211 19.2617 0.0000 33.4186 0.0000
# 6 0.0000 0.0000 0.0000 6.1011 0.0000 20.1316
#
#
#
# Elastic Compliance Matrix: (Units=1/GPa)
#
#
# Indices 1 2 3 4 5 6 
#
# 1 0.007443 0.001093 0.001051 0.000000 -0.005785 0.000000
# 2 0.001093 0.015207 0.001579 0.000000 -0.003661 0.000000
# 3 0.001051 0.001579 0.016766 0.000000 -0.010583 0.000000
# 4 0.000000 0.000000 0.000000 0.110022 0.000000 -0.033343
# 5 -0.005785 -0.003661 -0.010583 0.000000 0.040421 0.000000
# 6 0.000000 0.000000 0.000000 -0.033343 0.000000 0.059778
#
#
# Mechanical properties :
#
#
# Convention : Reuss Voigt Hill
#
# Bulk Modulus (GPa) = 21.33957 31.50689 26.42323
# Shear Modulus (GPa) = 19.39403 32.58749 25.99076
#
# Velocity S-wave (km/s) = 2.94615 3.81897 3.41059
# Velocity P-wave (km/s) = 4.59604 5.79197 5.22831
#
# Compressibility (1/GPa) = 0.04686131
#
# Stress axis : x y z
#
# Youngs Moduli (GPa) = 134.34875 65.76104 59.64582
#
# Poissons Ratio (x) = -0.07186 -0.06270
# Poissons Ratio (y) = -0.14682 -0.09417
# Poissons Ratio (z) = -0.14123 -0.10383
#
# Static dielectric constant tensor:
#      x y z
#    x 1.929110 0.000000 -0.016080 
#    y 0.000000 1.772040 0.000000 
#    z -0.016080 0.000000 1.888640 
# 
# From -- ./inp_files/229667.got.cif
#   From: 2010.05.17/outbox.cif.g08.bks.cpg/sg15_115_cif.got.tgz:229667.got - 2010.06.03 18:47:42.
