data_PCOD9287587
_publ_section_title
;
Structure prediction by ZEFSAII (Michael W. Deem and Ramdas Pophale) SiO2 
 PCOD9287587
Probable space group: C 2/C
;
_chemical_formula_sum "Si O2"
_cell_formula_units_Z 64
_cell_length_a 15.087094
_cell_length_b 26.602274
_cell_length_c 14.910647
_cell_angle_alpha 90.000000
_cell_angle_beta 140.813741
_cell_angle_gamma 90.000000
_cell_volume 3781.205868
_symmetry_space_group_name_H-M "C 2/C"
_symmetry_group_IT_number 15
_symmetry_cell_setting 'monoclinic'
loop_
_space_group_symop_operation_xyz
x,y,z
-x,y,1/2-z
-x,-y,-z
x,-y,1/2+z
1/2+x,1/2+y,z
1/2-x,1/2+y,1/2-z
1/2-x,1/2-y,-z
1/2+x,1/2-y,1/2+z
loop_
_atom_site_type_symbol
_atom_site_label
_atom_site_fract_x
_atom_site_fract_y
_atom_site_fract_z
Si Si1 0.315765 0.302620 0.805745
Si Si2 0.393654 0.042203 0.881759
Si Si3 0.093881 0.377656 0.957844
Si Si4 0.057182 0.378171 0.394048
Si Si5 0.780017 0.385061 0.636367
Si Si6 0.865094 0.107472 0.207527
Si Si7 0.994157 0.708518 0.501904
Si Si8 0.642555 0.528331 0.134732
O O1 0.292257 0.336671 0.875602
O O2 0.363793 0.341469 0.765925
O O3 0.424764 0.258385 0.907339
O O4 0.162107 0.281862 0.658218
O O5 0.471690 0.075641 0.869299
O O6 0.260084 0.013795 0.739488
O O7 0.357719 0.080320 0.934135
O O8 0.500000 0.000000 0.000000
O O9 0.187011 0.378259 0.942013
O O10 0.932486 0.390513 0.804119
O O11 0.080836 0.323846 0.996334
O O12 0.221702 0.390918 0.536876
O O13 0.000000 0.369749 0.250000
O O14 0.025728 0.329452 0.430370
O O15 0.690044 0.433425 0.593528
O O16 0.862633 0.062244 0.278532
O O17 0.000000 0.104253 0.250000
O O18 0.500000 0.500000 0.000000
#
# Coordination Sequence:
#
# PCOD9287587 Si02
#       8
#     8   8   8   8   8   8   8   8
#     4   9  19  37  58  78 110 144 178 223 274 328
#     4  11  19  37  58  79 108 144 186 227 263 318
#     4   9  18  34  60  82 105 140 187 228 260 324
#     4  10  22  37  58  84 108 142 192 229 264 324
#     4   9  18  36  57  81 108 144 181 220 277 325
#     4  10  22  39  55  81 116 145 178 229 280 323
#     4   9  19  37  56  82 110 140 179 226 273 325
#     4  11  23  37  54  81 115 147 181 223 277 327
#
# _framework density 16.925816999999999
#
# number of rings (size 3 to 8) (size 9 to 14) (size 15 to 20)
#    0.000    2.250    2.500    1.500    1.750    4.000 
#    6.750    2.500    0.000    0.000    0.000    0.000 
#    0.000    0.000    0.000    0.000    0.000    0.000 
#
# Total GULP energy -178509.667072 kJ/mol
# GULP energy per Si atom -5578.427096 kJ/mol
# Density = 1.688729 g / cm^3
# Si number density = 16.925817 Si / 1000 Ang^3
#
#
#
# Elastic Constant Matrix: (Units=GPa)
#
#
# Indices 1 2 3 4 5 6 
#
# 1 120.3182 40.2259 47.2941 0.0000 6.9057 0.0000
# 2 40.2259 94.6234 53.0005 0.0000 20.4512 0.0000
# 3 47.2941 53.0005 96.7504 0.0000 13.1414 0.0000
# 4 0.0000 0.0000 0.0000 34.2234 0.0000 11.3637
# 5 6.9057 20.4512 13.1414 0.0000 26.2825 0.0000
# 6 0.0000 0.0000 0.0000 11.3637 0.0000 7.5671
#
#
#
# Elastic Compliance Matrix: (Units=1/GPa)
#
#
# Indices 1 2 3 4 5 6 
#
# 1 0.010660 -0.002565 -0.003966 0.000000 0.001178 0.000000
# 2 -0.002565 0.017735 -0.007165 0.000000 -0.009543 0.000000
# 3 -0.003966 -0.007165 0.016416 0.000000 -0.001591 0.000000
# 4 0.000000 0.000000 0.000000 0.058281 0.000000 -0.087521
# 5 0.001178 -0.009543 -0.001591 0.000000 0.045960 0.000000
# 6 0.000000 0.000000 0.000000 -0.087521 0.000000 0.263584
#
#
# Mechanical properties :
#
#
# Convention : Reuss Voigt Hill
#
# Bulk Modulus (GPa) = 57.41023 65.85924 61.63474
# Shear Modulus (GPa) = 11.21497 25.02604 18.12051
#
# Velocity S-wave (km/s) = 2.57689 3.84939 3.27553
# Velocity P-wave (km/s) = 6.54570 7.66499 7.12735
#
# Compressibility (1/GPa) = 0.01741850
#
# Stress axis : x y z
#
# Youngs Moduli (GPa) = 93.80772 56.38724 60.91798
#
# Poissons Ratio (x) = 0.14464 0.24159
# Poissons Ratio (y) = 0.24062 0.43648
# Poissons Ratio (z) = 0.37202 0.40401
#
# Static dielectric constant tensor:
#      x y z
#    x 1.558410 0.000000 -0.030310 
#    y 0.000000 1.549390 0.000000 
#    z -0.030310 0.000000 1.499370 
# 
# From -- ./inp_files/156816.got.cif
#   From: 2010.05.17/outbox.cif.g08.bks.cpg/sg15_79_cif.got.tgz:156816.got - 2010.06.03 18:47:42.
