data_PCOD9287200
_publ_section_title
;
Structure prediction by ZEFSAII (Michael W. Deem and Ramdas Pophale) SiO2 
 PCOD9287200
Probable space group: C 2/C
;
_chemical_formula_sum "Si O2"
_cell_formula_units_Z 56
_cell_length_a 28.236718
_cell_length_b 12.870845
_cell_length_c 9.822265
_cell_angle_alpha 90.000000
_cell_angle_beta 111.019456
_cell_angle_gamma 90.000000
_cell_volume 3332.176697
_symmetry_space_group_name_H-M "C 2/C"
_symmetry_group_IT_number 15
_symmetry_cell_setting 'monoclinic'
loop_
_space_group_symop_operation_xyz
x,y,z
-x,y,1/2-z
-x,-y,-z
x,-y,1/2+z
1/2+x,1/2+y,z
1/2-x,1/2+y,1/2-z
1/2-x,1/2-y,-z
1/2+x,1/2-y,1/2+z
loop_
_atom_site_type_symbol
_atom_site_label
_atom_site_fract_x
_atom_site_fract_y
_atom_site_fract_z
Si Si1 0.493212 0.105624 0.406421
Si Si2 0.666595 0.197263 0.909973
Si Si3 0.882311 0.588176 0.379120
Si Si4 0.225413 0.095127 0.548830
Si Si5 0.776764 0.895709 0.136796
Si Si6 0.100244 0.340242 0.081385
Si Si7 0.827758 0.691584 0.085248
O O1 0.500000 0.089481 0.250000
O O2 0.435894 0.136877 0.384281
O O3 0.539904 0.175670 0.506275
O O4 0.500000 0.000000 0.500000
O O5 0.716984 0.132281 0.922154
O O6 0.627665 0.201105 0.744235
O O7 0.638820 0.141462 0.007207
O O8 0.688152 0.310024 0.972329
O O9 0.890005 0.465371 0.409656
O O10 0.843265 0.609902 0.217142
O O11 0.220751 0.073580 0.703747
O O12 0.213816 0.994009 0.448709
O O13 0.813736 0.800019 0.141284
O O14 0.720896 0.851279 0.045306
O O15 0.127638 0.296085 0.976964
#
# Coordination Sequence:
#
# PCOD9287200 Si02
#       7
#     8   8   8   8   8   8   8
#     4  10  22  34  52  81 113 145 185 226 274 329
#     4  11  24  37  55  82 114 149 187 222 273 332
#     4  11  21  37  55  80 117 148 185 224 273 329
#     4  11  24  39  55  82 113 145 187 232 270 322
#     4  11  24  37  57  81 112 147 187 232 269 322
#     4  11  21  35  57  82 112 150 182 223 275 329
#     4  11  22  37  55  82 112 150 186 219 275 328
#
# _framework density 16.805831000000001
#
# number of rings (size 3 to 8) (size 9 to 14) (size 15 to 20)
#    0.000    1.143    4.286    2.571   10.000    0.000 
#    0.000    0.000    0.000    0.000    0.000    6.000 
#    0.000    0.000    0.000    0.000    0.000    0.000 
#
# Total GULP energy -156357.397703 kJ/mol
# GULP energy per Si atom -5584.192775 kJ/mol
# Density = 1.676758 g / cm^3
# Si number density = 16.805831 Si / 1000 Ang^3
#
#
#
# Elastic Constant Matrix: (Units=GPa)
#
#
# Indices 1 2 3 4 5 6 
#
# 1 97.9309 26.5305 48.3461 0.0000 -8.3018 0.0000
# 2 26.5305 61.4456 27.7431 0.0000 -6.1234 0.0000
# 3 48.3461 27.7431 122.4047 0.0000 -17.5834 0.0000
# 4 0.0000 0.0000 0.0000 13.4546 0.0000 6.7355
# 5 -8.3018 -6.1234 -17.5834 0.0000 30.8598 0.0000
# 6 0.0000 0.0000 0.0000 6.7355 0.0000 15.4851
#
#
#
# Elastic Compliance Matrix: (Units=1/GPa)
#
#
# Indices 1 2 3 4 5 6 
#
# 1 0.013437 -0.003780 -0.004399 0.000000 0.000358 0.000000
# 2 -0.003780 0.019246 -0.002687 0.000000 0.001271 0.000000
# 3 -0.004399 -0.002687 0.011185 0.000000 0.004656 0.000000
# 4 0.000000 0.000000 0.000000 0.095013 0.000000 -0.041328
# 5 0.000358 0.001271 0.004656 0.000000 0.035406 0.000000
# 6 0.000000 0.000000 0.000000 -0.041328 0.000000 0.082554
#
#
# Mechanical properties :
#
#
# Convention : Reuss Voigt Hill
#
# Bulk Modulus (GPa) = 45.17262 54.11338 49.64300
# Shear Modulus (GPa) = 17.48538 23.90400 20.69469
#
# Velocity S-wave (km/s) = 3.22908 3.77551 3.51294
# Velocity P-wave (km/s) = 6.39062 7.16066 6.78657
#
# Compressibility (1/GPa) = 0.02213730
#
# Stress axis : x y z
#
# Youngs Moduli (GPa) = 74.41891 51.95791 89.40550
#
# Poissons Ratio (x) = 0.19640 0.39331
# Poissons Ratio (y) = 0.28130 0.24020
# Poissons Ratio (z) = 0.32738 0.13959
#
# Static dielectric constant tensor:
#      x y z
#    x 1.583110 0.000000 0.013160 
#    y 0.000000 1.547650 0.000000 
#    z 0.013160 0.000000 1.573950 
# 
# From -- ./inp_files/65424.got.cif
#   From: 2010.05.17/outbox.cif.g08.bks.cpg/sg15_33_cif.got.tgz:65424.got - 2010.06.03 18:47:42.
