data_PCOD9287211
_publ_section_title
;
Structure prediction by ZEFSAII (Michael W. Deem and Ramdas Pophale) SiO2 
 PCOD9287211
Probable space group: C 2/C
;
_chemical_formula_sum "Si O2"
_cell_formula_units_Z 64
_cell_length_a 24.782785
_cell_length_b 20.899595
_cell_length_c 8.262613
_cell_angle_alpha 90.000000
_cell_angle_beta 47.446014
_cell_angle_gamma 90.000000
_cell_volume 3152.542514
_symmetry_space_group_name_H-M "C 2/C"
_symmetry_group_IT_number 15
_symmetry_cell_setting 'monoclinic'
loop_
_space_group_symop_operation_xyz
x,y,z
-x,y,1/2-z
-x,-y,-z
x,-y,1/2+z
1/2+x,1/2+y,z
1/2-x,1/2+y,1/2-z
1/2-x,1/2-y,-z
1/2+x,1/2-y,1/2+z
loop_
_atom_site_type_symbol
_atom_site_label
_atom_site_fract_x
_atom_site_fract_y
_atom_site_fract_z
Si Si1 0.204251 0.097206 0.078406
Si Si2 0.931888 0.646738 0.269261
Si Si3 0.676508 0.803564 0.250522
Si Si4 0.774440 0.203221 0.093808
Si Si5 0.923241 0.786212 0.126215
Si Si6 0.411929 0.297874 0.765912
Si Si7 0.254353 0.007716 0.691780
Si Si8 0.171753 0.417224 0.745597
O O1 0.273084 0.145497 0.941058
O O2 0.215839 0.051748 0.900891
O O3 0.136214 0.142925 0.193931
O O4 0.203780 0.050117 0.231339
O O5 0.864000 0.656301 0.528313
O O6 0.937196 0.715306 0.169538
O O7 0.905550 0.599037 0.181183
O O8 0.000000 0.632507 0.250000
O O9 0.720832 0.747739 0.256205
O O10 0.617773 0.766115 0.261214
O O11 0.715223 0.146541 0.213264
O O12 0.750000 0.250000 0.000000
O O13 0.857889 0.184445 0.869337
O O14 0.902168 0.787309 0.978728
O O15 0.005178 0.813719 0.954148
O O16 0.278437 0.051230 0.494771
O O17 0.325063 0.970865 0.622150
#
# Coordination Sequence:
#
# PCOD9287211 Si02
#       8
#     8   8   8   8   8   8   8   8
#     4  11  22  39  61  86 122 153 212 249 292 349
#     4  11  21  38  58  85 123 157 184 237 310 379
#     4  11  21  34  59  92 119 150 195 250 308 368
#     4  11  19  34  62  89 114 155 194 241 316 360
#     4  10  22  34  56  88 127 152 183 236 320 369
#     4  11  22  36  56  91 126 154 186 255 310 356
#     4  10  23  39  60  85 113 164 213 248 277 340
#     4  11  21  39  61  82 117 157 201 250 287 346
#
# _framework density 20.301072999999999
#
# number of rings (size 3 to 8) (size 9 to 14) (size 15 to 20)
#    0.000    1.250    5.000    2.625    1.750    0.000 
#    0.000    0.625    0.000   13.500    0.000    0.000 
#    0.000    0.000    0.000    0.000    0.000    0.000 
#
# Total GULP energy -178621.310311 kJ/mol
# GULP energy per Si atom -5581.915947 kJ/mol
# Density = 2.025487 g / cm^3
# Si number density = 20.301073 Si / 1000 Ang^3
#
#
#
# Elastic Constant Matrix: (Units=GPa)
#
#
# Indices 1 2 3 4 5 6 
#
# 1 95.2380 31.2712 12.4483 0.0000 -3.8478 0.0000
# 2 31.2712 66.1311 19.8721 0.0000 2.2215 0.0000
# 3 12.4483 19.8721 36.6312 0.0000 -4.5085 0.0000
# 4 0.0000 0.0000 0.0000 24.7241 0.0000 15.4621
# 5 -3.8478 2.2215 -4.5085 0.0000 30.8318 0.0000
# 6 0.0000 0.0000 0.0000 15.4621 0.0000 39.8573
#
#
#
# Elastic Compliance Matrix: (Units=1/GPa)
#
#
# Indices 1 2 3 4 5 6 
#
# 1 0.012578 -0.005727 -0.000940 0.000000 0.001845 0.000000
# 2 -0.005727 0.020912 -0.009849 0.000000 -0.003662 0.000000
# 3 -0.000940 -0.009849 0.033640 0.000000 0.005511 0.000000
# 4 0.000000 0.000000 0.000000 0.053402 0.000000 -0.020717
# 5 0.001845 -0.003662 0.005511 0.000000 0.033734 0.000000
# 6 0.000000 0.000000 0.000000 -0.020717 0.000000 0.033126
#
#
# Mechanical properties :
#
#
# Convention : Reuss Voigt Hill
#
# Bulk Modulus (GPa) = 29.32807 36.13151 32.72979
# Shear Modulus (GPa) = 21.57109 28.04323 24.80716
#
# Velocity S-wave (km/s) = 3.26323 3.72071 3.49945
# Velocity P-wave (km/s) = 5.35501 6.02451 5.69960
#
# Compressibility (1/GPa) = 0.03409703
#
# Stress axis : x y z
#
# Youngs Moduli (GPa) = 79.50434 47.81874 29.72640
#
# Poissons Ratio (x) = 0.27386 0.02795
# Poissons Ratio (y) = 0.45533 0.29278
# Poissons Ratio (z) = 0.07476 0.47098
#
# Static dielectric constant tensor:
#      x y z
#    x 1.782090 0.000000 0.006440 
#    y 0.000000 1.707090 0.000000 
#    z 0.006440 0.000000 1.734560 
# 
# From -- ./inp_files/63411.got.cif
#   From: 2010.05.17/outbox.cif.g08.bks.cpg/sg15_32_cif.got.tgz:63411.got - 2010.06.03 18:47:42.
