data_PCOD9287578
_publ_section_title
;
Structure prediction by ZEFSAII (Michael W. Deem and Ramdas Pophale) SiO2 
 PCOD9287578
Probable space group: C 2/C
;
_chemical_formula_sum "Si O2"
_cell_formula_units_Z 60
_cell_length_a 16.677385
_cell_length_b 9.182233
_cell_length_c 18.565002
_cell_angle_alpha 90.000000
_cell_angle_beta 98.302929
_cell_angle_gamma 90.000000
_cell_volume 2813.164587
_symmetry_space_group_name_H-M "C 2/C"
_symmetry_group_IT_number 15
_symmetry_cell_setting 'monoclinic'
loop_
_space_group_symop_operation_xyz
x,y,z
-x,y,1/2-z
-x,-y,-z
x,-y,1/2+z
1/2+x,1/2+y,z
1/2-x,1/2+y,1/2-z
1/2-x,1/2-y,-z
1/2+x,1/2-y,1/2+z
loop_
_atom_site_type_symbol
_atom_site_label
_atom_site_fract_x
_atom_site_fract_y
_atom_site_fract_z
Si Si1 0.812678 0.566997 0.407520
Si Si2 0.738252 0.996510 0.438434
Si Si3 0.500000 0.239631 0.750000
Si Si4 0.665762 0.268278 0.611438
Si Si5 0.001510 0.900572 0.902077
Si Si6 0.249846 0.196063 0.264553
Si Si7 0.592899 0.339419 0.055568
Si Si8 0.655276 0.961458 0.286527
O O1 0.782098 0.553612 0.484773
O O2 0.831649 0.404272 0.385321
O O3 0.745269 0.630115 0.343782
O O4 0.890362 0.673967 0.418965
O O5 0.818492 0.910563 0.424017
O O6 0.665025 0.970465 0.373702
O O7 0.766575 0.163351 0.431738
O O8 0.512356 0.339531 0.822836
O O9 0.422762 0.131406 0.745094
O O10 0.577320 0.316760 0.577355
O O11 0.686343 0.337608 0.692464
O O12 0.973583 0.069235 0.907623
O O13 0.070692 0.862045 0.968523
O O14 0.234072 0.367416 0.271050
O O15 0.332268 0.121869 0.245423
#
# Coordination Sequence:
#
# PCOD9287578 Si02
#       8
#     8   8   4   8   8   8   8   8
#     4  12  21  35  64  89 118 158 212 261 310 364
#     4  10  22  38  61  90 122 157 212 261 300 380
#     4  12  22  38  68  94 122 168 210 262 318 378
#     4  10  22  40  57  90 123 165 203 256 318 378
#     4  10  22  39  58  85 125 162 204 256 317 377
#     4  11  21  38  62  92 120 167 211 255 311 388
#     4  10  22  37  57  88 121 160 208 254 307 376
#     4  11  23  40  64  93 126 163 213 261 316 379
#
# _framework density 21.328292999999999
#
# number of rings (size 3 to 8) (size 9 to 14) (size 15 to 20)
#    0.000    1.333    4.000    1.600    1.867    0.533 
#    0.000    1.333    0.000    8.800    0.000    0.000 
#    0.000    0.000    0.000    0.000    0.000    0.000 
#
# Total GULP energy -167178.086129 kJ/mol
# GULP energy per Si atom -5572.602871 kJ/mol
# Density = 2.127975 g / cm^3
# Si number density = 21.328293 Si / 1000 Ang^3
#
#
#
# Elastic Constant Matrix: (Units=GPa)
#
#
# Indices 1 2 3 4 5 6 
#
# 1 45.2756 27.6821 31.8311 0.0000 7.6264 0.0000
# 2 27.6821 115.1574 24.3995 0.0000 10.5761 0.0000
# 3 31.8311 24.3995 140.8472 0.0000 4.3422 0.0000
# 4 0.0000 0.0000 0.0000 33.3591 0.0000 1.5247
# 5 7.6264 10.5761 4.3422 0.0000 26.5688 0.0000
# 6 0.0000 0.0000 0.0000 1.5247 0.0000 26.1902
#
#
#
# Elastic Compliance Matrix: (Units=1/GPa)
#
#
# Indices 1 2 3 4 5 6 
#
# 1 0.030493 -0.005599 -0.005749 0.000000 -0.005584 0.000000
# 2 -0.005599 0.010349 -0.000452 0.000000 -0.002439 0.000000
# 3 -0.005749 -0.000452 0.008464 0.000000 0.000447 0.000000
# 4 0.000000 0.000000 0.000000 0.030057 0.000000 -0.001750
# 5 -0.005584 -0.002439 0.000447 0.000000 0.040139 0.000000
# 6 0.000000 0.000000 0.000000 -0.001750 0.000000 0.038284
#
#
# Mechanical properties :
#
#
# Convention : Reuss Voigt Hill
#
# Bulk Modulus (GPa) = 38.90285 52.12283 45.51284
# Shear Modulus (GPa) = 26.32197 31.71480 29.01838
#
# Velocity S-wave (km/s) = 3.51684 3.86032 3.69258
# Velocity P-wave (km/s) = 5.89665 6.66040 6.29012
#
# Compressibility (1/GPa) = 0.02570506
#
# Stress axis : x y z
#
# Youngs Moduli (GPa) = 32.79446 96.62304 118.15055
#
# Poissons Ratio (x) = 0.54100 0.67927
# Poissons Ratio (y) = 0.18362 0.05344
# Poissons Ratio (z) = 0.18854 0.04371
#
# Static dielectric constant tensor:
#      x y z
#    x 1.764130 0.000000 -0.028410 
#    y 0.000000 1.840300 0.000000 
#    z -0.028410 0.000000 1.806270 
# 
# From -- ./inp_files/247558.got.cif
#   From: 2010.05.17/outbox.cif.g08.bks.cpg/sg15_124_cif.got.tgz:247558.got - 2010.06.03 18:47:42.
