data_PCOD9287153
_publ_section_title
;
Structure prediction by ZEFSAII (Michael W. Deem and Ramdas Pophale) SiO2 
 PCOD9287153
Probable space group: C 2/C
;
_chemical_formula_sum "Si O2"
_cell_formula_units_Z 52
_cell_length_a 29.493747
_cell_length_b 11.554784
_cell_length_c 9.229406
_cell_angle_alpha 90.000000
_cell_angle_beta 60.169208
_cell_angle_gamma 90.000000
_cell_volume 2728.563950
_symmetry_space_group_name_H-M "C 2/C"
_symmetry_group_IT_number 15
_symmetry_cell_setting 'monoclinic'
loop_
_space_group_symop_operation_xyz
x,y,z
-x,y,1/2-z
-x,-y,-z
x,-y,1/2+z
1/2+x,1/2+y,z
1/2-x,1/2+y,1/2-z
1/2-x,1/2-y,-z
1/2+x,1/2-y,1/2+z
loop_
_atom_site_type_symbol
_atom_site_label
_atom_site_fract_x
_atom_site_fract_y
_atom_site_fract_z
Si Si1 0.662952 0.228361 0.353406
Si Si2 0.929857 0.568981 0.110366
Si Si3 0.500000 0.023955 0.250000
Si Si4 0.696540 0.464413 0.182298
Si Si5 0.810147 0.400446 0.117088
Si Si6 0.714128 0.647976 0.358040
Si Si7 0.643709 0.096367 0.651736
O O1 0.620011 0.151264 0.336711
O O2 0.661783 0.360614 0.303123
O O3 0.723219 0.178933 0.242228
O O4 0.648496 0.208269 0.544771
O O5 0.965415 0.598276 0.192378
O O6 0.908955 0.439570 0.183040
O O7 0.963660 0.554864 0.911537
O O8 0.753214 0.438130 0.159488
O O9 0.690368 0.594386 0.248995
O O10 0.701422 0.442626 0.004642
O O11 0.814784 0.268086 0.061594
O O12 0.815345 0.404060 0.281965
O O13 0.846847 0.490850 0.976457
#
# Coordination Sequence:
#
# PCOD9287153 Si02
#       7
#     8   8   4   8   8   8   8
#     4  11  22  33  57  73 114 150 187 223 278 318
#     4  11  19  36  51  83 106 144 171 225 287 348
#     4  10  22  32  56  76 116 132 170 228 296 354
#     4  11  22  36  50  74 110 155 196 231 258 306
#     4  11  22  34  52  78 113 152 196 223 264 314
#     4  11  24  35  53  77 115 155 196 228 258 305
#     4  12  20  34  57  80 112 152 185 222 269 338
#
# _framework density 19.057645000000001
#
# number of rings (size 3 to 8) (size 9 to 14) (size 15 to 20)
#    0.000    0.923    4.615    4.615    2.154    1.231 
#    0.000    0.000    0.000    0.000    0.000    0.000 
#    0.000   41.846    0.000    0.000    0.000    0.000 
#
# Total GULP energy -144991.941729 kJ/mol
# GULP energy per Si atom -5576.613143 kJ/mol
# Density = 1.901427 g / cm^3
# Si number density = 19.057645 Si / 1000 Ang^3
#
#
#
# Elastic Constant Matrix: (Units=GPa)
#
#
# Indices 1 2 3 4 5 6 
#
# 1 62.8118 14.6706 18.6952 0.0000 14.1727 0.0000
# 2 14.6706 45.2829 14.9333 0.0000 -8.3570 0.0000
# 3 18.6952 14.9333 90.4428 0.0000 4.3550 0.0000
# 4 0.0000 0.0000 0.0000 28.8600 0.0000 5.5697
# 5 14.1727 -8.3570 4.3550 0.0000 34.3750 0.0000
# 6 0.0000 0.0000 0.0000 5.5697 0.0000 0.4987
#
#
#
# Elastic Compliance Matrix: (Units=1/GPa)
#
#
# Indices 1 2 3 4 5 6 
#
# 1 0.020772 -0.007768 -0.002523 0.000000 -0.010133 0.000000
# 2 -0.007768 0.027653 -0.003459 0.000000 0.010364 0.000000
# 3 -0.002523 -0.003459 0.012214 0.000000 -0.001348 0.000000
# 4 0.000000 0.000000 0.000000 -0.029985 0.000000 0.334915
# 5 -0.010133 0.010364 -0.001348 0.000000 0.035959 0.000000
# 6 0.000000 0.000000 0.000000 0.334915 0.000000 -1.735399
#
#
# Mechanical properties :
#
#
# Convention : Reuss Voigt Hill
#
# Bulk Modulus (GPa) = 30.17553 32.79283 31.48418
# Shear Modulus (GPa) = -3.06704 22.76264 9.84780
#
# Velocity S-wave (km/s) = -1.26998 3.45977 2.27565
# Velocity P-wave (km/s) = 3.70375 5.76234 4.84367
#
# Compressibility (1/GPa) = 0.03313944
#
# Stress axis : x y z
#
# Youngs Moduli (GPa) = 48.14112 36.16195 81.87061
#
# Poissons Ratio (x) = 0.28089 0.20659
# Poissons Ratio (y) = 0.37394 0.28322
# Poissons Ratio (z) = 0.12148 0.12510
#
# Static dielectric constant tensor:
#      x y z
#    x 1.721540 0.000000 0.014710 
#    y 0.000000 1.733740 0.000000 
#    z 0.014710 0.000000 1.743620 
# 
# From -- ./inp_files/69019.got.cif
#   From: 2010.05.17/outbox.cif.g08.bks.cpg/sg15_35_cif.got.tgz:69019.got - 2010.06.03 18:47:42.
