data_PCOD9287788
_publ_section_title
;
Structure prediction by ZEFSAII (Michael W. Deem and Ramdas Pophale) SiO2 
 PCOD9287788
Probable space group: C 2/C
;
_chemical_formula_sum "Si O2"
_cell_formula_units_Z 56
_cell_length_a 9.645848
_cell_length_b 39.820219
_cell_length_c 8.347604
_cell_angle_alpha 90.000000
_cell_angle_beta 45.708195
_cell_angle_gamma 90.000000
_cell_volume 2295.055083
_symmetry_space_group_name_H-M "C 2/C"
_symmetry_group_IT_number 15
_symmetry_cell_setting 'monoclinic'
loop_
_space_group_symop_operation_xyz
x,y,z
-x,y,1/2-z
-x,-y,-z
x,-y,1/2+z
1/2+x,1/2+y,z
1/2-x,1/2+y,1/2-z
1/2-x,1/2-y,-z
1/2+x,1/2-y,1/2+z
loop_
_atom_site_type_symbol
_atom_site_label
_atom_site_fract_x
_atom_site_fract_y
_atom_site_fract_z
Si Si1 0.219758 0.037352 0.882653
Si Si2 0.285538 0.393472 0.239788
Si Si3 0.271869 0.532345 0.245295
Si Si4 0.290088 0.176018 0.256247
Si Si5 0.729235 0.789248 0.048023
Si Si6 0.770777 0.101675 0.132501
Si Si7 0.726427 0.818001 0.369288
O O1 0.305001 0.073619 0.769085
O O2 0.311385 0.003175 0.742508
O O3 0.217602 0.033701 0.073536
O O4 0.995763 0.035508 0.000548
O O5 0.277830 0.399961 0.435719
O O6 0.224595 0.354744 0.285148
O O7 0.505623 0.394113 0.995642
O O8 0.179074 0.566989 0.262795
O O9 0.325066 0.135703 0.228134
O O10 0.194468 0.180893 0.510822
O O11 0.198178 0.189792 0.166043
O O12 0.503524 0.192124 0.080157
O O13 0.500000 0.797704 0.250000
O O14 0.814075 0.795708 0.157306
O O15 0.750000 0.750000 0.000000
#
# Coordination Sequence:
#
# PCOD9287788 Si02
#       7
#     8   8   8   8   8   8   8
#     4   9  16  25  39  62  94 130 164 204 254 300
#     4   9  17  29  47  72  98 126 166 213 253 294
#     4   9  16  25  39  62  94 130 164 204 254 300
#     4   9  19  36  55  75 103 137 168 201 248 303
#     4  10  22  38  56  80 106 134 168 206 250 302
#     4   9  17  29  47  72  98 126 166 213 253 294
#     4   9  19  36  55  75 103 137 168 201 248 303
#
# _framework density 24.400286999999999
#
# number of rings (size 3 to 8) (size 9 to 14) (size 15 to 20)
#    0.000    2.857    0.000    0.857    2.000    5.143 
#    0.000    0.000    0.000    0.857    0.000    0.000 
#    0.000    0.000    0.000    0.000    0.000    0.000 
#
# Total GULP energy -156164.596207 kJ/mol
# GULP energy per Si atom -5577.307007 kJ/mol
# Density = 2.434475 g / cm^3
# Si number density = 24.400287 Si / 1000 Ang^3
#
#
#
# Elastic Constant Matrix: (Units=GPa)
#
#
# Indices 1 2 3 4 5 6 
#
# 1 42.2027 10.7143 17.4523 0.0000 3.1676 0.0000
# 2 10.7143 141.2113 72.2430 0.0000 46.3499 0.0000
# 3 17.4523 72.2430 118.1517 0.0000 13.6880 0.0000
# 4 0.0000 0.0000 0.0000-5858.6387 0.0000 3891.4981
# 5 3.1676 46.3499 13.6880 0.0000 40.8584 0.0000
# 6 0.0000 0.0000 0.0000 3891.4981 0.0000-2521.6020
#
#
#
# Elastic Compliance Matrix: (Units=1/GPa)
#
#
# Indices 1 2 3 4 5 6 
#
# 1 0.025270 0.000446 -0.003870 0.000000 -0.001169 0.000000
# 2 0.000446 0.016589 -0.008349 0.000000 -0.016057 0.000000
# 3 -0.003870 -0.008349 0.013534 0.000000 0.005237 0.000000
# 4 0.000000 0.000000 0.000000 0.006804 0.000000 0.010500
# 5 -0.001169 -0.016057 0.005237 0.000000 0.041025 0.000000
# 6 0.000000 0.000000 0.000000 0.010500 0.000000 0.015808
#
#
# Mechanical properties :
#
#
# Convention : Reuss Voigt Hill
#
# Bulk Modulus (GPa) = 31.40031 55.82057 43.61044
# Shear Modulus (GPa) = 32.63862 -1654.46605 -810.91371
#
# Velocity S-wave (km/s) = 3.66133 -26.06768 -18.24991
# Velocity P-wave (km/s) = 5.54712 29.71709 20.64382
#
# Compressibility (1/GPa) = 0.03184682
#
# Stress axis : x y z
#
# Youngs Moduli (GPa) = 39.57261 60.27943 73.88995
#
# Poissons Ratio (x) = -0.02689 0.28596
# Poissons Ratio (y) = -0.01766 0.61692
# Poissons Ratio (z) = 0.15315 0.50329
#
# Static dielectric constant tensor:
#      x y z
#    x 2.028060 0.000000 -0.083230 
#    y 0.000000 1.950620 0.000000 
#    z -0.083230 0.000000 1.988590 
# 
# From -- ./inp_files/44507.got.cif
#   From: 2010.05.17/outbox.cif.g08.bks.cpg/sg15_23_cif.got.tgz:44507.got - 2010.06.03 18:47:42.
