data_PCOD9287198
_publ_section_title
;
Structure prediction by ZEFSAII (Michael W. Deem and Ramdas Pophale) SiO2 
 PCOD9287198
Probable space group: C 2/C
;
_chemical_formula_sum "Si O2"
_cell_formula_units_Z 60
_cell_length_a 20.626075
_cell_length_b 10.395333
_cell_length_c 14.391846
_cell_angle_alpha 90.000000
_cell_angle_beta 129.772040
_cell_angle_gamma 90.000000
_cell_volume 2371.753279
_symmetry_space_group_name_H-M "C 2/C"
_symmetry_group_IT_number 15
_symmetry_cell_setting 'monoclinic'
loop_
_space_group_symop_operation_xyz
x,y,z
-x,y,1/2-z
-x,-y,-z
x,-y,1/2+z
1/2+x,1/2+y,z
1/2-x,1/2+y,1/2-z
1/2-x,1/2-y,-z
1/2+x,1/2-y,1/2+z
loop_
_atom_site_type_symbol
_atom_site_label
_atom_site_fract_x
_atom_site_fract_y
_atom_site_fract_z
Si Si1 0.436324 0.213827 0.578907
Si Si2 0.500000 0.023464 0.250000
Si Si3 0.829049 0.465666 0.667598
Si Si4 0.685005 0.387360 0.921999
Si Si5 0.825839 0.851525 0.925491
Si Si6 0.094269 0.865814 0.314111
Si Si7 0.875261 0.736455 0.788084
Si Si8 0.085811 0.087489 0.589680
O O1 0.454160 0.069324 0.630894
O O2 0.353775 0.266559 0.557394
O O3 0.534214 0.263846 0.677326
O O4 0.420335 0.272517 0.462902
O O5 0.581090 0.090487 0.280705
O O6 0.764544 0.530465 0.532286
O O7 0.774639 0.357785 0.668116
O O8 0.852461 0.589534 0.749813
O O9 0.607562 0.485510 0.857161
O O10 0.690291 0.331950 0.822807
O O11 0.871891 0.763122 0.893472
O O12 0.850555 0.996133 0.910672
O O13 0.849135 0.806815 0.050924
O O14 0.107876 0.884174 0.216685
O O15 0.000000 0.827879 0.250000
O O16 0.000000 0.000000 0.500000
#
# Coordination Sequence:
#
# PCOD9287198 Si02
#       8
#     8   4   8   8   8   8   8   8
#     4  11  17  28  49  80 115 145 158 212 292 337
#     4  10  22  34  52  74 120 138 178 242 276 304
#     4  10  22  34  52  83 109 142 186 232 276 326
#     4  11  17  27  51  81 110 133 172 220 283 324
#     4  11  22  32  51  80 114 150 182 217 278 333
#     4  11  18  27  43  76 118 143 169 207 264 354
#     4  11  19  32  50  79 117 147 170 222 278 331
#     4  12  18  26  46  78 117 147 166 200 279 355
#
# _framework density 25.297740000000001
#
# number of rings (size 3 to 8) (size 9 to 14) (size 15 to 20)
#    0.000    1.067    9.333    1.200    0.000    0.000 
#    0.000    0.000    0.000    1.600    0.000    0.000 
#    6.000    0.000    0.000    0.533    0.000    0.000 
#
# Total GULP energy -167147.020675 kJ/mol
# GULP energy per Si atom -5571.567356 kJ/mol
# Density = 2.524016 g / cm^3
# Si number density = 25.297740 Si / 1000 Ang^3
#
#
#
# Elastic Constant Matrix: (Units=GPa)
#
#
# Indices 1 2 3 4 5 6 
#
# 1 117.4342 10.1915 50.7720 0.0000 9.4179 0.0000
# 2 10.1915 37.1808 15.5534 0.0000 0.9078 0.0000
# 3 50.7720 15.5534 98.7264 0.0000 -17.7450 0.0000
# 4 0.0000 0.0000 0.0000 25.4445 0.0000 9.9415
# 5 9.4179 0.9078 -17.7450 0.0000 57.7280 0.0000
# 6 0.0000 0.0000 0.0000 9.9415 0.0000 25.7530
#
#
#
# Elastic Compliance Matrix: (Units=1/GPa)
#
#
# Indices 1 2 3 4 5 6 
#
# 1 0.011766 -0.000319 -0.006716 0.000000 -0.003979 0.000000
# 2 -0.000319 0.029012 -0.004741 0.000000 -0.001862 0.000000
# 3 -0.006716 -0.004741 0.015390 0.000000 0.005901 0.000000
# 4 0.000000 0.000000 0.000000 0.046282 0.000000 -0.017866
# 5 -0.003979 -0.001862 0.005901 0.000000 0.019815 0.000000
# 6 0.000000 0.000000 0.000000 -0.017866 0.000000 0.045727
#
#
# Mechanical properties :
#
#
# Convention : Reuss Voigt Hill
#
# Bulk Modulus (GPa) = 30.65932 45.15280 37.90606
# Shear Modulus (GPa) = 24.70174 33.57340 29.13757
#
# Velocity S-wave (km/s) = 3.12819 3.64693 3.39748
# Velocity P-wave (km/s) = 5.01928 5.96832 5.51425
#
# Compressibility (1/GPa) = 0.03261651
#
# Stress axis : x y z
#
# Youngs Moduli (GPa) = 84.99341 34.46878 64.97623
#
# Poissons Ratio (x) = 0.01098 0.43636
# Poissons Ratio (y) = 0.02708 0.30807
# Poissons Ratio (z) = 0.57079 0.16343
#
# Static dielectric constant tensor:
#      x y z
#    x 2.029510 0.000000 0.002120 
#    y 0.000000 2.080630 0.000000 
#    z 0.002120 0.000000 2.085140 
# 
# From -- ./inp_files/168286.got.cif
#   From: 2010.05.17/outbox.cif.g08.bks.cpg/sg15_85_cif.got.tgz:168286.got - 2010.06.03 18:47:42.
