data_PCOD9287164
_publ_section_title
;
Structure prediction by ZEFSAII (Michael W. Deem and Ramdas Pophale) SiO2 
 PCOD9287164
Probable space group: C 2/C
;
_chemical_formula_sum "Si O2"
_cell_formula_units_Z 28
_cell_length_a 11.392330
_cell_length_b 16.929164
_cell_length_c 8.856767
_cell_angle_alpha 90.000000
_cell_angle_beta 59.961458
_cell_angle_gamma 90.000000
_cell_volume 1478.717185
_symmetry_space_group_name_H-M "C 2/C"
_symmetry_group_IT_number 15
_symmetry_cell_setting 'monoclinic'
loop_
_space_group_symop_operation_xyz
x,y,z
-x,y,1/2-z
-x,-y,-z
x,-y,1/2+z
1/2+x,1/2+y,z
1/2-x,1/2+y,1/2-z
1/2-x,1/2-y,-z
1/2+x,1/2-y,1/2+z
loop_
_atom_site_type_symbol
_atom_site_label
_atom_site_fract_x
_atom_site_fract_y
_atom_site_fract_z
Si Si1 0.808167 0.950937 0.122008
Si Si2 0.500000 0.476836 0.250000
Si Si3 0.919950 0.567633 0.146633
Si Si4 0.136149 0.316241 0.082981
O O1 0.899781 0.928351 0.206298
O O2 0.698929 0.886702 0.143609
O O3 0.725114 0.029647 0.218535
O O4 0.907909 0.970154 0.919532
O O5 0.000000 0.583029 0.250000
O O6 0.900430 0.643308 0.053127
O O7 0.000000 0.500000 0.000000
O O8 0.000000 0.286151 0.250000
O O9 0.250000 0.250000 0.000000
#
# Coordination Sequence:
#
# PCOD9287164 Si02
#       4
#     8   4   8   8
#     4  11  20  39  64  95 131 167 228 268 330 396
#     4  10  22  32  64  98 126 162 214 288 312 382
#     4  12  20  41  74  99 121 176 242 276 322 415
#     4  12  27  44  66  98 143 179 221 288 352 395
#
# _framework density 18.935331999999999
#
# number of rings (size 3 to 8) (size 9 to 14) (size 15 to 20)
#    0.000    0.571    8.571    0.000    2.000    0.000 
#    2.571    1.429    0.000    0.000    0.000    0.000 
#    0.000    0.000    0.000    0.000    0.000    0.000 
#
# Total GULP energy -78229.842931 kJ/mol
# GULP energy per Si atom -5587.845924 kJ/mol
# Density = 1.889223 g / cm^3
# Si number density = 18.935332 Si / 1000 Ang^3
#
#
#
# Elastic Constant Matrix: (Units=GPa)
#
#
# Indices 1 2 3 4 5 6 
#
# 1 149.0669 28.5811 65.7950 0.0000 27.3680 0.0000
# 2 28.5811 61.4177 43.5815 0.0000 1.8930 0.0000
# 3 65.7950 43.5815 136.6607 0.0000 -9.9472 0.0000
# 4 0.0000 0.0000 0.0000 20.4397 0.0000 -11.4010
# 5 27.3680 1.8930 -9.9472 0.0000 57.9633 0.0000
# 6 0.0000 0.0000 0.0000 -11.4010 0.0000 38.1344
#
#
#
# Elastic Compliance Matrix: (Units=1/GPa)
#
#
# Indices 1 2 3 4 5 6 
#
# 1 0.010117 -0.001022 -0.004952 0.000000 -0.005593 0.000000
# 2 -0.001022 0.021348 -0.006412 0.000000 -0.001315 0.000000
# 3 -0.004952 -0.006412 0.012083 0.000000 0.004621 0.000000
# 4 0.000000 0.000000 0.000000 0.058716 0.000000 0.017554
# 5 -0.005593 -0.001315 0.004621 0.000000 0.020729 0.000000
# 6 0.000000 0.000000 0.000000 0.017554 0.000000 0.031471
#
#
# Mechanical properties :
#
#
# Convention : Reuss Voigt Hill
#
# Bulk Modulus (GPa) = 53.25845 69.22895 61.24370
# Shear Modulus (GPa) = 26.95520 37.25332 32.10426
#
# Velocity S-wave (km/s) = 3.77708 4.44035 4.12207
# Velocity P-wave (km/s) = 6.87090 7.93278 7.42086
#
# Compressibility (1/GPa) = 0.01877636
#
# Stress axis : x y z
#
# Youngs Moduli (GPa) = 98.84424 46.84367 82.76333
#
# Poissons Ratio (x) = 0.04786 0.40985
# Poissons Ratio (y) = 0.10098 0.53065
# Poissons Ratio (z) = 0.48949 0.30035
#
# Static dielectric constant tensor:
#      x y z
#    x 1.683080 0.000000 0.002320 
#    y 0.000000 1.631460 0.000000 
#    z 0.002320 0.000000 1.670340 
# 
# From -- ./inp_files/27477.got.cif
#   From: 2010.05.17/outbox.cif.g08.bks.cpg/sg15_14_cif.got.tgz:27477.got - 2010.06.03 18:47:42.
