data_PCOD9287525
_publ_section_title
;
Structure prediction by ZEFSAII (Michael W. Deem and Ramdas Pophale) SiO2 
 PCOD9287525
Probable space group: C 2/C
;
_chemical_formula_sum "Si O2"
_cell_formula_units_Z 52
_cell_length_a 17.150700
_cell_length_b 14.455247
_cell_length_c 8.591663
_cell_angle_alpha 90.000000
_cell_angle_beta 95.219298
_cell_angle_gamma 90.000000
_cell_volume 2121.193038
_symmetry_space_group_name_H-M "C 2/C"
_symmetry_group_IT_number 15
_symmetry_cell_setting 'monoclinic'
loop_
_space_group_symop_operation_xyz
x,y,z
-x,y,1/2-z
-x,-y,-z
x,-y,1/2+z
1/2+x,1/2+y,z
1/2-x,1/2+y,1/2-z
1/2-x,1/2-y,-z
1/2+x,1/2-y,1/2+z
loop_
_atom_site_type_symbol
_atom_site_label
_atom_site_fract_x
_atom_site_fract_y
_atom_site_fract_z
Si Si1 0.219069 0.537183 0.487019
Si Si2 0.503470 0.802510 0.935024
Si Si3 0.160355 0.302774 0.163353
Si Si4 0.709432 0.394286 0.798351
Si Si5 0.430047 0.613279 0.985583
Si Si6 0.500000 0.498562 0.250000
Si Si7 0.572263 0.053024 0.868975
O O1 0.222359 0.629366 0.591003
O O2 0.222955 0.442378 0.586460
O O3 0.281529 0.548666 0.360528
O O4 0.131164 0.531082 0.405321
O O5 0.500000 0.799931 0.750000
O O6 0.588259 0.781237 0.031064
O O7 0.445511 0.721005 0.979981
O O8 0.467259 0.896953 0.992676
O O9 0.201211 0.211977 0.242934
O O10 0.121155 0.367684 0.286624
O O11 0.639795 0.409515 0.908684
O O12 0.498168 0.568055 0.103201
O O13 0.435110 0.572076 0.811240
O O14 0.500000 0.027288 0.750000
#
# Coordination Sequence:
#
# PCOD9287525 Si02
#       7
#     8   8   8   8   8   4   8
#     4  12  27  50  73 111 150 199 253 293 377 452
#     4  11  24  43  78 109 138 188 254 317 373 425
#     4  11  25  49  75 106 152 193 247 314 369 436
#     4  12  26  47  72 108 155 201 241 299 371 457
#     4  11  21  42  63 104 140 189 243 304 363 432
#     4  10  22  36  68  96 140 186 252 308 352 416
#     4  10  24  49  79 106 145 191 246 316 371 433
#
# _framework density 24.514506000000001
#
# number of rings (size 3 to 8) (size 9 to 14) (size 15 to 20)
#    0.000    0.923    3.846    2.308    3.231    4.923 
#    2.769    0.000    0.000    0.000    0.000    0.000 
#    0.000    0.000    0.000    0.000    0.000    0.000 
#
# Total GULP energy -145099.037479 kJ/mol
# GULP energy per Si atom -5580.732211 kJ/mol
# Density = 2.445871 g / cm^3
# Si number density = 24.514506 Si / 1000 Ang^3
#
#
#
# Elastic Constant Matrix: (Units=GPa)
#
#
# Indices 1 2 3 4 5 6 
#
# 1 57.3827 30.3842 27.7884 0.0000 -25.9157 0.0000
# 2 30.3842 124.6317 58.7985 0.0000 -2.4769 0.0000
# 3 27.7884 58.7985 145.5252 0.0000 -32.8976 0.0000
# 4 0.0000 0.0000 0.0000 42.8947 0.0000 -13.7072
# 5 -25.9157 -2.4769 -32.8976 0.0000 30.9632 0.0000
# 6 0.0000 0.0000 0.0000 -13.7072 0.0000 33.1463
#
#
#
# Elastic Compliance Matrix: (Units=1/GPa)
#
#
# Indices 1 2 3 4 5 6 
#
# 1 0.036484 -0.010721 0.005362 0.000000 0.035376 0.000000
# 2 -0.010721 0.013578 -0.006872 0.000000 -0.015189 0.000000
# 3 0.005362 -0.006872 0.012523 0.000000 0.017243 0.000000
# 4 0.000000 0.000000 0.000000 0.026863 0.000000 0.011109
# 5 0.035376 -0.015189 0.017243 0.000000 0.079011 0.000000
# 6 0.000000 0.000000 0.000000 0.011109 0.000000 0.034763
#
#
# Mechanical properties :
#
#
# Convention : Reuss Voigt Hill
#
# Bulk Modulus (GPa) = 26.23189 62.38686 44.30938
# Shear Modulus (GPa) = 20.79941 35.43875 28.11908
#
# Velocity S-wave (km/s) = 2.91598 3.80626 3.39047
# Velocity P-wave (km/s) = 4.69692 6.69485 5.78282
#
# Compressibility (1/GPa) = 0.03812153
#
# Stress axis : x y z
#
# Youngs Moduli (GPa) = 27.40930 73.64956 79.85612
#
# Poissons Ratio (x) = 0.78962 -0.42822
# Poissons Ratio (y) = 0.29386 0.54881
# Poissons Ratio (z) = -0.14698 0.50615
#
# Static dielectric constant tensor:
#      x y z
#    x 2.202740 0.000000 -0.036210 
#    y 0.000000 1.944320 0.000000 
#    z -0.036210 0.000000 2.043160 
# 
# From -- ./inp_files/55341.got.cif
#   From: 2010.05.17/outbox.cif.g08.bks.cpg/sg15_28_cif.got.tgz:55341.got - 2010.06.03 18:47:42.
