data_PCOD9287658
_publ_section_title
;
Structure prediction by ZEFSAII (Michael W. Deem and Ramdas Pophale) SiO2 
 PCOD9287658
Probable space group: C 2/C
;
_chemical_formula_sum "Si O2"
_cell_formula_units_Z 48
_cell_length_a 20.361585
_cell_length_b 11.342139
_cell_length_c 8.910472
_cell_angle_alpha 90.000000
_cell_angle_beta 63.796016
_cell_angle_gamma 90.000000
_cell_volume 1846.332499
_symmetry_space_group_name_H-M "C 2/C"
_symmetry_group_IT_number 15
_symmetry_cell_setting 'monoclinic'
loop_
_space_group_symop_operation_xyz
x,y,z
-x,y,1/2-z
-x,-y,-z
x,-y,1/2+z
1/2+x,1/2+y,z
1/2-x,1/2+y,1/2-z
1/2-x,1/2-y,-z
1/2+x,1/2-y,1/2+z
loop_
_atom_site_type_symbol
_atom_site_label
_atom_site_fract_x
_atom_site_fract_y
_atom_site_fract_z
Si Si1 0.500000 0.460312 0.750000
Si Si2 0.151786 0.100679 0.649059
Si Si3 0.684368 0.840551 0.052559
Si Si4 0.754072 0.474117 0.783829
Si Si5 0.000000 0.540740 0.750000
Si Si6 0.445185 0.753962 0.143813
Si Si7 0.916957 0.314471 0.853898
O O1 0.575762 0.534576 0.677622
O O2 0.511235 0.367285 0.877883
O O3 0.210545 0.096397 0.455440
O O4 0.132956 0.236897 0.701863
O O5 0.190936 0.036018 0.747092
O O6 0.611161 0.768451 0.161723
O O7 0.698564 0.932069 0.172736
O O8 0.750000 0.750000 0.000000
O O9 0.695432 0.904439 0.883418
O O10 0.993834 0.627585 0.613918
O O11 0.930089 0.453803 0.827191
O O12 0.400435 0.770936 0.037953
O O13 0.000000 0.270961 0.750000
#
# Coordination Sequence:
#
# PCOD9287658 Si02
#       7
#     4   8   8   8   4   8   8
#     4  11  23  38  74 100 139 173 208 296 360 405
#     4  11  21  42  66 108 130 167 227 283 360 397
#     4  11  24  49  67  98 136 184 237 278 339 405
#     4  10  25  43  70  98 136 182 227 288 330 408
#     4   9  23  40  58  90 123 171 214 258 336 389
#     4  11  23  41  64  93 134 180 220 269 339 413
#     4  10  22  37  61  95 131 165 214 276 338 407
#
# _framework density 25.997482999999999
#
# number of rings (size 3 to 8) (size 9 to 14) (size 15 to 20)
#    0.500    1.000    0.833    4.500    4.667    1.333 
#    3.000    2.500    0.000    0.000    0.000    0.000 
#    0.000    0.000    0.000    0.000    0.000    0.000 
#
# Total GULP energy -134264.934208 kJ/mol
# GULP energy per Si atom -5594.372259 kJ/mol
# Density = 2.593831 g / cm^3
# Si number density = 25.997483 Si / 1000 Ang^3
#
#
#
# Elastic Constant Matrix: (Units=GPa)
#
#
# Indices 1 2 3 4 5 6 
#
# 1 109.8880 40.3827 16.8621 0.0000 -5.6750 0.0000
# 2 40.3827 123.4181 23.7200 0.0000 2.9068 0.0000
# 3 16.8621 23.7200 79.3705 0.0000 -4.7019 0.0000
# 4 0.0000 0.0000 0.0000 -20.1494 0.0000 21.0703
# 5 -5.6750 2.9068 -4.7019 0.0000 36.6841 0.0000
# 6 0.0000 0.0000 0.0000 21.0703 0.0000 26.4170
#
#
#
# Elastic Compliance Matrix: (Units=1/GPa)
#
#
# Indices 1 2 3 4 5 6 
#
# 1 0.010573 -0.003277 -0.001163 0.000000 0.001746 0.000000
# 2 -0.003277 0.009650 -0.002280 0.000000 -0.001564 0.000000
# 3 -0.001163 -0.002280 0.013631 0.000000 0.001748 0.000000
# 4 0.000000 0.000000 0.000000 -0.027060 0.000000 0.021583
# 5 0.001746 -0.001564 0.001748 0.000000 0.027878 0.000000
# 6 0.000000 0.000000 0.000000 0.021583 0.000000 0.020640
#
#
# Mechanical properties :
#
#
# Convention : Reuss Voigt Hill
#
# Bulk Modulus (GPa) = 48.98908 52.73401 50.86154
# Shear Modulus (GPa) = 66.17426 24.03780 45.10603
#
# Velocity S-wave (km/s) = 5.05068 3.04406 4.16987
# Velocity P-wave (km/s) = 7.27304 5.71693 6.54143
#
# Compressibility (1/GPa) = 0.02041271
#
# Stress axis : x y z
#
# Youngs Moduli (GPa) = 94.57891 103.62791 73.36041
#
# Poissons Ratio (x) = 0.33960 0.08535
# Poissons Ratio (y) = 0.30994 0.16729
# Poissons Ratio (z) = 0.11004 0.23630
#
# Static dielectric constant tensor:
#      x y z
#    x 2.105470 0.000000 0.038870 
#    y 0.000000 2.130080 0.000000 
#    z 0.038870 0.000000 2.134960 
# 
# From -- ./inp_files/60873.got.cif
#   From: 2010.05.17/outbox.cif.g08.bks.cpg/sg15_31_cif.got.tgz:60873.got - 2010.06.03 18:47:42.
