data_PCOD9287064
_publ_section_title
;
Structure prediction by ZEFSAII (Michael W. Deem and Ramdas Pophale) SiO2 
 PCOD9287064
Probable space group: C 2/C
;
_chemical_formula_sum "Si O2"
_cell_formula_units_Z 44
_cell_length_a 6.769427
_cell_length_b 22.299573
_cell_length_c 14.481988
_cell_angle_alpha 90.000000
_cell_angle_beta 76.203115
_cell_angle_gamma 90.000000
_cell_volume 2123.057336
_symmetry_space_group_name_H-M "C 2/C"
_symmetry_group_IT_number 15
_symmetry_cell_setting 'monoclinic'
loop_
_space_group_symop_operation_xyz
x,y,z
-x,y,1/2-z
-x,-y,-z
x,-y,1/2+z
1/2+x,1/2+y,z
1/2-x,1/2+y,1/2-z
1/2-x,1/2-y,-z
1/2+x,1/2-y,1/2+z
loop_
_atom_site_type_symbol
_atom_site_label
_atom_site_fract_x
_atom_site_fract_y
_atom_site_fract_z
Si Si1 0.006053 0.330196 0.641306
Si Si2 0.179665 0.785018 0.415613
Si Si3 0.265976 0.066833 0.075528
Si Si4 0.377417 0.056156 0.611491
Si Si5 0.000000 0.649511 0.750000
Si Si6 0.598759 0.608180 0.485210
O O1 0.219617 0.355189 0.581919
O O2 0.000000 0.337991 0.750000
O O3 0.966517 0.261529 0.619987
O O4 0.831736 0.370438 0.612956
O O5 0.250000 0.750000 0.500000
O O6 0.359983 0.807880 0.329080
O O7 0.059100 0.844010 0.457656
O O8 0.032232 0.068144 0.070630
O O9 0.330316 0.013271 0.137288
O O10 0.408329 0.059118 0.968240
O O11 0.382883 0.103897 0.693466
O O12 0.204940 0.072859 0.556224
#
# Coordination Sequence:
#
# PCOD9287064 Si02
#       6
#     8   8   8   8   4   8
#     4  11  26  40  67  99 131 181 230 284 343 413
#     4  12  25  45  68  97 143 182 231 291 342 414
#     4  10  21  46  68  98 141 178 222 288 352 411
#     4  10  23  42  71 101 138 177 227 286 347 415
#     4  12  26  44  72 106 138 186 242 286 350 418
#     4  11  22  45  68  98 135 183 226 279 360 403
#
# _framework density 20.724830000000001
#
# number of rings (size 3 to 8) (size 9 to 14) (size 15 to 20)
#    0.000    1.091    3.636    2.182    6.364    0.727 
#    0.000    1.818    0.000    0.000    0.000    0.000 
#    0.000    0.000    0.000    0.000    0.000    0.000 
#
# Total GULP energy -122958.249646 kJ/mol
# GULP energy per Si atom -5589.011348 kJ/mol
# Density = 2.067766 g / cm^3
# Si number density = 20.724830 Si / 1000 Ang^3
#
#
#
# Elastic Constant Matrix: (Units=GPa)
#
#
# Indices 1 2 3 4 5 6 
#
# 1 93.6006 8.9547 22.5869 0.0000 14.1508 0.0000
# 2 8.9547 80.3997 15.1527 0.0000 1.4325 0.0000
# 3 22.5869 15.1527 81.7356 0.0000 -0.2444 0.0000
# 4 0.0000 0.0000 0.0000 48.8093 0.0000 0.5458
# 5 14.1508 1.4325 -0.2444 0.0000 14.4547 0.0000
# 6 0.0000 0.0000 0.0000 0.5458 0.0000 16.6243
#
#
#
# Elastic Compliance Matrix: (Units=1/GPa)
#
#
# Indices 1 2 3 4 5 6 
#
# 1 0.013655 -0.000584 -0.003705 0.000000 -0.013373 0.000000
# 2 -0.000584 0.012938 -0.002239 0.000000 -0.000748 0.000000
# 3 -0.003705 -0.002239 0.013686 0.000000 0.004081 0.000000
# 4 0.000000 0.000000 0.000000 0.020495 0.000000 -0.000673
# 5 -0.013373 -0.000748 0.004081 0.000000 0.082416 0.000000
# 6 0.000000 0.000000 0.000000 -0.000673 0.000000 0.060175
#
#
# Mechanical properties :
#
#
# Convention : Reuss Voigt Hill
#
# Bulk Modulus (GPa) = 36.73529 38.79162 37.76345
# Shear Modulus (GPa) = 22.17311 29.91376 26.04344
#
# Velocity S-wave (km/s) = 3.27445 3.80330 3.54874
# Velocity P-wave (km/s) = 5.66214 6.16806 5.92050
#
# Compressibility (1/GPa) = 0.02722178
#
# Stress axis : x y z
#
# Youngs Moduli (GPa) = 73.23066 77.28986 73.06828
#
# Poissons Ratio (x) = 0.04516 0.27073
# Poissons Ratio (y) = 0.04279 0.16363
# Poissons Ratio (z) = 0.27134 0.17308
#
# Static dielectric constant tensor:
#      x y z
#    x 0.466240 0.000000 -0.117480 
#    y 0.000000 1.756260 0.000000 
#    z -0.117480 0.000000 1.717830 
# 
# From -- ./inp_files/129335.got.cif
#   From: 2010.05.17/outbox.cif.g08.bks.cpg/sg15_65_cif.got.tgz:129335.got - 2010.06.03 18:47:42.
