data_PCOD9287181
_publ_section_title
;
Structure prediction by ZEFSAII (Michael W. Deem and Ramdas Pophale) SiO2 
 PCOD9287181
Probable space group: C 2/C
;
_chemical_formula_sum "Si O2"
_cell_formula_units_Z 24
_cell_length_a 9.815397
_cell_length_b 23.788691
_cell_length_c 4.909203
_cell_angle_alpha 90.000000
_cell_angle_beta 91.817443
_cell_angle_gamma 90.000000
_cell_volume 1145.699913
_symmetry_space_group_name_H-M "C 2/C"
_symmetry_group_IT_number 15
_symmetry_cell_setting 'monoclinic'
loop_
_space_group_symop_operation_xyz
x,y,z
-x,y,1/2-z
-x,-y,-z
x,-y,1/2+z
1/2+x,1/2+y,z
1/2-x,1/2+y,1/2-z
1/2-x,1/2-y,-z
1/2+x,1/2-y,1/2+z
loop_
_atom_site_type_symbol
_atom_site_label
_atom_site_fract_x
_atom_site_fract_y
_atom_site_fract_z
Si Si1 0.700829 0.861579 0.560111
Si Si2 0.126754 0.842674 0.431113
Si Si3 0.500000 0.232219 0.250000
Si Si4 0.000000 0.457410 0.750000
O O1 0.744638 0.859943 0.248542
O O2 0.602679 0.808110 0.597608
O O3 0.621728 0.915222 0.672268
O O4 0.834900 0.856503 0.758656
O O5 0.092257 0.776170 0.424253
O O6 0.000000 0.868022 0.250000
O O7 0.000000 0.500000 0.500000
#
# Coordination Sequence:
#
# PCOD9287181 Si02
#       4
#     8   8   4   4
#     4  11  21  39  57  87 117 150 192 236 277 335
#     4  10  22  33  58  85 128 151 182 218 285 349
#     4   9  22  32  60  86 124 154 186 221 280 342
#     4  11  24  42  66  84 104 146 198 253 288 316
#
# _framework density 20.947894000000002
#
# number of rings (size 3 to 8) (size 9 to 14) (size 15 to 20)
#    1.000    0.667    0.000    5.000    0.000    6.667 
#    0.000    0.000    0.000   20.000    0.000    0.000 
#    0.000    0.000    0.000    0.000    0.000    0.000 
#
# Total GULP energy -66872.682878 kJ/mol
# GULP energy per Si atom -5572.723573 kJ/mol
# Density = 2.090022 g / cm^3
# Si number density = 20.947894 Si / 1000 Ang^3
#
#
#
# Elastic Constant Matrix: (Units=GPa)
#
#
# Indices 1 2 3 4 5 6 
#
# 1 64.0275 29.5534 6.4803 0.0000 -2.6892 0.0000
# 2 29.5534 118.2810 29.8722 0.0000 9.7753 0.0000
# 3 6.4803 29.8722 120.4496 0.0000 -8.5971 0.0000
# 4 0.0000 0.0000 0.0000 -4.1564 0.0000 19.1400
# 5 -2.6892 9.7753 -8.5971 0.0000 25.7374 0.0000
# 6 0.0000 0.0000 0.0000 19.1400 0.0000 -1.2272
#
#
#
# Elastic Compliance Matrix: (Units=1/GPa)
#
#
# Indices 1 2 3 4 5 6 
#
# 1 0.018022 -0.004967 0.000544 0.000000 0.003951 0.000000
# 2 -0.004967 0.010872 -0.002828 0.000000 -0.005593 0.000000
# 3 0.000544 -0.002828 0.009276 0.000000 0.004230 0.000000
# 4 0.000000 0.000000 0.000000 0.003397 0.000000 0.052984
# 5 0.003951 -0.005593 0.004230 0.000000 0.042804 0.000000
# 6 0.000000 0.000000 0.000000 0.052984 0.000000 0.011506
#
#
# Mechanical properties :
#
#
# Convention : Reuss Voigt Hill
#
# Bulk Modulus (GPa) = 42.25088 48.28556 45.26822
# Shear Modulus (GPa) = 42.27676 19.86090 31.06883
#
# Velocity S-wave (km/s) = 4.49730 3.08248 3.85534
# Velocity P-wave (km/s) = 6.86883 5.98074 6.44011
#
# Compressibility (1/GPa) = 0.02366815
#
# Stress axis : x y z
#
# Youngs Moduli (GPa) = 55.48855 91.97954 107.80188
#
# Poissons Ratio (x) = 0.45685 -0.05867
# Poissons Ratio (y) = 0.27560 0.30490
# Poissons Ratio (z) = -0.03020 0.26015
#
# Static dielectric constant tensor:
#      x y z
#    x 1.828070 0.000000 0.022620 
#    y 0.000000 1.732500 0.000000 
#    z 0.022620 0.000000 1.718070 
# 
# From -- ./inp_files/1662.got.cif
#   From: 2010.05.17/outbox.cif.g08.bks.cpg/sg15_1_cif.got.tgz:1662.got - 2010.06.03 18:47:42.
