data_PCOD9287016
_publ_section_title
;
Structure prediction by ZEFSAII (Michael W. Deem and Ramdas Pophale) SiO2 
 PCOD9287016
Probable space group: C 2/C
;
_chemical_formula_sum "Si O2"
_cell_formula_units_Z 64
_cell_length_a 14.885291
_cell_length_b 16.480707
_cell_length_c 15.776057
_cell_angle_alpha 90.000000
_cell_angle_beta 43.057346
_cell_angle_gamma 90.000000
_cell_volume 2642.290903
_symmetry_space_group_name_H-M "C 2/C"
_symmetry_group_IT_number 15
_symmetry_cell_setting 'monoclinic'
loop_
_space_group_symop_operation_xyz
x,y,z
-x,y,1/2-z
-x,-y,-z
x,-y,1/2+z
1/2+x,1/2+y,z
1/2-x,1/2+y,1/2-z
1/2-x,1/2-y,-z
1/2+x,1/2-y,1/2+z
loop_
_atom_site_type_symbol
_atom_site_label
_atom_site_fract_x
_atom_site_fract_y
_atom_site_fract_z
Si Si1 0.724250 0.603197 0.066415
Si Si2 0.851432 0.908402 0.688936
Si Si3 0.904440 0.229063 0.900225
Si Si4 0.355707 0.770236 0.673746
Si Si5 0.138847 0.942621 0.109815
Si Si6 0.570906 0.710286 0.050064
Si Si7 0.733467 0.413036 0.225946
Si Si8 0.983225 0.375005 0.162287
O O1 0.653185 0.600060 0.205338
O O2 0.687350 0.524384 0.035698
O O3 0.670141 0.676667 0.050186
O O4 0.878771 0.599311 0.972956
O O5 0.732263 0.848022 0.740209
O O6 0.984449 0.862685 0.571056
O O7 0.839956 0.005804 0.686514
O O8 0.890111 0.133394 0.928969
O O9 0.000000 0.235919 0.750000
O O10 0.989793 0.279080 0.908680
O O11 0.750000 0.250000 0.000000
O O12 0.349427 0.754459 0.578508
O O13 0.317781 0.680508 0.734829
O O14 0.237001 0.925630 0.121352
O O15 0.000000 0.957894 0.250000
O O16 0.475429 0.777538 0.156240
O O17 0.865756 0.412380 0.189920
O O18 0.000000 0.393967 0.250000
#
# Coordination Sequence:
#
# PCOD9287016 Si02
#       8
#     8   8   8   8   8   8   8   8
#     4  11  23  42  68 102 133 185 235 288 352 440
#     4  11  25  44  72 102 136 186 238 286 361 430
#     4  11  26  46  72 101 140 190 242 300 361 434
#     4  12  25  45  71 105 140 183 239 298 363 430
#     4  10  21  45  72  97 132 185 244 290 354 430
#     4  12  25  41  71 102 140 179 237 292 366 427
#     4  11  24  45  72  98 139 184 236 292 349 433
#     4  12  25  43  67 101 147 186 227 298 364 425
#
# _framework density 24.221405000000001
#
# number of rings (size 3 to 8) (size 9 to 14) (size 15 to 20)
#    0.000    0.750    5.000    3.750    3.500    3.500 
#    2.250    1.250    0.000    0.000    0.000    0.000 
#    0.000    0.000    0.000    0.000    0.000    0.000 
#
# Total GULP energy -178652.493686 kJ/mol
# GULP energy per Si atom -5582.890428 kJ/mol
# Density = 2.416628 g / cm^3
# Si number density = 24.221405 Si / 1000 Ang^3
#
#
#
# Elastic Constant Matrix: (Units=GPa)
#
#
# Indices 1 2 3 4 5 6 
#
# 1 119.8760 16.9332 8.5127 0.0000 -21.0291 0.0000
# 2 16.9332 111.1655 10.2664 0.0000 -21.1900 0.0000
# 3 8.5127 10.2664 43.9424 0.0000 -10.3912 0.0000
# 4 0.0000 0.0000 0.0000 22.9476 0.0000 -9.0788
# 5 -21.0291 -21.1900 -10.3912 0.0000 44.7294 0.0000
# 6 0.0000 0.0000 0.0000 -9.0788 0.0000 43.4867
#
#
#
# Elastic Compliance Matrix: (Units=1/GPa)
#
#
# Indices 1 2 3 4 5 6 
#
# 1 0.009153 -0.000593 -0.000723 0.000000 0.003854 0.000000
# 2 -0.000593 0.009995 -0.001234 0.000000 0.004169 0.000000
# 3 -0.000723 -0.001234 0.024302 0.000000 0.004721 0.000000
# 4 0.000000 0.000000 0.000000 0.047501 0.000000 0.009917
# 5 0.003854 0.004169 0.004721 0.000000 0.027241 0.000000
# 6 0.000000 0.000000 0.000000 0.009917 0.000000 0.025066
#
#
# Mechanical properties :
#
#
# Convention : Reuss Voigt Hill
#
# Bulk Modulus (GPa) = 26.07615 38.48984 32.28299
# Shear Modulus (GPa) = 31.02872 38.18418 34.60645
#
# Velocity S-wave (km/s) = 3.58305 3.97478 3.78399
# Velocity P-wave (km/s) = 5.28269 6.08198 5.69637
#
# Compressibility (1/GPa) = 0.03834922
#
# Stress axis : x y z
#
# Youngs Moduli (GPa) = 109.25133 100.05370 41.14905
#
# Poissons Ratio (x) = 0.05931 0.02976
# Poissons Ratio (y) = 0.06476 0.05079
# Poissons Ratio (z) = 0.07902 0.12349
#
# Static dielectric constant tensor:
#      x y z
#    x 1.987780 0.000000 0.025410 
#    y 0.000000 2.024420 0.000000 
#    z 0.025410 0.000000 2.012670 
# 
# From -- ./inp_files/206431.got.cif
#   From: 2010.05.17/outbox.cif.g08.bks.cpg/sg15_104_cif.got.tgz:206431.got - 2010.06.03 18:47:42.
