data_PCOD9287489
_publ_section_title
;
Structure prediction by ZEFSAII (Michael W. Deem and Ramdas Pophale) SiO2 
 PCOD9287489
Probable space group: C 2/C
;
_chemical_formula_sum "Si O2"
_cell_formula_units_Z 52
_cell_length_a 21.593239
_cell_length_b 17.690547
_cell_length_c 19.262828
_cell_angle_alpha 90.000000
_cell_angle_beta 159.421891
_cell_angle_gamma 90.000000
_cell_volume 2586.334176
_symmetry_space_group_name_H-M "C 2/C"
_symmetry_group_IT_number 15
_symmetry_cell_setting 'monoclinic'
loop_
_space_group_symop_operation_xyz
x,y,z
-x,y,1/2-z
-x,-y,-z
x,-y,1/2+z
1/2+x,1/2+y,z
1/2-x,1/2+y,1/2-z
1/2-x,1/2-y,-z
1/2+x,1/2-y,1/2+z
loop_
_atom_site_type_symbol
_atom_site_label
_atom_site_fract_x
_atom_site_fract_y
_atom_site_fract_z
Si Si1 0.500000 0.437569 0.250000
Si Si2 0.921688 0.844464 0.588514
Si Si3 0.513612 0.824370 0.182235
Si Si4 0.152586 0.582351 0.231488
Si Si5 0.378581 0.045389 0.455786
Si Si6 0.327399 0.172049 0.114741
Si Si7 0.515387 0.505921 0.121299
O O1 0.668531 0.386236 0.440195
O O2 0.556201 0.486029 0.243653
O O3 0.711741 0.846765 0.373261
O O4 0.965869 0.906664 0.576969
O O5 0.000000 0.854605 0.750000
O O6 0.978127 0.761379 0.622871
O O7 0.500000 0.824161 0.250000
O O8 0.382100 0.886296 0.013637
O O9 0.088696 0.584391 0.084648
O O10 0.132996 0.656017 0.260997
O O11 0.352826 0.550271 0.435540
O O12 0.031231 0.514654 0.134541
O O13 0.192158 0.001340 0.261907
O O14 0.500000 0.154558 0.250000
O O15 0.250000 0.250000 0.000000
#
# Coordination Sequence:
#
# PCOD9287489 Si02
#       7
#     4   8   8   8   8   8   8
#     4  10  22  36  64  96 122 160 214 260 320 376
#     4  11  20  36  54  90 123 154 199 252 300 371
#     4  11  22  35  59  88 123 166 203 251 311 362
#     4  10  24  41  63  91 125 166 215 258 324 379
#     4  11  22  41  62  90 130 167 210 264 312 383
#     4  11  22  42  66  93 125 161 211 272 324 376
#     4  11  20  37  63  91 124 162 208 257 312 375
#
# _framework density 20.105677
#
# number of rings (size 3 to 8) (size 9 to 14) (size 15 to 20)
#    0.000    1.231    3.077    5.077    0.000    0.615 
#    0.000    3.077    3.385    0.000    0.000    0.000 
#    0.000    0.000    0.000    0.000    0.000    0.000 
#
# Total GULP energy -144860.633939 kJ/mol
# GULP energy per Si atom -5571.562844 kJ/mol
# Density = 2.005992 g / cm^3
# Si number density = 20.105677 Si / 1000 Ang^3
#
#
#
# Elastic Constant Matrix: (Units=GPa)
#
#
# Indices 1 2 3 4 5 6 
#
# 1 62.4993 16.1822 1.3639 0.0016 0.8784 0.0003
# 2 16.1822 70.8093 -1.5534 0.0074 -10.0937 0.0011
# 3 1.3639 -1.5534 57.3394 0.0011 24.9938 0.0005
# 4 0.0016 0.0074 0.0011 -1.3087 0.0019 -10.2580
# 5 0.8784 -10.0937 24.9938 0.0019 38.9657 0.0010
# 6 0.0003 0.0011 0.0005 -10.2580 0.0010 16.8935
#
#
#
# Elastic Compliance Matrix: (Units=1/GPa)
#
#
# Indices 1 2 3 4 5 6 
#
# 1 0.017086 -0.004123 0.000160 -0.000001 -0.001556 -0.000001
# 2 -0.004123 0.015786 -0.001801 0.000017 0.005337 0.000009
# 3 0.000160 -0.001801 0.024420 -0.000003 -0.016134 -0.000001
# 4 -0.000001 0.000017 -0.000003 -0.132669 0.000015 -0.080559
# 5 -0.001556 0.005337 -0.016134 0.000015 0.037430 0.000007
# 6 -0.000001 0.000009 -0.000001 -0.080559 0.000007 0.010278
#
#
# Mechanical properties :
#
#
# Convention : Reuss Voigt Hill
#
# Bulk Modulus (GPa) = 21.85082 24.73703 23.29393
# Shear Modulus (GPa) = -5636.42477 22.55377 -2806.93550
#
# Velocity S-wave (km/s) = -53.00458 3.35290 -37.40484
# Velocity P-wave (km/s) = 61.11538 5.22681 43.05676
#
# Compressibility (1/GPa) = 0.04576487
#
# Stress axis : x y z
#
# Youngs Moduli (GPa) = 58.52719 63.34736 40.95000
#
# Poissons Ratio (x) = 0.26118 -0.00656
# Poissons Ratio (y) = 0.24131 0.07374
# Poissons Ratio (z) = -0.00937 0.11407
#
# Static dielectric constant tensor:
#      x y z
#    x 1.685470 0.000000 -0.021790 
#    y 0.000000 1.739470 0.000000 
#    z -0.021790 0.000000 1.788200 
# 
# From -- ./inp_files/255866.got.cif
#   From: 2010.05.17/outbox.cif.g08.bks.cpg/sg15_128_cif.got.tgz:255866.got - 2010.06.03 18:47:42.
