data_PCOD9287776
_publ_section_title
;
Structure prediction by ZEFSAII (Michael W. Deem and Ramdas Pophale) SiO2 
 PCOD9287776
Probable space group: C 2/C
;
_chemical_formula_sum "Si O2"
_cell_formula_units_Z 36
_cell_length_a 11.272956
_cell_length_b 8.153778
_cell_length_c 18.320036
_cell_angle_alpha 90.000000
_cell_angle_beta 117.020389
_cell_angle_gamma 90.000000
_cell_volume 1500.116963
_symmetry_space_group_name_H-M "C 2/C"
_symmetry_group_IT_number 15
_symmetry_cell_setting 'monoclinic'
loop_
_space_group_symop_operation_xyz
x,y,z
-x,y,1/2-z
-x,-y,-z
x,-y,1/2+z
1/2+x,1/2+y,z
1/2-x,1/2+y,1/2-z
1/2-x,1/2-y,-z
1/2+x,1/2-y,1/2+z
loop_
_atom_site_type_symbol
_atom_site_label
_atom_site_fract_x
_atom_site_fract_y
_atom_site_fract_z
Si Si1 0.350223 0.660690 0.926558
Si Si2 0.500000 0.367063 0.250000
Si Si3 0.913892 0.622435 0.026519
Si Si4 0.335338 0.464281 0.587113
Si Si5 0.631109 0.051544 0.317166
O O1 0.496968 0.716451 0.945473
O O2 0.250727 0.817392 0.900437
O O3 0.274688 0.530762 0.854498
O O4 0.364017 0.600632 0.013957
O O5 0.545021 0.480942 0.328516
O O6 0.618223 0.230118 0.274911
O O7 0.898210 0.561486 0.104516
O O8 0.767929 0.616775 0.950719
O O9 0.000000 0.500000 0.000000
O O10 0.500000 0.958412 0.250000
#
# Coordination Sequence:
#
# PCOD9287776 Si02
#       5
#     8   4   8   8   8
#     4   9  18  37  65  87 117 172 220 255 319 402
#     4  10  22  38  54  86 134 166 198 276 334 372
#     4   9  18  38  61  90 121 160 218 269 307 393
#     4   9  19  37  61  88 123 166 210 264 329 379
#     4   9  21  39  57  88 133 166 204 272 333 372
#
# _framework density 23.998128999999999
#
# number of rings (size 3 to 8) (size 9 to 14) (size 15 to 20)
#    0.667    2.222    0.000    1.333    1.556    3.556 
#    8.000    6.667    0.000    0.000    0.000    0.000 
#    0.000    0.000    0.000    0.000    0.000    0.000 
#
# Total GULP energy -100489.372980 kJ/mol
# GULP energy per Si atom -5582.742943 kJ/mol
# Density = 2.394351 g / cm^3
# Si number density = 23.998129 Si / 1000 Ang^3
#
#
#
# Elastic Constant Matrix: (Units=GPa)
#
#
# Indices 1 2 3 4 5 6 
#
# 1 102.4930 28.9006 56.1130 0.0000 18.3011 0.0000
# 2 28.9006 103.6294 59.0481 0.0000 17.1290 0.0000
# 3 56.1130 59.0481 193.2021 0.0000 40.3299 0.0000
# 4 0.0000 0.0000 0.0000 51.1102 0.0000 19.1845
# 5 18.3011 17.1290 40.3299 0.0000 18.2177 0.0000
# 6 0.0000 0.0000 0.0000 19.1845 0.0000 37.3322
#
#
#
# Elastic Compliance Matrix: (Units=1/GPa)
#
#
# Indices 1 2 3 4 5 6 
#
# 1 0.012362 -0.001266 -0.001598 0.000000 -0.007690 0.000000
# 2 -0.001266 0.012145 -0.002279 0.000000 -0.005102 0.000000
# 3 -0.001598 -0.002279 0.010326 0.000000 -0.019111 0.000000
# 4 0.000000 0.000000 0.000000 0.024241 0.000000 -0.012457
# 5 -0.007690 -0.005102 -0.019111 0.000000 0.109722 0.000000
# 6 0.000000 0.000000 0.000000 -0.012457 0.000000 0.033188
#
#
# Mechanical properties :
#
#
# Convention : Reuss Voigt Hill
#
# Bulk Modulus (GPa) = 40.73923 76.38309 58.56116
# Shear Modulus (GPa) = 22.68067 38.34956 30.51511
#
# Velocity S-wave (km/s) = 3.07759 4.00186 3.56977
# Velocity P-wave (km/s) = 5.44441 7.29733 6.43788
#
# Compressibility (1/GPa) = 0.02454636
#
# Stress axis : x y z
#
# Youngs Moduli (GPa) = 80.89429 82.34022 96.84287
#
# Poissons Ratio (x) = 0.10422 0.15477
# Poissons Ratio (y) = 0.10239 0.22072
# Poissons Ratio (z) = 0.12928 0.18767
#
# Static dielectric constant tensor:
#      x y z
#    x 1.956290 0.000000 0.007310 
#    y 0.000000 2.030000 0.000000 
#    z 0.007310 0.000000 1.877970 
# 
# From -- ./inp_files/235962.got.cif
#   From: 2010.05.17/outbox.cif.g08.bks.cpg/sg15_118_cif.got.tgz:235962.got - 2010.06.03 18:47:42.
