data_PCOD9287883
_publ_section_title
;
Structure prediction by ZEFSAII (Michael W. Deem and Ramdas Pophale) SiO2 
 PCOD9287883
Probable space group: C 2/C
;
_chemical_formula_sum "Si O2"
_cell_formula_units_Z 56
_cell_length_a 24.902919
_cell_length_b 13.811945
_cell_length_c 25.610393
_cell_angle_alpha 90.000000
_cell_angle_beta 159.582182
_cell_angle_gamma 90.000000
_cell_volume 3073.101354
_symmetry_space_group_name_H-M "C 2/C"
_symmetry_group_IT_number 15
_symmetry_cell_setting 'monoclinic'
loop_
_space_group_symop_operation_xyz
x,y,z
-x,y,1/2-z
-x,-y,-z
x,-y,1/2+z
1/2+x,1/2+y,z
1/2-x,1/2+y,1/2-z
1/2-x,1/2-y,-z
1/2+x,1/2-y,1/2+z
loop_
_atom_site_type_symbol
_atom_site_label
_atom_site_fract_x
_atom_site_fract_y
_atom_site_fract_z
Si Si1 0.206182 0.721551 0.636366
Si Si2 0.581100 0.711790 0.572142
Si Si3 0.369701 0.065176 0.413322
Si Si4 0.763323 0.092143 0.400811
Si Si5 0.993321 0.037274 0.435386
Si Si6 0.175609 0.643993 0.429689
Si Si7 0.426078 0.946616 0.556711
O O1 0.255028 0.796039 0.635522
O O2 0.117709 0.635617 0.526265
O O3 0.093732 0.787194 0.568140
O O4 0.324946 0.686470 0.789035
O O5 0.611897 0.823001 0.585334
O O6 0.584021 0.639759 0.525622
O O7 0.188575 0.042374 0.241196
O O8 0.500000 0.000000 0.500000
O O9 0.394352 0.044887 0.497023
O O10 0.762949 0.089342 0.462841
O O11 0.605228 0.049532 0.234310
O O12 0.910242 0.035079 0.513082
O O13 0.000000 0.000000 0.500000
O O14 0.250000 0.750000 0.500000
O O15 0.165939 0.585944 0.475350
O O16 0.000000 0.655248 0.250000
#
# Coordination Sequence:
#
# PCOD9287883 Si02
#       7
#     8   8   8   8   8   8   8
#     4  12  20  34  58  84 122 154 192 239 285 351
#     4  12  24  37  55  89 119 153 197 235 294 348
#     4  12  24  38  58  85 117 156 194 239 293 349
#     4  11  23  38  57  86 120 157 196 240 289 347
#     4  12  24  37  58  85 118 156 195 239 292 352
#     4  10  22  38  59  87 117 155 197 240 292 342
#     4  11  23  37  58  85 121 158 195 241 290 344
#
# _framework density 18.222632999999998
#
# number of rings (size 3 to 8) (size 9 to 14) (size 15 to 20)
#    0.000    0.571    7.143    1.714    2.000    1.143 
#    0.000    0.000    0.000    0.857    0.000    0.000 
#    0.000    0.000    0.000    0.000    0.000    0.000 
#
# Total GULP energy -155999.586897 kJ/mol
# GULP energy per Si atom -5571.413818 kJ/mol
# Density = 1.818116 g / cm^3
# Si number density = 18.222633 Si / 1000 Ang^3
#
#
#
# Elastic Constant Matrix: (Units=GPa)
#
#
# Indices 1 2 3 4 5 6 
#
# 1 119.3498 42.9117 42.2421 0.0014 -0.2915 0.0003
# 2 42.9117 84.2174 30.8051 -0.0011 -2.4538 0.0005
# 3 42.2421 30.8051 86.9709 0.0015 1.0321 0.0005
# 4 0.0014 -0.0011 0.0015 26.2739 0.0004 1.7800
# 5 -0.2915 -2.4538 1.0321 0.0004 26.1013 0.0005
# 6 0.0003 0.0005 0.0005 1.7800 0.0005 22.4899
#
#
#
# Elastic Compliance Matrix: (Units=1/GPa)
#
#
# Indices 1 2 3 4 5 6 
#
# 1 0.011341 -0.004329 -0.003974 -0.000001 -0.000123 0.000000
# 2 -0.004329 0.015351 -0.003353 0.000001 0.001527 0.000000
# 3 -0.003974 -0.003353 0.014627 -0.000001 -0.000938 0.000000
# 4 -0.000001 0.000001 -0.000001 0.038266 0.000000 -0.003029
# 5 -0.000123 0.001527 -0.000938 0.000000 0.038492 -0.000001
# 6 0.000000 0.000000 0.000000 -0.003029 -0.000001 0.044704
#
#
# Mechanical properties :
#
#
# Convention : Reuss Voigt Hill
#
# Bulk Modulus (GPa) = 55.53093 58.05065 56.79079
# Shear Modulus (GPa) = 26.02896 26.61163 26.32029
#
# Velocity S-wave (km/s) = 3.78350 3.82561 3.80461
# Velocity P-wave (km/s) = 7.04459 7.17212 7.10864
#
# Compressibility (1/GPa) = 0.01800798
#
# Stress axis : x y z
#
# Youngs Moduli (GPa) = 88.17326 65.14395 68.36733
#
# Poissons Ratio (x) = 0.28200 0.27168
# Poissons Ratio (y) = 0.38169 0.22922
# Poissons Ratio (z) = 0.35038 0.21841
#
# Static dielectric constant tensor:
#      x y z
#    x 1.641860 0.000000 -0.008830 
#    y 0.000000 1.772950 0.000000 
#    z -0.008830 0.000000 1.743590 
# 
# From -- ./inp_files/69897.got.cif
#   From: 2010.05.17/outbox.cif.g08.bks.cpg/sg15_35_cif.got.tgz:69897.got - 2010.06.03 18:47:42.
