data_PCOD9287848
_publ_section_title
;
Structure prediction by ZEFSAII (Michael W. Deem and Ramdas Pophale) SiO2 
 PCOD9287848
Probable space group: C 2/C
;
_chemical_formula_sum "Si O2"
_cell_formula_units_Z 52
_cell_length_a 12.369483
_cell_length_b 25.665438
_cell_length_c 10.605331
_cell_angle_alpha 90.000000
_cell_angle_beta 51.997397
_cell_angle_gamma 90.000000
_cell_volume 2653.024034
_symmetry_space_group_name_H-M "C 2/C"
_symmetry_group_IT_number 15
_symmetry_cell_setting 'monoclinic'
loop_
_space_group_symop_operation_xyz
x,y,z
-x,y,1/2-z
-x,-y,-z
x,-y,1/2+z
1/2+x,1/2+y,z
1/2-x,1/2+y,1/2-z
1/2-x,1/2-y,-z
1/2+x,1/2-y,1/2+z
loop_
_atom_site_type_symbol
_atom_site_label
_atom_site_fract_x
_atom_site_fract_y
_atom_site_fract_z
Si Si1 0.158016 0.700123 0.098016
Si Si2 0.000000 0.873598 0.750000
Si Si3 0.679570 0.106510 0.893872
Si Si4 0.622635 0.451731 0.064445
Si Si5 0.807817 0.875435 0.679432
Si Si6 0.089272 0.447637 0.972909
Si Si7 0.715300 0.439386 0.436871
O O1 0.216972 0.666353 0.172139
O O2 0.000000 0.711835 0.250000
O O3 0.250000 0.750000 0.000000
O O4 0.178648 0.661926 0.962734
O O5 0.101094 0.847918 0.778702
O O6 0.103284 0.909202 0.597572
O O7 0.744767 0.066079 0.948691
O O8 0.756289 0.092811 0.709223
O O9 0.524059 0.095662 0.969126
O O10 0.500000 0.461284 0.250000
O O11 0.594600 0.403351 0.993246
O O12 0.655323 0.503035 0.961375
O O13 0.715845 0.924098 0.798849
O O14 0.151001 0.448142 0.069620
O O15 0.000000 0.500000 0.000000
#
# Coordination Sequence:
#
# PCOD9287848 Si02
#       7
#     8   4   8   8   8   8   8
#     4  11  25  48  77  99 127 166 226 298 353 403
#     4  10  22  38  58  88 138 174 212 260 326 398
#     4  11  23  39  62  92 130 166 223 277 326 400
#     4  11  22  34  55  88 132 180 222 262 316 393
#     4  10  23  40  64  91 132 173 220 277 333 398
#     4  11  20  37  61  95 136 183 219 264 327 402
#     4  11  22  34  57  92 133 185 216 261 327 401
#
# _framework density 19.600275
#
# number of rings (size 3 to 8) (size 9 to 14) (size 15 to 20)
#    0.000    1.231    3.846    2.308    2.154    4.923 
#    0.000    0.000    3.385    2.769    0.000    0.000 
#    0.000    0.000    0.000    0.000    0.000    0.000 
#
# Total GULP energy -144898.197721 kJ/mol
# GULP energy per Si atom -5573.007605 kJ/mol
# Density = 1.955566 g / cm^3
# Si number density = 19.600275 Si / 1000 Ang^3
#
#
#
# Elastic Constant Matrix: (Units=GPa)
#
#
# Indices 1 2 3 4 5 6 
#
# 1 126.6003 37.3928 41.6385 0.0000 -0.6886 0.0000
# 2 37.3928 99.1226 54.7248 0.0000 -1.2445 0.0000
# 3 41.6385 54.7248 122.6153 0.0000 0.7315 0.0000
# 4 0.0000 0.0000 0.0000 22.8037 0.0000 -0.6412
# 5 -0.6886 -1.2445 0.7315 0.0000 28.5057 0.0000
# 6 0.0000 0.0000 0.0000 -0.6412 0.0000 14.3783
#
#
#
# Elastic Compliance Matrix: (Units=1/GPa)
#
#
# Indices 1 2 3 4 5 6 
#
# 1 0.009284 -0.002334 -0.002112 0.000000 0.000177 0.000000
# 2 -0.002334 0.013989 -0.005455 0.000000 0.000694 0.000000
# 3 -0.002112 -0.005455 0.011311 0.000000 -0.000579 0.000000
# 4 0.000000 0.000000 0.000000 0.043908 0.000000 0.001958
# 5 0.000177 0.000694 -0.000579 0.000000 0.035130 0.000000
# 6 0.000000 0.000000 0.000000 0.001958 0.000000 0.069636
#
#
# Mechanical properties :
#
#
# Convention : Reuss Voigt Hill
#
# Bulk Modulus (GPa) = 67.65056 68.42781 68.03919
# Shear Modulus (GPa) = 24.03981 27.44303 25.74142
#
# Velocity S-wave (km/s) = 3.50595 3.74590 3.62791
# Velocity P-wave (km/s) = 7.13995 7.32779 7.23448
#
# Compressibility (1/GPa) = 0.01478184
#
# Stress axis : x y z
#
# Youngs Moduli (GPa) = 107.71408 71.48221 88.40937
#
# Poissons Ratio (x) = 0.16684 0.18672
# Poissons Ratio (y) = 0.25140 0.48230
# Poissons Ratio (z) = 0.22750 0.38995
#
# Static dielectric constant tensor:
#      x y z
#    x 1.776360 0.000000 0.029980 
#    y 0.000000 1.662320 0.000000 
#    z 0.029980 0.000000 1.774880 
# 
# From -- ./inp_files/91196.got.cif
#   From: 2010.05.17/outbox.cif.g08.bks.cpg/sg15_46_cif.got.tgz:91196.got - 2010.06.03 18:47:42.
