data_PCOD9287569
_publ_section_title
;
Structure prediction by ZEFSAII (Michael W. Deem and Ramdas Pophale) SiO2 
 PCOD9287569
Probable space group: C 2/C
;
_chemical_formula_sum "Si O2"
_cell_formula_units_Z 48
_cell_length_a 16.264919
_cell_length_b 22.415077
_cell_length_c 9.956999
_cell_angle_alpha 90.000000
_cell_angle_beta 125.364874
_cell_angle_gamma 90.000000
_cell_volume 2960.297768
_symmetry_space_group_name_H-M "C 2/C"
_symmetry_group_IT_number 15
_symmetry_cell_setting 'monoclinic'
loop_
_space_group_symop_operation_xyz
x,y,z
-x,y,1/2-z
-x,-y,-z
x,-y,1/2+z
1/2+x,1/2+y,z
1/2-x,1/2+y,1/2-z
1/2-x,1/2-y,-z
1/2+x,1/2-y,1/2+z
loop_
_atom_site_type_symbol
_atom_site_label
_atom_site_fract_x
_atom_site_fract_y
_atom_site_fract_z
Si Si1 0.596548 0.235031 0.018304
Si Si2 0.865527 0.294511 0.249379
Si Si3 0.240450 0.212453 0.129906
Si Si4 0.817819 0.133403 0.852908
Si Si5 0.570745 0.517996 0.440927
Si Si6 0.120149 0.108982 0.887825
O O1 0.650907 0.204269 0.197198
O O2 0.614422 0.306704 0.055056
O O3 0.643428 0.220735 0.916533
O O4 0.483013 0.210831 0.897820
O O5 0.814945 0.248812 0.305355
O O6 0.796391 0.352417 0.210554
O O7 0.250000 0.250000 0.000000
O O8 0.173589 0.154801 0.037789
O O9 0.826179 0.119891 0.703156
O O10 0.861944 0.074838 0.963508
O O11 0.500000 0.534320 0.250000
O O12 0.500000 0.500000 0.500000
O O13 0.628326 0.458126 0.450087
O O14 0.000000 0.120041 0.750000
#
# Coordination Sequence:
#
# PCOD9287569 Si02
#       6
#     8   8   8   8   8   8
#     4  10  22  38  57  89 117 150 192 235 291 347
#     4  10  22  37  57  85 118 153 190 233 293 343
#     4  11  20  33  58  86 113 153 185 237 298 339
#     4  11  20  39  55  85 119 147 190 237 281 349
#     4  11  23  36  57  85 113 158 191 232 291 336
#     4  11  21  37  54  83 121 145 190 234 287 344
#
# _framework density 16.214586000000001
#
# number of rings (size 3 to 8) (size 9 to 14) (size 15 to 20)
#    0.000    1.333    6.667    3.000    2.333    1.333 
#    0.000    0.000    0.000    1.000    0.000    0.000 
#    0.000    0.000    0.000    0.000    0.000    0.000 
#
# Total GULP energy -133666.365422 kJ/mol
# GULP energy per Si atom -5569.431893 kJ/mol
# Density = 1.617768 g / cm^3
# Si number density = 16.214586 Si / 1000 Ang^3
#
#
#
# Elastic Constant Matrix: (Units=GPa)
#
#
# Indices 1 2 3 4 5 6 
#
# 1 93.8298 44.4536 41.7262 0.0000 0.3853 0.0000
# 2 44.4536 122.8314 54.9211 0.0000 12.5884 0.0000
# 3 41.7262 54.9211 127.7531 0.0000 2.7454 0.0000
# 4 0.0000 0.0000 0.0000 41.4999 0.0000 7.6146
# 5 0.3853 12.5884 2.7454 0.0000 38.1851 0.0000
# 6 0.0000 0.0000 0.0000 7.6146 0.0000 26.9782
#
#
#
# Elastic Compliance Matrix: (Units=1/GPa)
#
#
# Indices 1 2 3 4 5 6 
#
# 1 0.013742 -0.003825 -0.002872 0.000000 0.001329 0.000000
# 2 -0.003825 0.011502 -0.003620 0.000000 -0.003493 0.000000
# 3 -0.002872 -0.003620 0.010312 0.000000 0.000481 0.000000
# 4 0.000000 0.000000 0.000000 0.025412 0.000000 -0.007173
# 5 0.001329 -0.003493 0.000481 0.000000 0.027292 0.000000
# 6 0.000000 0.000000 0.000000 -0.007173 0.000000 0.039091
#
#
# Mechanical properties :
#
#
# Convention : Reuss Voigt Hill
#
# Bulk Modulus (GPa) = 67.02409 69.62402 68.32405
# Shear Modulus (GPa) = 32.68809 34.88687 33.78748
#
# Velocity S-wave (km/s) = 4.49482 4.64354 4.56979
# Velocity P-wave (km/s) = 8.26821 8.47244 8.37095
#
# Compressibility (1/GPa) = 0.01492001
#
# Stress axis : x y z
#
# Youngs Moduli (GPa) = 72.77111 86.93871 96.97558
#
# Poissons Ratio (x) = 0.33255 0.27855
# Poissons Ratio (y) = 0.27836 0.35110
# Poissons Ratio (z) = 0.20903 0.31476
#
# Static dielectric constant tensor:
#      x y z
#    x 1.574490 0.000000 0.029820 
#    y 0.000000 1.559260 0.000000 
#    z 0.029820 0.000000 1.579400 
# 
# From -- ./inp_files/40947.got.cif
#   From: 2010.05.17/outbox.cif.g08.bks.cpg/sg15_21_cif.got.tgz:40947.got - 2010.06.03 18:47:42.
