data_PCOD9287618
_publ_section_title
;
Structure prediction by ZEFSAII (Michael W. Deem and Ramdas Pophale) SiO2 
 PCOD9287618
Probable space group: C 2/C
;
_chemical_formula_sum "Si O2"
_cell_formula_units_Z 40
_cell_length_a 14.856252
_cell_length_b 15.153082
_cell_length_c 8.019589
_cell_angle_alpha 90.000000
_cell_angle_beta 59.231891
_cell_angle_gamma 90.000000
_cell_volume 1551.240872
_symmetry_space_group_name_H-M "C 2/C"
_symmetry_group_IT_number 15
_symmetry_cell_setting 'monoclinic'
loop_
_space_group_symop_operation_xyz
x,y,z
-x,y,1/2-z
-x,-y,-z
x,-y,1/2+z
1/2+x,1/2+y,z
1/2-x,1/2+y,1/2-z
1/2-x,1/2-y,-z
1/2+x,1/2-y,1/2+z
loop_
_atom_site_type_symbol
_atom_site_label
_atom_site_fract_x
_atom_site_fract_y
_atom_site_fract_z
Si Si1 0.711634 0.953210 0.696340
Si Si2 0.106862 0.200311 0.014557
Si Si3 0.070907 0.120704 0.517505
Si Si4 0.620075 0.206986 0.143914
Si Si5 0.827647 0.626375 0.913068
O O1 0.838559 0.951552 0.591037
O O2 0.687926 0.881043 0.574398
O O3 0.651240 0.043882 0.724103
O O4 0.669516 0.913042 0.905638
O O5 0.106627 0.284269 0.140638
O O6 0.133735 0.242451 0.807079
O O7 0.207542 0.148684 0.983302
O O8 0.006545 0.140181 0.063481
O O9 0.127819 0.215768 0.499481
O O10 0.000000 0.103214 0.750000
O O11 0.500000 0.177236 0.250000
#
# Coordination Sequence:
#
# PCOD9287618 Si02
#       5
#     8   8   8   8   8
#     4  11  22  36  59  91 114 157 196 247 292 352
#     4   8  18  40  56  76 118 163 182 239 300 351
#     4   9  19  36  61  85 116 153 200 244 294 354
#     4   8  17  37  64  84 114 149 195 242 294 354
#     4  10  22  37  60  82 124 152 199 243 300 341
#
# _framework density 25.785806000000001
#
# number of rings (size 3 to 8) (size 9 to 14) (size 15 to 20)
#    0.000    3.200    0.000    0.600    5.600    1.600 
#    3.600    9.000    0.000    0.000    0.000    0.000 
#    0.000    0.000    0.000    0.000    0.000    0.000 
#
# Total GULP energy -111734.647620 kJ/mol
# GULP energy per Si atom -5586.732381 kJ/mol
# Density = 2.572712 g / cm^3
# Si number density = 25.785806 Si / 1000 Ang^3
#
#
#
# Elastic Constant Matrix: (Units=GPa)
#
#
# Indices 1 2 3 4 5 6 
#
# 1 99.3118 30.6645 2.3655 0.0000 3.9354 0.0000
# 2 30.6645 57.3889 0.0960 0.0000 14.1544 0.0000
# 3 2.3655 0.0960 47.4766 0.0000 17.8545 0.0000
# 4 0.0000 0.0000 0.0000 12.3592 0.0000 16.5126
# 5 3.9354 14.1544 17.8545 0.0000 42.4377 0.0000
# 6 0.0000 0.0000 0.0000 16.5126 0.0000 2.8320
#
#
#
# Elastic Compliance Matrix: (Units=1/GPa)
#
#
# Indices 1 2 3 4 5 6 
#
# 1 0.012167 -0.006918 -0.001230 0.000000 0.001697 0.000000
# 2 -0.006918 0.023235 0.003529 0.000000 -0.008593 0.000000
# 3 -0.001230 0.003529 0.025561 0.000000 -0.011817 0.000000
# 4 0.000000 0.000000 0.000000 -0.011916 0.000000 0.069478
# 5 0.001697 -0.008593 -0.011817 0.000000 0.031244 0.000000
# 6 0.000000 0.000000 0.000000 0.069478 0.000000 -0.052002
#
#
# Mechanical properties :
#
#
# Convention : Reuss Voigt Hill
#
# Bulk Modulus (GPa) = 19.33272 30.04771 24.69021
# Shear Modulus (GPa) = 91.29182 22.92919 57.11050
#
# Velocity S-wave (km/s) = 5.95657 2.98521 4.71128
# Velocity P-wave (km/s) = 7.40415 4.85387 6.26025
#
# Compressibility (1/GPa) = 0.05172579
#
# Stress axis : x y z
#
# Youngs Moduli (GPa) = 82.18705 43.03900 39.12162
#
# Poissons Ratio (x) = 0.29773 0.04813
# Poissons Ratio (y) = 0.56855 -0.13807
# Poissons Ratio (z) = 0.10111 -0.15189
#
# Static dielectric constant tensor:
#      x y z
#    x 2.037200 0.000000 -0.025870 
#    y 0.000000 2.043050 0.000000 
#    z -0.025870 0.000000 2.075030 
# 
# From -- ./inp_files/37819.got.cif
#   From: 2010.05.17/outbox.cif.g08.bks.cpg/sg15_19_cif.got.tgz:37819.got - 2010.06.03 18:47:42.
