data_PCOD9287303
_publ_section_title
;
Structure prediction by ZEFSAII (Michael W. Deem and Ramdas Pophale) SiO2 
 PCOD9287303
Probable space group: C 2/C
;
_chemical_formula_sum "Si O2"
_cell_formula_units_Z 48
_cell_length_a 18.708993
_cell_length_b 19.173560
_cell_length_c 8.604215
_cell_angle_alpha 90.000000
_cell_angle_beta 133.542745
_cell_angle_gamma 90.000000
_cell_volume 2237.272758
_symmetry_space_group_name_H-M "C 2/C"
_symmetry_group_IT_number 15
_symmetry_cell_setting 'monoclinic'
loop_
_space_group_symop_operation_xyz
x,y,z
-x,y,1/2-z
-x,-y,-z
x,-y,1/2+z
1/2+x,1/2+y,z
1/2-x,1/2+y,1/2-z
1/2-x,1/2-y,-z
1/2+x,1/2-y,1/2+z
loop_
_atom_site_type_symbol
_atom_site_label
_atom_site_fract_x
_atom_site_fract_y
_atom_site_fract_z
Si Si1 0.592976 0.884354 0.468652
Si Si2 0.000000 0.481311 0.750000
Si Si3 0.000000 0.247719 0.750000
Si Si4 0.982876 0.837916 0.903357
Si Si5 0.850734 0.640493 0.113173
Si Si6 0.213368 0.078800 0.423997
Si Si7 0.329077 0.429019 0.284823
O O1 0.630904 0.847460 0.677923
O O2 0.682239 0.897288 0.486131
O O3 0.547674 0.961480 0.438677
O O4 0.500000 0.847541 0.250000
O O5 0.088686 0.430196 0.836804
O O6 0.096122 0.297745 0.898646
O O7 0.001249 0.206683 0.587727
O O8 0.871353 0.865692 0.741460
O O9 0.000000 0.811136 0.750000
O O10 0.059720 0.902369 0.033412
O O11 0.737131 0.626054 0.909373
O O12 0.217629 0.069594 0.614361
O O13 0.181887 0.004736 0.305469
#
# Coordination Sequence:
#
# PCOD9287303 Si02
#       7
#     8   4   4   8   8   8   8
#     4  10  22  35  64  98 140 168 211 282 350 401
#     4   9  20  34  62  90 140 167 208 280 348 403
#     4  11  28  46  72  90 140 195 234 270 332 405
#     4  10  26  50  67  96 137 183 239 282 330 403
#     4  11  23  40  65 101 133 177 231 274 335 412
#     4  11  23  40  70 105 136 173 216 289 356 404
#     4  11  23  41  70 103 135 172 223 289 349 400
#
# _framework density 21.454691
#
# number of rings (size 3 to 8) (size 9 to 14) (size 15 to 20)
#    0.500    1.000    1.667    2.000    9.333    1.333 
#    0.000    1.667    0.000    0.000    0.000    0.000 
#    0.000    0.000    0.000    0.000    0.000    0.000 
#
# Total GULP energy -133983.359113 kJ/mol
# GULP energy per Si atom -5582.639963 kJ/mol
# Density = 2.140586 g / cm^3
# Si number density = 21.454691 Si / 1000 Ang^3
#
#
#
# Elastic Constant Matrix: (Units=GPa)
#
#
# Indices 1 2 3 4 5 6 
#
# 1 85.1985 31.2702 35.8233 0.0000 7.2011 0.0000
# 2 31.2702 65.2007 23.5375 0.0000 -5.6465 0.0000
# 3 35.8233 23.5375 108.1493 0.0000 -4.2326 0.0000
# 4 0.0000 0.0000 0.0000 -419.4377 0.0000 68.6505
# 5 7.2011 -5.6465 -4.2326 0.0000 39.4090 0.0000
# 6 0.0000 0.0000 0.0000 68.6505 0.0000 18.2015
#
#
#
# Elastic Compliance Matrix: (Units=1/GPa)
#
#
# Indices 1 2 3 4 5 6 
#
# 1 0.016299 -0.006713 -0.004109 0.000000 -0.004382 0.000000
# 2 -0.006713 0.019569 -0.001886 0.000000 0.003828 0.000000
# 3 -0.004109 -0.001886 0.011083 0.000000 0.001671 0.000000
# 4 0.000000 0.000000 0.000000 -0.001474 0.000000 0.005560
# 5 -0.004382 0.003828 0.001671 0.000000 0.026904 0.000000
# 6 0.000000 0.000000 0.000000 0.005560 0.000000 0.033970
#
#
# Mechanical properties :
#
#
# Convention : Reuss Voigt Hill
#
# Bulk Modulus (GPa) = 46.43443 48.86782 47.65112
# Shear Modulus (GPa) = 35.98514 -61.17096 -12.59291
#
# Velocity S-wave (km/s) = 4.09988 -5.34543 -2.42534
# Velocity P-wave (km/s) = 6.64094 3.90787 3.79675
#
# Compressibility (1/GPa) = 0.02153575
#
# Stress axis : x y z
#
# Youngs Moduli (GPa) = 61.35180 51.10107 90.22451
#
# Poissons Ratio (x) = 0.34305 0.37077
# Poissons Ratio (y) = 0.41186 0.17012
# Poissons Ratio (z) = 0.25212 0.09635
#
# Static dielectric constant tensor:
#      x y z
#    x 1.747280 0.000000 -0.012000 
#    y 0.000000 1.800420 0.000000 
#    z -0.012000 0.000000 1.812150 
# 
# From -- ./inp_files/58007.got.cif
#   From: 2010.05.17/outbox.cif.g08.bks.cpg/sg15_30_cif.got.tgz:58007.got - 2010.06.03 18:47:42.
