data_PCOD9287937
_publ_section_title
;
Structure prediction by ZEFSAII (Michael W. Deem and Ramdas Pophale) SiO2 
 PCOD9287937
Probable space group: C 2/C
;
_chemical_formula_sum "Si O2"
_cell_formula_units_Z 48
_cell_length_a 14.201979
_cell_length_b 12.991975
_cell_length_c 13.822352
_cell_angle_alpha 90.000000
_cell_angle_beta 59.817378
_cell_angle_gamma 90.000000
_cell_volume 2204.623741
_symmetry_space_group_name_H-M "C 2/C"
_symmetry_group_IT_number 15
_symmetry_cell_setting 'monoclinic'
loop_
_space_group_symop_operation_xyz
x,y,z
-x,y,1/2-z
-x,-y,-z
x,-y,1/2+z
1/2+x,1/2+y,z
1/2-x,1/2+y,1/2-z
1/2-x,1/2-y,-z
1/2+x,1/2-y,1/2+z
loop_
_atom_site_type_symbol
_atom_site_label
_atom_site_fract_x
_atom_site_fract_y
_atom_site_fract_z
Si Si1 0.766224 0.023738 0.564082
Si Si2 0.252922 0.789828 0.888077
Si Si3 0.828591 0.387994 0.208231
Si Si4 0.623424 0.350100 0.654019
Si Si5 0.926997 0.640540 0.915077
Si Si6 0.161205 0.627756 0.336479
O O1 0.761067 0.097253 0.661113
O O2 0.844428 0.064378 0.440798
O O3 0.644494 0.041766 0.581047
O O4 0.792637 0.907016 0.579551
O O5 0.199760 0.695101 0.857468
O O6 0.352562 0.818291 0.760907
O O7 0.250000 0.750000 0.000000
O O8 0.843738 0.504807 0.166230
O O9 0.949005 0.360291 0.182283
O O10 0.500000 0.366655 0.750000
O O11 0.630057 0.240733 0.598145
O O12 0.715249 0.349571 0.689804
O O13 0.919915 0.654582 0.034716
#
# Coordination Sequence:
#
# PCOD9287937 Si02
#       6
#     8   8   8   8   8   8
#     4  10  22  39  64  92 122 158 204 255 305 361
#     4  11  22  39  58  85 127 167 199 246 304 359
#     4  11  22  40  63  91 123 158 198 248 308 366
#     4  11  21  38  64  90 117 157 208 253 296 357
#     4  11  20  38  66  93 116 154 206 254 300 361
#     4  10  22  38  60  89 123 158 198 250 305 360
#
# _framework density 21.772423
#
# number of rings (size 3 to 8) (size 9 to 14) (size 15 to 20)
#    0.000    1.333    0.000    9.000    0.000    0.000 
#    0.000   13.333    0.000    4.000    0.000    0.000 
#    0.000    0.000    0.000    0.000    0.000    0.000 
#
# Total GULP energy -133794.255483 kJ/mol
# GULP energy per Si atom -5574.760645 kJ/mol
# Density = 2.172287 g / cm^3
# Si number density = 21.772423 Si / 1000 Ang^3
#
#
#
# Elastic Constant Matrix: (Units=GPa)
#
#
# Indices 1 2 3 4 5 6 
#
# 1 35.2408 33.5650 27.8151 0.0000 12.1345 0.0000
# 2 33.5650 124.1796 42.4315 0.0000 21.6129 0.0000
# 3 27.8151 42.4315 155.8238 0.0000 20.7932 0.0000
# 4 0.0000 0.0000 0.0000 39.8115 0.0000 20.2777
# 5 12.1345 21.6129 20.7932 0.0000 39.5066 0.0000
# 6 0.0000 0.0000 0.0000 20.2777 0.0000 21.5381
#
#
#
# Elastic Compliance Matrix: (Units=1/GPa)
#
#
# Indices 1 2 3 4 5 6 
#
# 1 0.042327 -0.008943 -0.004343 0.000000 -0.005822 0.000000
# 2 -0.008943 0.011351 -0.001110 0.000000 -0.002878 0.000000
# 3 -0.004343 -0.001110 0.007783 0.000000 -0.002155 0.000000
# 4 0.000000 0.000000 0.000000 0.048261 0.000000 -0.045437
# 5 -0.005822 -0.002878 -0.002155 0.000000 0.029809 0.000000
# 6 0.000000 0.000000 0.000000 -0.045437 0.000000 0.089207
#
#
# Mechanical properties :
#
#
# Convention : Reuss Voigt Hill
#
# Bulk Modulus (GPa) = 30.61251 58.09638 44.35445
# Shear Modulus (GPa) = 18.62744 34.26675 26.44709
#
# Velocity S-wave (km/s) = 2.92816 3.97149 3.48904
# Velocity P-wave (km/s) = 5.05202 6.91171 6.05370
#
# Compressibility (1/GPa) = 0.03266638
#
# Stress axis : x y z
#
# Youngs Moduli (GPa) = 23.62549 88.10182 128.49059
#
# Poissons Ratio (x) = 0.78793 0.55808
# Poissons Ratio (y) = 0.21129 0.14266
# Poissons Ratio (z) = 0.10261 0.09782
#
# Static dielectric constant tensor:
#      x y z
#    x 1.831370 0.000000 0.041610 
#    y 0.000000 1.811360 0.000000 
#    z 0.041610 0.000000 1.864620 
# 
# From -- ./inp_files/152462.got.cif
#   From: 2010.05.17/outbox.cif.g08.bks.cpg/sg15_77_cif.got.tgz:152462.got - 2010.06.03 18:47:42.
