data_PCOD9287374
_publ_section_title
;
Structure prediction by ZEFSAII (Michael W. Deem and Ramdas Pophale) SiO2 
 PCOD9287374
Probable space group: C 2/C
;
_chemical_formula_sum "Si O2"
_cell_formula_units_Z 56
_cell_length_a 11.613664
_cell_length_b 10.275324
_cell_length_c 27.432734
_cell_angle_alpha 90.000000
_cell_angle_beta 128.123851
_cell_angle_gamma 90.000000
_cell_volume 2575.318406
_symmetry_space_group_name_H-M "C 2/C"
_symmetry_group_IT_number 15
_symmetry_cell_setting 'monoclinic'
loop_
_space_group_symop_operation_xyz
x,y,z
-x,y,1/2-z
-x,-y,-z
x,-y,1/2+z
1/2+x,1/2+y,z
1/2-x,1/2+y,1/2-z
1/2-x,1/2-y,-z
1/2+x,1/2-y,1/2+z
loop_
_atom_site_type_symbol
_atom_site_label
_atom_site_fract_x
_atom_site_fract_y
_atom_site_fract_z
Si Si1 0.302972 0.516850 0.853633
Si Si2 0.763499 0.336181 0.428488
Si Si3 0.867745 0.721791 0.191973
Si Si4 0.550712 0.683318 0.958430
Si Si5 0.940461 0.287842 0.180788
Si Si6 0.768776 0.421096 0.276175
Si Si7 0.814771 0.591311 0.379443
O O1 0.276031 0.365067 0.846178
O O2 0.439096 0.566633 0.919835
O O3 0.164287 0.587110 0.842110
O O4 0.293353 0.555293 0.793989
O O5 0.630754 0.279415 0.361231
O O6 0.688149 0.359211 0.460815
O O7 0.885186 0.227874 0.472966
O O8 0.825263 0.461137 0.415604
O O9 0.847558 0.836676 0.224813
O O10 0.000000 0.640952 0.250000
O O11 0.453038 0.811105 0.918000
O O12 0.829689 0.169777 0.139513
O O13 0.000000 0.254707 0.250000
O O14 0.081937 0.336284 0.188368
O O15 0.795825 0.545556 0.318113
#
# Coordination Sequence:
#
# PCOD9287374 Si02
#       7
#     8   8   8   8   8   8   8
#     4  10  22  36  60  85 121 160 196 251 309 363
#     4  10  23  40  61  91 117 160 212 241 310 368
#     4  11  23  37  60  90 122 152 199 258 302 368
#     4  10  22  41  63  84 121 167 200 253 302 363
#     4   9  20  36  54  88 119 154 196 243 307 363
#     4  10  22  36  58  92 120 155 199 250 314 356
#     4  10  22  38  65  86 123 162 202 255 299 364
#
# _framework density 21.744883999999999
#
# number of rings (size 3 to 8) (size 9 to 14) (size 15 to 20)
#    0.000    2.000    0.000    2.571   12.000    2.857 
#    0.000    0.000    0.000    4.286    0.000    0.000 
#    0.000    0.000    0.000    0.000    0.000    0.000 
#
# Total GULP energy -156013.781308 kJ/mol
# GULP energy per Si atom -5571.920761 kJ/mol
# Density = 2.169539 g / cm^3
# Si number density = 21.744884 Si / 1000 Ang^3
#
#
#
# Elastic Constant Matrix: (Units=GPa)
#
#
# Indices 1 2 3 4 5 6 
#
# 1 58.4325 -0.5170 10.5026 0.0000 1.3003 0.0000
# 2 -0.5170 39.8869 8.7780 0.0000 -3.4651 0.0000
# 3 10.5026 8.7780 55.2590 0.0000 21.9741 0.0000
# 4 0.0000 0.0000 0.0000 36.8221 0.0000 6.4788
# 5 1.3003 -3.4651 21.9741 0.0000 16.2606 0.0000
# 6 0.0000 0.0000 0.0000 6.4788 0.0000 23.7861
#
#
#
# Elastic Compliance Matrix: (Units=1/GPa)
#
#
# Indices 1 2 3 4 5 6 
#
# 1 0.018313 0.002767 -0.007722 0.000000 0.009561 0.000000
# 2 0.002767 0.031609 -0.017590 0.000000 0.030286 0.000000
# 3 -0.007722 -0.017590 0.051022 0.000000 -0.072080 0.000000
# 4 0.000000 0.000000 0.000000 0.028525 0.000000 -0.007769
# 5 0.009561 0.030286 -0.072080 0.000000 0.164595 0.000000
# 6 0.000000 0.000000 0.000000 -0.007769 0.000000 0.044158
#
#
# Mechanical properties :
#
#
# Convention : Reuss Voigt Hill
#
# Bulk Modulus (GPa) = 17.90395 21.23397 19.56896
# Shear Modulus (GPa) = 12.43999 24.36140 18.40070
#
# Velocity S-wave (km/s) = 2.39443 3.35076 2.91212
# Velocity P-wave (km/s) = 3.98697 4.97558 4.50845
#
# Compressibility (1/GPa) = 0.05585360
#
# Stress axis : x y z
#
# Youngs Moduli (GPa) = 54.60460 31.63655 19.59954
#
# Poissons Ratio (x) = -0.08755 0.15135
# Poissons Ratio (y) = -0.15111 0.34476
# Poissons Ratio (z) = 0.42167 0.55650
#
# Static dielectric constant tensor:
#      x y z
#    x 1.797600 0.000000 0.077740 
#    y 0.000000 1.843140 0.000000 
#    z 0.077740 0.000000 1.748520 
# 
# From -- ./inp_files/292301.got.cif
#   From: 2010.05.17/outbox.cif.g08.bks.cpg/sg15_147_cif.got.tgz:292301.got - 2010.06.03 18:47:42.
