data_PCOD9287333
_publ_section_title
;
Structure prediction by ZEFSAII (Michael W. Deem and Ramdas Pophale) SiO2 
 PCOD9287333
Probable space group: C 2/C
;
_chemical_formula_sum "Si O2"
_cell_formula_units_Z 28
_cell_length_a 15.526750
_cell_length_b 10.401415
_cell_length_c 17.299716
_cell_angle_alpha 90.000000
_cell_angle_beta 18.913910
_cell_angle_gamma 90.000000
_cell_volume 905.636863
_symmetry_space_group_name_H-M "C 2/C"
_symmetry_group_IT_number 15
_symmetry_cell_setting 'monoclinic'
loop_
_space_group_symop_operation_xyz
x,y,z
-x,y,1/2-z
-x,-y,-z
x,-y,1/2+z
1/2+x,1/2+y,z
1/2-x,1/2+y,1/2-z
1/2-x,1/2-y,-z
1/2+x,1/2-y,1/2+z
loop_
_atom_site_type_symbol
_atom_site_label
_atom_site_fract_x
_atom_site_fract_y
_atom_site_fract_z
Si Si1 0.614862 0.459154 0.045373
Si Si2 0.500000 0.165249 0.750000
Si Si3 0.275961 0.847047 0.646221
Si Si4 0.458242 0.107306 0.433984
O O1 0.769744 0.562674 0.968124
O O2 0.842856 0.383364 0.807295
O O3 0.458258 0.560009 0.124008
O O4 0.364713 0.383945 0.294309
O O5 0.637809 0.252366 0.700601
O O6 0.428712 0.803746 0.592863
O O7 0.475434 0.953971 0.441533
#
# Coordination Sequence:
#
# PCOD9287333 Si02
#       4
#     8   4   8   8
#     4  10  22  36  55  83 121 165 196 255 307 379
#     4  12  24  38  62 108 134 148 208 286 332 332
#     4   9  22  36  55  82 123 168 195 252 307 386
#     4   9  21  39  55  69 125 177 205 215 319 399
#
# _framework density 30.917469000000001
#
# number of rings (size 3 to 8) (size 9 to 14) (size 15 to 20)
#    1.714    0.571    0.000    1.714    8.000    1.143 
#    0.000    0.000    0.000    0.000    0.000    0.000 
#    0.000   50.286    0.000    0.857    0.000    0.000 
#
# Total GULP energy -77945.232844 kJ/mol
# GULP energy per Si atom -5567.516632 kJ/mol
# Density = 3.084710 g / cm^3
# Si number density = 30.917469 Si / 1000 Ang^3
#
#
#
# Elastic Constant Matrix: (Units=GPa)
#
#
# Indices 1 2 3 4 5 6 
#
# 1 244.0467 86.0435 91.0790 -0.0488 -45.4619 -0.0042
# 2 86.0435 175.0318 91.7468 -0.1889 -5.9993 -0.0007
# 3 91.0790 91.7468 294.7102 -0.2247 1.5072 -0.0024
# 4 -0.0488 -0.1889 -0.2247 -23.2822 0.0023 -24.5740
# 5 -45.4619 -5.9993 1.5072 0.0023 49.1965 0.0160
# 6 -0.0042 -0.0007 -0.0024 -24.5740 0.0160 47.6012
#
#
#
# Elastic Compliance Matrix: (Units=1/GPa)
#
#
# Indices 1 2 3 4 5 6 
#
# 1 0.006464 -0.002293 -0.001313 0.000013 0.005734 0.000005
# 2 -0.002293 0.007680 -0.001677 -0.000027 -0.001131 -0.000014
# 3 -0.001313 -0.001677 0.004329 -0.000017 -0.001551 -0.000008
# 4 0.000013 -0.000027 -0.000017 -0.027802 0.000015 -0.014353
# 5 0.005734 -0.001131 -0.001551 0.000015 0.025535 0.000000
# 6 0.000005 -0.000014 -0.000008 -0.014353 0.000000 0.013598
#
#
# Mechanical properties :
#
#
# Convention : Reuss Voigt Hill
#
# Bulk Modulus (GPa) = 126.45282 139.05858 132.75570
# Shear Modulus (GPa) = 116.26072 44.36439 80.31255
#
# Velocity S-wave (km/s) = 6.13883 3.79216 5.10224
# Velocity P-wave (km/s) = 9.55175 8.01554 8.81716
#
# Compressibility (1/GPa) = 0.00790809
#
# Stress axis : x y z
#
# Youngs Moduli (GPa) = 154.69663 130.20091 231.00470
#
# Poissons Ratio (x) = 0.29853 0.30338
# Poissons Ratio (y) = 0.35469 0.38732
# Poissons Ratio (z) = 0.20316 0.21830
#
# Static dielectric constant tensor:
#      x y z
#    x 2.467620 -0.000010 0.060800 
#    y -0.000010 2.356800 0.000070 
#    z 0.060800 0.000070 2.502950 
# 
# From -- ./inp_files/248500.got.cif
#   From: 2010.05.17/outbox.cif.g08.bks.cpg/sg15_125_cif.got.tgz:248500.got - 2010.06.03 18:47:42.
