data_PCOD9287650
_publ_section_title
;
Structure prediction by ZEFSAII (Michael W. Deem and Ramdas Pophale) SiO2 
 PCOD9287650
Probable space group: C 2/C
;
_chemical_formula_sum "Si O2"
_cell_formula_units_Z 48
_cell_length_a 21.130336
_cell_length_b 6.572137
_cell_length_c 17.772088
_cell_angle_alpha 90.000000
_cell_angle_beta 93.124232
_cell_angle_gamma 90.000000
_cell_volume 2464.367644
_symmetry_space_group_name_H-M "C 2/C"
_symmetry_group_IT_number 15
_symmetry_cell_setting 'monoclinic'
loop_
_space_group_symop_operation_xyz
x,y,z
-x,y,1/2-z
-x,-y,-z
x,-y,1/2+z
1/2+x,1/2+y,z
1/2-x,1/2+y,1/2-z
1/2-x,1/2-y,-z
1/2+x,1/2-y,1/2+z
loop_
_atom_site_type_symbol
_atom_site_label
_atom_site_fract_x
_atom_site_fract_y
_atom_site_fract_z
Si Si1 0.483270 0.197444 0.544386
Si Si2 0.096119 0.002689 0.568181
Si Si3 0.285201 0.761047 0.655056
Si Si4 0.706070 0.431788 0.964809
Si Si5 0.340795 0.442289 0.777459
Si Si6 0.874909 0.652110 0.651302
O O1 0.548095 0.314695 0.565659
O O2 0.440927 0.329687 0.483384
O O3 0.443445 0.144379 0.616629
O O4 0.500000 0.000000 0.500000
O O5 0.114951 0.040310 0.655643
O O6 0.161720 0.978036 0.527198
O O7 0.267343 0.620653 0.581945
O O8 0.317891 0.613968 0.718216
O O9 0.222201 0.855357 0.686892
O O10 0.335720 0.941661 0.642948
O O11 0.662581 0.312566 0.902690
O O12 0.750000 0.250000 0.000000
O O13 0.372890 0.255781 0.733505
#
# Coordination Sequence:
#
# PCOD9287650 Si02
#       6
#     8   8   8   8   8   8
#     4  10  22  43  64  86 119 167 221 268 313 374
#     4  10  23  40  62  90 122 160 214 270 312 379
#     4  11  22  39  60  91 131 164 204 262 323 400
#     4  10  22  37  61  92 123 160 211 262 320 383
#     4  11  23  38  62  91 129 164 201 260 333 391
#     4  10  22  39  59  89 125 164 210 261 319 386
#
# _framework density 19.477613999999999
#
# number of rings (size 3 to 8) (size 9 to 14) (size 15 to 20)
#    0.000    1.667    1.667    2.000    2.333    8.667 
#    0.000    0.000    0.000    0.000    0.000    0.000 
#    0.000    0.000    0.000    0.000    0.000    0.000 
#
# Total GULP energy -133855.847627 kJ/mol
# GULP energy per Si atom -5577.326984 kJ/mol
# Density = 1.943328 g / cm^3
# Si number density = 19.477614 Si / 1000 Ang^3
#
#
#
# Elastic Constant Matrix: (Units=GPa)
#
#
# Indices 1 2 3 4 5 6 
#
# 1 98.7107 45.5943 48.0678 0.0000 -29.2130 0.0000
# 2 45.5943 94.3876 37.4804 0.0000 -27.8699 0.0000
# 3 48.0678 37.4804 112.2093 0.0000 -8.1382 0.0000
# 4 0.0000 0.0000 0.0000 40.3959 0.0000 -8.7151
# 5 -29.2130 -27.8699 -8.1382 0.0000 42.1477 0.0000
# 6 0.0000 0.0000 0.0000 -8.7151 0.0000 16.6888
#
#
#
# Elastic Compliance Matrix: (Units=1/GPa)
#
#
# Indices 1 2 3 4 5 6 
#
# 1 0.016873 -0.003536 -0.005444 0.000000 0.008305 0.000000
# 2 -0.003536 0.015746 -0.003212 0.000000 0.007340 0.000000
# 3 -0.005444 -0.003212 0.012058 0.000000 -0.003569 0.000000
# 4 0.000000 0.000000 0.000000 0.027898 0.000000 0.014569
# 5 0.008305 0.007340 -0.003569 0.000000 0.033647 0.000000
# 6 0.000000 0.000000 0.000000 0.014569 0.000000 0.067528
#
#
# Mechanical properties :
#
#
# Convention : Reuss Voigt Hill
#
# Bulk Modulus (GPa) = 49.28246 63.06585 56.17416
# Shear Modulus (GPa) = 24.40204 31.45749 27.92976
#
# Velocity S-wave (km/s) = 3.54337 4.02314 3.79085
# Velocity P-wave (km/s) = 6.48827 7.35050 6.93280
#
# Compressibility (1/GPa) = 0.02029119
#
# Stress axis : x y z
#
# Youngs Moduli (GPa) = 59.26554 63.50887 82.93070
#
# Poissons Ratio (x) = 0.22459 0.45151
# Poissons Ratio (y) = 0.20959 0.26639
# Poissons Ratio (z) = 0.32267 0.20400
#
# Static dielectric constant tensor:
#      x y z
#    x 1.838360 0.000000 0.044060 
#    y 0.000000 1.705080 0.000000 
#    z 0.044060 0.000000 1.720590 
# 
# From -- ./inp_files/217536.got.cif
#   From: 2010.05.17/outbox.cif.g08.bks.cpg/sg15_109_cif.got.tgz:217536.got - 2010.06.03 18:47:42.
