data_PCOD9287267
_publ_section_title
;
Structure prediction by ZEFSAII (Michael W. Deem and Ramdas Pophale) SiO2 
 PCOD9287267
Probable space group: C 2/C
;
_chemical_formula_sum "Si O2"
_cell_formula_units_Z 48
_cell_length_a 13.440401
_cell_length_b 8.644552
_cell_length_c 20.382216
_cell_angle_alpha 90.000000
_cell_angle_beta 136.694199
_cell_angle_gamma 90.000000
_cell_volume 1624.283662
_symmetry_space_group_name_H-M "C 2/C"
_symmetry_group_IT_number 15
_symmetry_cell_setting 'monoclinic'
loop_
_space_group_symop_operation_xyz
x,y,z
-x,y,1/2-z
-x,-y,-z
x,-y,1/2+z
1/2+x,1/2+y,z
1/2-x,1/2+y,1/2-z
1/2-x,1/2-y,-z
1/2+x,1/2-y,1/2+z
loop_
_atom_site_type_symbol
_atom_site_label
_atom_site_fract_x
_atom_site_fract_y
_atom_site_fract_z
Si Si1 0.030822 0.644145 0.562187
Si Si2 0.888083 0.757715 0.135516
Si Si3 0.884881 0.217793 0.875303
Si Si4 0.827519 0.891058 0.808621
Si Si5 0.387868 0.921816 0.134814
Si Si6 0.889683 0.912251 0.636603
O O1 0.960800 0.773861 0.481237
O O2 0.968681 0.591668 0.603183
O O3 0.000000 0.500000 0.500000
O O4 0.180763 0.733880 0.652752
O O5 0.812744 0.589799 0.098937
O O6 0.000000 0.755301 0.250000
O O7 0.991593 0.766243 0.121180
O O8 0.808179 0.924157 0.097367
O O9 0.772993 0.355293 0.802201
O O10 0.798869 0.055443 0.827218
O O11 0.995588 0.903741 0.867814
O O12 0.500000 0.921584 0.250000
O O13 0.311415 0.753173 0.101290
O O14 0.000000 0.917563 0.750000
#
# Coordination Sequence:
#
# PCOD9287267 Si02
#       6
#     8   8   8   8   8   8
#     4  11  20  35  57  85 116 149 193 240 289 347
#     4   9  17  31  53  82 105 150 191 231 285 344
#     4  11  21  36  57  87 117 151 196 240 290 346
#     4  10  22  35  57  86 119 152 189 243 292 345
#     4   9  17  31  54  80 107 146 186 231 282 345
#     4   8  16  31  52  78 107 143 190 230 277 339
#
# _framework density 29.551489
#
# number of rings (size 3 to 8) (size 9 to 14) (size 15 to 20)
#    0.000    2.333    1.667    1.500    2.333    0.000 
#    0.000    0.000    0.000   17.000   17.333    0.000 
#    0.000    0.000    0.000    0.000    0.000    0.000 
#
# Total GULP energy -134294.527091 kJ/mol
# GULP energy per Si atom -5595.605295 kJ/mol
# Density = 2.948423 g / cm^3
# Si number density = 29.551489 Si / 1000 Ang^3
#
#
#
# Elastic Constant Matrix: (Units=GPa)
#
#
# Indices 1 2 3 4 5 6 
#
# 1 91.1312 16.9314 26.8635 0.0000 -26.1164 0.0000
# 2 16.9314 307.0336 16.5777 0.0000 -3.2705 0.0000
# 3 26.8635 16.5777 220.9742 0.0000 -39.6763 0.0000
# 4 0.0000 0.0000 0.0000 24.8934 0.0000 -17.0172
# 5 -26.1164 -3.2705 -39.6763 0.0000 46.5805 0.0000
# 6 0.0000 0.0000 0.0000 -17.0172 0.0000 29.0623
#
#
#
# Elastic Compliance Matrix: (Units=1/GPa)
#
#
# Indices 1 2 3 4 5 6 
#
# 1 0.013217 -0.000638 -0.000279 0.000000 0.007128 0.000000
# 2 -0.000638 0.003301 -0.000227 0.000000 -0.000320 0.000000
# 3 -0.000279 -0.000227 0.005366 0.000000 0.004398 0.000000
# 4 0.000000 0.000000 0.000000 0.066983 0.000000 0.039222
# 5 0.007128 -0.000320 0.004398 0.000000 0.029188 0.000000
# 6 0.000000 0.000000 0.000000 0.039222 0.000000 0.057375
#
#
# Mechanical properties :
#
#
# Convention : Reuss Voigt Hill
#
# Bulk Modulus (GPa) = 51.03353 82.20935 66.62144
# Shear Modulus (GPa) = 27.13694 57.35834 42.24764
#
# Velocity S-wave (km/s) = 3.03362 4.41042 3.78514
# Velocity P-wave (km/s) = 5.43851 7.33588 6.45726
#
# Compressibility (1/GPa) = 0.01959496
#
# Stress axis : x y z
#
# Youngs Moduli (GPa) = 75.66227 302.93621 186.35384
#
# Poissons Ratio (x) = 0.19323 0.05201
# Poissons Ratio (y) = 0.04826 0.04239
# Poissons Ratio (z) = 0.02112 0.06892
#
# Static dielectric constant tensor:
#      x y z
#    x 2.380720 0.000000 -0.087270 
#    y 0.000000 2.435190 0.000000 
#    z -0.087270 0.000000 2.145230 
# 
# From -- ./inp_files/252029.got.cif
#   From: 2010.05.17/outbox.cif.g08.bks.cpg/sg15_127_cif.got.tgz:252029.got - 2010.06.03 18:47:42.
