data_PCOD9287473
_publ_section_title
;
Structure prediction by ZEFSAII (Michael W. Deem and Ramdas Pophale) SiO2 
 PCOD9287473
Probable space group: C 2/C
;
_chemical_formula_sum "Si O2"
_cell_formula_units_Z 52
_cell_length_a 26.915926
_cell_length_b 12.205364
_cell_length_c 8.689618
_cell_angle_alpha 90.000000
_cell_angle_beta 120.114914
_cell_angle_gamma 90.000000
_cell_volume 2469.376561
_symmetry_space_group_name_H-M "C 2/C"
_symmetry_group_IT_number 15
_symmetry_cell_setting 'monoclinic'
loop_
_space_group_symop_operation_xyz
x,y,z
-x,y,1/2-z
-x,-y,-z
x,-y,1/2+z
1/2+x,1/2+y,z
1/2-x,1/2+y,1/2-z
1/2-x,1/2-y,-z
1/2+x,1/2-y,1/2+z
loop_
_atom_site_type_symbol
_atom_site_label
_atom_site_fract_x
_atom_site_fract_y
_atom_site_fract_z
Si Si1 0.822187 0.860750 0.682220
Si Si2 0.074292 0.211040 0.613643
Si Si3 0.685959 0.118401 0.929096
Si Si4 0.125880 0.572499 0.155873
Si Si5 0.500000 0.000000 0.000000
Si Si6 0.000000 0.097660 0.750000
Si Si7 0.118233 0.019193 0.511213
Si Si8 0.500000 0.176676 0.750000
O O1 0.754499 0.880641 0.555994
O O2 0.831539 0.730646 0.683605
O O3 0.844942 0.916357 0.873208
O O4 0.855706 0.920581 0.595438
O O5 0.106851 0.319419 0.722364
O O6 0.045927 0.246726 0.407504
O O7 0.024658 0.173342 0.652102
O O8 0.115371 0.109915 0.642038
O O9 0.665630 0.011854 0.806048
O O10 0.656693 0.113548 0.050547
O O11 0.064493 0.516435 0.026519
O O12 0.523361 0.901012 0.150243
O O13 0.946603 0.023393 0.614888
#
# Coordination Sequence:
#
# PCOD9287473 Si02
#       8
#     8   8   8   8   4   4   8   4
#     4  11  26  46  74  98 138 183 248 287 354 409
#     4  11  24  41  65 101 141 185 222 288 351 422
#     4  11  25  47  70 101 135 192 230 300 346 414
#     4  11  23  42  67  98 143 175 233 279 359 412
#     4  10  22  36  64 100 130 190 210 274 342 422
#     4  12  27  41  70 108 144 185 233 278 374 418
#     4  12  24  46  69 103 137 185 231 295 343 430
#     4  10  23  39  62  94 150 177 227 268 336 420
#
# _framework density 21.057946999999999
#
# number of rings (size 3 to 8) (size 9 to 14) (size 15 to 20)
#    0.000    0.923    3.077    3.692    2.154    7.385 
#    0.000    0.769    0.000    0.000    0.000    0.000 
#    0.000    0.000    0.000    0.000    0.000    0.000 
#
# Total GULP energy -144823.270124 kJ/mol
# GULP energy per Si atom -5570.125774 kJ/mol
# Density = 2.101002 g / cm^3
# Si number density = 21.057947 Si / 1000 Ang^3
#
#
#
# Elastic Constant Matrix: (Units=GPa)
#
#
# Indices 1 2 3 4 5 6 
#
# 1 85.5657 39.7562 0.4706 0.0000 1.9170 0.0000
# 2 39.7562 133.1271 38.5299 0.0000 13.3036 0.0000
# 3 0.4706 38.5299 34.4646 0.0000 15.5923 0.0000
# 4 0.0000 0.0000 0.0000 49.5405 0.0000 0.0994
# 5 1.9170 13.3036 15.5923 0.0000 28.3115 0.0000
# 6 0.0000 0.0000 0.0000 0.0994 0.0000 35.8233
#
#
#
# Elastic Compliance Matrix: (Units=1/GPa)
#
#
# Indices 1 2 3 4 5 6 
#
# 1 0.014730 -0.006529 0.008206 0.000000 -0.002449 0.000000
# 2 -0.006529 0.014099 -0.017148 0.000000 0.003261 0.000000
# 3 0.008206 -0.017148 0.059506 0.000000 -0.025270 0.000000
# 4 0.000000 0.000000 0.000000 0.020186 0.000000 -0.000056
# 5 -0.002449 0.003261 -0.025270 0.000000 0.047872 0.000000
# 6 0.000000 0.000000 0.000000 -0.000056 0.000000 0.027915
#
#
# Mechanical properties :
#
#
# Convention : Reuss Voigt Hill
#
# Bulk Modulus (GPa) = 17.42362 45.63009 31.52686
# Shear Modulus (GPa) = 21.33283 34.36178 27.84731
#
# Velocity S-wave (km/s) = 3.18630 4.04390 3.64045
# Velocity P-wave (km/s) = 4.67213 6.59697 5.71616
#
# Compressibility (1/GPa) = 0.05739335
#
# Stress axis : x y z
#
# Youngs Moduli (GPa) = 67.88700 70.92938 16.80497
#
# Poissons Ratio (x) = 0.46312 -0.13790
# Poissons Ratio (y) = 0.44326 0.28817
# Poissons Ratio (z) = -0.55709 1.21628
#
# Static dielectric constant tensor:
#      x y z
#    x 1.710170 0.000000 0.004610 
#    y 0.000000 1.794530 0.000000 
#    z 0.004610 0.000000 1.787930 
# 
# From -- ./inp_files/65632.got.cif
#   From: 2010.05.17/outbox.cif.g08.bks.cpg/sg15_33_cif.got.tgz:65632.got - 2010.06.03 18:47:42.
