data_PCOD9287635
_publ_section_title
;
Structure prediction by ZEFSAII (Michael W. Deem and Ramdas Pophale) SiO2 
 PCOD9287635
Probable space group: C 2/C
;
_chemical_formula_sum "Si O2"
_cell_formula_units_Z 56
_cell_length_a 17.708295
_cell_length_b 16.031381
_cell_length_c 23.920320
_cell_angle_alpha 90.000000
_cell_angle_beta 160.591426
_cell_angle_gamma 90.000000
_cell_volume 2256.565714
_symmetry_space_group_name_H-M "C 2/C"
_symmetry_group_IT_number 15
_symmetry_cell_setting 'monoclinic'
loop_
_space_group_symop_operation_xyz
x,y,z
-x,y,1/2-z
-x,-y,-z
x,-y,1/2+z
1/2+x,1/2+y,z
1/2-x,1/2+y,1/2-z
1/2-x,1/2-y,-z
1/2+x,1/2-y,1/2+z
loop_
_atom_site_type_symbol
_atom_site_label
_atom_site_fract_x
_atom_site_fract_y
_atom_site_fract_z
Si Si1 0.503326 0.102668 0.103837
Si Si2 0.000000 0.563726 0.750000
Si Si3 0.882073 0.141368 0.291862
Si Si4 0.551326 0.703871 0.665859
Si Si5 0.934272 0.267877 0.999495
Si Si6 0.214867 0.654738 0.995117
Si Si7 0.282210 0.909299 0.628126
Si Si8 0.000000 0.880787 0.250000
O O1 0.674851 0.087882 0.171871
O O2 0.479798 0.202635 0.098797
O O3 0.642433 0.076051 0.255982
O O4 0.244258 0.071375 0.918289
O O5 0.025479 0.615808 0.823420
O O6 0.212977 0.500460 0.895816
O O7 0.032139 0.178296 0.447761
O O8 0.049117 0.112225 0.359571
O O9 0.753135 0.224523 0.178925
O O10 0.822721 0.705411 0.853702
O O11 0.436512 0.642530 0.540547
O O12 0.488182 0.672471 0.683932
O O13 0.852668 0.335432 0.988407
O O14 0.250000 0.750000 0.000000
O O15 0.500000 0.865281 0.750000
#
# Coordination Sequence:
#
# PCOD9287635 Si02
#       8
#     8   4   8   8   8   8   8   4
#     4  11  22  34  60  96 137 176 226 258 308 382
#     4  10  24  47  66 105 126 172 226 264 336 421
#     4  10  22  37  61 100 132 164 220 280 332 384
#     4  11  22  34  60  96 137 176 226 258 308 382
#     4  10  22  37  61 100 132 164 220 280 332 384
#     4  10  23  40  75  87 124 159 220 285 352 380
#     4  10  23  41  62  92 140 181 216 258 316 380
#     4  12  18  31  52  81 128 172 208 264 294 357
#
# _framework density 24.816471
#
# number of rings (size 3 to 8) (size 9 to 14) (size 15 to 20)
#    0.429    1.143    2.857    1.714   16.000    0.000 
#    0.000    2.857   12.571    1.714    0.000    0.000 
#    0.000    0.000    0.000    0.000    0.000    0.000 
#
# Total GULP energy -156389.007504 kJ/mol
# GULP energy per Si atom -5585.321697 kJ/mol
# Density = 2.475999 g / cm^3
# Si number density = 24.816471 Si / 1000 Ang^3
#
#
#
# Elastic Constant Matrix: (Units=GPa)
#
#
# Indices 1 2 3 4 5 6 
#
# 1 108.4842 -9.7624 18.5777 -0.0003 34.3388 -0.0040
# 2 -9.7624 53.0863 10.5103 0.0577 -10.2497 0.0269
# 3 18.5777 10.5103 126.9570 0.2217 13.5162 0.1195
# 4 -0.0003 0.0577 0.2217 15.9235 0.0379 -12.4043
# 5 34.3388 -10.2497 13.5162 0.0379 53.8280 0.0038
# 6 -0.0040 0.0269 0.1195 -12.4043 0.0038 5.5006
#
#
#
# Elastic Compliance Matrix: (Units=1/GPa)
#
#
# Indices 1 2 3 4 5 6 
#
# 1 0.011708 0.001007 -0.001050 -0.000069 -0.007014 -0.000124
# 2 0.001007 0.020187 -0.002219 0.000121 0.003759 0.000221
# 3 -0.001050 -0.002219 0.008412 0.000315 -0.001865 0.000538
# 4 -0.000069 0.000121 0.000315 -0.082978 0.000060 -0.187131
# 5 -0.007014 0.003759 -0.001865 0.000060 0.024236 0.000135
# 6 -0.000124 0.000221 0.000538 -0.187131 0.000135 -0.240210
#
#
# Mechanical properties :
#
#
# Convention : Reuss Voigt Hill
#
# Bulk Modulus (GPa) = 27.94601 36.35317 32.14959
# Shear Modulus (GPa) = -20.64470 32.99719 6.17625
#
# Velocity S-wave (km/s) = -2.88739 3.65039 1.57930
# Velocity P-wave (km/s) = 0.41172 5.69629 4.03839
#
# Compressibility (1/GPa) = 0.03578328
#
# Stress axis : x y z
#
# Youngs Moduli (GPa) = 85.40870 49.53619 118.88440
#
# Poissons Ratio (x) = -0.04988 0.12479
# Poissons Ratio (y) = -0.08600 0.26382
# Poissons Ratio (z) = 0.08965 0.10993
#
# Static dielectric constant tensor:
#      x y z
#    x 2.049040 -0.000030 0.044250 
#    y -0.000030 1.966470 -0.000070 
#    z 0.044250 -0.000070 1.994960 
# 
# From -- ./inp_files/278075.got.cif
#   From: 2010.05.17/outbox.cif.g08.bks.cpg/sg15_140_cif.got.tgz:278075.got - 2010.06.03 18:47:42.
