data_PCOD9287781
_publ_section_title
;
Structure prediction by ZEFSAII (Michael W. Deem and Ramdas Pophale) SiO2 
 PCOD9287781
Probable space group: C 2/C
;
_chemical_formula_sum "Si O2"
_cell_formula_units_Z 44
_cell_length_a 19.169463
_cell_length_b 18.573492
_cell_length_c 5.038978
_cell_angle_alpha 90.000000
_cell_angle_beta 106.176393
_cell_angle_gamma 90.000000
_cell_volume 1723.066313
_symmetry_space_group_name_H-M "C 2/C"
_symmetry_group_IT_number 15
_symmetry_cell_setting 'monoclinic'
loop_
_space_group_symop_operation_xyz
x,y,z
-x,y,1/2-z
-x,-y,-z
x,-y,1/2+z
1/2+x,1/2+y,z
1/2-x,1/2+y,1/2-z
1/2-x,1/2-y,-z
1/2+x,1/2-y,1/2+z
loop_
_atom_site_type_symbol
_atom_site_label
_atom_site_fract_x
_atom_site_fract_y
_atom_site_fract_z
Si Si1 0.265866 0.827320 0.385207
Si Si2 0.000000 0.386656 0.750000
Si Si3 0.349495 0.952882 0.765780
Si Si4 0.921991 0.028202 0.058905
Si Si5 0.896922 0.178227 0.827094
Si Si6 0.408223 0.774665 0.325492
O O1 0.250000 0.750000 0.500000
O O2 0.300287 0.885830 0.619689
O O3 0.186071 0.846366 0.204225
O O4 0.328173 0.810221 0.239215
O O5 0.065847 0.430793 0.687011
O O6 0.960767 0.335872 0.492289
O O7 0.335914 0.018241 0.545301
O O8 0.000000 0.001585 0.250000
O O9 0.882546 0.022368 0.302494
O O10 0.936214 0.106182 0.953829
O O11 0.907553 0.210074 0.544591
O O12 0.920122 0.240886 0.052297
#
# Coordination Sequence:
#
# PCOD9287781 Si02
#       6
#     8   4   8   8   8   8
#     4   9  22  43  64  93 129 166 211 266 316 372
#     4  10  24  42  64  94 134 168 216 262 318 382
#     4  11  25  43  67  98 133 176 215 266 324 389
#     4  10  22  38  55  79 115 153 192 246 309 367
#     4  11  22  38  62  88 119 158 212 261 314 376
#     4  10  23  37  61  91 121 161 205 261 316 367
#
# _framework density 25.535872999999999
#
# number of rings (size 3 to 8) (size 9 to 14) (size 15 to 20)
#    0.000    1.818    0.000    2.182    2.545   14.545 
#    0.000    0.000    0.000    0.000    0.000    0.000 
#    0.000    0.000    0.000    0.000    0.000    0.000 
#
# Total GULP energy -123154.456759 kJ/mol
# GULP energy per Si atom -5597.929853 kJ/mol
# Density = 2.547775 g / cm^3
# Si number density = 25.535873 Si / 1000 Ang^3
#
#
#
# Elastic Constant Matrix: (Units=GPa)
#
#
# Indices 1 2 3 4 5 6 
#
# 1 47.8121 23.0246 23.0409 0.0000 14.9457 0.0000
# 2 23.0246 102.6748 15.2541 0.0000 6.1868 0.0000
# 3 23.0409 15.2541 92.0762 0.0000 -13.9766 0.0000
# 4 0.0000 0.0000 0.0000 -11.6390 0.0000 -57.6276
# 5 14.9457 6.1868 -13.9766 0.0000 34.3704 0.0000
# 6 0.0000 0.0000 0.0000 -57.6276 0.0000 -33.2520
#
#
#
# Elastic Compliance Matrix: (Units=1/GPa)
#
#
# Indices 1 2 3 4 5 6 
#
# 1 0.034017 -0.004984 -0.010440 0.000000 -0.018141 0.000000
# 2 -0.004984 0.010944 -0.000571 0.000000 -0.000035 0.000000
# 3 -0.010440 -0.000571 0.015211 0.000000 0.010828 0.000000
# 4 0.000000 0.000000 0.000000 0.011334 0.000000 -0.019642
# 5 -0.018141 -0.000035 0.010828 0.000000 0.041393 0.000000
# 6 0.000000 0.000000 0.000000 -0.019642 0.000000 0.003967
#
#
# Mechanical properties :
#
#
# Convention : Reuss Voigt Hill
#
# Bulk Modulus (GPa) = 35.48419 40.57804 38.03111
# Shear Modulus (GPa) = 31.59533 9.97877 20.78705
#
# Velocity S-wave (km/s) = 3.52133 1.97895 2.85622
# Velocity P-wave (km/s) = 5.51897 4.59856 5.07965
#
# Compressibility (1/GPa) = 0.02818157
#
# Stress axis : x y z
#
# Youngs Moduli (GPa) = 29.39690 91.37316 65.74002
#
# Poissons Ratio (x) = 0.45542 0.68634
# Poissons Ratio (y) = 0.14652 0.03755
# Poissons Ratio (z) = 0.30691 0.05219
#
# Static dielectric constant tensor:
#      x y z
#    x 2.441080 0.000000 -0.182960 
#    y 0.000000 2.002190 0.000000 
#    z -0.182960 0.000000 2.118700 
# 
# From -- ./inp_files/12973.got.cif
#   From: 2010.05.17/outbox.cif.g08.bks.cpg/sg15_7_cif.got.tgz:12973.got - 2010.06.03 18:47:42.
