data_PCOD9287244
_publ_section_title
;
Structure prediction by ZEFSAII (Michael W. Deem and Ramdas Pophale) SiO2 
 PCOD9287244
Probable space group: C 2/C
;
_chemical_formula_sum "Si O2"
_cell_formula_units_Z 56
_cell_length_a 12.690170
_cell_length_b 25.965158
_cell_length_c 8.600540
_cell_angle_alpha 90.000000
_cell_angle_beta 57.683727
_cell_angle_gamma 90.000000
_cell_volume 2394.955166
_symmetry_space_group_name_H-M "C 2/C"
_symmetry_group_IT_number 15
_symmetry_cell_setting 'monoclinic'
loop_
_space_group_symop_operation_xyz
x,y,z
-x,y,1/2-z
-x,-y,-z
x,-y,1/2+z
1/2+x,1/2+y,z
1/2-x,1/2+y,1/2-z
1/2-x,1/2-y,-z
1/2+x,1/2-y,1/2+z
loop_
_atom_site_type_symbol
_atom_site_label
_atom_site_fract_x
_atom_site_fract_y
_atom_site_fract_z
Si Si1 0.680017 0.942256 0.817648
Si Si2 0.682711 0.540653 0.856978
Si Si3 0.155902 0.689513 0.902316
Si Si4 0.000000 0.620103 0.250000
Si Si5 0.886026 0.799974 0.439269
Si Si6 0.500000 0.485600 0.250000
Si Si7 0.605632 0.628582 0.294321
Si Si8 0.184245 0.369253 0.078513
O O1 0.608248 0.916550 0.731907
O O2 0.824755 0.923892 0.712855
O O3 0.701242 0.002965 0.780731
O O4 0.620410 0.913666 0.017852
O O5 0.592096 0.546678 0.783941
O O6 0.735313 0.594144 0.873014
O O7 0.594899 0.517273 0.062994
O O8 0.281546 0.678067 0.904474
O O9 0.136034 0.672256 0.738953
O O10 0.050667 0.657593 0.076641
O O11 0.154361 0.750981 0.926295
O O12 0.932695 0.842786 0.521607
O O13 0.000000 0.779853 0.250000
O O14 0.500000 0.623557 0.250000
O O15 0.277158 0.657202 0.381419
#
# Coordination Sequence:
#
# PCOD9287244 Si02
#       8
#     8   8   8   4   8   4   8   8
#     4  10  25  44  64  98 137 183 233 278 335 412
#     4  11  22  42  64 104 137 185 222 284 344 408
#     4  11  24  45  73 100 139 181 233 288 347 415
#     4  12  24  50  70  97 138 192 237 290 332 416
#     4  11  23  45  72 106 136 178 231 288 360 413
#     4  10  22  34  68  95 140 182 213 286 346 402
#     4  10  22  43  64 102 143 170 225 288 344 415
#     4  10  24  43  65 101 138 178 231 279 345 408
#
# _framework density 23.382484999999999
#
# number of rings (size 3 to 8) (size 9 to 14) (size 15 to 20)
#    0.857    0.571    3.571    0.857    8.000    1.143 
#    5.143    2.857    0.000    0.000    0.000    0.000 
#    0.000    0.000    0.000    0.000    0.000    0.000 
#
# Total GULP energy -156133.598670 kJ/mol
# GULP energy per Si atom -5576.199953 kJ/mol
# Density = 2.332927 g / cm^3
# Si number density = 23.382485 Si / 1000 Ang^3
#
#
#
# Elastic Constant Matrix: (Units=GPa)
#
#
# Indices 1 2 3 4 5 6 
#
# 1 64.1435 15.2303 -7.1895 0.0000 15.6885 0.0000
# 2 15.2303 52.6338 18.5876 0.0000 11.2228 0.0000
# 3 -7.1895 18.5876 84.6028 0.0000 9.6551 0.0000
# 4 0.0000 0.0000 0.0000 33.3226 0.0000 2.2883
# 5 15.6885 11.2228 9.6551 0.0000 30.3799 0.0000
# 6 0.0000 0.0000 0.0000 2.2883 0.0000 15.4443
#
#
#
# Elastic Compliance Matrix: (Units=1/GPa)
#
#
# Indices 1 2 3 4 5 6 
#
# 1 0.019516 -0.004985 0.003833 0.000000 -0.009455 0.000000
# 2 -0.004985 0.023145 -0.005008 0.000000 -0.004384 0.000000
# 3 0.003833 -0.005008 0.013760 0.000000 -0.004502 0.000000
# 4 0.000000 0.000000 0.000000 0.030318 0.000000 -0.004492
# 5 -0.009455 -0.004384 -0.004502 0.000000 0.040849 0.000000
# 6 0.000000 0.000000 0.000000 -0.004492 0.000000 0.065414
#
#
# Mechanical properties :
#
#
# Convention : Reuss Voigt Hill
#
# Bulk Modulus (GPa) = 22.67586 28.29300 25.48443
# Shear Modulus (GPa) = 22.72489 27.47948 25.10219
#
# Velocity S-wave (km/s) = 3.12088 3.43186 3.28006
# Velocity P-wave (km/s) = 4.76501 5.27541 5.02669
#
# Compressibility (1/GPa) = 0.04409976
#
# Stress axis : x y z
#
# Youngs Moduli (GPa) = 51.24098 43.20574 72.67564
#
# Poissons Ratio (x) = 0.21536 -0.27853
# Poissons Ratio (y) = 0.25542 0.36398
# Poissons Ratio (z) = -0.19638 0.21639
#
# Static dielectric constant tensor:
#      x y z
#    x 1.911690 0.000000 -0.053840 
#    y 0.000000 1.855930 0.000000 
#    z -0.053840 0.000000 1.986660 
# 
# From -- ./inp_files/34242.got.cif
#   From: 2010.05.17/outbox.cif.g08.bks.cpg/sg15_18_cif.got.tgz:34242.got - 2010.06.03 18:47:42.
