data_PCOD9287459
_publ_section_title
;
Structure prediction by ZEFSAII (Michael W. Deem and Ramdas Pophale) SiO2 
 PCOD9287459
Probable space group: C 2/C
;
_chemical_formula_sum "Si O2"
_cell_formula_units_Z 60
_cell_length_a 22.846250
_cell_length_b 11.566673
_cell_length_c 10.796143
_cell_angle_alpha 90.000000
_cell_angle_beta 119.513338
_cell_angle_gamma 90.000000
_cell_volume 2482.741888
_symmetry_space_group_name_H-M "C 2/C"
_symmetry_group_IT_number 15
_symmetry_cell_setting 'monoclinic'
loop_
_space_group_symop_operation_xyz
x,y,z
-x,y,1/2-z
-x,-y,-z
x,-y,1/2+z
1/2+x,1/2+y,z
1/2-x,1/2+y,1/2-z
1/2-x,1/2-y,-z
1/2+x,1/2-y,1/2+z
loop_
_atom_site_type_symbol
_atom_site_label
_atom_site_fract_x
_atom_site_fract_y
_atom_site_fract_z
Si Si1 0.634301 0.739734 0.852646
Si Si2 0.000000 0.500000 0.500000
Si Si3 0.870612 0.348004 0.301014
Si Si4 0.397305 0.150371 0.546116
Si Si5 0.724917 0.961660 0.702920
Si Si6 0.742462 0.087192 0.493464
Si Si7 0.408595 0.617978 0.440542
Si Si8 0.934693 0.857832 0.452180
O O1 0.664513 0.866801 0.914473
O O2 0.586155 0.722237 0.686415
O O3 0.704518 0.677221 0.896212
O O4 0.600079 0.671647 0.930754
O O5 0.937511 0.403423 0.431150
O O6 0.959184 0.573736 0.563590
O O7 0.807670 0.414435 0.294199
O O8 0.867289 0.210968 0.317794
O O9 0.875343 0.376309 0.161503
O O10 0.417330 0.283987 0.554493
O O11 0.336387 0.124902 0.387974
O O12 0.754357 0.979739 0.596926
O O13 0.760561 0.926580 0.867301
O O14 0.485920 0.626424 0.477413
O O15 0.396511 0.480794 0.414590
#
# Coordination Sequence:
#
# PCOD9287459 Si02
#       8
#     8   4   8   8   8   8   8   8
#     4  11  25  46  67  96 130 182 228 276 334 409
#     4  10  22  36  62  94 134 178 220 268 336 390
#     4  11  22  40  64  99 138 176 222 275 340 402
#     4  11  22  40  64  99 138 176 222 275 340 402
#     4  11  22  43  68 102 133 174 213 288 344 408
#     4  11  24  44  73  98 139 171 230 283 346 410
#     4  11  25  44  66  95 135 182 227 274 327 400
#     4  11  25  44  66  95 135 182 227 274 327 400
#
# _framework density 24.166827999999999
#
# number of rings (size 3 to 8) (size 9 to 14) (size 15 to 20)
#    0.000    1.067    5.333    0.800    3.733    0.000 
#    2.400    0.000    0.000    4.800    0.000    0.000 
#    0.000    0.000    0.000    0.000    0.000    0.000 
#
# Total GULP energy -167075.721162 kJ/mol
# GULP energy per Si atom -5569.190705 kJ/mol
# Density = 2.411182 g / cm^3
# Si number density = 24.166828 Si / 1000 Ang^3
#
#
#
# Elastic Constant Matrix: (Units=GPa)
#
#
# Indices 1 2 3 4 5 6 
#
# 1 31.7212 7.6347 -0.5046 0.0000 -8.6606 0.0000
# 2 7.6347 114.1320 24.0609 0.0000 -9.4897 0.0000
# 3 -0.5046 24.0609 75.5588 0.0000 -15.5576 0.0000
# 4 0.0000 0.0000 0.0000 25.0495 0.0000 -1.8439
# 5 -8.6606 -9.4897 -15.5576 0.0000 29.0761 0.0000
# 6 0.0000 0.0000 0.0000 -1.8439 0.0000 27.5893
#
#
#
# Elastic Compliance Matrix: (Units=1/GPa)
#
#
# Indices 1 2 3 4 5 6 
#
# 1 0.035238 -0.002087 0.003282 0.000000 0.011571 0.000000
# 2 -0.002087 0.009587 -0.002866 0.000000 0.000974 0.000000
# 3 0.003282 -0.002866 0.015933 0.000000 0.008568 0.000000
# 4 0.000000 0.000000 0.000000 0.040118 0.000000 0.002681
# 5 0.011571 0.000974 0.008568 0.000000 0.042741 0.000000
# 6 0.000000 0.000000 0.000000 0.002681 0.000000 0.036425
#
#
# Mechanical properties :
#
#
# Convention : Reuss Voigt Hill
#
# Bulk Modulus (GPa) = 17.41653 31.53267 24.47460
# Shear Modulus (GPa) = 24.68848 29.02439 26.85643
#
# Velocity S-wave (km/s) = 3.19969 3.46931 3.33722
# Velocity P-wave (km/s) = 4.56871 5.39670 4.99987
#
# Compressibility (1/GPa) = 0.05741672
#
# Stress axis : x y z
#
# Youngs Moduli (GPa) = 28.37815 104.31234 62.76099
#
# Poissons Ratio (x) = 0.21771 -0.20601
# Poissons Ratio (y) = 0.05923 0.17989
# Poissons Ratio (z) = -0.09315 0.29898
#
# Static dielectric constant tensor:
#      x y z
#    x 1.918250 0.000000 0.015360 
#    y 0.000000 2.002270 0.000000 
#    z 0.015360 0.000000 1.930890 
# 
# From -- ./inp_files/61960.got.cif
#   From: 2010.05.17/outbox.cif.g08.bks.cpg/sg15_31_cif.got.tgz:61960.got - 2010.06.03 18:47:42.
