data_PCOD9287036
_publ_section_title
;
Structure prediction by ZEFSAII (Michael W. Deem and Ramdas Pophale) SiO2 
 PCOD9287036
Probable space group: C 2/C
;
_chemical_formula_sum "Si O2"
_cell_formula_units_Z 40
_cell_length_a 13.889679
_cell_length_b 7.614437
_cell_length_c 14.978538
_cell_angle_alpha 90.000000
_cell_angle_beta 92.535713
_cell_angle_gamma 90.000000
_cell_volume 1582.610271
_symmetry_space_group_name_H-M "C 2/C"
_symmetry_group_IT_number 15
_symmetry_cell_setting 'monoclinic'
loop_
_space_group_symop_operation_xyz
x,y,z
-x,y,1/2-z
-x,-y,-z
x,-y,1/2+z
1/2+x,1/2+y,z
1/2-x,1/2+y,1/2-z
1/2-x,1/2-y,-z
1/2+x,1/2-y,1/2+z
loop_
_atom_site_type_symbol
_atom_site_label
_atom_site_fract_x
_atom_site_fract_y
_atom_site_fract_z
Si Si1 0.726947 0.182376 0.399345
Si Si2 0.701757 0.284276 0.093795
Si Si3 0.495418 0.668967 0.125857
Si Si4 0.526308 0.280920 0.431868
Si Si5 0.839186 0.224639 0.242834
O O1 0.750000 0.250000 0.500000
O O2 0.611499 0.183443 0.384721
O O3 0.768395 0.986919 0.388085
O O4 0.721351 0.796559 0.175589
O O5 0.586935 0.254162 0.091255
O O6 0.753831 0.173327 0.172824
O O7 0.750000 0.250000 0.000000
O O8 0.450950 0.486694 0.088147
O O9 0.417107 0.790242 0.171654
O O10 0.579881 0.618312 0.197884
O O11 0.536398 0.755671 0.038118
#
# Coordination Sequence:
#
# PCOD9287036 Si02
#       5
#     8   8   8   8   8
#     4  12  26  45  76 112 146 200 258 314 382 465
#     4  12  27  47  71 113 154 194 247 327 386 450
#     4  10  21  45  75 101 138 200 250 297 382 458
#     4  11  22  46  77 103 140 201 252 298 381 467
#     4  11  24  41  72 107 146 190 249 315 381 446
#
# _framework density 25.274699999999999
#
# number of rings (size 3 to 8) (size 9 to 14) (size 15 to 20)
#    0.000    0.800    6.000    1.200    2.800    1.600 
#    0.000    2.000    0.000    0.000    0.000    0.000 
#    0.000    0.000    0.000    0.000    0.000    0.000 
#
# Total GULP energy -111377.270828 kJ/mol
# GULP energy per Si atom -5568.863541 kJ/mol
# Density = 2.521717 g / cm^3
# Si number density = 25.274700 Si / 1000 Ang^3
#
#
#
# Elastic Constant Matrix: (Units=GPa)
#
#
# Indices 1 2 3 4 5 6 
#
# 1 260.8637 41.3561 75.0631 0.0000 -21.2428 0.0000
# 2 41.3561 84.0234 17.1762 0.0000 -7.8078 0.0000
# 3 75.0631 17.1762 154.6770 0.0000 -5.0189 0.0000
# 4 0.0000 0.0000 0.0000 1.4172 0.0000 4.7915
# 5 -21.2428 -7.8078 -5.0189 0.0000 59.6257 0.0000
# 6 0.0000 0.0000 0.0000 4.7915 0.0000 24.3063
#
#
#
# Elastic Compliance Matrix: (Units=1/GPa)
#
#
# Indices 1 2 3 4 5 6 
#
# 1 0.004834 -0.001829 -0.002100 0.000000 0.001306 0.000000
# 2 -0.001829 0.013002 -0.000524 0.000000 0.001007 0.000000
# 3 -0.002100 -0.000524 0.007537 0.000000 -0.000183 0.000000
# 4 0.000000 0.000000 0.000000 2.115584 0.000000 -0.417046
# 5 0.001306 0.001007 -0.000183 0.000000 0.017353 0.000000
# 6 0.000000 0.000000 0.000000 -0.417046 0.000000 0.123354
#
#
# Mechanical properties :
#
#
# Convention : Reuss Voigt Hill
#
# Bulk Modulus (GPa) = 60.72684 85.19500 72.96092
# Shear Modulus (GPa) = 2.17764 41.46775 21.82270
#
# Velocity S-wave (km/s) = 0.92923 4.05493 2.94159
# Velocity P-wave (km/s) = 5.02296 7.46351 6.36138
#
# Compressibility (1/GPa) = 0.01646718
#
# Stress axis : x y z
#
# Youngs Moduli (GPa) = 206.86476 76.91062 132.68461
#
# Poissons Ratio (x) = 0.14064 0.27870
# Poissons Ratio (y) = 0.37827 0.06950
# Poissons Ratio (z) = 0.43452 0.04028
#
# Static dielectric constant tensor:
#      x y z
#    x 2.023440 0.000000 -0.007580 
#    y 0.000000 2.042590 0.000000 
#    z -0.007580 0.000000 2.056220 
# 
# From -- ./inp_files/202312.got.cif
#   From: 2010.05.17/outbox.cif.g08.bks.cpg/sg15_102_cif.got.tgz:202312.got - 2010.06.03 18:47:42.
