data_PCOD9287840
_publ_section_title
;
Structure prediction by ZEFSAII (Michael W. Deem and Ramdas Pophale) SiO2 
 PCOD9287840
Probable space group: C 2/C
;
_chemical_formula_sum "Si O2"
_cell_formula_units_Z 56
_cell_length_a 15.436689
_cell_length_b 20.212543
_cell_length_c 8.239819
_cell_angle_alpha 90.000000
_cell_angle_beta 90.686894
_cell_angle_gamma 90.000000
_cell_volume 2570.760231
_symmetry_space_group_name_H-M "C 2/C"
_symmetry_group_IT_number 15
_symmetry_cell_setting 'monoclinic'
loop_
_space_group_symop_operation_xyz
x,y,z
-x,y,1/2-z
-x,-y,-z
x,-y,1/2+z
1/2+x,1/2+y,z
1/2-x,1/2+y,1/2-z
1/2-x,1/2-y,-z
1/2+x,1/2-y,1/2+z
loop_
_atom_site_type_symbol
_atom_site_label
_atom_site_fract_x
_atom_site_fract_y
_atom_site_fract_z
Si Si1 0.677371 0.694013 0.967445
Si Si2 0.908160 0.286363 0.769616
Si Si3 0.052580 0.688577 0.894775
Si Si4 0.741459 0.128142 0.844290
Si Si5 0.436539 0.938604 0.503680
Si Si6 0.686711 0.006901 0.251447
Si Si7 0.275188 0.361322 0.700193
O O1 0.600996 0.733059 0.873163
O O2 0.713062 0.645960 0.825150
O O3 0.750000 0.750000 0.000000
O O4 0.666383 0.662081 0.145757
O O5 0.818647 0.326316 0.769367
O O6 0.000000 0.323599 0.750000
O O7 0.921888 0.265265 0.955231
O O8 0.145442 0.660343 0.840871
O O9 0.000000 0.722177 0.750000
O O10 0.989359 0.625991 0.944919
O O11 0.726293 0.049906 0.865534
O O12 0.789928 0.152876 0.009210
O O13 0.358452 0.960013 0.382931
O O14 0.500000 0.000000 0.500000
O O15 0.389958 0.947645 0.675569
O O16 0.759414 0.060306 0.213701
#
# Coordination Sequence:
#
# PCOD9287840 Si02
#       7
#     8   8   8   8   8   8   8
#     4  10  24  42  61  80 114 163 210 264 297 348
#     4  10  22  40  57  82 109 154 211 255 296 349
#     4  11  21  32  50  83 119 164 196 241 284 349
#     4  11  22  37  55  85 121 159 210 235 296 359
#     4  12  19  29  44  77 122 167 200 224 277 339
#     4  12  20  33  52  82 126 164 199 235 283 372
#     4  10  22  38  58  86 122 165 193 244 300 352
#
# _framework density 21.783438
#
# number of rings (size 3 to 8) (size 9 to 14) (size 15 to 20)
#    0.000    1.143    4.286    3.000    4.000    5.143 
#    0.000    0.000    0.000    0.000    0.000    1.000 
#    0.000    0.000    0.000    0.000    0.000    0.000 
#
# Total GULP energy -155884.159707 kJ/mol
# GULP energy per Si atom -5567.291418 kJ/mol
# Density = 2.173386 g / cm^3
# Si number density = 21.783438 Si / 1000 Ang^3
#
#
#
# Elastic Constant Matrix: (Units=GPa)
#
#
# Indices 1 2 3 4 5 6 
#
# 1 30.6412 25.5172 26.8705 0.0000 8.6251 0.0000
# 2 25.5172 42.4365 38.4925 0.0000 15.1005 0.0000
# 3 26.8705 38.4925 144.4011 0.0000 42.5697 0.0000
# 4 0.0000 0.0000 0.0000 28.3517 0.0000 0.9300
# 5 8.6251 15.1005 42.5697 0.0000 25.4342 0.0000
# 6 0.0000 0.0000 0.0000 0.9300 0.0000 26.4820
#
#
#
# Elastic Compliance Matrix: (Units=1/GPa)
#
#
# Indices 1 2 3 4 5 6 
#
# 1 0.066645 -0.038915 -0.004297 0.000000 0.007695 0.000000
# 2 -0.038915 0.054895 -0.003305 0.000000 -0.013864 0.000000
# 3 -0.004297 -0.003305 0.014998 0.000000 -0.021683 0.000000
# 4 0.000000 0.000000 0.000000 0.035312 0.000000 -0.001240
# 5 0.007695 -0.013864 -0.021683 0.000000 0.081230 0.000000
# 6 0.000000 0.000000 0.000000 -0.001240 0.000000 0.037805
#
#
# Mechanical properties :
#
#
# Convention : Reuss Voigt Hill
#
# Bulk Modulus (GPa) = 22.98549 44.35991 33.67270
# Shear Modulus (GPa) = 12.54962 24.49348 18.52155
#
# Velocity S-wave (km/s) = 2.40283 3.35686 2.91908
# Velocity P-wave (km/s) = 4.27467 5.95256 5.18198
#
# Compressibility (1/GPa) = 0.04350571
#
# Stress axis : x y z
#
# Youngs Moduli (GPa) = 15.00492 18.21659 66.67652
#
# Poissons Ratio (x) = 0.70889 0.28649
# Poissons Ratio (y) = 0.58391 0.22034
# Poissons Ratio (z) = 0.06447 0.06020
#
# Static dielectric constant tensor:
#      x y z
#    x 1.830710 0.000000 -0.045580 
#    y 0.000000 1.848670 0.000000 
#    z -0.045580 0.000000 2.095980 
# 
# From -- ./inp_files/49793.got.cif
#   From: 2010.05.17/outbox.cif.g08.bks.cpg/sg15_25_cif.got.tgz:49793.got - 2010.06.03 18:47:42.
