data_PCOD9287445
_publ_section_title
;
Structure prediction by ZEFSAII (Michael W. Deem and Ramdas Pophale) SiO2 
 PCOD9287445
Probable space group: C 2/C
;
_chemical_formula_sum "Si O2"
_cell_formula_units_Z 60
_cell_length_a 19.482191
_cell_length_b 12.563941
_cell_length_c 28.777087
_cell_angle_alpha 90.000000
_cell_angle_beta 25.009668
_cell_angle_gamma 90.000000
_cell_volume 2977.939660
_symmetry_space_group_name_H-M "C 2/C"
_symmetry_group_IT_number 15
_symmetry_cell_setting 'monoclinic'
loop_
_space_group_symop_operation_xyz
x,y,z
-x,y,1/2-z
-x,-y,-z
x,-y,1/2+z
1/2+x,1/2+y,z
1/2-x,1/2+y,1/2-z
1/2-x,1/2-y,-z
1/2+x,1/2-y,1/2+z
loop_
_atom_site_type_symbol
_atom_site_label
_atom_site_fract_x
_atom_site_fract_y
_atom_site_fract_z
Si Si1 0.403456 0.274738 0.263924
Si Si2 0.436019 0.329596 0.530847
Si Si3 0.638725 0.144947 0.065647
Si Si4 0.945903 0.533314 0.106429
Si Si5 0.500000 0.609455 0.250000
Si Si6 0.655849 0.143621 0.425787
Si Si7 0.129691 0.007778 0.853064
Si Si8 0.455967 0.524533 0.869970
O O1 0.500000 0.311792 0.250000
O O2 0.219934 0.241915 0.386840
O O3 0.496399 0.169849 0.188938
O O4 0.432780 0.369463 0.208744
O O5 0.554746 0.251065 0.485123
O O6 0.376982 0.422809 0.601424
O O7 0.536870 0.386357 0.427842
O O8 0.552058 0.117786 0.070404
O O9 0.750000 0.250000 0.000000
O O10 0.770618 0.055004 0.994682
O O11 0.854924 0.590887 0.119222
O O12 0.813161 0.481797 0.222253
O O13 0.065263 0.443930 0.012972
O O14 0.335112 0.666023 0.334944
O O15 0.541569 0.539717 0.179193
O O16 0.030519 0.968433 0.868912
#
# Coordination Sequence:
#
# PCOD9287445 Si02
#       8
#     8   8   8   8   4   8   8   8
#     4  11  22  36  65 101 132 160 209 269 335 388
#     4  11  26  43  65  96 133 175 222 267 323 390
#     4  10  22  36  62 100 129 163 208 269 338 381
#     4  11  22  42  67  99 128 170 214 268 335 395
#     4  12  22  44  62  96 128 168 224 266 318 386
#     4  11  26  40  68  94 131 172 218 269 320 396
#     4  11  24  45  65  92 132 175 217 266 325 390
#     4  11  22  39  65  93 132 170 208 269 325 384
#
# _framework density 20.148157000000001
#
# number of rings (size 3 to 8) (size 9 to 14) (size 15 to 20)
#    0.000    1.067    4.667    1.600    9.333    1.067 
#    0.000    2.000    2.933    0.000    0.000    0.000 
#    0.000    0.000    0.000    0.000    0.000    0.000 
#
# Total GULP energy -167493.537989 kJ/mol
# GULP energy per Si atom -5583.117933 kJ/mol
# Density = 2.010230 g / cm^3
# Si number density = 20.148157 Si / 1000 Ang^3
#
#
#
# Elastic Constant Matrix: (Units=GPa)
#
#
# Indices 1 2 3 4 5 6 
#
# 1 97.0550 11.1201 38.1790 -0.0028 -17.7013 0.0002
# 2 11.1201 26.0664 24.5658 -0.0032 -6.9730 -0.0004
# 3 38.1790 24.5658 117.4313 -0.0080 -20.4650 -0.0004
# 4 -0.0028 -0.0032 -0.0080 9.2550 0.0046 -9.5242
# 5 -17.7013 -6.9730 -20.4650 0.0046 43.7415 -0.0003
# 6 0.0002 -0.0004 -0.0004 -9.5242 -0.0003 31.2437
#
#
#
# Elastic Compliance Matrix: (Units=1/GPa)
#
#
# Indices 1 2 3 4 5 6 
#
# 1 0.012296 -0.001418 -0.003128 -0.000002 0.003286 -0.000001
# 2 -0.001418 0.048363 -0.009159 0.000011 0.002850 0.000004
# 3 -0.003128 -0.009159 0.011948 0.000007 0.002864 0.000002
# 4 -0.000002 0.000011 0.000007 0.157439 -0.000012 0.047993
# 5 0.003286 0.002850 0.002864 -0.000012 0.025986 -0.000003
# 6 -0.000001 0.000004 0.000002 0.047993 -0.000003 0.046636
#
#
# Mechanical properties :
#
#
# Convention : Reuss Voigt Hill
#
# Bulk Modulus (GPa) = 22.12624 43.14250 32.63437
# Shear Modulus (GPa) = 14.48667 27.96056 21.22362
#
# Velocity S-wave (km/s) = 2.68434 3.72929 3.24910
# Velocity P-wave (km/s) = 4.54017 6.32476 5.50526
#
# Compressibility (1/GPa) = 0.04519522
#
# Stress axis : x y z
#
# Youngs Moduli (GPa) = 81.32829 20.67685 83.69728
#
# Poissons Ratio (x) = 0.02933 0.26182
# Poissons Ratio (y) = 0.11534 0.76662
# Poissons Ratio (z) = 0.25441 0.18939
#
# Static dielectric constant tensor:
#      x y z
#    x 1.726840 0.000000 0.005360 
#    y 0.000000 1.715550 0.000000 
#    z 0.005360 0.000000 1.766250 
# 
# From -- ./inp_files/298942.got.cif
#   From: 2010.05.17/outbox.cif.g08.bks.cpg/sg15_150_cif.got.tgz:298942.got - 2010.06.03 18:47:42.
