data_PCOD9287292
_publ_section_title
;
Structure prediction by ZEFSAII (Michael W. Deem and Ramdas Pophale) SiO2 
 PCOD9287292
Probable space group: C 2/C
;
_chemical_formula_sum "Si O2"
_cell_formula_units_Z 56
_cell_length_a 16.588300
_cell_length_b 22.502459
_cell_length_c 8.936359
_cell_angle_alpha 90.000000
_cell_angle_beta 51.128883
_cell_angle_gamma 90.000000
_cell_volume 2597.074069
_symmetry_space_group_name_H-M "C 2/C"
_symmetry_group_IT_number 15
_symmetry_cell_setting 'monoclinic'
loop_
_space_group_symop_operation_xyz
x,y,z
-x,y,1/2-z
-x,-y,-z
x,-y,1/2+z
1/2+x,1/2+y,z
1/2-x,1/2+y,1/2-z
1/2-x,1/2-y,-z
1/2+x,1/2-y,1/2+z
loop_
_atom_site_type_symbol
_atom_site_label
_atom_site_fract_x
_atom_site_fract_y
_atom_site_fract_z
Si Si1 0.112601 0.729805 0.659699
Si Si2 0.000000 0.904470 0.250000
Si Si3 0.193393 0.027807 0.653339
Si Si4 0.500000 0.206364 0.250000
Si Si5 0.216895 0.814867 0.341638
Si Si6 0.791331 0.644673 0.435871
Si Si7 0.891745 0.811085 0.560333
Si Si8 0.880832 0.933801 0.941724
O O1 0.166319 0.752478 0.445756
O O2 0.179861 0.684072 0.676990
O O3 0.110861 0.789225 0.766743
O O4 0.000000 0.708539 0.750000
O O5 0.095925 0.944390 0.179151
O O6 0.972682 0.862456 0.421997
O O7 0.281393 0.074869 0.498393
O O8 0.194051 0.959753 0.600456
O O9 0.158288 0.030482 0.865848
O O10 0.409591 0.166281 0.281311
O O11 0.436773 0.251760 0.429041
O O12 0.143960 0.867581 0.478440
O O13 0.242378 0.822112 0.138583
O O14 0.714468 0.664439 0.390914
O O15 0.000000 0.938285 0.750000
#
# Coordination Sequence:
#
# PCOD9287292 Si02
#       8
#     8   4   8   4   8   8   8   8
#     4  11  24  38  58  86 128 163 192 232 305 358
#     4   9  20  34  56  94 116 150 191 244 284 354
#     4  10  22  37  59  85 121 145 195 242 302 352
#     4  11  20  34  64  82 114 156 201 242 294 336
#     4  10  24  39  57  88 122 157 197 247 291 358
#     4  10  22  40  60  88 116 154 205 249 288 346
#     4  10  22  35  61  87 120 155 200 243 286 350
#     4  11  22  37  62  85 115 152 193 243 303 355
#
# _framework density 21.562726999999999
#
# number of rings (size 3 to 8) (size 9 to 14) (size 15 to 20)
#    0.000    1.714    2.143    1.286   10.000    2.286 
#    0.000    0.000    1.571    1.714    0.000    0.000 
#    0.000    0.000    0.000    0.000    0.000    0.000 
#
# Total GULP energy -156264.229802 kJ/mol
# GULP energy per Si atom -5580.865350 kJ/mol
# Density = 2.151365 g / cm^3
# Si number density = 21.562727 Si / 1000 Ang^3
#
#
#
# Elastic Constant Matrix: (Units=GPa)
#
#
# Indices 1 2 3 4 5 6 
#
# 1 86.1096 13.8791 11.2846 0.0000 -19.2638 0.0000
# 2 13.8791 25.9723 23.9795 0.0000 -0.8252 0.0000
# 3 11.2846 23.9795 55.1499 0.0000 6.2571 0.0000
# 4 0.0000 0.0000 0.0000 18.8392 0.0000 3.3140
# 5 -19.2638 -0.8252 6.2571 0.0000 36.1399 0.0000
# 6 0.0000 0.0000 0.0000 3.3140 0.0000 17.6748
#
#
#
# Elastic Compliance Matrix: (Units=1/GPa)
#
#
# Indices 1 2 3 4 5 6 
#
# 1 0.014548 -0.006624 -0.000979 0.000000 0.007773 0.000000
# 2 -0.006624 0.068844 -0.028924 0.000000 0.003049 0.000000
# 3 -0.000979 -0.028924 0.031665 0.000000 -0.006664 0.000000
# 4 0.000000 0.000000 0.000000 0.054891 0.000000 -0.010292
# 5 0.007773 0.003049 -0.006664 0.000000 0.033037 0.000000
# 6 0.000000 0.000000 0.000000 -0.010292 0.000000 0.058508
#
#
# Mechanical properties :
#
#
# Convention : Reuss Voigt Hill
#
# Bulk Modulus (GPa) = 23.80738 29.50203 26.65470
# Shear Modulus (GPa) = 14.34525 22.40334 18.37429
#
# Velocity S-wave (km/s) = 2.58210 3.22682 2.92230
# Velocity P-wave (km/s) = 4.46706 5.25308 4.87593
#
# Compressibility (1/GPa) = 0.04200378
#
# Stress axis : x y z
#
# Youngs Moduli (GPa) = 68.73896 14.52559 31.58030
#
# Poissons Ratio (x) = 0.09621 0.03090
# Poissons Ratio (y) = 0.45530 0.91344
# Poissons Ratio (z) = 0.06727 0.42014
#
# Static dielectric constant tensor:
#      x y z
#    x 1.821140 0.000000 0.004600 
#    y 0.000000 1.835920 0.000000 
#    z 0.004600 0.000000 1.889920 
# 
# From -- ./inp_files/51485.got.cif
#   From: 2010.05.17/outbox.cif.g08.bks.cpg/sg15_26_cif.got.tgz:51485.got - 2010.06.03 18:47:42.
