data_PCOD9287835
_publ_section_title
;
Structure prediction by ZEFSAII (Michael W. Deem and Ramdas Pophale) SiO2 
 PCOD9287835
Probable space group: C 2/C
;
_chemical_formula_sum "Si O2"
_cell_formula_units_Z 44
_cell_length_a 29.063804
_cell_length_b 8.560600
_cell_length_c 26.459197
_cell_angle_alpha 90.000000
_cell_angle_beta 164.883819
_cell_angle_gamma 90.000000
_cell_volume 1716.733454
_symmetry_space_group_name_H-M "C 2/C"
_symmetry_group_IT_number 15
_symmetry_cell_setting 'monoclinic'
loop_
_space_group_symop_operation_xyz
x,y,z
-x,y,1/2-z
-x,-y,-z
x,-y,1/2+z
1/2+x,1/2+y,z
1/2-x,1/2+y,1/2-z
1/2-x,1/2-y,-z
1/2+x,1/2-y,1/2+z
loop_
_atom_site_type_symbol
_atom_site_label
_atom_site_fract_x
_atom_site_fract_y
_atom_site_fract_z
Si Si1 0.739328 0.418754 0.258501
Si Si2 0.343462 0.083648 0.280503
Si Si3 0.120360 0.001894 0.731001
Si Si4 0.335668 0.407558 0.612499
Si Si5 0.500000 0.863450 0.750000
Si Si6 0.985636 0.693025 0.126036
O O1 0.689456 0.244724 0.223188
O O2 0.734178 0.450714 0.193265
O O3 0.635127 0.535545 0.186626
O O4 0.946239 0.444598 0.488883
O O5 0.353669 0.101310 0.230503
O O6 0.982157 0.144382 0.591897
O O7 0.107836 0.894897 0.767642
O O8 0.310337 0.089855 0.939280
O O9 0.500000 0.442518 0.750000
O O10 0.250000 0.250000 0.500000
O O11 0.174975 0.530536 0.438667
O O12 0.479243 0.768129 0.779133
#
# Coordination Sequence:
#
# PCOD9287835 Si02
#       6
#     8   8   8   8   4   8
#     4   9  18  36  55  81 112 147 182 237 278 338
#     4   9  18  35  56  79 115 144 186 233 283 330
#     4   9  20  35  56  82 110 144 187 232 286 334
#     4  11  23  40  57  79 117 154 189 233 281 343
#     4  10  22  38  58  86 114 146 192 236 284 336
#     4   9  19  34  56  82 112 140 184 237 283 330
#
# _framework density 25.63007
#
# number of rings (size 3 to 8) (size 9 to 14) (size 15 to 20)
#    0.000    2.545    0.909    0.000    3.818    2.182 
#    3.273    1.818    0.000    0.000    0.000    0.000 
#    0.000    0.000    0.000    0.000    0.000    0.000 
#
# Total GULP energy -122714.991354 kJ/mol
# GULP energy per Si atom -5577.954152 kJ/mol
# Density = 2.557173 g / cm^3
# Si number density = 25.630070 Si / 1000 Ang^3
#
#
#
# Elastic Constant Matrix: (Units=GPa)
#
#
# Indices 1 2 3 4 5 6 
#
# 1 218.7540 37.3213 19.7998 -0.0076 29.4366 -0.0028
# 2 37.3213 47.0051 6.6066 -0.0021 13.8263 -0.0019
# 3 19.7998 6.6066 94.2579 0.0141 51.4343 0.0017
# 4 -0.0076 -0.0021 0.0141 27.2186 0.0018 -5.3371
# 5 29.4366 13.8263 51.4343 0.0018 47.2482 -0.0008
# 6 -0.0028 -0.0019 0.0017 -5.3371 -0.0008 41.8774
#
#
#
# Elastic Compliance Matrix: (Units=1/GPa)
#
#
# Indices 1 2 3 4 5 6 
#
# 1 0.005554 -0.003515 0.001002 0.000001 -0.003522 0.000000
# 2 -0.003515 0.026558 0.004736 -0.000001 -0.010737 0.000001
# 3 0.001002 0.004736 0.027498 -0.000012 -0.031944 -0.000003
# 4 0.000001 -0.000001 -0.000012 0.037681 0.000011 0.004802
# 5 -0.003522 -0.010737 -0.031944 0.000011 0.061276 0.000003
# 6 0.000000 0.000001 -0.000003 0.004802 0.000003 0.024491
#
#
# Mechanical properties :
#
#
# Convention : Reuss Voigt Hill
#
# Bulk Modulus (GPa) = 15.61134 54.16361 34.88747
# Shear Modulus (GPa) = 25.00444 43.02147 34.01295
#
# Velocity S-wave (km/s) = 3.12683 4.10146 3.64685
# Velocity P-wave (km/s) = 4.37497 6.60364 5.60127
#
# Compressibility (1/GPa) = 0.06405600
#
# Stress axis : x y z
#
# Youngs Moduli (GPa) = 180.04035 37.65397 36.36614
#
# Poissons Ratio (x) = 0.13234 -0.03643
# Poissons Ratio (y) = 0.63279 -0.17223
# Poissons Ratio (z) = -0.18034 -0.17833
#
# Static dielectric constant tensor:
#      x y z
#    x 2.164980 0.000000 -0.136510 
#    y 0.000000 2.018260 0.000000 
#    z -0.136510 0.000000 2.250910 
# 
# From -- ./inp_files/60311.got.cif
#   From: 2010.05.17/outbox.cif.g08.bks.cpg/sg15_31_cif.got.tgz:60311.got - 2010.06.03 18:47:42.
