data_PCOD9287425
_publ_section_title
;
Structure prediction by ZEFSAII (Michael W. Deem and Ramdas Pophale) SiO2 
 PCOD9287425
Probable space group: C 2/C
;
_chemical_formula_sum "Si O2"
_cell_formula_units_Z 48
_cell_length_a 12.023671
_cell_length_b 21.107763
_cell_length_c 15.521575
_cell_angle_alpha 90.000000
_cell_angle_beta 38.668546
_cell_angle_gamma 90.000000
_cell_volume 2461.307755
_symmetry_space_group_name_H-M "C 2/C"
_symmetry_group_IT_number 15
_symmetry_cell_setting 'monoclinic'
loop_
_space_group_symop_operation_xyz
x,y,z
-x,y,1/2-z
-x,-y,-z
x,-y,1/2+z
1/2+x,1/2+y,z
1/2-x,1/2+y,1/2-z
1/2-x,1/2-y,-z
1/2+x,1/2-y,1/2+z
loop_
_atom_site_type_symbol
_atom_site_label
_atom_site_fract_x
_atom_site_fract_y
_atom_site_fract_z
Si Si1 0.683028 0.461753 0.389935
Si Si2 0.902650 0.656275 0.433235
Si Si3 0.000000 0.241739 0.250000
Si Si4 0.848381 0.902659 0.275639
Si Si5 0.946535 0.793354 0.446385
Si Si6 0.000000 0.448788 0.750000
Si Si7 0.141318 0.824169 0.492164
O O1 0.500000 0.500000 0.500000
O O2 0.710761 0.443073 0.271890
O O3 0.673298 0.398306 0.453736
O O4 0.830628 0.506695 0.342082
O O5 0.809977 0.623546 0.570629
O O6 0.999553 0.720816 0.398492
O O7 0.751068 0.685053 0.460845
O O8 0.002887 0.599670 0.327408
O O9 0.933565 0.197452 0.369711
O O10 0.823646 0.287530 0.351821
O O11 0.000000 0.930379 0.250000
O O12 0.935371 0.839988 0.182002
O O13 0.984288 0.806032 0.522070
#
# Coordination Sequence:
#
# PCOD9287425 Si02
#       7
#     8   8   4   8   8   4   8
#     4  11  24  44  64  88 131 173 207 255 307 377
#     4  10  22  36  60  98 119 156 199 263 313 373
#     4  10  23  42  64  94 121 160 220 260 312 374
#     4   9  19  39  61  89 120 163 204 258 316 366
#     4   9  20  35  65  90 127 146 199 262 330 362
#     4  12  25  40  62  92 131 170 212 248 306 384
#     4  10  22  41  66  90 124 166 207 265 314 367
#
# _framework density 19.501826999999999
#
# number of rings (size 3 to 8) (size 9 to 14) (size 15 to 20)
#    0.000    2.000    0.000    3.500   10.500    2.000 
#    4.500    0.000    0.000    0.000    0.000    0.000 
#    0.000    0.000    0.000    0.000    0.000    0.000 
#
# Total GULP energy -133712.515788 kJ/mol
# GULP energy per Si atom -5571.354825 kJ/mol
# Density = 1.945744 g / cm^3
# Si number density = 19.501827 Si / 1000 Ang^3
#
#
#
# Elastic Constant Matrix: (Units=GPa)
#
#
# Indices 1 2 3 4 5 6 
#
# 1 15.0910 23.1467 13.3123 0.0013 5.9249 -0.0003
# 2 23.1467 121.9745 11.3084 0.0036 -3.6482 -0.0010
# 3 13.3123 11.3084 35.7722 0.0084 1.9661 -0.0009
# 4 0.0013 0.0036 0.0084 -1.6491 -0.0005 -0.8050
# 5 5.9249 -3.6482 1.9661 -0.0005 24.7866 -0.0012
# 6 -0.0003 -0.0010 -0.0009 -0.8050 -0.0012 40.1165
#
#
#
# Elastic Compliance Matrix: (Units=1/GPa)
#
#
# Indices 1 2 3 4 5 6 
#
# 1 0.175448 -0.029579 -0.053630 -0.000188 -0.042038 -0.000005
# 2 -0.029579 0.013486 0.006274 0.000036 0.008558 0.000001
# 3 -0.053630 0.006274 0.045372 0.000198 0.010144 0.000005
# 4 -0.000188 0.000036 0.000198 -0.600527 0.000022 -0.012050
# 5 -0.042038 0.008558 0.010144 0.000022 0.050848 0.000002
# 6 -0.000005 0.000001 0.000005 -0.012050 0.000002 0.024686
#
#
# Mechanical properties :
#
#
# Convention : Reuss Voigt Hill
#
# Bulk Modulus (GPa) = 12.43249 29.81916 21.12582
# Shear Modulus (GPa) = -45.45217 20.98883 -12.23167
#
# Velocity S-wave (km/s) = -4.83293 3.28418 -2.50713
# Velocity P-wave (km/s) = 4.97535 5.45021 1.57332
#
# Compressibility (1/GPa) = 0.08043444
#
# Stress axis : x y z
#
# Youngs Moduli (GPa) = 5.69971 74.15168 22.04014
#
# Poissons Ratio (x) = 2.19335 1.18202
# Poissons Ratio (y) = 0.16859 -0.13828
# Poissons Ratio (z) = 0.30568 -0.46524
#
# Static dielectric constant tensor:
#      x y z
#    x 1.711010 0.000000 -0.009850 
#    y 0.000000 1.722460 0.000000 
#    z -0.009850 0.000000 1.635670 
# 
# From -- ./inp_files/147401.got.cif
#   From: 2010.05.17/outbox.cif.g08.bks.cpg/sg15_74_cif.got.tgz:147401.got - 2010.06.03 18:47:42.
