data_PCOD9287142
_publ_section_title
;
Structure prediction by ZEFSAII (Michael W. Deem and Ramdas Pophale) SiO2 
 PCOD9287142
Probable space group: C 2/C
;
_chemical_formula_sum "Si O2"
_cell_formula_units_Z 48
_cell_length_a 25.717233
_cell_length_b 17.049872
_cell_length_c 17.523168
_cell_angle_alpha 90.000000
_cell_angle_beta 21.774315
_cell_angle_gamma 90.000000
_cell_volume 2850.199109
_symmetry_space_group_name_H-M "C 2/C"
_symmetry_group_IT_number 15
_symmetry_cell_setting 'monoclinic'
loop_
_space_group_symop_operation_xyz
x,y,z
-x,y,1/2-z
-x,-y,-z
x,-y,1/2+z
1/2+x,1/2+y,z
1/2-x,1/2+y,1/2-z
1/2-x,1/2-y,-z
1/2+x,1/2-y,1/2+z
loop_
_atom_site_type_symbol
_atom_site_label
_atom_site_fract_x
_atom_site_fract_y
_atom_site_fract_z
Si Si1 0.950110 0.617033 0.154132
Si Si2 0.726715 0.401960 0.831900
Si Si3 0.987804 0.786195 0.175773
Si Si4 0.025639 0.962751 0.634495
Si Si5 0.280910 0.572186 0.917905
Si Si6 0.755653 0.551024 0.708912
O O1 0.865687 0.613167 0.190232
O O2 0.857604 0.569666 0.342185
O O3 0.958294 0.705582 0.173521
O O4 0.105041 0.581856 0.940289
O O5 0.751726 0.456162 0.724004
O O6 0.632854 0.325434 0.949543
O O7 0.625414 0.461528 0.018248
O O8 0.000000 0.773105 0.250000
O O9 0.865920 0.849454 0.325971
O O10 0.000000 0.921174 0.750000
O O11 0.885100 0.999376 0.791072
O O12 0.118119 0.921186 0.443447
O O13 0.247018 0.575866 0.874720
#
# Coordination Sequence:
#
# PCOD9287142 Si02
#       6
#     8   8   8   8   8   8
#     4  12  21  33  54  79 118 141 174 215 274 328
#     4   9  20  35  47  73 110 142 177 212 258 313
#     4  11  21  33  52  79 113 150 169 207 272 342
#     4   9  17  34  52  67 102 141 178 217 261 302
#     4  11  18  34  51  77 111 140 173 219 264 328
#     4  10  22  31  51  79 105 142 186 219 259 317
#
# _framework density 16.840928000000002
#
# number of rings (size 3 to 8) (size 9 to 14) (size 15 to 20)
#    1.000    0.667    3.333    4.000    2.333    0.000 
#    0.000    0.000    0.000    0.000    0.000    3.500 
#    0.000    0.000    0.000    0.000    0.000    0.000 
#
# Total GULP energy -133693.160221 kJ/mol
# GULP energy per Si atom -5570.548343 kJ/mol
# Density = 1.680260 g / cm^3
# Si number density = 16.840928 Si / 1000 Ang^3
#
#
#
# Elastic Constant Matrix: (Units=GPa)
#
#
# Indices 1 2 3 4 5 6 
#
# 1 48.0028 0.8551 -9.9949 -0.0001 -4.5740 0.0000
# 2 0.8551 22.7891 3.1411 0.0000 -0.2568 0.0000
# 3 -9.9949 3.1411 58.4371 -0.0001 -2.0337 0.0000
# 4 -0.0001 0.0000 -0.0001 19.3965 0.0000 -1.4122
# 5 -4.5740 -0.2568 -2.0337 0.0000 20.4609 0.0000
# 6 0.0000 0.0000 0.0000 -1.4122 0.0000 12.6671
#
#
#
# Elastic Compliance Matrix: (Units=1/GPa)
#
#
# Indices 1 2 3 4 5 6 
#
# 1 0.022210 -0.001332 0.004057 0.000000 0.005352 0.000000
# 2 -0.001332 0.044290 -0.002609 0.000000 -0.000001 0.000000
# 3 0.004057 -0.002609 0.018039 0.000000 0.002667 0.000000
# 4 0.000000 0.000000 0.000000 0.051977 0.000000 0.005795
# 5 0.005352 -0.000001 0.002667 0.000000 0.050335 0.000000
# 6 0.000000 0.000000 0.000000 0.005795 0.000000 0.079591
#
#
# Mechanical properties :
#
#
# Convention : Reuss Voigt Hill
#
# Bulk Modulus (GPa) = 11.79641 13.02574 12.41108
# Shear Modulus (GPa) = 16.97970 19.52006 18.24988
#
# Velocity S-wave (km/s) = 3.17872 3.40823 3.29547
# Velocity P-wave (km/s) = 4.52683 4.82072 4.67609
#
# Compressibility (1/GPa) = 0.08477153
#
# Stress axis : x y z
#
# Youngs Moduli (GPa) = 45.02381 22.57836 55.43451
#
# Poissons Ratio (x) = 0.03008 -0.22488
# Poissons Ratio (y) = 0.05998 0.14461
# Poissons Ratio (z) = -0.18265 0.05890
#
# Static dielectric constant tensor:
#      x y z
#    x 1.576250 0.000000 0.004220 
#    y 0.000000 1.559470 0.000000 
#    z 0.004220 0.000000 1.602100 
# 
# From -- ./inp_files/174474.got.cif
#   From: 2010.05.17/outbox.cif.g08.bks.cpg/sg15_88_cif.got.tgz:174474.got - 2010.06.03 18:47:42.
