data_PCOD9287410
_publ_section_title
;
Structure prediction by ZEFSAII (Michael W. Deem and Ramdas Pophale) SiO2 
 PCOD9287410
Probable space group: C 2/C
;
_chemical_formula_sum "Si O2"
_cell_formula_units_Z 40
_cell_length_a 24.292153
_cell_length_b 13.763691
_cell_length_c 12.285738
_cell_angle_alpha 90.000000
_cell_angle_beta 24.075344
_cell_angle_gamma 90.000000
_cell_volume 1675.698621
_symmetry_space_group_name_H-M "C 2/C"
_symmetry_group_IT_number 15
_symmetry_cell_setting 'monoclinic'
loop_
_space_group_symop_operation_xyz
x,y,z
-x,y,1/2-z
-x,-y,-z
x,-y,1/2+z
1/2+x,1/2+y,z
1/2-x,1/2+y,1/2-z
1/2-x,1/2-y,-z
1/2+x,1/2-y,1/2+z
loop_
_atom_site_type_symbol
_atom_site_label
_atom_site_fract_x
_atom_site_fract_y
_atom_site_fract_z
Si Si1 0.825377 0.917807 0.727537
Si Si2 0.098974 0.785370 0.743299
Si Si3 0.188149 0.101740 0.873253
Si Si4 0.158534 0.493061 0.728224
Si Si5 0.323022 0.196366 0.196114
O O1 0.935262 0.850242 0.588901
O O2 0.734678 0.852855 0.809814
O O3 0.879531 0.011140 0.565527
O O4 0.734107 0.960295 0.989608
O O5 0.250000 0.750000 0.500000
O O6 0.111380 0.850058 0.613407
O O7 0.984533 0.708010 0.921643
O O8 0.222714 0.191227 0.730806
O O9 0.312090 0.052337 0.713368
O O10 0.213095 0.383503 0.648433
O O11 0.000000 0.500000 0.000000
#
# Coordination Sequence:
#
# PCOD9287410 Si02
#       5
#     8   8   8   8   8
#     4  10  23  41  60  91 129 154 207 262 305 371
#     4  11  21  37  65  92 116 164 210 248 307 381
#     4  10  22  36  60  91 122 163 198 253 314 365
#     4  10  23  37  61  95 121 162 212 258 307 366
#     4  11  22  38  65  89 123 166 209 253 312 375
#
# _framework density 23.870642
#
# number of rings (size 3 to 8) (size 9 to 14) (size 15 to 20)
#    0.000    1.600    2.000    3.000    2.800    4.000 
#    0.000    0.000    0.000    0.000    0.000    0.000 
#    0.000    0.000    0.000    0.000    0.000    0.000 
#
# Total GULP energy -111640.644995 kJ/mol
# GULP energy per Si atom -5582.032250 kJ/mol
# Density = 2.381631 g / cm^3
# Si number density = 23.870642 Si / 1000 Ang^3
#
#
#
# Elastic Constant Matrix: (Units=GPa)
#
#
# Indices 1 2 3 4 5 6 
#
# 1 135.5211 58.0733 18.1794 0.0000 -10.9483 0.0000
# 2 58.0733 167.0433 10.8362 0.0000 3.2363 0.0000
# 3 18.1794 10.8362 25.9630 0.0000 -4.6016 0.0000
# 4 0.0000 0.0000 0.0000 33.0360 0.0000 5.6616
# 5 -10.9483 3.2363 -4.6016 0.0000 31.1707 0.0000
# 6 0.0000 0.0000 0.0000 5.6616 0.0000 57.9038
#
#
#
# Elastic Compliance Matrix: (Units=1/GPa)
#
#
# Indices 1 2 3 4 5 6 
#
# 1 0.009594 -0.003075 -0.004909 0.000000 0.002964 0.000000
# 2 -0.003075 0.007172 -0.001195 0.000000 -0.002001 0.000000
# 3 -0.004909 -0.001195 0.043302 0.000000 0.004792 0.000000
# 4 0.000000 0.000000 0.000000 0.030786 0.000000 -0.003010
# 5 0.002964 -0.002001 0.004792 0.000000 0.034038 0.000000
# 6 0.000000 0.000000 0.000000 -0.003010 0.000000 0.017564
#
#
# Mechanical properties :
#
#
# Convention : Reuss Voigt Hill
#
# Bulk Modulus (GPa) = 23.97501 55.85615 39.91558
# Shear Modulus (GPa) = 28.61755 40.51797 34.56776
#
# Velocity S-wave (km/s) = 3.46621 4.12442 3.80956
# Velocity P-wave (km/s) = 5.10735 6.79201 6.00901
#
# Compressibility (1/GPa) = 0.04171010
#
# Stress axis : x y z
#
# Youngs Moduli (GPa) = 104.22665 139.43828 23.09353
#
# Poissons Ratio (x) = 0.42870 0.11338
# Poissons Ratio (y) = 0.32045 0.02760
# Poissons Ratio (z) = 0.51170 0.16664
#
# Static dielectric constant tensor:
#      x y z
#    x 1.922170 0.000000 0.000820 
#    y 0.000000 2.026050 0.000000 
#    z 0.000820 0.000000 1.938010 
# 
# From -- ./inp_files/118670.got.cif
#   From: 2010.05.17/outbox.cif.g08.bks.cpg/sg15_60_cif.got.tgz:118670.got - 2010.06.03 18:47:42.
