data_PCOD9287262
_publ_section_title
;
Structure prediction by ZEFSAII (Michael W. Deem and Ramdas Pophale) SiO2 
 PCOD9287262
Probable space group: C 2/C
;
_chemical_formula_sum "Si O2"
_cell_formula_units_Z 64
_cell_length_a 10.056318
_cell_length_b 13.783865
_cell_length_c 31.404139
_cell_angle_alpha 90.000000
_cell_angle_beta 50.789865
_cell_angle_gamma 90.000000
_cell_volume 3372.910584
_symmetry_space_group_name_H-M "C 2/C"
_symmetry_group_IT_number 15
_symmetry_cell_setting 'monoclinic'
loop_
_space_group_symop_operation_xyz
x,y,z
-x,y,1/2-z
-x,-y,-z
x,-y,1/2+z
1/2+x,1/2+y,z
1/2-x,1/2+y,1/2-z
1/2-x,1/2-y,-z
1/2+x,1/2-y,1/2+z
loop_
_atom_site_type_symbol
_atom_site_label
_atom_site_fract_x
_atom_site_fract_y
_atom_site_fract_z
Si Si1 0.905696 0.098308 0.535945
Si Si2 0.177837 0.939741 0.597565
Si Si3 0.621243 0.587413 0.686787
Si Si4 0.795049 0.875914 0.461584
Si Si5 0.514788 0.097611 0.603856
Si Si6 0.386053 0.765126 0.868761
Si Si7 0.020424 0.192028 0.427014
Si Si8 0.486355 0.878830 0.583004
O O1 0.703206 0.093725 0.587624
O O2 0.933072 0.167342 0.489660
O O3 0.019805 0.125864 0.553389
O O4 0.000000 0.000000 0.500000
O O5 0.048257 0.874119 0.597327
O O6 0.318977 0.867594 0.588490
O O7 0.115694 0.006999 0.649874
O O8 0.245139 0.017345 0.549076
O O9 0.500000 0.559199 0.750000
O O10 0.560895 0.691501 0.679336
O O11 0.820007 0.598693 0.662382
O O12 0.801124 0.807605 0.420016
O O13 0.653149 0.844926 0.523982
O O14 0.512729 0.195413 0.576667
O O15 0.510136 0.994498 0.581404
O O16 0.517345 0.829223 0.869824
O O17 0.224011 0.829095 0.888049
#
# Coordination Sequence:
#
# PCOD9287262 Si02
#       8
#     8   8   8   8   8   8   8   8
#     4  12  20  33  55  87 125 161 187 234 278 351
#     4  10  22  35  58  85 112 154 195 242 284 348
#     4   9  21  45  66  81 109 150 197 251 300 338
#     4  11  21  34  53  83 125 164 189 222 288 351
#     4  10  22  35  55  84 116 153 193 233 283 343
#     4  10  22  37  59  86 115 157 198 237 284 350
#     4  11  21  36  53  86 122 154 191 230 289 346
#     4  11  20  37  53  85 122 157 192 228 284 354
#
# _framework density 18.974710999999999
#
# number of rings (size 3 to 8) (size 9 to 14) (size 15 to 20)
#    0.000    1.500    3.750    1.875    1.750    3.000 
#    0.000    5.000    0.000    3.000    0.000    0.000 
#    0.000    0.000    0.000    0.000    0.000    0.000 
#
# Total GULP energy -178347.739911 kJ/mol
# GULP energy per Si atom -5573.366872 kJ/mol
# Density = 1.893152 g / cm^3
# Si number density = 18.974711 Si / 1000 Ang^3
#
#
#
# Elastic Constant Matrix: (Units=GPa)
#
#
# Indices 1 2 3 4 5 6 
#
# 1 151.0063 17.6194 18.7903 0.0000 2.1014 0.0000
# 2 17.6194 67.7241 9.4943 0.0000 -0.4625 0.0000
# 3 18.7903 9.4943 63.0749 0.0000 -0.8193 0.0000
# 4 0.0000 0.0000 0.0000 10.6424 0.0000 -0.7303
# 5 2.1014 -0.4625 -0.8193 0.0000 16.9002 0.0000
# 6 0.0000 0.0000 0.0000 -0.7303 0.0000 26.6822
#
#
#
# Elastic Compliance Matrix: (Units=1/GPa)
#
#
# Indices 1 2 3 4 5 6 
#
# 1 0.007054 -0.001579 -0.001877 0.000000 -0.001011 0.000000
# 2 -0.001579 0.015439 -0.001847 0.000000 0.000529 0.000000
# 3 -0.001877 -0.001847 0.016704 0.000000 0.000993 0.000000
# 4 0.000000 0.000000 0.000000 0.094140 0.000000 0.002577
# 5 -0.001011 0.000529 0.000993 0.000000 0.059359 0.000000
# 6 0.000000 0.000000 0.000000 0.002577 0.000000 0.037549
#
#
# Mechanical properties :
#
#
# Convention : Reuss Voigt Hill
#
# Bulk Modulus (GPa) = 34.97463 41.51260 38.24362
# Shear Modulus (GPa) = 19.96954 26.57174 23.27064
#
# Velocity S-wave (km/s) = 3.24764 3.74622 3.50580
# Velocity P-wave (km/s) = 5.70396 6.37476 6.04866
#
# Compressibility (1/GPa) = 0.02859215
#
# Stress axis : x y z
#
# Youngs Moduli (GPa) = 141.76151 64.77062 59.86532
#
# Poissons Ratio (x) = 0.10227 0.11236
# Poissons Ratio (y) = 0.22384 0.11055
# Poissons Ratio (z) = 0.26607 0.11961
#
# Static dielectric constant tensor:
#      x y z
#    x 1.776570 0.000000 -0.016720 
#    y 0.000000 1.740460 0.000000 
#    z -0.016720 0.000000 1.627750 
# 
# From -- ./inp_files/288729.got.cif
#   From: 2010.05.17/outbox.cif.g08.bks.cpg/sg15_145_cif.got.tgz:288729.got - 2010.06.03 18:47:42.
