data_PCOD9287632
_publ_section_title
;
Structure prediction by ZEFSAII (Michael W. Deem and Ramdas Pophale) SiO2 
 PCOD9287632
Probable space group: C 2/C
;
_chemical_formula_sum "Si O2"
_cell_formula_units_Z 52
_cell_length_a 5.523564
_cell_length_b 30.353069
_cell_length_c 15.034993
_cell_angle_alpha 90.000000
_cell_angle_beta 102.041116
_cell_angle_gamma 90.000000
_cell_volume 2465.263030
_symmetry_space_group_name_H-M "C 2/C"
_symmetry_group_IT_number 15
_symmetry_cell_setting 'monoclinic'
loop_
_space_group_symop_operation_xyz
x,y,z
-x,y,1/2-z
-x,-y,-z
x,-y,1/2+z
1/2+x,1/2+y,z
1/2-x,1/2+y,1/2-z
1/2-x,1/2-y,-z
1/2+x,1/2-y,1/2+z
loop_
_atom_site_type_symbol
_atom_site_label
_atom_site_fract_x
_atom_site_fract_y
_atom_site_fract_z
Si Si1 0.222340 0.664333 0.040918
Si Si2 0.344307 0.519597 0.568141
Si Si3 0.253741 0.068080 0.673731
Si Si4 0.407596 0.066824 0.478846
Si Si5 0.252566 0.785705 0.581419
Si Si6 0.726461 0.167152 0.833978
Si Si7 0.000000 0.237920 0.750000
O O1 0.496993 0.685976 0.064726
O O2 0.006717 0.687695 0.080701
O O3 0.203733 0.612417 0.063787
O O4 0.149708 0.668448 0.930792
O O5 0.500000 0.500000 0.500000
O O6 0.520003 0.536159 0.659039
O O7 0.172009 0.477770 0.578680
O O8 0.201708 0.561275 0.513915
O O9 0.500000 0.059622 0.750000
O O10 0.331262 0.064482 0.576480
O O11 0.169427 0.118564 0.678217
O O12 0.250000 0.750000 0.500000
O O13 0.290743 0.765530 0.683019
O O14 0.500000 0.172103 0.750000
O O15 0.906166 0.206251 0.821461
#
# Coordination Sequence:
#
# PCOD9287632 Si02
#       7
#     8   8   8   8   8   8   4
#     4  11  25  43  67  96 132 173 228 270 329 406
#     4   9  18  34  60  88 122 156 210 251 315 383
#     4   9  19  33  54  92 130 158 199 253 333 387
#     4   9  20  36  61  90 118 171 211 265 311 384
#     4  12  26  44  67  97 128 174 227 277 336 401
#     4  10  22  37  60  95 130 172 208 275 335 402
#     4  12  26  40  70  90 134 170 222 284 340 390
#
# _framework density 21.093084000000001
#
# number of rings (size 3 to 8) (size 9 to 14) (size 15 to 20)
#    0.000    1.846    1.538    1.385    8.615    3.077 
#    0.000    0.000    1.692    5.538    0.000    0.000 
#    0.000    0.000    0.000    0.000    0.000    0.000 
#
# Total GULP energy -144905.484772 kJ/mol
# GULP energy per Si atom -5573.287876 kJ/mol
# Density = 2.104507 g / cm^3
# Si number density = 21.093084 Si / 1000 Ang^3
#
#
#
# Elastic Constant Matrix: (Units=GPa)
#
#
# Indices 1 2 3 4 5 6 
#
# 1 99.5439 56.3002 25.2103 0.0000 15.3547 0.0000
# 2 56.3002 123.2385 39.1790 0.0000 29.7486 0.0000
# 3 25.2103 39.1790 75.7475 0.0000 24.6145 0.0000
# 4 0.0000 0.0000 0.0000 30.5522 0.0000 2.6114
# 5 15.3547 29.7486 24.6145 0.0000 32.8942 0.0000
# 6 0.0000 0.0000 0.0000 2.6114 0.0000 43.0496
#
#
#
# Elastic Compliance Matrix: (Units=1/GPa)
#
#
# Indices 1 2 3 4 5 6 
#
# 1 0.013703 -0.005755 -0.001581 0.000000 -0.000008 0.000000
# 2 -0.005755 0.013365 -0.002567 0.000000 -0.007480 0.000000
# 3 -0.001581 -0.002567 0.018579 0.000000 -0.010843 0.000000
# 4 0.000000 0.000000 0.000000 0.032901 0.000000 -0.001996
# 5 -0.000008 -0.007480 -0.010843 0.000000 0.045283 0.000000
# 6 0.000000 0.000000 0.000000 -0.001996 0.000000 0.023350
#
#
# Mechanical properties :
#
#
# Convention : Reuss Voigt Hill
#
# Bulk Modulus (GPa) = 38.69854 59.98988 49.34421
# Shear Modulus (GPa) = 28.47363 33.15522 30.81443
#
# Velocity S-wave (km/s) = 3.67809 3.96896 3.82629
# Velocity P-wave (km/s) = 6.03524 7.03604 6.55477
#
# Compressibility (1/GPa) = 0.02584077
#
# Stress axis : x y z
#
# Youngs Moduli (GPa) = 72.97906 74.82137 53.82373
#
# Poissons Ratio (x) = 0.43062 0.08510
# Poissons Ratio (y) = 0.42001 0.13816
# Poissons Ratio (z) = 0.11538 0.19205
#
# Static dielectric constant tensor:
#      x y z
#    x 2.143600 0.000000 -0.000620 
#    y 0.000000 1.851920 0.000000 
#    z -0.000620 0.000000 1.761320 
# 
# From -- ./inp_files/130868.got.cif
#   From: 2010.05.17/outbox.cif.g08.bks.cpg/sg15_66_cif.got.tgz:130868.got - 2010.06.03 18:47:42.
