data_PCOD9287488
_publ_section_title
;
Structure prediction by ZEFSAII (Michael W. Deem and Ramdas Pophale) SiO2 
 PCOD9287488
Probable space group: C 2/C
;
_chemical_formula_sum "Si O2"
_cell_formula_units_Z 44
_cell_length_a 23.989576
_cell_length_b 11.870795
_cell_length_c 14.685534
_cell_angle_alpha 90.000000
_cell_angle_beta 27.526940
_cell_angle_gamma 90.000000
_cell_volume 1932.812666
_symmetry_space_group_name_H-M "C 2/C"
_symmetry_group_IT_number 15
_symmetry_cell_setting 'monoclinic'
loop_
_space_group_symop_operation_xyz
x,y,z
-x,y,1/2-z
-x,-y,-z
x,-y,1/2+z
1/2+x,1/2+y,z
1/2-x,1/2+y,1/2-z
1/2-x,1/2-y,-z
1/2+x,1/2-y,1/2+z
loop_
_atom_site_type_symbol
_atom_site_label
_atom_site_fract_x
_atom_site_fract_y
_atom_site_fract_z
Si Si1 0.551935 0.547709 0.332132
Si Si2 0.714925 0.918097 0.471498
Si Si3 0.000000 0.886576 0.250000
Si Si4 0.273862 0.180849 0.352538
Si Si5 0.099460 0.411994 0.006275
Si Si6 0.616101 0.782967 0.166217
O O1 0.500000 0.500000 0.500000
O O2 0.489270 0.468822 0.349985
O O3 0.543151 0.675391 0.311524
O O4 0.693398 0.516213 0.131996
O O5 0.671896 0.866977 0.631207
O O6 0.793929 0.814760 0.315818
O O7 0.630710 0.972921 0.515391
O O8 0.872632 0.823849 0.428582
O O9 0.322029 0.112093 0.196450
O O10 0.121521 0.314351 0.050979
O O11 0.958201 0.391094 0.187663
O O12 0.750000 0.750000 0.000000
#
# Coordination Sequence:
#
# PCOD9287488 Si02
#       6
#     8   8   4   8   8   8
#     4  11  21  40  67  93 133 183 231 292 356 418
#     4  10  22  42  66  98 142 180 242 293 358 433
#     4  10  22  36  64  94 132 178 238 280 344 438
#     4  10  23  43  66 105 141 189 241 296 361 438
#     4  11  23  44  72  97 143 192 230 304 369 417
#     4  11  24  42  66 105 138 174 245 294 341 437
#
# _framework density 22.764751
#
# number of rings (size 3 to 8) (size 9 to 14) (size 15 to 20)
#    0.000    1.455    1.818    3.273    0.000    4.364 
#    0.000    3.636    0.000    0.000    0.000    0.000 
#    0.000    0.000    0.000    0.000    0.000    0.000 
#
# Total GULP energy -122592.690192 kJ/mol
# GULP energy per Si atom -5572.395009 kJ/mol
# Density = 2.271294 g / cm^3
# Si number density = 22.764751 Si / 1000 Ang^3
#
#
#
# Elastic Constant Matrix: (Units=GPa)
#
#
# Indices 1 2 3 4 5 6 
#
# 1 103.5277 48.5756 57.1790 0.0000 14.7881 0.0000
# 2 48.5756 128.6330 40.6242 0.0000 4.4361 0.0000
# 3 57.1790 40.6242 109.5126 0.0000 24.9042 0.0000
# 4 0.0000 0.0000 0.0000 16.9616 0.0000 -3.0784
# 5 14.7881 4.4361 24.9042 0.0000 53.7417 0.0000
# 6 0.0000 0.0000 0.0000 -3.0784 0.0000 57.1020
#
#
#
# Elastic Compliance Matrix: (Units=1/GPa)
#
#
# Indices 1 2 3 4 5 6 
#
# 1 0.014948 -0.003641 -0.006245 0.000000 -0.000919 0.000000
# 2 -0.003641 0.009730 -0.001960 0.000000 0.001107 0.000000
# 3 -0.006245 -0.001960 0.014187 0.000000 -0.004694 0.000000
# 4 0.000000 0.000000 0.000000 0.059539 0.000000 0.003210
# 5 -0.000919 0.001107 -0.004694 0.000000 0.020944 0.000000
# 6 0.000000 0.000000 0.000000 0.003210 0.000000 0.017686
#
#
# Mechanical properties :
#
#
# Convention : Reuss Voigt Hill
#
# Bulk Modulus (GPa) = 65.90988 70.49233 68.20110
# Shear Modulus (GPa) = 30.15986 38.58070 34.37028
#
# Velocity S-wave (km/s) = 3.64380 4.12121 3.88983
# Velocity P-wave (km/s) = 6.83509 7.32657 7.08509
#
# Compressibility (1/GPa) = 0.01517223
#
# Stress axis : x y z
#
# Youngs Moduli (GPa) = 66.89848 102.77729 70.48855
#
# Poissons Ratio (x) = 0.37419 0.44022
# Poissons Ratio (y) = 0.24356 0.13817
# Poissons Ratio (z) = 0.41780 0.20145
#
# Static dielectric constant tensor:
#      x y z
#    x 1.984830 0.000000 -0.025670 
#    y 0.000000 1.912130 0.000000 
#    z -0.025670 0.000000 1.951070 
# 
# From -- ./inp_files/177488.got.cif
#   From: 2010.05.17/outbox.cif.g08.bks.cpg/sg15_89_cif.got.tgz:177488.got - 2010.06.03 18:47:42.
