data_PCOD9287238
_publ_section_title
;
Structure prediction by ZEFSAII (Michael W. Deem and Ramdas Pophale) SiO2 
 PCOD9287238
Probable space group: C 2/C
;
_chemical_formula_sum "Si O2"
_cell_formula_units_Z 40
_cell_length_a 14.725675
_cell_length_b 18.212844
_cell_length_c 7.512685
_cell_angle_alpha 90.000000
_cell_angle_beta 59.252565
_cell_angle_gamma 90.000000
_cell_volume 1731.642812
_symmetry_space_group_name_H-M "C 2/C"
_symmetry_group_IT_number 15
_symmetry_cell_setting 'monoclinic'
loop_
_space_group_symop_operation_xyz
x,y,z
-x,y,1/2-z
-x,-y,-z
x,-y,1/2+z
1/2+x,1/2+y,z
1/2-x,1/2+y,1/2-z
1/2-x,1/2-y,-z
1/2+x,1/2-y,1/2+z
loop_
_atom_site_type_symbol
_atom_site_label
_atom_site_fract_x
_atom_site_fract_y
_atom_site_fract_z
Si Si1 0.337099 0.444449 0.177419
Si Si2 0.762379 0.213229 0.795390
Si Si3 0.500000 0.535695 0.250000
Si Si4 0.377819 0.802952 0.394738
Si Si5 0.000000 0.448126 0.750000
Si Si6 0.845304 0.442985 0.617449
O O1 0.279293 0.373360 0.308842
O O2 0.421977 0.482561 0.220191
O O3 0.252734 0.508640 0.215093
O O4 0.415210 0.418125 0.943292
O O5 0.665859 0.223147 0.752282
O O6 0.855386 0.248122 0.580540
O O7 0.750000 0.250000 0.000000
O O8 0.500000 0.821026 0.250000
O O9 0.316582 0.877954 0.511824
O O10 0.079186 0.408362 0.805809
O O11 0.079206 0.499939 0.560201
#
# Coordination Sequence:
#
# PCOD9287238 Si02
#       6
#     8   8   4   8   4   8
#     4  11  24  44  68 102 138 184 242 303 351 427
#     4  11  28  47  71 102 145 191 237 295 365 435
#     4  10  24  42  72  96 132 192 246 294 360 406
#     4  11  26  48  71 103 144 190 234 298 367 432
#     4  10  22  34  66 106 136 180 218 288 372 426
#     4  11  22  41  68 104 143 178 241 299 358 430
#
# _framework density 23.099451999999999
#
# number of rings (size 3 to 8) (size 9 to 14) (size 15 to 20)
#    0.000    1.200    1.000    3.600    9.800    2.400 
#    0.000    0.000    0.000    0.000    0.000    0.000 
#    0.000    0.000    0.000    0.000    0.000    0.000 
#
# Total GULP energy -111701.619259 kJ/mol
# GULP energy per Si atom -5585.080963 kJ/mol
# Density = 2.304688 g / cm^3
# Si number density = 23.099452 Si / 1000 Ang^3
#
#
#
# Elastic Constant Matrix: (Units=GPa)
#
#
# Indices 1 2 3 4 5 6 
#
# 1 120.5717 29.4065 50.9896 0.0000 11.0708 0.0000
# 2 29.4065 97.6543 37.1046 0.0000 1.1053 0.0000
# 3 50.9896 37.1046 123.3345 0.0000 -1.2114 0.0000
# 4 0.0000 0.0000 0.0000 38.1508 0.0000 -1.2562
# 5 11.0708 1.1053 -1.2114 0.0000 45.0477 0.0000
# 6 0.0000 0.0000 0.0000 -1.2562 0.0000 20.9398
#
#
#
# Elastic Compliance Matrix: (Units=1/GPa)
#
#
# Indices 1 2 3 4 5 6 
#
# 1 0.010599 -0.001678 -0.003903 0.000000 -0.002669 0.000000
# 2 -0.001678 0.011834 -0.002866 0.000000 0.000045 0.000000
# 3 -0.003903 -0.002866 0.010597 0.000000 0.001315 0.000000
# 4 0.000000 0.000000 0.000000 0.026264 0.000000 0.001576
# 5 -0.002669 0.000045 0.001315 0.000000 0.022889 0.000000
# 6 0.000000 0.000000 0.000000 0.001576 0.000000 0.047850
#
#
# Mechanical properties :
#
#
# Convention : Reuss Voigt Hill
#
# Bulk Modulus (GPa) = 61.97754 64.06244 63.01999
# Shear Modulus (GPa) = 32.82878 35.76499 34.29689
#
# Velocity S-wave (km/s) = 3.77396 3.93912 3.85742
# Velocity P-wave (km/s) = 6.77343 6.96293 6.86883
#
# Compressibility (1/GPa) = 0.01613488
#
# Stress axis : x y z
#
# Youngs Moduli (GPa) = 94.35038 84.50216 94.36848
#
# Poissons Ratio (x) = 0.14183 0.36833
# Poissons Ratio (y) = 0.15836 0.27045
# Poissons Ratio (z) = 0.36826 0.24217
#
# Static dielectric constant tensor:
#      x y z
#    x 1.892010 0.000000 0.075980 
#    y 0.000000 1.855230 0.000000 
#    z 0.075980 0.000000 1.951830 
# 
# From -- ./inp_files/39013.got.cif
#   From: 2010.05.17/outbox.cif.g08.bks.cpg/sg15_20_cif.got.tgz:39013.got - 2010.06.03 18:47:42.
