data_PCOD9287121
_publ_section_title
;
Structure prediction by ZEFSAII (Michael W. Deem and Ramdas Pophale) SiO2 
 PCOD9287121
Probable space group: C 2/C
;
_chemical_formula_sum "Si O2"
_cell_formula_units_Z 48
_cell_length_a 10.522825
_cell_length_b 11.681667
_cell_length_c 17.103576
_cell_angle_alpha 90.000000
_cell_angle_beta 57.726625
_cell_angle_gamma 90.000000
_cell_volume 1777.636123
_symmetry_space_group_name_H-M "C 2/C"
_symmetry_group_IT_number 15
_symmetry_cell_setting 'monoclinic'
loop_
_space_group_symop_operation_xyz
x,y,z
-x,y,1/2-z
-x,-y,-z
x,-y,1/2+z
1/2+x,1/2+y,z
1/2-x,1/2+y,1/2-z
1/2-x,1/2-y,-z
1/2+x,1/2-y,1/2+z
loop_
_atom_site_type_symbol
_atom_site_label
_atom_site_fract_x
_atom_site_fract_y
_atom_site_fract_z
Si Si1 0.893140 0.775948 0.167790
Si Si2 0.936454 0.424290 0.186695
Si Si3 0.165255 0.763833 0.611009
Si Si4 0.862682 0.593590 0.449460
Si Si5 0.418980 0.492101 0.372274
Si Si6 0.216726 0.910786 0.825865
O O1 0.772552 0.800361 0.138301
O O2 0.799052 0.700275 0.260710
O O3 0.027560 0.701518 0.084563
O O4 0.978374 0.882134 0.178105
O O5 0.779221 0.487652 0.247663
O O6 0.000000 0.463922 0.250000
O O7 0.001992 0.296644 0.160230
O O8 0.025786 0.486027 0.088713
O O9 0.250000 0.750000 0.500000
O O10 0.142767 0.893124 0.649875
O O11 0.734119 0.570457 0.553012
O O12 0.774522 0.591286 0.395721
O O13 0.537788 0.563036 0.389013
#
# Coordination Sequence:
#
# PCOD9287121 Si02
#       6
#     8   8   8   8   8   8
#     4  11  26  48  69 107 150 191 243 316 378 444
#     4   9  19  42  69  94 138 187 239 298 362 441
#     4  12  27  45  73 107 144 195 255 302 370 456
#     4  10  21  47  74 102 142 190 245 307 377 450
#     4  12  26  44  75 108 143 194 250 300 376 457
#     4  10  24  45  76  99 140 194 241 304 386 442
#
# _framework density 27.002154000000001
#
# number of rings (size 3 to 8) (size 9 to 14) (size 15 to 20)
#    0.000    1.333    1.667    4.500    7.000    0.667 
#    6.000    0.000    0.000    0.000    0.000    0.000 
#    0.000    0.000    0.000    0.000    0.000    0.000 
#
# Total GULP energy -133800.083834 kJ/mol
# GULP energy per Si atom -5575.003493 kJ/mol
# Density = 2.694070 g / cm^3
# Si number density = 27.002154 Si / 1000 Ang^3
#
#
#
# Elastic Constant Matrix: (Units=GPa)
#
#
# Indices 1 2 3 4 5 6 
#
# 1 85.2416 37.9065 39.7278 0.0000 -25.7507 0.0000
# 2 37.9065 172.1458 26.7202 0.0000 -8.8363 0.0000
# 3 39.7278 26.7202 66.3770 0.0000 -26.4081 0.0000
# 4 0.0000 0.0000 0.0000 20.0432 0.0000 -9.9667
# 5 -25.7507 -8.8363 -26.4081 0.0000 52.9942 0.0000
# 6 0.0000 0.0000 0.0000 -9.9667 0.0000 32.8080
#
#
#
# Elastic Compliance Matrix: (Units=1/GPa)
#
#
# Indices 1 2 3 4 5 6 
#
# 1 0.017843 -0.002470 -0.007982 0.000000 0.004281 0.000000
# 2 -0.002470 0.006541 -0.001495 0.000000 -0.000854 0.000000
# 3 -0.007982 -0.001495 0.023452 0.000000 0.007559 0.000000
# 4 0.000000 0.000000 0.000000 0.058770 0.000000 0.017854
# 5 0.004281 -0.000854 0.007559 0.000000 0.024574 0.000000
# 6 0.000000 0.000000 0.000000 0.017854 0.000000 0.035904
#
#
# Mechanical properties :
#
#
# Convention : Reuss Voigt Hill
#
# Bulk Modulus (GPa) = 41.76700 59.16370 50.46535
# Shear Modulus (GPa) = 25.13085 35.79642 30.46363
#
# Velocity S-wave (km/s) = 3.05404 3.64495 3.36250
# Velocity P-wave (km/s) = 5.28563 6.29861 5.81422
#
# Compressibility (1/GPa) = 0.02394235
#
# Stress axis : x y z
#
# Youngs Moduli (GPa) = 56.04384 152.87887 42.64103
#
# Poissons Ratio (x) = 0.37767 0.34035
# Poissons Ratio (y) = 0.13845 0.06373
# Poissons Ratio (z) = 0.44733 0.22848
#
# Static dielectric constant tensor:
#      x y z
#    x 2.154030 0.000000 -0.057270 
#    y 0.000000 2.195560 0.000000 
#    z -0.057270 0.000000 2.158960 
# 
# From -- ./inp_files/237445.got.cif
#   From: 2010.05.17/outbox.cif.g08.bks.cpg/sg15_119_cif.got.tgz:237445.got - 2010.06.03 18:47:42.
