data_PCOD9287516
_publ_section_title
;
Structure prediction by ZEFSAII (Michael W. Deem and Ramdas Pophale) SiO2 
 PCOD9287516
Probable space group: C 2/C
;
_chemical_formula_sum "Si O2"
_cell_formula_units_Z 52
_cell_length_a 22.398233
_cell_length_b 10.764038
_cell_length_c 23.035073
_cell_angle_alpha 90.000000
_cell_angle_beta 24.276061
_cell_angle_gamma 90.000000
_cell_volume 2283.292055
_symmetry_space_group_name_H-M "C 2/C"
_symmetry_group_IT_number 15
_symmetry_cell_setting 'monoclinic'
loop_
_space_group_symop_operation_xyz
x,y,z
-x,y,1/2-z
-x,-y,-z
x,-y,1/2+z
1/2+x,1/2+y,z
1/2-x,1/2+y,1/2-z
1/2-x,1/2-y,-z
1/2+x,1/2-y,1/2+z
loop_
_atom_site_type_symbol
_atom_site_label
_atom_site_fract_x
_atom_site_fract_y
_atom_site_fract_z
Si Si1 0.494926 0.857792 0.479942
Si Si2 0.663129 0.883650 0.120379
Si Si3 0.656967 0.851610 0.687665
Si Si4 0.287101 0.528656 0.394975
Si Si5 0.418673 0.825954 0.975900
Si Si6 0.185601 0.231961 0.211926
Si Si7 0.500000 0.672601 0.750000
O O1 0.578134 0.792159 0.459107
O O2 0.330150 0.811377 0.617075
O O3 0.579611 0.813205 0.346371
O O4 0.500000 0.000000 0.500000
O O5 0.500000 0.840217 0.250000
O O6 0.727755 0.813977 0.118499
O O7 0.655249 0.024808 0.151709
O O8 0.740388 0.884643 0.989701
O O9 0.808986 0.781283 0.549371
O O10 0.524917 0.766475 0.780150
O O11 0.588919 0.855921 0.811723
O O12 0.158940 0.455003 0.475463
O O13 0.372302 0.606506 0.270042
O O14 0.369582 0.420684 0.356051
#
# Coordination Sequence:
#
# PCOD9287516 Si02
#       7
#     8   8   8   8   8   8   4
#     4  12  26  52  73 102 150 199 250 312 368 444
#     4  12  23  41  69 106 149 188 236 300 375 450
#     4  11  21  41  68 109 139 197 242 300 373 435
#     4  11  23  41  68 103 144 186 236 306 371 439
#     4  11  22  43  72  97 141 190 251 306 361 433
#     4  12  28  46  75 106 143 196 247 306 382 443
#     4  10  22  36  66  98 152 176 236 298 364 436
#
# _framework density 22.774135000000001
#
# number of rings (size 3 to 8) (size 9 to 14) (size 15 to 20)
#    0.000    0.615    3.846    4.154    3.231    2.462 
#    0.000    1.538    0.000    0.000    0.000    0.000 
#    0.000    0.000    0.000    0.000    0.000    0.000 
#
# Total GULP energy -144774.008854 kJ/mol
# GULP energy per Si atom -5568.231110 kJ/mol
# Density = 2.272230 g / cm^3
# Si number density = 22.774135 Si / 1000 Ang^3
#
#
#
# Elastic Constant Matrix: (Units=GPa)
#
#
# Indices 1 2 3 4 5 6 
#
# 1 111.2520 20.1249 13.8396 0.0010 -1.0218 0.0017
# 2 20.1249 82.2162 24.5793 0.0021 -5.8395 0.0020
# 3 13.8396 24.5793 75.2163 -0.0004 17.4633 0.0026
# 4 0.0010 0.0021 -0.0004 64.1330 -0.0003 20.6280
# 5 -1.0218 -5.8395 17.4633 -0.0003 34.5589 -0.0013
# 6 0.0017 0.0020 0.0026 20.6280 -0.0013 20.0429
#
#
#
# Elastic Compliance Matrix: (Units=1/GPa)
#
#
# Indices 1 2 3 4 5 6 
#
# 1 0.009496 -0.001904 -0.001264 0.000000 0.000598 0.000000
# 2 -0.001904 0.014706 -0.005686 -0.000001 0.005302 0.000000
# 3 -0.001264 -0.005686 0.017693 0.000002 -0.009939 -0.000004
# 4 0.000000 -0.000001 0.000002 0.023308 -0.000002 -0.023989
# 5 0.000598 0.005302 -0.009939 -0.000002 0.034872 0.000005
# 6 0.000000 0.000000 -0.000004 -0.023989 0.000005 0.074582
#
#
# Mechanical properties :
#
#
# Convention : Reuss Voigt Hill
#
# Bulk Modulus (GPa) = 41.34515 42.86357 42.10436
# Shear Modulus (GPa) = 24.94669 37.75632 31.35150
#
# Velocity S-wave (km/s) = 3.31327 4.07610 3.71432
# Velocity P-wave (km/s) = 5.72982 6.40428 6.07641
#
# Compressibility (1/GPa) = 0.02418664
#
# Stress axis : x y z
#
# Youngs Moduli (GPa) = 105.31036 68.00108 56.51887
#
# Poissons Ratio (x) = 0.12948 0.07142
# Poissons Ratio (y) = 0.20052 0.32137
# Poissons Ratio (z) = 0.13308 0.38666
#
# Static dielectric constant tensor:
#      x y z
#    x 2.526230 0.000000 0.676610 
#    y 0.000000 1.956600 0.000000 
#    z 0.676610 0.000000 2.543700 
# 
# From -- ./inp_files/252712.got.cif
#   From: 2010.05.17/outbox.cif.g08.bks.cpg/sg15_127_cif.got.tgz:252712.got - 2010.06.03 18:47:42.
