data_PCOD9287270
_publ_section_title
;
Structure prediction by ZEFSAII (Michael W. Deem and Ramdas Pophale) SiO2 
 PCOD9287270
Probable space group: C 2/C
;
_chemical_formula_sum "Si O2"
_cell_formula_units_Z 56
_cell_length_a 22.483824
_cell_length_b 23.177362
_cell_length_c 6.307594
_cell_angle_alpha 90.000000
_cell_angle_beta 123.618954
_cell_angle_gamma 90.000000
_cell_volume 2737.198934
_symmetry_space_group_name_H-M "C 2/C"
_symmetry_group_IT_number 15
_symmetry_cell_setting 'monoclinic'
loop_
_space_group_symop_operation_xyz
x,y,z
-x,y,1/2-z
-x,-y,-z
x,-y,1/2+z
1/2+x,1/2+y,z
1/2-x,1/2+y,1/2-z
1/2-x,1/2-y,-z
1/2+x,1/2-y,1/2+z
loop_
_atom_site_type_symbol
_atom_site_label
_atom_site_fract_x
_atom_site_fract_y
_atom_site_fract_z
Si Si1 0.298308 0.632814 0.362322
Si Si2 0.313671 0.163240 0.684778
Si Si3 0.924629 0.330668 0.052141
Si Si4 0.210417 0.438526 0.032560
Si Si5 0.548943 0.054331 0.160207
Si Si6 0.669359 0.252599 0.422584
Si Si7 0.147666 0.986000 0.645232
O O1 0.239559 0.599665 0.392225
O O2 0.344858 0.679279 0.582656
O O3 0.343754 0.582632 0.345301
O O4 0.254113 0.668293 0.101737
O O5 0.382133 0.153323 0.677440
O O6 0.298262 0.108197 0.799745
O O7 0.330181 0.218671 0.856451
O O8 0.939304 0.391433 0.967968
O O9 0.879118 0.285660 0.826029
O O10 0.000000 0.302630 0.250000
O O11 0.274063 0.483332 0.202127
O O12 0.131267 0.465943 0.858505
O O13 0.500000 0.079721 0.250000
O O14 0.500000 0.000000 0.000000
O O15 0.750000 0.250000 0.500000
O O16 0.119737 0.999751 0.338736
#
# Coordination Sequence:
#
# PCOD9287270 Si02
#       7
#     8   8   8   8   8   8   8
#     4  11  22  38  60  89 116 159 211 268 337 390
#     4  12  20  40  66  82 126 162 220 269 337 382
#     4  12  27  43  60  87 122 169 222 276 329 385
#     4  11  22  39  58  86 124 161 213 273 320 387
#     4  12  26  41  56  79 119 171 234 269 317 379
#     4  12  23  41  63  91 117 160 221 280 330 395
#     4  10  22  35  58  83 123 159 195 256 328 387
#
# _framework density 20.458872
#
# number of rings (size 3 to 8) (size 9 to 14) (size 15 to 20)
#    0.000    0.571    7.143    1.714    4.000    1.143 
#    0.000    0.000    0.000    0.000    0.000    0.000 
#    0.000    4.571    0.000    0.286    0.000    0.000 
#
# Total GULP energy -156099.187283 kJ/mol
# GULP energy per Si atom -5574.970974 kJ/mol
# Density = 2.041231 g / cm^3
# Si number density = 20.458872 Si / 1000 Ang^3
#
#
#
# Elastic Constant Matrix: (Units=GPa)
#
#
# Indices 1 2 3 4 5 6 
#
# 1 41.1122 12.2912 24.3855 0.0000 -19.8736 0.0000
# 2 12.2912 86.9943 19.6057 0.0000 11.2559 0.0000
# 3 24.3855 19.6057 68.4489 0.0000 -9.9942 0.0000
# 4 0.0000 0.0000 0.0000 30.8091 0.0000 6.4659
# 5 -19.8736 11.2559 -9.9942 0.0000 30.6698 0.0000
# 6 0.0000 0.0000 0.0000 6.4659 0.0000 12.8355
#
#
#
# Elastic Compliance Matrix: (Units=1/GPa)
#
#
# Indices 1 2 3 4 5 6 
#
# 1 0.047664 -0.008433 -0.010083 0.000000 0.030695 0.000000
# 2 -0.008433 0.014905 -0.003004 0.000000 -0.011914 0.000000
# 3 -0.010083 -0.003004 0.019182 0.000000 0.000819 0.000000
# 4 0.000000 0.000000 0.000000 0.036295 0.000000 -0.018284
# 5 0.030695 -0.011914 0.000819 0.000000 0.057135 0.000000
# 6 0.000000 0.000000 0.000000 -0.018284 0.000000 0.087120
#
#
# Mechanical properties :
#
#
# Convention : Reuss Voigt Hill
#
# Bulk Modulus (GPa) = 25.83402 34.34668 30.09035
# Shear Modulus (GPa) = 15.71117 24.21440 19.96279
#
# Velocity S-wave (km/s) = 2.77418 3.44403 3.12709
# Velocity P-wave (km/s) = 4.78708 5.71312 5.27048
#
# Compressibility (1/GPa) = 0.03870864
#
# Stress axis : x y z
#
# Youngs Moduli (GPa) = 20.98036 67.09104 52.13252
#
# Poissons Ratio (x) = 0.56580 0.52567
# Poissons Ratio (y) = 0.17693 0.15662
# Poissons Ratio (z) = 0.21155 0.20156
#
# Static dielectric constant tensor:
#      x y z
#    x 1.725200 0.000000 -0.035110 
#    y 0.000000 3.531500 0.000000 
#    z -0.035110 0.000000 1.878250 
# 
# From -- ./inp_files/16181.got.cif
#   From: 2010.05.17/outbox.cif.g08.bks.cpg/sg15_9_cif.got.tgz:16181.got - 2010.06.03 18:47:42.
