data_PCOD9287985
_publ_section_title
;
Structure prediction by ZEFSAII (Michael W. Deem and Ramdas Pophale) SiO2 
 PCOD9287985
Probable space group: C 2/C
;
_chemical_formula_sum "Si O2"
_cell_formula_units_Z 56
_cell_length_a 13.010524
_cell_length_b 27.146016
_cell_length_c 8.124229
_cell_angle_alpha 90.000000
_cell_angle_beta 111.726123
_cell_angle_gamma 90.000000
_cell_volume 2665.519602
_symmetry_space_group_name_H-M "C 2/C"
_symmetry_group_IT_number 15
_symmetry_cell_setting 'monoclinic'
loop_
_space_group_symop_operation_xyz
x,y,z
-x,y,1/2-z
-x,-y,-z
x,-y,1/2+z
1/2+x,1/2+y,z
1/2-x,1/2+y,1/2-z
1/2-x,1/2-y,-z
1/2+x,1/2-y,1/2+z
loop_
_atom_site_type_symbol
_atom_site_label
_atom_site_fract_x
_atom_site_fract_y
_atom_site_fract_z
Si Si1 0.025359 0.291642 0.457833
Si Si2 0.306074 0.869501 0.810225
Si Si3 0.421654 0.314108 0.358891
Si Si4 0.390598 0.031985 0.462034
Si Si5 0.398353 0.596595 0.086989
Si Si6 0.196213 0.344619 0.066168
Si Si7 0.280996 0.947193 0.233835
O O1 0.918203 0.315957 0.479088
O O2 0.000000 0.287642 0.250000
O O3 0.128319 0.327736 0.551799
O O4 0.050779 0.238827 0.550174
O O5 0.383563 0.918303 0.851847
O O6 0.197398 0.885424 0.845098
O O7 0.280025 0.851217 0.612427
O O8 0.500000 0.324134 0.250000
O O9 0.437149 0.356011 0.505613
O O10 0.295794 0.317124 0.218589
O O11 0.368266 0.047207 0.636222
O O12 0.500000 0.000000 0.500000
O O13 0.291728 0.995680 0.348992
O O14 0.500000 0.575597 0.250000
O O15 0.337248 0.561011 0.921590
O O16 0.190201 0.398625 0.145447
#
# Coordination Sequence:
#
# PCOD9287985 Si02
#       7
#     8   8   8   8   8   8   8
#     4  12  25  41  62  92 130 167 209 264 323 382
#     4  11  24  42  66  94 128 168 211 262 321 383
#     4  11  24  41  66  94 123 167 217 264 315 382
#     4  11  21  37  62  93 126 164 207 254 317 383
#     4  10  22  42  65  92 126 169 217 265 316 375
#     4  11  24  43  63  92 130 166 212 266 324 379
#     4  10  22  38  61  92 126 164 209 257 313 379
#
# _framework density 21.009035000000001
#
# number of rings (size 3 to 8) (size 9 to 14) (size 15 to 20)
#    0.000    1.143    0.000    7.286    0.000    8.000 
#    0.000    2.857    0.000    8.571    0.000    0.000 
#    0.000    0.000    0.000    0.000    0.000    0.000 
#
# Total GULP energy -156736.834869 kJ/mol
# GULP energy per Si atom -5597.744102 kJ/mol
# Density = 2.096122 g / cm^3
# Si number density = 21.009035 Si / 1000 Ang^3
#
#
#
# Elastic Constant Matrix: (Units=GPa)
#
#
# Indices 1 2 3 4 5 6 
#
# 1 56.0499 4.0982 17.2003 0.0000 -4.4585 0.0000
# 2 4.0982 75.1577 39.4073 0.0000 -3.6561 0.0000
# 3 17.2003 39.4073 126.5435 0.0000 -2.5671 0.0000
# 4 0.0000 0.0000 0.0000 31.9351 0.0000 0.5504
# 5 -4.4585 -3.6561 -2.5671 0.0000 32.8048 0.0000
# 6 0.0000 0.0000 0.0000 0.5504 0.0000 12.3928
#
#
#
# Elastic Compliance Matrix: (Units=1/GPa)
#
#
# Indices 1 2 3 4 5 6 
#
# 1 0.018813 0.000486 -0.002660 0.000000 0.002403 0.000000
# 2 0.000486 0.015978 -0.005012 0.000000 0.001454 0.000000
# 3 -0.002660 -0.005012 0.009822 0.000000 -0.000151 0.000000
# 4 0.000000 0.000000 0.000000 0.031338 0.000000 -0.001392
# 5 0.002403 0.001454 -0.000151 0.000000 0.030960 0.000000
# 6 0.000000 0.000000 0.000000 -0.001392 0.000000 0.080754
#
#
# Mechanical properties :
#
#
# Convention : Reuss Voigt Hill
#
# Bulk Modulus (GPa) = 33.06877 42.12919 37.59898
# Shear Modulus (GPa) = 23.57201 28.56290 26.06745
#
# Velocity S-wave (km/s) = 3.35325 3.69121 3.52628
# Velocity P-wave (km/s) = 5.54678 6.18572 5.87495
#
# Compressibility (1/GPa) = 0.03024001
#
# Stress axis : x y z
#
# Youngs Moduli (GPa) = 53.15457 62.58752 101.81543
#
# Poissons Ratio (x) = -0.03039 0.27079
# Poissons Ratio (y) = -0.02581 0.51031
# Poissons Ratio (z) = 0.14137 0.31370
#
# Static dielectric constant tensor:
#      x y z
#    x 1.753980 0.000000 0.015460 
#    y 0.000000 1.726580 0.000000 
#    z 0.015460 0.000000 1.769290 
# 
# From -- ./inp_files/34330.got.cif
#   From: 2010.05.17/outbox.cif.g08.bks.cpg/sg15_18_cif.got.tgz:34330.got - 2010.06.03 18:47:42.
