data_PCOD9287035
_publ_section_title
;
Structure prediction by ZEFSAII (Michael W. Deem and Ramdas Pophale) SiO2 
 PCOD9287035
Probable space group: C 2/C
;
_chemical_formula_sum "Si O2"
_cell_formula_units_Z 44
_cell_length_a 22.413389
_cell_length_b 16.743554
_cell_length_c 13.684894
_cell_angle_alpha 90.000000
_cell_angle_beta 156.915908
_cell_angle_gamma 90.000000
_cell_volume 2013.600005
_symmetry_space_group_name_H-M "C 2/C"
_symmetry_group_IT_number 15
_symmetry_cell_setting 'monoclinic'
loop_
_space_group_symop_operation_xyz
x,y,z
-x,y,1/2-z
-x,-y,-z
x,-y,1/2+z
1/2+x,1/2+y,z
1/2-x,1/2+y,1/2-z
1/2-x,1/2-y,-z
1/2+x,1/2-y,1/2+z
loop_
_atom_site_type_symbol
_atom_site_label
_atom_site_fract_x
_atom_site_fract_y
_atom_site_fract_z
Si Si1 0.609238 0.804317 0.664044
Si Si2 0.401399 0.763009 0.504967
Si Si3 0.505374 0.937370 0.370475
Si Si4 0.250563 0.070853 0.769299
Si Si5 0.000000 0.974264 0.750000
Si Si6 0.733423 0.564792 0.969146
O O1 0.501422 0.742279 0.560026
O O2 0.507059 0.865696 0.448528
O O3 0.701805 0.854039 0.886222
O O4 0.735708 0.772384 0.778867
O O5 0.500000 0.748007 0.750000
O O6 0.370627 0.857420 0.446381
O O7 0.500000 0.910030 0.250000
O O8 0.659928 0.988544 0.615934
O O9 0.367348 0.998598 0.178494
O O10 0.116817 0.077314 0.489908
O O11 0.195358 0.071807 0.797812
O O12 0.907433 0.031345 0.683108
#
# Coordination Sequence:
#
# PCOD9287035 Si02
#       6
#     8   8   8   8   4   8
#     4  12  24  42  69  98 134 172 219 278 330 392
#     4  12  25  43  66  97 134 175 222 271 333 396
#     4  10  21  45  74  93 124 179 226 267 327 401
#     4  11  22  42  66  98 128 173 222 272 327 391
#     4  12  24  36  64 102 136 160 216 290 326 378
#     4  11  22  40  70  96 127 168 228 273 329 386
#
# _framework density 21.851410999999999
#
# number of rings (size 3 to 8) (size 9 to 14) (size 15 to 20)
#    0.000    0.727    5.455    3.273    1.273    0.000 
#    8.182    0.909    0.000    0.000    0.000    0.000 
#    0.000    0.000    0.000    0.000    0.000    0.000 
#
# Total GULP energy -123107.572116 kJ/mol
# GULP energy per Si atom -5595.798733 kJ/mol
# Density = 2.180168 g / cm^3
# Si number density = 21.851411 Si / 1000 Ang^3
#
#
#
# Elastic Constant Matrix: (Units=GPa)
#
#
# Indices 1 2 3 4 5 6 
#
# 1 126.8745 23.0148 28.9676 0.0000 17.1142 0.0000
# 2 23.0148 30.3951 2.4418 0.0000 6.0343 0.0000
# 3 28.9676 2.4418 71.1250 0.0000 -5.4220 0.0000
# 4 0.0000 0.0000 0.0000 18.8589 0.0000 9.4945
# 5 17.1142 6.0343 -5.4220 0.0000 45.5829 0.0000
# 6 0.0000 0.0000 0.0000 9.4945 0.0000 32.1034
#
#
#
# Elastic Compliance Matrix: (Units=1/GPa)
#
#
# Indices 1 2 3 4 5 6 
#
# 1 0.010628 -0.006986 -0.004362 0.000000 -0.003585 0.000000
# 2 -0.006986 0.038542 0.001345 0.000000 -0.002319 0.000000
# 3 -0.004362 0.001345 0.016047 0.000000 0.003368 0.000000
# 4 0.000000 0.000000 0.000000 0.062302 0.000000 -0.018426
# 5 -0.003585 -0.002319 0.003368 0.000000 0.023992 0.000000
# 6 0.000000 0.000000 0.000000 -0.018426 0.000000 0.036599
#
#
# Mechanical properties :
#
#
# Convention : Reuss Voigt Hill
#
# Bulk Modulus (GPa) = 22.11807 37.47143 29.79475
# Shear Modulus (GPa) = 22.40285 30.90704 26.65495
#
# Velocity S-wave (km/s) = 3.20540 3.76496 3.49639
# Velocity P-wave (km/s) = 4.88298 6.00711 5.47398
#
# Compressibility (1/GPa) = 0.04521191
#
# Stress axis : x y z
#
# Youngs Moduli (GPa) = 94.08681 25.94576 62.31701
#
# Poissons Ratio (x) = 0.18125 0.27184
# Poissons Ratio (y) = 0.65726 -0.08382
# Poissons Ratio (z) = 0.41042 -0.03490
#
# Static dielectric constant tensor:
#      x y z
#    x 1.850650 0.000000 0.044350 
#    y 0.000000 1.793830 0.000000 
#    z 0.044350 0.000000 1.786700 
# 
# From -- ./inp_files/86081.got.cif
#   From: 2010.05.17/outbox.cif.g08.bks.cpg/sg15_44_cif.got.tgz:86081.got - 2010.06.03 18:47:42.
