data_PCOD9287960
_publ_section_title
;
Structure prediction by ZEFSAII (Michael W. Deem and Ramdas Pophale) SiO2 
 PCOD9287960
Probable space group: C 2/C
;
_chemical_formula_sum "Si O2"
_cell_formula_units_Z 44
_cell_length_a 15.832277
_cell_length_b 5.328823
_cell_length_c 20.411489
_cell_angle_alpha 90.000000
_cell_angle_beta 80.087824
_cell_angle_gamma 90.000000
_cell_volume 1696.358639
_symmetry_space_group_name_H-M "C 2/C"
_symmetry_group_IT_number 15
_symmetry_cell_setting 'monoclinic'
loop_
_space_group_symop_operation_xyz
x,y,z
-x,y,1/2-z
-x,-y,-z
x,-y,1/2+z
1/2+x,1/2+y,z
1/2-x,1/2+y,1/2-z
1/2-x,1/2-y,-z
1/2+x,1/2-y,1/2+z
loop_
_atom_site_type_symbol
_atom_site_label
_atom_site_fract_x
_atom_site_fract_y
_atom_site_fract_z
Si Si1 0.009900 0.794405 0.110767
Si Si2 0.669012 0.227424 0.420441
Si Si3 0.900304 0.843506 0.835069
Si Si4 0.186752 0.522001 0.055498
Si Si5 0.500000 0.974949 0.750000
Si Si6 0.755277 0.066409 0.788667
O O1 0.016231 0.077926 0.136138
O O2 0.106303 0.714508 0.074570
O O3 0.988745 0.660713 0.182699
O O4 0.933502 0.758838 0.070824
O O5 0.715404 0.499901 0.428766
O O6 0.691571 0.053147 0.479420
O O7 0.698111 0.077043 0.351077
O O8 0.845309 0.710537 0.896852
O O9 0.920007 0.654841 0.774538
O O10 0.849622 0.072069 0.809627
O O11 0.762052 0.850554 0.731438
#
# Coordination Sequence:
#
# PCOD9287960 Si02
#       6
#     8   8   8   8   4   8
#     4  11  22  40  68  95 132 182 230 292 352 430
#     4  10  22  44  68  96 134 185 232 283 366 415
#     4  10  23  39  63  97 135 174 229 292 345 423
#     4   9  22  45  62  96 139 172 236 293 344 430
#     4  10  22  38  60  92 138 174 228 288 354 416
#     4  11  26  44  69 102 139 182 233 290 355 426
#
# _framework density 25.937911
#
# number of rings (size 3 to 8) (size 9 to 14) (size 15 to 20)
#    0.000    1.818    0.000    2.182   12.727    0.727 
#    3.273    2.727    0.000    0.000    0.000    0.000 
#    0.000    0.000    0.000    0.000    0.000    0.000 
#
# Total GULP energy -122707.913837 kJ/mol
# GULP energy per Si atom -5577.632447 kJ/mol
# Density = 2.587888 g / cm^3
# Si number density = 25.937911 Si / 1000 Ang^3
#
#
#
# Elastic Constant Matrix: (Units=GPa)
#
#
# Indices 1 2 3 4 5 6 
#
# 1 111.5417 34.8850 23.4599 0.0000 12.1219 0.0000
# 2 34.8850 66.3836 11.1374 0.0000 -1.6367 0.0000
# 3 23.4599 11.1374 97.5823 0.0000 -19.0195 0.0000
# 4 0.0000 0.0000 0.0000 5.1439 0.0000 13.3610
# 5 12.1219 -1.6367 -19.0195 0.0000 35.6024 0.0000
# 6 0.0000 0.0000 0.0000 13.3610 0.0000 9.5759
#
#
#
# Elastic Compliance Matrix: (Units=1/GPa)
#
#
# Indices 1 2 3 4 5 6 
#
# 1 0.012269 -0.006017 -0.003495 0.000000 -0.006321 0.000000
# 2 -0.006017 0.018311 -0.000089 0.000000 0.002843 0.000000
# 3 -0.003495 -0.000089 0.012646 0.000000 0.007942 0.000000
# 4 0.000000 0.000000 0.000000 -0.074083 0.000000 0.103366
# 5 -0.006321 0.002843 0.007942 0.000000 0.034613 0.000000
# 6 0.000000 0.000000 0.000000 0.103366 0.000000 -0.039796
#
#
# Mechanical properties :
#
#
# Convention : Reuss Voigt Hill
#
# Bulk Modulus (GPa) = 41.62538 46.05247 43.83893
# Shear Modulus (GPa) = -566.34307 23.79946 -271.27180
#
# Velocity S-wave (km/s) = -14.79255 3.03240 -10.23778
# Velocity P-wave (km/s) = 16.60351 5.48216 11.08203
#
# Compressibility (1/GPa) = 0.02402380
#
# Stress axis : x y z
#
# Youngs Moduli (GPa) = 81.50563 54.61207 79.07604
#
# Poissons Ratio (x) = 0.32860 0.27636
# Poissons Ratio (y) = 0.49042 0.00706
# Poissons Ratio (z) = 0.28486 0.00488
#
# Static dielectric constant tensor:
#      x y z
#    x 2.229880 0.000000 -0.076940 
#    y 0.000000 2.139170 0.000000 
#    z -0.076940 0.000000 2.006310 
# 
# From -- ./inp_files/246451.got.cif
#   From: 2010.05.17/outbox.cif.g08.bks.cpg/sg15_124_cif.got.tgz:246451.got - 2010.06.03 18:47:42.
