data_PCOD9287894
_publ_section_title
;
Structure prediction by ZEFSAII (Michael W. Deem and Ramdas Pophale) SiO2 
 PCOD9287894
Probable space group: C 2/C
;
_chemical_formula_sum "Si O2"
_cell_formula_units_Z 36
_cell_length_a 5.186599
_cell_length_b 29.280056
_cell_length_c 10.866142
_cell_angle_alpha 90.000000
_cell_angle_beta 58.678038
_cell_angle_gamma 90.000000
_cell_volume 1409.677717
_symmetry_space_group_name_H-M "C 2/C"
_symmetry_group_IT_number 15
_symmetry_cell_setting 'monoclinic'
loop_
_space_group_symop_operation_xyz
x,y,z
-x,y,1/2-z
-x,-y,-z
x,-y,1/2+z
1/2+x,1/2+y,z
1/2-x,1/2+y,1/2-z
1/2-x,1/2-y,-z
1/2+x,1/2-y,1/2+z
loop_
_atom_site_type_symbol
_atom_site_label
_atom_site_fract_x
_atom_site_fract_y
_atom_site_fract_z
Si Si1 0.500000 0.182785 0.750000
Si Si2 0.000000 0.504850 0.250000
Si Si3 0.000000 0.947827 0.250000
Si Si4 0.606474 0.257074 0.902998
Si Si5 0.441248 0.643926 0.433320
Si Si6 0.930605 0.586751 0.443861
O O1 0.692917 0.217539 0.787006
O O2 0.727900 0.155503 0.605375
O O3 0.694885 0.475686 0.304064
O O4 0.002529 0.537455 0.369214
O O5 0.253707 0.919416 0.115762
O O6 0.750000 0.250000 0.000000
O O7 0.618210 0.309325 0.856292
O O8 0.250000 0.250000 0.000000
O O9 0.692591 0.608512 0.410516
O O10 0.212128 0.620151 0.395791
#
# Coordination Sequence:
#
# PCOD9287894 Si02
#       6
#     4   4   4   8   8   8
#     4  10  22  41  65  90 132 182 228 278 331 397
#     4  12  26  45  68  98 137 174 215 274 352 425
#     4  12  24  46  71  98 129 174 223 270 337 432
#     4  10  22  38  59  89 125 171 218 267 328 388
#     4  11  23  41  63  97 131 170 226 281 329 394
#     4  12  25  43  69 100 132 172 220 282 342 397
#
# _framework density 25.537751
#
# number of rings (size 3 to 8) (size 9 to 14) (size 15 to 20)
#    0.000    0.889    0.000    8.000    0.000    8.889 
#    0.000    0.000    0.000    0.000    0.000    0.000 
#    0.000    0.000    0.000    0.000    0.000    0.000 
#
# Total GULP energy -100861.788243 kJ/mol
# GULP energy per Si atom -5603.432680 kJ/mol
# Density = 2.547963 g / cm^3
# Si number density = 25.537751 Si / 1000 Ang^3
#
#
#
# Elastic Constant Matrix: (Units=GPa)
#
#
# Indices 1 2 3 4 5 6 
#
# 1 202.0285 52.5521 39.0573 0.0000 22.6833 0.0000
# 2 52.5521 82.0437 9.2969 0.0000 2.3294 0.0000
# 3 39.0573 9.2969 102.2616 0.0000 8.6866 0.0000
# 4 0.0000 0.0000 0.0000 11.6106 0.0000 192.5937
# 5 22.6833 2.3294 8.6866 0.0000 49.2956 0.0000
# 6 0.0000 0.0000 0.0000 192.5937 0.0000 -892.8502
#
#
#
# Elastic Compliance Matrix: (Units=1/GPa)
#
#
# Indices 1 2 3 4 5 6 
#
# 1 0.006643 -0.003961 -0.001963 0.000000 -0.002524 0.000000
# 2 -0.003961 0.014685 0.000083 0.000000 0.001114 0.000000
# 3 -0.001963 0.000083 0.010603 0.000000 -0.000969 0.000000
# 4 0.000000 0.000000 0.000000 0.018813 0.000000 0.004058
# 5 -0.002524 0.001114 -0.000969 0.000000 0.021565 0.000000
# 6 0.000000 0.000000 0.000000 0.004058 0.000000 -0.000245
#
#
# Mechanical properties :
#
#
# Convention : Reuss Voigt Hill
#
# Bulk Modulus (GPa) = 49.38298 65.34960 57.36629
# Shear Modulus (GPa) = 55.25131 -147.36031 -46.05450
#
# Velocity S-wave (km/s) = 4.65641 -7.60449 -4.25124
# Velocity P-wave (km/s) = 6.94901 7.17351 1.25908
#
# Compressibility (1/GPa) = 0.02024989
#
# Stress axis : x y z
#
# Youngs Moduli (GPa) = 150.53601 68.09790 94.31089
#
# Poissons Ratio (x) = 0.26973 0.18510
# Poissons Ratio (y) = 0.59627 -0.00784
# Poissons Ratio (z) = 0.29545 -0.00566
#
# Static dielectric constant tensor:
#      x y z
#    x 1.863000 0.000000 0.019650 
#    y 0.000000 2.060130 0.000000 
#    z 0.019650 0.000000 2.136470 
# 
# From -- ./inp_files/72717.got.cif
#   From: 2010.05.17/outbox.cif.g08.bks.cpg/sg15_37_cif.got.tgz:72717.got - 2010.06.03 18:47:42.
