data_PCOD9287691
_publ_section_title
;
Structure prediction by ZEFSAII (Michael W. Deem and Ramdas Pophale) SiO2 
 PCOD9287691
Probable space group: C 2/C
;
_chemical_formula_sum "Si O2"
_cell_formula_units_Z 64
_cell_length_a 18.342947
_cell_length_b 21.234133
_cell_length_c 8.262488
_cell_angle_alpha 90.000000
_cell_angle_beta 58.298645
_cell_angle_gamma 90.000000
_cell_volume 2738.049497
_symmetry_space_group_name_H-M "C 2/C"
_symmetry_group_IT_number 15
_symmetry_cell_setting 'monoclinic'
loop_
_space_group_symop_operation_xyz
x,y,z
-x,y,1/2-z
-x,-y,-z
x,-y,1/2+z
1/2+x,1/2+y,z
1/2-x,1/2+y,1/2-z
1/2-x,1/2-y,-z
1/2+x,1/2-y,1/2+z
loop_
_atom_site_type_symbol
_atom_site_label
_atom_site_fract_x
_atom_site_fract_y
_atom_site_fract_z
Si Si1 0.830211 0.792567 0.099331
Si Si2 0.388739 0.963542 0.005853
Si Si3 0.372660 0.517824 0.267645
Si Si4 0.838621 0.784226 0.696749
Si Si5 0.925099 0.902365 0.440509
Si Si6 0.510629 0.215073 0.544942
Si Si7 0.273010 0.573744 0.658450
Si Si8 0.420665 0.082285 0.134345
O O1 0.753556 0.745373 0.236528
O O2 0.805251 0.860900 0.191102
O O3 0.835364 0.794339 0.896154
O O4 0.923244 0.772338 0.049919
O O5 0.327898 0.931735 0.208716
O O6 0.386370 0.039146 0.028028
O O7 0.484679 0.943369 0.934652
O O8 0.365792 0.936359 0.856627
O O9 0.402243 0.460442 0.346557
O O10 0.314642 0.565219 0.436635
O O11 0.310016 0.484410 0.215207
O O12 0.442571 0.559578 0.089323
O O13 0.859650 0.847844 0.572981
O O14 0.918264 0.734933 0.581611
O O15 0.000000 0.870396 0.250000
O O16 0.500000 0.203113 0.750000
O O17 0.561243 0.154928 0.416843
#
# Coordination Sequence:
#
# PCOD9287691 Si02
#       8
#     8   8   8   8   8   8   8   8
#     4  10  22  42  68  93 130 172 222 267 318 393
#     4  10  22  37  63  92 129 171 207 273 335 382
#     4  10  24  40  65  99 124 167 218 270 338 392
#     4  10  22  44  66  95 126 179 218 263 323 394
#     4  11  23  44  67  96 131 170 217 277 335 397
#     4  10  23  41  67  95 128 177 219 264 325 396
#     4  11  21  42  64  94 130 167 214 272 328 392
#     4  10  22  41  59  95 128 167 224 265 329 396
#
# _framework density 23.374303000000001
#
# number of rings (size 3 to 8) (size 9 to 14) (size 15 to 20)
#    0.000    1.750    1.250    1.875    5.250    3.000 
#    6.750    1.250    0.000    0.000    0.000    0.000 
#    0.000    0.000    0.000    0.000    0.000    0.000 
#
# Total GULP energy -178642.099372 kJ/mol
# GULP energy per Si atom -5582.565605 kJ/mol
# Density = 2.332110 g / cm^3
# Si number density = 23.374303 Si / 1000 Ang^3
#
#
#
# Elastic Constant Matrix: (Units=GPa)
#
#
# Indices 1 2 3 4 5 6 
#
# 1 29.4775 -2.5095 29.0625 0.0000 -4.6237 0.0000
# 2 -2.5095 106.8307 49.2455 0.0000 0.6193 0.0000
# 3 29.0625 49.2455 135.9951 0.0000 -12.9189 0.0000
# 4 0.0000 0.0000 0.0000 21.8282 0.0000 -2.6229
# 5 -4.6237 0.6193 -12.9189 0.0000 24.1810 0.0000
# 6 0.0000 0.0000 0.0000 -2.6229 0.0000 20.0563
#
#
#
# Elastic Compliance Matrix: (Units=1/GPa)
#
#
# Indices 1 2 3 4 5 6 
#
# 1 0.046935 0.006739 -0.012257 0.000000 0.002254 0.000000
# 2 0.006739 0.012360 -0.006135 0.000000 -0.002306 0.000000
# 3 -0.012257 -0.006135 0.012627 0.000000 0.004560 0.000000
# 4 0.000000 0.000000 0.000000 0.046544 0.000000 0.006087
# 5 0.002254 -0.002306 0.004560 0.000000 0.044281 0.000000
# 6 0.000000 0.000000 0.000000 0.006087 0.000000 0.050656
#
#
# Mechanical properties :
#
#
# Convention : Reuss Voigt Hill
#
# Bulk Modulus (GPa) = 20.56831 47.10003 33.83417
# Shear Modulus (GPa) = 19.76958 26.31342 23.04150
#
# Velocity S-wave (km/s) = 2.91139 3.35885 3.14309
# Velocity P-wave (km/s) = 4.48556 5.93604 5.26103
#
# Compressibility (1/GPa) = 0.04861849
#
# Stress axis : x y z
#
# Youngs Moduli (GPa) = 21.30585 80.90386 79.19412
#
# Poissons Ratio (x) = -0.54524 0.97064
# Poissons Ratio (y) = -0.14359 0.48586
# Poissons Ratio (z) = 0.26114 0.49635
#
# Static dielectric constant tensor:
#      x y z
#    x 1.885040 0.000000 0.011790 
#    y 0.000000 1.871290 0.000000 
#    z 0.011790 0.000000 1.965950 
# 
# From -- ./inp_files/58625.got.cif
#   From: 2010.05.17/outbox.cif.g08.bks.cpg/sg15_30_cif.got.tgz:58625.got - 2010.06.03 18:47:42.
