data_PCOD9287323
_publ_section_title
;
Structure prediction by ZEFSAII (Michael W. Deem and Ramdas Pophale) SiO2 
 PCOD9287323
Probable space group: C 2/C
;
_chemical_formula_sum "Si O2"
_cell_formula_units_Z 56
_cell_length_a 11.750188
_cell_length_b 20.883536
_cell_length_c 12.255355
_cell_angle_alpha 90.000000
_cell_angle_beta 106.812087
_cell_angle_gamma 90.000000
_cell_volume 2878.750186
_symmetry_space_group_name_H-M "C 2/C"
_symmetry_group_IT_number 15
_symmetry_cell_setting 'monoclinic'
loop_
_space_group_symop_operation_xyz
x,y,z
-x,y,1/2-z
-x,-y,-z
x,-y,1/2+z
1/2+x,1/2+y,z
1/2-x,1/2+y,1/2-z
1/2-x,1/2-y,-z
1/2+x,1/2-y,1/2+z
loop_
_atom_site_type_symbol
_atom_site_label
_atom_site_fract_x
_atom_site_fract_y
_atom_site_fract_z
Si Si1 0.874929 0.164411 0.148468
Si Si2 0.037997 0.724941 0.962937
Si Si3 0.913745 0.218852 0.623809
Si Si4 0.293597 0.230612 0.774439
Si Si5 0.127928 0.617349 0.844220
Si Si6 0.959573 0.923794 0.111707
Si Si7 0.826638 0.956501 0.495230
O O1 0.890429 0.211027 0.047572
O O2 0.784271 0.206187 0.197412
O O3 0.837088 0.095768 0.094669
O O4 0.000000 0.156826 0.250000
O O5 0.103905 0.661066 0.944735
O O6 0.929508 0.729014 0.848108
O O7 0.975847 0.730989 0.061348
O O8 0.787691 0.234549 0.642062
O O9 0.914518 0.147927 0.573098
O O10 0.000000 0.213504 0.750000
O O11 0.286608 0.163611 0.706455
O O12 0.000000 0.605559 0.750000
O O13 0.201348 0.555394 0.900522
O O14 0.000000 0.928491 0.250000
O O15 0.857356 0.974677 0.053598
O O16 0.070892 0.940144 0.064905
#
# Coordination Sequence:
#
# PCOD9287323 Si02
#       7
#     8   8   8   8   8   8   8
#     4   9  18  32  52  83 112 141 185 233 285 341
#     4   9  18  33  50  78 113 149 179 230 294 345
#     4  11  20  31  51  80 117 151 184 233 282 361
#     4   9  19  32  52  78 112 148 182 237 291 342
#     4   9  19  34  55  83 111 146 197 235 284 348
#     4  10  22  36  53  86 116 150 193 234 295 336
#     4  11  20  35  60  78 114 155 187 245 278 344
#
# _framework density 19.452885999999999
#
# number of rings (size 3 to 8) (size 9 to 14) (size 15 to 20)
#    0.000    2.286    1.429    4.286    2.000    1.143 
#    0.000    0.000    0.000    7.714    0.000    1.000 
#    0.000    0.000    0.000    0.000    0.000    0.000 
#
# Total GULP energy -156097.729844 kJ/mol
# GULP energy per Si atom -5574.918923 kJ/mol
# Density = 1.940861 g / cm^3
# Si number density = 19.452886 Si / 1000 Ang^3
#
#
#
# Elastic Constant Matrix: (Units=GPa)
#
#
# Indices 1 2 3 4 5 6 
#
# 1 67.7619 19.3787 21.9684 0.0000 -10.6945 0.0000
# 2 19.3787 48.5418 18.7501 0.0000 4.9689 0.0000
# 3 21.9684 18.7501 62.3309 0.0000 -6.1531 0.0000
# 4 0.0000 0.0000 0.0000 5.9627 0.0000 -3.2828
# 5 -10.6945 4.9689 -6.1531 0.0000 41.1887 0.0000
# 6 0.0000 0.0000 0.0000 -3.2828 0.0000 12.7905
#
#
#
# Elastic Compliance Matrix: (Units=1/GPa)
#
#
# Indices 1 2 3 4 5 6 
#
# 1 0.018728 -0.006370 -0.004190 0.000000 0.005005 0.000000
# 2 -0.006370 0.026116 -0.006176 0.000000 -0.005727 0.000000
# 3 -0.004190 -0.006176 0.019634 0.000000 0.002590 0.000000
# 4 0.000000 0.000000 0.000000 0.195308 0.000000 0.050127
# 5 0.005005 -0.005727 0.002590 0.000000 0.026656 0.000000
# 6 0.000000 0.000000 0.000000 0.050127 0.000000 0.091048
#
#
# Mechanical properties :
#
#
# Convention : Reuss Voigt Hill
#
# Bulk Modulus (GPa) = 32.25381 33.20320 32.72851
# Shear Modulus (GPa) = 11.86809 19.89088 15.87948
#
# Velocity S-wave (km/s) = 2.47269 3.20115 2.86020
# Velocity P-wave (km/s) = 4.97682 5.54696 5.26960
#
# Compressibility (1/GPa) = 0.03100408
#
# Stress axis : x y z
#
# Youngs Moduli (GPa) = 53.39681 38.29096 50.93256
#
# Poissons Ratio (x) = 0.24392 0.21342
# Poissons Ratio (y) = 0.34015 0.31457
# Poissons Ratio (z) = 0.22374 0.23649
#
# Static dielectric constant tensor:
#      x y z
#    x 1.507380 0.000000 0.111110 
#    y 0.000000 1.678690 0.000000 
#    z 0.111110 0.000000 1.695700 
# 
# From -- ./inp_files/89049.got.cif
#   From: 2010.05.17/outbox.cif.g08.bks.cpg/sg15_45_cif.got.tgz:89049.got - 2010.06.03 18:47:42.
