data_PCOD9287917
_publ_section_title
;
Structure prediction by ZEFSAII (Michael W. Deem and Ramdas Pophale) SiO2 
 PCOD9287917
Probable space group: C 2/C
;
_chemical_formula_sum "Si O2"
_cell_formula_units_Z 40
_cell_length_a 18.687460
_cell_length_b 15.852825
_cell_length_c 13.485012
_cell_angle_alpha 90.000000
_cell_angle_beta 157.356057
_cell_angle_gamma 90.000000
_cell_volume 1538.057926
_symmetry_space_group_name_H-M "C 2/C"
_symmetry_group_IT_number 15
_symmetry_cell_setting 'monoclinic'
loop_
_space_group_symop_operation_xyz
x,y,z
-x,y,1/2-z
-x,-y,-z
x,-y,1/2+z
1/2+x,1/2+y,z
1/2-x,1/2+y,1/2-z
1/2-x,1/2-y,-z
1/2+x,1/2-y,1/2+z
loop_
_atom_site_type_symbol
_atom_site_label
_atom_site_fract_x
_atom_site_fract_y
_atom_site_fract_z
Si Si1 0.720523 0.838399 0.516146
Si Si2 0.349940 0.057682 0.742253
Si Si3 0.698134 0.359229 0.355704
Si Si4 0.748637 0.477762 0.804400
Si Si5 0.532566 0.180609 0.135583
O O1 0.500000 0.839386 0.250000
O O2 0.750000 0.750000 0.500000
O O3 0.776566 0.903100 0.502310
O O4 0.793526 0.884291 0.708957
O O5 0.231017 0.003598 0.667241
O O6 0.521491 0.013109 0.903293
O O7 0.458723 0.132752 0.942620
O O8 0.657728 0.451977 0.259798
O O9 0.560505 0.280957 0.163694
O O10 0.778879 0.355284 0.571288
O O11 0.868538 0.332913 0.503158
#
# Coordination Sequence:
#
# PCOD9287917 Si02
#       5
#     8   8   8   8   8
#     4  10  22  38  60  82 114 150 189 236 282 332
#     4   9  19  32  58  81 106 147 188 228 270 332
#     4   9  18  32  52  75 112 134 176 223 267 320
#     4   9  19  31  54  82 106 141 188 227 268 328
#     4   9  18  30  52  78 105 139 173 218 270 322
#
# _framework density 26.006820999999999
#
# number of rings (size 3 to 8) (size 9 to 14) (size 15 to 20)
#    0.000    2.800    0.000    0.000   19.600    6.400 
#    0.000    0.000    8.800    3.600    0.000    0.000 
#    0.000    0.000    0.000    0.000    0.000    0.000 
#
# Total GULP energy -111482.619695 kJ/mol
# GULP energy per Si atom -5574.130985 kJ/mol
# Density = 2.594763 g / cm^3
# Si number density = 26.006821 Si / 1000 Ang^3
#
#
#
# Elastic Constant Matrix: (Units=GPa)
#
#
# Indices 1 2 3 4 5 6 
#
# 1 120.2196 76.0196 36.1161 0.0000 -25.7032 0.0000
# 2 76.0196 150.3116 36.5306 0.0000 -9.8290 0.0000
# 3 36.1161 36.5306 52.5160 0.0000 -6.0443 0.0000
# 4 0.0000 0.0000 0.0000 35.1784 0.0000 -5.8970
# 5 -25.7032 -9.8290 -6.0443 0.0000 28.5423 0.0000
# 6 0.0000 0.0000 0.0000 -5.8970 0.0000 70.7759
#
#
#
# Elastic Compliance Matrix: (Units=1/GPa)
#
#
# Indices 1 2 3 4 5 6 
#
# 1 0.016338 -0.006144 -0.005650 0.000000 0.011401 0.000000
# 2 -0.006144 0.010391 -0.003308 0.000000 -0.002656 0.000000
# 3 -0.005650 -0.003308 0.025124 0.000000 -0.000907 0.000000
# 4 0.000000 0.000000 0.000000 0.028829 0.000000 0.002402
# 5 0.011401 -0.002656 -0.000907 0.000000 0.044196 0.000000
# 6 0.000000 0.000000 0.000000 0.002402 0.000000 0.014329
#
#
# Mechanical properties :
#
#
# Convention : Reuss Voigt Hill
#
# Bulk Modulus (GPa) = 46.19228 68.93112 57.56170
# Shear Modulus (GPa) = 28.30812 38.52471 33.41642
#
# Velocity S-wave (km/s) = 3.30280 3.85298 3.58845
# Velocity P-wave (km/s) = 5.68725 6.80856 6.27301
#
# Compressibility (1/GPa) = 0.02164864
#
# Stress axis : x y z
#
# Youngs Moduli (GPa) = 61.20577 96.24038 39.80274
#
# Poissons Ratio (x) = 0.59134 0.22488
# Poissons Ratio (y) = 0.37608 0.13166
# Poissons Ratio (z) = 0.34580 0.31835
#
# Static dielectric constant tensor:
#      x y z
#    x 2.097940 0.000000 -0.063040 
#    y 0.000000 2.231980 0.000000 
#    z -0.063040 0.000000 2.178290 
# 
# From -- ./inp_files/168346.got.cif
#   From: 2010.05.17/outbox.cif.g08.bks.cpg/sg15_85_cif.got.tgz:168346.got - 2010.06.03 18:47:42.
