data_PCOD9287786
_publ_section_title
;
Structure prediction by ZEFSAII (Michael W. Deem and Ramdas Pophale) SiO2 
 PCOD9287786
Probable space group: C 2/C
;
_chemical_formula_sum "Si O2"
_cell_formula_units_Z 40
_cell_length_a 15.701670
_cell_length_b 24.019501
_cell_length_c 12.941153
_cell_angle_alpha 90.000000
_cell_angle_beta 152.268313
_cell_angle_gamma 90.000000
_cell_volume 2271.147689
_symmetry_space_group_name_H-M "C 2/C"
_symmetry_group_IT_number 15
_symmetry_cell_setting 'monoclinic'
loop_
_space_group_symop_operation_xyz
x,y,z
-x,y,1/2-z
-x,-y,-z
x,-y,1/2+z
1/2+x,1/2+y,z
1/2-x,1/2+y,1/2-z
1/2-x,1/2-y,-z
1/2+x,1/2-y,1/2+z
loop_
_atom_site_type_symbol
_atom_site_label
_atom_site_fract_x
_atom_site_fract_y
_atom_site_fract_z
Si Si1 0.568727 0.821826 0.941631
Si Si2 0.066445 0.523720 0.961948
Si Si3 0.485124 0.305837 0.358696
Si Si4 0.285805 0.491405 0.014775
Si Si5 0.278165 0.895900 0.725279
O O1 0.500000 0.828685 0.750000
O O2 0.512316 0.759153 0.913166
O O3 0.470552 0.868076 0.903168
O O4 0.785006 0.824980 0.174974
O O5 0.870053 0.534129 0.695720
O O6 0.192971 0.482707 0.028147
O O7 0.196745 0.573826 0.138233
O O8 0.000000 0.500000 0.000000
O O9 0.500000 0.309693 0.250000
O O10 0.633384 0.346309 0.566859
O O11 0.500000 0.507379 0.250000
O O12 0.273513 0.439070 0.922912
#
# Coordination Sequence:
#
# PCOD9287786 Si02
#       5
#     8   8   8   8   8
#     4  11  20  31  49  75 117 146 180 209 263 326
#     4   9  22  37  53  81 110 141 190 235 267 324
#     4  11  19  32  49  76 112 152 177 210 260 335
#     4  10  22  38  56  76 111 148 189 228 273 322
#     4  11  22  33  56  82 111 149 180 219 274 319
#
# _framework density 17.61224
#
# number of rings (size 3 to 8) (size 9 to 14) (size 15 to 20)
#    0.000    1.600    4.000    1.800    5.600    4.800 
#    0.000    0.000    0.000    0.000    0.000    5.600 
#    0.000    0.000    0.000    0.000    0.000    0.000 
#
# Total GULP energy -111398.868567 kJ/mol
# GULP energy per Si atom -5569.943428 kJ/mol
# Density = 1.757215 g / cm^3
# Si number density = 17.612240 Si / 1000 Ang^3
#
#
#
# Elastic Constant Matrix: (Units=GPa)
#
#
# Indices 1 2 3 4 5 6 
#
# 1 58.5929 0.7649 41.8104 0.0000 18.9085 0.0000
# 2 0.7649 41.1780 16.1618 0.0000 -5.5745 0.0000
# 3 41.8104 16.1618 83.1077 0.0000 21.9324 0.0000
# 4 0.0000 0.0000 0.0000 10.8055 0.0000 10.6812
# 5 18.9085 -5.5745 21.9324 0.0000 29.2811 0.0000
# 6 0.0000 0.0000 0.0000 10.6812 0.0000 20.7988
#
#
#
# Elastic Compliance Matrix: (Units=1/GPa)
#
#
# Indices 1 2 3 4 5 6 
#
# 1 0.029043 0.003484 -0.013105 0.000000 -0.008276 0.000000
# 2 0.003484 0.029904 -0.010565 0.000000 0.011357 0.000000
# 3 -0.013105 -0.010565 0.023653 0.000000 -0.011266 0.000000
# 4 0.000000 0.000000 0.000000 0.187961 0.000000 -0.096527
# 5 -0.008276 0.011357 -0.011266 0.000000 0.050097 0.000000
# 6 0.000000 0.000000 0.000000 -0.096527 0.000000 0.097651
#
#
# Mechanical properties :
#
#
# Convention : Reuss Voigt Hill
#
# Bulk Modulus (GPa) = 23.68098 33.37254 28.52676
# Shear Modulus (GPa) = 10.57625 20.45319 15.51472
#
# Velocity S-wave (km/s) = 2.45318 3.41149 2.97122
# Velocity P-wave (km/s) = 4.63671 5.87429 5.29180
#
# Compressibility (1/GPa) = 0.04222798
#
# Stress axis : x y z
#
# Youngs Moduli (GPa) = 34.43129 33.44008 42.27787
#
# Poissons Ratio (x) = -0.11649 0.55404
# Poissons Ratio (y) = -0.11994 0.44667
# Poissons Ratio (z) = 0.45121 0.35330
#
# Static dielectric constant tensor:
#      x y z
#    x 1.633880 0.000000 -0.017270 
#    y 0.000000 1.631140 0.000000 
#    z -0.017270 0.000000 1.650440 
# 
# From -- ./inp_files/100740.got.cif
#   From: 2010.05.17/outbox.cif.g08.bks.cpg/sg15_51_cif.got.tgz:100740.got - 2010.06.03 18:47:42.
