data_PCOD9287950
_publ_section_title
;
Structure prediction by ZEFSAII (Michael W. Deem and Ramdas Pophale) SiO2 
 PCOD9287950
Probable space group: C 2/C
;
_chemical_formula_sum "Si O2"
_cell_formula_units_Z 48
_cell_length_a 15.121143
_cell_length_b 18.676447
_cell_length_c 16.853012
_cell_angle_alpha 90.000000
_cell_angle_beta 33.600700
_cell_angle_gamma 90.000000
_cell_volume 2633.885667
_symmetry_space_group_name_H-M "C 2/C"
_symmetry_group_IT_number 15
_symmetry_cell_setting 'monoclinic'
loop_
_space_group_symop_operation_xyz
x,y,z
-x,y,1/2-z
-x,-y,-z
x,-y,1/2+z
1/2+x,1/2+y,z
1/2-x,1/2+y,1/2-z
1/2-x,1/2-y,-z
1/2+x,1/2-y,1/2+z
loop_
_atom_site_type_symbol
_atom_site_label
_atom_site_fract_x
_atom_site_fract_y
_atom_site_fract_z
Si Si1 0.163083 0.968677 0.578331
Si Si2 0.741337 0.818308 0.741577
Si Si3 0.665628 0.066925 0.170523
Si Si4 0.469222 0.322207 0.865124
Si Si5 0.003114 0.462197 0.082842
Si Si6 0.023840 0.301996 0.436180
O O1 0.145602 0.890815 0.549275
O O2 0.316098 0.964821 0.520725
O O3 0.000000 0.979334 0.750000
O O4 0.206711 0.031470 0.484245
O O5 0.733591 0.868143 0.671229
O O6 0.813057 0.740333 0.670226
O O7 0.866411 0.847235 0.714584
O O8 0.573532 0.812264 0.910559
O O9 0.500000 0.087913 0.250000
O O10 0.609147 0.005788 0.273937
O O11 0.500000 0.303613 0.750000
O O12 0.427389 0.251701 0.948161
O O13 0.951846 0.379760 0.117739
O O14 0.000000 0.500000 0.000000
#
# Coordination Sequence:
#
# PCOD9287950 Si02
#       6
#     8   8   8   8   8   8
#     4  10  22  40  61  96 124 162 208 258 313 367
#     4  10  22  41  58  91 124 160 204 260 298 375
#     4  10  23  42  64  89 121 167 214 257 309 365
#     4   9  21  35  60  91 127 153 192 254 304 373
#     4  11  22  39  65  87 130 167 203 255 309 377
#     4  10  22  38  60  91 124 162 204 243 323 358
#
# _framework density 18.224025999999999
#
# number of rings (size 3 to 8) (size 9 to 14) (size 15 to 20)
#    1.000    1.000    1.667    2.000    2.333    5.333 
#    3.000    0.833    0.000    0.000    0.000    0.000 
#    0.000    0.000    0.000    0.000    0.000    0.000 
#
# Total GULP energy -133759.118944 kJ/mol
# GULP energy per Si atom -5573.296623 kJ/mol
# Density = 1.818255 g / cm^3
# Si number density = 18.224026 Si / 1000 Ang^3
#
#
#
# Elastic Constant Matrix: (Units=GPa)
#
#
# Indices 1 2 3 4 5 6 
#
# 1 73.5202 53.9919 15.1730 0.0058 16.1261 -0.0057
# 2 53.9919 62.3920 25.9043 0.0083 11.7313 -0.0129
# 3 15.1730 25.9043 44.9689 -0.0023 3.1745 0.0111
# 4 0.0058 0.0083 -0.0023 53.1184 -0.0014 -10.4770
# 5 16.1261 11.7313 3.1745 -0.0014 15.7171 -0.0005
# 6 -0.0057 -0.0129 0.0111 -10.4770 -0.0005 35.8712
#
#
#
# Elastic Compliance Matrix: (Units=1/GPa)
#
#
# Indices 1 2 3 4 5 6 
#
# 1 0.043639 -0.037792 0.008334 -0.000001 -0.018249 -0.000010
# 2 -0.037792 0.057036 -0.020123 -0.000002 0.000268 0.000020
# 3 0.008334 -0.020123 0.031003 0.000001 0.000207 -0.000015
# 4 -0.000001 -0.000002 0.000001 0.019977 0.000004 0.005835
# 5 -0.018249 0.000268 0.000207 0.000004 0.082107 0.000000
# 6 -0.000010 0.000020 -0.000015 0.005835 0.000000 0.029582
#
#
# Mechanical properties :
#
#
# Convention : Reuss Voigt Hill
#
# Bulk Modulus (GPa) = 30.75452 41.22439 35.98946
# Shear Modulus (GPa) = 13.39248 26.66214 20.02731
#
# Velocity S-wave (km/s) = 2.71381 3.82910 3.31864
# Velocity P-wave (km/s) = 5.17031 6.49764 5.87160
#
# Compressibility (1/GPa) = 0.03251555
#
# Stress axis : x y z
#
# Youngs Moduli (GPa) = 22.91554 17.53270 32.25512
#
# Poissons Ratio (x) = 0.66260 -0.26883
# Poissons Ratio (y) = 0.86603 0.64908
# Poissons Ratio (z) = -0.19099 0.35281
#
# Static dielectric constant tensor:
#      x y z
#    x 1.632960 0.000000 -0.007770 
#    y 0.000000 1.641590 0.000000 
#    z -0.007770 0.000000 1.620730 
# 
# From -- ./inp_files/206683.got.cif
#   From: 2010.05.17/outbox.cif.g08.bks.cpg/sg15_104_cif.got.tgz:206683.got - 2010.06.03 18:47:42.
