data_PCOD9287718
_publ_section_title
;
Structure prediction by ZEFSAII (Michael W. Deem and Ramdas Pophale) SiO2 
 PCOD9287718
Probable space group: C 2/C
;
_chemical_formula_sum "Si O2"
_cell_formula_units_Z 60
_cell_length_a 14.565723
_cell_length_b 12.007051
_cell_length_c 16.146930
_cell_angle_alpha 90.000000
_cell_angle_beta 124.256238
_cell_angle_gamma 90.000000
_cell_volume 2334.082389
_symmetry_space_group_name_H-M "C 2/C"
_symmetry_group_IT_number 15
_symmetry_cell_setting 'monoclinic'
loop_
_space_group_symop_operation_xyz
x,y,z
-x,y,1/2-z
-x,-y,-z
x,-y,1/2+z
1/2+x,1/2+y,z
1/2-x,1/2+y,1/2-z
1/2-x,1/2-y,-z
1/2+x,1/2-y,1/2+z
loop_
_atom_site_type_symbol
_atom_site_label
_atom_site_fract_x
_atom_site_fract_y
_atom_site_fract_z
Si Si1 0.854602 0.282027 0.434642
Si Si2 0.911054 0.258362 0.891865
Si Si3 0.380210 0.739179 0.689748
Si Si4 0.094691 0.940989 0.991077
Si Si5 0.685154 0.006580 0.171544
Si Si6 0.500000 0.831319 0.250000
Si Si7 0.900976 0.864109 0.798536
Si Si8 0.663739 0.009069 0.358242
O O1 0.732321 0.299369 0.408849
O O2 0.868897 0.400064 0.397669
O O3 0.860802 0.184207 0.368074
O O4 0.955376 0.253296 0.546040
O O5 0.855360 0.231588 0.776096
O O6 0.877466 0.173550 0.946280
O O7 0.878672 0.384443 0.891977
O O8 0.500000 0.683918 0.750000
O O9 0.386949 0.867711 0.663740
O O10 0.212876 0.000531 0.041147
O O11 0.024356 0.913533 0.873818
O O12 0.000000 0.000000 0.000000
O O13 0.814222 0.043205 0.224451
O O14 0.675938 0.990539 0.265584
O O15 0.584065 0.746977 0.247398
O O16 0.576836 0.914913 0.343342
#
# Coordination Sequence:
#
# PCOD9287718 Si02
#       8
#     8   8   8   8   8   4   8   8
#     4  11  21  40  64  90 125 169 217 271 325 391
#     4  10  22  37  64  97 121 159 218 270 314 399
#     4  11  23  41  63  93 123 166 222 269 321 387
#     4  11  21  40  68  96 123 171 225 265 325 404
#     4  11  20  40  65  90 123 173 210 262 329 391
#     4  12  24  40  62  98 134 172 214 282 338 380
#     4  11  23  38  64  95 130 168 222 269 332 394
#     4  11  20  38  67  88 125 173 210 261 327 398
#
# _framework density 25.706033999999999
#
# number of rings (size 3 to 8) (size 9 to 14) (size 15 to 20)
#    0.000    1.067    6.000    2.800    0.000    1.067 
#    1.200    1.333    0.000    0.000    0.000    0.000 
#    0.000    0.000    0.000    0.000    0.000    0.000 
#
# Total GULP energy -167766.344275 kJ/mol
# GULP energy per Si atom -5592.211476 kJ/mol
# Density = 2.564753 g / cm^3
# Si number density = 25.706034 Si / 1000 Ang^3
#
#
#
# Elastic Constant Matrix: (Units=GPa)
#
#
# Indices 1 2 3 4 5 6 
#
# 1 56.3877 -1.0915 25.9890 0.0000 27.6850 0.0000
# 2 -1.0915 65.5821 2.4691 0.0000 -0.3245 0.0000
# 3 25.9890 2.4691 122.9035 0.0000 41.2787 0.0000
# 4 0.0000 0.0000 0.0000 34.8524 0.0000 15.0066
# 5 27.6850 -0.3245 41.2787 0.0000 45.3541 0.0000
# 6 0.0000 0.0000 0.0000 15.0066 0.0000 33.3906
#
#
#
# Elastic Compliance Matrix: (Units=1/GPa)
#
#
# Indices 1 2 3 4 5 6 
#
# 1 0.025337 0.000356 -0.000247 0.000000 -0.015239 0.000000
# 2 0.000356 0.015274 -0.000498 0.000000 0.000346 0.000000
# 3 -0.000247 -0.000498 0.011737 0.000000 -0.010535 0.000000
# 4 0.000000 0.000000 0.000000 0.035577 0.000000 -0.015989
# 5 -0.015239 0.000346 -0.010535 0.000000 0.040942 0.000000
# 6 0.000000 0.000000 0.000000 -0.015989 0.000000 0.037134
#
#
# Mechanical properties :
#
#
# Convention : Reuss Voigt Hill
#
# Bulk Modulus (GPa) = 19.39106 33.28962 26.34034
# Shear Modulus (GPa) = 27.17826 37.21987 32.19906
#
# Velocity S-wave (km/s) = 3.25510 3.80926 3.54303
# Velocity P-wave (km/s) = 4.65696 5.68555 5.19677
#
# Compressibility (1/GPa) = 0.05157017
#
# Stress axis : x y z
#
# Youngs Moduli (GPa) = 39.46803 65.46883 85.20001
#
# Poissons Ratio (x) = -0.02328 0.02101
# Poissons Ratio (y) = -0.01403 0.04244
# Poissons Ratio (z) = 0.00973 0.03261
#
# Static dielectric constant tensor:
#      x y z
#    x 2.127960 0.000000 -0.004850 
#    y 0.000000 2.027540 0.000000 
#    z -0.004850 0.000000 1.987640 
# 
# From -- ./inp_files/248776.got.cif
#   From: 2010.05.17/outbox.cif.g08.bks.cpg/sg15_125_cif.got.tgz:248776.got - 2010.06.03 18:47:42.
