data_PCOD9287305
_publ_section_title
;
Structure prediction by ZEFSAII (Michael W. Deem and Ramdas Pophale) SiO2 
 PCOD9287305
Probable space group: C 2/C
;
_chemical_formula_sum "Si O2"
_cell_formula_units_Z 40
_cell_length_a 18.387466
_cell_length_b 12.027847
_cell_length_c 11.695660
_cell_angle_alpha 90.000000
_cell_angle_beta 42.527256
_cell_angle_gamma 90.000000
_cell_volume 1748.409718
_symmetry_space_group_name_H-M "C 2/C"
_symmetry_group_IT_number 15
_symmetry_cell_setting 'monoclinic'
loop_
_space_group_symop_operation_xyz
x,y,z
-x,y,1/2-z
-x,-y,-z
x,-y,1/2+z
1/2+x,1/2+y,z
1/2-x,1/2+y,1/2-z
1/2-x,1/2-y,-z
1/2+x,1/2-y,1/2+z
loop_
_atom_site_type_symbol
_atom_site_label
_atom_site_fract_x
_atom_site_fract_y
_atom_site_fract_z
Si Si1 0.153511 0.186039 0.445771
Si Si2 0.293910 0.018315 0.417777
Si Si3 0.689197 0.330317 0.381632
Si Si4 0.000000 0.640686 0.250000
Si Si5 0.633084 0.510949 0.285432
Si Si6 0.000000 0.864956 0.750000
O O1 0.219464 0.124213 0.469315
O O2 0.235135 0.239928 0.260668
O O3 0.105188 0.087705 0.425631
O O4 0.071704 0.277378 0.587932
O O5 0.415097 0.062305 0.281945
O O6 0.262556 0.921585 0.364138
O O7 0.252333 0.979705 0.590631
O O8 0.632989 0.389080 0.338430
O O9 0.593848 0.296686 0.578380
O O10 0.558903 0.553722 0.270066
#
# Coordination Sequence:
#
# PCOD9287305 Si02
#       6
#     8   8   8   4   8   4
#     4  11  25  42  69  98 135 169 225 271 324 394
#     4  10  24  44  66  97 136 168 225 270 324 393
#     4  10  22  43  64  95 133 171 218 276 324 387
#     4  12  24  43  73  98 126 184 218 265 331 402
#     4  10  22  43  63  99 132 169 213 283 320 387
#     4  10  22  35  67  92 126 170 212 265 335 374
#
# _framework density 22.877934
#
# number of rings (size 3 to 8) (size 9 to 14) (size 15 to 20)
#    0.000    1.600    2.000    1.200    2.800   11.200 
#    0.000    2.000    0.000    0.000    0.000    0.000 
#    0.000    0.000    0.000    0.000    0.000    0.000 
#
# Total GULP energy -111741.947865 kJ/mol
# GULP energy per Si atom -5587.097393 kJ/mol
# Density = 2.282586 g / cm^3
# Si number density = 22.877934 Si / 1000 Ang^3
#
#
#
# Elastic Constant Matrix: (Units=GPa)
#
#
# Indices 1 2 3 4 5 6 
#
# 1 77.5817 -9.8555 15.3684 0.0000 -12.4155 0.0000
# 2 -9.8555 41.1341 34.9287 0.0000 -8.3064 0.0000
# 3 15.3684 34.9287 148.9492 0.0000 -8.0436 0.0000
# 4 0.0000 0.0000 0.0000 47.6103 0.0000 6.6552
# 5 -12.4155 -8.3064 -8.0436 0.0000 34.0045 0.0000
# 6 0.0000 0.0000 0.0000 6.6552 0.0000 -0.6956
#
#
#
# Elastic Compliance Matrix: (Units=1/GPa)
#
#
# Indices 1 2 3 4 5 6 
#
# 1 0.015564 0.007692 -0.003040 0.000000 0.006843 0.000000
# 2 0.007692 0.035332 -0.008571 0.000000 0.009412 0.000000
# 3 -0.003040 -0.008571 0.008979 0.000000 -0.001080 0.000000
# 4 0.000000 0.000000 0.000000 0.008986 0.000000 0.085973
# 5 0.006843 0.009412 -0.001080 0.000000 0.033950 0.000000
# 6 0.000000 0.000000 0.000000 0.085973 0.000000 -0.615033
#
#
# Mechanical properties :
#
#
# Convention : Reuss Voigt Hill
#
# Bulk Modulus (GPa) = 19.21673 38.72758 28.97216
# Shear Modulus (GPa) = -10.26614 31.33206 10.53296
#
# Velocity S-wave (km/s) = -2.12064 3.70473 2.14802
# Velocity P-wave (km/s) = 1.55621 5.93841 4.34088
#
# Compressibility (1/GPa) = 0.05203799
#
# Stress axis : x y z
#
# Youngs Moduli (GPa) = 64.25040 28.30269 111.37153
#
# Poissons Ratio (x) = -0.21772 0.33860
# Poissons Ratio (y) = -0.49424 0.95455
# Poissons Ratio (z) = 0.19534 0.24258
#
# Static dielectric constant tensor:
#      x y z
#    x 1.904680 0.000000 -0.035460 
#    y 0.000000 1.819850 0.000000 
#    z -0.035460 0.000000 1.873010 
# 
# From -- ./inp_files/96034.got.cif
#   From: 2010.05.17/outbox.cif.g08.bks.cpg/sg15_49_cif.got.tgz:96034.got - 2010.06.03 18:47:42.
