data_PCOD9287235
_publ_section_title
;
Structure prediction by ZEFSAII (Michael W. Deem and Ramdas Pophale) SiO2 
 PCOD9287235
Probable space group: C 2/C
;
_chemical_formula_sum "Si O2"
_cell_formula_units_Z 40
_cell_length_a 11.097140
_cell_length_b 28.016935
_cell_length_c 9.382150
_cell_angle_alpha 90.000000
_cell_angle_beta 41.844235
_cell_angle_gamma 90.000000
_cell_volume 1945.942876
_symmetry_space_group_name_H-M "C 2/C"
_symmetry_group_IT_number 15
_symmetry_cell_setting 'monoclinic'
loop_
_space_group_symop_operation_xyz
x,y,z
-x,y,1/2-z
-x,-y,-z
x,-y,1/2+z
1/2+x,1/2+y,z
1/2-x,1/2+y,1/2-z
1/2-x,1/2-y,-z
1/2+x,1/2-y,1/2+z
loop_
_atom_site_type_symbol
_atom_site_label
_atom_site_fract_x
_atom_site_fract_y
_atom_site_fract_z
Si Si1 0.500000 0.242827 0.750000
Si Si2 0.322079 0.684854 0.567373
Si Si3 0.191552 0.920792 0.530768
Si Si4 0.017764 0.444016 0.455513
Si Si5 0.288234 0.304721 0.423805
Si Si6 0.000000 0.378640 0.750000
O O1 0.512177 0.278701 0.604355
O O2 0.668379 0.207955 0.604850
O O3 0.355701 0.632461 0.481143
O O4 0.249041 0.686866 0.791293
O O5 0.343112 0.924808 0.521077
O O6 0.000000 0.942748 0.750000
O O7 0.301107 0.940701 0.298943
O O8 0.028915 0.412445 0.588103
O O9 0.000000 0.500000 0.500000
O O10 0.500000 0.314382 0.250000
O O11 0.250000 0.250000 0.500000
O O12 0.169255 0.342474 0.616044
#
# Coordination Sequence:
#
# PCOD9287235 Si02
#       6
#     4   8   8   8   8   4
#     4  10  22  34  65  88 134 175 234 274 324 398
#     4  11  22  40  60  98 130 184 229 281 332 401
#     4  11  24  45  74 101 140 178 232 287 350 415
#     4  11  26  49  74 103 138 182 235 299 365 421
#     4  12  26  42  64  98 146 192 235 282 352 424
#     4  12  26  42  73 102 144 187 234 296 358 424
#
# _framework density 20.555588
#
# number of rings (size 3 to 8) (size 9 to 14) (size 15 to 20)
#    0.000    0.800    4.000    3.600    2.800    2.400 
#    0.000    2.000    0.000    0.000    0.000    0.000 
#    0.000    0.000    0.000    0.000    0.000    0.000 
#
# Total GULP energy -111635.092961 kJ/mol
# GULP energy per Si atom -5581.754648 kJ/mol
# Density = 2.050880 g / cm^3
# Si number density = 20.555588 Si / 1000 Ang^3
#
#
#
# Elastic Constant Matrix: (Units=GPa)
#
#
# Indices 1 2 3 4 5 6 
#
# 1 51.0713 28.4956 41.7029 0.0000 -4.0047 0.0000
# 2 28.4956 117.8221 59.9889 0.0000 3.3930 0.0000
# 3 41.7029 59.9889 162.6693 0.0000 -14.2442 0.0000
# 4 0.0000 0.0000 0.0000 10.6385 0.0000 5.2568
# 5 -4.0047 3.3930 -14.2442 0.0000 43.4248 0.0000
# 6 0.0000 0.0000 0.0000 5.2568 0.0000 20.8675
#
#
#
# Elastic Compliance Matrix: (Units=1/GPa)
#
#
# Indices 1 2 3 4 5 6 
#
# 1 0.025957 -0.003645 -0.005226 0.000000 0.000964 0.000000
# 2 -0.003645 0.011158 -0.003384 0.000000 -0.002318 0.000000
# 3 -0.005226 -0.003384 0.008974 0.000000 0.002726 0.000000
# 4 0.000000 0.000000 0.000000 0.107363 0.000000 -0.027046
# 5 0.000964 -0.002318 0.002726 0.000000 0.024193 0.000000
# 6 0.000000 0.000000 0.000000 -0.027046 0.000000 0.054735
#
#
# Mechanical properties :
#
#
# Convention : Reuss Voigt Hill
#
# Bulk Modulus (GPa) = 46.33804 65.77084 56.05444
# Shear Modulus (GPa) = 18.93361 28.41119 23.67240
#
# Velocity S-wave (km/s) = 3.03824 3.72178 3.39725
# Velocity P-wave (km/s) = 5.90759 7.10879 6.53584
#
# Compressibility (1/GPa) = 0.02158054
#
# Stress axis : x y z
#
# Youngs Moduli (GPa) = 38.52526 89.61922 111.43723
#
# Poissons Ratio (x) = 0.32664 0.58236
# Poissons Ratio (y) = 0.14042 0.37705
# Poissons Ratio (z) = 0.20133 0.30323
#
# Static dielectric constant tensor:
#      x y z
#    x 1.687340 0.000000 0.009870 
#    y 0.000000 1.691800 0.000000 
#    z 0.009870 0.000000 1.848970 
# 
# From -- ./inp_files/35025.got.cif
#   From: 2010.05.17/outbox.cif.g08.bks.cpg/sg15_18_cif.got.tgz:35025.got - 2010.06.03 18:47:42.
