data_PCOD9287641
_publ_section_title
;
Structure prediction by ZEFSAII (Michael W. Deem and Ramdas Pophale) SiO2 
 PCOD9287641
Probable space group: C 2/C
;
_chemical_formula_sum "Si O2"
_cell_formula_units_Z 56
_cell_length_a 15.742483
_cell_length_b 12.207188
_cell_length_c 21.923772
_cell_angle_alpha 90.000000
_cell_angle_beta 145.051077
_cell_angle_gamma 90.000000
_cell_volume 2413.470540
_symmetry_space_group_name_H-M "C 2/C"
_symmetry_group_IT_number 15
_symmetry_cell_setting 'monoclinic'
loop_
_space_group_symop_operation_xyz
x,y,z
-x,y,1/2-z
-x,-y,-z
x,-y,1/2+z
1/2+x,1/2+y,z
1/2-x,1/2+y,1/2-z
1/2-x,1/2-y,-z
1/2+x,1/2-y,1/2+z
loop_
_atom_site_type_symbol
_atom_site_label
_atom_site_fract_x
_atom_site_fract_y
_atom_site_fract_z
Si Si1 0.091818 0.540065 0.892934
Si Si2 0.683232 0.128617 0.273118
Si Si3 0.334745 0.635704 0.543877
Si Si4 0.500000 0.298506 0.250000
Si Si5 0.523453 0.895104 0.057752
Si Si6 0.512743 0.663736 0.989220
Si Si7 0.000000 0.281051 0.250000
Si Si8 0.278777 0.219760 0.722906
O O1 0.097235 0.636391 0.848056
O O2 0.938564 0.468419 0.798416
O O3 0.106378 0.590055 0.969085
O O4 0.220483 0.455306 0.958074
O O5 0.609150 0.219754 0.274846
O O6 0.852811 0.105421 0.395242
O O7 0.703757 0.182849 0.218284
O O8 0.250000 0.750000 0.500000
O O9 0.408980 0.623410 0.652330
O O10 0.453385 0.645723 0.561246
O O11 0.652643 0.859655 0.183633
O O12 0.528224 0.790076 0.017881
O O13 0.500000 0.000000 0.000000
O O14 0.336166 0.650990 0.886201
O O15 0.898092 0.231287 0.244355
#
# Coordination Sequence:
#
# PCOD9287641 Si02
#       8
#     8   8   8   4   8   8   4   8
#     4  11  22  40  62  91 127 165 207 260 325 372
#     4  11  20  35  62  96 122 164 209 262 309 384
#     4  12  20  32  58  93 125 159 201 256 305 377
#     4  12  21  30  58  93 132 152 212 248 311 370
#     4  10  22  37  61  88 123 164 204 258 316 370
#     4  11  21  37  62  90 121 165 220 253 306 380
#     4  10  23  44  62  87 124 168 208 254 325 382
#     4  10  22  40  62  88 123 165 216 256 306 383
#
# _framework density 23.203101
#
# number of rings (size 3 to 8) (size 9 to 14) (size 15 to 20)
#    0.000    1.143    4.286    3.000    2.000    0.000 
#    0.000   12.857    0.000    4.286    0.000    0.000 
#    0.000    0.000    0.000    0.000    0.000    0.000 
#
# Total GULP energy -156029.852324 kJ/mol
# GULP energy per Si atom -5572.494726 kJ/mol
# Density = 2.315029 g / cm^3
# Si number density = 23.203101 Si / 1000 Ang^3
#
#
#
# Elastic Constant Matrix: (Units=GPa)
#
#
# Indices 1 2 3 4 5 6 
#
# 1 130.8407 -4.1575 16.2856 0.0001 -3.1852 0.0000
# 2 -4.1575 30.3910 -2.0724 0.0001 -1.0534 0.0001
# 3 16.2856 -2.0724 113.3405 0.0003 -9.4488 0.0002
# 4 0.0001 0.0001 0.0003 -7.5860 0.0001 -0.6918
# 5 -3.1852 -1.0534 -9.4488 0.0001 26.7497 0.0000
# 6 0.0000 0.0001 0.0002 -0.6918 0.0000 8.5103
#
#
#
# Elastic Compliance Matrix: (Units=1/GPa)
#
#
# Indices 1 2 3 4 5 6 
#
# 1 0.007821 0.001019 -0.001055 0.000000 0.000599 0.000000
# 2 0.001019 0.033141 0.000596 0.000001 0.001637 0.000000
# 3 -0.001055 0.000596 0.009249 0.000000 0.003165 0.000000
# 4 0.000000 0.000001 0.000000 -0.130851 0.000001 -0.010636
# 5 0.000599 0.001637 0.003165 0.000001 0.038637 0.000000
# 6 0.000000 0.000000 0.000000 -0.010636 0.000000 0.116640
#
#
# Mechanical properties :
#
#
# Convention : Reuss Voigt Hill
#
# Bulk Modulus (GPa) = 19.48149 32.74262 26.11205
# Shear Modulus (GPa) = 55.16976 23.16924 39.16950
#
# Velocity S-wave (km/s) = 4.88145 3.16340 4.11312
# Velocity P-wave (km/s) = 6.33921 5.24259 5.81680
#
# Compressibility (1/GPa) = 0.05133078
#
# Stress axis : x y z
#
# Youngs Moduli (GPa) = 127.85805 30.17394 108.11575
#
# Poissons Ratio (x) = -0.03074 0.11409
# Poissons Ratio (y) = -0.13025 -0.06444
# Poissons Ratio (z) = 0.13492 -0.01799
#
# Static dielectric constant tensor:
#      x y z
#    x 1.885770 0.000000 0.091890 
#    y 0.000000 1.888830 0.000000 
#    z 0.091890 0.000000 3.112290 
# 
# From -- ./inp_files/244608.got.cif
#   From: 2010.05.17/outbox.cif.g08.bks.cpg/sg15_123_cif.got.tgz:244608.got - 2010.06.03 18:47:42.
