data_PCOD9287409
_publ_section_title
;
Structure prediction by ZEFSAII (Michael W. Deem and Ramdas Pophale) SiO2 
 PCOD9287409
Probable space group: C 2/C
;
_chemical_formula_sum "Si O2"
_cell_formula_units_Z 44
_cell_length_a 12.485112
_cell_length_b 12.511933
_cell_length_c 12.819669
_cell_angle_alpha 90.000000
_cell_angle_beta 91.073262
_cell_angle_gamma 90.000000
_cell_volume 2002.246146
_symmetry_space_group_name_H-M "C 2/C"
_symmetry_group_IT_number 15
_symmetry_cell_setting 'monoclinic'
loop_
_space_group_symop_operation_xyz
x,y,z
-x,y,1/2-z
-x,-y,-z
x,-y,1/2+z
1/2+x,1/2+y,z
1/2-x,1/2+y,1/2-z
1/2-x,1/2-y,-z
1/2+x,1/2-y,1/2+z
loop_
_atom_site_type_symbol
_atom_site_label
_atom_site_fract_x
_atom_site_fract_y
_atom_site_fract_z
Si Si1 0.500000 0.067374 0.750000
Si Si2 0.187355 0.890941 0.939653
Si Si3 0.287179 0.035195 0.245619
Si Si4 0.373246 0.156878 0.053892
Si Si5 0.589789 0.171347 0.956762
Si Si6 0.195182 0.879062 0.383519
O O1 0.554548 0.136772 0.840895
O O2 0.595198 0.993295 0.709449
O O3 0.228792 0.880181 0.820005
O O4 0.102980 0.799576 0.963063
O O5 0.151805 0.014672 0.941605
O O6 0.294356 0.873802 0.009573
O O7 0.310879 0.080733 0.133019
O O8 0.220755 0.926366 0.269071
O O9 0.373888 0.273912 0.106489
O O10 0.494457 0.130002 0.028258
O O11 0.304951 0.153999 0.945617
#
# Coordination Sequence:
#
# PCOD9287409 Si02
#       6
#     4   8   8   8   8   8
#     4  12  22  36  66  92 124 160 222 256 316 362
#     4   9  22  40  58  93 130 161 203 257 320 363
#     4  10  22  36  60  91 121 163 206 259 303 373
#     4  11  21  40  66  89 128 163 217 250 320 376
#     4  11  22  38  64  95 124 164 205 267 309 376
#     4   9  22  40  59  94 122 172 200 266 309 375
#
# _framework density 21.975321999999998
#
# number of rings (size 3 to 8) (size 9 to 14) (size 15 to 20)
#    1.091    0.727    1.818    2.182    2.545    2.909 
#    0.000    0.000    0.000    3.273    0.000    0.000 
#    0.000    0.000    0.000    0.000    0.000    0.000 
#
# Total GULP energy -122592.769688 kJ/mol
# GULP energy per Si atom -5572.398622 kJ/mol
# Density = 2.192531 g / cm^3
# Si number density = 21.975322 Si / 1000 Ang^3
#
#
#
# Elastic Constant Matrix: (Units=GPa)
#
#
# Indices 1 2 3 4 5 6 
#
# 1 26.4501 -4.1216 26.5712 0.0000 -4.9206 0.0000
# 2 -4.1216 108.8186 26.0308 0.0000 -15.8226 0.0000
# 3 26.5712 26.0308 95.5604 0.0000 -12.4590 0.0000
# 4 0.0000 0.0000 0.0000 27.4635 0.0000 -0.3498
# 5 -4.9206 -15.8226 -12.4590 0.0000 18.8633 0.0000
# 6 0.0000 0.0000 0.0000 -0.3498 0.0000 12.1658
#
#
#
# Elastic Compliance Matrix: (Units=1/GPa)
#
#
# Indices 1 2 3 4 5 6 
#
# 1 0.057875 0.007742 -0.016836 0.000000 0.010471 0.000000
# 2 0.007742 0.011815 -0.004175 0.000000 0.009173 0.000000
# 3 -0.016836 -0.004175 0.016691 0.000000 0.003130 0.000000
# 4 0.000000 0.000000 0.000000 0.036425 0.000000 0.001047
# 5 0.010471 0.009173 0.003130 0.000000 0.065506 0.000000
# 6 0.000000 0.000000 0.000000 0.001047 0.000000 0.082228
#
#
# Mechanical properties :
#
#
# Convention : Reuss Voigt Hill
#
# Bulk Modulus (GPa) = 16.71056 36.42109 26.56583
# Shear Modulus (GPa) = 15.77152 23.85509 19.81330
#
# Velocity S-wave (km/s) = 2.68188 3.29833 3.00595
# Velocity P-wave (km/s) = 4.14858 5.57807 4.91557
#
# Compressibility (1/GPa) = 0.05984241
#
# Stress axis : x y z
#
# Youngs Moduli (GPa) = 17.27874 84.63575 59.91074
#
# Poissons Ratio (x) = -0.65525 1.00867
# Poissons Ratio (y) = -0.13377 0.25015
# Poissons Ratio (z) = 0.29091 0.35338
#
# Static dielectric constant tensor:
#      x y z
#    x 1.784900 0.000000 -0.049400 
#    y 0.000000 1.856260 0.000000 
#    z -0.049400 0.000000 1.871780 
# 
# From -- ./inp_files/142971.got.cif
#   From: 2010.05.17/outbox.cif.g08.bks.cpg/sg15_72_cif.got.tgz:142971.got - 2010.06.03 18:47:42.
