data_PCOD9287850
_publ_section_title
;
Structure prediction by ZEFSAII (Michael W. Deem and Ramdas Pophale) SiO2 
 PCOD9287850
Probable space group: C 2/C
;
_chemical_formula_sum "Si O2"
_cell_formula_units_Z 48
_cell_length_a 15.158675
_cell_length_b 23.183873
_cell_length_c 12.720600
_cell_angle_alpha 90.000000
_cell_angle_beta 39.704870
_cell_angle_gamma 90.000000
_cell_volume 2855.895512
_symmetry_space_group_name_H-M "C 2/C"
_symmetry_group_IT_number 15
_symmetry_cell_setting 'monoclinic'
loop_
_space_group_symop_operation_xyz
x,y,z
-x,y,1/2-z
-x,-y,-z
x,-y,1/2+z
1/2+x,1/2+y,z
1/2-x,1/2+y,1/2-z
1/2-x,1/2-y,-z
1/2+x,1/2-y,1/2+z
loop_
_atom_site_type_symbol
_atom_site_label
_atom_site_fract_x
_atom_site_fract_y
_atom_site_fract_z
Si Si1 0.359309 0.356101 0.744651
Si Si2 0.411466 0.958913 0.224300
Si Si3 0.179878 0.134799 0.971915
Si Si4 0.615672 0.081402 0.352315
Si Si5 0.490415 0.201271 0.135488
Si Si6 0.764054 0.264454 0.237352
O O1 0.519271 0.373423 0.590001
O O2 0.258738 0.399385 0.775062
O O3 0.335479 0.292389 0.720131
O O4 0.317412 0.354173 0.905611
O O5 0.500000 0.958038 0.250000
O O6 0.276183 0.919770 0.360339
O O7 0.373771 0.024065 0.226815
O O8 0.506649 0.932474 0.044805
O O9 0.236450 0.188780 0.853233
O O10 0.561585 0.136138 0.336589
O O11 0.500000 0.213248 0.250000
O O12 0.378604 0.243149 0.183410
O O13 0.635031 0.210006 0.943558
#
# Coordination Sequence:
#
# PCOD9287850 Si02
#       6
#     8   8   8   8   8   8
#     4  10  22  38  58  89 119 156 191 238 302 347
#     4  11  21  38  62  86 112 154 197 244 295 337
#     4  11  21  37  60  87 122 152 194 242 295 352
#     4  10  22  38  60  84 117 149 199 245 284 349
#     4  11  22  38  59  84 117 157 197 239 293 349
#     4  11  21  38  57  87 121 155 193 244 290 351
#
# _framework density 16.807338000000001
#
# number of rings (size 3 to 8) (size 9 to 14) (size 15 to 20)
#    0.000    1.333    5.000    1.500    0.000    0.667 
#    3.000    0.000    0.000    0.000    0.000    0.000 
#    0.000    0.000    0.000    0.000    0.000    0.000 
#
# Total GULP energy -134023.439708 kJ/mol
# GULP energy per Si atom -5584.309988 kJ/mol
# Density = 1.676908 g / cm^3
# Si number density = 16.807338 Si / 1000 Ang^3
#
#
#
# Elastic Constant Matrix: (Units=GPa)
#
#
# Indices 1 2 3 4 5 6 
#
# 1 76.3295 51.1191 48.3345 -0.0011 -3.3358 0.0000
# 2 51.1191 112.3075 55.4146 -0.0004 -6.5554 0.0000
# 3 48.3345 55.4146 103.4972 -0.0006 -7.2404 -0.0001
# 4 -0.0011 -0.0004 -0.0006 22.2866 0.0007 -5.0199
# 5 -3.3358 -6.5554 -7.2404 0.0007 20.7069 0.0001
# 6 0.0000 0.0000 -0.0001 -5.0199 0.0001 14.6452
#
#
#
# Elastic Compliance Matrix: (Units=1/GPa)
#
#
# Indices 1 2 3 4 5 6 
#
# 1 0.021734 -0.006668 -0.006645 0.000001 -0.000933 0.000000
# 2 -0.006668 0.014199 -0.004356 0.000000 0.001898 0.000000
# 3 -0.006645 -0.004356 0.015300 0.000000 0.002901 0.000000
# 4 0.000001 0.000000 0.000000 0.048624 -0.000002 0.016667
# 5 -0.000933 0.001898 0.002901 -0.000002 0.049758 -0.000001
# 6 0.000000 0.000000 0.000000 0.016667 -0.000001 0.073994
#
#
# Mechanical properties :
#
#
# Convention : Reuss Voigt Hill
#
# Bulk Modulus (GPa) = 62.90976 66.87450 64.89213
# Shear Modulus (GPa) = 18.92173 20.67883 19.80028
#
# Velocity S-wave (km/s) = 3.35894 3.51143 3.43603
# Velocity P-wave (km/s) = 7.24945 7.50436 7.37801
#
# Compressibility (1/GPa) = 0.01589579
#
# Stress axis : x y z
#
# Youngs Moduli (GPa) = 46.01066 70.42584 65.35790
#
# Poissons Ratio (x) = 0.46963 0.43430
# Poissons Ratio (y) = 0.30682 0.28467
# Poissons Ratio (z) = 0.30574 0.30675
#
# Static dielectric constant tensor:
#      x y z
#    x 1.545460 0.000000 -0.004450 
#    y 0.000000 1.537250 0.000000 
#    z -0.004450 0.000000 1.544640 
# 
# From -- ./inp_files/50063.got.cif
#   From: 2010.05.17/outbox.cif.g08.bks.cpg/sg15_26_cif.got.tgz:50063.got - 2010.06.03 18:47:42.
