data_PCOD9287806
_publ_section_title
;
Structure prediction by ZEFSAII (Michael W. Deem and Ramdas Pophale) SiO2 
 PCOD9287806
Probable space group: C 2/C
;
_chemical_formula_sum "Si O2"
_cell_formula_units_Z 44
_cell_length_a 19.370170
_cell_length_b 12.991291
_cell_length_c 16.712523
_cell_angle_alpha 90.000000
_cell_angle_beta 22.364815
_cell_angle_gamma 90.000000
_cell_volume 1600.240761
_symmetry_space_group_name_H-M "C 2/C"
_symmetry_group_IT_number 15
_symmetry_cell_setting 'monoclinic'
loop_
_space_group_symop_operation_xyz
x,y,z
-x,y,1/2-z
-x,-y,-z
x,-y,1/2+z
1/2+x,1/2+y,z
1/2-x,1/2+y,1/2-z
1/2-x,1/2-y,-z
1/2+x,1/2-y,1/2+z
loop_
_atom_site_type_symbol
_atom_site_label
_atom_site_fract_x
_atom_site_fract_y
_atom_site_fract_z
Si Si1 0.543054 0.889836 0.619822
Si Si2 0.680803 0.331573 0.688528
Si Si3 0.500000 0.085135 0.750000
Si Si4 0.074568 0.096012 0.861761
Si Si5 0.783981 0.125563 0.635099
Si Si6 0.306465 0.103226 0.231398
O O1 0.500000 0.832601 0.750000
O O2 0.456524 0.851523 0.630063
O O3 0.755692 0.915351 0.378577
O O4 0.447065 0.000648 0.739730
O O5 0.828140 0.353006 0.463496
O O6 0.663291 0.209449 0.720747
O O7 0.772532 0.371344 0.674058
O O8 0.484189 0.381166 0.879424
O O9 0.148425 0.170949 0.851466
O O10 0.889948 0.129612 0.018794
O O11 0.000000 0.000000 0.000000
O O12 0.683199 0.021996 0.770384
#
# Coordination Sequence:
#
# PCOD9287806 Si02
#       6
#     8   8   4   8   8   8
#     4  10  23  38  67  99 121 168 223 270 322 382
#     4  11  24  41  63  99 132 170 215 266 319 399
#     4  10  22  38  56  98 142 154 212 260 324 396
#     4   9  19  39  62  93 126 165 226 257 310 393
#     4  10  23  39  64  97 124 175 217 256 320 392
#     4  10  22  44  68  86 133 178 214 262 326 381
#
# _framework density 27.495861000000001
#
# number of rings (size 3 to 8) (size 9 to 14) (size 15 to 20)
#    0.545    1.455    0.000    6.000    5.091    6.545 
#    0.000    0.000    0.000    1.091    0.000    0.000 
#    0.000    0.000    0.000    0.000    0.000    0.000 
#
# Total GULP energy -122705.750614 kJ/mol
# GULP energy per Si atom -5577.534119 kJ/mol
# Density = 2.743328 g / cm^3
# Si number density = 27.495861 Si / 1000 Ang^3
#
#
#
# Elastic Constant Matrix: (Units=GPa)
#
#
# Indices 1 2 3 4 5 6 
#
# 1 106.7708 5.2770 42.5223 -0.0022 -0.5663 -0.0002
# 2 5.2770 75.2567 15.7386 -0.0068 8.0949 0.0027
# 3 42.5223 15.7386 235.2744 -0.0071 6.7137 0.0041
# 4 -0.0022 -0.0068 -0.0071 21.2581 0.0030 0.7482
# 5 -0.5663 8.0949 6.7137 0.0030 41.0642 -0.0010
# 6 -0.0002 0.0027 0.0041 0.7482 -0.0010 32.5296
#
#
#
# Elastic Compliance Matrix: (Units=1/GPa)
#
#
# Indices 1 2 3 4 5 6 
#
# 1 0.010111 -0.000384 -0.001816 0.000000 0.000512 0.000000
# 2 -0.000384 0.013756 -0.000777 0.000005 -0.002590 -0.000001
# 3 -0.001816 -0.000777 0.004649 0.000001 -0.000632 -0.000001
# 4 0.000000 0.000005 0.000001 0.047079 -0.000005 -0.001083
# 5 0.000512 -0.002590 -0.000632 -0.000005 0.024973 0.000001
# 6 0.000000 -0.000001 -0.000001 -0.001083 0.000001 0.030766
#
#
# Mechanical properties :
#
#
# Convention : Reuss Voigt Hill
#
# Bulk Modulus (GPa) = 44.32495 60.48640 52.40568
# Shear Modulus (GPa) = 34.52831 42.55462 38.54147
#
# Velocity S-wave (km/s) = 3.54752 3.93832 3.74802
# Velocity P-wave (km/s) = 5.73894 6.53656 6.15069
#
# Compressibility (1/GPa) = 0.02256066
#
# Stress axis : x y z
#
# Youngs Moduli (GPa) = 98.90297 72.69631 215.11732
#
# Poissons Ratio (x) = 0.02793 0.39072
# Poissons Ratio (y) = 0.03800 0.16711
# Poissons Ratio (z) = 0.17964 0.05647
#
# Static dielectric constant tensor:
#      x y z
#    x 2.291390 0.000000 -0.021370 
#    y 0.000000 2.421010 0.000000 
#    z -0.021370 0.000000 2.229260 
# 
# From -- ./inp_files/216460.got.cif
#   From: 2010.05.17/outbox.cif.g08.bks.cpg/sg15_109_cif.got.tgz:216460.got - 2010.06.03 18:47:42.
