data_PCOD9287285
_publ_section_title
;
Structure prediction by ZEFSAII (Michael W. Deem and Ramdas Pophale) SiO2 
 PCOD9287285
Probable space group: C 2/C
;
_chemical_formula_sum "Si O2"
_cell_formula_units_Z 48
_cell_length_a 22.557970
_cell_length_b 5.309217
_cell_length_c 17.799346
_cell_angle_alpha 90.000000
_cell_angle_beta 85.033083
_cell_angle_gamma 90.000000
_cell_volume 2123.736487
_symmetry_space_group_name_H-M "C 2/C"
_symmetry_group_IT_number 15
_symmetry_cell_setting 'monoclinic'
loop_
_space_group_symop_operation_xyz
x,y,z
-x,y,1/2-z
-x,-y,-z
x,-y,1/2+z
1/2+x,1/2+y,z
1/2-x,1/2+y,1/2-z
1/2-x,1/2-y,-z
1/2+x,1/2-y,1/2+z
loop_
_atom_site_type_symbol
_atom_site_label
_atom_site_fract_x
_atom_site_fract_y
_atom_site_fract_z
Si Si1 0.360617 0.620172 0.610922
Si Si2 0.899087 0.555395 0.893489
Si Si3 0.703046 0.965595 0.988763
Si Si4 0.149180 0.397792 0.752066
Si Si5 0.764415 0.750778 0.656654
Si Si6 0.936626 0.066844 0.972288
O O1 0.349287 0.854622 0.558303
O O2 0.387169 0.722472 0.685606
O O3 0.296042 0.520020 0.643906
O O4 0.393126 0.428226 0.550875
O O5 0.892613 0.529836 0.804681
O O6 0.916689 0.834449 0.920231
O O7 0.937090 0.329937 0.927240
O O8 0.833164 0.487792 0.932018
O O9 0.735204 0.154956 0.929136
O O10 0.750000 0.750000 0.000000
O O11 0.188929 0.592888 0.796990
O O12 0.200314 0.243545 0.701752
O O13 0.000000 0.000000 0.000000
#
# Coordination Sequence:
#
# PCOD9287285 Si02
#       6
#     8   8   8   8   8   8
#     4  10  22  40  60  90 130 174 213 271 323 395
#     4  11  25  42  69 100 128 169 225 284 319 405
#     4  10  22  35  59  95 131 173 220 260 320 401
#     4  11  24  35  61  95 139 173 213 253 337 397
#     4  11  21  37  57  92 137 182 205 256 327 407
#     4  11  25  49  74  93 122 173 232 290 343 375
#
# _framework density 22.601676000000001
#
# number of rings (size 3 to 8) (size 9 to 14) (size 15 to 20)
#    0.000    1.333    3.333    1.500    9.333    1.333 
#    0.000    0.833    0.000    0.000    0.000    0.000 
#    0.000    0.000    0.000    0.000    0.000    0.000 
#
# Total GULP energy -133892.969781 kJ/mol
# GULP energy per Si atom -5578.873741 kJ/mol
# Density = 2.255023 g / cm^3
# Si number density = 22.601676 Si / 1000 Ang^3
#
#
#
# Elastic Constant Matrix: (Units=GPa)
#
#
# Indices 1 2 3 4 5 6 
#
# 1 36.1450 -6.6877 -3.2053 0.0000 13.2353 0.0000
# 2 -6.6877 66.3271 16.4538 0.0000 8.8479 0.0000
# 3 -3.2053 16.4538 136.9243 0.0000 25.4743 0.0000
# 4 0.0000 0.0000 0.0000 38.8167 0.0000 8.2516
# 5 13.2353 8.8479 25.4743 0.0000 21.9750 0.0000
# 6 0.0000 0.0000 0.0000 8.2516 0.0000 28.1914
#
#
#
# Elastic Compliance Matrix: (Units=1/GPa)
#
#
# Indices 1 2 3 4 5 6 
#
# 1 0.043384 0.007610 0.007054 0.000000 -0.037370 0.000000
# 2 0.007610 0.017359 0.000313 0.000000 -0.011935 0.000000
# 3 0.007054 0.000313 0.010512 0.000000 -0.016560 0.000000
# 4 0.000000 0.000000 0.000000 0.027471 0.000000 -0.008041
# 5 -0.037370 -0.011935 -0.016560 0.000000 0.092016 0.000000
# 6 0.000000 0.000000 0.000000 -0.008041 0.000000 0.037825
#
#
# Mechanical properties :
#
#
# Convention : Reuss Voigt Hill
#
# Bulk Modulus (GPa) = 9.88078 28.05755 18.96916
# Shear Modulus (GPa) = 21.51921 33.31900 27.41910
#
# Velocity S-wave (km/s) = 3.08897 3.84367 3.48680
# Velocity P-wave (km/s) = 4.13564 5.66915 4.96200
#
# Compressibility (1/GPa) = 0.10120659
#
# Stress axis : x y z
#
# Youngs Moduli (GPa) = 23.05006 57.60830 95.13124
#
# Poissons Ratio (x) = -0.43838 -0.67104
# Poissons Ratio (y) = -0.17540 -0.02974
# Poissons Ratio (z) = -0.16259 -0.01801
#
# Static dielectric constant tensor:
#      x y z
#    x 1.856990 0.000000 0.037260 
#    y 0.000000 2.030650 0.000000 
#    z 0.037260 0.000000 1.926530 
# 
# From -- ./inp_files/217483.got.cif
#   From: 2010.05.17/outbox.cif.g08.bks.cpg/sg15_109_cif.got.tgz:217483.got - 2010.06.03 18:47:42.
