data_PCOD9287191
_publ_section_title
;
Structure prediction by ZEFSAII (Michael W. Deem and Ramdas Pophale) SiO2 
 PCOD9287191
Probable space group: C 2/C
;
_chemical_formula_sum "Si O2"
_cell_formula_units_Z 44
_cell_length_a 11.603381
_cell_length_b 14.059960
_cell_length_c 16.803851
_cell_angle_alpha 90.000000
_cell_angle_beta 61.917127
_cell_angle_gamma 90.000000
_cell_volume 2418.676593
_symmetry_space_group_name_H-M "C 2/C"
_symmetry_group_IT_number 15
_symmetry_cell_setting 'monoclinic'
loop_
_space_group_symop_operation_xyz
x,y,z
-x,y,1/2-z
-x,-y,-z
x,-y,1/2+z
1/2+x,1/2+y,z
1/2-x,1/2+y,1/2-z
1/2-x,1/2-y,-z
1/2+x,1/2-y,1/2+z
loop_
_atom_site_type_symbol
_atom_site_label
_atom_site_fract_x
_atom_site_fract_y
_atom_site_fract_z
Si Si1 0.728541 0.474875 0.785087
Si Si2 0.487054 0.657143 0.408995
Si Si3 0.059648 0.631937 0.594567
Si Si4 0.725234 0.120364 0.390224
Si Si5 0.181131 0.832697 0.385773
Si Si6 0.500000 0.009295 0.250000
O O1 0.606431 0.410071 0.849629
O O2 0.755251 0.456531 0.683932
O O3 0.695158 0.584266 0.817114
O O4 0.858223 0.442933 0.792485
O O5 0.517232 0.768844 0.385525
O O6 0.361734 0.632552 0.393911
O O7 0.439956 0.648602 0.515690
O O8 0.111073 0.600405 0.491460
O O9 0.192741 0.656598 0.598434
O O10 0.994324 0.555344 0.672469
O O11 0.687307 0.221612 0.361396
#
# Coordination Sequence:
#
# PCOD9287191 Si02
#       6
#     8   8   8   8   8   4
#     4  11  20  29  54  76 107 138 172 208 258 313
#     4   9  17  31  56  81 102 127 173 225 265 291
#     4   8  17  33  54  75 103 134 172 217 259 303
#     4   9  18  33  54  81 105 128 172 224 260 297
#     4   8  17  33  50  81 108 130 165 221 265 303
#     4  10  22  34  48  76 108 148 170 202 256 320
#
# _framework density 18.191765
#
# number of rings (size 3 to 8) (size 9 to 14) (size 15 to 20)
#    0.000    2.909    0.000    3.273    7.636    0.727 
#    0.000    0.000    4.000    4.364    0.000    0.000 
#    0.000    0.000    0.000    0.000    0.000    0.000 
#
# Total GULP energy -122505.203312 kJ/mol
# GULP energy per Si atom -5568.418332 kJ/mol
# Density = 1.815036 g / cm^3
# Si number density = 18.191765 Si / 1000 Ang^3
#
#
#
# Elastic Constant Matrix: (Units=GPa)
#
#
# Indices 1 2 3 4 5 6 
#
# 1 56.1548 33.9133 30.1157 0.0000 -12.8337 0.0000
# 2 33.9133 75.1666 70.4967 0.0000 5.9580 0.0000
# 3 30.1157 70.4967 98.0881 0.0000 8.0200 0.0000
# 4 0.0000 0.0000 0.0000 24.4125 0.0000 39.6822
# 5 -12.8337 5.9580 8.0200 0.0000 26.7558 0.0000
# 6 0.0000 0.0000 0.0000 39.6822 0.0000 -100.9104
#
#
#
# Elastic Compliance Matrix: (Units=1/GPa)
#
#
# Indices 1 2 3 4 5 6 
#
# 1 0.031560 -0.015952 0.000253 0.000000 0.018614 0.000000
# 2 -0.015952 0.048881 -0.029440 0.000000 -0.009712 0.000000
# 3 0.000253 -0.029440 0.031502 0.000000 -0.002766 0.000000
# 4 0.000000 0.000000 0.000000 0.024989 0.000000 0.009827
# 5 0.018614 -0.009712 -0.002766 0.000000 0.049295 0.000000
# 6 0.000000 0.000000 0.000000 0.009827 0.000000 -0.006045
#
#
# Mechanical properties :
#
#
# Convention : Reuss Voigt Hill
#
# Bulk Modulus (GPa) = 46.15477 55.38452 50.76965
# Shear Modulus (GPa) = 18.00625 -3.62281 7.19172
#
# Velocity S-wave (km/s) = 3.14953 -1.41272 1.99044
# Velocity P-wave (km/s) = 6.21710 5.27730 5.76638
#
# Compressibility (1/GPa) = 0.02166623
#
# Stress axis : x y z
#
# Youngs Moduli (GPa) = 31.68555 20.45777 31.74413
#
# Poissons Ratio (x) = 0.32634 -0.00803
# Poissons Ratio (y) = 0.50544 0.93453
# Poissons Ratio (z) = -0.00801 0.60227
#
# Static dielectric constant tensor:
#      x y z
#    x 1.634870 0.000000 -0.028690 
#    y 0.000000 1.641470 0.000000 
#    z -0.028690 0.000000 1.680930 
# 
# From -- ./inp_files/142941.got.cif
#   From: 2010.05.17/outbox.cif.g08.bks.cpg/sg15_72_cif.got.tgz:142941.got - 2010.06.03 18:47:42.
