data_PCOD9287880
_publ_section_title
;
Structure prediction by ZEFSAII (Michael W. Deem and Ramdas Pophale) SiO2 
 PCOD9287880
Probable space group: C 2/C
;
_chemical_formula_sum "Si O2"
_cell_formula_units_Z 48
_cell_length_a 12.086053
_cell_length_b 22.134730
_cell_length_c 12.500859
_cell_angle_alpha 90.000000
_cell_angle_beta 45.159405
_cell_angle_gamma 90.000000
_cell_volume 2371.310890
_symmetry_space_group_name_H-M "C 2/C"
_symmetry_group_IT_number 15
_symmetry_cell_setting 'monoclinic'
loop_
_space_group_symop_operation_xyz
x,y,z
-x,y,1/2-z
-x,-y,-z
x,-y,1/2+z
1/2+x,1/2+y,z
1/2-x,1/2+y,1/2-z
1/2-x,1/2-y,-z
1/2+x,1/2-y,1/2+z
loop_
_atom_site_type_symbol
_atom_site_label
_atom_site_fract_x
_atom_site_fract_y
_atom_site_fract_z
Si Si1 0.333781 0.473895 0.310715
Si Si2 0.653663 0.399297 0.782525
Si Si3 0.312118 0.429017 0.092047
Si Si4 0.815253 0.560370 0.385084
Si Si5 0.794245 0.717186 0.083373
Si Si6 0.103565 0.684129 0.782827
O O1 0.500000 0.481782 0.250000
O O2 0.273721 0.541514 0.325676
O O3 0.365046 0.444600 0.175347
O O4 0.233277 0.432157 0.457838
O O5 0.729348 0.401109 0.850556
O O6 0.692037 0.340606 0.686724
O O7 0.466695 0.407774 0.923937
O O8 0.239808 0.490767 0.096222
O O9 0.178773 0.379402 0.199830
O O10 0.000000 0.566229 0.250000
O O11 0.746164 0.769586 0.198626
O O12 0.750000 0.750000 0.000000
O O13 0.972154 0.693645 0.962231
O O14 0.000000 0.700537 0.750000
#
# Coordination Sequence:
#
# PCOD9287880 Si02
#       6
#     8   8   8   8   8   8
#     4  11  21  38  61  89 126 167 204 247 313 373
#     4  11  23  39  62  89 127 166 206 254 311 369
#     4  11  22  38  61  91 124 166 207 251 308 371
#     4  11  24  38  59  94 127 163 208 253 306 370
#     4  10  23  39  58  88 119 161 201 253 311 361
#     4  10  22  38  59  86 121 154 204 252 306 365
#
# _framework density 20.241968
#
# number of rings (size 3 to 8) (size 9 to 14) (size 15 to 20)
#    0.000    1.333    3.333    2.500    9.333    4.667 
#    0.000    0.000    0.000    2.000    0.000    0.000 
#    0.000    0.000    0.000    0.000    0.000    0.000 
#
# Total GULP energy -133762.694165 kJ/mol
# GULP energy per Si atom -5573.445590 kJ/mol
# Density = 2.019590 g / cm^3
# Si number density = 20.241968 Si / 1000 Ang^3
#
#
#
# Elastic Constant Matrix: (Units=GPa)
#
#
# Indices 1 2 3 4 5 6 
#
# 1 37.5962 0.6667 16.9303 0.0000 -4.8809 0.0000
# 2 0.6667 67.5281 49.0041 0.0000 -14.0451 0.0000
# 3 16.9303 49.0041 73.1719 0.0000 3.6521 0.0000
# 4 0.0000 0.0000 0.0000 31.7028 0.0000 -6.2628
# 5 -4.8809 -14.0451 3.6521 0.0000 27.8017 0.0000
# 6 0.0000 0.0000 0.0000 -6.2628 0.0000 19.9325
#
#
#
# Elastic Compliance Matrix: (Units=1/GPa)
#
#
# Indices 1 2 3 4 5 6 
#
# 1 0.040806 0.023126 -0.026041 0.000000 0.022268 0.000000
# 2 0.023126 0.053326 -0.042893 0.000000 0.036634 0.000000
# 3 -0.026041 -0.042893 0.050055 0.000000 -0.032816 0.000000
# 4 0.000000 0.000000 0.000000 0.033630 0.000000 0.010567
# 5 0.022268 0.036634 -0.032816 0.000000 0.062696 0.000000
# 6 0.000000 0.000000 0.000000 0.010567 0.000000 0.053489
#
#
# Mechanical properties :
#
#
# Convention : Reuss Voigt Hill
#
# Bulk Modulus (GPa) = 19.02125 34.61093 26.81609
# Shear Modulus (GPa) = 12.40256 23.33375 17.86816
#
# Velocity S-wave (km/s) = 2.47799 3.39889 2.97430
# Velocity P-wave (km/s) = 4.19578 5.70429 5.00717
#
# Compressibility (1/GPa) = 0.05257277
#
# Stress axis : x y z
#
# Youngs Moduli (GPa) = 24.50625 18.75246 19.97793
#
# Poissons Ratio (x) = -0.43367 0.52024
# Poissons Ratio (y) = -0.56673 0.85690
# Poissons Ratio (z) = 0.63816 0.80434
#
# Static dielectric constant tensor:
#      x y z
#    x 1.761580 0.000000 0.076530 
#    y 0.000000 2.424480 0.000000 
#    z 0.076530 0.000000 2.041100 
# 
# From -- ./inp_files/89401.got.cif
#   From: 2010.05.17/outbox.cif.g08.bks.cpg/sg15_45_cif.got.tgz:89401.got - 2010.06.03 18:47:42.
