data_PCOD9287395
_publ_section_title
;
Structure prediction by ZEFSAII (Michael W. Deem and Ramdas Pophale) SiO2 
 PCOD9287395
Probable space group: C 2/C
;
_chemical_formula_sum "Si O2"
_cell_formula_units_Z 52
_cell_length_a 6.332485
_cell_length_b 17.995525
_cell_length_c 24.040112
_cell_angle_alpha 90.000000
_cell_angle_beta 119.117594
_cell_angle_gamma 90.000000
_cell_volume 2393.311116
_symmetry_space_group_name_H-M "C 2/C"
_symmetry_group_IT_number 15
_symmetry_cell_setting 'monoclinic'
loop_
_space_group_symop_operation_xyz
x,y,z
-x,y,1/2-z
-x,-y,-z
x,-y,1/2+z
1/2+x,1/2+y,z
1/2-x,1/2+y,1/2-z
1/2-x,1/2-y,-z
1/2+x,1/2-y,1/2+z
loop_
_atom_site_type_symbol
_atom_site_label
_atom_site_fract_x
_atom_site_fract_y
_atom_site_fract_z
Si Si1 0.338415 0.962076 0.678386
Si Si2 0.585243 0.973896 0.933472
Si Si3 0.315599 0.633205 0.836821
Si Si4 0.001931 0.227534 0.311706
Si Si5 0.000000 0.211835 0.750000
Si Si6 0.344601 0.379403 0.582666
Si Si7 0.922288 0.888345 0.472445
O O1 0.500000 0.936075 0.750000
O O2 0.481739 0.955587 0.638845
O O3 0.090210 0.919072 0.634560
O O4 0.262185 0.047838 0.679210
O O5 0.364412 0.942202 0.941272
O O6 0.684849 0.057984 0.941579
O O7 0.829044 0.932234 0.983891
O O8 0.091317 0.688066 0.816772
O O9 0.445384 0.662538 0.797767
O O10 0.450972 0.641489 0.913699
O O11 0.181125 0.185916 0.376134
O O12 0.000000 0.192596 0.250000
O O13 0.726354 0.236245 0.294639
O O14 0.379820 0.346250 0.525314
#
# Coordination Sequence:
#
# PCOD9287395 Si02
#       7
#     8   8   8   8   4   8   8
#     4  10  22  36  59  92 123 150 206 259 299 360
#     4   9  20  38  58  87 126 160 191 251 315 361
#     4  10  22  42  61  86 119 160 204 255 301 372
#     4  10  24  40  58  86 125 160 204 247 307 373
#     4  10  22  42  64  80 120 168 196 246 318 350
#     4  11  23  36  62  92 119 163 201 247 309 368
#     4   9  20  39  60  88 123 154 203 257 303 358
#
# _framework density 21.727221
#
# number of rings (size 3 to 8) (size 9 to 14) (size 15 to 20)
#    0.000    2.154    0.000    2.769    3.231    9.231 
#    0.000    1.538    0.000    0.000    0.000    0.000 
#    0.000    0.000    0.000    0.000    0.000    0.000 
#
# Total GULP energy -144899.803768 kJ/mol
# GULP energy per Si atom -5573.069376 kJ/mol
# Density = 2.167777 g / cm^3
# Si number density = 21.727221 Si / 1000 Ang^3
#
#
#
# Elastic Constant Matrix: (Units=GPa)
#
#
# Indices 1 2 3 4 5 6 
#
# 1 76.7920 8.4369 28.1043 0.0000 -11.3191 0.0000
# 2 8.4369 54.3502 11.1551 0.0000 -1.3140 0.0000
# 3 28.1043 11.1551 156.6373 0.0000 -19.5739 0.0000
# 4 0.0000 0.0000 0.0000 25.1140 0.0000 1.5106
# 5 -11.3191 -1.3140 -19.5739 0.0000 28.8666 0.0000
# 6 0.0000 0.0000 0.0000 1.5106 0.0000 2.6442
#
#
#
# Elastic Compliance Matrix: (Units=1/GPa)
#
#
# Indices 1 2 3 4 5 6 
#
# 1 0.014564 -0.001756 -0.001950 0.000000 0.004309 0.000000
# 2 -0.001756 0.018884 -0.001102 0.000000 -0.000576 0.000000
# 3 -0.001950 -0.001102 0.007332 0.000000 0.004157 0.000000
# 4 0.000000 0.000000 0.000000 0.041235 0.000000 -0.023557
# 5 0.004309 -0.000576 0.004157 0.000000 0.039124 0.000000
# 6 0.000000 0.000000 0.000000 -0.023557 0.000000 0.391647
#
#
# Mechanical properties :
#
#
# Convention : Reuss Voigt Hill
#
# Bulk Modulus (GPa) = 32.08796 42.57467 37.33131
# Shear Modulus (GPa) = 9.38456 27.33050 18.35753
#
# Velocity S-wave (km/s) = 2.08054 3.55053 2.90989
# Velocity P-wave (km/s) = 4.53565 6.03705 5.33938
#
# Compressibility (1/GPa) = 0.03116434
#
# Stress axis : x y z
#
# Youngs Moduli (GPa) = 68.66348 52.95473 136.39034
#
# Poissons Ratio (x) = 0.09301 0.26590
# Poissons Ratio (y) = 0.12060 0.15026
# Poissons Ratio (z) = 0.13386 0.05834
#
# Static dielectric constant tensor:
#      x y z
#    x 1.805750 0.000000 -0.045940 
#    y 0.000000 1.815680 0.000000 
#    z -0.045940 0.000000 1.827010 
# 
# From -- ./inp_files/227470.got.cif
#   From: 2010.05.17/outbox.cif.g08.bks.cpg/sg15_114_cif.got.tgz:227470.got - 2010.06.03 18:47:42.
