data_PCOD9287593
_publ_section_title
;
Structure prediction by ZEFSAII (Michael W. Deem and Ramdas Pophale) SiO2 
 PCOD9287593
Probable space group: C 2/C
;
_chemical_formula_sum "Si O2"
_cell_formula_units_Z 48
_cell_length_a 29.384507
_cell_length_b 5.217027
_cell_length_c 14.565357
_cell_angle_alpha 90.000000
_cell_angle_beta 72.941261
_cell_angle_gamma 90.000000
_cell_volume 2134.629816
_symmetry_space_group_name_H-M "C 2/C"
_symmetry_group_IT_number 15
_symmetry_cell_setting 'monoclinic'
loop_
_space_group_symop_operation_xyz
x,y,z
-x,y,1/2-z
-x,-y,-z
x,-y,1/2+z
1/2+x,1/2+y,z
1/2-x,1/2+y,1/2-z
1/2-x,1/2-y,-z
1/2+x,1/2-y,1/2+z
loop_
_atom_site_type_symbol
_atom_site_label
_atom_site_fract_x
_atom_site_fract_y
_atom_site_fract_z
Si Si1 0.468088 0.748204 0.533342
Si Si2 0.806649 0.089370 0.417754
Si Si3 0.918137 0.327891 0.757144
Si Si4 0.909805 0.801268 0.882605
Si Si5 0.770944 0.961739 0.115683
Si Si6 0.819046 0.727124 0.245976
O O1 0.500000 0.500000 0.500000
O O2 0.448098 0.755865 0.649165
O O3 0.429559 0.723350 0.473943
O O4 0.500000 0.000000 0.500000
O O5 0.852561 0.249932 0.420747
O O6 0.792678 0.908214 0.512076
O O7 0.760742 0.236817 0.408271
O O8 0.823156 0.945098 0.318690
O O9 0.932949 0.576608 0.806966
O O10 0.867343 0.418942 0.739951
O O11 0.916968 0.080727 0.828071
O O12 0.813379 0.850300 0.150538
O O13 0.732430 0.104116 0.201081
#
# Coordination Sequence:
#
# PCOD9287593 Si02
#       6
#     8   8   8   8   8   8
#     4  12  27  47  72 104 130 169 223 277 346 413
#     4  10  22  37  58  87 127 168 214 260 310 374
#     4  11  25  44  71  98 138 176 219 276 336 399
#     4  11  24  46  68 101 135 176 219 275 337 398
#     4  11  20  36  58  88 125 169 218 260 306 367
#     4  11  21  38  59  92 128 171 220 261 319 375
#
# _framework density 22.486335
#
# number of rings (size 3 to 8) (size 9 to 14) (size 15 to 20)
#    0.000    1.000    3.333    3.500    0.000    4.000 
#    0.000    1.667    0.000    0.000    0.000    0.000 
#    0.000    0.000    0.000    0.000    0.000    0.000 
#
# Total GULP energy -133763.050867 kJ/mol
# GULP energy per Si atom -5573.460453 kJ/mol
# Density = 2.243516 g / cm^3
# Si number density = 22.486335 Si / 1000 Ang^3
#
#
#
# Elastic Constant Matrix: (Units=GPa)
#
#
# Indices 1 2 3 4 5 6 
#
# 1 71.5080 3.6474 -11.0381 0.0000 37.0969 0.0000
# 2 3.6474 77.2464 2.9575 0.0000 13.3348 0.0000
# 3 -11.0381 2.9575 99.6264 0.0000 14.9456 0.0000
# 4 0.0000 0.0000 0.0000 46.5681 0.0000 0.5056
# 5 37.0969 13.3348 14.9456 0.0000 37.5468 0.0000
# 6 0.0000 0.0000 0.0000 0.5056 0.0000 29.6325
#
#
#
# Elastic Compliance Matrix: (Units=1/GPa)
#
#
# Indices 1 2 3 4 5 6 
#
# 1 0.037996 0.005336 0.010600 0.000000 -0.043655 0.000000
# 2 0.005336 0.014552 0.001835 0.000000 -0.011171 0.000000
# 3 0.010600 0.001835 0.013641 0.000000 -0.016555 0.000000
# 4 0.000000 0.000000 0.000000 0.021478 0.000000 -0.000366
# 5 -0.043655 -0.011171 -0.016555 0.000000 0.080323 0.000000
# 6 0.000000 0.000000 0.000000 -0.000366 0.000000 0.033753
#
#
# Mechanical properties :
#
#
# Convention : Reuss Voigt Hill
#
# Bulk Modulus (GPa) = 9.82976 26.61273 18.22125
# Shear Modulus (GPa) = 24.98625 39.60374 32.29499
#
# Velocity S-wave (km/s) = 3.33705 4.20126 3.79384
# Velocity P-wave (km/s) = 4.38506 5.94936 5.22607
#
# Compressibility (1/GPa) = 0.10173185
#
# Stress axis : x y z
#
# Youngs Moduli (GPa) = 26.31850 68.72034 73.30847
#
# Poissons Ratio (x) = -0.36670 -0.77710
# Poissons Ratio (y) = -0.14044 -0.13452
# Poissons Ratio (z) = -0.27899 -0.12610
#
# Static dielectric constant tensor:
#      x y z
#    x 2.112850 0.000000 -0.257680 
#    y 0.000000 1.851770 0.000000 
#    z -0.257680 0.000000 2.063530 
# 
# From -- ./inp_files/179645.got.cif
#   From: 2010.05.17/outbox.cif.g08.bks.cpg/sg15_90_cif.got.tgz:179645.got - 2010.06.03 18:47:42.
