data_PCOD9287045
_publ_section_title
;
Structure prediction by ZEFSAII (Michael W. Deem and Ramdas Pophale) SiO2 
 PCOD9287045
Probable space group: C 2/C
;
_chemical_formula_sum "Si O2"
_cell_formula_units_Z 60
_cell_length_a 11.428595
_cell_length_b 12.693739
_cell_length_c 17.241452
_cell_angle_alpha 90.000000
_cell_angle_beta 71.663107
_cell_angle_gamma 90.000000
_cell_volume 2374.239592
_symmetry_space_group_name_H-M "C 2/C"
_symmetry_group_IT_number 15
_symmetry_cell_setting 'monoclinic'
loop_
_space_group_symop_operation_xyz
x,y,z
-x,y,1/2-z
-x,-y,-z
x,-y,1/2+z
1/2+x,1/2+y,z
1/2-x,1/2+y,1/2-z
1/2-x,1/2-y,-z
1/2+x,1/2-y,1/2+z
loop_
_atom_site_type_symbol
_atom_site_label
_atom_site_fract_x
_atom_site_fract_y
_atom_site_fract_z
Si Si1 0.790302 0.247654 0.816481
Si Si2 0.720568 0.588138 0.799327
Si Si3 0.353188 0.388966 0.766563
Si Si4 0.572731 0.243780 0.959094
Si Si5 0.326189 0.522800 0.031786
Si Si6 0.942915 0.609780 0.393327
Si Si7 0.656868 0.680933 0.069191
Si Si8 0.500000 0.956100 0.250000
O O1 0.834810 0.189185 0.730738
O O2 0.697609 0.334331 0.799983
O O3 0.697487 0.193260 0.897508
O O4 0.895065 0.301878 0.843634
O O5 0.696494 0.505122 0.735582
O O6 0.660134 0.541315 0.889470
O O7 0.868112 0.602120 0.783083
O O8 0.500000 0.389209 0.750000
O O9 0.299910 0.331985 0.852673
O O10 0.608751 0.362186 0.982156
O O11 0.471493 0.258373 0.913969
O O12 0.516195 0.170746 0.038379
O O13 0.181079 0.547125 0.056648
O O14 0.361757 0.437490 0.959942
O O15 0.016020 0.529068 0.323561
O O16 0.750000 0.750000 0.000000
#
# Coordination Sequence:
#
# PCOD9287045 Si02
#       8
#     8   8   8   8   8   8   8   4
#     4  11  22  44  66  96 126 176 218 266 329 398
#     4  11  24  40  70  94 130 171 219 272 331 388
#     4  12  24  46  64  95 136 173 219 267 330 398
#     4  11  23  43  66  93 128 177 212 271 329 388
#     4  10  21  46  64  92 128 169 216 270 321 382
#     4  10  23  42  67  92 129 169 223 269 326 389
#     4  12  27  40  65  98 133 170 217 273 328 391
#     4  10  22  44  62  98 132 170 208 284 326 388
#
# _framework density 25.271249000000001
#
# number of rings (size 3 to 8) (size 9 to 14) (size 15 to 20)
#    0.000    1.067    5.333    2.800    6.533    3.200 
#    1.200    1.333    0.000    0.000    0.000    0.000 
#    0.000    0.000    0.000    0.000    0.000    0.000 
#
# Total GULP energy -167737.939493 kJ/mol
# GULP energy per Si atom -5591.264650 kJ/mol
# Density = 2.521373 g / cm^3
# Si number density = 25.271249 Si / 1000 Ang^3
#
#
#
# Elastic Constant Matrix: (Units=GPa)
#
#
# Indices 1 2 3 4 5 6 
#
# 1 43.0020 -6.3885 1.2215 0.0000 -1.2145 0.0000
# 2 -6.3885 42.9564 18.4608 0.0000 7.7693 0.0000
# 3 1.2215 18.4608 91.5224 0.0000 18.6905 0.0000
# 4 0.0000 0.0000 0.0000 41.5612 0.0000 0.8978
# 5 -1.2145 7.7693 18.6905 0.0000 40.9394 0.0000
# 6 0.0000 0.0000 0.0000 0.8978 0.0000 11.5072
#
#
#
# Elastic Compliance Matrix: (Units=1/GPa)
#
#
# Indices 1 2 3 4 5 6 
#
# 1 0.023897 0.003989 -0.001228 0.000000 0.000513 0.000000
# 2 0.003989 0.026438 -0.004836 0.000000 -0.002691 0.000000
# 3 -0.001228 -0.004836 0.012945 0.000000 -0.005029 0.000000
# 4 0.000000 0.000000 0.000000 0.024102 0.000000 -0.001880
# 5 0.000513 -0.002691 -0.005029 0.000000 0.027248 0.000000
# 6 0.000000 0.000000 0.000000 -0.001880 0.000000 0.087049
#
#
# Mechanical properties :
#
#
# Convention : Reuss Voigt Hill
#
# Bulk Modulus (GPa) = 16.91234 22.67428 19.79331
# Shear Modulus (GPa) = 22.16915 29.74736 25.95825
#
# Velocity S-wave (km/s) = 2.96505 3.43464 3.20845
# Velocity P-wave (km/s) = 4.29289 4.97201 4.64488
#
# Compressibility (1/GPa) = 0.05912843
#
# Stress axis : x y z
#
# Youngs Moduli (GPa) = 41.84676 37.82459 77.24909
#
# Poissons Ratio (x) = -0.15088 0.09488
# Poissons Ratio (y) = -0.16693 0.37361
# Poissons Ratio (z) = 0.05140 0.18294
#
# Static dielectric constant tensor:
#      x y z
#    x 1.965440 0.000000 -0.055480 
#    y 0.000000 2.047920 0.000000 
#    z -0.055480 0.000000 2.005060 
# 
# From -- ./inp_files/197853.got.cif
#   From: 2010.05.17/outbox.cif.g08.bks.cpg/sg15_99_cif.got.tgz:197853.got - 2010.06.03 18:47:42.
