data_PCOD9287983
_publ_section_title
;
Structure prediction by ZEFSAII (Michael W. Deem and Ramdas Pophale) SiO2 
 PCOD9287983
Probable space group: C 2/C
;
_chemical_formula_sum "Si O2"
_cell_formula_units_Z 48
_cell_length_a 10.313559
_cell_length_b 11.682595
_cell_length_c 20.209428
_cell_angle_alpha 90.000000
_cell_angle_beta 97.462136
_cell_angle_gamma 90.000000
_cell_volume 2414.394064
_symmetry_space_group_name_H-M "C 2/C"
_symmetry_group_IT_number 15
_symmetry_cell_setting 'monoclinic'
loop_
_space_group_symop_operation_xyz
x,y,z
-x,y,1/2-z
-x,-y,-z
x,-y,1/2+z
1/2+x,1/2+y,z
1/2-x,1/2+y,1/2-z
1/2-x,1/2-y,-z
1/2+x,1/2-y,1/2+z
loop_
_atom_site_type_symbol
_atom_site_label
_atom_site_fract_x
_atom_site_fract_y
_atom_site_fract_z
Si Si1 0.684175 0.908101 0.039725
Si Si2 0.068195 0.310862 0.686092
Si Si3 0.182352 0.669389 0.819499
Si Si4 0.404420 0.077776 0.818523
Si Si5 0.956774 0.782847 0.041910
Si Si6 0.779847 0.126240 0.971097
O O1 0.665313 0.910817 0.116583
O O2 0.818967 0.844271 0.034320
O O3 0.566887 0.834241 0.000360
O O4 0.705737 0.031133 0.008248
O O5 0.222885 0.277645 0.689762
O O6 0.046224 0.447113 0.680605
O O7 0.000000 0.271648 0.750000
O O8 0.002108 0.252156 0.618291
O O9 0.185796 0.597320 0.751659
O O10 0.237225 0.617811 0.891513
O O11 0.025423 0.668277 0.822636
O O12 0.063030 0.868851 0.018343
O O13 0.750000 0.250000 0.000000
#
# Coordination Sequence:
#
# PCOD9287983 Si02
#       6
#     8   8   8   8   8   8
#     4  11  22  38  62  88 128 161 209 258 311 376
#     4  11  21  39  65  86 123 164 206 255 319 369
#     4  10  22  38  61  90 122 159 208 258 309 373
#     4  11  22  40  61  91 123 161 207 258 310 374
#     4  10  23  38  59  93 120 167 204 259 316 371
#     4  11  22  39  63  90 122 162 211 259 313 371
#
# _framework density 19.880763999999999
#
# number of rings (size 3 to 8) (size 9 to 14) (size 15 to 20)
#    0.000    1.333    1.667    5.500    0.000    2.000 
#    0.000    0.000   25.667    0.000    0.000    0.000 
#    0.000    0.000    0.000    0.000    0.000    0.000 
#
# Total GULP energy -133789.968877 kJ/mol
# GULP energy per Si atom -5574.582037 kJ/mol
# Density = 1.983551 g / cm^3
# Si number density = 19.880764 Si / 1000 Ang^3
#
#
#
# Elastic Constant Matrix: (Units=GPa)
#
#
# Indices 1 2 3 4 5 6 
#
# 1 93.8339 25.6391 24.1555 0.0000 -3.1022 0.0000
# 2 25.6391 70.3862 29.1987 0.0000 3.5796 0.0000
# 3 24.1555 29.1987 120.3245 0.0000 -10.3520 0.0000
# 4 0.0000 0.0000 0.0000 24.9014 0.0000 -1.2494
# 5 -3.1022 3.5796 -10.3520 0.0000 33.7444 0.0000
# 6 0.0000 0.0000 0.0000 -1.2494 0.0000 23.2009
#
#
#
# Elastic Compliance Matrix: (Units=1/GPa)
#
#
# Indices 1 2 3 4 5 6 
#
# 1 0.012115 -0.003891 -0.001393 0.000000 0.001099 0.000000
# 2 -0.003891 0.017334 -0.003712 0.000000 -0.003335 0.000000
# 3 -0.001393 -0.003712 0.009772 0.000000 0.003264 0.000000
# 4 0.000000 0.000000 0.000000 0.040267 0.000000 0.002168
# 5 0.001099 -0.003335 0.003264 0.000000 0.031091 0.000000
# 6 0.000000 0.000000 0.000000 0.002168 0.000000 0.043219
#
#
# Mechanical properties :
#
#
# Convention : Reuss Voigt Hill
#
# Bulk Modulus (GPa) = 47.10665 49.17015 48.13840
# Shear Modulus (GPa) = 27.95361 30.07275 29.01318
#
# Velocity S-wave (km/s) = 3.75382 3.89351 3.82430
# Velocity P-wave (km/s) = 6.52183 6.70811 6.61562
#
# Compressibility (1/GPa) = 0.02122843
#
# Stress axis : x y z
#
# Youngs Moduli (GPa) = 82.53992 57.68908 102.33097
#
# Poissons Ratio (x) = 0.22447 0.14259
# Poissons Ratio (y) = 0.32117 0.37988
# Poissons Ratio (z) = 0.11501 0.21416
#
# Static dielectric constant tensor:
#      x y z
#    x 1.750150 0.000000 -0.006360 
#    y 0.000000 1.696300 0.000000 
#    z -0.006360 0.000000 1.696610 
# 
# From -- ./inp_files/196127.got.cif
#   From: 2010.05.17/outbox.cif.g08.bks.cpg/sg15_99_cif.got.tgz:196127.got - 2010.06.03 18:47:42.
