data_PCOD9287792
_publ_section_title
;
Structure prediction by ZEFSAII (Michael W. Deem and Ramdas Pophale) SiO2 
 PCOD9287792
Probable space group: C 2/C
;
_chemical_formula_sum "Si O2"
_cell_formula_units_Z 52
_cell_length_a 10.981104
_cell_length_b 10.487326
_cell_length_c 20.541348
_cell_angle_alpha 90.000000
_cell_angle_beta 115.276475
_cell_angle_gamma 90.000000
_cell_volume 2139.104715
_symmetry_space_group_name_H-M "C 2/C"
_symmetry_group_IT_number 15
_symmetry_cell_setting 'monoclinic'
loop_
_space_group_symop_operation_xyz
x,y,z
-x,y,1/2-z
-x,-y,-z
x,-y,1/2+z
1/2+x,1/2+y,z
1/2-x,1/2+y,1/2-z
1/2-x,1/2-y,-z
1/2+x,1/2-y,1/2+z
loop_
_atom_site_type_symbol
_atom_site_label
_atom_site_fract_x
_atom_site_fract_y
_atom_site_fract_z
Si Si1 0.257808 0.981024 0.940074
Si Si2 0.000000 0.535134 0.250000
Si Si3 0.416476 0.903385 0.098245
Si Si4 0.559680 0.267921 0.203728
Si Si5 0.224654 0.737158 0.417707
Si Si6 0.511377 0.353620 0.559962
Si Si7 0.844963 0.778935 0.404000
O O1 0.106013 0.937564 0.930752
O O2 0.323817 0.872606 0.909013
O O3 0.247998 0.115346 0.901849
O O4 0.362051 0.988417 0.025311
O O5 0.972807 0.457660 0.178539
O O6 0.888054 0.640859 0.247950
O O7 0.501523 0.786514 0.089378
O O8 0.280790 0.834014 0.087874
O O9 0.500000 0.349132 0.250000
O O10 0.432710 0.218597 0.132182
O O11 0.654610 0.321458 0.170717
O O12 0.250000 0.750000 0.500000
O O13 0.326668 0.632298 0.410386
O O14 0.465262 0.336370 0.474384
#
# Coordination Sequence:
#
# PCOD9287792 Si02
#       7
#     8   4   8   8   8   8   8
#     4   9  21  38  66  93 113 151 207 260 309 344
#     4  10  22  38  56  82 122 158 204 228 302 366
#     4   9  19  37  64  89 111 153 199 256 299 349
#     4  10  24  39  52  86 127 156 195 241 302 364
#     4  12  22  36  61  88 122 160 198 245 307 371
#     4   9  20  37  64  94 116 141 210 257 300 365
#     4   9  18  41  60  86 119 147 192 261 295 354
#
# _framework density 24.309235999999999
#
# number of rings (size 3 to 8) (size 9 to 14) (size 15 to 20)
#    0.462    1.846    1.538    2.769    2.154    3.077 
#    2.769    0.000    6.769    0.000    0.000    0.000 
#    0.000    0.000    0.000    0.000    0.000    0.000 
#
# Total GULP energy -144763.203901 kJ/mol
# GULP energy per Si atom -5567.815535 kJ/mol
# Density = 2.425391 g / cm^3
# Si number density = 24.309236 Si / 1000 Ang^3
#
#
#
# Elastic Constant Matrix: (Units=GPa)
#
#
# Indices 1 2 3 4 5 6 
#
# 1 92.3322 -3.1497 -2.2397 0.0000 -6.3306 0.0000
# 2 -3.1497 57.1165 -10.9809 0.0000 0.7753 0.0000
# 3 -2.2397 -10.9809 72.0935 0.0000 -16.6461 0.0000
# 4 0.0000 0.0000 0.0000 17.3453 0.0000 1.5896
# 5 -6.3306 0.7753 -16.6461 0.0000 38.9375 0.0000
# 6 0.0000 0.0000 0.0000 1.5896 0.0000 8.0303
#
#
#
# Elastic Compliance Matrix: (Units=1/GPa)
#
#
# Indices 1 2 3 4 5 6 
#
# 1 0.011030 0.000764 0.000965 0.000000 0.002191 0.000000
# 2 0.000764 0.018118 0.003028 0.000000 0.001058 0.000000
# 3 0.000965 0.003028 0.015960 0.000000 0.006919 0.000000
# 4 0.000000 0.000000 0.000000 0.058718 0.000000 -0.011623
# 5 0.002191 0.001058 0.006919 0.000000 0.028975 0.000000
# 6 0.000000 0.000000 0.000000 -0.011623 0.000000 0.126830
#
#
# Mechanical properties :
#
#
# Convention : Reuss Voigt Hill
#
# Bulk Modulus (GPa) = 18.30811 20.97795 19.64303
# Shear Modulus (GPa) = 18.63413 28.72343 23.67878
#
# Velocity S-wave (km/s) = 2.77166 3.44115 3.12439
# Velocity P-wave (km/s) = 4.21788 4.94338 4.59497
#
# Compressibility (1/GPa) = 0.05462061
#
# Stress axis : x y z
#
# Youngs Moduli (GPa) = 90.66084 55.19396 62.65793
#
# Poissons Ratio (x) = -0.04217 -0.06045
# Poissons Ratio (y) = -0.06927 -0.18970
# Poissons Ratio (z) = -0.08747 -0.16711
#
# Static dielectric constant tensor:
#      x y z
#    x 2.018600 0.000000 -0.035100 
#    y 0.000000 2.091970 0.000000 
#    z -0.035100 0.000000 2.165660 
# 
# From -- ./inp_files/237697.got.cif
#   From: 2010.05.17/outbox.cif.g08.bks.cpg/sg15_119_cif.got.tgz:237697.got - 2010.06.03 18:47:42.
