data_PCOD9287531
_publ_section_title
;
Structure prediction by ZEFSAII (Michael W. Deem and Ramdas Pophale) SiO2 
 PCOD9287531
Probable space group: C 2/C
;
_chemical_formula_sum "Si O2"
_cell_formula_units_Z 60
_cell_length_a 8.682705
_cell_length_b 16.295069
_cell_length_c 26.489427
_cell_angle_alpha 90.000000
_cell_angle_beta 128.723969
_cell_angle_gamma 90.000000
_cell_volume 2923.966407
_symmetry_space_group_name_H-M "C 2/C"
_symmetry_group_IT_number 15
_symmetry_cell_setting 'monoclinic'
loop_
_space_group_symop_operation_xyz
x,y,z
-x,y,1/2-z
-x,-y,-z
x,-y,1/2+z
1/2+x,1/2+y,z
1/2-x,1/2+y,1/2-z
1/2-x,1/2-y,-z
1/2+x,1/2-y,1/2+z
loop_
_atom_site_type_symbol
_atom_site_label
_atom_site_fract_x
_atom_site_fract_y
_atom_site_fract_z
Si Si1 0.000000 0.746764 0.750000
Si Si2 0.254054 0.675027 0.589484
Si Si3 0.674875 0.647548 0.626630
Si Si4 0.539476 0.000282 0.818116
Si Si5 0.654152 0.834390 0.825485
Si Si6 0.183444 0.955288 0.316416
Si Si7 0.969264 0.118840 0.158010
Si Si8 0.162275 0.721339 0.035673
O O1 0.186258 0.690085 0.802102
O O2 0.977185 0.807848 0.792278
O O3 0.451280 0.650209 0.599940
O O4 0.289125 0.756460 0.630192
O O5 0.221284 0.601065 0.621509
O O6 0.063084 0.693378 0.516911
O O7 0.774261 0.559888 0.635849
O O8 0.683249 0.703419 0.578673
O O9 0.500000 0.998477 0.750000
O O10 0.348806 0.031109 0.808410
O O11 0.562014 0.906340 0.840425
O O12 0.500000 0.811243 0.750000
O O13 0.838841 0.881828 0.837921
O O14 0.000000 0.913434 0.250000
O O15 0.092098 0.037452 0.323841
O O16 0.789484 0.148465 0.086323
O O17 0.250000 0.750000 0.000000
#
# Coordination Sequence:
#
# PCOD9287531 Si02
#       8
#     4   8   8   8   8   8   8   8
#     4  10  22  36  70 100 128 168 224 274 358 372
#     4  12  25  43  68  98 133 181 232 269 339 408
#     4  11  23  42  70  97 137 176 225 288 336 407
#     4  11  24  41  63 101 140 170 218 285 347 401
#     4  11  23  39  67  98 134 167 220 281 340 401
#     4  12  25  42  69 101 138 176 227 283 346 401
#     4  11  23  42  69  96 136 174 222 283 338 407
#     4  11  24  45  68  97 137 181 230 275 335 409
#
# _framework density 20.520071999999999
#
# number of rings (size 3 to 8) (size 9 to 14) (size 15 to 20)
#    0.000    0.800    2.667    5.600    5.600    0.533 
#    0.000    0.667    0.000    0.000    0.000    0.000 
#    0.000    0.000    0.000    0.000    0.000    0.000 
#
# Total GULP energy -167720.229623 kJ/mol
# GULP energy per Si atom -5590.674321 kJ/mol
# Density = 2.047337 g / cm^3
# Si number density = 20.520072 Si / 1000 Ang^3
#
#
#
# Elastic Constant Matrix: (Units=GPa)
#
#
# Indices 1 2 3 4 5 6 
#
# 1 109.7493 7.6532 22.8100 0.0000 6.6868 0.0000
# 2 7.6532 70.9610 24.5497 0.0000 0.1722 0.0000
# 3 22.8100 24.5497 121.9929 0.0000 20.1449 0.0000
# 4 0.0000 0.0000 0.0000 27.4469 0.0000 3.7412
# 5 6.6868 0.1722 20.1449 0.0000 33.8979 0.0000
# 6 0.0000 0.0000 0.0000 3.7412 0.0000 16.5302
#
#
#
# Elastic Compliance Matrix: (Units=1/GPa)
#
#
# Indices 1 2 3 4 5 6 
#
# 1 0.009521 -0.000499 -0.001519 0.000000 -0.000973 0.000000
# 2 -0.000499 0.015287 -0.003311 0.000000 0.001989 0.000000
# 3 -0.001519 -0.003311 0.010085 0.000000 -0.005677 0.000000
# 4 0.000000 0.000000 0.000000 0.037594 0.000000 -0.008508
# 5 -0.000973 0.001989 -0.005677 0.000000 0.033056 0.000000
# 6 0.000000 0.000000 0.000000 -0.008508 0.000000 0.062421
#
#
# Mechanical properties :
#
#
# Convention : Reuss Voigt Hill
#
# Bulk Modulus (GPa) = 41.26397 45.85878 43.56138
# Shear Modulus (GPa) = 26.78075 32.08769 29.43422
#
# Velocity S-wave (km/s) = 3.61654 3.95868 3.79147
# Velocity P-wave (km/s) = 6.13122 6.57964 6.35938
#
# Compressibility (1/GPa) = 0.02423421
#
# Stress axis : x y z
#
# Youngs Moduli (GPa) = 105.02548 65.41568 99.15637
#
# Poissons Ratio (x) = 0.03264 0.15064
# Poissons Ratio (y) = 0.05240 0.32835
# Poissons Ratio (z) = 0.15956 0.21662
#
# Static dielectric constant tensor:
#      x y z
#    x 1.772390 0.000000 0.000110 
#    y 0.000000 1.734820 0.000000 
#    z 0.000110 0.000000 1.703350 
# 
# From -- ./inp_files/289613.got.cif
#   From: 2010.05.17/outbox.cif.g08.bks.cpg/sg15_145_cif.got.tgz:289613.got - 2010.06.03 18:47:42.
