data_PCOD9287540
_publ_section_title
;
Structure prediction by ZEFSAII (Michael W. Deem and Ramdas Pophale) SiO2 
 PCOD9287540
Probable space group: C 2/C
;
_chemical_formula_sum "Si O2"
_cell_formula_units_Z 36
_cell_length_a 27.410923
_cell_length_b 5.927434
_cell_length_c 14.654107
_cell_angle_alpha 90.000000
_cell_angle_beta 36.247912
_cell_angle_gamma 90.000000
_cell_volume 1407.807014
_symmetry_space_group_name_H-M "C 2/C"
_symmetry_group_IT_number 15
_symmetry_cell_setting 'monoclinic'
loop_
_space_group_symop_operation_xyz
x,y,z
-x,y,1/2-z
-x,-y,-z
x,-y,1/2+z
1/2+x,1/2+y,z
1/2-x,1/2+y,1/2-z
1/2-x,1/2-y,-z
1/2+x,1/2-y,1/2+z
loop_
_atom_site_type_symbol
_atom_site_label
_atom_site_fract_x
_atom_site_fract_y
_atom_site_fract_z
Si Si1 0.034731 0.791968 0.504803
Si Si2 0.365486 0.983767 0.262953
Si Si3 0.091474 0.661214 0.121619
Si Si4 0.000000 0.922567 0.750000
Si Si5 0.214694 0.299193 0.278446
O O1 0.114674 0.698186 0.331823
O O2 0.955266 0.630313 0.628631
O O3 0.000000 0.000000 0.500000
O O4 0.051024 0.831236 0.587140
O O5 0.301982 0.831342 0.303995
O O6 0.351298 0.047136 0.389293
O O7 0.067034 0.909194 0.195434
O O8 0.000000 0.553924 0.250000
O O9 0.130262 0.681167 0.964282
O O10 0.257118 0.540606 0.243639
#
# Coordination Sequence:
#
# PCOD9287540 Si02
#       5
#     8   8   8   4   8
#     4  11  21  40  70 112 146 183 247 321 384 431
#     4  11  25  42  71 105 150 195 254 312 376 450
#     4  10  23  48  76 116 140 195 257 313 379 450
#     4  10  22  36  78 110 146 188 238 322 378 448
#     4  12  31  51  75 108 159 209 252 310 381 454
#
# _framework density 25.571686
#
# number of rings (size 3 to 8) (size 9 to 14) (size 15 to 20)
#    0.667    0.444    2.222    4.000   10.889    1.778 
#    0.000    0.000    0.000    0.000    0.000    0.000 
#    0.000    0.000    0.000    0.000    0.000    0.000 
#
# Total GULP energy -100361.153090 kJ/mol
# GULP energy per Si atom -5575.619616 kJ/mol
# Density = 2.551348 g / cm^3
# Si number density = 25.571686 Si / 1000 Ang^3
#
#
#
# Elastic Constant Matrix: (Units=GPa)
#
#
# Indices 1 2 3 4 5 6 
#
# 1 110.9870 22.7213 4.8611 -0.0030 28.1579 -0.0042
# 2 22.7213 71.4267 16.5125 -0.0040 -2.5458 -0.0124
# 3 4.8611 16.5125 64.9115 -0.0039 13.7653 -0.0067
# 4 -0.0030 -0.0040 -0.0039 37.5331 0.0027 -10.0929
# 5 28.1579 -2.5458 13.7653 0.0027 40.7014 0.0058
# 6 -0.0042 -0.0124 -0.0067 -10.0929 0.0058 19.7828
#
#
#
# Elastic Compliance Matrix: (Units=1/GPa)
#
#
# Indices 1 2 3 4 5 6 
#
# 1 0.012334 -0.004807 0.002340 0.000003 -0.009625 0.000005
# 2 -0.004807 0.016966 -0.005264 0.000002 0.006167 0.000007
# 3 0.002340 -0.005264 0.018295 0.000004 -0.008136 0.000008
# 4 0.000003 0.000002 0.000004 0.030880 -0.000007 0.015754
# 5 -0.009625 0.006167 -0.008136 -0.000007 0.034365 -0.000015
# 6 0.000005 0.000007 0.000008 0.015754 -0.000015 0.058587
#
#
# Mechanical properties :
#
#
# Convention : Reuss Voigt Hill
#
# Bulk Modulus (GPa) = 31.12094 37.27945 34.20020
# Shear Modulus (GPa) = 25.30382 33.15216 29.22799
#
# Velocity S-wave (km/s) = 3.14908 3.60452 3.38447
# Velocity P-wave (km/s) = 5.04171 5.65097 5.35501
#
# Compressibility (1/GPa) = 0.03213271
#
# Stress axis : x y z
#
# Youngs Moduli (GPa) = 81.07926 58.94011 54.66090
#
# Poissons Ratio (x) = 0.28335 -0.12793
# Poissons Ratio (y) = 0.38979 0.28773
# Poissons Ratio (z) = -0.18976 0.31025
#
# Static dielectric constant tensor:
#      x y z
#    x 2.058950 0.000000 -0.019050 
#    y 0.000000 2.302920 0.000000 
#    z -0.019050 0.000000 1.932240 
# 
# From -- ./inp_files/179945.got.cif
#   From: 2010.05.17/outbox.cif.g08.bks.cpg/sg15_90_cif.got.tgz:179945.got - 2010.06.03 18:47:42.
