data_PCOD9287642
_publ_section_title
;
Structure prediction by ZEFSAII (Michael W. Deem and Ramdas Pophale) SiO2 
 PCOD9287642
Probable space group: C 2/C
;
_chemical_formula_sum "Si O2"
_cell_formula_units_Z 32
_cell_length_a 14.042471
_cell_length_b 18.785768
_cell_length_c 5.032602
_cell_angle_alpha 90.000000
_cell_angle_beta 106.541701
_cell_angle_gamma 90.000000
_cell_volume 1272.647960
_symmetry_space_group_name_H-M "C 2/C"
_symmetry_group_IT_number 15
_symmetry_cell_setting 'monoclinic'
loop_
_space_group_symop_operation_xyz
x,y,z
-x,y,1/2-z
-x,-y,-z
x,-y,1/2+z
1/2+x,1/2+y,z
1/2-x,1/2+y,1/2-z
1/2-x,1/2-y,-z
1/2+x,1/2-y,1/2+z
loop_
_atom_site_type_symbol
_atom_site_label
_atom_site_fract_x
_atom_site_fract_y
_atom_site_fract_z
Si Si1 0.500000 0.722466 0.250000
Si Si2 0.681209 0.733239 0.690618
Si Si3 0.198221 0.456563 0.736406
Si Si4 0.600565 0.610930 0.928456
Si Si5 0.000000 0.553499 0.250000
O O1 0.574880 0.764644 0.503589
O O2 0.436824 0.672374 0.399519
O O3 0.750000 0.750000 0.500000
O O4 0.648875 0.651870 0.717375
O O5 0.750000 0.750000 0.000000
O O6 0.188602 0.473903 0.418976
O O7 0.107149 0.409614 0.785980
O O8 0.309418 0.430796 0.873081
O O9 0.500000 0.572335 0.750000
O O10 0.000000 0.500000 0.500000
#
# Coordination Sequence:
#
# PCOD9287642 Si02
#       5
#     4   8   8   8   4
#     4  10  22  42  62  91 132 168 201 264 330 378
#     4  11  22  40  65  88 118 164 212 258 320 382
#     4  10  22  37  61  88 124 167 210 255 303 368
#     4  10  23  39  62  91 130 165 208 256 321 379
#     4   8  16  36  56  77 108 156 201 248 306 346
#
# _framework density 25.144421999999999
#
# number of rings (size 3 to 8) (size 9 to 14) (size 15 to 20)
#    0.000    2.000    2.500    0.000    7.000    1.000 
#    0.000    2.500    0.000    1.500    0.000    0.000 
#    0.000    0.000    0.000    0.000    0.000    0.000 
#
# Total GULP energy -89128.984220 kJ/mol
# GULP energy per Si atom -5570.561514 kJ/mol
# Density = 2.508719 g / cm^3
# Si number density = 25.144422 Si / 1000 Ang^3
#
#
#
# Elastic Constant Matrix: (Units=GPa)
#
#
# Indices 1 2 3 4 5 6 
#
# 1 189.6368 29.7306 66.5592 0.0000 33.5628 0.0000
# 2 29.7306 16.5605 17.6474 0.0000 2.8824 0.0000
# 3 66.5592 17.6474 208.5187 0.0000 25.3036 0.0000
# 4 0.0000 0.0000 0.0000 28.2149 0.0000 8.7784
# 5 33.5628 2.8824 25.3036 0.0000 80.3388 0.0000
# 6 0.0000 0.0000 0.0000 8.7784 0.0000 25.2349
#
#
#
# Elastic Compliance Matrix: (Units=1/GPa)
#
#
# Indices 1 2 3 4 5 6 
#
# 1 0.008183 -0.012961 -0.001203 0.000000 -0.002575 0.000000
# 2 -0.012961 0.086931 -0.003638 0.000000 0.003441 0.000000
# 3 -0.001203 -0.003638 0.005626 0.000000 -0.001139 0.000000
# 4 0.000000 0.000000 0.000000 0.039744 0.000000 -0.013826
# 5 -0.002575 0.003441 -0.001139 0.000000 0.013758 0.000000
# 6 0.000000 0.000000 0.000000 -0.013826 0.000000 0.044437
#
#
# Mechanical properties :
#
#
# Convention : Reuss Voigt Hill
#
# Bulk Modulus (GPa) = 15.35229 71.39894 43.37561
# Shear Modulus (GPa) = 19.53175 46.80964 33.17070
#
# Velocity S-wave (km/s) = 2.79011 4.31934 3.63603
# Velocity P-wave (km/s) = 4.06183 7.30293 5.90895
#
# Compressibility (1/GPa) = 0.06513686
#
# Stress axis : x y z
#
# Youngs Moduli (GPa) = 122.20388 11.50341 177.75612
#
# Poissons Ratio (x) = 0.14910 0.21378
# Poissons Ratio (y) = 1.58390 0.64660
# Poissons Ratio (z) = 0.14697 0.04184
#
# Static dielectric constant tensor:
#      x y z
#    x 2.125180 0.000000 0.122020 
#    y 0.000000 2.037470 0.000000 
#    z 0.122020 0.000000 2.054700 
# 
# From -- ./inp_files/4027.got.cif
#   From: 2010.05.17/outbox.cif.g08.bks.cpg/sg15_3_cif.got.tgz:4027.got - 2010.06.03 18:47:42.
