data_PCOD9287273
_publ_section_title
;
Structure prediction by ZEFSAII (Michael W. Deem and Ramdas Pophale) SiO2 
 PCOD9287273
Probable space group: C 2/C
;
_chemical_formula_sum "Si O2"
_cell_formula_units_Z 56
_cell_length_a 16.108079
_cell_length_b 6.329263
_cell_length_c 26.869707
_cell_angle_alpha 90.000000
_cell_angle_beta 74.245474
_cell_angle_gamma 90.000000
_cell_volume 2636.517672
_symmetry_space_group_name_H-M "C 2/C"
_symmetry_group_IT_number 15
_symmetry_cell_setting 'monoclinic'
loop_
_space_group_symop_operation_xyz
x,y,z
-x,y,1/2-z
-x,-y,-z
x,-y,1/2+z
1/2+x,1/2+y,z
1/2-x,1/2+y,1/2-z
1/2-x,1/2-y,-z
1/2+x,1/2-y,1/2+z
loop_
_atom_site_type_symbol
_atom_site_label
_atom_site_fract_x
_atom_site_fract_y
_atom_site_fract_z
Si Si1 0.412737 0.316477 0.043622
Si Si2 0.046800 0.328599 0.690312
Si Si3 0.757186 0.858440 0.552435
Si Si4 0.094412 0.521871 0.362934
Si Si5 0.643451 0.186590 0.625914
Si Si6 0.974529 0.826320 0.931338
Si Si7 0.272359 0.431525 0.349102
O O1 0.338834 0.485529 0.042043
O O2 0.387377 0.155226 0.090170
O O3 0.489021 0.454505 0.055159
O O4 0.441587 0.213682 0.986994
O O5 0.084331 0.563014 0.674299
O O6 0.133891 0.180326 0.676405
O O7 0.000000 0.299417 0.750000
O O8 0.968704 0.334585 0.661634
O O9 0.750000 0.750000 0.500000
O O10 0.760106 0.685605 0.595525
O O11 0.678627 0.009716 0.582181
O O12 0.041358 0.319354 0.391092
O O13 0.186846 0.435385 0.327724
O O14 0.599572 0.356722 0.596848
O O15 0.710321 0.321500 0.645554
#
# Coordination Sequence:
#
# PCOD9287273 Si02
#       7
#     8   8   8   8   8   8   8
#     4  11  21  36  57  91 129 172 220 255 307 384
#     4  10  25  48  67  97 128 157 215 287 338 396
#     4  11  23  35  58  93 133 170 214 264 302 376
#     4  11  22  41  67  90 127 172 211 268 328 387
#     4  10  22  41  64  89 128 170 211 259 328 386
#     4  10  22  35  58  89 127 174 210 259 308 374
#     4  11  22  42  66  95 126 170 216 262 324 390
#
# _framework density 21.240138000000002
#
# number of rings (size 3 to 8) (size 9 to 14) (size 15 to 20)
#    0.000    1.429    2.857    2.143    2.000    7.429 
#    2.571    0.000    0.000    0.000    0.000    0.000 
#    0.000    0.000    0.000    0.000    0.000    0.000 
#
# Total GULP energy -155952.527438 kJ/mol
# GULP energy per Si atom -5569.733123 kJ/mol
# Density = 2.119179 g / cm^3
# Si number density = 21.240138 Si / 1000 Ang^3
#
#
#
# Elastic Constant Matrix: (Units=GPa)
#
#
# Indices 1 2 3 4 5 6 
#
# 1 102.7579 9.6698 36.9215 -0.0001 -12.7767 0.0000
# 2 9.6698 36.7707 7.5337 -0.0002 -1.8638 0.0001
# 3 36.9215 7.5337 77.9041 0.0000 -16.4527 0.0000
# 4 -0.0001 -0.0002 0.0000 12.6672 -0.0001 2.6647
# 5 -12.7767 -1.8638 -16.4527 -0.0001 18.2672 0.0000
# 6 0.0000 0.0001 0.0000 2.6647 0.0000 29.0310
#
#
#
# Elastic Compliance Matrix: (Units=1/GPa)
#
#
# Indices 1 2 3 4 5 6 
#
# 1 0.012109 -0.002019 -0.004691 0.000000 0.004039 0.000000
# 2 -0.002019 0.028086 -0.001793 0.000000 -0.000162 0.000000
# 3 -0.004691 -0.001793 0.017908 0.000000 0.012665 0.000000
# 4 0.000000 0.000000 0.000000 0.080498 0.000000 -0.007389
# 5 0.004039 -0.000162 0.012665 0.000000 0.068958 0.000000
# 6 0.000000 0.000000 0.000000 -0.007389 0.000000 0.035124
#
#
# Mechanical properties :
#
#
# Convention : Reuss Voigt Hill
#
# Bulk Modulus (GPa) = 24.33289 36.18696 30.25993
# Shear Modulus (GPa) = 18.28905 22.88028 20.58467
#
# Velocity S-wave (km/s) = 2.93757 3.28566 3.11648
# Velocity P-wave (km/s) = 4.79444 5.60965 5.21799
#
# Compressibility (1/GPa) = 0.04109664
#
# Stress axis : x y z
#
# Youngs Moduli (GPa) = 82.58213 35.60529 55.84225
#
# Poissons Ratio (x) = 0.07187 0.26194
# Poissons Ratio (y) = 0.16670 0.10015
# Poissons Ratio (z) = 0.38738 0.06386
#
# Static dielectric constant tensor:
#      x y z
#    x 1.892970 0.000000 -0.039320 
#    y 0.000000 1.772630 0.000000 
#    z -0.039320 0.000000 1.750690 
# 
# From -- ./inp_files/297733.got.cif
#   From: 2010.05.17/outbox.cif.g08.bks.cpg/sg15_149_cif.got.tgz:297733.got - 2010.06.03 18:47:42.
