data_PCOD9287329
_publ_section_title
;
Structure prediction by ZEFSAII (Michael W. Deem and Ramdas Pophale) SiO2 
 PCOD9287329
Probable space group: C 2/C
;
_chemical_formula_sum "Si O2"
_cell_formula_units_Z 56
_cell_length_a 30.507986
_cell_length_b 12.024340
_cell_length_c 7.754360
_cell_angle_alpha 90.000000
_cell_angle_beta 118.923585
_cell_angle_gamma 90.000000
_cell_volume 2489.777651
_symmetry_space_group_name_H-M "C 2/C"
_symmetry_group_IT_number 15
_symmetry_cell_setting 'monoclinic'
loop_
_space_group_symop_operation_xyz
x,y,z
-x,y,1/2-z
-x,-y,-z
x,-y,1/2+z
1/2+x,1/2+y,z
1/2-x,1/2+y,1/2-z
1/2-x,1/2-y,-z
1/2+x,1/2-y,1/2+z
loop_
_atom_site_type_symbol
_atom_site_label
_atom_site_fract_x
_atom_site_fract_y
_atom_site_fract_z
Si Si1 0.086169 0.388714 0.902829
Si Si2 0.544297 0.755364 0.533967
Si Si3 0.259897 0.642277 0.300714
Si Si4 0.122625 0.113190 0.605922
Si Si5 0.177782 0.313693 0.888776
Si Si6 0.683481 0.563316 0.404157
Si Si7 0.439466 0.875475 0.261517
O O1 0.058812 0.286338 0.755826
O O2 0.140833 0.394420 0.920038
O O3 0.054637 0.495702 0.779939
O O4 0.089866 0.375839 0.114408
O O5 0.563252 0.633233 0.515629
O O6 0.488912 0.802847 0.400152
O O7 0.577354 0.824434 0.453677
O O8 0.203846 0.638135 0.268072
O O9 0.280095 0.762474 0.404212
O O10 0.276373 0.628070 0.135133
O O11 0.286829 0.537223 0.446106
O O12 0.147046 0.203456 0.779749
O O13 0.150637 0.131126 0.478184
O O14 0.141554 0.993333 0.702476
#
# Coordination Sequence:
#
# PCOD9287329 Si02
#       7
#     8   8   8   8   8   8   8
#     4  11  21  35  55  83 113 158 185 226 273 343
#     4  10  22  36  55  82 113 144 192 231 273 348
#     4   9  18  35  52  80 110 149 180 235 274 326
#     4   9  19  37  56  84 105 144 187 237 279 339
#     4   9  20  34  52  81 119 139 188 231 275 333
#     4   9  18  34  61  76 105 148 189 226 286 329
#     4  11  22  35  57  79 115 154 184 228 284 338
#
# _framework density 22.491966999999999
#
# number of rings (size 3 to 8) (size 9 to 14) (size 15 to 20)
#    0.000    2.286    1.429    0.857    4.000    1.714 
#    0.000    0.000    0.000    3.429    0.000    0.000 
#    0.000    0.000    0.000    0.000    0.000    0.000 
#
# Total GULP energy -155873.633808 kJ/mol
# GULP energy per Si atom -5566.915493 kJ/mol
# Density = 2.244077 g / cm^3
# Si number density = 22.491967 Si / 1000 Ang^3
#
#
#
# Elastic Constant Matrix: (Units=GPa)
#
#
# Indices 1 2 3 4 5 6 
#
# 1 105.2140 19.6255 6.1540 0.0000 -11.2997 0.0000
# 2 19.6255 27.2651 -4.0696 0.0000 -2.6244 0.0000
# 3 6.1540 -4.0696 42.2493 0.0000 -28.8633 0.0000
# 4 0.0000 0.0000 0.0000 13.7574 0.0000 -4.8507
# 5 -11.2997 -2.6244 -28.8633 0.0000 36.8721 0.0000
# 6 0.0000 0.0000 0.0000 -4.8507 0.0000 31.8846
#
#
#
# Elastic Compliance Matrix: (Units=1/GPa)
#
#
# Indices 1 2 3 4 5 6 
#
# 1 0.011295 -0.008070 -0.000968 0.000000 0.002130 0.000000
# 2 -0.008070 0.045495 0.013070 0.000000 0.010996 0.000000
# 3 -0.000968 0.013070 0.054817 0.000000 0.043544 0.000000
# 4 0.000000 0.000000 0.000000 0.076808 0.000000 0.011685
# 5 0.002130 0.010996 0.043544 0.000000 0.062642 0.000000
# 6 0.000000 0.000000 0.000000 0.011685 0.000000 0.033141
#
#
# Mechanical properties :
#
#
# Convention : Reuss Voigt Hill
#
# Bulk Modulus (GPa) = 8.35620 24.23869 16.29745
# Shear Modulus (GPa) = 15.82165 26.70407 21.26286
#
# Velocity S-wave (km/s) = 2.65511 3.44942 3.07800
# Velocity P-wave (km/s) = 3.62253 5.16378 4.46024
#
# Compressibility (1/GPa) = 0.11967166
#
# Stress axis : x y z
#
# Youngs Moduli (GPa) = 88.53496 21.98055 18.24260
#
# Poissons Ratio (x) = 0.17737 0.01765
# Poissons Ratio (y) = 0.71444 -0.23843
# Poissons Ratio (z) = 0.08567 -0.28728
#
# Static dielectric constant tensor:
#      x y z
#    x 1.917550 0.000000 0.064630 
#    y 0.000000 1.887170 0.000000 
#    z 0.064630 0.000000 1.908400 
# 
# From -- ./inp_files/69153.got.cif
#   From: 2010.05.17/outbox.cif.g08.bks.cpg/sg15_35_cif.got.tgz:69153.got - 2010.06.03 18:47:42.
