data_PCOD9287344
_publ_section_title
;
Structure prediction by ZEFSAII (Michael W. Deem and Ramdas Pophale) SiO2 
 PCOD9287344
Probable space group: C 2/C
;
_chemical_formula_sum "Si O2"
_cell_formula_units_Z 60
_cell_length_a 24.858890
_cell_length_b 14.273497
_cell_length_c 11.008286
_cell_angle_alpha 90.000000
_cell_angle_beta 131.307535
_cell_angle_gamma 90.000000
_cell_volume 2934.095853
_symmetry_space_group_name_H-M "C 2/C"
_symmetry_group_IT_number 15
_symmetry_cell_setting 'monoclinic'
loop_
_space_group_symop_operation_xyz
x,y,z
-x,y,1/2-z
-x,-y,-z
x,-y,1/2+z
1/2+x,1/2+y,z
1/2-x,1/2+y,1/2-z
1/2-x,1/2-y,-z
1/2+x,1/2-y,1/2+z
loop_
_atom_site_type_symbol
_atom_site_label
_atom_site_fract_x
_atom_site_fract_y
_atom_site_fract_z
Si Si1 0.829725 0.855398 0.136980
Si Si2 0.619746 0.271427 0.056835
Si Si3 0.500000 0.630080 0.250000
Si Si4 0.254815 0.826080 0.114160
Si Si5 0.691930 0.974936 0.905871
Si Si6 0.172454 0.832371 0.644467
Si Si7 0.423305 0.533271 0.336577
Si Si8 0.168097 0.425321 0.608165
O O1 0.852151 0.774383 0.263280
O O2 0.872181 0.944534 0.252260
O O3 0.849870 0.833742 0.029003
O O4 0.747835 0.890532 0.012398
O O5 0.680653 0.329554 0.076282
O O6 0.624281 0.167404 0.011632
O O7 0.541678 0.311210 0.914044
O O8 0.440434 0.569451 0.227866
O O9 0.270575 0.926936 0.080930
O O10 0.311379 0.773499 0.286700
O O11 0.250000 0.750000 0.000000
O O12 0.649254 0.953394 0.718142
O O13 0.658596 0.999592 0.987049
O O14 0.115002 0.886505 0.641527
O O15 0.247947 0.890941 0.764954
O O16 0.500000 0.500000 0.500000
#
# Coordination Sequence:
#
# PCOD9287344 Si02
#       8
#     8   8   4   8   8   8   8   8
#     4  11  22  37  56  87 125 152 193 244 303 349
#     4  11  23  38  56  84 118 156 196 247 296 362
#     4  12  24  38  60  80 116 166 196 238 286 360
#     4  11  19  36  59  85 115 148 200 237 293 350
#     4  11  20  35  60  88 116 155 191 253 295 354
#     4  10  22  36  56  86 120 156 191 244 290 353
#     4  12  22  37  56  87 120 161 192 227 288 365
#     4  10  22  37  60  88 118 152 201 250 306 347
#
# _framework density 20.44923
#
# number of rings (size 3 to 8) (size 9 to 14) (size 15 to 20)
#    0.000    1.067    5.333    3.200    1.867    5.867 
#    0.000    0.000    0.000    0.800    0.000    0.000 
#    0.000    0.000    0.000    0.000    0.000    0.000 
#
# Total GULP energy -167465.850419 kJ/mol
# GULP energy per Si atom -5582.195014 kJ/mol
# Density = 2.040269 g / cm^3
# Si number density = 20.449230 Si / 1000 Ang^3
#
#
#
# Elastic Constant Matrix: (Units=GPa)
#
#
# Indices 1 2 3 4 5 6 
#
# 1 55.1821 4.8033 14.5300 0.0000 -17.4995 0.0000
# 2 4.8033 35.7959 15.3274 0.0000 0.8580 0.0000
# 3 14.5300 15.3274 68.2148 0.0000 -20.8344 0.0000
# 4 0.0000 0.0000 0.0000 25.9206 0.0000 -8.7115
# 5 -17.4995 0.8580 -20.8344 0.0000 33.7756 0.0000
# 6 0.0000 0.0000 0.0000 -8.7115 0.0000 27.4754
#
#
#
# Elastic Compliance Matrix: (Units=1/GPa)
#
#
# Indices 1 2 3 4 5 6 
#
# 1 0.022073 -0.002953 -0.000644 0.000000 0.011114 0.000000
# 2 -0.002953 0.032413 -0.009084 0.000000 -0.007957 0.000000
# 3 -0.000644 -0.009084 0.020708 0.000000 0.012671 0.000000
# 4 0.000000 0.000000 0.000000 0.043181 0.000000 0.013691
# 5 0.011114 -0.007957 0.012671 0.000000 0.043384 0.000000
# 6 0.000000 0.000000 0.000000 0.013691 0.000000 0.040737
#
#
# Mechanical properties :
#
#
# Convention : Reuss Voigt Hill
#
# Bulk Modulus (GPa) = 20.06722 25.39046 22.72884
# Shear Modulus (GPa) = 20.45265 25.73645 23.09455
#
# Velocity S-wave (km/s) = 3.16597 3.55146 3.36424
# Velocity P-wave (km/s) = 4.81653 5.40929 5.12150
#
# Compressibility (1/GPa) = 0.04983251
#
# Stress axis : x y z
#
# Youngs Moduli (GPa) = 45.30451 30.85193 48.29095
#
# Poissons Ratio (x) = 0.09110 0.03108
# Poissons Ratio (y) = 0.13377 0.43868
# Poissons Ratio (z) = 0.02916 0.28027
#
# Static dielectric constant tensor:
#      x y z
#    x 1.730040 0.000000 -0.054870 
#    y 0.000000 1.758760 0.000000 
#    z -0.054870 0.000000 1.782300 
# 
# From -- ./inp_files/112406.got.cif
#   From: 2010.05.17/outbox.cif.g08.bks.cpg/sg15_57_cif.got.tgz:112406.got - 2010.06.03 18:47:42.
