data_PCOD9287306
_publ_section_title
;
Structure prediction by ZEFSAII (Michael W. Deem and Ramdas Pophale) SiO2 
 PCOD9287306
Probable space group: C 2/C
;
_chemical_formula_sum "Si O2"
_cell_formula_units_Z 60
_cell_length_a 15.362834
_cell_length_b 14.239851
_cell_length_c 22.477486
_cell_angle_alpha 90.000000
_cell_angle_beta 146.743933
_cell_angle_gamma 90.000000
_cell_volume 2696.544153
_symmetry_space_group_name_H-M "C 2/C"
_symmetry_group_IT_number 15
_symmetry_cell_setting 'monoclinic'
loop_
_space_group_symop_operation_xyz
x,y,z
-x,y,1/2-z
-x,-y,-z
x,-y,1/2+z
1/2+x,1/2+y,z
1/2-x,1/2+y,1/2-z
1/2-x,1/2-y,-z
1/2+x,1/2-y,1/2+z
loop_
_atom_site_type_symbol
_atom_site_label
_atom_site_fract_x
_atom_site_fract_y
_atom_site_fract_z
Si Si1 0.352492 0.882453 0.060908
Si Si2 0.185815 0.219883 0.367069
Si Si3 0.795239 0.300325 0.249894
Si Si4 0.326760 0.490663 0.326383
Si Si5 0.895040 0.350222 0.813670
Si Si6 0.000000 0.721516 0.250000
Si Si7 0.683252 0.253629 0.528101
Si Si8 0.179274 0.022145 0.037980
O O1 0.291252 0.808283 0.075595
O O2 0.533538 0.849019 0.156156
O O3 0.267159 0.864755 0.949168
O O4 0.309696 0.981845 0.066617
O O5 0.243247 0.253726 0.335813
O O6 0.000000 0.200409 0.250000
O O7 0.679477 0.384757 0.199284
O O8 0.760391 0.217695 0.275656
O O9 0.185364 0.551232 0.217712
O O10 0.291677 0.490875 0.377403
O O11 0.508370 0.522093 0.421993
O O12 0.972545 0.342269 0.792674
O O13 0.025144 0.308864 0.933880
O O14 0.837766 0.780177 0.152647
O O15 0.750000 0.250000 0.500000
O O16 0.662998 0.364549 0.531006
#
# Coordination Sequence:
#
# PCOD9287306 Si02
#       8
#     8   8   8   8   8   4   8   8
#     4  10  22  35  67  95 131 171 211 260 328 394
#     4   9  20  38  58  93 132 169 208 254 325 392
#     4  11  23  40  65  98 133 170 216 275 328 406
#     4  11  24  38  65 100 130 167 225 285 327 384
#     4  11  24  41  67  96 136 170 225 283 339 390
#     4  10  22  42  70  94 122 180 226 278 336 390
#     4  10  22  40  65  95 124 172 221 274 334 387
#     4  11  22  40  65  97 131 169 224 280 325 391
#
# _framework density 22.250702
#
# number of rings (size 3 to 8) (size 9 to 14) (size 15 to 20)
#    0.000    1.600    4.000    0.000    9.333    1.067 
#    0.000    0.000   11.733    1.600    0.000    0.000 
#    0.000    0.000    0.000    0.000    0.000    0.000 
#
# Total GULP energy -167239.142924 kJ/mol
# GULP energy per Si atom -5574.638097 kJ/mol
# Density = 2.220006 g / cm^3
# Si number density = 22.250702 Si / 1000 Ang^3
#
#
#
# Elastic Constant Matrix: (Units=GPa)
#
#
# Indices 1 2 3 4 5 6 
#
# 1 61.2096 15.5882 26.5694 0.0000 14.4675 0.0000
# 2 15.5882 66.1158 19.3149 0.0000 2.4827 0.0001
# 3 26.5694 19.3149 113.7179 0.0001 15.2120 0.0001
# 4 0.0000 0.0000 0.0001 28.2288 0.0001 6.2640
# 5 14.4675 2.4827 15.2120 0.0001 29.9355 0.0001
# 6 0.0000 0.0001 0.0001 6.2640 0.0001 26.1878
#
#
#
# Elastic Compliance Matrix: (Units=1/GPa)
#
#
# Indices 1 2 3 4 5 6 
#
# 1 0.020506 -0.003627 -0.003100 0.000000 -0.008034 0.000000
# 2 -0.003627 0.016556 -0.002162 0.000000 0.001479 0.000000
# 3 -0.003100 -0.002162 0.010366 0.000000 -0.003590 0.000000
# 4 0.000000 0.000000 0.000000 0.037411 0.000000 -0.008948
# 5 -0.008034 0.001479 -0.003590 0.000000 0.038989 0.000000
# 6 0.000000 0.000000 0.000000 -0.008948 0.000000 0.040326
#
#
# Mechanical properties :
#
#
# Convention : Reuss Voigt Hill
#
# Bulk Modulus (GPa) = 33.72940 40.44314 37.08627
# Shear Modulus (GPa) = 26.06663 28.84178 27.45421
#
# Velocity S-wave (km/s) = 3.42643 3.60421 3.51644
# Velocity P-wave (km/s) = 5.55388 5.96121 5.76115
#
# Compressibility (1/GPa) = 0.02964772
#
# Stress axis : x y z
#
# Youngs Moduli (GPa) = 48.76698 60.39962 96.47379
#
# Poissons Ratio (x) = 0.21909 0.29909
# Poissons Ratio (y) = 0.17689 0.20862
# Poissons Ratio (z) = 0.15119 0.13061
#
# Static dielectric constant tensor:
#      x y z
#    x 1.827200 0.000000 0.026900 
#    y 0.000000 1.887570 0.000000 
#    z 0.026900 0.000000 1.930350 
# 
# From -- ./inp_files/277568.got.cif
#   From: 2010.05.17/outbox.cif.g08.bks.cpg/sg15_139_cif.got.tgz:277568.got - 2010.06.03 18:47:42.
