data_PCOD9287606
_publ_section_title
;
Structure prediction by ZEFSAII (Michael W. Deem and Ramdas Pophale) SiO2 
 PCOD9287606
Probable space group: C 2/C
;
_chemical_formula_sum "Si O2"
_cell_formula_units_Z 64
_cell_length_a 22.771289
_cell_length_b 14.811777
_cell_length_c 9.131019
_cell_angle_alpha 90.000000
_cell_angle_beta 87.569689
_cell_angle_gamma 90.000000
_cell_volume 3076.969695
_symmetry_space_group_name_H-M "C 2/C"
_symmetry_group_IT_number 15
_symmetry_cell_setting 'monoclinic'
loop_
_space_group_symop_operation_xyz
x,y,z
-x,y,1/2-z
-x,-y,-z
x,-y,1/2+z
1/2+x,1/2+y,z
1/2-x,1/2+y,1/2-z
1/2-x,1/2-y,-z
1/2+x,1/2-y,1/2+z
loop_
_atom_site_type_symbol
_atom_site_label
_atom_site_fract_x
_atom_site_fract_y
_atom_site_fract_z
Si Si1 0.874289 0.614651 0.099990
Si Si2 0.852129 0.452169 0.287735
Si Si3 0.646752 0.620420 0.321404
Si Si4 0.275456 0.404389 0.257477
Si Si5 0.618208 0.809762 0.451775
Si Si6 0.157668 0.963912 0.526421
Si Si7 0.719049 0.805339 0.686692
Si Si8 0.000677 0.401407 0.577964
O O1 0.882943 0.540397 0.225450
O O2 0.821532 0.675200 0.166235
O O3 0.938931 0.650828 0.054014
O O4 0.855207 0.560859 0.958637
O O5 0.784979 0.457356 0.249137
O O6 0.875617 0.366938 0.197045
O O7 0.618674 0.706236 0.402767
O O8 0.626928 0.531619 0.413992
O O9 0.631679 0.603297 0.151910
O O10 0.718574 0.640861 0.321044
O O11 0.311274 0.461936 0.371869
O O12 0.267722 0.301596 0.310045
O O13 0.302812 0.407157 0.091525
O O14 0.674123 0.824505 0.555843
O O15 0.557737 0.844062 0.528680
O O16 0.000000 0.415728 0.750000
O O17 0.000000 0.500000 0.500000
#
# Coordination Sequence:
#
# PCOD9287606 Si02
#       8
#     8   8   8   8   8   8   8   8
#     4  12  25  40  62  93 128 176 219 260 317 385
#     4  12  23  38  61  91 131 173 215 257 320 378
#     4  11  22  41  60  95 128 171 213 268 331 388
#     4  11  21  38  58  93 135 176 211 267 319 395
#     4  12  24  40  64  88 127 177 217 271 319 385
#     4  10  22  37  59  84 131 170 214 259 323 384
#     4  12  23  38  62  93 134 170 222 263 321 397
#     4  12  25  46  63  89 128 175 221 261 313 384
#
# _framework density 20.799685
#
# number of rings (size 3 to 8) (size 9 to 14) (size 15 to 20)
#    0.000    0.500    5.000    5.625    1.750    1.000 
#    0.000    0.000    0.000    0.000    0.000    9.625 
#    0.000    0.000    0.000    0.000    0.000    0.000 
#
# Total GULP energy -178590.173004 kJ/mol
# GULP energy per Si atom -5580.942906 kJ/mol
# Density = 2.075234 g / cm^3
# Si number density = 20.799685 Si / 1000 Ang^3
#
#
#
# Elastic Constant Matrix: (Units=GPa)
#
#
# Indices 1 2 3 4 5 6 
#
# 1 66.3041 25.1317 20.6415 0.0000 -19.5074 0.0000
# 2 25.1317 82.8903 22.4911 0.0000 -14.2649 0.0000
# 3 20.6415 22.4911 132.3542 0.0000 -20.8752 0.0000
# 4 0.0000 0.0000 0.0000 38.3697 0.0000 -7.7839
# 5 -19.5074 -14.2649 -20.8752 0.0000 19.0061 0.0000
# 6 0.0000 0.0000 0.0000 -7.7839 0.0000 22.5569
#
#
#
# Elastic Compliance Matrix: (Units=1/GPa)
#
#
# Indices 1 2 3 4 5 6 
#
# 1 0.022357 -0.003284 0.000365 0.000000 0.020883 0.000000
# 2 -0.003284 0.014418 -0.000923 0.000000 0.006438 0.000000
# 3 0.000365 -0.000923 0.009199 0.000000 0.009786 0.000000
# 4 0.000000 0.000000 0.000000 0.028024 0.000000 0.009671
# 5 0.020883 0.006438 0.009786 0.000000 0.089628 0.000000
# 6 0.000000 0.000000 0.000000 0.009671 0.000000 0.047669
#
#
# Mechanical properties :
#
#
# Convention : Reuss Voigt Hill
#
# Bulk Modulus (GPa) = 26.11562 46.45301 36.28431
# Shear Modulus (GPa) = 21.57574 30.20551 25.89062
#
# Velocity S-wave (km/s) = 3.22423 3.81492 3.53194
# Velocity P-wave (km/s) = 5.14236 6.46427 5.84083
#
# Compressibility (1/GPa) = 0.03829126
#
# Stress axis : x y z
#
# Youngs Moduli (GPa) = 44.72855 69.35805 108.71070
#
# Poissons Ratio (x) = 0.22775 -0.03968
# Poissons Ratio (y) = 0.14687 0.10029
# Poissons Ratio (z) = -0.01633 0.06399
#
# Static dielectric constant tensor:
#      x y z
#    x 1.800340 0.000000 -0.010570 
#    y 0.000000 1.767170 0.000000 
#    z -0.010570 0.000000 1.772830 
# 
# From -- ./inp_files/66223.got.cif
#   From: 2010.05.17/outbox.cif.g08.bks.cpg/sg15_34_cif.got.tgz:66223.got - 2010.06.03 18:47:42.
