data_PCOD9287645
_publ_section_title
;
Structure prediction by ZEFSAII (Michael W. Deem and Ramdas Pophale) SiO2 
 PCOD9287645
Probable space group: C 2/C
;
_chemical_formula_sum "Si O2"
_cell_formula_units_Z 48
_cell_length_a 16.645594
_cell_length_b 13.773105
_cell_length_c 14.645570
_cell_angle_alpha 90.000000
_cell_angle_beta 39.896328
_cell_angle_gamma 90.000000
_cell_volume 2153.608242
_symmetry_space_group_name_H-M "C 2/C"
_symmetry_group_IT_number 15
_symmetry_cell_setting 'monoclinic'
loop_
_space_group_symop_operation_xyz
x,y,z
-x,y,1/2-z
-x,-y,-z
x,-y,1/2+z
1/2+x,1/2+y,z
1/2-x,1/2+y,1/2-z
1/2-x,1/2-y,-z
1/2+x,1/2-y,1/2+z
loop_
_atom_site_type_symbol
_atom_site_label
_atom_site_fract_x
_atom_site_fract_y
_atom_site_fract_z
Si Si1 0.724034 0.323058 0.649732
Si Si2 0.988390 0.330245 0.655787
Si Si3 0.131704 0.862219 0.545472
Si Si4 0.749605 0.474387 0.853869
Si Si5 0.548762 0.332295 0.959670
Si Si6 0.363360 0.980011 0.077012
O O1 0.811438 0.239986 0.535362
O O2 0.619841 0.348576 0.664696
O O3 0.657507 0.287049 0.800055
O O4 0.805917 0.419129 0.592773
O O5 0.865934 0.399935 0.760867
O O6 0.000000 0.500000 0.500000
O O7 0.984564 0.245527 0.582603
O O8 0.108351 0.396748 0.521335
O O9 0.232031 0.949621 0.449607
O O10 0.000000 0.294228 0.750000
O O11 0.624658 0.410845 0.951860
O O12 0.774859 0.539420 0.741077
O O13 0.536089 0.619043 0.045106
#
# Coordination Sequence:
#
# PCOD9287645 Si02
#       6
#     8   8   8   8   8   8
#     4  10  22  37  61  91 122 159 201 249 300 360
#     4  11  23  40  64  91 120 159 207 253 300 360
#     4  11  21  38  61  89 122 159 203 249 300 360
#     4  10  22  39  62  89 119 159 201 247 305 360
#     4  11  22  40  59  86 125 162 198 246 306 361
#     4   9  18  36  59  86 119 154 194 246 302 353
#
# _framework density 22.288177000000001
#
# number of rings (size 3 to 8) (size 9 to 14) (size 15 to 20)
#    0.000    1.667    0.000    6.000    0.000    2.000 
#    0.000    8.333    0.000    0.000    0.000    0.000 
#    0.000    0.000    0.000    0.000    0.000    0.000 
#
# Total GULP energy -133754.495628 kJ/mol
# GULP energy per Si atom -5573.103984 kJ/mol
# Density = 2.223745 g / cm^3
# Si number density = 22.288177 Si / 1000 Ang^3
#
#
#
# Elastic Constant Matrix: (Units=GPa)
#
#
# Indices 1 2 3 4 5 6 
#
# 1 90.0161 15.6170 22.9561 0.0000 11.4978 0.0000
# 2 15.6170 39.4901 14.0845 0.0000 18.0223 0.0000
# 3 22.9561 14.0845 37.5319 0.0000 33.5343 0.0000
# 4 0.0000 0.0000 0.0000 43.5941 0.0000 26.5046
# 5 11.4978 18.0223 33.5343 0.0000 43.9804 0.0000
# 6 0.0000 0.0000 0.0000 26.5046 0.0000 71.9193
#
#
#
# Elastic Compliance Matrix: (Units=1/GPa)
#
#
# Indices 1 2 3 4 5 6 
#
# 1 0.014982 -0.004901 -0.017631 0.000000 0.011535 0.000000
# 2 -0.004901 0.032761 0.004874 0.000000 -0.015860 0.000000
# 3 -0.017631 0.004874 0.104367 0.000000 -0.076966 0.000000
# 4 0.000000 0.000000 0.000000 0.029563 0.000000 -0.010895
# 5 0.011535 -0.015860 -0.076966 0.000000 0.084906 0.000000
# 6 0.000000 0.000000 0.000000 -0.010895 0.000000 0.017920
#
#
# Mechanical properties :
#
#
# Convention : Reuss Voigt Hill
#
# Bulk Modulus (GPa) = 8.56199 30.26148 19.41174
# Shear Modulus (GPa) = 13.93751 39.52414 26.73083
#
# Velocity S-wave (km/s) = 2.50338 4.21565 3.46689
# Velocity P-wave (km/s) = 3.49366 6.10758 4.97535
#
# Compressibility (1/GPa) = 0.11679530
#
# Stress axis : x y z
#
# Youngs Moduli (GPa) = 66.74547 30.52449 9.58161
#
# Poissons Ratio (x) = 0.14960 0.16893
# Poissons Ratio (y) = 0.32712 -0.04671
# Poissons Ratio (z) = 1.17676 -0.14879
#
# Static dielectric constant tensor:
#      x y z
#    x 1.894670 0.000000 -0.009990 
#    y 0.000000 1.783030 0.000000 
#    z -0.009990 0.000000 1.877960 
# 
# From -- ./inp_files/219248.got.cif
#   From: 2010.05.17/outbox.cif.g08.bks.cpg/sg15_110_cif.got.tgz:219248.got - 2010.06.03 18:47:42.
