data_PCOD9287868
_publ_section_title
;
Structure prediction by ZEFSAII (Michael W. Deem and Ramdas Pophale) SiO2 
 PCOD9287868
Probable space group: C 2/C
;
_chemical_formula_sum "Si O2"
_cell_formula_units_Z 52
_cell_length_a 24.715390
_cell_length_b 5.824061
_cell_length_c 24.734924
_cell_angle_alpha 90.000000
_cell_angle_beta 142.031928
_cell_angle_gamma 90.000000
_cell_volume 2190.463421
_symmetry_space_group_name_H-M "C 2/C"
_symmetry_group_IT_number 15
_symmetry_cell_setting 'monoclinic'
loop_
_space_group_symop_operation_xyz
x,y,z
-x,y,1/2-z
-x,-y,-z
x,-y,1/2+z
1/2+x,1/2+y,z
1/2-x,1/2+y,1/2-z
1/2-x,1/2-y,-z
1/2+x,1/2-y,1/2+z
loop_
_atom_site_type_symbol
_atom_site_label
_atom_site_fract_x
_atom_site_fract_y
_atom_site_fract_z
Si Si1 0.386584 0.669603 0.448898
Si Si2 0.500000 0.228046 0.750000
Si Si3 0.440135 0.603885 0.372199
Si Si4 0.926304 0.463882 0.056212
Si Si5 0.775392 0.885287 0.439533
Si Si6 0.628999 0.516306 0.290541
Si Si7 0.356748 0.138890 0.104368
O O1 0.386705 0.646989 0.384938
O O2 0.474368 0.542402 0.541470
O O3 0.396049 0.931443 0.475467
O O4 0.304049 0.556219 0.414274
O O5 0.468161 0.387465 0.772540
O O6 0.579382 0.063115 0.825061
O O7 0.381804 0.471819 0.281509
O O8 0.479196 0.846600 0.379225
O O9 0.901271 0.664292 0.080259
O O10 0.859842 0.263463 0.021099
O O11 0.703740 0.705957 0.360326
O O12 0.740082 0.026543 0.463911
O O13 0.640375 0.326723 0.346021
#
# Coordination Sequence:
#
# PCOD9287868 Si02
#       7
#     8   4   8   8   8   8   8
#     4  10  23  42  67  94 125 177 228 264 325 391
#     4  10  22  38  58  98 128 156 208 268 326 390
#     4  10  23  44  66  96 129 169 224 277 321 391
#     4  11  22  42  70  94 131 175 217 273 326 399
#     4  10  24  42  57 100 136 168 220 265 326 395
#     4  11  23  40  64  95 134 171 211 275 334 392
#     4  11  23  38  66  97 130 172 211 265 344 389
#
# _framework density 23.739270000000001
#
# number of rings (size 3 to 8) (size 9 to 14) (size 15 to 20)
#    0.000    1.538    1.538    2.308    4.308    3.692 
#    5.538    0.000    0.000    0.000    0.000    0.000 
#    0.000    0.000    0.000    0.000    0.000    0.000 
#
# Total GULP energy -145103.748225 kJ/mol
# GULP energy per Si atom -5580.913393 kJ/mol
# Density = 2.368524 g / cm^3
# Si number density = 23.739270 Si / 1000 Ang^3
#
#
#
# Elastic Constant Matrix: (Units=GPa)
#
#
# Indices 1 2 3 4 5 6 
#
# 1 133.6758 32.8645 31.3277 0.0005 -29.9289 -0.0051
# 2 32.8645 67.8682 18.7661 -0.0001 -8.3420 -0.0024
# 3 31.3277 18.7661 81.8511 -0.0003 -32.7457 0.0007
# 4 0.0005 -0.0001 -0.0003 24.6105 0.0000 7.5036
# 5 -29.9289 -8.3420 -32.7457 0.0000 43.8807 -0.0003
# 6 -0.0051 -0.0024 0.0007 7.5036 -0.0003 31.5570
#
#
#
# Elastic Compliance Matrix: (Units=1/GPa)
#
#
# Indices 1 2 3 4 5 6 
#
# 1 0.009818 -0.003895 -0.000687 -0.000001 0.005443 0.000002
# 2 -0.003895 0.017283 -0.003165 0.000000 -0.001733 0.000001
# 3 -0.000687 -0.003165 0.018216 0.000000 0.012523 -0.000001
# 4 -0.000001 0.000000 0.000000 0.043809 0.000000 -0.010417
# 5 0.005443 -0.001733 0.012523 0.000000 0.035518 0.000001
# 6 0.000002 0.000001 -0.000001 -0.010417 0.000001 0.034166
#
#
# Mechanical properties :
#
#
# Convention : Reuss Voigt Hill
#
# Bulk Modulus (GPa) = 33.53173 49.92352 41.72762
# Shear Modulus (GPa) = 27.13781 33.37208 30.25495
#
# Velocity S-wave (km/s) = 3.38473 3.75343 3.57384
# Velocity P-wave (km/s) = 5.42503 6.31347 5.88604
#
# Compressibility (1/GPa) = 0.02982250
#
# Stress axis : x y z
#
# Youngs Moduli (GPa) = 101.85190 57.86103 54.89675
#
# Poissons Ratio (x) = 0.22539 0.03772
# Poissons Ratio (y) = 0.39674 0.17374
# Poissons Ratio (z) = 0.06998 0.18312
#
# Static dielectric constant tensor:
#      x y z
#    x 1.993040 0.000000 -0.014900 
#    y 0.000000 1.980430 0.000000 
#    z -0.014900 0.000000 1.937460 
# 
# From -- ./inp_files/281228.got.cif
#   From: 2010.05.17/outbox.cif.g08.bks.cpg/sg15_141_cif.got.tgz:281228.got - 2010.06.03 18:47:42.
