data_PCOD9287099
_publ_section_title
;
Structure prediction by ZEFSAII (Michael W. Deem and Ramdas Pophale) SiO2 
 PCOD9287099
Probable space group: C 2/C
;
_chemical_formula_sum "Si O2"
_cell_formula_units_Z 48
_cell_length_a 14.413908
_cell_length_b 8.659790
_cell_length_c 13.386138
_cell_angle_alpha 90.000000
_cell_angle_beta 82.542149
_cell_angle_gamma 90.000000
_cell_volume 1656.742112
_symmetry_space_group_name_H-M "C 2/C"
_symmetry_group_IT_number 15
_symmetry_cell_setting 'monoclinic'
loop_
_space_group_symop_operation_xyz
x,y,z
-x,y,1/2-z
-x,-y,-z
x,-y,1/2+z
1/2+x,1/2+y,z
1/2-x,1/2+y,1/2-z
1/2-x,1/2-y,-z
1/2+x,1/2-y,1/2+z
loop_
_atom_site_type_symbol
_atom_site_label
_atom_site_fract_x
_atom_site_fract_y
_atom_site_fract_z
Si Si1 0.945433 0.746279 0.550555
Si Si2 0.683401 0.315976 0.189977
Si Si3 0.023986 0.572981 0.360617
Si Si4 0.775492 0.415233 0.585244
Si Si5 0.925621 0.916753 0.846611
Si Si6 0.778177 0.984483 0.620968
O O1 0.950562 0.641858 0.450590
O O2 0.965557 0.611851 0.630195
O O3 0.862433 0.869622 0.577492
O O4 0.035872 0.854977 0.555216
O O5 0.765144 0.402228 0.114997
O O6 0.592354 0.399578 0.155519
O O7 0.701637 0.135586 0.175906
O O8 0.124203 0.632284 0.388643
O O9 0.000000 0.611503 0.250000
O O10 0.241164 0.420242 0.030986
O O11 0.679965 0.352327 0.650790
O O12 0.808343 0.100499 0.703921
O O13 0.000000 0.883029 0.750000
#
# Coordination Sequence:
#
# PCOD9287099 Si02
#       6
#     8   8   8   8   8   8
#     4  11  23  46  77 107 166 208 266 330 402 476
#     4  10  25  45  81 114 157 209 265 321 396 481
#     4  11  26  46  72 118 159 223 267 328 398 487
#     4  10  25  49  76 113 160 206 265 331 398 472
#     4  10  21  46  75 117 151 208 263 324 402 463
#     4  12  24  52  79 116 159 215 261 337 405 472
#
# _framework density 28.972525000000001
#
# number of rings (size 3 to 8) (size 9 to 14) (size 15 to 20)
#    1.000    0.333    3.333    1.000    0.000    5.333 
#    3.000    0.833    3.667    0.000    0.000    0.000 
#    0.000    0.000    0.000    0.000    0.000    0.000 
#
# Total GULP energy -134347.374602 kJ/mol
# GULP energy per Si atom -5597.807275 kJ/mol
# Density = 2.890658 g / cm^3
# Si number density = 28.972525 Si / 1000 Ang^3
#
#
#
# Elastic Constant Matrix: (Units=GPa)
#
#
# Indices 1 2 3 4 5 6 
#
# 1 163.6354 46.5111 58.4128 0.0000 8.7573 0.0000
# 2 46.5111 162.0298 49.2688 0.0000 -5.9478 0.0000
# 3 58.4128 49.2688 165.7154 0.0000 12.4283 0.0000
# 4 0.0000 0.0000 0.0000 57.2684 0.0000 -6.1181
# 5 8.7573 -5.9478 12.4283 0.0000 53.9645 0.0000
# 6 0.0000 0.0000 0.0000 -6.1181 0.0000 29.1363
#
#
#
# Elastic Compliance Matrix: (Units=1/GPa)
#
#
# Indices 1 2 3 4 5 6 
#
# 1 0.007324 -0.001506 -0.002068 0.000000 -0.000878 0.000000
# 2 -0.001506 0.007176 -0.001710 0.000000 0.001429 0.000000
# 3 -0.002068 -0.001710 0.007388 0.000000 -0.001554 0.000000
# 4 0.000000 0.000000 0.000000 0.017862 0.000000 0.003751
# 5 -0.000878 0.001429 -0.001554 0.000000 0.019189 0.000000
# 6 0.000000 0.000000 0.000000 0.003751 0.000000 0.035109
#
#
# Mechanical properties :
#
#
# Convention : Reuss Voigt Hill
#
# Bulk Modulus (GPa) = 88.33024 88.86290 88.59657
# Shear Modulus (GPa) = 46.12916 50.55302 48.34109
#
# Velocity S-wave (km/s) = 3.99453 4.18168 4.08918
# Velocity P-wave (km/s) = 7.19922 7.35210 7.27606
#
# Compressibility (1/GPa) = 0.01132115
#
# Stress axis : x y z
#
# Youngs Moduli (GPa) = 136.52892 139.34587 135.34653
#
# Poissons Ratio (x) = 0.20984 0.27993
# Poissons Ratio (y) = 0.20559 0.23144
# Poissons Ratio (z) = 0.28237 0.23828
#
# Static dielectric constant tensor:
#      x y z
#    x 2.317830 0.000000 -0.032000 
#    y 0.000000 2.276310 0.000000 
#    z -0.032000 0.000000 2.327640 
# 
# From -- ./inp_files/104821.got.cif
#   From: 2010.05.17/outbox.cif.g08.bks.cpg/sg15_53_cif.got.tgz:104821.got - 2010.06.03 18:47:42.
