data_PCOD9287954
_publ_section_title
;
Structure prediction by ZEFSAII (Michael W. Deem and Ramdas Pophale) SiO2 
 PCOD9287954
Probable space group: C 2/C
;
_chemical_formula_sum "Si O2"
_cell_formula_units_Z 48
_cell_length_a 8.478079
_cell_length_b 25.075475
_cell_length_c 10.083256
_cell_angle_alpha 90.000000
_cell_angle_beta 65.139888
_cell_angle_gamma 90.000000
_cell_volume 1944.983848
_symmetry_space_group_name_H-M "C 2/C"
_symmetry_group_IT_number 15
_symmetry_cell_setting 'monoclinic'
loop_
_space_group_symop_operation_xyz
x,y,z
-x,y,1/2-z
-x,-y,-z
x,-y,1/2+z
1/2+x,1/2+y,z
1/2-x,1/2+y,1/2-z
1/2-x,1/2-y,-z
1/2+x,1/2-y,1/2+z
loop_
_atom_site_type_symbol
_atom_site_label
_atom_site_fract_x
_atom_site_fract_y
_atom_site_fract_z
Si Si1 0.173715 0.677827 0.356933
Si Si2 0.500000 0.479176 0.250000
Si Si3 0.000000 0.511255 0.250000
Si Si4 0.500000 0.738745 0.250000
Si Si5 0.785955 0.920935 0.128388
Si Si6 0.280648 0.927827 0.643067
Si Si7 0.335657 0.170935 0.628388
Si Si8 0.000000 0.229177 0.750000
O O1 0.344108 0.703423 0.363990
O O2 0.247253 0.625000 0.255494
O O3 0.996840 0.653176 0.482016
O O4 0.093485 0.729589 0.314311
O O5 0.462844 0.442186 0.134677
O O6 0.342204 0.520411 0.314312
O O7 0.159631 0.472006 0.169166
O O8 0.041903 0.546577 0.363989
O O9 0.578796 0.777994 0.330835
O O10 0.711229 0.875000 0.250000
O O11 0.771144 0.903176 0.982016
O O12 0.152479 0.192186 0.634677
#
# Coordination Sequence:
#
# PCOD9287954 Si02
#       8
#     8   4   4   4   8   8   8   4
#     4  11  22  40  64  93 129 174 223 275 333 400
#     4  10  24  42  62  96 136 176 220 280 342 398
#     4  10  22  38  60  92 126 168 220 274 332 394
#     4  10  22  38  60  92 126 168 220 274 332 394
#     4  11  22  40  64  94 130 174 223 274 334 400
#     4  11  22  40  64  93 129 174 223 275 333 400
#     4  11  22  40  64  94 130 174 223 274 334 400
#     4  10  24  42  62  96 136 176 220 280 342 398
#
# _framework density 24.678867
#
# number of rings (size 3 to 8) (size 9 to 14) (size 15 to 20)
#    0.000    1.333    0.000    6.000    0.000    2.667 
#    0.000   10.000    0.000    0.000    0.000    0.000 
#    0.000    0.000    0.000    0.000    0.000    0.000 
#
# Total GULP energy -133654.835423 kJ/mol
# GULP energy per Si atom -5568.951476 kJ/mol
# Density = 2.462270 g / cm^3
# Si number density = 24.678867 Si / 1000 Ang^3
#
#
#
# Elastic Constant Matrix: (Units=GPa)
#
#
# Indices 1 2 3 4 5 6 
#
# 1 159.8661 66.5326 21.8221 0.0000 1.7246 0.0000
# 2 66.5326 158.4253 29.2653 0.0000 0.7029 0.0000
# 3 21.8221 29.2653 39.9086 0.0000 0.5383 0.0000
# 4 0.0000 0.0000 0.0000 29.9134 0.0000 0.4111
# 5 1.7246 0.7029 0.5383 0.0000 23.3318 0.0000
# 6 0.0000 0.0000 0.0000 0.4111 0.0000 51.7102
#
#
#
# Elastic Compliance Matrix: (Units=1/GPa)
#
#
# Indices 1 2 3 4 5 6 
#
# 1 0.007739 -0.002854 -0.002133 0.000000 -0.000437 0.000000
# 2 -0.002854 0.008354 -0.004566 0.000000 0.000065 0.000000
# 3 -0.002133 -0.004566 0.029577 0.000000 -0.000387 0.000000
# 4 0.000000 0.000000 0.000000 0.033433 0.000000 -0.000266
# 5 -0.000437 0.000065 -0.000387 0.000000 0.042899 0.000000
# 6 0.000000 0.000000 0.000000 -0.000266 0.000000 0.019341
#
#
# Mechanical properties :
#
#
# Convention : Reuss Voigt Hill
#
# Bulk Modulus (GPa) = 37.64543 65.93779 51.79161
# Shear Modulus (GPa) = 29.53261 37.02973 33.28117
#
# Velocity S-wave (km/s) = 3.46305 3.87778 3.67627
# Velocity P-wave (km/s) = 5.59263 6.84295 6.24914
#
# Compressibility (1/GPa) = 0.02656365
#
# Stress axis : x y z
#
# Youngs Moduli (GPa) = 129.21732 119.70358 33.80988
#
# Poissons Ratio (x) = 0.34165 0.07211
# Poissons Ratio (y) = 0.36880 0.15439
# Poissons Ratio (z) = 0.27559 0.54660
#
# Static dielectric constant tensor:
#      x y z
#    x 2.263460 0.000000 0.001030 
#    y 0.000000 1.960870 0.000000 
#    z 0.001030 0.000000 2.208540 
# 
# From -- ./inp_files/79857.got.cif
#   From: 2010.05.17/outbox.cif.g08.bks.cpg/sg15_40_cif.got.tgz:79857.got - 2010.06.03 18:47:42.
