data_PCOD9287793
_publ_section_title
;
Structure prediction by ZEFSAII (Michael W. Deem and Ramdas Pophale) SiO2 
 PCOD9287793
Probable space group: C 2/C
;
_chemical_formula_sum "Si O2"
_cell_formula_units_Z 48
_cell_length_a 27.667716
_cell_length_b 8.771125
_cell_length_c 10.809784
_cell_angle_alpha 90.000000
_cell_angle_beta 91.340834
_cell_angle_gamma 90.000000
_cell_volume 2622.567612
_symmetry_space_group_name_H-M "C 2/C"
_symmetry_group_IT_number 15
_symmetry_cell_setting 'monoclinic'
loop_
_space_group_symop_operation_xyz
x,y,z
-x,y,1/2-z
-x,-y,-z
x,-y,1/2+z
1/2+x,1/2+y,z
1/2-x,1/2+y,1/2-z
1/2-x,1/2-y,-z
1/2+x,1/2-y,1/2+z
loop_
_atom_site_type_symbol
_atom_site_label
_atom_site_fract_x
_atom_site_fract_y
_atom_site_fract_z
Si Si1 0.945309 0.092359 0.383774
Si Si2 0.224582 0.186823 0.121476
Si Si3 0.561349 0.384288 0.889507
Si Si4 0.127197 0.416640 0.365858
Si Si5 0.240751 0.656257 0.875055
Si Si6 0.123166 0.365942 0.097386
O O1 0.930252 0.039959 0.244803
O O2 0.921951 0.255201 0.402693
O O3 0.002895 0.120604 0.393191
O O4 0.925962 0.981541 0.489149
O O5 0.249408 0.251219 0.248362
O O6 0.170617 0.257705 0.112565
O O7 0.230421 0.003888 0.123426
O O8 0.250000 0.250000 0.000000
O O9 0.590969 0.225922 0.888017
O O10 0.183340 0.371922 0.374975
O O11 0.120246 0.466243 0.222509
O O12 0.121721 0.539966 0.472165
O O13 0.250000 0.750000 0.000000
#
# Coordination Sequence:
#
# PCOD9287793 Si02
#       6
#     8   8   8   8   8   8
#     4   9  19  37  58  84 114 147 188 237 287 346
#     4  11  22  40  59  83 117 153 195 241 292 345
#     4   9  19  37  59  83 114 147 188 237 288 346
#     4  10  22  38  56  83 115 149 190 236 287 343
#     4  11  24  39  59  85 115 155 194 241 291 346
#     4  10  22  38  57  84 115 150 192 238 286 345
#
# _framework density 18.302672999999999
#
# number of rings (size 3 to 8) (size 9 to 14) (size 15 to 20)
#    0.000    2.000    1.667    1.000    4.667    2.000 
#    3.000    0.000    0.000    0.000    0.000    0.000 
#    0.000    0.000    0.000    0.000    0.000    0.000 
#
# Total GULP energy -133701.929944 kJ/mol
# GULP energy per Si atom -5570.913748 kJ/mol
# Density = 1.826102 g / cm^3
# Si number density = 18.302673 Si / 1000 Ang^3
#
#
#
# Elastic Constant Matrix: (Units=GPa)
#
#
# Indices 1 2 3 4 5 6 
#
# 1 12.9386 9.6625 31.2267 0.0000 -3.8159 0.0000
# 2 9.6625 86.5431 83.2635 0.0000 4.4823 0.0000
# 3 31.2267 83.2635 180.1941 0.0000 -15.6398 0.0000
# 4 0.0000 0.0000 0.0000 32.3093 0.0000 -5.7134
# 5 -3.8159 4.4823 -15.6398 0.0000 13.4563 0.0000
# 6 0.0000 0.0000 0.0000 -5.7134 0.0000 25.9943
#
#
#
# Elastic Compliance Matrix: (Units=1/GPa)
#
#
# Indices 1 2 3 4 5 6 
#
# 1 0.141760 0.014265 -0.031231 0.000000 -0.000851 0.000000
# 2 0.014265 0.028656 -0.018007 0.000000 -0.026429 0.000000
# 3 -0.031231 -0.018007 0.021170 0.000000 0.021747 0.000000
# 4 0.000000 0.000000 0.000000 0.032202 0.000000 0.007078
# 5 -0.000851 -0.026429 0.021747 0.000000 0.108153 0.000000
# 6 0.000000 0.000000 0.000000 0.007078 0.000000 0.040026
#
#
# Mechanical properties :
#
#
# Convention : Reuss Voigt Hill
#
# Bulk Modulus (GPa) = 8.22114 58.66459 33.44286
# Shear Modulus (GPa) = 10.36356 24.72017 17.54187
#
# Velocity S-wave (km/s) = 2.38214 3.67908 3.09921
# Velocity P-wave (km/s) = 3.47385 7.08305 5.57841
#
# Compressibility (1/GPa) = 0.12163770
#
# Stress axis : x y z
#
# Youngs Moduli (GPa) = 7.05419 34.89695 47.23675
#
# Poissons Ratio (x) = -0.49779 1.47527
# Poissons Ratio (y) = -0.10063 0.85059
# Poissons Ratio (z) = 0.22031 0.62839
#
# Static dielectric constant tensor:
#      x y z
#    x 1.632080 0.000000 0.006240 
#    y 0.000000 1.636910 0.000000 
#    z 0.006240 0.000000 1.678220 
# 
# From -- ./inp_files/68543.got.cif
#   From: 2010.05.17/outbox.cif.g08.bks.cpg/sg15_35_cif.got.tgz:68543.got - 2010.06.03 18:47:42.
