data_PCOD9287204
_publ_section_title
;
Structure prediction by ZEFSAII (Michael W. Deem and Ramdas Pophale) SiO2 
 PCOD9287204
Probable space group: C 2/C
;
_chemical_formula_sum "Si O2"
_cell_formula_units_Z 60
_cell_length_a 19.480089
_cell_length_b 14.587660
_cell_length_c 23.554682
_cell_angle_alpha 90.000000
_cell_angle_beta 159.137910
_cell_angle_gamma 90.000000
_cell_volume 2383.690889
_symmetry_space_group_name_H-M "C 2/C"
_symmetry_group_IT_number 15
_symmetry_cell_setting 'monoclinic'
loop_
_space_group_symop_operation_xyz
x,y,z
-x,y,1/2-z
-x,-y,-z
x,-y,1/2+z
1/2+x,1/2+y,z
1/2-x,1/2+y,1/2-z
1/2-x,1/2-y,-z
1/2+x,1/2-y,1/2+z
loop_
_atom_site_type_symbol
_atom_site_label
_atom_site_fract_x
_atom_site_fract_y
_atom_site_fract_z
Si Si1 0.500000 0.765329 0.750000
Si Si2 0.276586 0.942095 0.280064
Si Si3 0.275391 0.734266 0.909757
Si Si4 0.943224 0.614352 0.608530
Si Si5 0.693954 0.172610 0.584408
Si Si6 0.629318 0.633511 0.060866
Si Si7 0.814717 0.852136 0.766302
Si Si8 0.949948 0.578139 0.135062
O O1 0.400181 0.701865 0.719055
O O2 0.622913 0.838651 0.882205
O O3 0.428926 0.920405 0.347592
O O4 0.305366 0.872309 0.353880
O O5 0.263577 0.043798 0.297645
O O6 0.064405 0.924382 0.089810
O O7 0.087597 0.673239 0.758255
O O8 0.289353 0.784467 0.858444
O O9 0.281505 0.818002 0.958895
O O10 0.457680 0.670077 0.066239
O O11 0.876238 0.523544 0.589080
O O12 0.588649 0.270415 0.499148
O O13 0.608058 0.102772 0.473281
O O14 0.698599 0.663948 0.176805
O O15 0.816182 0.581684 0.180625
#
# Coordination Sequence:
#
# PCOD9287204 Si02
#       8
#     4   8   8   8   8   8   8   8
#     4  10  24  46  64  94 126 164 216 260 320 366
#     4  12  23  35  56  90 129 167 211 254 314 383
#     4  10  22  34  53  77 120 162 200 252 312 370
#     4  11  22  38  57  90 126 168 208 257 318 375
#     4  11  24  39  64  89 125 168 213 261 312 378
#     4  11  21  34  52  84 124 165 204 250 314 371
#     4  11  21  34  51  80 123 163 205 250 304 374
#     4  11  23  39  64  87 120 165 214 266 305 376
#
# _framework density 25.171050000000001
#
# number of rings (size 3 to 8) (size 9 to 14) (size 15 to 20)
#    0.000    1.067    2.667    5.600    3.733    2.133 
#    0.000    0.000    0.000    0.800    0.000    3.733 
#    0.000    0.000    0.000    0.000    0.000    0.000 
#
# Total GULP energy -167818.176392 kJ/mol
# GULP energy per Si atom -5593.939213 kJ/mol
# Density = 2.511376 g / cm^3
# Si number density = 25.171050 Si / 1000 Ang^3
#
#
#
# Elastic Constant Matrix: (Units=GPa)
#
#
# Indices 1 2 3 4 5 6 
#
# 1 71.7682 19.6943 17.9409 0.0014 -12.2839 0.0055
# 2 19.6943 152.0766 32.6955 -0.0016 -6.9926 0.0119
# 3 17.9409 32.6955 84.6920 0.0022 -20.1402 0.0054
# 4 0.0014 -0.0016 0.0022 41.7283 -0.0020 -10.7832
# 5 -12.2839 -6.9926 -20.1402 -0.0020 12.1026 0.0076
# 6 0.0055 0.0119 0.0054 -10.7832 0.0076 31.6817
#
#
#
# Elastic Compliance Matrix: (Units=1/GPa)
#
#
# Indices 1 2 3 4 5 6 
#
# 1 0.017287 -0.001690 0.001540 -0.000002 0.019133 -0.000008
# 2 -0.001690 0.007340 -0.003103 0.000000 -0.002638 -0.000001
# 3 0.001540 -0.003103 0.020892 -0.000003 0.034538 -0.000012
# 4 -0.000002 0.000000 -0.000003 0.026276 -0.000008 0.008943
# 5 0.019133 -0.002638 0.034538 -0.000008 0.157997 -0.000049
# 6 -0.000008 -0.000001 -0.000012 0.008943 -0.000049 0.034608
#
#
# Mechanical properties :
#
#
# Convention : Reuss Voigt Hill
#
# Bulk Modulus (GPa) = 25.63174 49.91090 37.77132
# Shear Modulus (GPa) = 17.61115 32.98294 25.29705
#
# Velocity S-wave (km/s) = 2.64798 3.62381 3.17362
# Velocity P-wave (km/s) = 4.42201 6.11400 5.33550
#
# Compressibility (1/GPa) = 0.03901412
#
# Stress axis : x y z
#
# Youngs Moduli (GPa) = 57.84600 136.23325 47.86413
#
# Poissons Ratio (x) = 0.23025 -0.07372
# Poissons Ratio (y) = 0.09777 0.14853
# Poissons Ratio (z) = -0.08910 0.42275
#
# Static dielectric constant tensor:
#      x y z
#    x 2.034120 -0.000010 0.021410 
#    y -0.000010 1.999160 -0.000020 
#    z 0.021410 -0.000020 1.990440 
# 
# From -- ./inp_files/302366.got.cif
#   From: 2010.05.17/outbox.cif.g08.bks.cpg/sg15_152_cif.got.tgz:302366.got - 2010.06.03 18:47:42.
