data_PCOD9287247
_publ_section_title
;
Structure prediction by ZEFSAII (Michael W. Deem and Ramdas Pophale) SiO2 
 PCOD9287247
Probable space group: C 2/C
;
_chemical_formula_sum "Si O2"
_cell_formula_units_Z 44
_cell_length_a 27.106614
_cell_length_b 8.468198
_cell_length_c 8.797609
_cell_angle_alpha 90.000000
_cell_angle_beta 91.914738
_cell_angle_gamma 90.000000
_cell_volume 2018.312350
_symmetry_space_group_name_H-M "C 2/C"
_symmetry_group_IT_number 15
_symmetry_cell_setting 'monoclinic'
loop_
_space_group_symop_operation_xyz
x,y,z
-x,y,1/2-z
-x,-y,-z
x,-y,1/2+z
1/2+x,1/2+y,z
1/2-x,1/2+y,1/2-z
1/2-x,1/2-y,-z
1/2+x,1/2-y,1/2+z
loop_
_atom_site_type_symbol
_atom_site_label
_atom_site_fract_x
_atom_site_fract_y
_atom_site_fract_z
Si Si1 0.275680 0.211178 0.215553
Si Si2 0.500000 0.598023 0.250000
Si Si3 0.567783 0.586133 0.512890
Si Si4 0.632332 0.425436 0.276995
Si Si5 0.178802 0.530345 0.999539
Si Si6 0.160580 0.719500 0.718746
O O1 0.315805 0.344990 0.178972
O O2 0.220155 0.268888 0.215439
O O3 0.292520 0.138497 0.377882
O O4 0.282321 0.072131 0.094407
O O5 0.537520 0.677406 0.376378
O O6 0.468311 0.492649 0.365131
O O7 0.596624 0.452305 0.416975
O O8 0.606992 0.665054 0.632478
O O9 0.641778 0.603491 0.219984
O O10 0.146119 0.400783 0.084489
O O11 0.149424 0.634228 0.876048
#
# Coordination Sequence:
#
# PCOD9287247 Si02
#       6
#     8   4   8   8   8   8
#     4  11  22  36  51  73 109 152 191 231 266 303
#     4   8  16  34  52  78 120 136 148 218 320 350
#     4   9  18  31  54  83 112 136 168 225 288 338
#     4  11  20  33  56  84 110 142 194 229 254 315
#     4  10  22  35  48  67 102 147 186 218 274 315
#     4  11  22  36  51  73 109 152 191 231 266 303
#
# _framework density 21.800393
#
# number of rings (size 3 to 8) (size 9 to 14) (size 15 to 20)
#    0.000    1.818    0.000    5.455    0.000    2.909 
#    0.000    0.000    0.000    0.000    0.000    0.000 
#    0.000 1344.000    0.000    0.000    0.000    0.000 
#
# Total GULP energy -122729.172072 kJ/mol
# GULP energy per Si atom -5578.598731 kJ/mol
# Density = 2.175077 g / cm^3
# Si number density = 21.800393 Si / 1000 Ang^3
#
#
#
# Elastic Constant Matrix: (Units=GPa)
#
#
# Indices 1 2 3 4 5 6 
#
# 1 83.5997 6.1482 30.9209 0.0000 -5.7416 0.0000
# 2 6.1482 54.3497 16.3236 0.0000 -4.9612 0.0000
# 3 30.9209 16.3236 143.3788 0.0000 -4.6877 0.0000
# 4 0.0000 0.0000 0.0000 40.2024 0.0000 -0.7731
# 5 -5.7416 -4.9612 -4.6877 0.0000 35.0966 0.0000
# 6 0.0000 0.0000 0.0000 -0.7731 0.0000 8.8745
#
#
#
# Elastic Compliance Matrix: (Units=1/GPa)
#
#
# Indices 1 2 3 4 5 6 
#
# 1 0.013121 -0.000513 -0.002715 0.000000 0.001711 0.000000
# 2 -0.000513 0.019277 -0.002007 0.000000 0.002373 0.000000
# 3 -0.002715 -0.002007 0.007799 0.000000 0.000314 0.000000
# 4 0.000000 0.000000 0.000000 0.024916 0.000000 0.002171
# 5 0.001711 0.002373 0.000314 0.000000 0.029150 0.000000
# 6 0.000000 0.000000 0.000000 0.002171 0.000000 0.112872
#
#
# Mechanical properties :
#
#
# Convention : Reuss Voigt Hill
#
# Bulk Modulus (GPa) = 33.63851 43.12374 38.38112
# Shear Modulus (GPa) = 21.97678 32.03037 27.00358
#
# Velocity S-wave (km/s) = 3.17849 3.83725 3.52330
# Velocity P-wave (km/s) = 5.37904 6.28146 5.84769
#
# Compressibility (1/GPa) = 0.02972784
#
# Stress axis : x y z
#
# Youngs Moduli (GPa) = 76.21162 51.87629 128.22419
#
# Poissons Ratio (x) = 0.02659 0.34818
# Poissons Ratio (y) = 0.03906 0.25728
# Poissons Ratio (z) = 0.20695 0.10409
#
# Static dielectric constant tensor:
#      x y z
#    x 1.870740 0.000000 0.029640 
#    y 0.000000 1.787220 0.000000 
#    z 0.029640 0.000000 1.870480 
# 
# From -- ./inp_files/68304.got.cif
#   From: 2010.05.17/outbox.cif.g08.bks.cpg/sg15_35_cif.got.tgz:68304.got - 2010.06.03 18:47:42.
