data_PCOD9287421
_publ_section_title
;
Structure prediction by ZEFSAII (Michael W. Deem and Ramdas Pophale) SiO2 
 PCOD9287421
Probable space group: C 2/C
;
_chemical_formula_sum "Si O2"
_cell_formula_units_Z 52
_cell_length_a 18.858252
_cell_length_b 20.404632
_cell_length_c 9.523020
_cell_angle_alpha 90.000000
_cell_angle_beta 137.403179
_cell_angle_gamma 90.000000
_cell_volume 2480.206195
_symmetry_space_group_name_H-M "C 2/C"
_symmetry_group_IT_number 15
_symmetry_cell_setting 'monoclinic'
loop_
_space_group_symop_operation_xyz
x,y,z
-x,y,1/2-z
-x,-y,-z
x,-y,1/2+z
1/2+x,1/2+y,z
1/2-x,1/2+y,1/2-z
1/2-x,1/2-y,-z
1/2+x,1/2-y,1/2+z
loop_
_atom_site_type_symbol
_atom_site_label
_atom_site_fract_x
_atom_site_fract_y
_atom_site_fract_z
Si Si1 0.372365 0.725449 0.813539
Si Si2 0.500000 0.060022 0.750000
Si Si3 0.681051 0.026832 0.426749
Si Si4 0.317435 0.130144 0.315223
Si Si5 0.177497 0.642565 0.631481
Si Si6 0.000000 0.733374 0.250000
Si Si7 0.206013 0.894431 0.923076
Si Si8 0.500000 0.335078 0.750000
O O1 0.336730 0.800239 0.775079
O O2 0.273105 0.679105 0.692352
O O3 0.430029 0.722042 0.749291
O O4 0.451050 0.708373 0.054820
O O5 0.420912 0.104509 0.546510
O O6 0.427395 0.013466 0.740181
O O7 0.702486 0.075537 0.330685
O O8 0.670778 0.070948 0.551425
O O9 0.769556 0.971207 0.560481
O O10 0.228464 0.136363 0.304020
O O11 0.211142 0.634625 0.842372
O O12 0.074100 0.685242 0.450791
O O13 0.092906 0.878214 0.819381
#
# Coordination Sequence:
#
# PCOD9287421 Si02
#       8
#     8   4   8   8   8   4   8   4
#     4  11  26  42  65  97 129 168 215 258 320 379
#     4  10  22  36  60  96 125 165 216 258 328 376
#     4  11  22  40  63  92 131 167 209 264 317 379
#     4  11  23  37  64  93 128 162 212 268 324 371
#     4  11  25  43  62  95 133 168 211 261 319 380
#     4  12  25  40  67  91 136 165 202 258 326 380
#     4  10  24  43  65  91 128 171 216 265 311 369
#     4  10  25  46  67  91 123 172 224 258 310 372
#
# _framework density 20.966000000000001
#
# number of rings (size 3 to 8) (size 9 to 14) (size 15 to 20)
#    0.000    1.231    1.538    3.692    8.615    1.231 
#    0.000    7.692    0.000    0.000    0.000    0.000 
#    0.000    0.000    0.000    0.000    0.000    0.000 
#
# Total GULP energy -145484.057332 kJ/mol
# GULP energy per Si atom -5595.540667 kJ/mol
# Density = 2.091828 g / cm^3
# Si number density = 20.966000 Si / 1000 Ang^3
#
#
#
# Elastic Constant Matrix: (Units=GPa)
#
#
# Indices 1 2 3 4 5 6 
#
# 1 121.1070 17.4622 -1.7244 0.0000 -8.7046 0.0000
# 2 17.4622 57.3539 -13.1735 0.0000 4.3970 0.0000
# 3 -1.7244 -13.1735 43.4881 0.0000 4.9397 0.0000
# 4 0.0000 0.0000 0.0000 22.5798 0.0000 -19.4056
# 5 -8.7046 4.3970 4.9397 0.0000 31.4750 0.0000
# 6 0.0000 0.0000 0.0000 -19.4056 0.0000 33.2160
#
#
#
# Elastic Compliance Matrix: (Units=1/GPa)
#
#
# Indices 1 2 3 4 5 6 
#
# 1 0.008921 -0.003170 -0.000954 0.000000 0.003060 0.000000
# 2 -0.003170 0.020269 0.006552 0.000000 -0.004736 0.000000
# 3 -0.000954 0.006552 0.025531 0.000000 -0.005186 0.000000
# 4 0.000000 0.000000 0.000000 0.088948 0.000000 0.051965
# 5 0.003060 -0.004736 -0.005186 0.000000 0.034093 0.000000
# 6 0.000000 0.000000 0.000000 0.051965 0.000000 0.060465
#
#
# Mechanical properties :
#
#
# Convention : Reuss Voigt Hill
#
# Bulk Modulus (GPa) = 16.78498 25.23087 21.00792
# Shear Modulus (GPa) = 19.74505 32.07980 25.91242
#
# Velocity S-wave (km/s) = 3.07215 3.91588 3.51939
# Velocity P-wave (km/s) = 4.53953 5.70138 5.15330
#
# Compressibility (1/GPa) = 0.05957707
#
# Stress axis : x y z
#
# Youngs Moduli (GPa) = 112.10118 49.33711 39.16836
#
# Poissons Ratio (x) = 0.15638 0.03737
# Poissons Ratio (y) = 0.35532 -0.25664
# Poissons Ratio (z) = 0.10694 -0.32326
#
# Static dielectric constant tensor:
#      x y z
#    x 1.783300 0.000000 -0.020530 
#    y 0.000000 1.714810 0.000000 
#    z -0.020530 0.000000 1.776930 
# 
# From -- ./inp_files/50601.got.cif
#   From: 2010.05.17/outbox.cif.g08.bks.cpg/sg15_26_cif.got.tgz:50601.got - 2010.06.03 18:47:42.
