data_PCOD9287377
_publ_section_title
;
Structure prediction by ZEFSAII (Michael W. Deem and Ramdas Pophale) SiO2 
 PCOD9287377
Probable space group: C 2/C
;
_chemical_formula_sum "Si O2"
_cell_formula_units_Z 56
_cell_length_a 11.066933
_cell_length_b 10.178787
_cell_length_c 27.438134
_cell_angle_alpha 90.000000
_cell_angle_beta 53.345910
_cell_angle_gamma 90.000000
_cell_volume 2479.647275
_symmetry_space_group_name_H-M "C 2/C"
_symmetry_group_IT_number 15
_symmetry_cell_setting 'monoclinic'
loop_
_space_group_symop_operation_xyz
x,y,z
-x,y,1/2-z
-x,-y,-z
x,-y,1/2+z
1/2+x,1/2+y,z
1/2-x,1/2+y,1/2-z
1/2-x,1/2-y,-z
1/2+x,1/2-y,1/2+z
loop_
_atom_site_type_symbol
_atom_site_label
_atom_site_fract_x
_atom_site_fract_y
_atom_site_fract_z
Si Si1 0.100363 0.637931 0.305579
Si Si2 0.553147 0.871837 0.181712
Si Si3 0.134522 0.814826 0.948586
Si Si4 0.657721 0.516095 0.187636
Si Si5 0.406099 0.626267 0.891099
Si Si6 0.805808 0.241180 0.177739
Si Si7 0.618283 0.392778 0.430866
O O1 0.210115 0.608584 0.324427
O O2 0.202672 0.640453 0.232353
O O3 0.984474 0.519418 0.327303
O O4 0.014048 0.773577 0.335007
O O5 0.500000 0.862597 0.250000
O O6 0.449376 0.775855 0.175330
O O7 0.726724 0.845550 0.129714
O O8 0.260259 0.715606 0.938920
O O9 0.145844 0.796898 0.887821
O O10 0.156984 0.971557 0.949809
O O11 0.970575 0.794246 0.011887
O O12 0.500000 0.553527 0.250000
O O13 0.639627 0.490490 0.134473
O O14 0.707715 0.373673 0.196363
O O15 0.500157 0.582612 0.915251
#
# Coordination Sequence:
#
# PCOD9287377 Si02
#       7
#     8   8   8   8   8   8   8
#     4  11  22  37  64  92 126 162 200 261 318 360
#     4  11  23  38  62  96 124 156 211 254 310 384
#     4  10  23  42  64  87 123 170 208 257 306 366
#     4  10  22  36  58  93 126 156 208 251 313 379
#     4  11  22  42  65  90 127 166 204 263 312 366
#     4  10  22  39  60  89 128 166 199 256 320 360
#     4  11  23  41  66  92 118 166 217 246 311 380
#
# _framework density 22.583856000000001
#
# number of rings (size 3 to 8) (size 9 to 14) (size 15 to 20)
#    0.000    1.429    2.857    2.143    6.000    2.286 
#    0.000    0.000    0.000    3.429    0.000    0.000 
#    0.000    0.000    0.000    0.000    0.000    0.000 
#
# Total GULP energy -156663.820174 kJ/mol
# GULP energy per Si atom -5595.136435 kJ/mol
# Density = 2.253245 g / cm^3
# Si number density = 22.583856 Si / 1000 Ang^3
#
#
#
# Elastic Constant Matrix: (Units=GPa)
#
#
# Indices 1 2 3 4 5 6 
#
# 1 122.7859 22.1629 50.0032 0.0000 -9.8584 0.0000
# 2 22.1629 49.1029 10.3177 0.0000 -3.8067 0.0000
# 3 50.0032 10.3177 137.5292 0.0000 -18.0573 0.0000
# 4 0.0000 0.0000 0.0000 -0.5650 0.0000 16.0359
# 5 -9.8584 -3.8067 -18.0573 0.0000 26.7790 0.0000
# 6 0.0000 0.0000 0.0000 16.0359 0.0000 25.8463
#
#
#
# Elastic Compliance Matrix: (Units=1/GPa)
#
#
# Indices 1 2 3 4 5 6 
#
# 1 0.010271 -0.003862 -0.003314 0.000000 0.000998 0.000000
# 2 -0.003862 0.022250 -0.000040 0.000000 0.001714 0.000000
# 3 -0.003314 -0.000040 0.009126 0.000000 0.004928 0.000000
# 4 0.000000 0.000000 0.000000 -0.095109 0.000000 0.059009
# 5 0.000998 0.001714 0.004928 0.000000 0.041277 0.000000
# 6 0.000000 0.000000 0.000000 0.059009 0.000000 0.002079
#
#
# Mechanical properties :
#
#
# Convention : Reuss Voigt Hill
#
# Bulk Modulus (GPa) = 36.74399 52.70954 44.72677
# Shear Modulus (GPa) = 373.20872 25.54100 199.37486
#
# Velocity S-wave (km/s) = 12.86909 3.36659 9.40604
# Velocity P-wave (km/s) = 15.39881 6.20501 11.73936
#
# Compressibility (1/GPa) = 0.02721534
#
# Stress axis : x y z
#
# Youngs Moduli (GPa) = 97.36224 44.94401 109.57708
#
# Poissons Ratio (x) = 0.17358 0.36309
# Poissons Ratio (y) = 0.37604 0.00438
# Poissons Ratio (z) = 0.32262 0.00179
#
# Static dielectric constant tensor:
#      x y z
#    x 1.833710 0.000000 -0.002870 
#    y 0.000000 1.859020 0.000000 
#    z -0.002870 0.000000 1.842970 
# 
# From -- ./inp_files/292207.got.cif
#   From: 2010.05.17/outbox.cif.g08.bks.cpg/sg15_147_cif.got.tgz:292207.got - 2010.06.03 18:47:42.
