data_PCOD9287174
_publ_section_title
;
Structure prediction by ZEFSAII (Michael W. Deem and Ramdas Pophale) SiO2 
 PCOD9287174
Probable space group: C 2/C
;
_chemical_formula_sum "Si O2"
_cell_formula_units_Z 48
_cell_length_a 22.595048
_cell_length_b 12.571625
_cell_length_c 25.061175
_cell_angle_alpha 90.000000
_cell_angle_beta 158.924372
_cell_angle_gamma 90.000000
_cell_volume 2559.915949
_symmetry_space_group_name_H-M "C 2/C"
_symmetry_group_IT_number 15
_symmetry_cell_setting 'monoclinic'
loop_
_space_group_symop_operation_xyz
x,y,z
-x,y,1/2-z
-x,-y,-z
x,-y,1/2+z
1/2+x,1/2+y,z
1/2-x,1/2+y,1/2-z
1/2-x,1/2-y,-z
1/2+x,1/2-y,1/2+z
loop_
_atom_site_type_symbol
_atom_site_label
_atom_site_fract_x
_atom_site_fract_y
_atom_site_fract_z
Si Si1 0.571037 0.032251 0.446745
Si Si2 0.350154 0.144645 0.775254
Si Si3 0.035349 0.147186 0.073834
Si Si4 0.298963 0.214622 0.208976
Si Si5 0.811286 0.188641 0.602741
Si Si6 0.726750 0.553800 0.776415
O O1 0.434241 0.125811 0.335986
O O2 0.706330 0.082021 0.521696
O O3 0.670928 0.017442 0.586017
O O4 0.476996 0.926642 0.348779
O O5 0.412284 0.262120 0.840136
O O6 0.346747 0.080532 0.828480
O O7 0.160561 0.146406 0.597970
O O8 0.134703 0.178841 0.103057
O O9 0.100417 0.034200 0.149558
O O10 0.286071 0.238718 0.134918
O O11 0.348935 0.331012 0.273225
O O12 0.750000 0.250000 0.500000
O O13 0.000000 0.164388 0.750000
#
# Coordination Sequence:
#
# PCOD9287174 Si02
#       6
#     8   8   8   8   8   8
#     4  11  22  38  58  85 123 157 201 252 304 357
#     4  11  23  35  56  83 125 164 205 236 296 362
#     4  11  23  37  57  89 130 169 198 236 291 385
#     4  10  23  34  61  89 129 159 201 245 298 365
#     4  11  23  41  60  87 121 162 207 259 312 351
#     4  10  22  33  55  85 124 165 197 234 300 360
#
# _framework density 18.750615
#
# number of rings (size 3 to 8) (size 9 to 14) (size 15 to 20)
#    0.000    1.333    3.333    2.000   14.000    0.000 
#    0.000    0.000    0.000    0.000    0.000   10.500 
#   10.000    0.333    0.000    0.000    0.000    0.000 
#
# Total GULP energy -133965.809941 kJ/mol
# GULP energy per Si atom -5581.908748 kJ/mol
# Density = 1.870794 g / cm^3
# Si number density = 18.750615 Si / 1000 Ang^3
#
#
#
# Elastic Constant Matrix: (Units=GPa)
#
#
# Indices 1 2 3 4 5 6 
#
# 1 65.5377 33.7571 43.4907 -0.0002 -9.0651 -0.0012
# 2 33.7571 105.1404 45.4929 0.0001 -5.4437 -0.0003
# 3 43.4907 45.4929 106.7528 0.0014 10.4238 -0.0006
# 4 -0.0002 0.0001 0.0014 31.7268 -0.0001 8.3360
# 5 -9.0651 -5.4437 10.4238 -0.0001 22.4686 0.0000
# 6 -0.0012 -0.0003 -0.0006 8.3360 0.0000 19.9546
#
#
#
# Elastic Compliance Matrix: (Units=1/GPa)
#
#
# Indices 1 2 3 4 5 6 
#
# 1 0.025946 -0.002904 -0.010774 0.000000 0.014763 0.000001
# 2 -0.002904 0.012641 -0.004597 0.000000 0.004023 0.000000
# 3 -0.010774 -0.004597 0.017020 -0.000001 -0.013357 0.000000
# 4 0.000000 0.000000 -0.000001 0.035405 0.000001 -0.014791
# 5 0.014763 0.004023 -0.013357 0.000001 0.057634 0.000000
# 6 0.000001 0.000000 0.000000 -0.014791 0.000000 0.056293
#
#
# Mechanical properties :
#
#
# Convention : Reuss Voigt Hill
#
# Bulk Modulus (GPa) = 52.47513 58.10137 55.28825
# Shear Modulus (GPa) = 20.17427 25.14267 22.65847
#
# Velocity S-wave (km/s) = 3.28369 3.66580 3.47999
# Velocity P-wave (km/s) = 6.51332 6.99794 6.75997
#
# Compressibility (1/GPa) = 0.01905665
#
# Stress axis : x y z
#
# Youngs Moduli (GPa) = 38.54161 79.10934 58.75502
#
# Poissons Ratio (x) = 0.22975 0.63304
# Poissons Ratio (y) = 0.11193 0.27007
# Poissons Ratio (z) = 0.41525 0.36363
#
# Static dielectric constant tensor:
#      x y z
#    x 1.682500 0.000000 0.013920 
#    y 0.000000 1.710200 0.000010 
#    z 0.013920 0.000010 1.606310 
# 
# From -- ./inp_files/302200.got.cif
#   From: 2010.05.17/outbox.cif.g08.bks.cpg/sg15_152_cif.got.tgz:302200.got - 2010.06.03 18:47:42.
