data_PCOD9287431
_publ_section_title
;
Structure prediction by ZEFSAII (Michael W. Deem and Ramdas Pophale) SiO2 
 PCOD9287431
Probable space group: C 2/C
;
_chemical_formula_sum "Si O2"
_cell_formula_units_Z 40
_cell_length_a 18.260037
_cell_length_b 18.848834
_cell_length_c 7.499596
_cell_angle_alpha 90.000000
_cell_angle_beta 132.939353
_cell_angle_gamma 90.000000
_cell_volume 1889.642702
_symmetry_space_group_name_H-M "C 2/C"
_symmetry_group_IT_number 15
_symmetry_cell_setting 'monoclinic'
loop_
_space_group_symop_operation_xyz
x,y,z
-x,y,1/2-z
-x,-y,-z
x,-y,1/2+z
1/2+x,1/2+y,z
1/2-x,1/2+y,1/2-z
1/2-x,1/2-y,-z
1/2+x,1/2-y,1/2+z
loop_
_atom_site_type_symbol
_atom_site_label
_atom_site_fract_x
_atom_site_fract_y
_atom_site_fract_z
Si Si1 0.750120 0.152517 0.094419
Si Si2 0.614903 0.038875 0.015637
Si Si3 0.115823 0.611072 0.403472
Si Si4 0.118396 0.784063 0.974694
Si Si5 0.382433 0.271425 0.104327
O O1 0.820545 0.175449 0.377223
O O2 0.695539 0.078771 0.029710
O O3 0.660776 0.211069 0.957282
O O4 0.318629 0.341204 0.533302
O O5 0.500000 0.043213 0.750000
O O6 0.643634 0.956139 0.070305
O O7 0.621732 0.080409 0.213334
O O8 0.155714 0.690512 0.492637
O O9 0.000000 0.622262 0.250000
O O10 0.000000 0.789663 0.750000
O O11 0.130871 0.784436 0.207912
O O12 0.500000 0.276930 0.250000
#
# Coordination Sequence:
#
# PCOD9287431 Si02
#       5
#     8   8   8   8   8
#     4  11  24  37  63  94 127 166 208 259 313 372
#     4  11  22  40  59  93 132 165 206 247 317 382
#     4  10  22  36  61  85 128 170 197 251 319 379
#     4  11  22  38  60  90 130 161 199 262 312 374
#     4  11  22  41  63  94 130 163 207 258 317 368
#
# _framework density 21.168022000000001
#
# number of rings (size 3 to 8) (size 9 to 14) (size 15 to 20)
#    0.000    1.200    4.000    3.600    0.000    4.800 
#    0.000    0.000    0.000    0.000    0.000   14.000 
#    0.000    0.000    0.000    0.000    0.000    0.000 
#
# Total GULP energy -111784.371898 kJ/mol
# GULP energy per Si atom -5589.218595 kJ/mol
# Density = 2.111984 g / cm^3
# Si number density = 21.168022 Si / 1000 Ang^3
#
#
#
# Elastic Constant Matrix: (Units=GPa)
#
#
# Indices 1 2 3 4 5 6 
#
# 1 185.6970 36.5156 68.9269 0.0000 4.9997 0.0000
# 2 36.5156 76.6274 55.4465 0.0000 6.4171 0.0000
# 3 68.9269 55.4465 113.6598 0.0000 1.1613 0.0000
# 4 0.0000 0.0000 0.0000 25.7262 0.0000 9.0010
# 5 4.9997 6.4171 1.1613 0.0000 43.2552 0.0000
# 6 0.0000 0.0000 0.0000 9.0010 0.0000 34.7308
#
#
#
# Elastic Compliance Matrix: (Units=1/GPa)
#
#
# Indices 1 2 3 4 5 6 
#
# 1 0.006975 -0.000330 -0.004062 0.000000 -0.000648 0.000000
# 2 -0.000330 0.020513 -0.009778 0.000000 -0.002742 0.000000
# 3 -0.004062 -0.009778 0.016017 0.000000 0.001490 0.000000
# 4 0.000000 0.000000 0.000000 0.042747 0.000000 -0.011078
# 5 -0.000648 -0.002742 0.001490 0.000000 0.023560 0.000000
# 6 0.000000 0.000000 0.000000 -0.011078 0.000000 0.031664
#
#
# Mechanical properties :
#
#
# Convention : Reuss Voigt Hill
#
# Bulk Modulus (GPa) = 65.95106 77.52913 71.74009
# Shear Modulus (GPa) = 28.59229 35.08213 31.83721
#
# Velocity S-wave (km/s) = 3.67922 4.07543 3.88238
# Velocity P-wave (km/s) = 7.01943 7.67142 7.35266
#
# Compressibility (1/GPa) = 0.01516276
#
# Stress axis : x y z
#
# Youngs Moduli (GPa) = 143.36155 48.75029 62.43500
#
# Poissons Ratio (x) = 0.01610 0.25363
# Poissons Ratio (y) = 0.04735 0.61051
# Poissons Ratio (z) = 0.58238 0.47670
#
# Static dielectric constant tensor:
#      x y z
#    x 1.762980 0.000000 0.033870 
#    y 0.000000 1.770350 0.000000 
#    z 0.033870 0.000000 1.643960 
# 
# From -- ./inp_files/56858.got.cif
#   From: 2010.05.17/outbox.cif.g08.bks.cpg/sg15_29_cif.got.tgz:56858.got - 2010.06.03 18:47:42.
