data_PCOD9287948
_publ_section_title
;
Structure prediction by ZEFSAII (Michael W. Deem and Ramdas Pophale) SiO2 
 PCOD9287948
Probable space group: C 2/C
;
_chemical_formula_sum "Si O2"
_cell_formula_units_Z 32
_cell_length_a 7.688462
_cell_length_b 11.212001
_cell_length_c 14.531150
_cell_angle_alpha 90.000000
_cell_angle_beta 90.608096
_cell_angle_gamma 90.000000
_cell_volume 1252.558809
_symmetry_space_group_name_H-M "C 2/C"
_symmetry_group_IT_number 15
_symmetry_cell_setting 'monoclinic'
loop_
_space_group_symop_operation_xyz
x,y,z
-x,y,1/2-z
-x,-y,-z
x,-y,1/2+z
1/2+x,1/2+y,z
1/2-x,1/2+y,1/2-z
1/2-x,1/2-y,-z
1/2+x,1/2-y,1/2+z
loop_
_atom_site_type_symbol
_atom_site_label
_atom_site_fract_x
_atom_site_fract_y
_atom_site_fract_z
Si Si1 0.641227 0.623466 0.669915
Si Si2 0.513455 0.882834 0.126822
Si Si3 0.541713 0.369025 0.641290
Si Si4 0.154740 0.372104 0.576391
O O1 0.500000 0.618408 0.750000
O O2 0.847239 0.633157 0.693790
O O3 0.633364 0.493733 0.621001
O O4 0.597167 0.745071 0.616642
O O5 0.625927 0.760673 0.124513
O O6 0.421653 0.884251 0.025349
O O7 0.399069 0.988555 0.865467
O O8 0.500000 0.371663 0.750000
O O9 0.362830 0.369826 0.583790
#
# Coordination Sequence:
#
# PCOD9287948 Si02
#       4
#     8   8   8   8
#     4  10  22  38  60  91 122 155 196 246 299 352
#     4  10  23  42  63  88 120 159 202 246 294 354
#     4  10  22  38  60  91 122 155 196 246 299 352
#     4  10  23  42  63  88 120 159 202 246 294 354
#
# _framework density 25.547702000000001
#
# number of rings (size 3 to 8) (size 9 to 14) (size 15 to 20)
#    0.000    2.000    0.000    3.000    0.000   23.000 
#    0.000    5.000    0.000    0.000    0.000    0.000 
#    0.000    0.000    0.000    0.000    0.000    0.000 
#
# Total GULP energy -89438.524262 kJ/mol
# GULP energy per Si atom -5589.907766 kJ/mol
# Density = 2.548955 g / cm^3
# Si number density = 25.547702 Si / 1000 Ang^3
#
#
#
# Elastic Constant Matrix: (Units=GPa)
#
#
# Indices 1 2 3 4 5 6 
#
# 1 64.9121 52.7133 -6.0042 0.0000 -12.9921 0.0000
# 2 52.7133 317.6816 42.6218 0.0000 -11.6401 0.0000
# 3 -6.0042 42.6218 38.6179 0.0000 -3.7645 0.0000
# 4 0.0000 0.0000 0.0000 2.7600 0.0000 26.1620
# 5 -12.9921 -11.6401 -3.7645 0.0000 30.4358 0.0000
# 6 0.0000 0.0000 0.0000 26.1620 0.0000 38.1444
#
#
#
# Elastic Compliance Matrix: (Units=1/GPa)
#
#
# Indices 1 2 3 4 5 6 
#
# 1 0.021647 -0.004507 0.009183 0.000000 0.008652 0.000000
# 2 -0.004507 0.004659 -0.005928 0.000000 -0.000875 0.000000
# 3 0.009183 -0.005928 0.034441 0.000000 0.005913 0.000000
# 4 0.000000 0.000000 0.000000 -0.065860 0.000000 0.045172
# 5 0.008652 -0.000875 0.005913 0.000000 0.036946 0.000000
# 6 0.000000 0.000000 0.000000 0.045172 0.000000 -0.004766
#
#
# Mechanical properties :
#
#
# Convention : Reuss Voigt Hill
#
# Bulk Modulus (GPa) = 17.16932 66.65259 41.91095
# Shear Modulus (GPa) = 102.07229 36.39343 69.23286
#
# Velocity S-wave (km/s) = 6.32774 3.77839 5.21136
# Velocity P-wave (km/s) = 7.75385 6.72168 7.25614
#
# Compressibility (1/GPa) = 0.05824342
#
# Stress axis : x y z
#
# Youngs Moduli (GPa) = 46.19678 214.64352 29.03482
#
# Poissons Ratio (x) = 0.96737 -0.26663
# Poissons Ratio (y) = 0.20820 0.17212
# Poissons Ratio (z) = -0.42423 1.27240
#
# Static dielectric constant tensor:
#      x y z
#    x 1.980260 0.000000 0.006120 
#    y 0.000000 2.030840 0.000000 
#    z 0.006120 0.000000 2.136660 
# 
# From -- ./inp_files/187429.got.cif
#   From: 2010.05.17/outbox.cif.g08.bks.cpg/sg15_94_cif.got.tgz:187429.got - 2010.06.03 18:47:42.
