data_PCOD9287446
_publ_section_title
;
Structure prediction by ZEFSAII (Michael W. Deem and Ramdas Pophale) SiO2 
 PCOD9287446
Probable space group: C 2/C
;
_chemical_formula_sum "Si O2"
_cell_formula_units_Z 36
_cell_length_a 15.328535
_cell_length_b 16.216471
_cell_length_c 8.244024
_cell_angle_alpha 90.000000
_cell_angle_beta 41.825508
_cell_angle_gamma 90.000000
_cell_volume 1366.575745
_symmetry_space_group_name_H-M "C 2/C"
_symmetry_group_IT_number 15
_symmetry_cell_setting 'monoclinic'
loop_
_space_group_symop_operation_xyz
x,y,z
-x,y,1/2-z
-x,-y,-z
x,-y,1/2+z
1/2+x,1/2+y,z
1/2-x,1/2+y,1/2-z
1/2-x,1/2-y,-z
1/2+x,1/2-y,1/2+z
loop_
_atom_site_type_symbol
_atom_site_label
_atom_site_fract_x
_atom_site_fract_y
_atom_site_fract_z
Si Si1 0.656883 0.443510 0.740696
Si Si2 0.500000 0.380236 0.250000
Si Si3 0.683632 0.307851 0.456198
Si Si4 0.268958 0.124498 0.519985
Si Si5 0.410795 0.853209 0.521919
O O1 0.630965 0.389250 0.616517
O O2 0.720952 0.530533 0.609083
O O3 0.773419 0.392384 0.662110
O O4 0.545435 0.435280 0.032530
O O5 0.365070 0.336127 0.377373
O O6 0.750000 0.250000 0.500000
O O7 0.782570 0.337123 0.179448
O O8 0.585415 0.245791 0.501895
O O9 0.398369 0.128501 0.230156
O O10 0.500000 0.885206 0.250000
#
# Coordination Sequence:
#
# PCOD9287446 Si02
#       5
#     8   4   8   8   8
#     4  10  22  41  64  97 129 172 224 274 329 389
#     4  10  22  36  62 102 124 164 220 268 346 374
#     4  10  22  41  62  93 133 175 217 266 331 395
#     4  11  22  41  67  93 134 169 220 280 325 394
#     4  10  23  41  61  92 129 178 224 264 332 391
#
# _framework density 26.343216999999999
#
# number of rings (size 3 to 8) (size 9 to 14) (size 15 to 20)
#    0.000    1.778    0.000    4.000    3.111    0.889 
#    0.000    3.333    0.000    0.000    0.000    0.000 
#    0.000    0.000    0.000    0.000    0.000    0.000 
#
# Total GULP energy -100393.042582 kJ/mol
# GULP energy per Si atom -5577.391255 kJ/mol
# Density = 2.628326 g / cm^3
# Si number density = 26.343217 Si / 1000 Ang^3
#
#
#
# Elastic Constant Matrix: (Units=GPa)
#
#
# Indices 1 2 3 4 5 6 
#
# 1 58.8260 1.2607 41.6070 0.0000 23.8173 0.0000
# 2 1.2607 112.1762 61.6271 0.0000 25.0961 0.0000
# 3 41.6070 61.6271 322.5784 0.0000 50.5025 0.0000
# 4 0.0000 0.0000 0.0000 32.4339 0.0000 23.5716
# 5 23.8173 25.0961 50.5025 0.0000 46.8898 0.0000
# 6 0.0000 0.0000 0.0000 23.5716 0.0000 12.8814
#
#
#
# Elastic Compliance Matrix: (Units=1/GPa)
#
#
# Indices 1 2 3 4 5 6 
#
# 1 0.022814 0.003278 -0.001780 0.000000 -0.011425 0.000000
# 2 0.003278 0.011077 -0.001624 0.000000 -0.005844 0.000000
# 3 -0.001780 -0.001624 0.004044 0.000000 -0.002582 0.000000
# 4 0.000000 0.000000 0.000000 -0.093462 0.000000 0.171025
# 5 -0.011425 -0.005844 -0.002582 0.000000 0.033039 0.000000
# 6 0.000000 0.000000 0.000000 0.171025 0.000000 -0.235326
#
#
# Mechanical properties :
#
#
# Convention : Reuss Voigt Hill
#
# Bulk Modulus (GPa) = 26.53759 78.06334 52.30046
# Shear Modulus (GPa) = -20.40817 44.38009 11.98596
#
# Velocity S-wave (km/s) = -2.78637 4.10895 2.13537
# Velocity P-wave (km/s) = 0.50611 7.22556 5.09670
#
# Compressibility (1/GPa) = 0.03768240
#
# Stress axis : x y z
#
# Youngs Moduli (GPa) = 43.83303 90.27351 247.26895
#
# Poissons Ratio (x) = -0.29588 0.44015
# Poissons Ratio (y) = -0.14367 0.40158
# Poissons Ratio (z) = 0.07802 0.14661
#
# Static dielectric constant tensor:
#      x y z
#    x 2.233690 0.000000 0.098970 
#    y 0.000000 2.066780 0.000000 
#    z 0.098970 0.000000 2.302520 
# 
# From -- ./inp_files/56910.got.cif
#   From: 2010.05.17/outbox.cif.g08.bks.cpg/sg15_29_cif.got.tgz:56910.got - 2010.06.03 18:47:42.
