data_PCOD9287502
_publ_section_title
;
Structure prediction by ZEFSAII (Michael W. Deem and Ramdas Pophale) SiO2 
 PCOD9287502
Probable space group: C 2/C
;
_chemical_formula_sum "Si O2"
_cell_formula_units_Z 48
_cell_length_a 18.645216
_cell_length_b 10.369328
_cell_length_c 19.288552
_cell_angle_alpha 90.000000
_cell_angle_beta 38.293572
_cell_angle_gamma 90.000000
_cell_volume 2310.962163
_symmetry_space_group_name_H-M "C 2/C"
_symmetry_group_IT_number 15
_symmetry_cell_setting 'monoclinic'
loop_
_space_group_symop_operation_xyz
x,y,z
-x,y,1/2-z
-x,-y,-z
x,-y,1/2+z
1/2+x,1/2+y,z
1/2-x,1/2+y,1/2-z
1/2-x,1/2-y,-z
1/2+x,1/2-y,1/2+z
loop_
_atom_site_type_symbol
_atom_site_label
_atom_site_fract_x
_atom_site_fract_y
_atom_site_fract_z
Si Si1 0.678777 0.539212 0.744269
Si Si2 0.560084 0.564398 0.520597
Si Si3 0.948541 0.520595 0.212613
Si Si4 0.748431 0.141076 0.587662
Si Si5 0.257071 0.686088 0.196797
Si Si6 0.181465 0.579743 0.479944
O O1 0.541908 0.568752 0.846490
O O2 0.708575 0.415163 0.769186
O O3 0.732929 0.667950 0.736647
O O4 0.733571 0.511587 0.627860
O O5 0.500000 0.500000 0.500000
O O6 0.658997 0.466625 0.466206
O O7 0.633343 0.686925 0.439411
O O8 0.870841 0.391788 0.282883
O O9 0.859056 0.626935 0.251055
O O10 0.000000 0.556073 0.250000
O O11 0.055108 0.483746 0.082061
O O12 0.805309 0.277625 0.562548
O O13 0.719747 0.113744 0.528987
#
# Coordination Sequence:
#
# PCOD9287502 Si02
#       6
#     8   8   8   8   8   8
#     4  11  25  40  64  94 123 163 212 252 313 368
#     4   9  21  40  61  84 128 161 197 253 314 356
#     4   9  20  41  62  87 127 164 200 258 314 366
#     4   9  20  40  61  93 126 163 200 261 309 365
#     4  10  24  43  62  91 126 165 207 257 310 366
#     4  10  22  36  65  94 121 162 216 248 307 372
#
# _framework density 20.770569999999999
#
# number of rings (size 3 to 8) (size 9 to 14) (size 15 to 20)
#    0.000    2.333    0.000    0.000   11.667    2.667 
#    3.000    2.500    0.000    0.000    0.000    0.000 
#    0.000    0.000    0.000    0.000    0.000    0.000 
#
# Total GULP energy -133757.756696 kJ/mol
# GULP energy per Si atom -5573.239862 kJ/mol
# Density = 2.072330 g / cm^3
# Si number density = 20.770570 Si / 1000 Ang^3
#
#
#
# Elastic Constant Matrix: (Units=GPa)
#
#
# Indices 1 2 3 4 5 6 
#
# 1 20.4642 -4.9044 18.5554 0.0000 -10.8373 0.0000
# 2 -4.9044 69.9088 25.6915 0.0000 4.8825 0.0000
# 3 18.5554 25.6915 188.1606 0.0000 -12.6223 0.0000
# 4 0.0000 0.0000 0.0000 15.6233 0.0000 9.4135
# 5 -10.8373 4.8825 -12.6223 0.0000 20.7856 0.0000
# 6 0.0000 0.0000 0.0000 9.4135 0.0000 17.4938
#
#
#
# Elastic Compliance Matrix: (Units=1/GPa)
#
#
# Indices 1 2 3 4 5 6 
#
# 1 0.072797 0.004829 -0.005596 0.000000 0.033423 0.000000
# 2 0.004829 0.015894 -0.002844 0.000000 -0.002942 0.000000
# 3 -0.005596 -0.002844 0.006363 0.000000 0.001614 0.000000
# 4 0.000000 0.000000 0.000000 0.094716 0.000000 -0.050967
# 5 0.033423 -0.002942 0.001614 0.000000 0.067208 0.000000
# 6 0.000000 0.000000 0.000000 -0.050967 0.000000 0.084589
#
#
# Mechanical properties :
#
#
# Convention : Reuss Voigt Hill
#
# Bulk Modulus (GPa) = 11.38523 39.69093 25.53808
# Shear Modulus (GPa) = 13.22521 26.72662 19.97591
#
# Velocity S-wave (km/s) = 2.52609 3.59103 3.10456
# Velocity P-wave (km/s) = 3.74185 6.02865 5.01728
#
# Compressibility (1/GPa) = 0.08783312
#
# Stress axis : x y z
#
# Youngs Moduli (GPa) = 13.73676 62.91785 157.15733
#
# Poissons Ratio (x) = -0.30386 0.87949
# Poissons Ratio (y) = -0.06634 0.44692
# Poissons Ratio (z) = 0.07687 0.17892
#
# Static dielectric constant tensor:
#      x y z
#    x 1.715630 0.000000 0.035330 
#    y 0.000000 1.754550 0.000000 
#    z 0.035330 0.000000 1.816120 
# 
# From -- ./inp_files/281605.got.cif
#   From: 2010.05.17/outbox.cif.g08.bks.cpg/sg15_141_cif.got.tgz:281605.got - 2010.06.03 18:47:42.
