data_PCOD9287721
_publ_section_title
;
Structure prediction by ZEFSAII (Michael W. Deem and Ramdas Pophale) SiO2 
 PCOD9287721
Probable space group: C 2/C
;
_chemical_formula_sum "Si O2"
_cell_formula_units_Z 48
_cell_length_a 19.722447
_cell_length_b 18.294578
_cell_length_c 8.524113
_cell_angle_alpha 90.000000
_cell_angle_beta 46.250430
_cell_angle_gamma 90.000000
_cell_volume 2221.731556
_symmetry_space_group_name_H-M "C 2/C"
_symmetry_group_IT_number 15
_symmetry_cell_setting 'monoclinic'
loop_
_space_group_symop_operation_xyz
x,y,z
-x,y,1/2-z
-x,-y,-z
x,-y,1/2+z
1/2+x,1/2+y,z
1/2-x,1/2+y,1/2-z
1/2-x,1/2-y,-z
1/2+x,1/2-y,1/2+z
loop_
_atom_site_type_symbol
_atom_site_label
_atom_site_fract_x
_atom_site_fract_y
_atom_site_fract_z
Si Si1 0.996343 0.582775 0.569206
Si Si2 0.452305 0.353159 0.155980
Si Si3 0.302014 0.130180 0.732683
Si Si4 0.404840 0.803523 0.796589
Si Si5 0.627264 0.607366 0.195107
Si Si6 0.839126 0.027162 0.658397
O O1 0.896749 0.616795 0.675095
O O2 0.000000 0.583165 0.750000
O O3 0.000000 0.500000 0.500000
O O4 0.076830 0.632554 0.358585
O O5 0.500000 0.363018 0.250000
O O6 0.397932 0.276883 0.237379
O O7 0.385661 0.419635 0.213022
O O8 0.537577 0.348961 0.894816
O O9 0.323284 0.181171 0.551484
O O10 0.265722 0.053691 0.714401
O O11 0.215286 0.151601 0.983953
O O12 0.500000 0.803096 0.750000
O O13 0.656181 0.555180 0.292968
O O14 0.606975 0.550469 0.086125
#
# Coordination Sequence:
#
# PCOD9287721 Si02
#       6
#     8   8   8   8   8   8
#     4  11  23  39  65  89 121 164 204 264 319 382
#     4  11  22  41  63  88 127 178 205 249 318 376
#     4   9  23  41  62  95 123 157 213 264 313 363
#     4   9  21  43  63  85 125 168 212 252 315 381
#     4  10  22  38  63  93 130 161 212 262 309 372
#     4  10  22  37  65  90 133 160 213 260 313 372
#
# _framework density 21.604769000000001
#
# number of rings (size 3 to 8) (size 9 to 14) (size 15 to 20)
#    1.000    1.000    0.000    3.500    4.667    2.000 
#    3.000    7.500    0.000    0.000    0.000    0.000 
#    0.000    0.000    0.000    0.000    0.000    0.000 
#
# Total GULP energy -133865.899576 kJ/mol
# GULP energy per Si atom -5577.745816 kJ/mol
# Density = 2.155560 g / cm^3
# Si number density = 21.604769 Si / 1000 Ang^3
#
#
#
# Elastic Constant Matrix: (Units=GPa)
#
#
# Indices 1 2 3 4 5 6 
#
# 1 66.7459 6.7103 38.0793 0.0000 9.5205 0.0000
# 2 6.7103 66.7599 54.1869 0.0000 0.4774 0.0000
# 3 38.0793 54.1869 166.0340 0.0000 0.3853 0.0000
# 4 0.0000 0.0000 0.0000 17.6703 0.0000 -0.5509
# 5 9.5205 0.4774 0.3853 0.0000 32.5910 0.0000
# 6 0.0000 0.0000 0.0000 -0.5509 0.0000 15.4359
#
#
#
# Elastic Compliance Matrix: (Units=1/GPa)
#
#
# Indices 1 2 3 4 5 6 
#
# 1 0.018317 0.002172 -0.004898 0.000000 -0.005325 0.000000
# 2 0.002172 0.020636 -0.007231 0.000000 -0.000851 0.000000
# 3 -0.004898 -0.007231 0.009503 0.000000 0.001424 0.000000
# 4 0.000000 0.000000 0.000000 0.056655 0.000000 0.002022
# 5 -0.005325 -0.000851 0.001424 0.000000 0.032234 0.000000
# 6 0.000000 0.000000 0.000000 0.002022 0.000000 0.064856
#
#
# Mechanical properties :
#
#
# Convention : Reuss Voigt Hill
#
# Bulk Modulus (GPa) = 35.03450 55.27698 45.15574
# Shear Modulus (GPa) = 21.58622 26.51032 24.04827
#
# Velocity S-wave (km/s) = 3.16435 3.50674 3.33993
# Velocity P-wave (km/s) = 5.44078 6.48362 5.98496
#
# Compressibility (1/GPa) = 0.02854329
#
# Stress axis : x y z
#
# Youngs Moduli (GPa) = 54.59275 48.45909 105.23323
#
# Poissons Ratio (x) = -0.10526 0.51539
# Poissons Ratio (y) = -0.11858 0.76094
# Poissons Ratio (z) = 0.26737 0.35041
#
# Static dielectric constant tensor:
#      x y z
#    x 1.812150 0.000000 0.010590 
#    y 0.000000 1.789260 0.000000 
#    z 0.010590 0.000000 1.806080 
# 
# From -- ./inp_files/62378.got.cif
#   From: 2010.05.17/outbox.cif.g08.bks.cpg/sg15_32_cif.got.tgz:62378.got - 2010.06.03 18:47:42.
