data_PCOD9287203
_publ_section_title
;
Structure prediction by ZEFSAII (Michael W. Deem and Ramdas Pophale) SiO2 
 PCOD9287203
Probable space group: C 2/C
;
_chemical_formula_sum "Si O2"
_cell_formula_units_Z 60
_cell_length_a 14.193307
_cell_length_b 18.283411
_cell_length_c 20.682927
_cell_angle_alpha 90.000000
_cell_angle_beta 144.940114
_cell_angle_gamma 90.000000
_cell_volume 3083.128850
_symmetry_space_group_name_H-M "C 2/C"
_symmetry_group_IT_number 15
_symmetry_cell_setting 'monoclinic'
loop_
_space_group_symop_operation_xyz
x,y,z
-x,y,1/2-z
-x,-y,-z
x,-y,1/2+z
1/2+x,1/2+y,z
1/2-x,1/2+y,1/2-z
1/2-x,1/2-y,-z
1/2+x,1/2-y,1/2+z
loop_
_atom_site_type_symbol
_atom_site_label
_atom_site_fract_x
_atom_site_fract_y
_atom_site_fract_z
Si Si1 0.000000 0.722899 0.250000
Si Si2 0.278941 0.815569 0.732459
Si Si3 0.502078 0.032395 0.641980
Si Si4 0.414630 0.339129 0.092963
Si Si5 0.917185 0.612696 0.030374
Si Si6 0.960042 0.883126 0.985557
Si Si7 0.746639 0.475729 0.106953
Si Si8 0.278521 0.144226 0.811067
O O1 0.867330 0.676235 0.212181
O O2 0.927205 0.773004 0.151679
O O3 0.415599 0.844040 0.858428
O O4 0.116940 0.861665 0.626774
O O5 0.235558 0.730070 0.715081
O O6 0.626916 0.001278 0.765976
O O7 0.340226 0.045365 0.594020
O O8 0.596993 0.100493 0.664424
O O9 0.462670 0.972114 0.565938
O O10 0.586838 0.382474 0.203434
O O11 0.235762 0.372033 0.006858
O O12 0.437104 0.323168 0.029315
O O13 0.848792 0.634357 0.922366
O O14 0.874813 0.955616 0.967730
O O15 0.145388 0.906712 0.076582
#
# Coordination Sequence:
#
# PCOD9287203 Si02
#       8
#     4   8   8   8   8   8   8   8
#     4  10  22  34  52  94 126 156 188 232 324 372
#     4  11  24  36  62  91 123 160 200 253 309 371
#     4  11  22  41  58  89 121 165 207 248 307 364
#     4  11  20  37  57  88 125 156 189 246 308 369
#     4  12  22  39  61  88 126 161 201 247 310 369
#     4  11  21  38  61  91 117 154 206 260 303 355
#     4  10  22  37  63  88 118 156 209 260 297 352
#     4  11  25  40  58  91 126 165 199 245 312 374
#
# _framework density 19.460750000000001
#
# number of rings (size 3 to 8) (size 9 to 14) (size 15 to 20)
#    0.000    1.067    6.667    1.200    3.733    2.667 
#    0.000    0.667    0.000    0.000    0.000    0.000 
#    0.000    0.000    0.000    0.000    0.000    0.000 
#
# Total GULP energy -167233.521390 kJ/mol
# GULP energy per Si atom -5574.450713 kJ/mol
# Density = 1.941646 g / cm^3
# Si number density = 19.460750 Si / 1000 Ang^3
#
#
#
# Elastic Constant Matrix: (Units=GPa)
#
#
# Indices 1 2 3 4 5 6 
#
# 1 79.8048 33.8951 22.8841 0.0000 4.5382 0.0000
# 2 33.8951 65.2946 23.0830 0.0002 10.7052 0.0001
# 3 22.8841 23.0830 127.2881 0.0005 -1.3574 0.0002
# 4 0.0000 0.0002 0.0005 28.7068 0.0001 4.9813
# 5 4.5382 10.7052 -1.3574 0.0001 28.5787 0.0000
# 6 0.0000 0.0001 0.0002 4.9813 0.0000 22.5853
#
#
#
# Elastic Compliance Matrix: (Units=1/GPa)
#
#
# Indices 1 2 3 4 5 6 
#
# 1 0.016340 -0.008014 -0.001481 0.000000 0.000337 0.000000
# 2 -0.008014 0.021502 -0.002532 0.000000 -0.006902 0.000000
# 3 -0.001481 -0.002532 0.008599 0.000000 0.001592 0.000000
# 4 0.000000 0.000000 0.000000 0.036221 0.000000 -0.007989
# 5 0.000337 -0.006902 0.001592 0.000000 0.037599 0.000000
# 6 0.000000 0.000000 0.000000 -0.007989 0.000000 0.046039
#
#
# Mechanical properties :
#
#
# Convention : Reuss Voigt Hill
#
# Bulk Modulus (GPa) = 44.66905 48.01244 46.34075
# Shear Modulus (GPa) = 25.27623 28.80920 27.04272
#
# Velocity S-wave (km/s) = 3.60784 3.85174 3.73178
# Velocity P-wave (km/s) = 6.35284 6.67129 6.51401
#
# Compressibility (1/GPa) = 0.02238686
#
# Stress axis : x y z
#
# Youngs Moduli (GPa) = 61.20061 46.50720 116.29848
#
# Poissons Ratio (x) = 0.37270 0.17221
# Poissons Ratio (y) = 0.49045 0.29448
# Poissons Ratio (z) = 0.09062 0.11776
#
# Static dielectric constant tensor:
#      x y z
#    x 1.688050 0.000000 0.008240 
#    y 0.000000 1.732940 0.000000 
#    z 0.008240 0.000000 1.784280 
# 
# From -- ./inp_files/245464.got.cif
#   From: 2010.05.17/outbox.cif.g08.bks.cpg/sg15_123_cif.got.tgz:245464.got - 2010.06.03 18:47:42.
