data_PCOD9287434
_publ_section_title
;
Structure prediction by ZEFSAII (Michael W. Deem and Ramdas Pophale) SiO2 
 PCOD9287434
Probable space group: C 2/C
;
_chemical_formula_sum "Si O2"
_cell_formula_units_Z 56
_cell_length_a 14.304386
_cell_length_b 16.984708
_cell_length_c 21.162071
_cell_angle_alpha 90.000000
_cell_angle_beta 147.718125
_cell_angle_gamma 90.000000
_cell_volume 2745.970064
_symmetry_space_group_name_H-M "C 2/C"
_symmetry_group_IT_number 15
_symmetry_cell_setting 'monoclinic'
loop_
_space_group_symop_operation_xyz
x,y,z
-x,y,1/2-z
-x,-y,-z
x,-y,1/2+z
1/2+x,1/2+y,z
1/2-x,1/2+y,1/2-z
1/2-x,1/2-y,-z
1/2+x,1/2-y,1/2+z
loop_
_atom_site_type_symbol
_atom_site_label
_atom_site_fract_x
_atom_site_fract_y
_atom_site_fract_z
Si Si1 0.554500 0.091871 0.174986
Si Si2 0.000000 0.299279 0.750000
Si Si3 0.000000 0.967774 0.250000
Si Si4 0.391457 0.684336 0.059723
Si Si5 0.565528 0.916740 0.358457
Si Si6 0.744710 0.338131 0.419207
Si Si7 0.020061 0.676295 0.565309
Si Si8 0.297769 0.605315 0.197665
O O1 0.604859 0.142717 0.264196
O O2 0.710246 0.084675 0.214415
O O3 0.474820 0.007634 0.148751
O O4 0.409864 0.144597 0.056617
O O5 0.136594 0.241807 0.862707
O O6 0.889075 0.908900 0.143767
O O7 0.864665 0.024839 0.206267
O O8 0.535881 0.660994 0.193858
O O9 0.250000 0.750000 0.000000
O O10 0.270387 0.608646 0.977003
O O11 0.492655 0.730632 0.062041
O O12 0.500000 0.898492 0.250000
O O13 0.473198 0.866748 0.362478
O O14 0.818314 0.340739 0.388895
O O15 0.847188 0.643643 0.430696
#
# Coordination Sequence:
#
# PCOD9287434 Si02
#       8
#     8   4   4   8   8   8   8   8
#     4  11  22  41  63  86 129 160 204 251 309 369
#     4  11  22  40  62  91 122 166 202 251 308 370
#     4  11  20  36  62  91 120 146 216 249 302 352
#     4  10  22  36  61  88 125 155 202 248 304 362
#     4  11  23  39  61  89 125 169 194 250 317 364
#     4  10  22  39  65  91 116 161 208 260 299 356
#     4  10  22  39  63  91 123 157 210 256 303 361
#     4  11  22  38  64  93 118 164 206 259 300 360
#
# _framework density 20.393522000000001
#
# number of rings (size 3 to 8) (size 9 to 14) (size 15 to 20)
#    0.000    1.429    0.714    5.571    4.000    2.286 
#    0.000    0.714    6.286    0.000    0.000    0.000 
#    0.000    0.000    0.000    0.000    0.000    0.000 
#
# Total GULP energy -156255.255503 kJ/mol
# GULP energy per Si atom -5580.544839 kJ/mol
# Density = 2.034711 g / cm^3
# Si number density = 20.393522 Si / 1000 Ang^3
#
#
#
# Elastic Constant Matrix: (Units=GPa)
#
#
# Indices 1 2 3 4 5 6 
#
# 1 60.9345 33.2216 17.4582 0.0002 -11.6043 0.0002
# 2 33.2216 120.8973 15.9541 0.0007 0.7193 0.0004
# 3 17.4582 15.9541 56.8794 0.0014 -1.0485 0.0012
# 4 0.0002 0.0007 0.0014 4.0423 0.0002 13.7258
# 5 -11.6043 0.7193 -1.0485 0.0002 25.9985 0.0002
# 6 0.0002 0.0004 0.0012 13.7258 0.0002 13.7278
#
#
#
# Elastic Compliance Matrix: (Units=1/GPa)
#
#
# Indices 1 2 3 4 5 6 
#
# 1 0.022953 -0.005673 -0.005266 0.000000 0.010190 0.000001
# 2 -0.005673 0.009994 -0.001115 0.000000 -0.002854 0.000000
# 3 -0.005266 -0.001115 0.019482 0.000000 -0.001534 -0.000002
# 4 0.000000 0.000000 0.000000 -0.103290 0.000000 0.103275
# 5 0.010190 -0.002854 -0.001534 0.000000 0.043029 0.000000
# 6 0.000001 0.000000 -0.000002 0.103275 0.000000 -0.030415
#
#
# Mechanical properties :
#
#
# Convention : Reuss Voigt Hill
#
# Bulk Modulus (GPa) = 35.30836 41.33099 38.31967
# Shear Modulus (GPa) = -1064.10855 20.22553 -521.94151
#
# Velocity S-wave (km/s) = -22.86745 3.15264 -16.01532
# Velocity P-wave (km/s) = 26.07443 5.79335 17.97655
#
# Compressibility (1/GPa) = 0.02832191
#
# Stress axis : x y z
#
# Youngs Moduli (GPa) = 43.56669 100.05516 51.33001
#
# Poissons Ratio (x) = 0.56762 0.27031
# Poissons Ratio (y) = 0.24716 0.05722
# Poissons Ratio (z) = 0.22942 0.11153
#
# Static dielectric constant tensor:
#      x y z
#    x 1.793490 0.000000 0.003900 
#    y 0.000000 1.722930 0.000000 
#    z 0.003900 0.000000 1.740250 
# 
# From -- ./inp_files/245204.got.cif
#   From: 2010.05.17/outbox.cif.g08.bks.cpg/sg15_123_cif.got.tgz:245204.got - 2010.06.03 18:47:42.
