data_PCOD9287962
_publ_section_title
;
Structure prediction by ZEFSAII (Michael W. Deem and Ramdas Pophale) SiO2 
 PCOD9287962
Probable space group: C 2/C
;
_chemical_formula_sum "Si O2"
_cell_formula_units_Z 40
_cell_length_a 12.158850
_cell_length_b 16.854209
_cell_length_c 8.577246
_cell_angle_alpha 90.000000
_cell_angle_beta 77.494622
_cell_angle_gamma 90.000000
_cell_volume 1716.015537
_symmetry_space_group_name_H-M "C 2/C"
_symmetry_group_IT_number 15
_symmetry_cell_setting 'monoclinic'
loop_
_space_group_symop_operation_xyz
x,y,z
-x,y,1/2-z
-x,-y,-z
x,-y,1/2+z
1/2+x,1/2+y,z
1/2-x,1/2+y,1/2-z
1/2-x,1/2-y,-z
1/2+x,1/2-y,1/2+z
loop_
_atom_site_type_symbol
_atom_site_label
_atom_site_fract_x
_atom_site_fract_y
_atom_site_fract_z
Si Si1 0.444607 0.077326 0.934421
Si Si2 0.271185 0.647447 0.644364
Si Si3 0.104061 0.701040 0.309763
Si Si4 0.747040 0.654712 0.490322
Si Si5 0.008502 0.086975 0.560987
O O1 0.500000 0.084253 0.750000
O O2 0.312191 0.094121 0.934965
O O3 0.461482 0.154270 0.036635
O O4 0.500000 0.000000 0.000000
O O5 0.294172 0.743332 0.657897
O O6 0.241624 0.624129 0.834669
O O7 0.395371 0.629310 0.544340
O O8 0.000000 0.744241 0.250000
O O9 0.161493 0.638352 0.172125
O O10 0.750000 0.750000 0.500000
O O11 0.624323 0.626975 0.475702
O O12 0.000000 0.083454 0.750000
O O13 0.000000 0.000000 0.500000
#
# Coordination Sequence:
#
# PCOD9287962 Si02
#       5
#     8   8   8   8   8
#     4  12  28  46  65  97 139 184 230 284 348 415
#     4  10  22  43  68  97 133 176 229 280 337 412
#     4  11  22  43  73 103 134 177 229 287 345 410
#     4   9  19  40  71 102 133 175 225 283 344 409
#     4  10  22  38  60  93 131 172 218 272 334 398
#
# _framework density 23.309812000000001
#
# number of rings (size 3 to 8) (size 9 to 14) (size 15 to 20)
#    0.000    1.600    0.000    5.400    0.000    9.600 
#    0.000    1.000    0.000    0.000    0.000    0.000 
#    0.000    0.000    0.000    0.000    0.000    0.000 
#
# Total GULP energy -111369.203863 kJ/mol
# GULP energy per Si atom -5568.460193 kJ/mol
# Density = 2.325676 g / cm^3
# Si number density = 23.309812 Si / 1000 Ang^3
#
#
#
# Elastic Constant Matrix: (Units=GPa)
#
#
# Indices 1 2 3 4 5 6 
#
# 1 155.4873 41.6765 30.1708 0.0000 16.6151 0.0000
# 2 41.6765 95.9212 41.3763 0.0000 4.4154 0.0000
# 3 30.1708 41.3763 96.3499 0.0000 -7.8419 0.0000
# 4 0.0000 0.0000 0.0000 25.3866 0.0000 6.1647
# 5 16.6151 4.4154 -7.8419 0.0000 34.8857 0.0000
# 6 0.0000 0.0000 0.0000 6.1647 0.0000 47.9044
#
#
#
# Elastic Compliance Matrix: (Units=1/GPa)
#
#
# Indices 1 2 3 4 5 6 
#
# 1 0.007835 -0.002501 -0.001688 0.000000 -0.003794 0.000000
# 2 -0.002501 0.013890 -0.005325 0.000000 -0.001764 0.000000
# 3 -0.001688 -0.005325 0.013563 0.000000 0.004527 0.000000
# 4 0.000000 0.000000 0.000000 0.040661 0.000000 -0.005233
# 5 -0.003794 -0.001764 0.004527 0.000000 0.031713 0.000000
# 6 0.000000 0.000000 0.000000 -0.005233 0.000000 0.021548
#
#
# Mechanical properties :
#
#
# Convention : Reuss Voigt Hill
#
# Bulk Modulus (GPa) = 61.50617 63.80061 62.65339
# Shear Modulus (GPa) = 32.53945 37.27100 34.90522
#
# Velocity S-wave (km/s) = 3.74030 4.00301 3.87389
# Velocity P-wave (km/s) = 6.71542 6.98539 6.85173
#
# Compressibility (1/GPa) = 0.01625853
#
# Stress axis : x y z
#
# Youngs Moduli (GPa) = 127.63474 71.99256 73.73136
#
# Poissons Ratio (x) = 0.18008 0.12446
# Poissons Ratio (y) = 0.31926 0.39264
# Poissons Ratio (z) = 0.21545 0.38338
#
# Static dielectric constant tensor:
#      x y z
#    x 1.989670 0.000000 0.049530 
#    y 0.000000 1.902600 0.000000 
#    z 0.049530 0.000000 1.963230 
# 
# From -- ./inp_files/29060.got.cif
#   From: 2010.05.17/outbox.cif.g08.bks.cpg/sg15_15_cif.got.tgz:29060.got - 2010.06.03 18:47:42.
