data_PCOD9287188
_publ_section_title
;
Structure prediction by ZEFSAII (Michael W. Deem and Ramdas Pophale) SiO2 
 PCOD9287188
Probable space group: C 2/C
;
_chemical_formula_sum "Si O2"
_cell_formula_units_Z 24
_cell_length_a 16.245179
_cell_length_b 13.353290
_cell_length_c 9.692281
_cell_angle_alpha 90.000000
_cell_angle_beta 154.791959
_cell_angle_gamma 90.000000
_cell_volume 895.473658
_symmetry_space_group_name_H-M "C 2/C"
_symmetry_group_IT_number 15
_symmetry_cell_setting 'monoclinic'
loop_
_space_group_symop_operation_xyz
x,y,z
-x,y,1/2-z
-x,-y,-z
x,-y,1/2+z
1/2+x,1/2+y,z
1/2-x,1/2+y,1/2-z
1/2-x,1/2-y,-z
1/2+x,1/2-y,1/2+z
loop_
_atom_site_type_symbol
_atom_site_label
_atom_site_fract_x
_atom_site_fract_y
_atom_site_fract_z
Si Si1 0.624637 0.042399 0.811277
Si Si2 0.500000 0.704605 0.750000
Si Si3 0.589661 0.223943 0.083040
Si Si4 0.000000 0.098426 0.250000
O O1 0.500000 0.002184 0.750000
O O2 0.585122 0.161760 0.747197
O O3 0.500000 0.000000 0.500000
O O4 0.849665 0.033838 0.114165
O O5 0.447420 0.762559 0.810775
O O6 0.292034 0.662736 0.384443
O O7 0.601813 0.328381 0.017830
#
# Coordination Sequence:
#
# PCOD9287188 Si02
#       4
#     8   4   8   4
#     4  12  28  44  70 104 144 183 232 290 359 411
#     4  10  22  33  71 100 132 164 232 292 326 393
#     4  11  21  43  68 104 133 182 233 284 338 415
#     4  12  24  49  77  98 138 192 238 284 342 423
#
# _framework density 26.801456999999999
#
# number of rings (size 3 to 8) (size 9 to 14) (size 15 to 20)
#    0.000    0.667    5.000    3.000    2.333    2.667 
#    0.000    0.000    0.000    0.000    0.000    0.000 
#    0.000    0.000    0.000    0.000    0.000    0.000 
#
# Total GULP energy -66929.616800 kJ/mol
# GULP energy per Si atom -5577.468067 kJ/mol
# Density = 2.674046 g / cm^3
# Si number density = 26.801457 Si / 1000 Ang^3
#
#
#
# Elastic Constant Matrix: (Units=GPa)
#
#
# Indices 1 2 3 4 5 6 
#
# 1 246.9334 14.0506 56.8785 0.0000 7.9373 0.0000
# 2 14.0506 42.6721 8.9058 0.0000 6.5195 0.0000
# 3 56.8785 8.9058 107.6304 0.0000 34.7696 0.0000
# 4 0.0000 0.0000 0.0000 -564.8555 0.0000 -351.3210
# 5 7.9373 6.5195 34.7696 0.0000 71.5744 0.0000
# 6 0.0000 0.0000 0.0000 -351.3210 0.0000 -190.1726
#
#
#
# Elastic Compliance Matrix: (Units=1/GPa)
#
#
# Indices 1 2 3 4 5 6 
#
# 1 0.004702 -0.001124 -0.002676 0.000000 0.000881 0.000000
# 2 -0.001124 0.024241 -0.000876 0.000000 -0.001658 0.000000
# 3 -0.002676 -0.000876 0.012640 0.000000 -0.005764 0.000000
# 4 0.000000 0.000000 0.000000 0.011881 0.000000 -0.021949
# 5 0.000881 -0.001658 -0.005764 0.000000 0.016825 0.000000
# 6 0.000000 0.000000 0.000000 -0.021949 0.000000 0.035289
#
#
# Mechanical properties :
#
#
# Convention : Reuss Voigt Hill
#
# Bulk Modulus (GPa) = 31.02798 61.87842 46.45320
# Shear Modulus (GPa) = 39.78554 -115.53069 -37.87257
#
# Velocity S-wave (km/s) = 3.85704 -6.57265 -3.76317
# Velocity P-wave (km/s) = 5.60694 5.87042 1.22963
#
# Compressibility (1/GPa) = 0.03222897
#
# Stress axis : x y z
#
# Youngs Moduli (GPa) = 212.68509 41.25277 79.11514
#
# Poissons Ratio (x) = 0.04638 0.21174
# Poissons Ratio (y) = 0.23910 0.06932
# Poissons Ratio (z) = 0.56922 0.03614
#
# Static dielectric constant tensor:
#      x y z
#    x 2.237930 0.000000 0.096880 
#    y 0.000000 2.261200 0.000000 
#    z 0.096880 0.000000 2.082340 
# 
# From -- ./inp_files/20919.got.cif
#   From: 2010.05.17/outbox.cif.g08.bks.cpg/sg15_11_cif.got.tgz:20919.got - 2010.06.03 18:47:42.
