data_PCOD9287111
_publ_section_title
;
Structure prediction by ZEFSAII (Michael W. Deem and Ramdas Pophale) SiO2 
 PCOD9287111
Probable space group: C 2/C
;
_chemical_formula_sum "Si O2"
_cell_formula_units_Z 24
_cell_length_a 8.941920
_cell_length_b 12.769776
_cell_length_c 14.950766
_cell_angle_alpha 90.000000
_cell_angle_beta 147.197047
_cell_angle_gamma 90.000000
_cell_volume 924.863524
_symmetry_space_group_name_H-M "C 2/C"
_symmetry_group_IT_number 15
_symmetry_cell_setting 'monoclinic'
loop_
_space_group_symop_operation_xyz
x,y,z
-x,y,1/2-z
-x,-y,-z
x,-y,1/2+z
1/2+x,1/2+y,z
1/2-x,1/2+y,1/2-z
1/2-x,1/2-y,-z
1/2+x,1/2-y,1/2+z
loop_
_atom_site_type_symbol
_atom_site_label
_atom_site_fract_x
_atom_site_fract_y
_atom_site_fract_z
Si Si1 0.000000 0.884600 0.750000
Si Si2 0.500000 0.171846 0.250000
Si Si3 0.592476 0.003501 0.942004
Si Si4 0.080241 0.275552 0.163838
O O1 0.900898 0.955380 0.617952
O O2 0.801733 0.801526 0.700408
O O3 0.253667 0.243754 0.164109
O O4 0.409788 0.094291 0.124141
O O5 0.416820 0.101243 0.815114
O O6 0.500000 0.000000 0.000000
O O7 0.750000 0.250000 0.000000
#
# Coordination Sequence:
#
# PCOD9287111 Si02
#       4
#     4   4   8   8
#     4  10  21  47  68 106 154 186 251 329 360 450
#     4  12  25  49  82 110 150 216 245 315 406 442
#     4  11  24  46  74 112 148 198 258 315 379 465
#     4  10  24  45  72 110 152 197 259 309 375 461
#
# _framework density 25.949774000000001
#
# number of rings (size 3 to 8) (size 9 to 14) (size 15 to 20)
#    0.000    1.333    3.333    1.000    0.000    8.000 
#   12.000    0.000    0.000    0.000    0.000    0.000 
#    0.000    0.000    0.000    0.000    0.000    0.000 
#
# Total GULP energy -66876.169001 kJ/mol
# GULP energy per Si atom -5573.014083 kJ/mol
# Density = 2.589071 g / cm^3
# Si number density = 25.949774 Si / 1000 Ang^3
#
#
#
# Elastic Constant Matrix: (Units=GPa)
#
#
# Indices 1 2 3 4 5 6 
#
# 1 176.2597 37.9622 39.1247 0.0012 5.8182 -0.0003
# 2 37.9622 62.1295 31.1736 0.0008 16.3365 -0.0003
# 3 39.1247 31.1736 94.8242 0.0038 -3.1252 0.0023
# 4 0.0012 0.0008 0.0038 41.9071 0.0017 -14.5805
# 5 5.8182 16.3365 -3.1252 0.0017 36.1675 0.0004
# 6 -0.0003 -0.0003 0.0023 -14.5805 0.0004 52.0909
#
#
#
# Elastic Compliance Matrix: (Units=1/GPa)
#
#
# Indices 1 2 3 4 5 6 
#
# 1 0.006760 -0.003367 -0.001673 0.000000 0.000289 0.000000
# 2 -0.003367 0.024655 -0.007085 0.000001 -0.011207 0.000001
# 3 -0.001673 -0.007085 0.013719 -0.000002 0.004655 -0.000001
# 4 0.000000 0.000001 -0.000002 0.026437 -0.000002 0.007400
# 5 0.000289 -0.011207 0.004655 -0.000002 0.033067 -0.000001
# 6 0.000000 0.000001 -0.000001 0.007400 -0.000001 0.021268
#
#
# Mechanical properties :
#
#
# Convention : Reuss Voigt Hill
#
# Bulk Modulus (GPa) = 47.88577 61.08160 54.48368
# Shear Modulus (GPa) = 31.82318 41.02996 36.42657
#
# Velocity S-wave (km/s) = 3.50571 3.98066 3.75071
# Velocity P-wave (km/s) = 5.90593 6.68708 6.30860
#
# Compressibility (1/GPa) = 0.02088303
#
# Stress axis : x y z
#
# Youngs Moduli (GPa) = 147.91829 40.56011 72.89295
#
# Poissons Ratio (x) = 0.13658 0.12194
# Poissons Ratio (y) = 0.49810 0.51646
# Poissons Ratio (z) = 0.24744 0.28738
#
# Static dielectric constant tensor:
#      x y z
#    x 2.230750 0.000000 0.291090 
#    y 0.000000 2.166290 0.000000 
#    z 0.291090 0.000000 3.535620 
# 
# From -- ./inp_files/20988.got.cif
#   From: 2010.05.17/outbox.cif.g08.bks.cpg/sg15_11_cif.got.tgz:20988.got - 2010.06.03 18:47:42.
