data_PCOD9287293
_publ_section_title
;
Structure prediction by ZEFSAII (Michael W. Deem and Ramdas Pophale) SiO2 
 PCOD9287293
Probable space group: C 2/C
;
_chemical_formula_sum "Si O2"
_cell_formula_units_Z 44
_cell_length_a 17.199428
_cell_length_b 12.022219
_cell_length_c 9.248429
_cell_angle_alpha 90.000000
_cell_angle_beta 60.848262
_cell_angle_gamma 90.000000
_cell_volume 1670.114823
_symmetry_space_group_name_H-M "C 2/C"
_symmetry_group_IT_number 15
_symmetry_cell_setting 'monoclinic'
loop_
_space_group_symop_operation_xyz
x,y,z
-x,y,1/2-z
-x,-y,-z
x,-y,1/2+z
1/2+x,1/2+y,z
1/2-x,1/2+y,1/2-z
1/2-x,1/2-y,-z
1/2+x,1/2-y,1/2+z
loop_
_atom_site_type_symbol
_atom_site_label
_atom_site_fract_x
_atom_site_fract_y
_atom_site_fract_z
Si Si1 0.611371 0.690423 0.534455
Si Si2 0.355334 0.105411 0.986198
Si Si3 0.313772 0.309829 0.222305
Si Si4 0.608454 0.108986 0.874101
Si Si5 0.666416 0.555630 0.247706
Si Si6 0.000000 0.989142 0.750000
O O1 0.846945 0.772664 0.351536
O O2 0.560058 0.792363 0.505380
O O3 0.686598 0.637080 0.361664
O O4 0.550789 0.581115 0.606429
O O5 0.400431 0.108485 0.789439
O O6 0.345657 0.224398 0.072030
O O7 0.252018 0.062725 0.066522
O O8 0.400027 0.012130 0.047559
O O9 0.210609 0.348673 0.306828
O O10 0.355186 0.433013 0.176461
O O11 0.575971 0.587318 0.249782
#
# Coordination Sequence:
#
# PCOD9287293 Si02
#       6
#     8   8   8   8   8   4
#     4  11  22  41  61  90 128 173 216 262 313 378
#     4  11  23  38  62 101 127 163 208 266 339 376
#     4  10  22  35  61  91 131 163 206 266 324 380
#     4  11  23  36  62  90 130 164 206 269 322 382
#     4  10  23  37  65  92 138 164 213 257 317 386
#     4  10  24  40  60  94 130 184 212 252 302 390
#
# _framework density 26.345493000000001
#
# number of rings (size 3 to 8) (size 9 to 14) (size 15 to 20)
#    0.000    1.455    1.818    2.727   15.273    0.000 
#    0.000    0.000    0.000    9.818    0.000    5.091 
#    0.000    0.000    0.000    0.000    0.000    0.000 
#
# Total GULP energy -123043.247089 kJ/mol
# GULP energy per Si atom -5592.874868 kJ/mol
# Density = 2.628553 g / cm^3
# Si number density = 26.345493 Si / 1000 Ang^3
#
#
#
# Elastic Constant Matrix: (Units=GPa)
#
#
# Indices 1 2 3 4 5 6 
#
# 1 121.5445 13.4807 34.6222 0.0000 8.5931 0.0000
# 2 13.4807 130.2859 36.3053 0.0000 43.2299 0.0000
# 3 34.6222 36.3053 90.3094 0.0000 39.7449 0.0000
# 4 0.0000 0.0000 0.0000 49.0945 0.0000 19.7367
# 5 8.5931 43.2299 39.7449 0.0000 36.7701 0.0000
# 6 0.0000 0.0000 0.0000 19.7367 0.0000 19.4138
#
#
#
# Elastic Compliance Matrix: (Units=1/GPa)
#
#
# Indices 1 2 3 4 5 6 
#
# 1 0.009529 -0.001106 -0.005342 0.000000 0.004847 0.000000
# 2 -0.001106 0.013087 0.003472 0.000000 -0.018881 0.000000
# 3 -0.005342 0.003472 0.024742 0.000000 -0.029578 0.000000
# 4 0.000000 0.000000 0.000000 0.034448 0.000000 -0.035020
# 5 0.004847 -0.018881 -0.029578 0.000000 0.080232 0.000000
# 6 0.000000 0.000000 0.000000 -0.035020 0.000000 0.087112
#
#
# Mechanical properties :
#
#
# Convention : Reuss Voigt Hill
#
# Bulk Modulus (GPa) = 24.15012 56.77294 40.46153
# Shear Modulus (GPa) = 18.59403 38.23780 28.41592
#
# Velocity S-wave (km/s) = 2.65953 3.81386 3.28775
# Velocity P-wave (km/s) = 4.31479 6.40236 5.45928
#
# Compressibility (1/GPa) = 0.04140767
#
# Stress axis : x y z
#
# Youngs Moduli (GPa) = 104.94247 76.41084 40.41679
#
# Poissons Ratio (x) = 0.08449 0.21590
# Poissons Ratio (y) = 0.11604 -0.14034
# Poissons Ratio (z) = 0.56059 -0.26532
#
# Static dielectric constant tensor:
#      x y z
#    x 2.162120 0.000000 -0.093360 
#    y 0.000000 2.067700 0.000000 
#    z -0.093360 0.000000 2.254520 
# 
# From -- ./inp_files/117103.got.cif
#   From: 2010.05.17/outbox.cif.g08.bks.cpg/sg15_59_cif.got.tgz:117103.got - 2010.06.03 18:47:42.
