data_PCOD9287278
_publ_section_title
;
Structure prediction by ZEFSAII (Michael W. Deem and Ramdas Pophale) SiO2 
 PCOD9287278
Probable space group: C 2/C
;
_chemical_formula_sum "Si O2"
_cell_formula_units_Z 60
_cell_length_a 20.629083
_cell_length_b 17.672595
_cell_length_c 8.995420
_cell_angle_alpha 90.000000
_cell_angle_beta 112.946297
_cell_angle_gamma 90.000000
_cell_volume 3019.954076
_symmetry_space_group_name_H-M "C 2/C"
_symmetry_group_IT_number 15
_symmetry_cell_setting 'monoclinic'
loop_
_space_group_symop_operation_xyz
x,y,z
-x,y,1/2-z
-x,-y,-z
x,-y,1/2+z
1/2+x,1/2+y,z
1/2-x,1/2+y,1/2-z
1/2-x,1/2-y,-z
1/2+x,1/2-y,1/2+z
loop_
_atom_site_type_symbol
_atom_site_label
_atom_site_fract_x
_atom_site_fract_y
_atom_site_fract_z
Si Si1 0.073736 0.828040 0.225933
Si Si2 0.403885 0.959556 0.943930
Si Si3 0.612082 0.124260 0.634501
Si Si4 0.917122 0.663063 0.208951
Si Si5 0.234629 0.516437 0.747223
Si Si6 0.500000 0.133437 0.750000
Si Si7 0.044741 0.942242 0.935683
Si Si8 0.831072 0.050164 0.568574
O O1 0.096178 0.741676 0.219316
O O2 0.128728 0.870616 0.383029
O O3 0.000000 0.828805 0.250000
O O4 0.064903 0.874242 0.064759
O O5 0.402781 0.910346 0.793815
O O6 0.321809 0.972424 0.905401
O O7 0.429330 0.045119 0.938532
O O8 0.446031 0.916993 0.106910
O O9 0.622095 0.162448 0.484000
O O10 0.556847 0.170668 0.687282
O O11 0.686949 0.089182 0.755958
O O12 0.000000 0.660867 0.250000
O O13 0.299810 0.538387 0.704039
O O14 0.265656 0.461958 0.900326
O O15 0.000000 0.919052 0.750000
O O16 0.111244 0.987995 0.928559
O O17 0.000000 0.000000 0.000000
#
# Coordination Sequence:
#
# PCOD9287278 Si02
#       8
#     8   8   8   8   8   4   8   8
#     4  11  24  40  65  97 128 162 213 269 330 381
#     4  10  22  35  59  86 122 160 220 255 313 370
#     4  10  22  35  60  88 120 164 217 260 313 370
#     4  11  22  41  59  93 129 164 206 275 330 376
#     4  10  23  34  60  92 123 163 216 263 295 387
#     4  12  18  32  58  86 112 154 208 272 298 350
#     4  12  20  38  67  97 122 162 216 266 314 376
#     4  12  19  39  63  91 124 160 211 260 315 369
#
# _framework density 19.867851999999999
#
# number of rings (size 3 to 8) (size 9 to 14) (size 15 to 20)
#    0.800    0.267    5.333    2.800    1.867    0.000 
#    1.200    2.667    0.000    0.800    0.000    0.000 
#    0.000    0.000    0.000    0.000    0.000    0.000 
#
# Total GULP energy -167085.148132 kJ/mol
# GULP energy per Si atom -5569.504938 kJ/mol
# Density = 1.982263 g / cm^3
# Si number density = 19.867852 Si / 1000 Ang^3
#
#
#
# Elastic Constant Matrix: (Units=GPa)
#
#
# Indices 1 2 3 4 5 6 
#
# 1 79.7687 10.3112 16.4891 0.0000 -2.8888 0.0000
# 2 10.3112 61.2858 6.7751 0.0000 -5.9369 0.0000
# 3 16.4891 6.7751 82.4397 0.0000 8.7867 0.0000
# 4 0.0000 0.0000 0.0000 13.9368 0.0000 1.7008
# 5 -2.8888 -5.9369 8.7867 0.0000 35.3363 0.0000
# 6 0.0000 0.0000 0.0000 1.7008 0.0000 -3.2367
#
#
#
# Elastic Compliance Matrix: (Units=1/GPa)
#
#
# Indices 1 2 3 4 5 6 
#
# 1 0.013378 -0.001813 -0.002682 0.000000 0.001456 0.000000
# 2 -0.001813 0.017069 -0.001366 0.000000 0.003059 0.000000
# 3 -0.002682 -0.001366 0.013176 0.000000 -0.003725 0.000000
# 4 0.000000 0.000000 0.000000 0.067428 0.000000 0.035432
# 5 0.001456 0.003059 -0.003725 0.000000 0.029859 0.000000
# 6 0.000000 0.000000 0.000000 0.035432 0.000000 -0.290334
#
#
# Mechanical properties :
#
#
# Convention : Reuss Voigt Hill
#
# Bulk Modulus (GPa) = 31.34768 32.29389 31.82078
# Shear Modulus (GPa) = -39.34908 21.86853 -8.74028
#
# Velocity S-wave (km/s) = -4.45515 3.32128 -2.09970
# Velocity P-wave (km/s) = 3.26377 5.56754 3.18946
#
# Compressibility (1/GPa) = 0.03190029
#
# Stress axis : x y z
#
# Youngs Moduli (GPa) = 74.75106 58.58408 75.89667
#
# Poissons Ratio (x) = 0.10623 0.20355
# Poissons Ratio (y) = 0.13554 0.10369
# Poissons Ratio (z) = 0.20047 0.08004
#
# Static dielectric constant tensor:
#      x y z
#    x 1.756120 0.000000 -0.014210 
#    y 0.000000 1.691490 0.000000 
#    z -0.014210 0.000000 1.770800 
# 
# From -- ./inp_files/56697.got.cif
#   From: 2010.05.17/outbox.cif.g08.bks.cpg/sg15_29_cif.got.tgz:56697.got - 2010.06.03 18:47:42.
