data_PCOD9287089
_publ_section_title
;
Structure prediction by ZEFSAII (Michael W. Deem and Ramdas Pophale) SiO2 
 PCOD9287089
Probable space group: C 2/C
;
_chemical_formula_sum "Si O2"
_cell_formula_units_Z 44
_cell_length_a 28.998500
_cell_length_b 5.359969
_cell_length_c 11.487910
_cell_angle_alpha 90.000000
_cell_angle_beta 76.534863
_cell_angle_gamma 90.000000
_cell_volume 1736.495689
_symmetry_space_group_name_H-M "C 2/C"
_symmetry_group_IT_number 15
_symmetry_cell_setting 'monoclinic'
loop_
_space_group_symop_operation_xyz
x,y,z
-x,y,1/2-z
-x,-y,-z
x,-y,1/2+z
1/2+x,1/2+y,z
1/2-x,1/2+y,1/2-z
1/2-x,1/2-y,-z
1/2+x,1/2-y,1/2+z
loop_
_atom_site_type_symbol
_atom_site_label
_atom_site_fract_x
_atom_site_fract_y
_atom_site_fract_z
Si Si1 0.907490 0.917408 0.690108
Si Si2 0.259773 0.576544 0.673686
Si Si3 0.970618 0.740845 0.488178
Si Si4 0.500000 0.437884 0.250000
Si Si5 0.141709 0.660461 0.396271
Si Si6 0.836837 0.622698 0.860505
O O1 0.919503 0.724736 0.579243
O O2 0.864541 0.874699 0.803948
O O3 0.901910 0.169383 0.619809
O O4 0.957344 0.896440 0.726882
O O5 0.255876 0.295911 0.726101
O O6 0.313852 0.641201 0.612565
O O7 0.219852 0.607700 0.598300
O O8 0.969881 0.759888 0.351115
O O9 0.000000 0.500000 0.500000
O O10 0.000000 0.000000 0.500000
O O11 0.141861 0.548000 0.527099
O O12 0.154480 0.523565 0.266981
#
# Coordination Sequence:
#
# PCOD9287089 Si02
#       6
#     8   8   8   4   8   8
#     4  11  24  47  69 107 142 195 250 309 377 454
#     4  10  21  46  73 111 152 200 254 314 379 453
#     4  10  24  44  68  99 134 182 238 299 367 433
#     4  10  24  46  70  98 140 186 242 310 370 438
#     4  11  25  46  71 111 150 201 252 314 381 454
#     4  11  25  45  74 107 151 197 254 312 379 459
#
# _framework density 25.338384000000001
#
# number of rings (size 3 to 8) (size 9 to 14) (size 15 to 20)
#    0.000    1.455    1.818    1.636    5.091    5.818 
#    0.000    4.545    0.000    0.000    0.000    0.000 
#    0.000    0.000    0.000    0.000    0.000    0.000 
#
# Total GULP energy -122488.547746 kJ/mol
# GULP energy per Si atom -5567.661261 kJ/mol
# Density = 2.528071 g / cm^3
# Si number density = 25.338384 Si / 1000 Ang^3
#
#
#
# Elastic Constant Matrix: (Units=GPa)
#
#
# Indices 1 2 3 4 5 6 
#
# 1 87.8625 5.9224 19.1237 0.0000 27.6982 0.0000
# 2 5.9224 76.7501 23.6992 0.0000 14.4180 0.0000
# 3 19.1237 23.6992 124.8038 0.0000 21.3908 0.0000
# 4 0.0000 0.0000 0.0000 31.0412 0.0000 -1.2861
# 5 27.6982 14.4180 21.3908 0.0000 53.3686 0.0000
# 6 0.0000 0.0000 0.0000 -1.2861 0.0000 40.9541
#
#
#
# Elastic Compliance Matrix: (Units=1/GPa)
#
#
# Indices 1 2 3 4 5 6 
#
# 1 0.013732 0.000548 -0.001032 0.000000 -0.006861 0.000000
# 2 0.000548 0.014289 -0.002241 0.000000 -0.003247 0.000000
# 3 -0.001032 -0.002241 0.009020 0.000000 -0.002474 0.000000
# 4 0.000000 0.000000 0.000000 0.032257 0.000000 0.001013
# 5 -0.006861 -0.003247 -0.002474 0.000000 0.024167 0.000000
# 6 0.000000 0.000000 0.000000 0.001013 0.000000 0.024449
#
#
# Mechanical properties :
#
#
# Convention : Reuss Voigt Hill
#
# Bulk Modulus (GPa) = 31.65441 42.98966 37.32203
# Shear Modulus (GPa) = 37.34242 41.11751 39.22997
#
# Velocity S-wave (km/s) = 3.84311 4.03269 3.93904
# Velocity P-wave (km/s) = 5.67560 6.21985 5.95395
#
# Compressibility (1/GPa) = 0.03159118
#
# Stress axis : x y z
#
# Youngs Moduli (GPa) = 72.82194 69.98468 110.86026
#
# Poissons Ratio (x) = -0.03835 0.11444
# Poissons Ratio (y) = -0.03991 0.24842
# Poissons Ratio (z) = 0.07517 0.15683
#
# Static dielectric constant tensor:
#      x y z
#    x 2.686490 0.000000 -0.739760 
#    y 0.000000 2.006600 0.000000 
#    z -0.739760 0.000000 2.827710 
# 
# From -- ./inp_files/124981.got.cif
#   From: 2010.05.17/outbox.cif.g08.bks.cpg/sg15_63_cif.got.tgz:124981.got - 2010.06.03 18:47:42.
