data_PCOD9287506
_publ_section_title
;
Structure prediction by ZEFSAII (Michael W. Deem and Ramdas Pophale) SiO2 
 PCOD9287506
Probable space group: C 2/C
;
_chemical_formula_sum "Si O2"
_cell_formula_units_Z 44
_cell_length_a 5.309022
_cell_length_b 15.909861
_cell_length_c 20.840805
_cell_angle_alpha 90.000000
_cell_angle_beta 103.905860
_cell_angle_gamma 90.000000
_cell_volume 1708.743239
_symmetry_space_group_name_H-M "C 2/C"
_symmetry_group_IT_number 15
_symmetry_cell_setting 'monoclinic'
loop_
_space_group_symop_operation_xyz
x,y,z
-x,y,1/2-z
-x,-y,-z
x,-y,1/2+z
1/2+x,1/2+y,z
1/2-x,1/2+y,1/2-z
1/2-x,1/2-y,-z
1/2+x,1/2-y,1/2+z
loop_
_atom_site_type_symbol
_atom_site_label
_atom_site_fract_x
_atom_site_fract_y
_atom_site_fract_z
Si Si1 0.237364 0.481396 0.446153
Si Si2 0.456544 0.487624 0.823729
Si Si3 0.106678 0.632571 0.106781
Si Si4 0.500000 0.111494 0.250000
Si Si5 0.075946 0.825648 0.324247
Si Si6 0.649941 0.199945 0.903620
O O1 0.500000 0.500000 0.500000
O O2 0.278871 0.487035 0.372751
O O3 0.169186 0.383034 0.448419
O O4 0.050756 0.562025 0.443124
O O5 0.626646 0.413204 0.861868
O O6 0.616049 0.572990 0.820182
O O7 0.254901 0.447367 0.761839
O O8 0.996126 0.648163 0.174418
O O9 0.187608 0.715148 0.070954
O O10 0.343763 0.789995 0.369918
O O11 0.000000 0.791930 0.250000
O O12 0.813770 0.817848 0.348887
#
# Coordination Sequence:
#
# PCOD9287506 Si02
#       6
#     8   8   8   4   8   8
#     4  10  24  47  68  95 134 185 242 303 355 416
#     4  10  22  40  67  95 138 181 231 285 358 430
#     4  11  23  42  67  99 138 182 232 290 362 434
#     4  10  22  36  66 100 136 184 224 278 362 448
#     4  11  23  40  64  99 140 182 221 281 348 429
#     4  11  26  42  66 101 139 179 238 284 356 426
#
# _framework density 25.749917
#
# number of rings (size 3 to 8) (size 9 to 14) (size 15 to 20)
#    0.000    1.455    1.818    2.182   11.455    2.909 
#    0.000    0.909    0.000    0.000    0.000    0.000 
#    0.000    0.000    0.000    0.000    0.000    0.000 
#
# Total GULP energy -122598.826679 kJ/mol
# GULP energy per Si atom -5572.673940 kJ/mol
# Density = 2.569131 g / cm^3
# Si number density = 25.749917 Si / 1000 Ang^3
#
#
#
# Elastic Constant Matrix: (Units=GPa)
#
#
# Indices 1 2 3 4 5 6 
#
# 1 80.2356 11.2234 20.3477 0.0000 10.5357 0.0000
# 2 11.2234 136.3982 52.6252 0.0000 3.7819 0.0000
# 3 20.3477 52.6252 94.4952 0.0000 14.2338 0.0000
# 4 0.0000 0.0000 0.0000 37.0856 0.0000 1.4554
# 5 10.5357 3.7819 14.2338 0.0000 61.2452 0.0000
# 6 0.0000 0.0000 0.0000 1.4554 0.0000 53.8262
#
#
#
# Elastic Compliance Matrix: (Units=1/GPa)
#
#
# Indices 1 2 3 4 5 6 
#
# 1 0.013350 -0.000052 -0.002591 0.000000 -0.001691 0.000000
# 2 -0.000052 0.009363 -0.005303 0.000000 0.000663 0.000000
# 3 -0.002591 -0.005303 0.014485 0.000000 -0.002593 0.000000
# 4 0.000000 0.000000 0.000000 0.026993 0.000000 -0.000730
# 5 -0.001691 0.000663 -0.002593 0.000000 0.017180 0.000000
# 6 0.000000 0.000000 0.000000 -0.000730 0.000000 0.018598
#
#
# Mechanical properties :
#
#
# Convention : Reuss Voigt Hill
#
# Bulk Modulus (GPa) = 46.93673 53.28018 50.10846
# Shear Modulus (GPa) = 40.66242 45.56025 43.11134
#
# Velocity S-wave (km/s) = 3.97814 4.21091 4.09618
# Velocity P-wave (km/s) = 6.27441 6.66173 6.47097
#
# Compressibility (1/GPa) = 0.02130528
#
# Stress axis : x y z
#
# Youngs Moduli (GPa) = 74.90813 106.79776 69.03915
#
# Poissons Ratio (x) = 0.00555 0.17888
# Poissons Ratio (y) = 0.00389 0.36614
# Poissons Ratio (z) = 0.19408 0.56638
#
# Static dielectric constant tensor:
#      x y z
#    x 1.739230 0.000000 -0.119630 
#    y 0.000000 2.283980 0.000000 
#    z -0.119630 0.000000 2.055760 
# 
# From -- ./inp_files/227008.got.cif
#   From: 2010.05.17/outbox.cif.g08.bks.cpg/sg15_114_cif.got.tgz:227008.got - 2010.06.03 18:47:42.
