data_PCOD9287541
_publ_section_title
;
Structure prediction by ZEFSAII (Michael W. Deem and Ramdas Pophale) SiO2 
 PCOD9287541
Probable space group: C 2/C
;
_chemical_formula_sum "Si O2"
_cell_formula_units_Z 52
_cell_length_a 21.168653
_cell_length_b 26.096670
_cell_length_c 17.386579
_cell_angle_alpha 90.000000
_cell_angle_beta 160.625541
_cell_angle_gamma 90.000000
_cell_volume 3186.332744
_symmetry_space_group_name_H-M "C 2/C"
_symmetry_group_IT_number 15
_symmetry_cell_setting 'monoclinic'
loop_
_space_group_symop_operation_xyz
x,y,z
-x,y,1/2-z
-x,-y,-z
x,-y,1/2+z
1/2+x,1/2+y,z
1/2-x,1/2+y,1/2-z
1/2-x,1/2-y,-z
1/2+x,1/2-y,1/2+z
loop_
_atom_site_type_symbol
_atom_site_label
_atom_site_fract_x
_atom_site_fract_y
_atom_site_fract_z
Si Si1 0.286072 0.105144 0.867778
Si Si2 0.000000 0.452788 0.750000
Si Si3 0.041279 0.295737 0.888780
Si Si4 0.300575 0.491741 0.484542
Si Si5 0.383967 0.423238 0.946778
Si Si6 0.872794 0.180847 0.527369
Si Si7 0.980373 0.442201 0.445240
O O1 0.399493 0.092762 0.920497
O O2 0.084762 0.075481 0.633707
O O3 0.398392 0.081150 0.068776
O O4 0.292355 0.165841 0.893416
O O5 0.836873 0.483819 0.608323
O O6 0.073881 0.236315 0.945416
O O7 0.000000 0.297503 0.750000
O O8 0.847348 0.315466 0.702974
O O9 0.354763 0.534420 0.481005
O O10 0.172872 0.447883 0.298126
O O11 0.500000 0.474894 0.750000
O O12 0.197871 0.426287 0.679137
O O13 0.395063 0.368314 0.000523
O O14 0.000000 0.173777 0.750000
O O15 0.000000 0.500000 0.500000
#
# Coordination Sequence:
#
# PCOD9287541 Si02
#       7
#     8   4   8   8   8   8   8
#     4  12  21  33  53  72 103 142 175 206 251 292
#     4  12  20  32  52  74 100 136 178 208 242 304
#     4  11  20  31  45  71 101 136 178 209 237 289
#     4  11  22  36  53  74  99 133 173 211 256 300
#     4  11  21  34  51  71 102 139 170 210 248 295
#     4  11  20  31  45  70 102 136 175 211 241 284
#     4  10  22  37  50  73 103 132 172 213 255 297
#
# _framework density 16.319700999999998
#
# number of rings (size 3 to 8) (size 9 to 14) (size 15 to 20)
#    0.000    0.923    6.923    4.154    0.000    3.692 
#    0.000    0.000    0.000    0.000    0.000    0.000 
#    0.000    1.231    0.000    0.154    0.000    0.000 
#
# Total GULP energy -145055.511833 kJ/mol
# GULP energy per Si atom -5579.058147 kJ/mol
# Density = 1.628256 g / cm^3
# Si number density = 16.319701 Si / 1000 Ang^3
#
#
#
# Elastic Constant Matrix: (Units=GPa)
#
#
# Indices 1 2 3 4 5 6 
#
# 1 13.7894 -1.6995 12.7252 0.0002 -4.4394 0.0000
# 2 -1.6995 53.1608 20.6316 0.0001 -17.0654 0.0000
# 3 12.7252 20.6316 136.0066 0.0005 -3.5071 -0.0002
# 4 0.0002 0.0001 0.0005 22.2378 0.0002 6.3653
# 5 -4.4394 -17.0654 -3.5071 0.0002 28.5407 -0.0001
# 6 0.0000 0.0000 -0.0002 6.3653 -0.0001 18.3121
#
#
#
# Elastic Compliance Matrix: (Units=1/GPa)
#
#
# Indices 1 2 3 4 5 6 
#
# 1 0.090022 0.013405 -0.009920 -0.000001 0.020799 0.000000
# 2 0.013405 0.026734 -0.004859 0.000000 0.017473 0.000000
# 3 -0.009920 -0.004859 0.008931 0.000000 -0.003351 0.000000
# 4 -0.000001 0.000000 0.000000 0.049937 -0.000001 -0.017358
# 5 0.020799 0.017473 -0.003351 -0.000001 0.048309 0.000000
# 6 0.000000 0.000000 0.000000 -0.017358 0.000000 0.060642
#
#
# Mechanical properties :
#
#
# Convention : Reuss Voigt Hill
#
# Bulk Modulus (GPa) = 8.13410 29.58570 18.85990
# Shear Modulus (GPa) = 15.22974 25.23807 20.23391
#
# Velocity S-wave (km/s) = 3.05817 3.93680 3.52496
# Velocity P-wave (km/s) = 4.17910 6.23159 5.30554
#
# Compressibility (1/GPa) = 0.12293930
#
# Stress axis : x y z
#
# Youngs Moduli (GPa) = 11.10838 37.40491 111.96432
#
# Poissons Ratio (x) = -0.50140 1.11067
# Poissons Ratio (y) = -0.14890 0.54405
# Poissons Ratio (z) = 0.11019 0.18175
#
# Static dielectric constant tensor:
#      x y z
#    x 1.544760 0.000000 0.037990 
#    y 0.000000 1.558990 0.000000 
#    z 0.037990 0.000000 1.609870 
# 
# From -- ./inp_files/216826.got.cif
#   From: 2010.05.17/outbox.cif.g08.bks.cpg/sg15_109_cif.got.tgz:216826.got - 2010.06.03 18:47:42.
