data_PCOD9287454
_publ_section_title
;
Structure prediction by ZEFSAII (Michael W. Deem and Ramdas Pophale) SiO2 
 PCOD9287454
Probable space group: C 2/C
;
_chemical_formula_sum "Si O2"
_cell_formula_units_Z 44
_cell_length_a 9.363466
_cell_length_b 16.540777
_cell_length_c 17.986532
_cell_angle_alpha 90.000000
_cell_angle_beta 132.612712
_cell_angle_gamma 90.000000
_cell_volume 2050.153860
_symmetry_space_group_name_H-M "C 2/C"
_symmetry_group_IT_number 15
_symmetry_cell_setting 'monoclinic'
loop_
_space_group_symop_operation_xyz
x,y,z
-x,y,1/2-z
-x,-y,-z
x,-y,1/2+z
1/2+x,1/2+y,z
1/2-x,1/2+y,1/2-z
1/2-x,1/2-y,-z
1/2+x,1/2-y,1/2+z
loop_
_atom_site_type_symbol
_atom_site_label
_atom_site_fract_x
_atom_site_fract_y
_atom_site_fract_z
Si Si1 0.000000 0.374131 0.750000
Si Si2 0.225993 0.989309 0.560127
Si Si3 0.563278 0.137515 0.924645
Si Si4 0.636533 0.288842 0.858679
Si Si5 0.239254 0.629155 0.560556
Si Si6 0.955698 0.744447 0.363344
O O1 0.166648 0.428047 0.846086
O O2 0.093319 0.316280 0.720577
O O3 0.240819 0.949039 0.483660
O O4 0.352240 0.070829 0.600841
O O5 0.000000 0.000000 0.500000
O O6 0.532492 0.224159 0.874893
O O7 0.370258 0.112860 0.901033
O O8 0.735415 0.152824 0.045491
O O9 0.500000 0.331046 0.750000
O O10 0.782125 0.237144 0.857927
O O11 0.441274 0.677053 0.633697
O O12 0.101926 0.692352 0.467006
#
# Coordination Sequence:
#
# PCOD9287454 Si02
#       6
#     4   8   8   8   8   8
#     4  10  24  38  64  92 126 168 212 270 310 384
#     4  11  23  40  65  91 134 172 211 258 329 378
#     4  10  22  39  62  92 127 163 207 263 319 378
#     4  10  22  36  62  91 122 160 208 264 312 376
#     4   9  19  39  62  85 118 165 201 257 315 371
#     4   9  19  37  61  87 117 154 212 250 313 375
#
# _framework density 21.461804000000001
#
# number of rings (size 3 to 8) (size 9 to 14) (size 15 to 20)
#    0.000    2.182    0.000    1.636    6.364    2.909 
#    0.000    0.000    2.000    0.000    0.000    0.000 
#    0.000    0.000    0.000    0.000    0.000    0.000 
#
# Total GULP energy -122830.829064 kJ/mol
# GULP energy per Si atom -5583.219503 kJ/mol
# Density = 2.141296 g / cm^3
# Si number density = 21.461804 Si / 1000 Ang^3
#
#
#
# Elastic Constant Matrix: (Units=GPa)
#
#
# Indices 1 2 3 4 5 6 
#
# 1 103.1064 -0.8571 -6.2535 0.0000 -1.5148 0.0000
# 2 -0.8571 39.9437 1.8994 0.0000 2.2850 0.0000
# 3 -6.2535 1.8994 67.3356 0.0000 -8.3843 0.0000
# 4 0.0000 0.0000 0.0000 17.2558 0.0000 -3.9956
# 5 -1.5148 2.2850 -8.3843 0.0000 19.6871 0.0000
# 6 0.0000 0.0000 0.0000 -3.9956 0.0000 27.5011
#
#
#
# Elastic Compliance Matrix: (Units=1/GPa)
#
#
# Indices 1 2 3 4 5 6 
#
# 1 0.009781 0.000092 0.001054 0.000000 0.001191 0.000000
# 2 0.000092 0.025286 -0.001129 0.000000 -0.003409 0.000000
# 3 0.001054 -0.001129 0.015848 0.000000 0.006961 0.000000
# 4 0.000000 0.000000 0.000000 0.059969 0.000000 0.008713
# 5 0.001191 -0.003409 0.006961 0.000000 0.054247 0.000000
# 6 0.000000 0.000000 0.000000 0.008713 0.000000 0.037628
#
#
# Mechanical properties :
#
#
# Convention : Reuss Voigt Hill
#
# Bulk Modulus (GPa) = 19.62813 22.21815 20.92314
# Shear Modulus (GPa) = 22.75753 27.26192 25.00973
#
# Velocity S-wave (km/s) = 3.25987 3.56793 3.41737
# Velocity P-wave (km/s) = 4.83058 5.22957 5.03403
#
# Compressibility (1/GPa) = 0.05094730
#
# Stress axis : x y z
#
# Youngs Moduli (GPa) = 102.24005 39.54772 63.10135
#
# Poissons Ratio (x) = -0.00362 -0.06651
# Poissons Ratio (y) = -0.00937 0.07125
# Poissons Ratio (z) = -0.10777 0.04466
#
# Static dielectric constant tensor:
#      x y z
#    x 1.794180 0.000000 0.016410 
#    y 0.000000 1.730590 0.000000 
#    z 0.016410 0.000000 1.818190 
# 
# From -- ./inp_files/134270.got.cif
#   From: 2010.05.17/outbox.cif.g08.bks.cpg/sg15_68_cif.got.tgz:134270.got - 2010.06.03 18:47:42.
