data_PCOD9287745
_publ_section_title
;
Structure prediction by ZEFSAII (Michael W. Deem and Ramdas Pophale) SiO2 
 PCOD9287745
Probable space group: C 2/C
;
_chemical_formula_sum "Si O2"
_cell_formula_units_Z 48
_cell_length_a 13.587782
_cell_length_b 18.662691
_cell_length_c 12.409910
_cell_angle_alpha 90.000000
_cell_angle_beta 47.367092
_cell_angle_gamma 90.000000
_cell_volume 2315.245584
_symmetry_space_group_name_H-M "C 2/C"
_symmetry_group_IT_number 15
_symmetry_cell_setting 'monoclinic'
loop_
_space_group_symop_operation_xyz
x,y,z
-x,y,1/2-z
-x,-y,-z
x,-y,1/2+z
1/2+x,1/2+y,z
1/2-x,1/2+y,1/2-z
1/2-x,1/2-y,-z
1/2+x,1/2-y,1/2+z
loop_
_atom_site_type_symbol
_atom_site_label
_atom_site_fract_x
_atom_site_fract_y
_atom_site_fract_z
Si Si1 0.648863 0.403086 0.107124
Si Si2 0.153469 0.927681 0.649056
Si Si3 0.554879 0.206565 0.328732
Si Si4 0.689530 0.804246 0.353444
Si Si5 0.719121 0.926849 0.713672
Si Si6 0.648238 0.087114 0.689757
O O1 0.500000 0.379451 0.250000
O O2 0.657472 0.486149 0.133131
O O3 0.754300 0.357102 0.095417
O O4 0.685801 0.400668 0.954293
O O5 0.209664 0.914116 0.725742
O O6 0.248040 0.898779 0.484372
O O7 0.000000 0.904079 0.750000
O O8 0.500000 0.221311 0.250000
O O9 0.445317 0.228154 0.497611
O O10 0.693649 0.246715 0.247871
O O11 0.586625 0.121792 0.311178
O O12 0.660698 0.851229 0.269643
O O13 0.685336 0.010141 0.716069
O O14 0.500000 0.082790 0.750000
#
# Coordination Sequence:
#
# PCOD9287745 Si02
#       6
#     8   8   8   8   8   8
#     4  10  22  37  66  99 137 175 215 279 338 394
#     4  10  23  40  65 104 137 178 219 270 340 404
#     4  12  26  43  68 103 135 177 225 282 343 397
#     4  12  26  45  66 101 137 176 226 278 343 400
#     4  11  23  42  71 103 138 173 229 283 334 399
#     4  11  25  44  71  99 137 180 226 280 339 399
#
# _framework density 20.732143000000001
#
# number of rings (size 3 to 8) (size 9 to 14) (size 15 to 20)
#    0.000    1.000    3.333    2.500    7.000    3.333 
#    0.000    4.167    0.000    0.000    0.000    0.000 
#    0.000    0.000    0.000    0.000    0.000    0.000 
#
# Total GULP energy -134289.198347 kJ/mol
# GULP energy per Si atom -5595.383264 kJ/mol
# Density = 2.068496 g / cm^3
# Si number density = 20.732143 Si / 1000 Ang^3
#
#
#
# Elastic Constant Matrix: (Units=GPa)
#
#
# Indices 1 2 3 4 5 6 
#
# 1 128.7905 40.9726 82.4067 0.0000 12.7191 0.0000
# 2 40.9726 37.2658 35.2377 0.0001 6.3991 0.0000
# 3 82.4067 35.2377 168.8797 0.0001 -11.0167 0.0000
# 4 0.0000 0.0001 0.0001 12.8441 -0.0001 -0.7635
# 5 12.7191 6.3991 -11.0167 -0.0001 43.3464 0.0000
# 6 0.0000 0.0000 0.0000 -0.7635 0.0000 26.9970
#
#
#
# Elastic Compliance Matrix: (Units=1/GPa)
#
#
# Indices 1 2 3 4 5 6 
#
# 1 0.015024 -0.010724 -0.005367 0.000000 -0.004189 0.000000
# 2 -0.010724 0.043194 -0.004058 0.000000 -0.004261 0.000000
# 3 -0.005367 -0.004058 0.009689 0.000000 0.004636 0.000000
# 4 0.000000 0.000000 0.000000 0.077988 0.000000 0.002206
# 5 -0.004189 -0.004261 0.004636 0.000000 0.026107 0.000000
# 6 0.000000 0.000000 0.000000 0.002206 0.000000 0.037104
#
#
# Mechanical properties :
#
#
# Convention : Reuss Voigt Hill
#
# Bulk Modulus (GPa) = 36.21910 72.46334 54.34122
# Shear Modulus (GPa) = 19.33450 28.39211 23.86330
#
# Velocity S-wave (km/s) = 3.05714 3.70465 3.39636
# Velocity P-wave (km/s) = 5.47443 7.30256 6.45356
#
# Compressibility (1/GPa) = 0.02760974
#
# Stress axis : x y z
#
# Youngs Moduli (GPa) = 66.56054 23.15148 103.20812
#
# Poissons Ratio (x) = 0.24829 0.55388
# Poissons Ratio (y) = 0.71382 0.41877
# Poissons Ratio (z) = 0.35721 0.09394
#
# Static dielectric constant tensor:
#      x y z
#    x 1.706890 0.000000 -0.020070 
#    y 0.000000 1.744880 0.000000 
#    z -0.020070 0.000000 1.748810 
# 
# From -- ./inp_files/89398.got.cif
#   From: 2010.05.17/outbox.cif.g08.bks.cpg/sg15_45_cif.got.tgz:89398.got - 2010.06.03 18:47:42.
