data_PCOD9287370
_publ_section_title
;
Structure prediction by ZEFSAII (Michael W. Deem and Ramdas Pophale) SiO2 
 PCOD9287370
Probable space group: C 2/C
;
_chemical_formula_sum "Si O2"
_cell_formula_units_Z 56
_cell_length_a 11.877852
_cell_length_b 23.320135
_cell_length_c 10.863062
_cell_angle_alpha 90.000000
_cell_angle_beta 62.349297
_cell_angle_gamma 90.000000
_cell_volume 2665.345987
_symmetry_space_group_name_H-M "C 2/C"
_symmetry_group_IT_number 15
_symmetry_cell_setting 'monoclinic'
loop_
_space_group_symop_operation_xyz
x,y,z
-x,y,1/2-z
-x,-y,-z
x,-y,1/2+z
1/2+x,1/2+y,z
1/2-x,1/2+y,1/2-z
1/2-x,1/2-y,-z
1/2+x,1/2-y,1/2+z
loop_
_atom_site_type_symbol
_atom_site_label
_atom_site_fract_x
_atom_site_fract_y
_atom_site_fract_z
Si Si1 0.578710 0.057822 0.945928
Si Si2 0.681517 0.829360 0.989300
Si Si3 0.721289 0.446414 0.949485
Si Si4 0.549394 0.279462 0.590444
Si Si5 0.258109 0.075330 0.862045
Si Si6 0.095515 0.364368 0.799033
Si Si7 0.509929 0.639617 0.890666
O O1 0.620518 0.070828 0.787563
O O2 0.709443 0.050619 0.954521
O O3 0.497968 0.106536 0.054402
O O4 0.500000 0.000000 0.000000
O O5 0.560690 0.789530 0.081762
O O6 0.694254 0.893047 0.038349
O O7 0.805815 0.801095 0.984842
O O8 0.687361 0.827415 0.837868
O O9 0.706016 0.511449 0.912456
O O10 0.821217 0.412606 0.811244
O O11 0.594817 0.409037 0.025865
O O12 0.500000 0.297891 0.750000
O O13 0.488409 0.308555 0.500227
O O14 0.147312 0.112097 0.852443
O O15 0.000000 0.335591 0.750000
O O16 0.500000 0.654808 0.750000
#
# Coordination Sequence:
#
# PCOD9287370 Si02
#       7
#     8   8   8   8   8   8   8
#     4  11  21  36  57  90 131 169 209 253 321 393
#     4  10  23  41  64  91 124 164 221 271 329 397
#     4  11  22  39  61  93 134 169 210 266 329 405
#     4  10  23  44  66  91 122 169 224 282 333 385
#     4  11  23  38  64  94 129 175 214 264 330 408
#     4  10  22  36  58  90 124 163 203 259 322 397
#     4  11  23  43  66  93 130 173 226 278 331 396
#
# _framework density 21.010404999999999
#
# number of rings (size 3 to 8) (size 9 to 14) (size 15 to 20)
#    0.000    1.429    2.857    2.143    2.000    1.714 
#    0.000    0.714    0.000    6.000    0.000    0.000 
#    0.000    0.000    0.000    0.000    0.000    0.000 
#
# Total GULP energy -156164.932163 kJ/mol
# GULP energy per Si atom -5577.319006 kJ/mol
# Density = 2.096258 g / cm^3
# Si number density = 21.010405 Si / 1000 Ang^3
#
#
#
# Elastic Constant Matrix: (Units=GPa)
#
#
# Indices 1 2 3 4 5 6 
#
# 1 95.4772 24.9517 32.9534 0.0000 23.5773 0.0000
# 2 24.9517 67.6299 35.8766 0.0000 5.8270 0.0000
# 3 32.9534 35.8766 110.3694 0.0000 14.5879 0.0000
# 4 0.0000 0.0000 0.0000 23.4198 0.0000 3.0996
# 5 23.5773 5.8270 14.5879 0.0000 43.5684 0.0000
# 6 0.0000 0.0000 0.0000 3.0996 0.0000 -20.6086
#
#
#
# Elastic Compliance Matrix: (Units=1/GPa)
#
#
# Indices 1 2 3 4 5 6 
#
# 1 0.013626 -0.003347 -0.002161 0.000000 -0.006203 0.000000
# 2 -0.003347 0.018698 -0.005219 0.000000 0.001058 0.000000
# 3 -0.002161 -0.005219 0.011672 0.000000 -0.002041 0.000000
# 4 0.000000 0.000000 0.000000 0.041865 0.000000 0.006297
# 5 -0.006203 0.001058 -0.002041 0.000000 0.026851 0.000000
# 6 0.000000 0.000000 0.000000 0.006297 0.000000 -0.047576
#
#
# Mechanical properties :
#
#
# Convention : Reuss Voigt Hill
#
# Bulk Modulus (GPa) = 44.35755 51.22667 47.79211
# Shear Modulus (GPa) = 53.13379 21.25558 37.19469
#
# Velocity S-wave (km/s) = 5.03430 3.18413 4.21206
# Velocity P-wave (km/s) = 7.41284 6.16058 6.81553
#
# Compressibility (1/GPa) = 0.02254408
#
# Stress axis : x y z
#
# Youngs Moduli (GPa) = 73.39080 53.48067 85.67731
#
# Poissons Ratio (x) = 0.17897 0.18512
# Poissons Ratio (y) = 0.24560 0.44712
# Poissons Ratio (z) = 0.15857 0.27910
#
# Static dielectric constant tensor:
#      x y z
#    x 1.794310 0.000000 0.029310 
#    y 0.000000 1.815450 0.000000 
#    z 0.029310 0.000000 1.763980 
# 
# From -- ./inp_files/34161.got.cif
#   From: 2010.05.17/outbox.cif.g08.bks.cpg/sg15_18_cif.got.tgz:34161.got - 2010.06.03 18:47:42.
