data_PCOD9287280
_publ_section_title
;
Structure prediction by ZEFSAII (Michael W. Deem and Ramdas Pophale) SiO2 
 PCOD9287280
Probable space group: C 2/C
;
_chemical_formula_sum "Si O2"
_cell_formula_units_Z 48
_cell_length_a 19.789559
_cell_length_b 8.064935
_cell_length_c 16.574777
_cell_angle_alpha 90.000000
_cell_angle_beta 110.065179
_cell_angle_gamma 90.000000
_cell_volume 2484.793836
_symmetry_space_group_name_H-M "C 2/C"
_symmetry_group_IT_number 15
_symmetry_cell_setting 'monoclinic'
loop_
_space_group_symop_operation_xyz
x,y,z
-x,y,1/2-z
-x,-y,-z
x,-y,1/2+z
1/2+x,1/2+y,z
1/2-x,1/2+y,1/2-z
1/2-x,1/2-y,-z
1/2+x,1/2-y,1/2+z
loop_
_atom_site_type_symbol
_atom_site_label
_atom_site_fract_x
_atom_site_fract_y
_atom_site_fract_z
Si Si1 0.670869 0.320825 0.460517
Si Si2 0.713269 0.674382 0.406335
Si Si3 0.083112 0.735284 0.277306
Si Si4 0.701636 0.073302 0.211571
Si Si5 0.078495 0.863280 0.755423
Si Si6 0.335997 0.297688 0.858375
O O1 0.750000 0.250000 0.500000
O O2 0.685085 0.497420 0.426135
O O3 0.622235 0.215381 0.379750
O O4 0.644190 0.326095 0.541047
O O5 0.750000 0.750000 0.500000
O O6 0.771144 0.668405 0.357620
O O7 0.639745 0.733649 0.332287
O O8 0.132338 0.648442 0.228998
O O9 0.000000 0.681000 0.250000
O O10 0.082951 0.935473 0.263546
O O11 0.769322 0.087413 0.301071
O O12 0.689794 0.888400 0.173312
O O13 0.096266 0.828515 0.670415
O O14 0.000000 0.811329 0.750000
#
# Coordination Sequence:
#
# PCOD9287280 Si02
#       6
#     8   8   8   8   8   8
#     4  11  20  39  60  87 119 150 196 246 295 344
#     4  10  22  35  59  89 112 149 198 247 286 349
#     4  10  22  42  61  84 120 158 192 244 300 350
#     4  11  21  37  58  88 114 155 198 235 297 347
#     4   9  21  41  59  84 119 154 196 238 298 351
#     4  11  22  36  63  88 116 158 196 243 293 348
#
# _framework density 19.317499000000002
#
# number of rings (size 3 to 8) (size 9 to 14) (size 15 to 20)
#    0.000    1.667    3.333    2.000    7.000    0.667 
#    3.000    3.333    0.000    0.000    0.000    0.000 
#    0.000    0.000    0.000    0.000    0.000    0.000 
#
# Total GULP energy -133782.623921 kJ/mol
# GULP energy per Si atom -5574.275997 kJ/mol
# Density = 1.927353 g / cm^3
# Si number density = 19.317499 Si / 1000 Ang^3
#
#
#
# Elastic Constant Matrix: (Units=GPa)
#
#
# Indices 1 2 3 4 5 6 
#
# 1 167.1724 17.5204 77.9277 0.0000 -23.1322 0.0000
# 2 17.5204 23.3414 11.3044 0.0000 1.5165 0.0000
# 3 77.9277 11.3044 153.1234 0.0000 -23.8437 0.0000
# 4 0.0000 0.0000 0.0000 22.1478 0.0000 1.8503
# 5 -23.1322 1.5165 -23.8437 0.0000 28.0155 0.0000
# 6 0.0000 0.0000 0.0000 1.8503 0.0000 19.2406
#
#
#
# Elastic Compliance Matrix: (Units=1/GPa)
#
#
# Indices 1 2 3 4 5 6 
#
# 1 0.008728 -0.005241 -0.003330 0.000000 0.004656 0.000000
# 2 -0.005241 0.048468 -0.002298 0.000000 -0.008907 0.000000
# 3 -0.003330 -0.002298 0.009206 0.000000 0.005210 0.000000
# 4 0.000000 0.000000 0.000000 0.045517 0.000000 -0.004377
# 5 0.004656 -0.008907 0.005210 0.000000 0.044456 0.000000
# 6 0.000000 0.000000 0.000000 -0.004377 0.000000 0.052394
#
#
# Mechanical properties :
#
#
# Convention : Reuss Voigt Hill
#
# Bulk Modulus (GPa) = 22.38911 61.90467 42.14689
# Shear Modulus (GPa) = 20.37542 29.67308 25.02425
#
# Velocity S-wave (km/s) = 3.25124 3.92353 3.60310
# Velocity P-wave (km/s) = 5.07043 7.25541 6.25900
#
# Compressibility (1/GPa) = 0.04466456
#
# Stress axis : x y z
#
# Youngs Moduli (GPa) = 114.57985 20.63229 108.62230
#
# Poissons Ratio (x) = 0.10813 0.36168
# Poissons Ratio (y) = 0.60051 0.24960
# Poissons Ratio (z) = 0.38151 0.04741
#
# Static dielectric constant tensor:
#      x y z
#    x 1.636140 0.000000 0.047620 
#    y 0.000000 1.701460 0.000000 
#    z 0.047620 0.000000 1.636590 
# 
# From -- ./inp_files/166133.got.cif
#   From: 2010.05.17/outbox.cif.g08.bks.cpg/sg15_84_cif.got.tgz:166133.got - 2010.06.03 18:47:42.
