data_PCOD9287782
_publ_section_title
;
Structure prediction by ZEFSAII (Michael W. Deem and Ramdas Pophale) SiO2 
 PCOD9287782
Probable space group: C 2/C
;
_chemical_formula_sum "Si O2"
_cell_formula_units_Z 44
_cell_length_a 18.951714
_cell_length_b 19.041353
_cell_length_c 5.196966
_cell_angle_alpha 90.000000
_cell_angle_beta 105.731529
_cell_angle_gamma 90.000000
_cell_volume 1805.161969
_symmetry_space_group_name_H-M "C 2/C"
_symmetry_group_IT_number 15
_symmetry_cell_setting 'monoclinic'
loop_
_space_group_symop_operation_xyz
x,y,z
-x,y,1/2-z
-x,-y,-z
x,-y,1/2+z
1/2+x,1/2+y,z
1/2-x,1/2+y,1/2-z
1/2-x,1/2-y,-z
1/2+x,1/2-y,1/2+z
loop_
_atom_site_type_symbol
_atom_site_label
_atom_site_fract_x
_atom_site_fract_y
_atom_site_fract_z
Si Si1 0.918886 0.469358 0.905298
Si Si2 0.602261 0.813363 0.656775
Si Si3 0.157015 0.045840 0.779596
Si Si4 0.265434 0.325088 0.881627
Si Si5 0.000000 0.890259 0.250000
Si Si6 0.412865 0.720661 0.344848
O O1 0.879798 0.495935 0.123261
O O2 0.935074 0.387766 0.895763
O O3 0.000000 0.500000 0.000000
O O4 0.686108 0.837888 0.686693
O O5 0.591374 0.776149 0.921421
O O6 0.576289 0.760729 0.410349
O O7 0.205383 0.114685 0.897140
O O8 0.170938 0.988406 0.016974
O O9 0.070576 0.067308 0.718091
O O10 0.250000 0.250000 0.000000
O O11 0.331861 0.313796 0.750652
O O12 0.033082 0.840160 0.505612
#
# Coordination Sequence:
#
# PCOD9287782 Si02
#       6
#     8   8   8   8   4   8
#     4  10  22  38  55  79 117 160 200 248 307 372
#     4  11  22  39  62  89 122 161 209 266 320 379
#     4  11  25  43  67  97 133 174 216 266 327 391
#     4   9  22  43  67  95 128 165 214 268 321 381
#     4  10  24  42  64  94 132 168 214 264 320 386
#     4  10  23  39  63  92 119 160 209 264 321 378
#
# _framework density 24.374545000000001
#
# number of rings (size 3 to 8) (size 9 to 14) (size 15 to 20)
#    0.000    1.818    0.000    2.182    0.000   19.636 
#    0.000    0.000    0.000    0.000    0.000    0.000 
#    0.000    0.000    0.000    0.000    0.000    0.000 
#
# Total GULP energy -123118.229853 kJ/mol
# GULP energy per Si atom -5596.283175 kJ/mol
# Density = 2.431907 g / cm^3
# Si number density = 24.374545 Si / 1000 Ang^3
#
#
#
# Elastic Constant Matrix: (Units=GPa)
#
#
# Indices 1 2 3 4 5 6 
#
# 1 77.3272 23.5699 9.5396 0.0000 28.1888 0.0000
# 2 23.5699 104.5985 12.3588 0.0000 3.0703 0.0000
# 3 9.5396 12.3588 113.5331 0.0000 -21.5999 0.0000
# 4 0.0000 0.0000 0.0000 32.8422 0.0000 12.6725
# 5 28.1888 3.0703 -21.5999 0.0000 29.2965 0.0000
# 6 0.0000 0.0000 0.0000 12.6725 0.0000 71.1720
#
#
#
# Elastic Compliance Matrix: (Units=1/GPa)
#
#
# Indices 1 2 3 4 5 6 
#
# 1 0.026141 -0.004116 -0.007504 0.000000 -0.030254 0.000000
# 2 -0.004116 0.010444 -0.000286 0.000000 0.002655 0.000000
# 3 -0.007504 -0.000286 0.012619 0.000000 0.016555 0.000000
# 4 0.000000 0.000000 0.000000 0.032695 0.000000 -0.005822
# 5 -0.030254 0.002655 0.016555 0.000000 0.075171 0.000000
# 6 0.000000 0.000000 0.000000 -0.005822 0.000000 0.015087
#
#
# Mechanical properties :
#
#
# Convention : Reuss Voigt Hill
#
# Bulk Modulus (GPa) = 39.38284 42.93282 41.15783
# Shear Modulus (GPa) = 24.45779 43.32818 33.89298
#
# Velocity S-wave (km/s) = 3.17111 4.22073 3.73300
# Velocity P-wave (km/s) = 5.44062 6.43466 5.95840
#
# Compressibility (1/GPa) = 0.02539177
#
# Stress axis : x y z
#
# Youngs Moduli (GPa) = 38.25368 95.75171 79.24420
#
# Poissons Ratio (x) = 0.39410 0.59468
# Poissons Ratio (y) = 0.15745 0.02266
# Poissons Ratio (z) = 0.28707 0.02738
#
# Static dielectric constant tensor:
#      x y z
#    x 2.105290 0.000000 0.023410 
#    y 0.000000 1.967350 0.000000 
#    z 0.023410 0.000000 1.900280 
# 
# From -- ./inp_files/12942.got.cif
#   From: 2010.05.17/outbox.cif.g08.bks.cpg/sg15_7_cif.got.tgz:12942.got - 2010.06.03 18:47:42.
