data_PCOD9287859
_publ_section_title
;
Structure prediction by ZEFSAII (Michael W. Deem and Ramdas Pophale) SiO2 
 PCOD9287859
Probable space group: C 2/C
;
_chemical_formula_sum "Si O2"
_cell_formula_units_Z 40
_cell_length_a 19.424433
_cell_length_b 8.340335
_cell_length_c 19.591156
_cell_angle_alpha 90.000000
_cell_angle_beta 151.667456
_cell_angle_gamma 90.000000
_cell_volume 1506.291010
_symmetry_space_group_name_H-M "C 2/C"
_symmetry_group_IT_number 15
_symmetry_cell_setting 'monoclinic'
loop_
_space_group_symop_operation_xyz
x,y,z
-x,y,1/2-z
-x,-y,-z
x,-y,1/2+z
1/2+x,1/2+y,z
1/2-x,1/2+y,1/2-z
1/2-x,1/2-y,-z
1/2+x,1/2-y,1/2+z
loop_
_atom_site_type_symbol
_atom_site_label
_atom_site_fract_x
_atom_site_fract_y
_atom_site_fract_z
Si Si1 0.383269 0.146258 0.588060
Si Si2 0.558160 0.203336 0.377909
Si Si3 0.012402 0.041148 0.342654
Si Si4 0.953785 0.720576 0.429721
Si Si5 0.252272 0.938073 0.298051
O O1 0.500000 0.121885 0.750000
O O2 0.250000 0.250000 0.500000
O O3 0.449677 0.281888 0.595763
O O4 0.355117 0.963607 0.541520
O O5 0.500000 0.215945 0.250000
O O6 0.616156 0.384690 0.443934
O O7 0.442170 0.182840 0.337488
O O8 0.860067 0.990873 0.241443
O O9 0.000000 0.057661 0.250000
O O10 0.863822 0.883817 0.360719
O O11 0.860238 0.584883 0.383246
O O12 0.126203 0.704500 0.591638
#
# Coordination Sequence:
#
# PCOD9287859 Si02
#       5
#     8   8   8   8   8
#     4  10  22  38  58  92 124 165 209 257 325 383
#     4   9  20  41  62  95 126 168 212 266 317 391
#     4   9  20  40  63  89 128 167 207 266 319 379
#     4  10  23  43  68  92 135 170 219 269 329 396
#     4  10  23  44  65  97 128 177 215 269 334 388
#
# _framework density 26.555292000000001
#
# number of rings (size 3 to 8) (size 9 to 14) (size 15 to 20)
#    0.000    2.400    0.000    0.000    8.400    1.600 
#   32.400    0.000    0.000    0.000    0.000    0.000 
#    0.000    0.000    0.000    0.000    0.000    0.000 
#
# Total GULP energy -111342.789795 kJ/mol
# GULP energy per Si atom -5567.139490 kJ/mol
# Density = 2.649485 g / cm^3
# Si number density = 26.555292 Si / 1000 Ang^3
#
#
#
# Elastic Constant Matrix: (Units=GPa)
#
#
# Indices 1 2 3 4 5 6 
#
# 1 61.3729 8.4734 16.1361 0.0000 31.1987 0.0000
# 2 8.4734 143.0269 -0.7462 0.0000 15.0380 0.0000
# 3 16.1361 -0.7462 94.7221 -0.0001 31.1044 0.0000
# 4 0.0000 0.0000 -0.0001 27.3589 0.0000 3.0356
# 5 31.1987 15.0380 31.1044 0.0000 44.1818 0.0000
# 6 0.0000 0.0000 0.0000 3.0356 0.0000 29.3666
#
#
#
# Elastic Compliance Matrix: (Units=1/GPa)
#
#
# Indices 1 2 3 4 5 6 
#
# 1 0.025768 0.000578 0.002152 0.000000 -0.019908 0.000000
# 2 0.000578 0.007358 0.001191 0.000000 -0.003751 0.000000
# 3 0.002152 0.001191 0.014089 0.000000 -0.011844 0.000000
# 4 0.000000 0.000000 0.000000 0.036975 0.000000 -0.003822
# 5 -0.019908 -0.003751 -0.011844 0.000000 0.046307 0.000000
# 6 0.000000 0.000000 0.000000 -0.003822 0.000000 0.034447
#
#
# Mechanical properties :
#
#
# Convention : Reuss Voigt Hill
#
# Bulk Modulus (GPa) = 18.16254 38.53870 28.35062
# Shear Modulus (GPa) = 28.49722 38.53202 33.51462
#
# Velocity S-wave (km/s) = 3.27942 3.81335 3.55642
# Velocity P-wave (km/s) = 4.60367 5.82520 5.25008
#
# Compressibility (1/GPa) = 0.05505839
#
# Stress axis : x y z
#
# Youngs Moduli (GPa) = 38.80718 135.90505 70.97569
#
# Poissons Ratio (x) = -0.07852 -0.15275
# Poissons Ratio (y) = -0.02242 -0.08456
# Poissons Ratio (z) = -0.08352 -0.16191
#
# Static dielectric constant tensor:
#      x y z
#    x 2.131040 0.000000 -0.065500 
#    y 0.000000 2.300780 0.000000 
#    z -0.065500 0.000000 1.891260 
# 
# From -- ./inp_files/115900.got.cif
#   From: 2010.05.17/outbox.cif.g08.bks.cpg/sg15_58_cif.got.tgz:115900.got - 2010.06.03 18:47:42.
