data_PCOD9287402
_publ_section_title
;
Structure prediction by ZEFSAII (Michael W. Deem and Ramdas Pophale) SiO2 
 PCOD9287402
Probable space group: C 2/C
;
_chemical_formula_sum "Si O2"
_cell_formula_units_Z 56
_cell_length_a 21.947571
_cell_length_b 14.527980
_cell_length_c 22.994326
_cell_angle_alpha 90.000000
_cell_angle_beta 157.305420
_cell_angle_gamma 90.000000
_cell_volume 2828.757601
_symmetry_space_group_name_H-M "C 2/C"
_symmetry_group_IT_number 15
_symmetry_cell_setting 'monoclinic'
loop_
_space_group_symop_operation_xyz
x,y,z
-x,y,1/2-z
-x,-y,-z
x,-y,1/2+z
1/2+x,1/2+y,z
1/2-x,1/2+y,1/2-z
1/2-x,1/2-y,-z
1/2+x,1/2-y,1/2+z
loop_
_atom_site_type_symbol
_atom_site_label
_atom_site_fract_x
_atom_site_fract_y
_atom_site_fract_z
Si Si1 0.814042 0.736960 0.822493
Si Si2 0.639732 0.652831 0.332688
Si Si3 0.853863 0.838452 0.077632
Si Si4 0.936698 0.932064 0.548453
Si Si5 0.875462 0.265734 0.951542
Si Si6 0.815028 0.471776 0.081221
Si Si7 0.000323 0.861925 0.421179
O O1 0.722752 0.792084 0.691814
O O2 0.680934 0.671260 0.732389
O O3 0.893822 0.802421 0.940646
O O4 0.954344 0.688055 0.909011
O O5 0.500000 0.696445 0.250000
O O6 0.553684 0.595558 0.205146
O O7 0.768904 0.714960 0.413815
O O8 0.737491 0.590073 0.462900
O O9 0.930126 0.837880 0.080863
O O10 0.000000 0.848790 0.250000
O O11 0.750000 0.750000 0.000000
O O12 0.737245 0.924883 0.979210
O O13 0.916000 0.843117 0.489914
O O14 0.769782 0.948666 0.432844
O O15 0.987050 0.027290 0.562762
O O16 0.000000 0.460013 0.250000
#
# Coordination Sequence:
#
# PCOD9287402 Si02
#       7
#     8   8   8   8   8   8   8
#     4  10  23  39  64  87 125 163 217 258 307 382
#     4  10  22  41  64  93 131 165 208 266 325 379
#     4  11  21  38  67  95 129 170 211 267 329 388
#     4  10  22  41  66  87 125 172 209 260 324 384
#     4  11  22  42  63  91 124 169 219 262 315 384
#     4  10  22  36  59  99 128 162 208 262 324 391
#     4  10  22  43  64  91 126 169 209 262 319 376
#
# _framework density 19.796676999999999
#
# number of rings (size 3 to 8) (size 9 to 14) (size 15 to 20)
#    0.000    1.714    1.429    3.429    2.000    6.286 
#    0.000    3.571    3.143    0.000    0.000    0.000 
#    0.000    0.000    0.000    0.000    0.000    0.000 
#
# Total GULP energy -156220.017760 kJ/mol
# GULP energy per Si atom -5579.286349 kJ/mol
# Density = 1.975162 g / cm^3
# Si number density = 19.796677 Si / 1000 Ang^3
#
#
#
# Elastic Constant Matrix: (Units=GPa)
#
#
# Indices 1 2 3 4 5 6 
#
# 1 115.5806 61.6083 42.6305 0.0001 16.9698 -0.0002
# 2 61.6083 97.6958 32.7550 -0.0007 14.6997 -0.0007
# 3 42.6305 32.7550 122.0299 -0.0012 18.8221 -0.0010
# 4 0.0001 -0.0007 -0.0012 13.6698 -0.0007 2.8020
# 5 16.9698 14.6997 18.8221 -0.0007 45.7209 -0.0004
# 6 -0.0002 -0.0007 -0.0010 2.8020 -0.0004 26.8359
#
#
#
# Elastic Compliance Matrix: (Units=1/GPa)
#
#
# Indices 1 2 3 4 5 6 
#
# 1 0.013929 -0.007680 -0.002550 -0.000001 -0.001651 0.000000
# 2 -0.007680 0.015765 -0.001288 0.000001 -0.001688 0.000000
# 3 -0.002550 -0.001288 0.009847 0.000001 -0.002693 0.000000
# 4 -0.000001 0.000001 0.000001 0.074754 0.000001 -0.007805
# 5 -0.001651 -0.001688 -0.002693 0.000001 0.024136 0.000000
# 6 0.000000 0.000000 0.000000 -0.007805 0.000000 0.038078
#
#
# Mechanical properties :
#
#
# Convention : Reuss Voigt Hill
#
# Bulk Modulus (GPa) = 60.59251 67.69930 64.14591
# Shear Modulus (GPa) = 24.38471 30.46614 27.42542
#
# Velocity S-wave (km/s) = 3.51345 3.92720 3.72607
# Velocity P-wave (km/s) = 6.86534 7.40510 7.14032
#
# Compressibility (1/GPa) = 0.01650369
#
# Stress axis : x y z
#
# Youngs Moduli (GPa) = 71.79432 63.43150 101.55777
#
# Poissons Ratio (x) = 0.48718 0.25895
# Poissons Ratio (y) = 0.55141 0.13083
# Poissons Ratio (z) = 0.18306 0.08171
#
# Static dielectric constant tensor:
#      x y z
#    x 1.727970 0.000000 0.017610 
#    y 0.000000 1.697400 0.000000 
#    z 0.017610 0.000000 1.702140 
# 
# From -- ./inp_files/282115.got.cif
#   From: 2010.05.17/outbox.cif.g08.bks.cpg/sg15_142_cif.got.tgz:282115.got - 2010.06.03 18:47:42.
