data_PCOD9287622
_publ_section_title
;
Structure prediction by ZEFSAII (Michael W. Deem and Ramdas Pophale) SiO2 
 PCOD9287622
Probable space group: C 2/C
;
_chemical_formula_sum "Si O2"
_cell_formula_units_Z 56
_cell_length_a 11.993082
_cell_length_b 27.060724
_cell_length_c 10.095550
_cell_angle_alpha 90.000000
_cell_angle_beta 118.846237
_cell_angle_gamma 90.000000
_cell_volume 2869.878193
_symmetry_space_group_name_H-M "C 2/C"
_symmetry_group_IT_number 15
_symmetry_cell_setting 'monoclinic'
loop_
_space_group_symop_operation_xyz
x,y,z
-x,y,1/2-z
-x,-y,-z
x,-y,1/2+z
1/2+x,1/2+y,z
1/2-x,1/2+y,1/2-z
1/2-x,1/2-y,-z
1/2+x,1/2-y,1/2+z
loop_
_atom_site_type_symbol
_atom_site_label
_atom_site_fract_x
_atom_site_fract_y
_atom_site_fract_z
Si Si1 0.178278 0.096214 0.940292
Si Si2 0.991160 0.752261 0.978747
Si Si3 0.642540 0.381937 0.891126
Si Si4 0.093676 0.007915 0.426934
Si Si5 0.256185 0.292894 0.703665
Si Si6 0.628951 0.822744 0.894989
Si Si7 0.055738 0.145952 0.610384
O O1 0.124321 0.118622 0.770815
O O2 0.070338 0.113159 0.983467
O O3 0.188519 0.038102 0.964435
O O4 0.302657 0.126940 0.032581
O O5 0.900209 0.770369 0.804164
O O6 0.908433 0.709642 0.000512
O O7 0.139368 0.733067 0.054751
O O8 0.005824 0.798183 0.090879
O O9 0.500000 0.380868 0.750000
O O10 0.661551 0.439146 0.945311
O O11 0.728298 0.348837 0.843315
O O12 0.641127 0.353524 0.029727
O O13 0.000000 0.002267 0.250000
O O14 0.000000 0.000000 0.500000
O O15 0.209505 0.294005 0.829662
O O16 0.500000 0.835252 0.750000
#
# Coordination Sequence:
#
# PCOD9287622 Si02
#       7
#     8   8   8   8   8   8   8
#     4  11  20  36  59  93 119 147 208 258 314 357
#     4  11  22  38  59  90 125 166 213 249 309 361
#     4  11  21  38  57  88 128 155 200 252 320 374
#     4  11  21  36  61  93 121 158 197 263 319 370
#     4  11  23  37  60  91 123 170 203 258 308 369
#     4  10  22  37  60  89 119 164 212 253 297 368
#     4  11  21  34  58  89 120 155 193 255 307 362
#
# _framework density 19.513024000000001
#
# number of rings (size 3 to 8) (size 9 to 14) (size 15 to 20)
#    0.000    1.143    5.714    1.286    8.000    0.571 
#    0.000    0.000    0.000    6.000    3.714    0.000 
#    0.000    0.000    0.000    0.000    0.000    0.000 
#
# Total GULP energy -155881.465243 kJ/mol
# GULP energy per Si atom -5567.195187 kJ/mol
# Density = 1.946861 g / cm^3
# Si number density = 19.513024 Si / 1000 Ang^3
#
#
#
# Elastic Constant Matrix: (Units=GPa)
#
#
# Indices 1 2 3 4 5 6 
#
# 1 65.0879 37.0927 36.0481 0.0000 5.8839 0.0000
# 2 37.0927 134.2405 19.9195 0.0000 23.6949 0.0000
# 3 36.0481 19.9195 65.7964 0.0000 5.9439 0.0000
# 4 0.0000 0.0000 0.0000 19.5220 0.0000 -0.7486
# 5 5.8839 23.6949 5.9439 0.0000 30.3651 0.0000
# 6 0.0000 0.0000 0.0000 -0.7486 0.0000 26.9584
#
#
#
# Elastic Compliance Matrix: (Units=1/GPa)
#
#
# Indices 1 2 3 4 5 6 
#
# 1 0.025086 -0.005425 -0.012262 0.000000 0.001773 0.000000
# 2 -0.005425 0.010091 0.000543 0.000000 -0.006929 0.000000
# 3 -0.012262 0.000543 0.021964 0.000000 -0.002347 0.000000
# 4 0.000000 0.000000 0.000000 0.051279 0.000000 0.001424
# 5 0.001773 -0.006929 -0.002347 0.000000 0.038456 0.000000
# 6 0.000000 0.000000 0.000000 0.001424 0.000000 0.037134
#
#
# Mechanical properties :
#
#
# Convention : Reuss Voigt Hill
#
# Bulk Modulus (GPa) = 43.75645 50.13838 46.94741
# Shear Modulus (GPa) = 22.13224 26.84008 24.48616
#
# Velocity S-wave (km/s) = 3.37149 3.71279 3.54625
# Velocity P-wave (km/s) = 6.13423 6.64307 6.39371
#
# Compressibility (1/GPa) = 0.02285378
#
# Stress axis : x y z
#
# Youngs Moduli (GPa) = 39.86222 99.09971 45.52922
#
# Poissons Ratio (x) = 0.53763 0.55827
# Poissons Ratio (y) = 0.21626 -0.02474
# Poissons Ratio (z) = 0.48879 -0.05384
#
# Static dielectric constant tensor:
#      x y z
#    x 1.773930 0.000000 0.003770 
#    y 0.000000 1.746920 0.000000 
#    z 0.003770 0.000000 1.767430 
# 
# From -- ./inp_files/90924.got.cif
#   From: 2010.05.17/outbox.cif.g08.bks.cpg/sg15_46_cif.got.tgz:90924.got - 2010.06.03 18:47:42.
