data_PCOD9287356
_publ_section_title
;
Structure prediction by ZEFSAII (Michael W. Deem and Ramdas Pophale) SiO2 
 PCOD9287356
Probable space group: C 2/C
;
_chemical_formula_sum "Si O2"
_cell_formula_units_Z 48
_cell_length_a 12.136508
_cell_length_b 20.543365
_cell_length_c 10.575833
_cell_angle_alpha 90.000000
_cell_angle_beta 54.726762
_cell_angle_gamma 90.000000
_cell_volume 2152.716557
_symmetry_space_group_name_H-M "C 2/C"
_symmetry_group_IT_number 15
_symmetry_cell_setting 'monoclinic'
loop_
_space_group_symop_operation_xyz
x,y,z
-x,y,1/2-z
-x,-y,-z
x,-y,1/2+z
1/2+x,1/2+y,z
1/2-x,1/2+y,1/2-z
1/2-x,1/2-y,-z
1/2+x,1/2-y,1/2+z
loop_
_atom_site_type_symbol
_atom_site_label
_atom_site_fract_x
_atom_site_fract_y
_atom_site_fract_z
Si Si1 0.766262 0.061381 0.455686
Si Si2 0.676386 0.826701 0.311437
Si Si3 0.000000 0.026856 0.750000
Si Si4 0.500000 0.080569 0.750000
Si Si5 0.557364 0.390162 0.439146
Si Si6 0.642444 0.195578 0.110286
Si Si7 0.310544 0.326395 0.734488
O O1 0.613122 0.042721 0.592509
O O2 0.853135 0.066340 0.526528
O O3 0.766549 0.131771 0.385311
O O4 0.863797 0.014048 0.311283
O O5 0.589703 0.872315 0.278108
O O6 0.833009 0.846373 0.204356
O O7 0.622131 0.838432 0.489131
O O8 0.676126 0.751697 0.264653
O O9 0.975878 0.070763 0.888381
O O10 0.456628 0.350378 0.593422
O O11 0.500000 0.223054 0.250000
O O12 0.707982 0.159454 0.186233
O O13 0.750000 0.250000 0.000000
#
# Coordination Sequence:
#
# PCOD9287356 Si02
#       7
#     8   8   4   4   8   8   8
#     4  11  24  43  67 103 130 179 234 282 340 397
#     4  10  24  39  66  98 144 176 221 274 356 412
#     4  12  24  47  74  90 137 178 250 284 320 400
#     4  10  24  41  66  96 143 170 220 286 354 402
#     4  11  24  42  68 103 131 184 228 285 334 406
#     4  10  22  36  57  88 132 178 218 261 326 404
#     4  11  23  38  70  98 139 172 231 278 344 405
#
# _framework density 22.297408999999998
#
# number of rings (size 3 to 8) (size 9 to 14) (size 15 to 20)
#    0.000    1.333    1.667    2.500   14.000    1.333 
#    0.000    3.333    7.333    0.000    0.000    0.000 
#    0.000    0.000    0.000    0.000    0.000    0.000 
#
# Total GULP energy -134027.025568 kJ/mol
# GULP energy per Si atom -5584.459399 kJ/mol
# Density = 2.224666 g / cm^3
# Si number density = 22.297409 Si / 1000 Ang^3
#
#
#
# Elastic Constant Matrix: (Units=GPa)
#
#
# Indices 1 2 3 4 5 6 
#
# 1 78.7224 -0.9022 17.6424 0.0000 -4.7061 0.0000
# 2 -0.9022 34.8900 7.3387 0.0000 -13.0735 0.0000
# 3 17.6424 7.3387 122.6612 0.0000 -36.4992 0.0000
# 4 0.0000 0.0000 0.0000 15.1621 0.0000 6.6165
# 5 -4.7061 -13.0735 -36.4992 0.0000 56.3180 0.0000
# 6 0.0000 0.0000 0.0000 6.6165 0.0000 14.1422
#
#
#
# Elastic Compliance Matrix: (Units=1/GPa)
#
#
# Indices 1 2 3 4 5 6 
#
# 1 0.013145 0.000754 -0.001929 0.000000 0.000024 0.000000
# 2 0.000754 0.031448 0.000249 0.000000 0.007525 0.000000
# 3 -0.001929 0.000249 0.010388 0.000000 0.006629 0.000000
# 4 0.000000 0.000000 0.000000 0.082874 0.000000 -0.038773
# 5 0.000024 0.007525 0.006629 0.000000 0.023801 0.000000
# 6 0.000000 0.000000 0.000000 -0.038773 0.000000 0.088850
#
#
# Mechanical properties :
#
#
# Convention : Reuss Voigt Hill
#
# Bulk Modulus (GPa) = 18.82171 31.60351 25.21261
# Shear Modulus (GPa) = 18.51394 31.27077 24.89235
#
# Velocity S-wave (km/s) = 2.88465 3.74898 3.34485
# Velocity P-wave (km/s) = 4.42204 5.73970 5.12341
#
# Compressibility (1/GPa) = 0.05313013
#
# Stress axis : x y z
#
# Youngs Moduli (GPa) = 76.07355 31.79835 96.26952
#
# Poissons Ratio (x) = -0.02399 0.18569
# Poissons Ratio (y) = -0.05739 -0.02397
# Poissons Ratio (z) = 0.14673 -0.00792
#
# Static dielectric constant tensor:
#      x y z
#    x 1.840530 0.000000 0.027770 
#    y 0.000000 1.853060 0.000000 
#    z 0.027770 0.000000 1.881390 
# 
# From -- ./inp_files/89430.got.cif
#   From: 2010.05.17/outbox.cif.g08.bks.cpg/sg15_45_cif.got.tgz:89430.got - 2010.06.03 18:47:42.
