data_PCOD9287349
_publ_section_title
;
Structure prediction by ZEFSAII (Michael W. Deem and Ramdas Pophale) SiO2 
 PCOD9287349
Probable space group: C 2/C
;
_chemical_formula_sum "Si O2"
_cell_formula_units_Z 52
_cell_length_a 5.585571
_cell_length_b 22.011349
_cell_length_c 19.767665
_cell_angle_alpha 90.000000
_cell_angle_beta 95.101885
_cell_angle_gamma 90.000000
_cell_volume 2420.725682
_symmetry_space_group_name_H-M "C 2/C"
_symmetry_group_IT_number 15
_symmetry_cell_setting 'monoclinic'
loop_
_space_group_symop_operation_xyz
x,y,z
-x,y,1/2-z
-x,-y,-z
x,-y,1/2+z
1/2+x,1/2+y,z
1/2-x,1/2+y,1/2-z
1/2-x,1/2-y,-z
1/2+x,1/2-y,1/2+z
loop_
_atom_site_type_symbol
_atom_site_label
_atom_site_fract_x
_atom_site_fract_y
_atom_site_fract_z
Si Si1 0.591372 0.139099 0.635719
Si Si2 0.940236 0.599674 0.063778
Si Si3 0.500000 0.515546 0.750000
Si Si4 0.886103 0.877374 0.340642
Si Si5 0.501113 0.213524 0.496759
Si Si6 0.425741 0.430110 0.494071
Si Si7 0.926359 0.503698 0.326642
O O1 0.358518 0.159601 0.671707
O O2 0.543213 0.168227 0.561539
O O3 0.859582 0.154215 0.666330
O O4 0.582241 0.064389 0.641158
O O5 0.940736 0.552937 0.125777
O O6 0.165799 0.574904 0.023764
O O7 0.013527 0.670422 0.069660
O O8 0.663964 0.601225 0.031119
O O9 0.642381 0.564557 0.708071
O O10 0.354066 0.478946 0.690788
O O11 0.904788 0.902937 0.417926
O O12 0.750000 0.250000 0.500000
O O13 0.250000 0.250000 0.500000
O O14 0.500000 0.500000 0.500000
O O15 0.000000 0.506731 0.250000
#
# Coordination Sequence:
#
# PCOD9287349 Si02
#       7
#     8   8   4   8   8   8   8
#     4  11  21  39  63  95 132 168 213 278 335 402
#     4  12  26  40  66  99 135 175 218 281 346 404
#     4  10  22  36  56  98 140 180 206 246 330 436
#     4  11  19  35  57  89 135 168 210 254 326 403
#     4  12  25  45  67  95 132 179 234 283 328 383
#     4  12  21  36  59  98 135 171 205 268 350 419
#     4  11  24  41  65 102 140 171 215 270 355 427
#
# _framework density 21.481161
#
# number of rings (size 3 to 8) (size 9 to 14) (size 15 to 20)
#    0.000    0.615    4.615    5.077    2.154    0.000 
#    0.000    0.000    0.000    1.846    0.000    0.000 
#    0.000    0.000    0.000    0.000    0.000    0.000 
#
# Total GULP energy -144773.470422 kJ/mol
# GULP energy per Si atom -5568.210401 kJ/mol
# Density = 2.143227 g / cm^3
# Si number density = 21.481161 Si / 1000 Ang^3
#
#
#
# Elastic Constant Matrix: (Units=GPa)
#
#
# Indices 1 2 3 4 5 6 
#
# 1 168.6622 25.1290 32.1875 0.0000 1.3063 0.0000
# 2 25.1290 82.8455 26.5168 0.0000 0.9460 0.0000
# 3 32.1875 26.5168 96.2201 0.0000 3.4635 0.0000
# 4 0.0000 0.0000 0.0000 16.2560 0.0000 -0.9376
# 5 1.3063 0.9460 3.4635 0.0000 35.0930 0.0000
# 6 0.0000 0.0000 0.0000 -0.9376 0.0000 26.7458
#
#
#
# Elastic Compliance Matrix: (Units=1/GPa)
#
#
# Indices 1 2 3 4 5 6 
#
# 1 0.006477 -0.001394 -0.001781 0.000000 -0.000028 0.000000
# 2 -0.001394 0.013538 -0.003265 0.000000 0.000009 0.000000
# 3 -0.001781 -0.003265 0.011925 0.000000 -0.001023 0.000000
# 4 0.000000 0.000000 0.000000 0.061640 0.000000 0.002161
# 5 -0.000028 0.000009 -0.001023 0.000000 0.028597 0.000000
# 6 0.000000 0.000000 0.000000 0.002161 0.000000 0.037465
#
#
# Mechanical properties :
#
#
# Convention : Reuss Voigt Hill
#
# Bulk Modulus (GPa) = 52.46681 57.26606 54.86644
# Shear Modulus (GPa) = 27.95207 33.21192 30.58200
#
# Velocity S-wave (km/s) = 3.61118 3.93631 3.77724
# Velocity P-wave (km/s) = 6.47032 6.88302 6.67986
#
# Compressibility (1/GPa) = 0.01905967
#
# Stress axis : x y z
#
# Youngs Moduli (GPa) = 154.39471 73.86368 83.85491
#
# Poissons Ratio (x) = 0.10297 0.14938
# Poissons Ratio (y) = 0.21524 0.27378
# Poissons Ratio (z) = 0.27505 0.24116
#
# Static dielectric constant tensor:
#      x y z
#    x 2.162670 0.000000 -0.042710 
#    y 0.000000 1.782480 0.000000 
#    z -0.042710 0.000000 1.912060 
# 
# From -- ./inp_files/227558.got.cif
#   From: 2010.05.17/outbox.cif.g08.bks.cpg/sg15_114_cif.got.tgz:227558.got - 2010.06.03 18:47:42.
