data_PCOD9287389
_publ_section_title
;
Structure prediction by ZEFSAII (Michael W. Deem and Ramdas Pophale) SiO2 
 PCOD9287389
Probable space group: C 2/C
;
_chemical_formula_sum "Si O2"
_cell_formula_units_Z 40
_cell_length_a 15.952833
_cell_length_b 11.406641
_cell_length_c 14.272492
_cell_angle_alpha 90.000000
_cell_angle_beta 145.837827
_cell_angle_gamma 90.000000
_cell_volume 1458.390887
_symmetry_space_group_name_H-M "C 2/C"
_symmetry_group_IT_number 15
_symmetry_cell_setting 'monoclinic'
loop_
_space_group_symop_operation_xyz
x,y,z
-x,y,1/2-z
-x,-y,-z
x,-y,1/2+z
1/2+x,1/2+y,z
1/2-x,1/2+y,1/2-z
1/2-x,1/2-y,-z
1/2+x,1/2-y,1/2+z
loop_
_atom_site_type_symbol
_atom_site_label
_atom_site_fract_x
_atom_site_fract_y
_atom_site_fract_z
Si Si1 0.713770 0.463082 0.568202
Si Si2 0.695375 0.651658 0.777740
Si Si3 0.500000 0.932781 0.250000
Si Si4 0.709808 0.599556 0.397930
Si Si5 0.914587 0.183657 0.397089
Si Si6 0.000000 0.202900 0.750000
O O1 0.887044 0.486326 0.705651
O O2 0.651752 0.575860 0.450012
O O3 0.682789 0.423239 0.645191
O O4 0.608511 0.367701 0.419830
O O5 0.706422 0.529921 0.844779
O O6 0.851913 0.697860 0.885436
O O7 0.581150 0.657427 0.585056
O O8 0.622203 0.742947 0.786105
O O9 0.617032 0.867400 0.425001
O O10 0.629075 0.683584 0.251606
#
# Coordination Sequence:
#
# PCOD9287389 Si02
#       6
#     8   8   4   8   8   4
#     4   8  18  33  54  83 108 147 178 231 284 326
#     4  10  22  36  59  87 114 149 185 236 291 335
#     4   8  18  35  58  80 113 146 188 233 276 336
#     4   9  20  39  57  83 118 147 191 230 282 340
#     4  11  22  36  61  84 118 148 187 235 283 340
#     4   8  16  33  52  82 119 134 178 235 292 338
#
# _framework density 27.427489999999999
#
# number of rings (size 3 to 8) (size 9 to 14) (size 15 to 20)
#    1.200    1.600    0.000    0.600    2.800    8.800 
#    0.000    0.000    0.000    4.800    0.000    0.000 
#    0.000    0.000    0.000    0.000    0.000    0.000 
#
# Total GULP energy -111383.867244 kJ/mol
# GULP energy per Si atom -5569.193362 kJ/mol
# Density = 2.736506 g / cm^3
# Si number density = 27.427490 Si / 1000 Ang^3
#
#
#
# Elastic Constant Matrix: (Units=GPa)
#
#
# Indices 1 2 3 4 5 6 
#
# 1 57.4760 11.6490 40.9756 0.0000 -23.3720 0.0000
# 2 11.6490 65.1728 9.3558 0.0000 3.8199 0.0000
# 3 40.9756 9.3558 172.4563 0.0000 -0.0576 0.0000
# 4 0.0000 0.0000 0.0000 16.2570 0.0000 -0.2826
# 5 -23.3720 3.8199 -0.0576 0.0000 50.8497 0.0000
# 6 0.0000 0.0000 0.0000 -0.2826 0.0000 30.3895
#
#
#
# Elastic Compliance Matrix: (Units=1/GPa)
#
#
# Indices 1 2 3 4 5 6 
#
# 1 0.028516 -0.004953 -0.006502 0.000000 0.013472 0.000000
# 2 -0.004953 0.016394 0.000286 0.000000 -0.003508 0.000000
# 3 -0.006502 0.000286 0.007327 0.000000 -0.003002 0.000000
# 4 0.000000 0.000000 0.000000 0.061522 0.000000 0.000572
# 5 0.013472 -0.003508 -0.003002 0.000000 0.026118 0.000000
# 6 0.000000 0.000000 0.000000 0.000572 0.000000 0.032911
#
#
# Mechanical properties :
#
#
# Convention : Reuss Voigt Hill
#
# Bulk Modulus (GPa) = 33.44638 46.56289 40.00463
# Shear Modulus (GPa) = 24.37930 35.04088 29.71009
#
# Velocity S-wave (km/s) = 2.98462 3.57821 3.29481
# Velocity P-wave (km/s) = 4.90899 5.83824 5.39366
#
# Compressibility (1/GPa) = 0.02989860
#
# Stress axis : x y z
#
# Youngs Moduli (GPa) = 35.06802 60.99923 136.48241
#
# Poissons Ratio (x) = 0.30214 0.88743
# Poissons Ratio (y) = 0.17370 -0.03908
# Poissons Ratio (z) = 0.22802 -0.01747
#
# Static dielectric constant tensor:
#      x y z
#    x 2.296960 0.000000 0.016550 
#    y 0.000000 2.321790 0.000000 
#    z 0.016550 0.000000 2.105240 
# 
# From -- ./inp_files/154192.got.cif
#   From: 2010.05.17/outbox.cif.g08.bks.cpg/sg15_78_cif.got.tgz:154192.got - 2010.06.03 18:47:42.
