data_PCOD9287754
_publ_section_title
;
Structure prediction by ZEFSAII (Michael W. Deem and Ramdas Pophale) SiO2 
 PCOD9287754
Probable space group: C 2/C
;
_chemical_formula_sum "Si O2"
_cell_formula_units_Z 48
_cell_length_a 21.681359
_cell_length_b 26.731564
_cell_length_c 9.304764
_cell_angle_alpha 90.000000
_cell_angle_beta 25.218343
_cell_angle_gamma 90.000000
_cell_volume 2297.714760
_symmetry_space_group_name_H-M "C 2/C"
_symmetry_group_IT_number 15
_symmetry_cell_setting 'monoclinic'
loop_
_space_group_symop_operation_xyz
x,y,z
-x,y,1/2-z
-x,-y,-z
x,-y,1/2+z
1/2+x,1/2+y,z
1/2-x,1/2+y,1/2-z
1/2-x,1/2-y,-z
1/2+x,1/2-y,1/2+z
loop_
_atom_site_type_symbol
_atom_site_label
_atom_site_fract_x
_atom_site_fract_y
_atom_site_fract_z
Si Si1 0.748691 0.421701 0.576344
Si Si2 0.653679 0.972939 0.679940
Si Si3 0.000000 0.424536 0.250000
Si Si4 0.500000 0.802649 0.750000
Si Si5 0.000000 0.856152 0.250000
Si Si6 0.000000 0.171803 0.250000
Si Si7 0.274511 0.111263 0.696225
Si Si8 0.593135 0.273813 0.280149
O O1 0.738980 0.482705 0.594993
O O2 0.900033 0.402532 0.332622
O O3 0.756295 0.411540 0.391002
O O4 0.615265 0.391406 0.925000
O O5 0.662135 0.928421 0.548423
O O6 0.635377 0.951486 0.879806
O O7 0.500000 0.000000 0.000000
O O8 0.633309 0.839331 0.475635
O O9 0.491882 0.768744 0.626784
O O10 0.910814 0.820370 0.325770
O O11 0.872331 0.133641 0.553281
O O12 0.999502 0.207516 0.388974
O O13 0.750000 0.250000 0.000000
#
# Coordination Sequence:
#
# PCOD9287754 Si02
#       8
#     8   8   4   4   4   4   8   8
#     4  11  23  42  66 100 145 183 230 293 336 413
#     4  10  22  43  67 101 146 189 235 281 339 418
#     4  10  22  37  67  97 136 189 230 270 336 408
#     4  11  24  43  78  99 135 184 232 298 362 414
#     4  11  26  43  70 105 138 177 245 287 354 424
#     4  12  26  47  71 103 139 180 237 301 362 426
#     4  12  25  44  71 105 142 186 241 288 350 423
#     4  11  25  48  71 100 138 179 232 304 361 429
#
# _framework density 20.890321
#
# number of rings (size 3 to 8) (size 9 to 14) (size 15 to 20)
#    0.000    1.000    3.333    4.000    2.333    4.667 
#    0.000    3.333    0.000    0.000    0.000    0.000 
#    0.000    0.000    0.000    0.000    0.000    0.000 
#
# Total GULP energy -133622.181051 kJ/mol
# GULP energy per Si atom -5567.590877 kJ/mol
# Density = 2.084277 g / cm^3
# Si number density = 20.890321 Si / 1000 Ang^3
#
#
#
# Elastic Constant Matrix: (Units=GPa)
#
#
# Indices 1 2 3 4 5 6 
#
# 1 89.9004 65.5678 36.4718 0.0058 34.3542 0.0000
# 2 65.5678 130.5500 66.9455 0.0010 16.6000 0.0004
# 3 36.4718 66.9455 99.9742 0.0079 20.4048 -0.0019
# 4 0.0058 0.0010 0.0079 6.8928 -0.0050 -4.2626
# 5 34.3542 16.6000 20.4048 -0.0050 44.2211 0.0008
# 6 0.0000 0.0004 -0.0019 -4.2626 0.0008 27.7799
#
#
#
# Elastic Compliance Matrix: (Units=1/GPa)
#
#
# Indices 1 2 3 4 5 6 
#
# 1 0.024648 -0.011292 0.001780 -0.000036 -0.015731 -0.000005
# 2 -0.011292 0.016868 -0.008472 0.000023 0.006350 0.000002
# 3 0.001780 -0.008472 0.016183 -0.000024 -0.005670 -0.000002
# 4 -0.000036 0.000023 -0.000024 0.160290 0.000048 0.024595
# 5 -0.015731 0.006350 -0.005670 0.000048 0.035068 0.000006
# 6 -0.000005 0.000002 -0.000002 0.024595 0.000006 0.039771
#
#
# Mechanical properties :
#
#
# Convention : Reuss Voigt Hill
#
# Bulk Modulus (GPa) = 46.01386 73.15498 59.58442
# Shear Modulus (GPa) = 14.87915 25.87472 20.37694
#
# Velocity S-wave (km/s) = 2.67170 3.52319 3.12657
# Velocity P-wave (km/s) = 5.62063 7.18645 6.45123
#
# Compressibility (1/GPa) = 0.02173258
#
# Stress axis : x y z
#
# Youngs Moduli (GPa) = 40.57055 59.28308 61.79144
#
# Poissons Ratio (x) = 0.66943 -0.11000
# Poissons Ratio (y) = 0.45812 0.52349
# Poissons Ratio (z) = -0.07222 0.50224
#
# Static dielectric constant tensor:
#      x y z
#    x 1.742410 0.000010 0.044590 
#    y 0.000010 1.870870 0.000010 
#    z 0.044590 0.000010 1.778800 
# 
# From -- ./inp_files/59108.got.cif
#   From: 2010.05.17/outbox.cif.g08.bks.cpg/sg15_30_cif.got.tgz:59108.got - 2010.06.03 18:47:42.
