data_PCOD9287889
_publ_section_title
;
Structure prediction by ZEFSAII (Michael W. Deem and Ramdas Pophale) SiO2 
 PCOD9287889
Probable space group: C 2/C
;
_chemical_formula_sum "Si O2"
_cell_formula_units_Z 64
_cell_length_a 29.654744
_cell_length_b 20.860820
_cell_length_c 14.521363
_cell_angle_alpha 90.000000
_cell_angle_beta 157.909567
_cell_angle_gamma 90.000000
_cell_volume 3378.322515
_symmetry_space_group_name_H-M "C 2/C"
_symmetry_group_IT_number 15
_symmetry_cell_setting 'monoclinic'
loop_
_space_group_symop_operation_xyz
x,y,z
-x,y,1/2-z
-x,-y,-z
x,-y,1/2+z
1/2+x,1/2+y,z
1/2-x,1/2+y,1/2-z
1/2-x,1/2-y,-z
1/2+x,1/2-y,1/2+z
loop_
_atom_site_type_symbol
_atom_site_label
_atom_site_fract_x
_atom_site_fract_y
_atom_site_fract_z
Si Si1 0.119133 0.513111 0.353796
Si Si2 0.248219 0.921343 0.035045
Si Si3 0.411848 0.847324 0.666644
Si Si4 0.573985 0.677612 0.241498
Si Si5 0.827684 0.208512 0.872113
Si Si6 0.597674 0.149375 0.014481
Si Si7 0.560258 0.193170 0.611934
Si Si8 0.344160 0.986975 0.863237
O O1 0.203740 0.467865 0.454029
O O2 0.125387 0.588934 0.347736
O O3 0.151321 0.505010 0.521599
O O4 0.979313 0.494150 0.078022
O O5 0.337069 0.859952 0.206760
O O6 0.261721 0.964484 0.151643
O O7 0.118212 0.888867 0.781655
O O8 0.500000 0.867346 0.750000
O O9 0.297159 0.814789 0.404371
O O10 0.485169 0.803054 0.875740
O O11 0.645086 0.685701 0.472801
O O12 0.600922 0.737457 0.225358
O O13 0.435566 0.683225 0.010820
O O14 0.837269 0.285585 0.892129
O O15 0.681548 0.088540 0.189960
O O16 0.500000 0.132722 0.750000
O O17 0.524566 0.166285 0.967617
#
# Coordination Sequence:
#
# PCOD9287889 Si02
#       8
#     8   8   8   8   8   8   8   8
#     4  11  20  33  56  88 122 151 190 247 305 348
#     4  12  21  35  58  92 124 151 197 250 300 352
#     4  12  23  39  59  89 120 156 200 252 303 350
#     4  10  22  38  59  88 118 164 201 239 295 360
#     4  10  22  41  61  83 122 162 202 240 296 367
#     4  11  18  35  58  86 116 156 196 244 299 344
#     4  11  20  34  59  88 119 150 199 248 293 348
#     4  11  19  33  55  84 124 153 189 244 302 350
#
# _framework density 18.944313000000001
#
# number of rings (size 3 to 8) (size 9 to 14) (size 15 to 20)
#    0.000    1.000    7.500    3.000    0.000    2.000 
#    0.000    0.625    0.000    0.000    3.250    0.000 
#    0.000    0.000    0.000    0.000    0.000    0.000 
#
# Total GULP energy -178735.596629 kJ/mol
# GULP energy per Si atom -5585.487395 kJ/mol
# Density = 1.890119 g / cm^3
# Si number density = 18.944313 Si / 1000 Ang^3
#
#
#
# Elastic Constant Matrix: (Units=GPa)
#
#
# Indices 1 2 3 4 5 6 
#
# 1 62.4631 30.2515 33.3059 0.0000 -5.3506 0.0000
# 2 30.2515 113.2770 40.4295 0.0000 7.0057 0.0000
# 3 33.3059 40.4295 60.5293 0.0000 -6.4154 0.0000
# 4 0.0000 0.0000 0.0000 16.0733 0.0000 -2.9562
# 5 -5.3506 7.0057 -6.4154 0.0000 15.4948 0.0000
# 6 0.0000 0.0000 0.0000 -2.9562 0.0000 28.6466
#
#
#
# Elastic Compliance Matrix: (Units=1/GPa)
#
#
# Indices 1 2 3 4 5 6 
#
# 1 0.023377 -0.002827 -0.010442 0.000000 0.005027 0.000000
# 2 -0.002827 0.013217 -0.008377 0.000000 -0.010421 0.000000
# 3 -0.010442 -0.008377 0.029161 0.000000 0.012255 0.000000
# 4 0.000000 0.000000 0.000000 0.063419 0.000000 0.006544
# 5 0.005027 -0.010421 0.012255 0.000000 0.076059 0.000000
# 6 0.000000 0.000000 0.000000 0.006544 0.000000 0.035584
#
#
# Mechanical properties :
#
#
# Convention : Reuss Voigt Hill
#
# Bulk Modulus (GPa) = 44.51799 49.36035 46.93917
# Shear Modulus (GPa) = 17.14700 20.86177 19.00439
#
# Velocity S-wave (km/s) = 3.01180 3.32206 3.17072
# Velocity P-wave (km/s) = 5.97034 6.38959 6.18352
#
# Compressibility (1/GPa) = 0.02246283
#
# Stress axis : x y z
#
# Youngs Moduli (GPa) = 42.77708 75.65880 34.29274
#
# Poissons Ratio (x) = 0.21390 0.35808
# Poissons Ratio (y) = 0.12094 0.28727
# Poissons Ratio (z) = 0.44667 0.63380
#
# Static dielectric constant tensor:
#      x y z
#    x 1.685940 0.000000 -0.004100 
#    y 0.000000 1.677820 0.000000 
#    z -0.004100 0.000000 1.652520 
# 
# From -- ./inp_files/183165.got.cif
#   From: 2010.05.17/outbox.cif.g08.bks.cpg/sg15_92_cif.got.tgz:183165.got - 2010.06.03 18:47:42.
