data_PCOD9287298
_publ_section_title
;
Structure prediction by ZEFSAII (Michael W. Deem and Ramdas Pophale) SiO2 
 PCOD9287298
Probable space group: C 2/C
;
_chemical_formula_sum "Si O2"
_cell_formula_units_Z 48
_cell_length_a 5.171446
_cell_length_b 18.211817
_cell_length_c 25.984658
_cell_angle_alpha 90.000000
_cell_angle_beta 107.848540
_cell_angle_gamma 90.000000
_cell_volume 2329.485165
_symmetry_space_group_name_H-M "C 2/C"
_symmetry_group_IT_number 15
_symmetry_cell_setting 'monoclinic'
loop_
_space_group_symop_operation_xyz
x,y,z
-x,y,1/2-z
-x,-y,-z
x,-y,1/2+z
1/2+x,1/2+y,z
1/2-x,1/2+y,1/2-z
1/2-x,1/2-y,-z
1/2+x,1/2-y,1/2+z
loop_
_atom_site_type_symbol
_atom_site_label
_atom_site_fract_x
_atom_site_fract_y
_atom_site_fract_z
Si Si1 0.419081 0.782126 0.688912
Si Si2 0.532748 0.968893 0.340640
Si Si3 0.838855 0.298977 0.150819
Si Si4 0.942722 0.603876 0.392021
Si Si5 0.987079 0.041173 0.304111
Si Si6 0.447025 0.770759 0.965655
O O1 0.500000 0.812109 0.750000
O O2 0.651831 0.723482 0.687571
O O3 0.434677 0.843833 0.645259
O O4 0.126587 0.743037 0.670818
O O5 0.615232 0.885530 0.350630
O O6 0.569840 0.022889 0.392440
O O7 0.212230 0.976859 0.310406
O O8 0.710441 0.007876 0.307390
O O9 0.669265 0.272212 0.090862
O O10 0.630062 0.591909 0.355463
O O11 0.954331 0.644857 0.446596
O O12 0.000000 0.080769 0.250000
O O13 0.250000 0.750000 0.000000
O O14 0.750000 0.750000 0.000000
#
# Coordination Sequence:
#
# PCOD9287298 Si02
#       6
#     8   8   8   8   8   8
#     4  11  24  38  63  94 131 171 211 250 315 383
#     4  10  23  39  62  87 132 159 205 254 320 363
#     4  11  24  44  62  94 132 167 207 273 314 376
#     4   9  25  39  64  89 126 156 216 259 311 368
#     4  10  22  35  62  92 126 169 204 247 305 381
#     4  11  24  43  68  90 119 166 218 268 330 375
#
# _framework density 20.605409999999999
#
# number of rings (size 3 to 8) (size 9 to 14) (size 15 to 20)
#    1.000    0.667    0.000    4.000    9.333    4.000 
#    0.000    1.667    0.000    0.000    0.000    0.000 
#    0.000    0.000    0.000    0.000    0.000    0.000 
#
# Total GULP energy -133895.586064 kJ/mol
# GULP energy per Si atom -5578.982753 kJ/mol
# Density = 2.055851 g / cm^3
# Si number density = 20.605410 Si / 1000 Ang^3
#
#
#
# Elastic Constant Matrix: (Units=GPa)
#
#
# Indices 1 2 3 4 5 6 
#
# 1 143.2602 31.0787 23.2833 0.0000 0.7765 0.0000
# 2 31.0787 94.7943 -10.6089 0.0000 0.6496 0.0000
# 3 23.2833 -10.6089 55.2040 0.0000 -1.1456 0.0000
# 4 0.0000 0.0000 0.0000 9.3190 0.0000 -5.8807
# 5 0.7765 0.6496 -1.1456 0.0000 30.6600 0.0000
# 6 0.0000 0.0000 0.0000 -5.8807 0.0000 29.2040
#
#
#
# Elastic Compliance Matrix: (Units=1/GPa)
#
#
# Indices 1 2 3 4 5 6 
#
# 1 0.008349 -0.003199 -0.004142 0.000000 -0.000298 0.000000
# 2 -0.003199 0.012007 0.003656 0.000000 -0.000037 0.000000
# 3 -0.004142 0.003656 0.020581 0.000000 0.000796 0.000000
# 4 0.000000 0.000000 0.000000 0.122929 0.000000 0.024754
# 5 -0.000298 -0.000037 0.000796 0.000000 0.032654 0.000000
# 6 0.000000 0.000000 0.000000 0.024754 0.000000 0.039226
#
#
# Mechanical properties :
#
#
# Convention : Reuss Voigt Hill
#
# Bulk Modulus (GPa) = 29.79136 42.30719 36.04927
# Shear Modulus (GPa) = 19.66140 30.47030 25.06585
#
# Velocity S-wave (km/s) = 3.09234 3.84963 3.49158
# Velocity P-wave (km/s) = 5.21915 6.35107 5.81273
#
# Compressibility (1/GPa) = 0.03356678
#
# Stress axis : x y z
#
# Youngs Moduli (GPa) = 119.77333 83.28263 48.58891
#
# Poissons Ratio (x) = 0.26641 0.20127
# Poissons Ratio (y) = 0.38313 -0.17764
# Poissons Ratio (z) = 0.49614 -0.30447
#
# Static dielectric constant tensor:
#      x y z
#    x 1.760140 0.000000 -0.003050 
#    y 0.000000 1.768280 0.000000 
#    z -0.003050 0.000000 1.750910 
# 
# From -- ./inp_files/285718.got.cif
#   From: 2010.05.17/outbox.cif.g08.bks.cpg/sg15_143_cif.got.tgz:285718.got - 2010.06.03 18:47:42.
