data_PCOD9287093
_publ_section_title
;
Structure prediction by ZEFSAII (Michael W. Deem and Ramdas Pophale) SiO2 
 PCOD9287093
Probable space group: C 2/C
;
_chemical_formula_sum "Si O2"
_cell_formula_units_Z 36
_cell_length_a 14.228115
_cell_length_b 5.756474
_cell_length_c 21.419116
_cell_angle_alpha 90.000000
_cell_angle_beta 123.017507
_cell_angle_gamma 90.000000
_cell_volume 1470.993161
_symmetry_space_group_name_H-M "C 2/C"
_symmetry_group_IT_number 15
_symmetry_cell_setting 'monoclinic'
loop_
_space_group_symop_operation_xyz
x,y,z
-x,y,1/2-z
-x,-y,-z
x,-y,1/2+z
1/2+x,1/2+y,z
1/2-x,1/2+y,1/2-z
1/2-x,1/2-y,-z
1/2+x,1/2-y,1/2+z
loop_
_atom_site_type_symbol
_atom_site_label
_atom_site_fract_x
_atom_site_fract_y
_atom_site_fract_z
Si Si1 0.686531 0.237423 0.219739
Si Si2 0.500000 0.388582 0.250000
Si Si3 0.006872 0.313007 0.056672
Si Si4 0.171627 0.065961 0.584616
Si Si5 0.573454 0.168932 0.836413
O O1 0.740388 0.980784 0.248507
O O2 0.588346 0.281450 0.233611
O O3 0.651910 0.256044 0.134668
O O4 0.425017 0.555198 0.177264
O O5 0.985854 0.382999 0.120022
O O6 0.904235 0.137781 0.001653
O O7 0.122862 0.176284 0.091317
O O8 0.000000 0.500000 0.000000
O O9 0.302773 0.066230 0.618094
O O10 0.500000 0.094445 0.750000
#
# Coordination Sequence:
#
# PCOD9287093 Si02
#       5
#     8   4   8   8   8
#     4  12  26  47  78 117 158 211 267 336 397 473
#     4  10  22  44  76 110 154 196 266 328 396 464
#     4  11  26  45  72 108 155 206 260 325 410 482
#     4  11  24  45  73 103 156 202 260 324 402 473
#     4  10  21  46  74 106 151 198 270 327 394 477
#
# _framework density 24.473261000000001
#
# number of rings (size 3 to 8) (size 9 to 14) (size 15 to 20)
#    0.667    0.444    4.444    0.667    3.111    1.778 
#    6.000    0.000    0.000    0.000    0.000    0.000 
#    0.000    0.000    0.000    0.000    0.000    0.000 
#
# Total GULP energy -100648.745221 kJ/mol
# GULP energy per Si atom -5591.596957 kJ/mol
# Density = 2.441756 g / cm^3
# Si number density = 24.473261 Si / 1000 Ang^3
#
#
#
# Elastic Constant Matrix: (Units=GPa)
#
#
# Indices 1 2 3 4 5 6 
#
# 1 238.8042 82.5789 76.5453 0.0000 -3.6590 0.0000
# 2 82.5789 96.2182 55.6749 0.0000 7.5272 0.0000
# 3 76.5453 55.6749 134.6871 0.0000 -18.7531 0.0000
# 4 0.0000 0.0000 0.0000 58.3782 0.0000 1.0987
# 5 -3.6590 7.5272 -18.7531 0.0000 52.7969 0.0000
# 6 0.0000 0.0000 0.0000 1.0987 0.0000 38.3974
#
#
#
# Elastic Compliance Matrix: (Units=1/GPa)
#
#
# Indices 1 2 3 4 5 6 
#
# 1 0.006267 -0.004462 -0.001650 0.000000 0.000484 0.000000
# 2 -0.004462 0.017764 -0.005474 0.000000 -0.004786 0.000000
# 3 -0.001650 -0.005474 0.011275 0.000000 0.004671 0.000000
# 4 0.000000 0.000000 0.000000 0.017139 0.000000 -0.000490
# 5 0.000484 -0.004786 0.004671 0.000000 0.021316 0.000000
# 6 0.000000 0.000000 0.000000 -0.000490 0.000000 0.026057
#
#
# Mechanical properties :
#
#
# Convention : Reuss Voigt Hill
#
# Bulk Modulus (GPa) = 82.40237 99.92308 91.16273
# Shear Modulus (GPa) = 39.35994 46.90852 43.13423
#
# Velocity S-wave (km/s) = 4.01469 4.38279 4.20277
# Velocity P-wave (km/s) = 7.43194 8.15659 7.80268
#
# Compressibility (1/GPa) = 0.01213557
#
# Stress axis : x y z
#
# Youngs Moduli (GPa) = 159.57704 56.29408 88.69035
#
# Poissons Ratio (x) = 0.25116 0.14631
# Poissons Ratio (y) = 0.71197 0.48547
# Poissons Ratio (z) = 0.26326 0.30814
#
# Static dielectric constant tensor:
#      x y z
#    x 1.870470 0.000000 0.045330 
#    y 0.000000 2.170900 0.000000 
#    z 0.045330 0.000000 2.004540 
# 
# From -- ./inp_files/271777.got.cif
#   From: 2010.05.17/outbox.cif.g08.bks.cpg/sg15_136_cif.got.tgz:271777.got - 2010.06.03 18:47:42.
