data_PCOD9287900
_publ_section_title
;
Structure prediction by ZEFSAII (Michael W. Deem and Ramdas Pophale) SiO2 
 PCOD9287900
Probable space group: C 2/C
;
_chemical_formula_sum "Si O2"
_cell_formula_units_Z 52
_cell_length_a 14.640126
_cell_length_b 24.909050
_cell_length_c 11.373629
_cell_angle_alpha 90.000000
_cell_angle_beta 40.971772
_cell_angle_gamma 90.000000
_cell_volume 2719.554039
_symmetry_space_group_name_H-M "C 2/C"
_symmetry_group_IT_number 15
_symmetry_cell_setting 'monoclinic'
loop_
_space_group_symop_operation_xyz
x,y,z
-x,y,1/2-z
-x,-y,-z
x,-y,1/2+z
1/2+x,1/2+y,z
1/2-x,1/2+y,1/2-z
1/2-x,1/2-y,-z
1/2+x,1/2-y,1/2+z
loop_
_atom_site_type_symbol
_atom_site_label
_atom_site_fract_x
_atom_site_fract_y
_atom_site_fract_z
Si Si1 0.988906 0.396710 0.561554
Si Si2 0.947237 0.863323 0.672302
Si Si3 0.582763 0.782826 0.786107
Si Si4 0.338158 0.256896 0.672268
Si Si5 0.195271 0.577919 0.486849
Si Si6 0.245063 0.644311 0.672651
Si Si7 0.500000 0.984841 0.750000
O O1 0.920474 0.347008 0.697292
O O2 0.907076 0.406480 0.519787
O O3 0.985106 0.447873 0.649580
O O4 0.144396 0.379023 0.371759
O O5 0.852432 0.815241 0.715472
O O6 0.851162 0.915879 0.782346
O O7 0.000000 0.846692 0.750000
O O8 0.092655 0.869293 0.462172
O O9 0.500000 0.767362 0.750000
O O10 0.736505 0.761199 0.658594
O O11 0.490904 0.760681 0.983325
O O12 0.278182 0.208373 0.808068
O O13 0.198547 0.618574 0.594065
O O14 0.134271 0.522790 0.597961
#
# Coordination Sequence:
#
# PCOD9287900 Si02
#       7
#     8   8   8   8   8   8   4
#     4  11  22  40  66  89 124 160 220 262 310 371
#     4  10  22  38  59  92 130 162 200 255 317 379
#     4  11  22  38  59  92 125 172 209 253 304 383
#     4  11  21  37  62  89 131 170 203 250 314 375
#     4  11  22  39  66  89 123 157 210 271 316 364
#     4  10  22  39  61  94 128 164 205 256 313 381
#     4  12  24  42  68  94 116 168 214 276 318 358
#
# _framework density 19.120781999999998
#
# number of rings (size 3 to 8) (size 9 to 14) (size 15 to 20)
#    0.000    1.231    5.385    0.923    0.000    4.923 
#    0.000    0.769    3.385    0.000    0.000    0.000 
#    0.000    0.000    0.000    0.000    0.000    0.000 
#
# Total GULP energy -144996.560589 kJ/mol
# GULP energy per Si atom -5576.790792 kJ/mol
# Density = 1.907726 g / cm^3
# Si number density = 19.120782 Si / 1000 Ang^3
#
#
#
# Elastic Constant Matrix: (Units=GPa)
#
#
# Indices 1 2 3 4 5 6 
#
# 1 83.3209 37.0991 13.9658 0.0000 -12.6571 0.0000
# 2 37.0991 95.0086 35.3312 0.0000 -5.7495 0.0000
# 3 13.9658 35.3312 80.6254 0.0000 -26.0169 0.0000
# 4 0.0000 0.0000 0.0000 15.3110 0.0000 11.5854
# 5 -12.6571 -5.7495 -26.0169 0.0000 24.6087 0.0000
# 6 0.0000 0.0000 0.0000 11.5854 0.0000 28.3098
#
#
#
# Elastic Compliance Matrix: (Units=1/GPa)
#
#
# Indices 1 2 3 4 5 6 
#
# 1 0.016114 -0.007027 0.003692 0.000000 0.010550 0.000000
# 2 -0.007027 0.015958 -0.008711 0.000000 -0.009095 0.000000
# 3 0.003692 -0.008711 0.023582 0.000000 0.024795 0.000000
# 4 0.000000 0.000000 0.000000 0.094609 0.000000 -0.038717
# 5 0.010550 -0.009095 0.024795 0.000000 0.070152 0.000000
# 6 0.000000 0.000000 0.000000 -0.038717 0.000000 0.051168
#
#
# Mechanical properties :
#
#
# Convention : Reuss Voigt Hill
#
# Bulk Modulus (GPa) = 31.68201 47.97191 39.82696
# Shear Modulus (GPa) = 16.32946 25.14979 20.73963
#
# Velocity S-wave (km/s) = 2.92553 3.63066 3.29700
# Velocity P-wave (km/s) = 5.29311 6.53597 5.94710
#
# Compressibility (1/GPa) = 0.03156365
#
# Stress axis : x y z
#
# Youngs Moduli (GPa) = 62.05640 62.66366 42.40559
#
# Poissons Ratio (x) = 0.44034 -0.15658
# Poissons Ratio (y) = 0.43607 0.36939
# Poissons Ratio (z) = -0.22914 0.54585
#
# Static dielectric constant tensor:
#      x y z
#    x 1.659620 0.000000 -0.009600 
#    y 0.000000 1.666000 0.000000 
#    z -0.009600 0.000000 1.718500 
# 
# From -- ./inp_files/42078.got.cif
#   From: 2010.05.17/outbox.cif.g08.bks.cpg/sg15_22_cif.got.tgz:42078.got - 2010.06.03 18:47:42.
