data_PCOD9287854
_publ_section_title
;
Structure prediction by ZEFSAII (Michael W. Deem and Ramdas Pophale) SiO2 
 PCOD9287854
Probable space group: C 2/C
;
_chemical_formula_sum "Si O2"
_cell_formula_units_Z 48
_cell_length_a 21.623191
_cell_length_b 19.732833
_cell_length_c 5.183403
_cell_angle_alpha 90.000000
_cell_angle_beta 63.629509
_cell_angle_gamma 90.000000
_cell_volume 1981.542713
_symmetry_space_group_name_H-M "C 2/C"
_symmetry_group_IT_number 15
_symmetry_cell_setting 'monoclinic'
loop_
_space_group_symop_operation_xyz
x,y,z
-x,y,1/2-z
-x,-y,-z
x,-y,1/2+z
1/2+x,1/2+y,z
1/2-x,1/2+y,1/2-z
1/2-x,1/2-y,-z
1/2+x,1/2-y,1/2+z
loop_
_atom_site_type_symbol
_atom_site_label
_atom_site_fract_x
_atom_site_fract_y
_atom_site_fract_z
Si Si1 0.904013 0.729838 0.479903
Si Si2 0.543638 0.086709 0.928586
Si Si3 0.079761 0.969732 0.580400
Si Si4 0.242945 0.315236 0.196837
Si Si5 0.393738 0.685752 0.525436
Si Si6 0.701201 0.957819 0.059289
O O1 0.941882 0.664156 0.515826
O O2 0.829773 0.697996 0.531012
O O3 0.929627 0.769536 0.180096
O O4 0.898979 0.780916 0.732300
O O5 0.500000 0.087852 0.750000
O O6 0.618299 0.053900 0.740443
O O7 0.500000 0.056771 0.250000
O O8 0.079617 0.890521 0.525544
O O9 0.000000 0.993377 0.750000
O O10 0.113524 0.011761 0.288306
O O11 0.311756 0.319226 0.237313
O O12 0.235437 0.385197 0.054039
O O13 0.250000 0.250000 0.000000
O O14 0.718636 0.011644 0.250035
#
# Coordination Sequence:
#
# PCOD9287854 Si02
#       6
#     8   8   8   8   8   8
#     4  10  22  38  58  90 121 150 199 258 306 359
#     4  11  23  40  62  88 124 166 207 255 311 368
#     4  10  22  39  56  80 116 153 192 243 300 359
#     4   9  22  42  65  91 126 165 204 253 315 372
#     4  11  21  37  63  87 115 158 201 246 308 377
#     4  11  25  42  63  94 129 165 212 266 311 365
#
# _framework density 24.223548999999998
#
# number of rings (size 3 to 8) (size 9 to 14) (size 15 to 20)
#    0.000    1.667    0.000    3.500    0.000   14.667 
#    0.000    0.000    0.000    0.000    0.000    0.000 
#    0.000    0.000    0.000    0.000    0.000    0.000 
#
# Total GULP energy -134354.701429 kJ/mol
# GULP energy per Si atom -5598.112560 kJ/mol
# Density = 2.416841 g / cm^3
# Si number density = 24.223549 Si / 1000 Ang^3
#
#
#
# Elastic Constant Matrix: (Units=GPa)
#
#
# Indices 1 2 3 4 5 6 
#
# 1 74.2161 33.9940 39.4244 0.0000 21.7008 0.0000
# 2 33.9940 83.6857 -2.3188 0.0000 -4.3827 0.0000
# 3 39.4244 -2.3188 77.0403 0.0000 19.8773 0.0000
# 4 0.0000 0.0000 0.0000 -592.0394 0.0000 -555.6448
# 5 21.7008 -4.3827 19.8773 0.0000 26.3070 0.0000
# 6 0.0000 0.0000 0.0000 -555.6448 0.0000 -469.8298
#
#
#
# Elastic Compliance Matrix: (Units=1/GPa)
#
#
# Indices 1 2 3 4 5 6 
#
# 1 0.032213 -0.014464 -0.011728 0.000000 -0.020120 0.000000
# 2 -0.014464 0.018551 0.005073 0.000000 0.011189 0.000000
# 3 -0.011728 0.005073 0.020397 0.000000 -0.004892 0.000000
# 4 0.000000 0.000000 0.000000 0.015362 0.000000 -0.018168
# 5 -0.020120 0.011189 -0.004892 0.000000 0.060170 0.000000
# 6 0.000000 0.000000 0.000000 -0.018168 0.000000 0.019358
#
#
# Mechanical properties :
#
#
# Convention : Reuss Voigt Hill
#
# Bulk Modulus (GPa) = 34.57487 41.90460 38.23973
# Shear Modulus (GPa) = 22.94312 -196.18961 -86.62324
#
# Velocity S-wave (km/s) = 3.08090 -9.00928 -5.98645
# Velocity P-wave (km/s) = 5.19232 9.53342 5.65358
#
# Compressibility (1/GPa) = 0.02892274
#
# Stress axis : x y z
#
# Youngs Moduli (GPa) = 31.04377 53.90446 49.02709
#
# Poissons Ratio (x) = 0.77966 0.57501
# Poissons Ratio (y) = 0.44901 -0.24872
# Poissons Ratio (z) = 0.36410 -0.27347
#
# Static dielectric constant tensor:
#      x y z
#    x 1.986780 0.000000 -0.054770 
#    y 0.000000 1.860430 0.000000 
#    z -0.054770 0.000000 2.004410 
# 
# From -- ./inp_files/15419.got.cif
#   From: 2010.05.17/outbox.cif.g08.bks.cpg/sg15_8_cif.got.tgz:15419.got - 2010.06.03 18:47:42.
