data_PCOD9287240
_publ_section_title
;
Structure prediction by ZEFSAII (Michael W. Deem and Ramdas Pophale) SiO2 
 PCOD9287240
Probable space group: C 2/C
;
_chemical_formula_sum "Si O2"
_cell_formula_units_Z 52
_cell_length_a 9.744059
_cell_length_b 24.706199
_cell_length_c 11.446610
_cell_angle_alpha 90.000000
_cell_angle_beta 127.610505
_cell_angle_gamma 90.000000
_cell_volume 2182.957964
_symmetry_space_group_name_H-M "C 2/C"
_symmetry_group_IT_number 15
_symmetry_cell_setting 'monoclinic'
loop_
_space_group_symop_operation_xyz
x,y,z
-x,y,1/2-z
-x,-y,-z
x,-y,1/2+z
1/2+x,1/2+y,z
1/2-x,1/2+y,1/2-z
1/2-x,1/2-y,-z
1/2+x,1/2-y,1/2+z
loop_
_atom_site_type_symbol
_atom_site_label
_atom_site_fract_x
_atom_site_fract_y
_atom_site_fract_z
Si Si1 0.370373 0.588841 0.023588
Si Si2 0.265114 0.082426 0.159248
Si Si3 0.887057 0.207378 0.020100
Si Si4 0.185032 0.538349 0.730200
Si Si5 0.036431 0.388363 0.971365
Si Si6 0.500000 0.497472 0.250000
Si Si7 0.875447 0.297192 0.297426
O O1 0.559668 0.584903 0.061752
O O2 0.377603 0.538693 0.115073
O O3 0.365434 0.649346 0.069043
O O4 0.215923 0.578794 0.853360
O O5 0.332080 0.100257 0.067624
O O6 0.355004 0.116538 0.309476
O O7 0.328692 0.021455 0.223222
O O8 0.819983 0.199444 0.852724
O O9 0.750000 0.250000 0.000000
O O10 0.069116 0.236720 0.133849
O O11 0.047492 0.561100 0.567103
O O12 0.369680 0.536746 0.759177
O O13 0.085887 0.337448 0.076432
O O14 0.000000 0.310100 0.250000
#
# Coordination Sequence:
#
# PCOD9287240 Si02
#       7
#     8   8   8   8   8   4   8
#     4  11  22  39  64  94 125 167 213 259 320 369
#     4  10  24  39  64  92 134 174 203 257 312 392
#     4  10  23  41  64  94 122 155 207 269 317 370
#     4  11  20  40  60  96 126 167 216 253 312 378
#     4  11  22  43  61  92 134 168 211 260 318 375
#     4  10  22  34  66  94 126 168 206 260 308 386
#     4  10  23  42  67  92 121 159 212 269 318 373
#
# _framework density 23.820889999999999
#
# number of rings (size 3 to 8) (size 9 to 14) (size 15 to 20)
#    0.000    1.538    1.538    4.154    5.385    3.692 
#    5.538    0.769    0.000    0.000    0.000    0.000 
#    0.000    0.000    0.000    0.000    0.000    0.000 
#
# Total GULP energy -145437.926125 kJ/mol
# GULP energy per Si atom -5593.766389 kJ/mol
# Density = 2.376667 g / cm^3
# Si number density = 23.820890 Si / 1000 Ang^3
#
#
#
# Elastic Constant Matrix: (Units=GPa)
#
#
# Indices 1 2 3 4 5 6 
#
# 1 77.5913 2.4875 19.7090 0.0000 -12.8766 0.0000
# 2 2.4875 86.6012 30.5846 0.0000 -20.7745 0.0000
# 3 19.7090 30.5846 163.4405 0.0000 -17.9207 0.0000
# 4 0.0000 0.0000 0.0000 53.8882 0.0000 -0.9697
# 5 -12.8766 -20.7745 -17.9207 0.0000 28.6238 0.0000
# 6 0.0000 0.0000 0.0000 -0.9697 0.0000 10.7039
#
#
#
# Elastic Compliance Matrix: (Units=1/GPa)
#
#
# Indices 1 2 3 4 5 6 
#
# 1 0.014298 0.001688 -0.001289 0.000000 0.006850 0.000000
# 2 0.001688 0.014589 -0.001814 0.000000 0.010212 0.000000
# 3 -0.001289 -0.001814 0.006877 0.000000 0.002410 0.000000
# 4 0.000000 0.000000 0.000000 0.018587 0.000000 0.001684
# 5 0.006850 0.010212 0.002410 0.000000 0.046938 0.000000
# 6 0.000000 0.000000 0.000000 0.001684 0.000000 0.093576
#
#
# Mechanical properties :
#
#
# Convention : Reuss Voigt Hill
#
# Bulk Modulus (GPa) = 30.36317 48.13279 39.24798
# Shear Modulus (GPa) = 23.96077 36.96664 30.46371
#
# Velocity S-wave (km/s) = 3.17499 3.94364 3.58000
# Velocity P-wave (km/s) = 5.12005 6.40206 5.79660
#
# Compressibility (1/GPa) = 0.03293464
#
# Stress axis : x y z
#
# Youngs Moduli (GPa) = 69.93916 68.54460 145.40194
#
# Poissons Ratio (x) = -0.11569 0.18741
# Poissons Ratio (y) = -0.11804 0.26374
# Poissons Ratio (z) = 0.09015 0.12433
#
# Static dielectric constant tensor:
#      x y z
#    x 1.933900 0.000000 0.016430 
#    y 0.000000 1.929570 0.000000 
#    z 0.016430 0.000000 1.965790 
# 
# From -- ./inp_files/91308.got.cif
#   From: 2010.05.17/outbox.cif.g08.bks.cpg/sg15_46_cif.got.tgz:91308.got - 2010.06.03 18:47:42.
