data_PCOD9287368
_publ_section_title
;
Structure prediction by ZEFSAII (Michael W. Deem and Ramdas Pophale) SiO2 
 PCOD9287368
Probable space group: C 2/C
;
_chemical_formula_sum "Si O2"
_cell_formula_units_Z 48
_cell_length_a 5.241964
_cell_length_b 14.082024
_cell_length_c 28.451543
_cell_angle_alpha 90.000000
_cell_angle_beta 106.953535
_cell_angle_gamma 90.000000
_cell_volume 2008.948372
_symmetry_space_group_name_H-M "C 2/C"
_symmetry_group_IT_number 15
_symmetry_cell_setting 'monoclinic'
loop_
_space_group_symop_operation_xyz
x,y,z
-x,y,1/2-z
-x,-y,-z
x,-y,1/2+z
1/2+x,1/2+y,z
1/2-x,1/2+y,1/2-z
1/2-x,1/2-y,-z
1/2+x,1/2-y,1/2+z
loop_
_atom_site_type_symbol
_atom_site_label
_atom_site_fract_x
_atom_site_fract_y
_atom_site_fract_z
Si Si1 0.759691 0.062112 0.467787
Si Si2 0.585617 0.681300 0.428320
Si Si3 0.302479 0.006980 0.194328
Si Si4 0.730836 0.110398 0.160085
Si Si5 0.982051 0.630437 0.533741
Si Si6 0.802611 0.800986 0.283905
O O1 0.720365 0.133951 0.509227
O O2 0.826970 0.117982 0.424495
O O3 0.538019 0.979050 0.451421
O O4 0.000000 0.000000 0.500000
O O5 0.743132 0.645421 0.392162
O O6 0.749977 0.657974 0.484377
O O7 0.516868 0.792283 0.425591
O O8 0.500000 0.015157 0.250000
O O9 0.509567 0.033694 0.163945
O O10 0.035927 0.071894 0.185916
O O11 0.191747 0.899044 0.186302
O O12 0.651370 0.204588 0.185093
O O13 0.500000 0.794183 0.250000
O O14 0.000000 0.808421 0.250000
#
# Coordination Sequence:
#
# PCOD9287368 Si02
#       6
#     8   8   8   8   8   8
#     4   9  18  36  60  85 110 169 214 246 305 373
#     4  10  22  36  58  89 124 160 208 260 316 365
#     4  11  24  45  69  93 129 172 213 261 329 394
#     4  12  25  41  66 104 131 166 213 277 322 380
#     4   9  19  39  60  81 121 171 210 250 310 378
#     4  11  23  43  70  95 126 169 215 256 323 399
#
# _framework density 23.893097999999998
#
# number of rings (size 3 to 8) (size 9 to 14) (size 15 to 20)
#    0.000    1.667    0.000    5.500    2.333    1.333 
#    6.000    0.000    0.000    0.000    0.000    0.000 
#    0.000    0.000    0.000    0.000    0.000    0.000 
#
# Total GULP energy -133936.691841 kJ/mol
# GULP energy per Si atom -5580.695493 kJ/mol
# Density = 2.383872 g / cm^3
# Si number density = 23.893098 Si / 1000 Ang^3
#
#
#
# Elastic Constant Matrix: (Units=GPa)
#
#
# Indices 1 2 3 4 5 6 
#
# 1 125.5387 35.7188 20.3373 0.0000 -40.8331 0.0000
# 2 35.7188 157.3317 35.0199 0.0000 -32.3051 0.0000
# 3 20.3373 35.0199 49.8691 0.0000 -31.7843 0.0000
# 4 0.0000 0.0000 0.0000 12.9005 0.0000 -15.8872
# 5 -40.8331 -32.3051 -31.7843 0.0000 50.7239 0.0000
# 6 0.0000 0.0000 0.0000 -15.8872 0.0000 29.1553
#
#
#
# Elastic Compliance Matrix: (Units=1/GPa)
#
#
# Indices 1 2 3 4 5 6 
#
# 1 0.011040 -0.001049 0.002452 0.000000 0.009756 0.000000
# 2 -0.001049 0.007824 -0.004044 0.000000 0.001604 0.000000
# 3 0.002452 -0.004044 0.035811 0.000000 0.021838 0.000000
# 4 0.000000 0.000000 0.000000 0.235664 0.000000 0.128417
# 5 0.009756 0.001604 0.021838 0.000000 0.042274 0.000000
# 6 0.000000 0.000000 0.000000 0.128417 0.000000 0.104276
#
#
# Mechanical properties :
#
#
# Convention : Reuss Voigt Hill
#
# Bulk Modulus (GPa) = 20.24542 57.21015 38.72779
# Shear Modulus (GPa) = 10.90194 34.66685 22.78440
#
# Velocity S-wave (km/s) = 2.13839 3.81322 3.09139
# Velocity P-wave (km/s) = 3.81951 6.58663 5.38388
#
# Compressibility (1/GPa) = 0.04939388
#
# Stress axis : x y z
#
# Youngs Moduli (GPa) = 90.57878 127.81726 27.92451
#
# Poissons Ratio (x) = 0.13409 -0.06848
# Poissons Ratio (y) = 0.09503 0.11292
# Poissons Ratio (z) = -0.22213 0.51685
#
# Static dielectric constant tensor:
#      x y z
#    x 2.685810 0.000000 0.192050 
#    y 0.000000 1.966180 0.000000 
#    z 0.192050 0.000000 1.937410 
# 
# From -- ./inp_files/285576.got.cif
#   From: 2010.05.17/outbox.cif.g08.bks.cpg/sg15_143_cif.got.tgz:285576.got - 2010.06.03 18:47:42.
