data_PCOD9287063
_publ_section_title
;
Structure prediction by ZEFSAII (Michael W. Deem and Ramdas Pophale) SiO2 
 PCOD9287063
Probable space group: C 2/C
;
_chemical_formula_sum "Si O2"
_cell_formula_units_Z 36
_cell_length_a 7.462016
_cell_length_b 20.926028
_cell_length_c 10.415330
_cell_angle_alpha 90.000000
_cell_angle_beta 71.613797
_cell_angle_gamma 90.000000
_cell_volume 1543.335177
_symmetry_space_group_name_H-M "C 2/C"
_symmetry_group_IT_number 15
_symmetry_cell_setting 'monoclinic'
loop_
_space_group_symop_operation_xyz
x,y,z
-x,y,1/2-z
-x,-y,-z
x,-y,1/2+z
1/2+x,1/2+y,z
1/2-x,1/2+y,1/2-z
1/2-x,1/2-y,-z
1/2+x,1/2-y,1/2+z
loop_
_atom_site_type_symbol
_atom_site_label
_atom_site_fract_x
_atom_site_fract_y
_atom_site_fract_z
Si Si1 0.500000 0.700893 0.250000
Si Si2 0.722490 0.871274 0.993599
Si Si3 0.500000 0.007329 0.250000
Si Si4 0.304204 0.415120 0.263702
Si Si5 0.000000 0.500000 0.500000
Si Si6 0.838363 0.708160 0.591197
O O1 0.604560 0.658056 0.122041
O O2 0.648710 0.747039 0.286957
O O3 0.775329 0.887738 0.128306
O O4 0.549744 0.820324 0.026537
O O5 0.647820 0.937934 0.955599
O O6 0.623242 0.962319 0.323033
O O7 0.376817 0.032979 0.392273
O O8 0.500000 0.448464 0.250000
O O9 0.286887 0.354355 0.358040
O O10 0.750000 0.750000 0.500000
#
# Coordination Sequence:
#
# PCOD9287063 Si02
#       6
#     4   8   4   8   4   8
#     4  12  25  42  66 104 148 177 246 300 342 444
#     4  11  24  48  67 105 146 187 240 299 360 426
#     4  10  21  46  68  98 138 185 238 300 354 430
#     4  11  21  43  71  98 138 194 233 282 375 425
#     4  10  22  46  76  90 142 190 232 302 358 422
#     4  12  24  40  71 101 144 192 229 300 360 427
#
# _framework density 23.326105999999999
#
# number of rings (size 3 to 8) (size 9 to 14) (size 15 to 20)
#    0.000    0.889    6.667    2.000    3.111    1.778 
#    6.000    2.222    0.000    0.000    0.000    0.000 
#    0.000    0.000    0.000    0.000    0.000    0.000 
#
# Total GULP energy -100204.620256 kJ/mol
# GULP energy per Si atom -5566.923348 kJ/mol
# Density = 2.327301 g / cm^3
# Si number density = 23.326106 Si / 1000 Ang^3
#
#
#
# Elastic Constant Matrix: (Units=GPa)
#
#
# Indices 1 2 3 4 5 6 
#
# 1 94.3535 21.6755 3.4622 0.0000 7.3422 0.0000
# 2 21.6755 104.5836 36.2197 0.0000 7.8093 0.0000
# 3 3.4622 36.2197 98.0586 0.0000 15.4113 0.0000
# 4 0.0000 0.0000 0.0000 42.3173 0.0000 9.7727
# 5 7.3422 7.8093 15.4113 0.0000 49.6590 0.0000
# 6 0.0000 0.0000 0.0000 9.7727 0.0000 24.5516
#
#
#
# Elastic Compliance Matrix: (Units=1/GPa)
#
#
# Indices 1 2 3 4 5 6 
#
# 1 0.011258 -0.002483 0.000757 0.000000 -0.001509 0.000000
# 2 -0.002483 0.011523 -0.004144 0.000000 -0.000159 0.000000
# 3 0.000757 -0.004144 0.012213 0.000000 -0.003250 0.000000
# 4 0.000000 0.000000 0.000000 0.026023 0.000000 -0.010358
# 5 -0.001509 -0.000159 -0.003250 0.000000 0.021394 0.000000
# 6 0.000000 0.000000 0.000000 -0.010358 0.000000 0.044854
#
#
# Mechanical properties :
#
#
# Convention : Reuss Voigt Hill
#
# Bulk Modulus (GPa) = 43.00169 46.63451 44.81810
# Shear Modulus (GPa) = 34.07005 39.01480 36.54242
#
# Velocity S-wave (km/s) = 3.82592 4.09416 3.96231
# Velocity P-wave (km/s) = 6.16376 6.51040 6.33945
#
# Compressibility (1/GPa) = 0.02325490
#
# Stress axis : x y z
#
# Youngs Moduli (GPa) = 88.82219 86.78139 81.88239
#
# Poissons Ratio (x) = 0.21546 -0.06196
# Poissons Ratio (y) = 0.22052 0.33929
# Poissons Ratio (z) = -0.06721 0.35959
#
# Static dielectric constant tensor:
#      x y z
#    x 2.043560 0.000000 0.018410 
#    y 0.000000 1.989090 0.000000 
#    z 0.018410 0.000000 2.391740 
# 
# From -- ./inp_files/76406.got.cif
#   From: 2010.05.17/outbox.cif.g08.bks.cpg/sg15_39_cif.got.tgz:76406.got - 2010.06.03 18:47:42.
