data_PCOD9287847
_publ_section_title
;
Structure prediction by ZEFSAII (Michael W. Deem and Ramdas Pophale) SiO2 
 PCOD9287847
Probable space group: C 2/C
;
_chemical_formula_sum "Si O2"
_cell_formula_units_Z 52
_cell_length_a 18.681795
_cell_length_b 12.196470
_cell_length_c 8.493150
_cell_angle_alpha 90.000000
_cell_angle_beta 91.907971
_cell_angle_gamma 90.000000
_cell_volume 1934.107932
_symmetry_space_group_name_H-M "C 2/C"
_symmetry_group_IT_number 15
_symmetry_cell_setting 'monoclinic'
loop_
_space_group_symop_operation_xyz
x,y,z
-x,y,1/2-z
-x,-y,-z
x,-y,1/2+z
1/2+x,1/2+y,z
1/2-x,1/2+y,1/2-z
1/2-x,1/2-y,-z
1/2+x,1/2-y,1/2+z
loop_
_atom_site_type_symbol
_atom_site_label
_atom_site_fract_x
_atom_site_fract_y
_atom_site_fract_z
Si Si1 0.049139 0.654822 0.950701
Si Si2 0.091505 0.194227 0.079724
Si Si3 0.500000 0.958840 0.750000
Si Si4 0.856683 0.152047 0.094695
Si Si5 0.296421 0.103713 0.921110
Si Si6 0.202422 0.387021 0.716466
Si Si7 0.644944 0.647142 0.754753
O O1 0.034500 0.619146 0.125730
O O2 0.047748 0.543701 0.851540
O O3 0.119860 0.721119 0.916005
O O4 0.981930 0.736918 0.912606
O O5 0.104602 0.120413 0.237148
O O6 0.155437 0.286797 0.085459
O O7 0.096689 0.135971 0.908768
O O8 0.773067 0.137352 0.119281
O O9 0.876108 0.106479 0.922164
O O10 0.223950 0.108902 0.814065
O O11 0.333515 0.993301 0.863634
O O12 0.276192 0.088359 0.101697
O O13 0.157456 0.276903 0.731488
#
# Coordination Sequence:
#
# PCOD9287847 Si02
#       7
#     8   8   4   8   8   8   8
#     4  11  23  40  60  94 129 178 214 266 324 391
#     4  11  22  41  62  92 134 167 215 266 322 390
#     4  10  22  38  58  88 134 162 230 256 310 390
#     4  12  22  40  63  88 128 177 211 263 317 391
#     4  11  23  40  63  98 127 169 215 273 330 379
#     4  11  23  40  64  94 130 168 216 270 330 384
#     4  11  23  41  62  92 129 165 221 272 324 388
#
# _framework density 26.88578
#
# number of rings (size 3 to 8) (size 9 to 14) (size 15 to 20)
#    0.000    0.923    4.615    3.231    2.154    4.923 
#    0.000    0.000    0.000    0.923    4.000    0.000 
#    0.000    0.000    0.000    0.000    0.000    0.000 
#
# Total GULP energy -145609.838897 kJ/mol
# GULP energy per Si atom -5600.378419 kJ/mol
# Density = 2.682459 g / cm^3
# Si number density = 26.885780 Si / 1000 Ang^3
#
#
#
# Elastic Constant Matrix: (Units=GPa)
#
#
# Indices 1 2 3 4 5 6 
#
# 1 87.2080 14.8261 52.3453 0.0000 -1.1007 0.0000
# 2 14.8261 76.4933 50.4252 0.0000 -0.1665 0.0000
# 3 52.3453 50.4252 282.6599 0.0000 -24.0759 0.0000
# 4 0.0000 0.0000 0.0000 42.1509 0.0000 2.2958
# 5 -1.1007 -0.1665 -24.0759 0.0000 36.3204 0.0000
# 6 0.0000 0.0000 0.0000 2.2958 0.0000 19.4846
#
#
#
# Elastic Compliance Matrix: (Units=1/GPa)
#
#
# Indices 1 2 3 4 5 6 
#
# 1 0.013021 -0.000988 -0.002334 0.000000 -0.001157 0.000000
# 2 -0.000988 0.015000 -0.002639 0.000000 -0.001710 0.000000
# 3 -0.002334 -0.002639 0.004699 0.000000 0.003032 0.000000
# 4 0.000000 0.000000 0.000000 0.023878 0.000000 -0.002813
# 5 -0.001157 -0.001710 0.003032 0.000000 0.029500 0.000000
# 6 0.000000 0.000000 0.000000 -0.002813 0.000000 0.051654
#
#
# Mechanical properties :
#
#
# Convention : Reuss Voigt Hill
#
# Bulk Modulus (GPa) = 48.07766 75.72825 61.90296
# Shear Modulus (GPa) = 31.92745 41.50882 36.71813
#
# Velocity S-wave (km/s) = 3.44978 3.93351 3.69956
# Velocity P-wave (km/s) = 5.81283 6.98983 6.42833
#
# Compressibility (1/GPa) = 0.02079968
#
# Stress axis : x y z
#
# Youngs Moduli (GPa) = 76.79953 66.66552 212.81279
#
# Poissons Ratio (x) = 0.06586 0.49662
# Poissons Ratio (y) = 0.07587 0.56155
# Poissons Ratio (z) = 0.17922 0.17591
#
# Static dielectric constant tensor:
#      x y z
#    x 2.131330 0.000000 0.083420 
#    y 0.000000 2.079180 0.000000 
#    z 0.083420 0.000000 2.201630 
# 
# From -- ./inp_files/55333.got.cif
#   From: 2010.05.17/outbox.cif.g08.bks.cpg/sg15_28_cif.got.tgz:55333.got - 2010.06.03 18:47:42.
