data_PCOD9287690
_publ_section_title
;
Structure prediction by ZEFSAII (Michael W. Deem and Ramdas Pophale) SiO2 
 PCOD9287690
Probable space group: C 2/C
;
_chemical_formula_sum "Si O2"
_cell_formula_units_Z 60
_cell_length_a 19.424752
_cell_length_b 16.996357
_cell_length_c 8.939821
_cell_angle_alpha 90.000000
_cell_angle_beta 83.971077
_cell_angle_gamma 90.000000
_cell_volume 2935.157439
_symmetry_space_group_name_H-M "C 2/C"
_symmetry_group_IT_number 15
_symmetry_cell_setting 'monoclinic'
loop_
_space_group_symop_operation_xyz
x,y,z
-x,y,1/2-z
-x,-y,-z
x,-y,1/2+z
1/2+x,1/2+y,z
1/2-x,1/2+y,1/2-z
1/2-x,1/2-y,-z
1/2+x,1/2-y,1/2+z
loop_
_atom_site_type_symbol
_atom_site_label
_atom_site_fract_x
_atom_site_fract_y
_atom_site_fract_z
Si Si1 0.775918 0.251217 0.820789
Si Si2 0.794041 0.413047 0.210743
Si Si3 0.753647 0.926164 0.617403
Si Si4 0.915545 0.088044 0.016247
Si Si5 0.500000 0.500371 0.250000
Si Si6 0.067893 0.566804 0.632032
Si Si7 0.473450 0.899497 0.923472
Si Si8 0.070590 0.757392 0.136409
O O1 0.738549 0.174838 0.755286
O O2 0.763053 0.344492 0.787378
O O3 0.857804 0.232857 0.790980
O O4 0.750000 0.250000 0.000000
O O5 0.759907 0.492529 0.290398
O O6 0.867713 0.414358 0.280133
O O7 0.786916 0.425044 0.032697
O O8 0.834421 0.924021 0.555556
O O9 0.930935 0.179265 0.993383
O O10 0.945479 0.050602 0.857003
O O11 0.957342 0.051335 0.142505
O O12 0.066248 0.481882 0.548609
O O13 0.000000 0.568057 0.750000
O O14 0.042092 0.620898 0.502902
O O15 0.500000 0.904464 0.750000
O O16 0.423150 0.826924 0.942881
O O17 0.000000 0.762221 0.250000
#
# Coordination Sequence:
#
# PCOD9287690 Si02
#       8
#     8   8   8   8   4   8   8   8
#     4  10  22  41  65  95 129 175 219 263 323 411
#     4  11  24  41  67  98 131 176 220 269 336 389
#     4  11  24  43  69  92 137 176 218 267 341 392
#     4  11  21  41  64  95 122 168 211 274 322 391
#     4  10  24  38  66  94 126 156 226 270 320 386
#     4  10  22  37  63  92 126 167 215 266 314 388
#     4   9  21  38  60  89 128 164 210 259 320 385
#     4  11  21  39  66  92 125 170 213 261 331 384
#
# _framework density 20.441834
#
# number of rings (size 3 to 8) (size 9 to 14) (size 15 to 20)
#    0.000    1.600    3.333    1.600    9.333    0.000 
#    3.600    0.667    0.000    0.000    0.000    0.000 
#    0.000    0.000    0.000    0.000    0.000    0.000 
#
# Total GULP energy -167082.527328 kJ/mol
# GULP energy per Si atom -5569.417578 kJ/mol
# Density = 2.039531 g / cm^3
# Si number density = 20.441834 Si / 1000 Ang^3
#
#
#
# Elastic Constant Matrix: (Units=GPa)
#
#
# Indices 1 2 3 4 5 6 
#
# 1 145.1525 47.2426 23.6587 0.0000 1.3400 0.0000
# 2 47.2426 114.8463 28.9203 0.0000 13.7545 0.0000
# 3 23.6587 28.9203 61.5210 0.0000 9.4934 0.0000
# 4 0.0000 0.0000 0.0000 -80.5700 0.0000 3.8887
# 5 1.3400 13.7545 9.4934 0.0000 28.8073 0.0000
# 6 0.0000 0.0000 0.0000 3.8887 0.0000 27.4862
#
#
#
# Elastic Compliance Matrix: (Units=1/GPa)
#
#
# Indices 1 2 3 4 5 6 
#
# 1 0.008198 -0.003085 -0.001971 0.000000 0.001741 0.000000
# 2 -0.003085 0.011355 -0.003516 0.000000 -0.004119 0.000000
# 3 -0.001971 -0.003516 0.019378 0.000000 -0.004616 0.000000
# 4 0.000000 0.000000 0.000000 -0.012327 0.000000 0.001744
# 5 0.001741 -0.004119 -0.004616 0.000000 0.038120 0.000000
# 6 0.000000 0.000000 0.000000 0.001744 0.000000 0.036135
#
#
# Mechanical properties :
#
#
# Convention : Reuss Voigt Hill
#
# Bulk Modulus (GPa) = 45.89846 57.90701 51.90274
# Shear Modulus (GPa) = 39.91515 9.92456 24.91986
#
# Velocity S-wave (km/s) = 4.42364 2.20580 3.49529
# Velocity P-wave (km/s) = 6.97090 5.90564 6.46026
#
# Compressibility (1/GPa) = 0.02178722
#
# Stress axis : x y z
#
# Youngs Moduli (GPa) = 121.97357 88.06795 51.60547
#
# Poissons Ratio (x) = 0.27165 0.10174
# Poissons Ratio (y) = 0.37623 0.18144
# Poissons Ratio (z) = 0.24047 0.30964
#
# Static dielectric constant tensor:
#      x y z
#    x 1.763630 0.000000 -0.037720 
#    y 0.000000 1.822640 0.000000 
#    z -0.037720 0.000000 1.799580 
# 
# From -- ./inp_files/49081.got.cif
#   From: 2010.05.17/outbox.cif.g08.bks.cpg/sg15_25_cif.got.tgz:49081.got - 2010.06.03 18:47:42.
