data_PCOD9287909
_publ_section_title
;
Structure prediction by ZEFSAII (Michael W. Deem and Ramdas Pophale) SiO2 
 PCOD9287909
Probable space group: C 2/C
;
_chemical_formula_sum "Si O2"
_cell_formula_units_Z 44
_cell_length_a 15.975266
_cell_length_b 17.706162
_cell_length_c 8.248851
_cell_angle_alpha 90.000000
_cell_angle_beta 74.505594
_cell_angle_gamma 90.000000
_cell_volume 2248.476039
_symmetry_space_group_name_H-M "C 2/C"
_symmetry_group_IT_number 15
_symmetry_cell_setting 'monoclinic'
loop_
_space_group_symop_operation_xyz
x,y,z
-x,y,1/2-z
-x,-y,-z
x,-y,1/2+z
1/2+x,1/2+y,z
1/2-x,1/2+y,1/2-z
1/2-x,1/2-y,-z
1/2+x,1/2-y,1/2+z
loop_
_atom_site_type_symbol
_atom_site_label
_atom_site_fract_x
_atom_site_fract_y
_atom_site_fract_z
Si Si1 0.691294 0.244349 0.190459
Si Si2 0.326886 0.499950 0.562661
Si Si3 0.271096 0.095262 0.141101
Si Si4 0.031189 0.580370 0.549450
Si Si5 0.598320 0.607886 0.733377
Si Si6 0.000000 0.678065 0.250000
O O1 0.732204 0.181256 0.289544
O O2 0.667231 0.329229 0.258865
O O3 0.593986 0.216708 0.201220
O O4 0.750000 0.250000 0.000000
O O5 0.297443 0.565002 0.453949
O O6 0.245709 0.464342 0.703633
O O7 0.396510 0.538687 0.644019
O O8 0.365905 0.428414 0.449927
O O9 0.364994 0.084735 0.013845
O O10 0.000000 0.594307 0.750000
O O11 0.000000 0.500000 0.500000
O O12 0.998959 0.635226 0.423273
O O13 0.500000 0.633934 0.750000
#
# Coordination Sequence:
#
# PCOD9287909 Si02
#       6
#     8   8   8   8   8   4
#     4  11  22  40  65  87 127 172 206 260 326 385
#     4  10  22  39  64  93 123 162 215 272 314 383
#     4  10  22  38  59  96 126 166 216 256 322 386
#     4  11  21  35  60  90 127 169 208 264 318 383
#     4  11  22  41  66  90 124 165 215 266 325 379
#     4  10  24  40  60  92 128 166 218 260 324 392
#
# _framework density 19.568809999999999
#
# number of rings (size 3 to 8) (size 9 to 14) (size 15 to 20)
#    0.000    1.455    3.636    1.636    2.545    2.182 
#    0.000    1.818    0.000    0.000    0.000    0.000 
#    0.000    0.000    0.000    0.000    0.000    0.000 
#
# Total GULP energy -122496.970391 kJ/mol
# GULP energy per Si atom -5568.044109 kJ/mol
# Density = 1.952427 g / cm^3
# Si number density = 19.568810 Si / 1000 Ang^3
#
#
#
# Elastic Constant Matrix: (Units=GPa)
#
#
# Indices 1 2 3 4 5 6 
#
# 1 28.6145 16.7914 34.3997 0.0000 -3.4585 0.0000
# 2 16.7914 85.2604 43.4607 0.0000 -1.4659 0.0000
# 3 34.3997 43.4607 145.2866 0.0000 -6.3350 0.0000
# 4 0.0000 0.0000 0.0000 28.7190 0.0000 -2.6403
# 5 -3.4585 -1.4659 -6.3350 0.0000 25.7334 0.0000
# 6 0.0000 0.0000 0.0000 -2.6403 0.0000 31.7985
#
#
#
# Elastic Compliance Matrix: (Units=1/GPa)
#
#
# Indices 1 2 3 4 5 6 
#
# 1 0.050689 -0.004584 -0.010457 0.000000 0.003977 0.000000
# 2 -0.004584 0.014255 -0.003205 0.000000 -0.000593 0.000000
# 3 -0.010457 -0.003205 0.010359 0.000000 0.000962 0.000000
# 4 0.000000 0.000000 0.000000 0.035088 0.000000 0.002913
# 5 0.003977 -0.000593 0.000962 0.000000 0.039598 0.000000
# 6 0.000000 0.000000 0.000000 0.002913 0.000000 0.031690
#
#
# Mechanical properties :
#
#
# Convention : Reuss Voigt Hill
#
# Bulk Modulus (GPa) = 25.76521 49.82943 37.79732
# Shear Modulus (GPa) = 21.63489 28.21750 24.92619
#
# Velocity S-wave (km/s) = 3.32863 3.80144 3.57287
# Velocity P-wave (km/s) = 5.28849 6.69230 6.03138
#
# Compressibility (1/GPa) = 0.03881202
#
# Stress axis : x y z
#
# Youngs Moduli (GPa) = 19.72805 70.15115 96.53004
#
# Poissons Ratio (x) = 0.32158 1.00942
# Poissons Ratio (y) = 0.09044 0.30935
# Poissons Ratio (z) = 0.20630 0.22481
#
# Static dielectric constant tensor:
#      x y z
#    x 1.636670 0.000000 -0.007780 
#    y 0.000000 1.736150 0.000000 
#    z -0.007780 0.000000 1.669710 
# 
# From -- ./inp_files/39553.got.cif
#   From: 2010.05.17/outbox.cif.g08.bks.cpg/sg15_20_cif.got.tgz:39553.got - 2010.06.03 18:47:42.
