data_PCOD9287327
_publ_section_title
;
Structure prediction by ZEFSAII (Michael W. Deem and Ramdas Pophale) SiO2 
 PCOD9287327
Probable space group: C 2/C
;
_chemical_formula_sum "Si O2"
_cell_formula_units_Z 52
_cell_length_a 8.706004
_cell_length_b 11.467362
_cell_length_c 30.769271
_cell_angle_alpha 90.000000
_cell_angle_beta 49.983318
_cell_angle_gamma 90.000000
_cell_volume 2352.596383
_symmetry_space_group_name_H-M "C 2/C"
_symmetry_group_IT_number 15
_symmetry_cell_setting 'monoclinic'
loop_
_space_group_symop_operation_xyz
x,y,z
-x,y,1/2-z
-x,-y,-z
x,-y,1/2+z
1/2+x,1/2+y,z
1/2-x,1/2+y,1/2-z
1/2-x,1/2-y,-z
1/2+x,1/2-y,1/2+z
loop_
_atom_site_type_symbol
_atom_site_label
_atom_site_fract_x
_atom_site_fract_y
_atom_site_fract_z
Si Si1 0.500000 0.752364 0.750000
Si Si2 0.872786 0.848066 0.816314
Si Si3 0.900815 0.316327 0.004190
Si Si4 0.265647 0.525935 0.417459
Si Si5 0.566792 0.153147 0.840797
Si Si6 0.977133 0.617070 0.343710
Si Si7 0.481954 0.309429 0.568186
O O1 0.303165 0.674859 0.791938
O O2 0.476907 0.836042 0.712732
O O3 0.874022 0.951255 0.851991
O O4 0.644382 0.825211 0.843826
O O5 0.000000 0.873934 0.750000
O O6 0.959868 0.736474 0.825249
O O7 0.774344 0.394847 0.061076
O O8 0.034310 0.231182 0.010130
O O9 0.750000 0.250000 0.000000
O O10 0.052729 0.406022 0.953563
O O11 0.390082 0.588171 0.433250
O O12 0.510271 0.203719 0.898464
O O13 0.509185 0.020508 0.843759
O O14 0.747913 0.648631 0.394175
#
# Coordination Sequence:
#
# PCOD9287327 Si02
#       7
#     4   8   8   8   8   8   8
#     4  10  22  36  54  88 120 162 216 258 308 384
#     4  11  22  42  65  95 129 172 215 259 321 395
#     4  11  23  43  70  97 126 173 218 274 330 388
#     4  10  24  43  66  97 134 166 216 272 327 385
#     4  10  23  40  61  90 128 170 212 266 319 382
#     4  11  23  38  61  89 127 169 214 261 322 377
#     4  10  23  42  63  97 130 164 218 270 321 389
#
# _framework density 22.103237
#
# number of rings (size 3 to 8) (size 9 to 14) (size 15 to 20)
#    0.000    1.538    1.538    2.308    2.154    5.538 
#    0.000    3.077    0.000    0.000    0.000    0.000 
#    0.000    0.000    0.000    0.000    0.000    0.000 
#
# Total GULP energy -145502.351570 kJ/mol
# GULP energy per Si atom -5596.244291 kJ/mol
# Density = 2.205293 g / cm^3
# Si number density = 22.103237 Si / 1000 Ang^3
#
#
#
# Elastic Constant Matrix: (Units=GPa)
#
#
# Indices 1 2 3 4 5 6 
#
# 1 141.1556 56.5843 40.4167 0.0000 11.0745 0.0000
# 2 56.5843 113.9297 41.1566 0.0000 8.0900 0.0000
# 3 40.4167 41.1566 65.3890 0.0000 14.4417 0.0000
# 4 0.0000 0.0000 0.0000 12.8895 0.0000 -0.2438
# 5 11.0745 8.0900 14.4417 0.0000 37.8132 0.0000
# 6 0.0000 0.0000 0.0000 -0.2438 0.0000 33.6232
#
#
#
# Elastic Compliance Matrix: (Units=1/GPa)
#
#
# Indices 1 2 3 4 5 6 
#
# 1 0.009526 -0.003378 -0.003610 0.000000 -0.000689 0.000000
# 2 -0.003378 0.012562 -0.005945 0.000000 0.000572 0.000000
# 3 -0.003610 -0.005945 0.022663 0.000000 -0.006327 0.000000
# 4 0.000000 0.000000 0.000000 0.077593 0.000000 0.000563
# 5 -0.000689 0.000572 -0.006327 0.000000 0.028941 0.000000
# 6 0.000000 0.000000 0.000000 0.000563 0.000000 0.029745
#
#
# Mechanical properties :
#
#
# Convention : Reuss Voigt Hill
#
# Bulk Modulus (GPa) = 52.95037 66.30995 59.63016
# Shear Modulus (GPa) = 23.45289 29.01961 26.23625
#
# Velocity S-wave (km/s) = 3.26093 3.62734 3.44900
# Velocity P-wave (km/s) = 6.17949 6.89991 6.54961
#
# Compressibility (1/GPa) = 0.01888561
#
# Stress axis : x y z
#
# Youngs Moduli (GPa) = 104.97319 79.60351 44.12413
#
# Poissons Ratio (x) = 0.26894 0.15927
# Poissons Ratio (y) = 0.35465 0.26232
# Poissons Ratio (z) = 0.37891 0.47325
#
# Static dielectric constant tensor:
#      x y z
#    x 1.805040 0.000000 -0.003490 
#    y 0.000000 1.780200 0.000000 
#    z -0.003490 0.000000 1.857930 
# 
# From -- ./inp_files/287886.got.cif
#   From: 2010.05.17/outbox.cif.g08.bks.cpg/sg15_144_cif.got.tgz:287886.got - 2010.06.03 18:47:42.
