data_PCOD9287084
_publ_section_title
;
Structure prediction by ZEFSAII (Michael W. Deem and Ramdas Pophale) SiO2 
 PCOD9287084
Probable space group: C 2/C
;
_chemical_formula_sum "Si O2"
_cell_formula_units_Z 44
_cell_length_a 25.837301
_cell_length_b 9.936884
_cell_length_c 22.645859
_cell_angle_alpha 90.000000
_cell_angle_beta 159.953087
_cell_angle_gamma 90.000000
_cell_volume 1993.028886
_symmetry_space_group_name_H-M "C 2/C"
_symmetry_group_IT_number 15
_symmetry_cell_setting 'monoclinic'
loop_
_space_group_symop_operation_xyz
x,y,z
-x,y,1/2-z
-x,-y,-z
x,-y,1/2+z
1/2+x,1/2+y,z
1/2-x,1/2+y,1/2-z
1/2-x,1/2-y,-z
1/2+x,1/2-y,1/2+z
loop_
_atom_site_type_symbol
_atom_site_label
_atom_site_fract_x
_atom_site_fract_y
_atom_site_fract_z
Si Si1 0.000000 0.914826 0.750000
Si Si2 0.828881 0.590943 0.401352
Si Si3 0.605229 0.434724 0.562974
Si Si4 0.200115 0.158398 0.001136
Si Si5 0.526798 0.335908 0.649017
Si Si6 0.987972 0.317097 0.606707
O O1 0.861930 0.017026 0.588853
O O2 0.967019 0.831101 0.773603
O O3 0.765480 0.583404 0.266516
O O4 0.688685 0.632587 0.293433
O O5 0.889484 0.446828 0.486440
O O6 0.957389 0.701868 0.547092
O O7 0.500000 0.500000 0.500000
O O8 0.585524 0.540586 0.488833
O O9 0.535302 0.293249 0.468957
O O10 0.340348 0.144641 0.196134
O O11 0.250000 0.250000 0.000000
O O12 0.073638 0.240358 0.901374
#
# Coordination Sequence:
#
# PCOD9287084 Si02
#       6
#     4   8   8   8   8   8
#     4  12  24  44  68  92 150 182 230 296 356 418
#     4  11  26  44  68 102 139 183 237 288 355 421
#     4  10  21  46  71  99 141 177 231 297 347 416
#     4  12  22  42  69 102 133 181 238 291 349 424
#     4  11  25  47  66 101 141 187 232 293 358 421
#     4  12  24  42  72 104 135 182 240 287 357 421
#
# _framework density 22.07695
#
# number of rings (size 3 to 8) (size 9 to 14) (size 15 to 20)
#    0.000    0.727    3.636    4.364    2.545    2.182 
#    3.273    5.455    0.000    0.000    0.000    0.000 
#    0.000    0.000    0.000    0.000    0.000    0.000 
#
# Total GULP energy -123173.409989 kJ/mol
# GULP energy per Si atom -5598.791363 kJ/mol
# Density = 2.202670 g / cm^3
# Si number density = 22.076950 Si / 1000 Ang^3
#
#
#
# Elastic Constant Matrix: (Units=GPa)
#
#
# Indices 1 2 3 4 5 6 
#
# 1 64.3193 13.3905 14.8664 0.0000 -10.8373 0.0000
# 2 13.3905 110.4951 34.6827 0.0001 -4.2090 0.0001
# 3 14.8664 34.6827 102.6994 0.0001 -14.9698 0.0000
# 4 0.0000 0.0001 0.0001 45.4258 0.0000 -1.7950
# 5 -10.8373 -4.2090 -14.9698 0.0000 33.5572 0.0000
# 6 0.0000 0.0001 0.0000 -1.7950 0.0000 30.1309
#
#
#
# Elastic Compliance Matrix: (Units=1/GPa)
#
#
# Indices 1 2 3 4 5 6 
#
# 1 0.016943 -0.001476 -0.001266 0.000000 0.004722 0.000000
# 2 -0.001476 0.010254 -0.003349 0.000000 -0.000685 0.000000
# 3 -0.001266 -0.003349 0.011691 0.000000 0.004386 0.000000
# 4 0.000000 0.000000 0.000000 0.022066 0.000000 0.001315
# 5 0.004722 -0.000685 0.004386 0.000000 0.033196 0.000000
# 6 0.000000 0.000000 0.000000 0.001315 0.000000 0.033267
#
#
# Mechanical properties :
#
#
# Convention : Reuss Voigt Hill
#
# Bulk Modulus (GPa) = 37.44482 44.82145 41.13314
# Shear Modulus (GPa) = 33.67001 36.12773 34.89887
#
# Velocity S-wave (km/s) = 3.90952 4.04969 3.98022
# Velocity P-wave (km/s) = 6.11367 6.49716 6.30833
#
# Compressibility (1/GPa) = 0.02670596
#
# Stress axis : x y z
#
# Youngs Moduli (GPa) = 59.02176 97.52105 85.53745
#
# Poissons Ratio (x) = 0.14395 0.10828
# Poissons Ratio (y) = 0.08712 0.28647
# Poissons Ratio (z) = 0.07471 0.32660
#
# Static dielectric constant tensor:
#      x y z
#    x 1.821930 0.000000 -0.011770 
#    y 0.000000 1.758590 0.000000 
#    z -0.011770 0.000000 1.838270 
# 
# From -- ./inp_files/69218.got.cif
#   From: 2010.05.17/outbox.cif.g08.bks.cpg/sg15_35_cif.got.tgz:69218.got - 2010.06.03 18:47:42.
