data_PCOD9287266
_publ_section_title
;
Structure prediction by ZEFSAII (Michael W. Deem and Ramdas Pophale) SiO2 
 PCOD9287266
Probable space group: C 2/C
;
_chemical_formula_sum "Si O2"
_cell_formula_units_Z 48
_cell_length_a 14.122217
_cell_length_b 14.267825
_cell_length_c 21.926144
_cell_angle_alpha 90.000000
_cell_angle_beta 33.168706
_cell_angle_gamma 90.000000
_cell_volume 2417.099260
_symmetry_space_group_name_H-M "C 2/C"
_symmetry_group_IT_number 15
_symmetry_cell_setting 'monoclinic'
loop_
_space_group_symop_operation_xyz
x,y,z
-x,y,1/2-z
-x,-y,-z
x,-y,1/2+z
1/2+x,1/2+y,z
1/2-x,1/2+y,1/2-z
1/2-x,1/2-y,-z
1/2+x,1/2-y,1/2+z
loop_
_atom_site_type_symbol
_atom_site_label
_atom_site_fract_x
_atom_site_fract_y
_atom_site_fract_z
Si Si1 0.147141 0.419799 0.416988
Si Si2 0.801334 0.218764 0.538343
Si Si3 0.500000 0.910841 0.250000
Si Si4 0.091481 0.900117 0.829484
Si Si5 0.107337 0.291919 0.891451
Si Si6 0.500000 0.530327 0.250000
Si Si7 0.249035 0.911423 0.277532
O O1 0.328806 0.465389 0.339222
O O2 0.168880 0.393097 0.333695
O O3 0.000000 0.500000 0.500000
O O4 0.082577 0.335008 0.495443
O O5 0.750000 0.250000 0.500000
O O6 0.649564 0.150725 0.639985
O O7 0.817777 0.298458 0.580025
O O8 0.981177 0.163571 0.433996
O O9 0.393432 0.948368 0.248336
O O10 0.278526 0.855304 0.714762
O O11 0.002373 0.909701 0.811000
O O12 0.114802 0.004196 0.841989
O O13 0.150711 0.184022 0.851001
#
# Coordination Sequence:
#
# PCOD9287266 Si02
#       7
#     8   8   4   8   8   4   8
#     4  11  21  41  65  89 128 167 213 267 313 384
#     4  11  21  34  60  91 120 157 207 265 326 380
#     4  10  22  35  56  89 126 156 206 253 318 383
#     4  11  22  38  61  89 131 158 206 271 310 381
#     4  11  21  38  61  89 124 164 206 260 326 369
#     4  10  22  37  64  97 116 166 220 251 326 383
#     4  10  23  40  59  94 124 166 212 256 321 384
#
# _framework density 19.858514
#
# number of rings (size 3 to 8) (size 9 to 14) (size 15 to 20)
#    0.000    1.333    3.333    5.000    2.333    3.333 
#    0.000    3.333    0.000   12.000    0.000    0.000 
#    0.000    0.000    0.000    0.000    0.000    0.000 
#
# Total GULP energy -133794.054108 kJ/mol
# GULP energy per Si atom -5574.752254 kJ/mol
# Density = 1.981332 g / cm^3
# Si number density = 19.858514 Si / 1000 Ang^3
#
#
#
# Elastic Constant Matrix: (Units=GPa)
#
#
# Indices 1 2 3 4 5 6 
#
# 1 45.9909 5.5379 19.2557 -0.0001 2.2961 0.0001
# 2 5.5379 78.9700 27.0288 -0.0003 3.1208 0.0001
# 3 19.2557 27.0288 119.9624 -0.0009 4.1577 0.0005
# 4 -0.0001 -0.0003 -0.0009 43.9187 0.0004 -3.2940
# 5 2.2961 3.1208 4.1577 0.0004 29.7773 -0.0001
# 6 0.0001 0.0001 0.0005 -3.2940 -0.0001 44.6700
#
#
#
# Elastic Compliance Matrix: (Units=1/GPa)
#
#
# Indices 1 2 3 4 5 6 
#
# 1 0.023367 -0.000347 -0.003629 0.000000 -0.001259 0.000000
# 2 -0.000347 0.013757 -0.003009 0.000000 -0.000995 0.000000
# 3 -0.003629 -0.003009 0.009622 0.000000 -0.000748 0.000000
# 4 0.000000 0.000000 0.000000 0.022896 0.000000 0.001688
# 5 -0.001259 -0.000995 -0.000748 0.000000 0.033888 0.000000
# 6 0.000000 0.000000 0.000000 0.001688 0.000000 0.022511
#
#
# Mechanical properties :
#
#
# Convention : Reuss Voigt Hill
#
# Bulk Modulus (GPa) = 30.51005 38.72979 34.61992
# Shear Modulus (GPa) = 33.12622 36.54658 34.83640
#
# Velocity S-wave (km/s) = 4.08868 4.29458 4.19290
# Velocity P-wave (km/s) = 6.13896 6.64353 6.39622
#
# Compressibility (1/GPa) = 0.03277609
#
# Stress axis : x y z
#
# Youngs Moduli (GPa) = 42.79450 72.69193 103.92374
#
# Poissons Ratio (x) = 0.02521 0.37714
# Poissons Ratio (y) = 0.01484 0.31275
# Poissons Ratio (z) = 0.15530 0.21876
#
# Static dielectric constant tensor:
#      x y z
#    x 1.808680 0.000000 0.007800 
#    y 0.000000 1.715670 0.000000 
#    z 0.007800 0.000000 1.701770 
# 
# From -- ./inp_files/274291.got.cif
#   From: 2010.05.17/outbox.cif.g08.bks.cpg/sg15_138_cif.got.tgz:274291.got - 2010.06.03 18:47:42.
