data_PCOD9287677
_publ_section_title
;
Structure prediction by ZEFSAII (Michael W. Deem and Ramdas Pophale) SiO2 
 PCOD9287677
Probable space group: C 2/C
;
_chemical_formula_sum "Si O2"
_cell_formula_units_Z 60
_cell_length_a 22.576593
_cell_length_b 8.864023
_cell_length_c 23.831306
_cell_angle_alpha 90.000000
_cell_angle_beta 33.784188
_cell_angle_gamma 90.000000
_cell_volume 2651.939858
_symmetry_space_group_name_H-M "C 2/C"
_symmetry_group_IT_number 15
_symmetry_cell_setting 'monoclinic'
loop_
_space_group_symop_operation_xyz
x,y,z
-x,y,1/2-z
-x,-y,-z
x,-y,1/2+z
1/2+x,1/2+y,z
1/2-x,1/2+y,1/2-z
1/2-x,1/2-y,-z
1/2+x,1/2-y,1/2+z
loop_
_atom_site_type_symbol
_atom_site_label
_atom_site_fract_x
_atom_site_fract_y
_atom_site_fract_z
Si Si1 0.000000 0.770042 0.250000
Si Si2 0.266091 0.585063 0.340718
Si Si3 0.420621 0.508593 0.904896
Si Si4 0.441430 0.573095 0.104837
Si Si5 0.104256 0.601336 0.906203
Si Si6 0.270746 0.416066 0.171633
Si Si7 0.148502 0.218656 0.118717
Si Si8 0.686826 0.959227 0.627483
O O1 0.018943 0.867266 0.178882
O O2 0.103991 0.669347 0.178665
O O3 0.358953 0.580641 0.222031
O O4 0.184070 0.449012 0.393864
O O5 0.217425 0.751233 0.366046
O O6 0.315365 0.597183 0.363446
O O7 0.456770 0.480012 0.940038
O O8 0.435367 0.353962 0.857647
O O9 0.295278 0.548303 0.006002
O O10 0.435887 0.730052 0.075391
O O11 0.384163 0.454435 0.109482
O O12 0.180604 0.574224 0.791564
O O13 0.000000 0.500000 0.000000
O O14 0.228000 0.532462 0.158895
O O15 0.128475 0.379572 0.162658
O O16 0.250000 0.250000 0.000000
#
# Coordination Sequence:
#
# PCOD9287677 Si02
#       8
#     4   8   8   8   8   8   8   8
#     4  12  26  44  68  98 138 180 228 288 340 396
#     4   9  19  39  62  91 132 169 217 270 326 395
#     4  11  24  43  70  98 134 177 229 277 342 414
#     4  10  22  39  65  94 129 174 212 268 336 395
#     4  10  22  37  62  99 130 164 225 273 330 401
#     4   9  21  43  63  89 137 177 213 271 334 400
#     4   9  20  39  67  94 128 175 222 278 328 403
#     4  10  24  45  67  97 134 175 228 279 341 405
#
# _framework density 22.624946999999999
#
# number of rings (size 3 to 8) (size 9 to 14) (size 15 to 20)
#    0.000    2.133    0.000    1.200    5.600    9.600 
#    4.800    0.000    0.000    0.000    0.000    0.000 
#    0.000    0.000    0.000    0.000    0.000    0.000 
#
# Total GULP energy -167498.977370 kJ/mol
# GULP energy per Si atom -5583.299246 kJ/mol
# Density = 2.257345 g / cm^3
# Si number density = 22.624947 Si / 1000 Ang^3
#
#
#
# Elastic Constant Matrix: (Units=GPa)
#
#
# Indices 1 2 3 4 5 6 
#
# 1 148.6581 56.1274 40.3912 0.0000 -0.2010 0.0000
# 2 56.1274 89.6505 52.9097 0.0003 -12.0430 -0.0001
# 3 40.3912 52.9097 90.2568 0.0001 -14.0611 0.0001
# 4 0.0000 0.0003 0.0001 39.2758 0.0000 -6.1889
# 5 -0.2010 -12.0430 -14.0611 0.0000 40.4601 0.0000
# 6 0.0000 -0.0001 0.0001 -6.1889 0.0000 35.8560
#
#
#
# Elastic Compliance Matrix: (Units=1/GPa)
#
#
# Indices 1 2 3 4 5 6 
#
# 1 0.009021 -0.005118 -0.001339 0.000000 -0.001944 0.000000
# 2 -0.005118 0.020069 -0.009037 0.000000 0.002808 0.000000
# 3 -0.001339 -0.009037 0.017504 0.000000 0.003387 0.000000
# 4 0.000000 0.000000 0.000000 0.026173 0.000000 0.004518
# 5 -0.001944 0.002808 0.003387 0.000000 0.026719 0.000000
# 6 0.000000 0.000000 0.000000 0.004518 0.000000 0.028669
#
#
# Mechanical properties :
#
#
# Convention : Reuss Voigt Hill
#
# Bulk Modulus (GPa) = 64.08263 69.71355 66.89809
# Shear Modulus (GPa) = 30.42372 35.06087 32.74229
#
# Velocity S-wave (km/s) = 3.67099 3.94084 3.80830
# Velocity P-wave (km/s) = 6.80835 7.18237 6.99786
#
# Compressibility (1/GPa) = 0.01560485
#
# Stress axis : x y z
#
# Youngs Moduli (GPa) = 110.85813 49.82714 57.12939
#
# Poissons Ratio (x) = 0.25502 0.07652
# Poissons Ratio (y) = 0.56739 0.51628
# Poissons Ratio (z) = 0.14848 0.45029
#
# Static dielectric constant tensor:
#      x y z
#    x 1.840290 0.000000 -0.032110 
#    y 0.000000 1.844770 0.000000 
#    z -0.032110 0.000000 1.908910 
# 
# From -- ./inp_files/302048.got.cif
#   From: 2010.05.17/outbox.cif.g08.bks.cpg/sg15_152_cif.got.tgz:302048.got - 2010.06.03 18:47:42.
