data_PCOD9287060
_publ_section_title
;
Structure prediction by ZEFSAII (Michael W. Deem and Ramdas Pophale) SiO2 
 PCOD9287060
Probable space group: C 2/C
;
_chemical_formula_sum "Si O2"
_cell_formula_units_Z 48
_cell_length_a 8.797588
_cell_length_b 12.990049
_cell_length_c 26.331471
_cell_angle_alpha 90.000000
_cell_angle_beta 143.953858
_cell_angle_gamma 90.000000
_cell_volume 1770.717170
_symmetry_space_group_name_H-M "C 2/C"
_symmetry_group_IT_number 15
_symmetry_cell_setting 'monoclinic'
loop_
_space_group_symop_operation_xyz
x,y,z
-x,y,1/2-z
-x,-y,-z
x,-y,1/2+z
1/2+x,1/2+y,z
1/2-x,1/2+y,1/2-z
1/2-x,1/2-y,-z
1/2+x,1/2-y,1/2+z
loop_
_atom_site_type_symbol
_atom_site_label
_atom_site_fract_x
_atom_site_fract_y
_atom_site_fract_z
Si Si1 0.517292 0.953994 0.312117
Si Si2 0.045375 0.898992 0.328903
Si Si3 0.568694 0.453252 0.451345
Si Si4 0.139561 0.821638 0.926044
Si Si5 0.365251 0.895328 0.886292
Si Si6 0.633863 0.812489 0.720911
O O1 0.500000 0.912811 0.250000
O O2 0.803170 0.927597 0.408592
O O3 0.484506 0.076493 0.299323
O O4 0.254243 0.918905 0.267295
O O5 0.072219 0.778209 0.325162
O O6 0.058535 0.902702 0.393068
O O7 0.212966 0.995935 0.354597
O O8 0.578440 0.572375 0.438576
O O9 0.838617 0.420220 0.547012
O O10 0.345567 0.841728 0.936046
O O11 0.887842 0.796438 0.823891
O O12 0.250000 0.750000 0.000000
O O13 0.281351 0.826958 0.815403
#
# Coordination Sequence:
#
# PCOD9287060 Si02
#       6
#     8   8   8   8   8   8
#     4  10  21  46  68 105 157 202 266 333 402 487
#     4  10  23  46  76 112 158 208 270 338 408 486
#     4  10  23  47  70 107 162 205 262 344 410 483
#     4  11  24  46  74 114 162 204 270 341 404 496
#     4  11  25  49  77 114 160 212 278 341 407 506
#     4  12  25  47  81 115 156 217 279 330 415 499
#
# _framework density 27.107658000000001
#
# number of rings (size 3 to 8) (size 9 to 14) (size 15 to 20)
#    0.000    1.333    5.000    2.500    0.000    9.333 
#    6.000    1.667    0.000    3.000    0.000    0.000 
#    0.000    0.000    0.000    0.000    0.000    0.000 
#
# Total GULP energy -134325.673613 kJ/mol
# GULP energy per Si atom -5596.903067 kJ/mol
# Density = 2.704596 g / cm^3
# Si number density = 27.107658 Si / 1000 Ang^3
#
#
#
# Elastic Constant Matrix: (Units=GPa)
#
#
# Indices 1 2 3 4 5 6 
#
# 1 89.5239 -18.2984 72.6153 0.0000 8.0947 0.0000
# 2 -18.2984 115.8318 49.5340 0.0000 7.5513 0.0000
# 3 72.6153 49.5340 187.6146 0.0000 10.2125 0.0000
# 4 0.0000 0.0000 0.0000 41.6075 0.0000 -1.7669
# 5 8.0947 7.5513 10.2125 0.0000 72.8743 0.0000
# 6 0.0000 0.0000 0.0000 -1.7669 0.0000 6.2843
#
#
#
# Elastic Compliance Matrix: (Units=1/GPa)
#
#
# Indices 1 2 3 4 5 6 
#
# 1 0.021155 0.007796 -0.010152 0.000000 -0.001735 0.000000
# 2 0.007796 0.012636 -0.006283 0.000000 -0.001295 0.000000
# 3 -0.010152 -0.006283 0.010905 0.000000 0.000251 0.000000
# 4 0.000000 0.000000 0.000000 0.024325 0.000000 0.006839
# 5 -0.001735 -0.001295 0.000251 0.000000 0.014014 0.000000
# 6 0.000000 0.000000 0.000000 0.006839 0.000000 0.161051
#
#
# Mechanical properties :
#
#
# Convention : Reuss Voigt Hill
#
# Bulk Modulus (GPa) = 36.47189 66.74136 51.60663
# Shear Modulus (GPa) = 18.48409 43.42784 30.95597
#
# Velocity S-wave (km/s) = 2.61411 4.00690 3.38296
# Velocity P-wave (km/s) = 4.75343 6.78832 5.85988
#
# Compressibility (1/GPa) = 0.02741838
#
# Stress axis : x y z
#
# Youngs Moduli (GPa) = 47.26963 79.13751 91.70407
#
# Poissons Ratio (x) = -0.61699 0.93098
# Poissons Ratio (y) = -0.36854 0.57621
# Poissons Ratio (z) = 0.47988 0.49725
#
# Static dielectric constant tensor:
#      x y z
#    x 2.167250 0.000000 0.025030 
#    y 0.000000 2.138040 0.000000 
#    z 0.025030 0.000000 2.127520 
# 
# From -- ./inp_files/293131.got.cif
#   From: 2010.05.17/outbox.cif.g08.bks.cpg/sg15_147_cif.got.tgz:293131.got - 2010.06.03 18:47:42.
