data_PCOD9287689
_publ_section_title
;
Structure prediction by ZEFSAII (Michael W. Deem and Ramdas Pophale) SiO2 
 PCOD9287689
Probable space group: C 2/C
;
_chemical_formula_sum "Si O2"
_cell_formula_units_Z 48
_cell_length_a 23.625237
_cell_length_b 15.307439
_cell_length_c 18.504377
_cell_angle_alpha 90.000000
_cell_angle_beta 21.233890
_cell_angle_gamma 90.000000
_cell_volume 2423.666221
_symmetry_space_group_name_H-M "C 2/C"
_symmetry_group_IT_number 15
_symmetry_cell_setting 'monoclinic'
loop_
_space_group_symop_operation_xyz
x,y,z
-x,y,1/2-z
-x,-y,-z
x,-y,1/2+z
1/2+x,1/2+y,z
1/2-x,1/2+y,1/2-z
1/2-x,1/2-y,-z
1/2+x,1/2-y,1/2+z
loop_
_atom_site_type_symbol
_atom_site_label
_atom_site_fract_x
_atom_site_fract_y
_atom_site_fract_z
Si Si1 0.494190 0.020870 0.591416
Si Si2 0.036392 0.143655 0.474020
Si Si3 0.140326 0.706234 0.403459
Si Si4 0.323642 0.516737 0.455014
Si Si5 0.663387 0.279994 0.532230
Si Si6 0.694897 0.506361 0.690652
O O1 0.523727 0.125921 0.559768
O O2 0.643328 0.983761 0.457848
O O3 0.500000 0.000000 0.500000
O O4 0.329840 0.986477 0.818559
O O5 0.946773 0.222447 0.541141
O O6 0.195700 0.172459 0.324762
O O7 0.100043 0.074880 0.338339
O O8 0.914715 0.090389 0.667648
O O9 0.197011 0.746089 0.412556
O O10 0.500000 0.477189 0.250000
O O11 0.342055 0.615560 0.462256
O O12 0.278580 0.514368 0.424462
O O13 0.500000 0.240914 0.750000
O O14 0.750000 0.250000 0.500000
#
# Coordination Sequence:
#
# PCOD9287689 Si02
#       6
#     8   8   8   8   8   8
#     4  11  25  40  63  93 129 173 221 265 325 390
#     4  10  22  37  63  91 129 170 212 264 319 382
#     4  11  22  37  60  93 130 167 217 259 328 390
#     4  11  23  37  63  91 125 165 212 262 325 383
#     4  11  20  32  54  87 127 158 192 251 324 391
#     4  10  23  41  61  91 136 169 218 261 327 388
#
# _framework density 19.804708000000002
#
# number of rings (size 3 to 8) (size 9 to 14) (size 15 to 20)
#    0.000    1.333    0.000    7.500   11.667    0.000 
#    0.000    0.000    0.000    1.000    0.000    0.000 
#    0.000    0.000    0.000    0.000    0.000    0.000 
#
# Total GULP energy -133853.178527 kJ/mol
# GULP energy per Si atom -5577.215772 kJ/mol
# Density = 1.975963 g / cm^3
# Si number density = 19.804708 Si / 1000 Ang^3
#
#
#
# Elastic Constant Matrix: (Units=GPa)
#
#
# Indices 1 2 3 4 5 6 
#
# 1 97.6744 11.8625 46.6140 -0.0006 -5.3150 0.0002
# 2 11.8625 34.8761 34.3251 -0.0005 -8.1804 0.0004
# 3 46.6140 34.3251 144.3928 -0.0011 -14.1915 0.0005
# 4 -0.0006 -0.0005 -0.0011 24.2742 0.0007 -3.9012
# 5 -5.3150 -8.1804 -14.1915 0.0007 43.1972 -0.0003
# 6 0.0002 0.0004 0.0005 -3.9012 -0.0003 30.0044
#
#
#
# Elastic Compliance Matrix: (Units=1/GPa)
#
#
# Indices 1 2 3 4 5 6 
#
# 1 0.012107 -0.000323 -0.003815 0.000000 0.000175 0.000000
# 2 -0.000323 0.038230 -0.008552 0.000000 0.004390 0.000000
# 3 -0.003815 -0.008552 0.010318 0.000000 0.001301 0.000000
# 4 0.000000 0.000000 0.000000 0.042075 -0.000001 0.005471
# 5 0.000175 0.004390 0.001301 -0.000001 0.024430 0.000000
# 6 0.000000 0.000000 0.000000 0.005471 0.000000 0.034040
#
#
# Mechanical properties :
#
#
# Convention : Reuss Voigt Hill
#
# Bulk Modulus (GPa) = 28.34807 51.39407 39.87107
# Shear Modulus (GPa) = 25.20956 31.77128 28.49042
#
# Velocity S-wave (km/s) = 3.57165 4.00963 3.79696
# Velocity P-wave (km/s) = 5.59945 6.88788 6.27681
#
# Compressibility (1/GPa) = 0.03527577
#
# Stress axis : x y z
#
# Youngs Moduli (GPa) = 82.59468 26.15771 96.91858
#
# Poissons Ratio (x) = 0.00844 0.36971
# Poissons Ratio (y) = 0.02664 0.82888
# Poissons Ratio (z) = 0.31507 0.22371
#
# Static dielectric constant tensor:
#      x y z
#    x 1.637480 0.000000 -0.036790 
#    y 0.000000 1.716850 0.000000 
#    z -0.036790 0.000000 1.771940 
# 
# From -- ./inp_files/66440.got.cif
#   From: 2010.05.17/outbox.cif.g08.bks.cpg/sg15_34_cif.got.tgz:66440.got - 2010.06.03 18:47:42.
