data_PCOD9287241
_publ_section_title
;
Structure prediction by ZEFSAII (Michael W. Deem and Ramdas Pophale) SiO2 
 PCOD9287241
Probable space group: C 2/C
;
_chemical_formula_sum "Si O2"
_cell_formula_units_Z 60
_cell_length_a 11.601471
_cell_length_b 15.287725
_cell_length_c 17.322077
_cell_angle_alpha 90.000000
_cell_angle_beta 118.331432
_cell_angle_gamma 90.000000
_cell_volume 2704.242953
_symmetry_space_group_name_H-M "C 2/C"
_symmetry_group_IT_number 15
_symmetry_cell_setting 'monoclinic'
loop_
_space_group_symop_operation_xyz
x,y,z
-x,y,1/2-z
-x,-y,-z
x,-y,1/2+z
1/2+x,1/2+y,z
1/2-x,1/2+y,1/2-z
1/2-x,1/2-y,-z
1/2+x,1/2-y,1/2+z
loop_
_atom_site_type_symbol
_atom_site_label
_atom_site_fract_x
_atom_site_fract_y
_atom_site_fract_z
Si Si1 0.117801 0.289090 0.989946
Si Si2 0.000000 0.429137 0.250000
Si Si3 0.079809 0.826710 0.697511
Si Si4 0.602219 0.706183 0.509287
Si Si5 0.189479 0.336317 0.188025
Si Si6 0.217893 0.014973 0.304112
Si Si7 0.031918 0.531883 0.393376
Si Si8 0.779573 0.397898 0.976311
O O1 0.139774 0.324790 0.084301
O O2 0.005695 0.214866 0.958963
O O3 0.250000 0.250000 0.000000
O O4 0.076173 0.371752 0.926998
O O5 0.919889 0.372421 0.286251
O O6 0.916629 0.495924 0.171972
O O7 0.204236 0.761764 0.724882
O O8 0.134044 0.924358 0.721566
O O9 0.000000 0.807738 0.750000
O O10 0.981071 0.806376 0.596251
O O11 0.704816 0.627577 0.532123
O O12 0.673783 0.800963 0.535121
O O13 0.298327 0.411755 0.216295
O O14 0.374434 0.029728 0.343817
O O15 0.195502 0.052653 0.383868
O O16 0.097574 0.461157 0.471307
#
# Coordination Sequence:
#
# PCOD9287241 Si02
#       8
#     8   4   8   8   8   8   8   8
#     4  11  23  41  67  90 140 189 224 275 351 432
#     4  10  22  34  66  98 126 158 220 300 350 392
#     4  11  21  37  63  99 142 175 226 288 357 414
#     4  10  22  37  63 106 131 168 229 285 353 405
#     4  10  22  40  64 100 129 176 232 294 342 411
#     4  11  21  37  69  98 131 181 220 291 358 414
#     4  11  22  40  64  97 128 172 229 279 342 418
#     4  11  20  38  71  99 126 168 231 300 342 412
#
# _framework density 22.187356999999999
#
# number of rings (size 3 to 8) (size 9 to 14) (size 15 to 20)
#    0.000    1.333    4.667    3.600    0.000    4.267 
#    0.000    0.667    5.867    0.000    0.000    0.000 
#    0.000    0.000    0.000    0.000    0.000    0.000 
#
# Total GULP energy -167240.050938 kJ/mol
# GULP energy per Si atom -5574.668365 kJ/mol
# Density = 2.213686 g / cm^3
# Si number density = 22.187357 Si / 1000 Ang^3
#
#
#
# Elastic Constant Matrix: (Units=GPa)
#
#
# Indices 1 2 3 4 5 6 
#
# 1 95.1547 29.4118 2.4890 0.0000 -6.8587 0.0000
# 2 29.4118 86.1554 12.6494 0.0000 4.0430 0.0000
# 3 2.4890 12.6494 56.7459 0.0000 -7.1818 0.0000
# 4 0.0000 0.0000 0.0000 14.4105 0.0000 4.0372
# 5 -6.8587 4.0430 -7.1818 0.0000 22.2329 0.0000
# 6 0.0000 0.0000 0.0000 4.0372 0.0000 43.4536
#
#
#
# Elastic Compliance Matrix: (Units=1/GPa)
#
#
# Indices 1 2 3 4 5 6 
#
# 1 0.012254 -0.004580 0.001113 0.000000 0.004973 0.000000
# 2 -0.004580 0.013931 -0.003549 0.000000 -0.005093 0.000000
# 3 0.001113 -0.003549 0.019278 0.000000 0.007216 0.000000
# 4 0.000000 0.000000 0.000000 0.071248 0.000000 -0.006620
# 5 0.004973 -0.005093 0.007216 0.000000 0.049769 0.000000
# 6 0.000000 0.000000 0.000000 -0.006620 0.000000 0.023628
#
#
# Mechanical properties :
#
#
# Convention : Reuss Voigt Hill
#
# Bulk Modulus (GPa) = 31.81644 36.35072 34.08358
# Shear Modulus (GPa) = 23.29723 28.91978 26.10851
#
# Velocity S-wave (km/s) = 3.24392 3.61423 3.43407
# Velocity P-wave (km/s) = 5.32933 5.81687 5.57843
#
# Compressibility (1/GPa) = 0.03143029
#
# Stress axis : x y z
#
# Youngs Moduli (GPa) = 81.60460 71.78485 51.87276
#
# Poissons Ratio (x) = 0.32878 -0.05772
# Poissons Ratio (y) = 0.37376 0.18409
# Poissons Ratio (z) = -0.09081 0.25476
#
# Static dielectric constant tensor:
#      x y z
#    x 1.889380 0.000000 0.003950 
#    y 0.000000 1.852560 0.000000 
#    z 0.003950 0.000000 1.898920 
# 
# From -- ./inp_files/198397.got.cif
#   From: 2010.05.17/outbox.cif.g08.bks.cpg/sg15_100_cif.got.tgz:198397.got - 2010.06.03 18:47:42.
