data_PCOD9287339
_publ_section_title
;
Structure prediction by ZEFSAII (Michael W. Deem and Ramdas Pophale) SiO2 
 PCOD9287339
Probable space group: C 2/C
;
_chemical_formula_sum "Si O2"
_cell_formula_units_Z 56
_cell_length_a 14.650063
_cell_length_b 23.102014
_cell_length_c 8.761346
_cell_angle_alpha 90.000000
_cell_angle_beta 106.606720
_cell_angle_gamma 90.000000
_cell_volume 2841.559126
_symmetry_space_group_name_H-M "C 2/C"
_symmetry_group_IT_number 15
_symmetry_cell_setting 'monoclinic'
loop_
_space_group_symop_operation_xyz
x,y,z
-x,y,1/2-z
-x,-y,-z
x,-y,1/2+z
1/2+x,1/2+y,z
1/2-x,1/2+y,1/2-z
1/2-x,1/2-y,-z
1/2+x,1/2-y,1/2+z
loop_
_atom_site_type_symbol
_atom_site_label
_atom_site_fract_x
_atom_site_fract_y
_atom_site_fract_z
Si Si1 0.694426 0.799065 0.567498
Si Si2 0.550267 0.393315 0.940871
Si Si3 0.632357 0.426511 0.480152
Si Si4 0.689733 0.703730 0.068876
Si Si5 0.483126 0.272127 0.424341
Si Si6 0.263316 0.496486 0.216570
Si Si7 0.227528 0.420511 0.453821
O O1 0.750000 0.750000 0.500000
O O2 0.756336 0.809804 0.749100
O O3 0.591399 0.777218 0.570800
O O4 0.689705 0.857338 0.468268
O O5 0.500000 0.389275 0.750000
O O6 0.656121 0.417897 0.979122
O O7 0.476549 0.426521 0.015738
O O8 0.559365 0.330694 0.023973
O O9 0.665338 0.359107 0.482633
O O10 0.656285 0.461603 0.339489
O O11 0.691407 0.458860 0.641209
O O12 0.750000 0.750000 0.000000
O O13 0.587264 0.732967 0.048041
O O14 0.500000 0.276620 0.250000
O O15 0.205803 0.448142 0.281260
O O16 0.200718 0.533775 0.071024
#
# Coordination Sequence:
#
# PCOD9287339 Si02
#       7
#     8   8   8   8   8   8   8
#     4  12  24  40  65  92 126 167 208 261 315 366
#     4  11  21  35  53  82 126 162 201 253 299 367
#     4  10  22  36  56  82 122 163 206 249 308 370
#     4  11  23  41  62  92 128 160 208 261 313 373
#     4  11  24  39  61  92 123 170 204 252 318 378
#     4  10  22  37  55  82 120 168 209 248 303 377
#     4  11  22  38  55  85 119 160 210 253 308 368
#
# _framework density 19.70749
#
# number of rings (size 3 to 8) (size 9 to 14) (size 15 to 20)
#    0.000    1.143    5.714    0.857    6.000    3.429 
#    0.000    0.000    0.000    0.000    0.000   11.000 
#    0.000    0.000    0.000    0.000    0.000    0.000 
#
# Total GULP energy -156446.718015 kJ/mol
# GULP energy per Si atom -5587.382786 kJ/mol
# Density = 1.966264 g / cm^3
# Si number density = 19.707490 Si / 1000 Ang^3
#
#
#
# Elastic Constant Matrix: (Units=GPa)
#
#
# Indices 1 2 3 4 5 6 
#
# 1 61.6420 44.4190 19.7588 0.0000 -0.9914 0.0000
# 2 44.4190 126.9102 36.7142 0.0000 -19.0769 0.0000
# 3 19.7588 36.7142 41.8728 0.0000 -25.7549 0.0000
# 4 0.0000 0.0000 0.0000 31.1245 0.0000 -15.3922
# 5 -0.9914 -19.0769 -25.7549 0.0000 27.5515 0.0000
# 6 0.0000 0.0000 0.0000 -15.3922 0.0000 37.8993
#
#
#
# Elastic Compliance Matrix: (Units=1/GPa)
#
#
# Indices 1 2 3 4 5 6 
#
# 1 0.028046 -0.007112 -0.022131 0.000000 -0.024603 0.000000
# 2 -0.007112 0.012479 -0.005714 0.000000 0.003044 0.000000
# 3 -0.022131 -0.005714 0.085668 0.000000 0.075329 0.000000
# 4 0.000000 0.000000 0.000000 0.040204 0.000000 0.016328
# 5 -0.024603 0.003044 0.075329 0.000000 0.107934 0.000000
# 6 0.000000 0.000000 0.000000 0.016328 0.000000 0.033017
#
#
# Mechanical properties :
#
#
# Convention : Reuss Voigt Hill
#
# Bulk Modulus (GPa) = 17.76872 48.02321 32.89597
# Shear Modulus (GPa) = 12.62557 27.95060 20.28809
#
# Velocity S-wave (km/s) = 2.53385 3.77008 3.21200
# Velocity P-wave (km/s) = 4.19480 6.58576 5.52126
#
# Compressibility (1/GPa) = 0.05627866
#
# Stress axis : x y z
#
# Youngs Moduli (GPa) = 35.65584 80.13261 11.67304
#
# Poissons Ratio (x) = 0.56991 0.25834
# Poissons Ratio (y) = 0.25359 0.06670
# Poissons Ratio (z) = 0.78910 0.45786
#
# Static dielectric constant tensor:
#      x y z
#    x 1.680820 0.000000 -0.021770 
#    y 0.000000 1.729760 0.000000 
#    z -0.021770 0.000000 1.735300 
# 
# From -- ./inp_files/42291.got.cif
#   From: 2010.05.17/outbox.cif.g08.bks.cpg/sg15_22_cif.got.tgz:42291.got - 2010.06.03 18:47:42.
