data_PCOD9287183
_publ_section_title
;
Structure prediction by ZEFSAII (Michael W. Deem and Ramdas Pophale) SiO2 
 PCOD9287183
Probable space group: C 2/C
;
_chemical_formula_sum "Si O2"
_cell_formula_units_Z 56
_cell_length_a 21.518164
_cell_length_b 5.093569
_cell_length_c 24.242813
_cell_angle_alpha 90.000000
_cell_angle_beta 100.201397
_cell_angle_gamma 90.000000
_cell_volume 2615.109844
_symmetry_space_group_name_H-M "C 2/C"
_symmetry_group_IT_number 15
_symmetry_cell_setting 'monoclinic'
loop_
_space_group_symop_operation_xyz
x,y,z
-x,y,1/2-z
-x,-y,-z
x,-y,1/2+z
1/2+x,1/2+y,z
1/2-x,1/2+y,1/2-z
1/2-x,1/2-y,-z
1/2+x,1/2-y,1/2+z
loop_
_atom_site_type_symbol
_atom_site_label
_atom_site_fract_x
_atom_site_fract_y
_atom_site_fract_z
Si Si1 0.009198 0.285727 0.817593
Si Si2 0.216180 0.848487 0.904669
Si Si3 0.373544 0.502011 0.197662
Si Si4 0.234370 0.392912 0.781039
Si Si5 0.565265 0.707116 0.181131
Si Si6 0.302395 0.453428 0.987781
Si Si7 0.676991 0.258111 0.617324
O O1 0.991253 0.582097 0.829229
O O2 0.000000 0.272522 0.750000
O O3 0.960132 0.082660 0.837368
O O4 0.077694 0.156354 0.833494
O O5 0.168350 0.805340 0.846943
O O6 0.260027 0.648924 0.944683
O O7 0.268307 0.047581 0.887699
O O8 0.172945 0.945149 0.950008
O O9 0.329052 0.268698 0.215093
O O10 0.407326 0.661395 0.252437
O O11 0.228390 0.661142 0.746374
O O12 0.280545 0.459316 0.839534
O O13 0.618872 0.804848 0.147670
O O14 0.347089 0.341281 0.947139
O O15 0.250000 0.250000 0.000000
#
# Coordination Sequence:
#
# PCOD9287183 Si02
#       7
#     8   8   8   8   8   8   8
#     4  10  23  40  56  82 122 172 211 246 294 367
#     4   9  20  39  64  90 124 161 203 257 318 378
#     4  10  22  40  62  90 126 172 206 259 304 384
#     4  11  24  35  55  94 129 159 194 252 320 381
#     4  11  23  38  59  88 126 162 209 252 307 366
#     4   9  19  39  58  94 121 160 208 248 320 378
#     4  10  22  33  59  89 124 163 196 262 317 377
#
# _framework density 21.414016
#
# number of rings (size 3 to 8) (size 9 to 14) (size 15 to 20)
#    0.000    2.000    1.429    1.286   10.000    1.143 
#   15.429    0.000    0.000    1.714    0.000    0.000 
#    0.000    0.000    0.000    0.000    0.000    0.000 
#
# Total GULP energy -155916.320278 kJ/mol
# GULP energy per Si atom -5568.440010 kJ/mol
# Density = 2.136528 g / cm^3
# Si number density = 21.414016 Si / 1000 Ang^3
#
#
#
# Elastic Constant Matrix: (Units=GPa)
#
#
# Indices 1 2 3 4 5 6 
#
# 1 68.1655 3.5347 23.1047 0.0000 -15.3869 0.0000
# 2 3.5347 65.3072 21.7472 0.0000 -3.5207 0.0000
# 3 23.1047 21.7472 108.0786 0.0000 -20.3812 0.0000
# 4 0.0000 0.0000 0.0000 28.2207 0.0000 4.2857
# 5 -15.3869 -3.5207 -20.3812 0.0000 23.0349 0.0000
# 6 0.0000 0.0000 0.0000 4.2857 0.0000 22.1816
#
#
#
# Elastic Compliance Matrix: (Units=1/GPa)
#
#
# Indices 1 2 3 4 5 6 
#
# 1 0.017582 0.000225 -0.001900 0.000000 0.010098 0.000000
# 2 0.000225 0.016420 -0.003421 0.000000 -0.000367 0.000000
# 3 -0.001900 -0.003421 0.012014 0.000000 0.008838 0.000000
# 4 0.000000 0.000000 0.000000 0.036506 0.000000 -0.007053
# 5 0.010098 -0.000367 0.008838 0.000000 0.057921 0.000000
# 6 0.000000 0.000000 0.000000 -0.007053 0.000000 0.046445
#
#
# Mechanical properties :
#
#
# Convention : Reuss Voigt Hill
#
# Bulk Modulus (GPa) = 27.91439 37.59161 32.75300
# Shear Modulus (GPa) = 23.92118 27.56509 25.74314
#
# Velocity S-wave (km/s) = 3.34590 3.59171 3.47098
# Velocity P-wave (km/s) = 5.29062 5.89859 5.60285
#
# Compressibility (1/GPa) = 0.03582382
#
# Stress axis : x y z
#
# Youngs Moduli (GPa) = 56.87709 60.90302 83.23863
#
# Poissons Ratio (x) = -0.01373 0.15813
# Poissons Ratio (y) = -0.01282 0.28478
# Poissons Ratio (z) = 0.10805 0.20837
#
# Static dielectric constant tensor:
#      x y z
#    x 1.842940 0.000000 -0.067840 
#    y 0.000000 1.833000 0.000000 
#    z -0.067840 0.000000 1.700350 
# 
# From -- ./inp_files/278665.got.cif
#   From: 2010.05.17/outbox.cif.g08.bks.cpg/sg15_140_cif.got.tgz:278665.got - 2010.06.03 18:47:42.
