data_PCOD9287596
_publ_section_title
;
Structure prediction by ZEFSAII (Michael W. Deem and Ramdas Pophale) SiO2 
 PCOD9287596
Probable space group: C 2/C
;
_chemical_formula_sum "Si O2"
_cell_formula_units_Z 52
_cell_length_a 14.949635
_cell_length_b 21.249287
_cell_length_c 8.884942
_cell_angle_alpha 90.000000
_cell_angle_beta 53.975608
_cell_angle_gamma 90.000000
_cell_volume 2282.720842
_symmetry_space_group_name_H-M "C 2/C"
_symmetry_group_IT_number 15
_symmetry_cell_setting 'monoclinic'
loop_
_space_group_symop_operation_xyz
x,y,z
-x,y,1/2-z
-x,-y,-z
x,-y,1/2+z
1/2+x,1/2+y,z
1/2-x,1/2+y,1/2-z
1/2-x,1/2-y,-z
1/2+x,1/2-y,1/2+z
loop_
_atom_site_type_symbol
_atom_site_label
_atom_site_fract_x
_atom_site_fract_y
_atom_site_fract_z
Si Si1 0.519031 0.080994 0.898953
Si Si2 0.360627 0.649240 0.646675
Si Si3 0.781566 0.587077 0.276452
Si Si4 0.364849 0.213292 0.713103
Si Si5 0.845795 0.205657 0.972262
Si Si6 0.276867 0.968217 0.116803
Si Si7 0.000000 0.190271 0.250000
O O1 0.500000 0.053057 0.750000
O O2 0.578973 0.147216 0.810814
O O3 0.603582 0.041564 0.919916
O O4 0.406848 0.098096 0.097751
O O5 0.262576 0.695905 0.688041
O O6 0.396291 0.672729 0.776075
O O7 0.304433 0.581721 0.724844
O O8 0.458243 0.650093 0.431148
O O9 0.712072 0.650615 0.370678
O O10 0.738047 0.538614 0.192873
O O11 0.782809 0.551132 0.436434
O O12 0.410059 0.245919 0.515283
O O13 0.400214 0.263473 0.801489
O O14 0.750000 0.250000 0.000000
#
# Coordination Sequence:
#
# PCOD9287596 Si02
#       7
#     8   8   8   8   8   8   4
#     4  11  22  36  57  94 128 164 200 253 314 383
#     4   9  22  41  58  88 121 162 209 258 311 364
#     4  11  22  39  65  88 120 172 204 255 318 368
#     4  10  22  37  58  89 128 158 208 259 305 376
#     4   9  21  40  61  87 124 163 208 259 307 373
#     4  10  22  40  59  88 123 157 210 258 306 373
#     4  12  22  36  62  90 124 166 202 258 314 372
#
# _framework density 22.779831999999999
#
# number of rings (size 3 to 8) (size 9 to 14) (size 15 to 20)
#    0.000    1.846    0.769    3.231    4.308    4.308 
#    5.538    0.000    0.000    8.308    0.000    0.000 
#    0.000    0.000    0.000    0.000    0.000    0.000 
#
# Total GULP energy -145286.802135 kJ/mol
# GULP energy per Si atom -5587.953928 kJ/mol
# Density = 2.272798 g / cm^3
# Si number density = 22.779832 Si / 1000 Ang^3
#
#
#
# Elastic Constant Matrix: (Units=GPa)
#
#
# Indices 1 2 3 4 5 6 
#
# 1 59.8374 11.3268 0.2386 0.0000 5.9382 0.0000
# 2 11.3268 52.8563 23.4785 0.0000 0.8193 0.0000
# 3 0.2386 23.4785 116.8458 0.0000 -8.8610 0.0000
# 4 0.0000 0.0000 0.0000 33.4660 0.0000 10.7723
# 5 5.9382 0.8193 -8.8610 0.0000 25.5430 0.0000
# 6 0.0000 0.0000 0.0000 10.7723 0.0000 24.2582
#
#
#
# Elastic Compliance Matrix: (Units=1/GPa)
#
#
# Indices 1 2 3 4 5 6 
#
# 1 0.017845 -0.003973 0.000469 0.000000 -0.003858 0.000000
# 2 -0.003973 0.021776 -0.004468 0.000000 -0.001325 0.000000
# 3 0.000469 -0.004468 0.009713 0.000000 0.003404 0.000000
# 4 0.000000 0.000000 0.000000 0.034865 0.000000 -0.015482
# 5 -0.003858 -0.001325 0.003404 0.000000 0.041270 0.000000
# 6 0.000000 0.000000 0.000000 -0.015482 0.000000 0.048098
#
#
# Mechanical properties :
#
#
# Convention : Reuss Voigt Hill
#
# Bulk Modulus (GPa) = 29.94801 33.29192 31.61997
# Shear Modulus (GPa) = 24.92026 29.61982 27.27004
#
# Velocity S-wave (km/s) = 3.31110 3.60983 3.46369
# Velocity P-wave (km/s) = 5.27191 5.65870 5.46873
#
# Compressibility (1/GPa) = 0.03339120
#
# Stress axis : x y z
#
# Youngs Moduli (GPa) = 56.03813 45.92284 102.95260
#
# Poissons Ratio (x) = 0.18244 -0.04831
# Poissons Ratio (y) = 0.22262 0.45998
# Poissons Ratio (z) = -0.02629 0.20518
#
# Static dielectric constant tensor:
#      x y z
#    x 1.901860 0.000000 0.008830 
#    y 0.000000 1.829380 0.000000 
#    z 0.008830 0.000000 1.853250 
# 
# From -- ./inp_files/50588.got.cif
#   From: 2010.05.17/outbox.cif.g08.bks.cpg/sg15_26_cif.got.tgz:50588.got - 2010.06.03 18:47:42.
