data_PCOD9287953
_publ_section_title
;
Structure prediction by ZEFSAII (Michael W. Deem and Ramdas Pophale) SiO2 
 PCOD9287953
Probable space group: C 2/C
;
_chemical_formula_sum "Si O2"
_cell_formula_units_Z 32
_cell_length_a 17.475192
_cell_length_b 8.038695
_cell_length_c 11.709905
_cell_angle_alpha 90.000000
_cell_angle_beta 126.775813
_cell_angle_gamma 90.000000
_cell_volume 1317.603724
_symmetry_space_group_name_H-M "C 2/C"
_symmetry_group_IT_number 15
_symmetry_cell_setting 'monoclinic'
loop_
_space_group_symop_operation_xyz
x,y,z
-x,y,1/2-z
-x,-y,-z
x,-y,1/2+z
1/2+x,1/2+y,z
1/2-x,1/2+y,1/2-z
1/2-x,1/2-y,-z
1/2+x,1/2-y,1/2+z
loop_
_atom_site_type_symbol
_atom_site_label
_atom_site_fract_x
_atom_site_fract_y
_atom_site_fract_z
Si Si1 0.849092 0.737443 0.021052
Si Si2 0.923756 0.578665 0.516161
Si Si3 0.729302 0.730558 0.299240
Si Si4 0.375344 0.404644 0.577363
O O1 0.900330 0.562308 0.088993
O O2 0.824191 0.735877 0.864570
O O3 0.906978 0.906092 0.096271
O O4 0.750000 0.750000 0.000000
O O5 0.823584 0.618577 0.363068
O O6 0.943662 0.759213 0.589883
O O7 0.000000 0.500000 0.500000
O O8 0.661590 0.640179 0.330050
O O9 0.779950 0.883079 0.412198
#
# Coordination Sequence:
#
# PCOD9287953 Si02
#       4
#     8   8   8   8
#     4  12  20  36  65  85 113 166 203 231 296 367
#     4  10  22  38  60  92 123 147 195 260 298 339
#     4   9  19  39  58  87 119 151 201 246 283 360
#     4   9  20  37  59  83 118 153 203 236 290 358
#
# _framework density 24.286514
#
# number of rings (size 3 to 8) (size 9 to 14) (size 15 to 20)
#    1.500    0.500    2.500    1.500    0.000    1.000 
#    0.000    5.000    0.000    3.000    0.000    0.000 
#    0.000    0.000    0.000    0.000    0.000    0.000 
#
# Total GULP energy -89333.818117 kJ/mol
# GULP energy per Si atom -5583.363632 kJ/mol
# Density = 2.423124 g / cm^3
# Si number density = 24.286514 Si / 1000 Ang^3
#
#
#
# Elastic Constant Matrix: (Units=GPa)
#
#
# Indices 1 2 3 4 5 6 
#
# 1 116.7251 33.9886 17.5920 0.0000 -11.5762 0.0000
# 2 33.9886 171.3387 -9.6184 0.0000 6.2874 0.0000
# 3 17.5920 -9.6184 106.0811 0.0000 1.6613 0.0000
# 4 0.0000 0.0000 0.0000 4.9706 0.0000 -8.5230
# 5 -11.5762 6.2874 1.6613 0.0000 33.9456 0.0000
# 6 0.0000 0.0000 0.0000 -8.5230 0.0000 34.6068
#
#
#
# Elastic Compliance Matrix: (Units=1/GPa)
#
#
# Indices 1 2 3 4 5 6 
#
# 1 0.009881 -0.002209 -0.001899 0.000000 0.003872 0.000000
# 2 -0.002209 0.006402 0.000978 0.000000 -0.001987 0.000000
# 3 -0.001899 0.000978 0.009851 0.000000 -0.001311 0.000000
# 4 0.000000 0.000000 0.000000 0.348245 0.000000 0.085766
# 5 0.003872 -0.001987 -0.001311 0.000000 0.031211 0.000000
# 6 0.000000 0.000000 0.000000 0.085766 0.000000 0.050019
#
#
# Mechanical properties :
#
#
# Convention : Reuss Voigt Hill
#
# Bulk Modulus (GPa) = 50.31871 53.11882 51.71876
# Shear Modulus (GPa) = 10.67251 38.18345 24.42798
#
# Velocity S-wave (km/s) = 2.09856 3.96941 3.17491
# Velocity P-wave (km/s) = 5.16098 6.55191 5.89759
#
# Compressibility (1/GPa) = 0.01987332
#
# Stress axis : x y z
#
# Youngs Moduli (GPa) = 101.20944 156.19286 101.51311
#
# Poissons Ratio (x) = 0.34498 0.19282
# Poissons Ratio (y) = 0.22354 -0.09927
# Poissons Ratio (z) = 0.19224 -0.15274
#
# Static dielectric constant tensor:
#      x y z
#    x 1.940670 0.000000 0.063500 
#    y 0.000000 1.924430 0.000000 
#    z 0.063500 0.000000 1.919780 
# 
# From -- ./inp_files/102249.got.cif
#   From: 2010.05.17/outbox.cif.g08.bks.cpg/sg15_52_cif.got.tgz:102249.got - 2010.06.03 18:47:42.
