data_PCOD9287086
_publ_section_title
;
Structure prediction by ZEFSAII (Michael W. Deem and Ramdas Pophale) SiO2 
 PCOD9287086
Probable space group: C 2/C
;
_chemical_formula_sum "Si O2"
_cell_formula_units_Z 44
_cell_length_a 14.502520
_cell_length_b 13.364297
_cell_length_c 8.869384
_cell_angle_alpha 90.000000
_cell_angle_beta 68.932564
_cell_angle_gamma 90.000000
_cell_volume 1604.125076
_symmetry_space_group_name_H-M "C 2/C"
_symmetry_group_IT_number 15
_symmetry_cell_setting 'monoclinic'
loop_
_space_group_symop_operation_xyz
x,y,z
-x,y,1/2-z
-x,-y,-z
x,-y,1/2+z
1/2+x,1/2+y,z
1/2-x,1/2+y,1/2-z
1/2-x,1/2-y,-z
1/2+x,1/2-y,1/2+z
loop_
_atom_site_type_symbol
_atom_site_label
_atom_site_fract_x
_atom_site_fract_y
_atom_site_fract_z
Si Si1 0.764360 0.386693 0.325065
Si Si2 0.000000 0.104114 0.250000
Si Si3 0.090776 0.309273 0.790082
Si Si4 0.972848 0.601865 0.594269
Si Si5 0.233048 0.851621 0.664584
Si Si6 0.935873 0.912429 0.152474
O O1 0.856012 0.385884 0.160311
O O2 0.739715 0.267874 0.354137
O O3 0.776871 0.410767 0.494304
O O4 0.674206 0.452203 0.312880
O O5 0.885115 0.143007 0.287949
O O6 0.983355 0.095328 0.460477
O O7 0.192439 0.371298 0.736370
O O8 0.092212 0.192200 0.746604
O O9 0.000000 0.356368 0.750000
O O10 0.039081 0.312175 0.983503
O O11 0.000000 0.599050 0.750000
O O12 0.000000 0.500000 0.500000
O O13 0.000000 0.970227 0.250000
#
# Coordination Sequence:
#
# PCOD9287086 Si02
#       6
#     8   4   8   8   8   8
#     4  10  22  41  66 101 147 193 246 302 375 446
#     4  10  22  40  72 108 142 190 246 306 364 446
#     4  10  21  46  72 103 150 193 242 305 375 443
#     4  12  26  43  71 105 141 194 249 303 364 446
#     4  10  22  40  71 106 145 196 247 305 370 447
#     4   8  20  41  65  96 144 184 234 303 366 428
#
# _framework density 27.429279999999999
#
# number of rings (size 3 to 8) (size 9 to 14) (size 15 to 20)
#    0.545    1.455    1.818    0.545    3.818    0.727 
#    0.000   10.000    0.000    0.000    0.000    0.000 
#    0.000    0.000    0.000    0.000    0.000    0.000 
#
# Total GULP energy -122502.469723 kJ/mol
# GULP energy per Si atom -5568.294078 kJ/mol
# Density = 2.736685 g / cm^3
# Si number density = 27.429280 Si / 1000 Ang^3
#
#
#
# Elastic Constant Matrix: (Units=GPa)
#
#
# Indices 1 2 3 4 5 6 
#
# 1 257.1401 39.8614 59.2737 0.0000 13.4774 0.0000
# 2 39.8614 86.4897 10.4108 0.0000 4.4676 0.0000
# 3 59.2737 10.4108 61.9228 0.0000 -18.4559 0.0000
# 4 0.0000 0.0000 0.0000 16.8048 0.0000 -2.6312
# 5 13.4774 4.4676 -18.4559 0.0000 60.3859 0.0000
# 6 0.0000 0.0000 0.0000 -2.6312 0.0000 44.9747
#
#
#
# Elastic Compliance Matrix: (Units=1/GPa)
#
#
# Indices 1 2 3 4 5 6 
#
# 1 0.005718 -0.001749 -0.006074 0.000000 -0.003003 0.000000
# 2 -0.001749 0.012483 -0.000642 0.000000 -0.000729 0.000000
# 3 -0.006074 -0.000642 0.024743 0.000000 0.008966 0.000000
# 4 0.000000 0.000000 0.000000 0.060057 0.000000 0.003514
# 5 -0.003003 -0.000729 0.008966 0.000000 0.020025 0.000000
# 6 0.000000 0.000000 0.000000 0.003514 0.000000 0.022440
#
#
# Mechanical properties :
#
#
# Convention : Reuss Voigt Hill
#
# Bulk Modulus (GPa) = 38.44065 69.40493 53.92279
# Shear Modulus (GPa) = 29.22832 44.16687 36.69759
#
# Velocity S-wave (km/s) = 3.26788 4.01709 3.66170
# Velocity P-wave (km/s) = 5.31823 6.84647 6.13016
#
# Compressibility (1/GPa) = 0.02601413
#
# Stress axis : x y z
#
# Youngs Moduli (GPa) = 174.89956 80.10859 40.41476
#
# Poissons Ratio (x) = 0.14010 0.24548
# Poissons Ratio (y) = 0.30587 0.02595
# Poissons Ratio (z) = 1.06234 0.05144
#
# Static dielectric constant tensor:
#      x y z
#    x 3.818040 0.000000 -1.652770 
#    y 0.000000 2.381500 0.000000 
#    z -1.652770 0.000000 4.529260 
# 
# From -- ./inp_files/39059.got.cif
#   From: 2010.05.17/outbox.cif.g08.bks.cpg/sg15_20_cif.got.tgz:39059.got - 2010.06.03 18:47:42.
