data_PCOD9287733
_publ_section_title
;
Structure prediction by ZEFSAII (Michael W. Deem and Ramdas Pophale) SiO2 
 PCOD9287733
Probable space group: C 2/C
;
_chemical_formula_sum "Si O2"
_cell_formula_units_Z 36
_cell_length_a 32.151448
_cell_length_b 9.308842
_cell_length_c 9.090262
_cell_angle_alpha 90.000000
_cell_angle_beta 152.815393
_cell_angle_gamma 90.000000
_cell_volume 1242.953108
_symmetry_space_group_name_H-M "C 2/C"
_symmetry_group_IT_number 15
_symmetry_cell_setting 'monoclinic'
loop_
_space_group_symop_operation_xyz
x,y,z
-x,y,1/2-z
-x,-y,-z
x,-y,1/2+z
1/2+x,1/2+y,z
1/2-x,1/2+y,1/2-z
1/2-x,1/2-y,-z
1/2+x,1/2-y,1/2+z
loop_
_atom_site_type_symbol
_atom_site_label
_atom_site_fract_x
_atom_site_fract_y
_atom_site_fract_z
Si Si1 0.127102 0.077356 0.876689
Si Si2 0.000000 0.817997 0.750000
Si Si3 0.637211 0.055425 0.661919
Si Si4 0.013998 0.702255 0.487400
Si Si5 0.738029 0.147025 0.701898
O O1 0.050600 0.155733 0.736323
O O2 0.288023 0.313315 0.870363
O O3 0.078109 0.085457 0.565974
O O4 0.165994 0.923496 0.038254
O O5 0.030742 0.716940 0.712759
O O6 0.603503 0.174607 0.674382
O O7 0.553367 0.075650 0.281452
O O8 0.718907 0.090996 0.807825
O O9 0.667908 0.921524 0.859630
#
# Coordination Sequence:
#
# PCOD9287733 Si02
#       5
#     8   4   8   8   8
#     4   9  22  43  73 103 145 184 250 292 371 424
#     4   8  18  42  72  98 138 200 244 282 350 468
#     4  10  22  37  66 102 144 178 245 294 359 414
#     4   8  19  38  66 103 131 188 242 294 331 445
#     4  11  24  41  68 111 144 186 233 320 358 426
#
# _framework density 28.963280999999998
#
# number of rings (size 3 to 8) (size 9 to 14) (size 15 to 20)
#    1.333    1.333    0.000    0.000    3.111   14.222 
#    0.000    0.000    0.000    9.333    0.000   24.889 
#    0.000    0.222    0.000    0.000    0.000    0.000 
#
# Total GULP energy -100590.595866 kJ/mol
# GULP energy per Si atom -5588.366437 kJ/mol
# Density = 2.889736 g / cm^3
# Si number density = 28.963281 Si / 1000 Ang^3
#
#
#
# Elastic Constant Matrix: (Units=GPa)
#
#
# Indices 1 2 3 4 5 6 
#
# 1 148.8610 46.9986 60.0546 0.0000 -6.3907 0.0000
# 2 46.9986 143.3651 39.2109 0.0000 4.8381 0.0000
# 3 60.0546 39.2109 138.0923 0.0000 -14.4903 0.0000
# 4 0.0000 0.0000 0.0000 48.0710 0.0000 10.7420
# 5 -6.3907 4.8381 -14.4903 0.0000 52.9830 0.0000
# 6 0.0000 0.0000 0.0000 10.7420 0.0000 51.6494
#
#
#
# Elastic Compliance Matrix: (Units=1/GPa)
#
#
# Indices 1 2 3 4 5 6 
#
# 1 0.008630 -0.001979 -0.003154 0.000000 0.000359 0.000000
# 2 -0.001979 0.008106 -0.001590 0.000000 -0.001414 0.000000
# 3 -0.003154 -0.001590 0.009307 0.000000 0.002310 0.000000
# 4 0.000000 0.000000 0.000000 0.021816 0.000000 -0.004537
# 5 0.000359 -0.001414 0.002310 0.000000 0.019678 0.000000
# 6 0.000000 0.000000 0.000000 -0.004537 0.000000 0.020305
#
#
# Mechanical properties :
#
#
# Convention : Reuss Voigt Hill
#
# Bulk Modulus (GPa) = 79.36906 80.31628 79.84267
# Shear Modulus (GPa) = 47.39951 49.47764 48.43857
#
# Velocity S-wave (km/s) = 4.04980 4.13763 4.09395
# Velocity P-wave (km/s) = 7.02358 7.11458 7.06923
#
# Compressibility (1/GPa) = 0.01259937
#
# Stress axis : x y z
#
# Youngs Moduli (GPa) = 115.87405 123.36025 107.44910
#
# Poissons Ratio (x) = 0.24410 0.33885
# Poissons Ratio (y) = 0.22929 0.17080
# Poissons Ratio (z) = 0.36542 0.19609
#
# Static dielectric constant tensor:
#      x y z
#    x 2.163970 0.000000 0.023780 
#    y 0.000000 2.218900 0.000000 
#    z 0.023780 0.000000 2.333670 
# 
# From -- ./inp_files/68918.got.cif
#   From: 2010.05.17/outbox.cif.g08.bks.cpg/sg15_35_cif.got.tgz:68918.got - 2010.06.03 18:47:42.
