data_PCOD9287272
_publ_section_title
;
Structure prediction by ZEFSAII (Michael W. Deem and Ramdas Pophale) SiO2 
 PCOD9287272
Probable space group: C 2/C
;
_chemical_formula_sum "Si O2"
_cell_formula_units_Z 40
_cell_length_a 17.962505
_cell_length_b 5.270699
_cell_length_c 24.316219
_cell_angle_alpha 90.000000
_cell_angle_beta 119.547835
_cell_angle_gamma 90.000000
_cell_volume 2002.730905
_symmetry_space_group_name_H-M "C 2/C"
_symmetry_group_IT_number 15
_symmetry_cell_setting 'monoclinic'
loop_
_space_group_symop_operation_xyz
x,y,z
-x,y,1/2-z
-x,-y,-z
x,-y,1/2+z
1/2+x,1/2+y,z
1/2-x,1/2+y,1/2-z
1/2-x,1/2-y,-z
1/2+x,1/2-y,1/2+z
loop_
_atom_site_type_symbol
_atom_site_label
_atom_site_fract_x
_atom_site_fract_y
_atom_site_fract_z
Si Si1 0.074488 0.050545 0.821187
Si Si2 0.318112 0.929456 0.127589
Si Si3 0.133463 0.820901 0.060771
Si Si4 0.821670 0.537963 0.011316
Si Si5 0.026717 0.900103 0.425616
O O1 0.130445 0.308555 0.846052
O O2 0.031966 0.998388 0.865673
O O3 0.000000 0.085078 0.750000
O O4 0.133174 0.807577 0.827991
O O5 0.219465 0.968692 0.108123
O O6 0.311953 0.853752 0.060067
O O7 0.066450 0.829258 0.085687
O O8 0.172958 0.564171 0.048720
O O9 0.078094 0.929294 0.989035
O O10 0.915752 0.650503 0.053745
O O11 0.750000 0.750000 0.000000
#
# Coordination Sequence:
#
# PCOD9287272 Si02
#       5
#     8   8   8   8   8
#     4  11  24  44  62  85 117 168 213 254 298 369
#     4  11  22  38  64  89 118 159 208 252 304 373
#     4  11  20  36  57  95 123 154 196 257 327 362
#     4  11  19  34  57  90 127 161 196 244 316 383
#     4  10  22  35  58  89 127 157 195 258 310 374
#
# _framework density 19.972728
#
# number of rings (size 3 to 8) (size 9 to 14) (size 15 to 20)
#    0.000    1.200    4.000    4.200    0.000    0.000 
#    0.000    2.000    0.000    0.000    0.000    0.000 
#    0.000    0.000    0.000    0.000    0.000    0.000 
#
# Total GULP energy -111445.613749 kJ/mol
# GULP energy per Si atom -5572.280687 kJ/mol
# Density = 1.992727 g / cm^3
# Si number density = 19.972728 Si / 1000 Ang^3
#
#
#
# Elastic Constant Matrix: (Units=GPa)
#
#
# Indices 1 2 3 4 5 6 
#
# 1 203.1111 46.6591 49.6464 -0.0001 18.1538 -0.0001
# 2 46.6591 78.9910 22.4297 -0.0005 15.5487 -0.0003
# 3 49.6464 22.4297 92.5139 -0.0001 19.3414 0.0000
# 4 -0.0001 -0.0005 -0.0001 24.9684 0.0001 8.0999
# 5 18.1538 15.5487 19.3414 0.0001 21.6489 -0.0001
# 6 -0.0001 -0.0003 0.0000 8.0999 -0.0001 20.4897
#
#
#
# Elastic Compliance Matrix: (Units=1/GPa)
#
#
# Indices 1 2 3 4 5 6 
#
# 1 0.006261 -0.002793 -0.002465 0.000000 -0.001042 0.000000
# 2 -0.002793 0.016204 -0.000598 0.000000 -0.008762 0.000000
# 3 -0.002465 -0.000598 0.014455 0.000000 -0.010418 0.000000
# 4 0.000000 0.000000 0.000000 0.045942 -0.000001 -0.018162
# 5 -0.001042 -0.008762 -0.010418 -0.000001 0.062665 0.000000
# 6 0.000000 0.000000 0.000000 -0.018162 0.000000 0.055985
#
#
# Mechanical properties :
#
#
# Convention : Reuss Voigt Hill
#
# Bulk Modulus (GPa) = 39.67018 68.00959 53.83989
# Shear Modulus (GPa) = 22.56051 30.48012 26.52031
#
# Velocity S-wave (km/s) = 3.36455 3.91075 3.64789
# Velocity P-wave (km/s) = 5.91598 7.38357 6.69014
#
# Compressibility (1/GPa) = 0.02520785
#
# Stress axis : x y z
#
# Youngs Moduli (GPa) = 159.72856 61.71310 69.18114
#
# Poissons Ratio (x) = 0.17237 0.17051
# Poissons Ratio (y) = 0.44615 0.04137
# Poissons Ratio (z) = 0.39368 0.03690
#
# Static dielectric constant tensor:
#      x y z
#    x 1.717170 0.000000 -0.000320 
#    y 0.000000 1.853730 0.000000 
#    z -0.000320 0.000000 1.711010 
# 
# From -- ./inp_files/246227.got.cif
#   From: 2010.05.17/outbox.cif.g08.bks.cpg/sg15_124_cif.got.tgz:246227.got - 2010.06.03 18:47:42.
