data_PCOD9287638
_publ_section_title
;
Structure prediction by ZEFSAII (Michael W. Deem and Ramdas Pophale) SiO2 
 PCOD9287638
Probable space group: C 2/C
;
_chemical_formula_sum "Si O2"
_cell_formula_units_Z 56
_cell_length_a 29.139500
_cell_length_b 7.548310
_cell_length_c 9.835145
_cell_angle_alpha 90.000000
_cell_angle_beta 76.699085
_cell_angle_gamma 90.000000
_cell_volume 2105.249743
_symmetry_space_group_name_H-M "C 2/C"
_symmetry_group_IT_number 15
_symmetry_cell_setting 'monoclinic'
loop_
_space_group_symop_operation_xyz
x,y,z
-x,y,1/2-z
-x,-y,-z
x,-y,1/2+z
1/2+x,1/2+y,z
1/2-x,1/2+y,1/2-z
1/2-x,1/2-y,-z
1/2+x,1/2-y,1/2+z
loop_
_atom_site_type_symbol
_atom_site_label
_atom_site_fract_x
_atom_site_fract_y
_atom_site_fract_z
Si Si1 0.492285 0.752830 0.905705
Si Si2 0.197549 0.321301 0.275026
Si Si3 0.039405 0.341633 0.125434
Si Si4 0.610277 0.331800 0.974600
Si Si5 0.274164 0.517167 0.884640
Si Si6 0.640026 0.026282 0.595149
Si Si7 0.828272 0.857202 0.091965
O O1 0.500000 0.676075 0.750000
O O2 0.445224 0.677009 0.006638
O O3 0.479145 0.958725 0.890871
O O4 0.535686 0.749966 0.980293
O O5 0.147989 0.224164 0.334761
O O6 0.225984 0.379290 0.388527
O O7 0.179810 0.469540 0.183338
O O8 0.230093 0.178648 0.177782
O O9 0.089960 0.375622 0.157960
O O10 0.000000 0.258961 0.250000
O O11 0.625518 0.532643 0.986627
O O12 0.623981 0.173174 0.070255
O O13 0.290633 0.469769 0.024513
O O14 0.312079 0.614207 0.758716
O O15 0.661326 0.157195 0.463341
#
# Coordination Sequence:
#
# PCOD9287638 Si02
#       7
#     8   8   8   8   8   8   8
#     4   9  18  33  56  87 116 147 192 239 284 347
#     4  10  23  38  58  90 118 154 203 246 293 351
#     4   9  17  33  57  82 116 152 188 237 293 343
#     4  10  22  38  61  86 121 158 195 242 297 351
#     4  10  24  39  62  83 121 158 196 252 294 343
#     4  10  22  37  61  87 116 159 200 240 293 357
#     4  10  24  42  57  89 123 155 195 254 291 344
#
# _framework density 26.600168
#
# number of rings (size 3 to 8) (size 9 to 14) (size 15 to 20)
#    0.000    2.286    0.000    0.857    6.000    6.857 
#    0.000    1.429    0.000    0.000    0.000    0.000 
#    0.000    0.000    0.000    0.000    0.000    0.000 
#
# Total GULP energy -156306.647686 kJ/mol
# GULP energy per Si atom -5582.380274 kJ/mol
# Density = 2.653962 g / cm^3
# Si number density = 26.600168 Si / 1000 Ang^3
#
#
#
# Elastic Constant Matrix: (Units=GPa)
#
#
# Indices 1 2 3 4 5 6 
#
# 1 135.8593 19.7347 23.5171 0.0000 3.6122 0.0000
# 2 19.7347 99.2377 13.3960 0.0000 2.7941 0.0000
# 3 23.5171 13.3960 75.8879 0.0000 -6.1428 0.0000
# 4 0.0000 0.0000 0.0000 21.2805 0.0000 1.4116
# 5 3.6122 2.7941 -6.1428 0.0000 36.1543 0.0000
# 6 0.0000 0.0000 0.0000 1.4116 0.0000 27.6604
#
#
#
# Elastic Compliance Matrix: (Units=1/GPa)
#
#
# Indices 1 2 3 4 5 6 
#
# 1 0.007975 -0.001239 -0.002342 0.000000 -0.001099 0.000000
# 2 -0.001239 0.010560 -0.001558 0.000000 -0.000957 0.000000
# 3 -0.002342 -0.001558 0.014405 0.000000 0.002802 0.000000
# 4 0.000000 0.000000 0.000000 0.047151 0.000000 -0.002406
# 5 -0.001099 -0.000957 0.002802 0.000000 0.028319 0.000000
# 6 0.000000 0.000000 0.000000 -0.002406 0.000000 0.036276
#
#
# Mechanical properties :
#
#
# Convention : Reuss Voigt Hill
#
# Bulk Modulus (GPa) = 44.12345 47.14227 45.63286
# Shear Modulus (GPa) = 30.76604 33.97485 32.37044
#
# Velocity S-wave (km/s) = 3.40459 3.57773 3.49223
# Velocity P-wave (km/s) = 5.66380 5.90152 5.78388
#
# Compressibility (1/GPa) = 0.02266369
#
# Stress axis : x y z
#
# Youngs Moduli (GPa) = 125.39066 94.69328 69.42151
#
# Poissons Ratio (x) = 0.11732 0.16256
# Poissons Ratio (y) = 0.15535 0.10814
# Poissons Ratio (z) = 0.29362 0.14750
#
# Static dielectric constant tensor:
#      x y z
#    x 2.067250 0.000000 -0.029650 
#    y 0.000000 2.131710 0.000000 
#    z -0.029650 0.000000 2.165510 
# 
# From -- ./inp_files/121848.got.cif
#   From: 2010.05.17/outbox.cif.g08.bks.cpg/sg15_61_cif.got.tgz:121848.got - 2010.06.03 18:47:42.
