data_PCOD9287342
_publ_section_title
;
Structure prediction by ZEFSAII (Michael W. Deem and Ramdas Pophale) SiO2 
 PCOD9287342
Probable space group: C 2/C
;
_chemical_formula_sum "Si O2"
_cell_formula_units_Z 64
_cell_length_a 17.362484
_cell_length_b 5.469899
_cell_length_c 27.516786
_cell_angle_alpha 90.000000
_cell_angle_beta 75.817824
_cell_angle_gamma 90.000000
_cell_volume 2533.648524
_symmetry_space_group_name_H-M "C 2/C"
_symmetry_group_IT_number 15
_symmetry_cell_setting 'monoclinic'
loop_
_space_group_symop_operation_xyz
x,y,z
-x,y,1/2-z
-x,-y,-z
x,-y,1/2+z
1/2+x,1/2+y,z
1/2-x,1/2+y,1/2-z
1/2-x,1/2-y,-z
1/2+x,1/2-y,1/2+z
loop_
_atom_site_type_symbol
_atom_site_label
_atom_site_fract_x
_atom_site_fract_y
_atom_site_fract_z
Si Si1 0.257678 0.132368 0.647592
Si Si2 0.817745 0.790793 0.029612
Si Si3 0.613757 0.885037 0.817205
Si Si4 0.613326 0.772238 0.450801
Si Si5 0.014421 0.681539 0.603748
Si Si6 0.998636 0.974286 0.198136
Si Si7 0.172068 0.248479 0.113246
Si Si8 0.627236 0.059934 0.209947
O O1 0.303189 0.918072 0.669431
O O2 0.191524 0.036960 0.619297
O O3 0.329227 0.244272 0.605523
O O4 0.209833 0.292696 0.692963
O O5 0.867130 0.541576 0.031081
O O6 0.759527 0.832797 0.084924
O O7 0.866694 0.042647 0.017857
O O8 0.750000 0.750000 0.000000
O O9 0.589457 0.623263 0.800418
O O10 0.614290 0.031340 0.766473
O O11 0.542049 0.973224 0.863740
O O12 0.526403 0.753957 0.440615
O O13 0.108686 0.647248 0.584520
O O14 0.017172 0.889492 0.645198
O O15 0.057090 0.741991 0.201265
O O16 0.000000 0.108996 0.250000
O O17 0.140200 0.348258 0.169128
#
# Coordination Sequence:
#
# PCOD9287342 Si02
#       8
#     8   8   8   8   8   8   8   8
#     4  10  22  39  54  90 122 168 216 264 319 374
#     4  11  24  48  74 101 130 163 208 271 340 407
#     4  10  24  35  55  84 122 171 221 271 316 365
#     4  10  24  43  70 100 130 169 211 262 332 394
#     4  11  23  39  62  87 131 176 214 270 315 388
#     4  10  22  36  56  84 125 176 225 265 315 363
#     4  11  23  38  63  88 124 167 211 268 323 393
#     4  11  21  37  55  86 121 167 225 270 316 377
#
# _framework density 25.260014000000002
#
# number of rings (size 3 to 8) (size 9 to 14) (size 15 to 20)
#    0.000    1.500    3.750    0.375    8.750    0.000 
#    2.250    1.250    0.000    0.000    0.000    0.000 
#    0.000    0.000    0.000    0.000    0.000    0.000 
#
# Total GULP energy -178525.578318 kJ/mol
# GULP energy per Si atom -5578.924322 kJ/mol
# Density = 2.520252 g / cm^3
# Si number density = 25.260014 Si / 1000 Ang^3
#
#
#
# Elastic Constant Matrix: (Units=GPa)
#
#
# Indices 1 2 3 4 5 6 
#
# 1 125.5512 49.8315 22.0050 -0.0001 31.3156 -0.0002
# 2 49.8315 66.3489 12.5859 0.0015 17.3280 -0.0011
# 3 22.0050 12.5859 62.4956 0.0014 19.9558 -0.0001
# 4 -0.0001 0.0015 0.0014 24.8382 0.0006 7.6468
# 5 31.3156 17.3280 19.9558 0.0006 49.6181 -0.0003
# 6 -0.0002 -0.0011 -0.0001 7.6468 -0.0003 30.5975
#
#
#
# Elastic Compliance Matrix: (Units=1/GPa)
#
#
# Indices 1 2 3 4 5 6 
#
# 1 0.012488 -0.007931 -0.001340 0.000001 -0.004573 0.000000
# 2 -0.007931 0.021782 -0.000876 -0.000002 -0.002249 0.000001
# 3 -0.001340 -0.000876 0.018681 -0.000001 -0.006362 0.000000
# 4 0.000001 -0.000002 -0.000001 0.043616 0.000000 -0.010900
# 5 -0.004573 -0.002249 -0.006362 0.000000 0.026384 0.000000
# 6 0.000000 0.000001 0.000000 -0.010900 0.000000 0.035407
#
#
# Mechanical properties :
#
#
# Convention : Reuss Voigt Hill
#
# Bulk Modulus (GPa) = 30.62056 47.02672 38.82364
# Shear Modulus (GPa) = 26.38015 32.34231 29.36123
#
# Velocity S-wave (km/s) = 3.23514 3.58212 3.41304
# Velocity P-wave (km/s) = 5.10914 5.98049 5.56190
#
# Compressibility (1/GPa) = 0.03265780
#
# Stress axis : x y z
#
# Youngs Moduli (GPa) = 80.07648 45.90990 53.53139
#
# Poissons Ratio (x) = 0.36410 0.07171
# Poissons Ratio (y) = 0.63506 0.04689
# Poissons Ratio (z) = 0.10727 0.04022
#
# Static dielectric constant tensor:
#      x y z
#    x 2.069220 0.000000 -0.040660 
#    y 0.000000 2.120090 0.000000 
#    z -0.040660 0.000000 2.068310 
# 
# From -- ./inp_files/315095.got.cif
#   From: 2010.05.17/outbox.cif.g08.bks.cpg/sg15_158_cif.got.tgz:315095.got - 2010.06.03 18:47:42.
