data_PCOD9287301
_publ_section_title
;
Structure prediction by ZEFSAII (Michael W. Deem and Ramdas Pophale) SiO2 
 PCOD9287301
Probable space group: C 2/C
;
_chemical_formula_sum "Si O2"
_cell_formula_units_Z 40
_cell_length_a 10.092650
_cell_length_b 17.829251
_cell_length_c 14.700472
_cell_angle_alpha 90.000000
_cell_angle_beta 139.726492
_cell_angle_gamma 90.000000
_cell_volume 1709.998961
_symmetry_space_group_name_H-M "C 2/C"
_symmetry_group_IT_number 15
_symmetry_cell_setting 'monoclinic'
loop_
_space_group_symop_operation_xyz
x,y,z
-x,y,1/2-z
-x,-y,-z
x,-y,1/2+z
1/2+x,1/2+y,z
1/2-x,1/2+y,1/2-z
1/2-x,1/2-y,-z
1/2+x,1/2-y,1/2+z
loop_
_atom_site_type_symbol
_atom_site_label
_atom_site_fract_x
_atom_site_fract_y
_atom_site_fract_z
Si Si1 0.103023 0.652109 0.978783
Si Si2 0.534385 0.769022 0.933870
Si Si3 0.089952 0.034021 0.396699
Si Si4 0.059237 0.894523 0.494909
Si Si5 0.500000 0.149021 0.250000
Si Si6 0.500000 0.750188 0.250000
O O1 0.012566 0.695654 0.844636
O O2 0.949025 0.667015 0.981504
O O3 0.178906 0.568545 0.993620
O O4 0.303707 0.696305 0.126313
O O5 0.469249 0.688240 0.935431
O O6 0.750000 0.750000 0.000000
O O7 0.408260 0.800915 0.783316
O O8 0.000000 0.045148 0.250000
O O9 0.006630 0.081599 0.438933
O O10 0.012230 0.952376 0.389965
O O11 0.306321 0.896939 0.617516
#
# Coordination Sequence:
#
# PCOD9287301 Si02
#       6
#     8   8   8   8   4   4
#     4  11  22  40  65 100 131 174 230 288 343 407
#     4  10  23  40  65  95 130 177 228 282 340 407
#     4  11  23  42  68  93 139 177 222 284 358 411
#     4  10  23  43  62  99 129 180 222 282 350 424
#     4  10  22  41  65  86 136 170 228 282 338 408
#     4  10  22  35  63  96 132 162 224 294 336 390
#
# _framework density 23.391825000000001
#
# number of rings (size 3 to 8) (size 9 to 14) (size 15 to 20)
#    0.000    1.600    1.000    3.600    7.000    0.800 
#    0.000   11.000    0.000    0.000    0.000    0.000 
#    0.000    0.000    0.000    0.000    0.000    0.000 
#
# Total GULP energy -111440.703393 kJ/mol
# GULP energy per Si atom -5572.035170 kJ/mol
# Density = 2.333858 g / cm^3
# Si number density = 23.391825 Si / 1000 Ang^3
#
#
#
# Elastic Constant Matrix: (Units=GPa)
#
#
# Indices 1 2 3 4 5 6 
#
# 1 100.8826 19.3490 20.4386 0.0005 -30.8912 0.0001
# 2 19.3490 51.8494 -12.1260 0.0001 -25.9139 0.0002
# 3 20.4386 -12.1260 75.9337 0.0010 -28.9847 0.0004
# 4 0.0005 0.0001 0.0010 3.4810 0.0008 17.0347
# 5 -30.8912 -25.9139 -28.9847 0.0008 51.5481 0.0002
# 6 0.0001 0.0002 0.0004 17.0347 0.0002 -1.9712
#
#
#
# Elastic Compliance Matrix: (Units=1/GPa)
#
#
# Indices 1 2 3 4 5 6 
#
# 1 0.012314 -0.002380 -0.001699 0.000000 0.005228 0.000000
# 2 -0.002380 0.037675 0.016988 -0.000001 0.027066 -0.000002
# 3 -0.001699 0.016988 0.024461 -0.000001 0.021276 -0.000002
# 4 0.000000 -0.000001 -0.000001 0.006636 -0.000002 0.057348
# 5 0.005228 0.027066 0.021276 -0.000002 0.048101 -0.000004
# 6 0.000000 -0.000002 -0.000002 0.057348 -0.000004 -0.011719
#
#
# Mechanical properties :
#
#
# Convention : Reuss Voigt Hill
#
# Bulk Modulus (GPa) = 9.97325 31.55433 20.76379
# Shear Modulus (GPa) = 39.97658 24.01183 31.99421
#
# Velocity S-wave (km/s) = 4.13849 3.20739 3.70232
# Velocity P-wave (km/s) = 5.20662 5.21874 5.21268
#
# Compressibility (1/GPa) = 0.10026822
#
# Stress axis : x y z
#
# Youngs Moduli (GPa) = 81.20872 26.54275 40.88158
#
# Poissons Ratio (x) = 0.06317 0.06946
# Poissons Ratio (y) = 0.19328 -0.69451
# Poissons Ratio (z) = 0.13799 -0.45092
#
# Static dielectric constant tensor:
#      x y z
#    x 2.084330 0.000000 0.019720 
#    y 0.000000 1.959960 0.000000 
#    z 0.019720 0.000000 1.919210 
# 
# From -- ./inp_files/145890.got.cif
#   From: 2010.05.17/outbox.cif.g08.bks.cpg/sg15_73_cif.got.tgz:145890.got - 2010.06.03 18:47:42.
