data_PCOD9287915
_publ_section_title
;
Structure prediction by ZEFSAII (Michael W. Deem and Ramdas Pophale) SiO2 
 PCOD9287915
Probable space group: C 2/C
;
_chemical_formula_sum "Si O2"
_cell_formula_units_Z 36
_cell_length_a 14.096975
_cell_length_b 26.793137
_cell_length_c 14.478641
_cell_angle_alpha 90.000000
_cell_angle_beta 159.550458
_cell_angle_gamma 90.000000
_cell_volume 1910.637358
_symmetry_space_group_name_H-M "C 2/C"
_symmetry_group_IT_number 15
_symmetry_cell_setting 'monoclinic'
loop_
_space_group_symop_operation_xyz
x,y,z
-x,y,1/2-z
-x,-y,-z
x,-y,1/2+z
1/2+x,1/2+y,z
1/2-x,1/2+y,1/2-z
1/2-x,1/2-y,-z
1/2+x,1/2-y,1/2+z
loop_
_atom_site_type_symbol
_atom_site_label
_atom_site_fract_x
_atom_site_fract_y
_atom_site_fract_z
Si Si1 0.790726 0.143229 0.327852
Si Si2 0.219287 0.472759 0.762550
Si Si3 0.000000 0.559029 0.250000
Si Si4 0.716183 0.353023 0.379988
Si Si5 0.924194 0.214189 0.281432
O O1 0.725298 0.085960 0.244024
O O2 0.865462 0.174076 0.306064
O O3 0.043169 0.140728 0.628952
O O4 0.517971 0.165796 0.127928
O O5 0.145171 0.472768 0.803637
O O6 0.000000 0.500000 0.500000
O O7 0.500000 0.500000 0.000000
O O8 0.204882 0.596322 0.491552
O O9 0.500000 0.325320 0.250000
O O10 0.000000 0.192244 0.250000
O O11 0.167512 0.250047 0.533869
#
# Coordination Sequence:
#
# PCOD9287915 Si02
#       5
#     8   8   4   8   8
#     4  11  22  37  64  92 119 158 209 253 296 372
#     4  11  23  37  58  88 122 159 206 251 303 360
#     4  10  22  38  60  80 120 172 206 232 308 372
#     4  11  18  35  63  87 110 161 206 232 292 371
#     4  10  22  43  68  92 122 163 203 252 319 379
#
# _framework density 18.841881999999998
#
# number of rings (size 3 to 8) (size 9 to 14) (size 15 to 20)
#    0.000    1.333    4.444    4.000    0.000    0.000 
#    4.000    0.000    0.000   13.333    0.000    0.000 
#    0.000    0.000    0.000    0.000    0.000    0.000 
#
# Total GULP energy -100389.068429 kJ/mol
# GULP energy per Si atom -5577.170468 kJ/mol
# Density = 1.879900 g / cm^3
# Si number density = 18.841882 Si / 1000 Ang^3
#
#
#
# Elastic Constant Matrix: (Units=GPa)
#
#
# Indices 1 2 3 4 5 6 
#
# 1 201.8085 69.2986 66.9847 -0.0011 1.7288 0.0004
# 2 69.2986 44.0157 25.3817 0.0008 -6.2151 0.0013
# 3 66.9847 25.3817 167.7177 -0.0020 -1.3851 0.0010
# 4 -0.0011 0.0008 -0.0020 7.4430 0.0003 -3.7074
# 5 1.7288 -6.2151 -1.3851 0.0003 42.6485 0.0012
# 6 0.0004 0.0013 0.0010 -3.7074 0.0012 49.5410
#
#
#
# Elastic Compliance Matrix: (Units=1/GPa)
#
#
# Indices 1 2 3 4 5 6 
#
# 1 0.011769 -0.017800 -0.002033 0.000004 -0.003137 0.000001
# 2 -0.017800 0.052349 -0.000744 -0.000010 0.008326 -0.000002
# 3 -0.002033 -0.000744 0.006888 0.000002 0.000198 0.000000
# 4 0.000004 -0.000010 0.000002 0.139556 -0.000003 0.010444
# 5 -0.003137 0.008326 0.000198 -0.000003 0.024794 -0.000001
# 6 0.000001 -0.000002 0.000000 0.010444 -0.000001 0.020967
#
#
# Mechanical properties :
#
#
# Convention : Reuss Voigt Hill
#
# Bulk Modulus (GPa) = 33.49823 81.87467 57.68645
# Shear Modulus (GPa) = 16.26394 36.71829 26.49112
#
# Velocity S-wave (km/s) = 2.94118 4.41926 3.75369
# Velocity P-wave (km/s) = 5.41768 8.34193 7.03346
#
# Compressibility (1/GPa) = 0.02985232
#
# Stress axis : x y z
#
# Youngs Moduli (GPa) = 84.96811 19.10257 145.17067
#
# Poissons Ratio (x) = 0.34003 0.29507
# Poissons Ratio (y) = 1.51246 0.10805
# Poissons Ratio (z) = 0.17270 0.01422
#
# Static dielectric constant tensor:
#      x y z
#    x 1.693850 0.000000 0.030710 
#    y 0.000000 1.628780 0.000000 
#    z 0.030710 0.000000 1.658160 
# 
# From -- ./inp_files/156870.got.cif
#   From: 2010.05.17/outbox.cif.g08.bks.cpg/sg15_79_cif.got.tgz:156870.got - 2010.06.03 18:47:42.
