data_PCOD9287018
_publ_section_title
;
Structure prediction by ZEFSAII (Michael W. Deem and Ramdas Pophale) SiO2 
 PCOD9287018
Probable space group: C 2/C
;
_chemical_formula_sum "Si O2"
_cell_formula_units_Z 40
_cell_length_a 8.412489
_cell_length_b 16.570121
_cell_length_c 20.445058
_cell_angle_alpha 90.000000
_cell_angle_beta 140.631531
_cell_angle_gamma 90.000000
_cell_volume 1807.743401
_symmetry_space_group_name_H-M "C 2/C"
_symmetry_group_IT_number 15
_symmetry_cell_setting 'monoclinic'
loop_
_space_group_symop_operation_xyz
x,y,z
-x,y,1/2-z
-x,-y,-z
x,-y,1/2+z
1/2+x,1/2+y,z
1/2-x,1/2+y,1/2-z
1/2-x,1/2-y,-z
1/2+x,1/2-y,1/2+z
loop_
_atom_site_type_symbol
_atom_site_label
_atom_site_fract_x
_atom_site_fract_y
_atom_site_fract_z
Si Si1 0.000000 0.326614 0.750000
Si Si2 0.964467 0.463519 0.844711
Si Si3 0.360544 0.576643 0.922895
Si Si4 0.000000 0.976924 0.250000
Si Si5 0.245733 0.391772 0.056325
Si Si6 0.490492 0.737718 0.455017
O O1 0.019198 0.385993 0.817767
O O2 0.747217 0.274738 0.668528
O O3 0.666565 0.470000 0.754964
O O4 0.080453 0.543756 0.847416
O O5 0.078272 0.444268 0.952753
O O6 0.479587 0.599901 0.890625
O O7 0.500000 0.500000 0.000000
O O8 0.443623 0.654553 0.988691
O O9 0.200657 0.926062 0.354704
O O10 0.105351 0.306684 0.024587
O O11 0.750000 0.750000 0.500000
#
# Coordination Sequence:
#
# PCOD9287018 Si02
#       6
#     4   8   8   4   8   8
#     4  12  25  46  70 103 142 198 242 292 381 434
#     4  11  25  43  75 104 145 187 249 305 359 449
#     4  10  21  45  72  98 137 189 231 296 361 426
#     4  12  25  40  72 107 142 188 250 290 371 438
#     4  11  24  45  68 104 145 187 236 302 368 427
#     4  12  26  44  74 104 150 188 243 307 368 436
#
# _framework density 22.127033999999998
#
# number of rings (size 3 to 8) (size 9 to 14) (size 15 to 20)
#    0.000    0.800    4.000    4.200    5.600    0.000 
#    0.000    0.000    0.000    0.000    0.000    0.000 
#    0.000    0.000    0.000    0.000    0.000    0.000 
#
# Total GULP energy -111475.220431 kJ/mol
# GULP energy per Si atom -5573.761022 kJ/mol
# Density = 2.207667 g / cm^3
# Si number density = 22.127034 Si / 1000 Ang^3
#
#
#
# Elastic Constant Matrix: (Units=GPa)
#
#
# Indices 1 2 3 4 5 6 
#
# 1 138.3771 67.2962 33.0540 -0.0001 31.5700 -0.0002
# 2 67.2962 123.2077 36.8282 0.0000 4.1423 0.0000
# 3 33.0540 36.8282 98.9306 0.0003 8.5856 0.0001
# 4 -0.0001 0.0000 0.0003 28.8682 0.0000 -10.4196
# 5 31.5700 4.1423 8.5856 0.0000 49.3144 -0.0001
# 6 -0.0002 0.0000 0.0001 -10.4196 -0.0001 17.4870
#
#
#
# Elastic Compliance Matrix: (Units=1/GPa)
#
#
# Indices 1 2 3 4 5 6 
#
# 1 0.012003 -0.005968 -0.001183 0.000000 -0.006977 0.000000
# 2 -0.005968 0.012101 -0.002796 0.000000 0.003291 0.000000
# 3 -0.001183 -0.002796 0.011634 0.000000 -0.001033 0.000000
# 4 0.000000 0.000000 0.000000 0.044131 0.000000 0.026296
# 5 -0.006977 0.003291 -0.001033 0.000000 0.024648 0.000000
# 6 0.000000 0.000000 0.000000 0.026296 0.000000 0.072854
#
#
# Mechanical properties :
#
#
# Convention : Reuss Voigt Hill
#
# Bulk Modulus (GPa) = 63.11832 70.54134 66.82983
# Shear Modulus (GPa) = 24.68543 34.02306 29.35425
#
# Velocity S-wave (km/s) = 3.34372 3.92551 3.64624
# Velocity P-wave (km/s) = 6.59505 7.24538 6.92785
#
# Compressibility (1/GPa) = 0.01584326
#
# Stress axis : x y z
#
# Youngs Moduli (GPa) = 83.30930 82.63529 85.95379
#
# Poissons Ratio (x) = 0.49317 0.10171
# Poissons Ratio (y) = 0.49719 0.24037
# Poissons Ratio (z) = 0.09858 0.23109
#
# Static dielectric constant tensor:
#      x y z
#    x 1.986350 0.000000 0.003270 
#    y 0.000000 1.876360 0.000000 
#    z 0.003270 0.000000 1.911430 
# 
# From -- ./inp_files/76848.got.cif
#   From: 2010.05.17/outbox.cif.g08.bks.cpg/sg15_39_cif.got.tgz:76848.got - 2010.06.03 18:47:42.
