data_PCOD9287253
_publ_section_title
;
Structure prediction by ZEFSAII (Michael W. Deem and Ramdas Pophale) SiO2 
 PCOD9287253
Probable space group: C 2/C
;
_chemical_formula_sum "Si O2"
_cell_formula_units_Z 64
_cell_length_a 29.230043
_cell_length_b 14.084380
_cell_length_c 8.159905
_cell_angle_alpha 90.000000
_cell_angle_beta 80.654287
_cell_angle_gamma 90.000000
_cell_volume 3314.736944
_symmetry_space_group_name_H-M "C 2/C"
_symmetry_group_IT_number 15
_symmetry_cell_setting 'monoclinic'
loop_
_space_group_symop_operation_xyz
x,y,z
-x,y,1/2-z
-x,-y,-z
x,-y,1/2+z
1/2+x,1/2+y,z
1/2-x,1/2+y,1/2-z
1/2-x,1/2-y,-z
1/2+x,1/2-y,1/2+z
loop_
_atom_site_type_symbol
_atom_site_label
_atom_site_fract_x
_atom_site_fract_y
_atom_site_fract_z
Si Si1 0.137534 0.711969 0.697476
Si Si2 0.633316 0.829999 0.821471
Si Si3 0.541764 0.131359 0.835477
Si Si4 0.219387 0.851535 0.692203
Si Si5 0.932072 0.431164 0.850315
Si Si6 0.283670 0.719005 0.829889
Si Si7 0.337187 0.036626 0.609042
Si Si8 0.237601 0.966425 0.011665
O O1 0.131890 0.709712 0.505437
O O2 0.086012 0.700885 0.800966
O O3 0.170071 0.799268 0.727308
O O4 0.163041 0.617030 0.750941
O O5 0.583313 0.854235 0.774976
O O6 0.665519 0.764411 0.690343
O O7 0.658537 0.931545 0.823363
O O8 0.500000 0.169341 0.750000
O O9 0.554835 0.030534 0.740492
O O10 0.532679 0.105358 0.031198
O O11 0.258535 0.769434 0.689685
O O12 0.224049 0.924016 0.539520
O O13 0.227455 0.922025 0.841175
O O14 0.884298 0.448491 0.979084
O O15 0.286644 0.606463 0.846577
O O16 0.250000 0.750000 0.000000
O O17 0.291436 0.042651 0.528416
#
# Coordination Sequence:
#
# PCOD9287253 Si02
#       8
#     8   8   8   8   8   8   8   8
#     4  11  24  38  56  82 117 151 202 236 300 352
#     4  12  21  35  57  84 114 164 195 234 283 343
#     4  11  22  37  58  86 119 152 191 244 300 364
#     4  11  24  38  54  79 114 156 197 251 282 338
#     4  11  20  34  56  83 118 155 191 228 289 356
#     4  10  22  35  53  79 117 153 203 234 282 332
#     4  11  20  35  57  81 118 160 194 241 273 343
#     4  11  24  36  53  80 116 155 205 241 285 324
#
# _framework density 19.307714000000001
#
# number of rings (size 3 to 8) (size 9 to 14) (size 15 to 20)
#    0.000    1.000    6.250    1.875    8.750    0.500 
#    0.000    0.000    0.000    0.000    0.000    0.875 
#    0.000    0.000    0.000    0.000    0.000    0.000 
#
# Total GULP energy -178859.789393 kJ/mol
# GULP energy per Si atom -5589.368419 kJ/mol
# Density = 1.926377 g / cm^3
# Si number density = 19.307714 Si / 1000 Ang^3
#
#
#
# Elastic Constant Matrix: (Units=GPa)
#
#
# Indices 1 2 3 4 5 6 
#
# 1 77.9858 13.6912 4.6321 0.0000 22.3998 0.0000
# 2 13.6912 60.4163 3.5967 0.0000 3.8323 0.0000
# 3 4.6321 3.5967 68.9207 0.0000 20.6155 0.0000
# 4 0.0000 0.0000 0.0000 30.8630 0.0000 1.7192
# 5 22.3998 3.8323 20.6155 0.0000 28.7672 0.0000
# 6 0.0000 0.0000 0.0000 1.7192 0.0000 28.7080
#
#
#
# Elastic Compliance Matrix: (Units=1/GPa)
#
#
# Indices 1 2 3 4 5 6 
#
# 1 0.017807 -0.003237 0.003807 0.000000 -0.016163 0.000000
# 2 -0.003237 0.017285 -0.000954 0.000000 0.000902 0.000000
# 3 0.003807 -0.000954 0.019286 0.000000 -0.016658 0.000000
# 4 0.000000 0.000000 0.000000 0.032510 0.000000 -0.001947
# 5 -0.016163 0.000902 -0.016658 0.000000 0.059165 0.000000
# 6 0.000000 0.000000 0.000000 -0.001947 0.000000 0.034950
#
#
# Mechanical properties :
#
#
# Convention : Reuss Voigt Hill
#
# Bulk Modulus (GPa) = 18.65328 27.90698 23.28013
# Shear Modulus (GPa) = 25.04489 30.02782 27.53636
#
# Velocity S-wave (km/s) = 3.60550 3.94791 3.78058
# Velocity P-wave (km/s) = 5.19758 5.93856 5.58038
#
# Compressibility (1/GPa) = 0.05360988
#
# Stress axis : x y z
#
# Youngs Moduli (GPa) = 56.15642 57.85381 51.85073
#
# Poissons Ratio (x) = 0.18726 -0.19738
# Poissons Ratio (y) = 0.18177 0.04947
# Poissons Ratio (z) = -0.21377 0.05520
#
# Static dielectric constant tensor:
#      x y z
#    x 1.712020 0.000000 0.020910 
#    y 0.000000 1.681870 0.000000 
#    z 0.020910 0.000000 1.839190 
# 
# From -- ./inp_files/69736.got.cif
#   From: 2010.05.17/outbox.cif.g08.bks.cpg/sg15_35_cif.got.tgz:69736.got - 2010.06.03 18:47:42.
