data_PCOD9287134
_publ_section_title
;
Structure prediction by ZEFSAII (Michael W. Deem and Ramdas Pophale) SiO2 
 PCOD9287134
Probable space group: C 2/C
;
_chemical_formula_sum "Si O2"
_cell_formula_units_Z 40
_cell_length_a 5.119617
_cell_length_b 21.888800
_cell_length_c 13.307649
_cell_angle_alpha 90.000000
_cell_angle_beta 75.560236
_cell_angle_gamma 90.000000
_cell_volume 1444.176182
_symmetry_space_group_name_H-M "C 2/C"
_symmetry_group_IT_number 15
_symmetry_cell_setting 'monoclinic'
loop_
_space_group_symop_operation_xyz
x,y,z
-x,y,1/2-z
-x,-y,-z
x,-y,1/2+z
1/2+x,1/2+y,z
1/2-x,1/2+y,1/2-z
1/2-x,1/2-y,-z
1/2+x,1/2-y,1/2+z
loop_
_atom_site_type_symbol
_atom_site_label
_atom_site_fract_x
_atom_site_fract_y
_atom_site_fract_z
Si Si1 0.266671 0.147934 0.399565
Si Si2 0.675592 0.858742 0.034213
Si Si3 0.500000 0.375417 0.250000
Si Si4 0.000000 0.934585 0.750000
Si Si5 0.121721 0.467014 0.389748
Si Si6 0.164910 0.265625 0.316432
O O1 0.511815 0.126176 0.446027
O O2 0.343887 0.215488 0.354020
O O3 0.987868 0.153843 0.488274
O O4 0.160281 0.103693 0.320464
O O5 0.621930 0.919116 0.108803
O O6 0.520418 0.798644 0.084777
O O7 0.360242 0.416688 0.347919
O O8 0.284121 0.322922 0.242490
O O9 0.237798 0.978653 0.685108
O O10 0.000000 0.500000 0.500000
O O11 0.000000 0.228218 0.250000
#
# Coordination Sequence:
#
# PCOD9287134 Si02
#       6
#     8   8   4   4   8   8
#     4  12  26  48  74 112 154 200 261 315 392 460
#     4  11  27  47  75 110 151 206 254 320 387 462
#     4   9  24  42  74 110 148 199 252 314 390 455
#     4  11  24  46  78 114 150 213 260 324 394 457
#     4  10  21  49  75 108 149 205 258 326 378 465
#     4  11  25  44  75 109 155 198 253 318 389 466
#
# _framework density 27.697448999999999
#
# number of rings (size 3 to 8) (size 9 to 14) (size 15 to 20)
#    0.000    1.200    3.000    1.200    8.400    1.600 
#    0.000    4.000    0.000    0.000    0.000    0.000 
#    0.000    0.000    0.000    0.000    0.000    0.000 
#
# Total GULP energy -111558.262131 kJ/mol
# GULP energy per Si atom -5577.913107 kJ/mol
# Density = 2.763441 g / cm^3
# Si number density = 27.697449 Si / 1000 Ang^3
#
#
#
# Elastic Constant Matrix: (Units=GPa)
#
#
# Indices 1 2 3 4 5 6 
#
# 1 128.4786 22.0618 24.4702 0.0000 -2.4790 0.0000
# 2 22.0618 183.6807 63.0636 0.0000 -11.9707 0.0000
# 3 24.4702 63.0636 107.5158 0.0000 -33.6696 0.0000
# 4 0.0000 0.0000 0.0000 9.1859 0.0000 -21.0885
# 5 -2.4790 -11.9707 -33.6696 0.0000 65.0861 0.0000
# 6 0.0000 0.0000 0.0000 -21.0885 0.0000 19.7959
#
#
#
# Elastic Compliance Matrix: (Units=1/GPa)
#
#
# Indices 1 2 3 4 5 6 
#
# 1 0.008191 -0.000392 -0.001861 0.000000 -0.000723 0.000000
# 2 -0.000392 0.006888 -0.004247 0.000000 -0.000945 0.000000
# 3 -0.001861 -0.004247 0.014258 0.000000 0.006524 0.000000
# 4 0.000000 0.000000 0.000000 -0.075303 0.000000 -0.080220
# 5 -0.000723 -0.000945 0.006524 0.000000 0.018538 0.000000
# 6 0.000000 0.000000 0.000000 -0.080220 0.000000 -0.034943
#
#
# Mechanical properties :
#
#
# Convention : Reuss Voigt Hill
#
# Bulk Modulus (GPa) = 61.20512 70.98515 66.09514
# Shear Modulus (GPa) = -113.82781 39.48555 -37.17113
#
# Velocity S-wave (km/s) = -6.41764 3.77981 -3.66736
# Velocity P-wave (km/s) = 5.72443 6.68833 2.44588
#
# Compressibility (1/GPa) = 0.01633850
#
# Stress axis : x y z
#
# Youngs Moduli (GPa) = 122.08287 145.18453 70.13389
#
# Poissons Ratio (x) = 0.05693 0.13049
# Poissons Ratio (y) = 0.04787 0.29784
# Poissons Ratio (z) = 0.22714 0.61656
#
# Static dielectric constant tensor:
#      x y z
#    x 2.310940 0.000000 0.025050 
#    y 0.000000 2.072010 0.000000 
#    z 0.025050 0.000000 2.321290 
# 
# From -- ./inp_files/129295.got.cif
#   From: 2010.05.17/outbox.cif.g08.bks.cpg/sg15_65_cif.got.tgz:129295.got - 2010.06.03 18:47:42.
