data_PCOD9287552
_publ_section_title
;
Structure prediction by ZEFSAII (Michael W. Deem and Ramdas Pophale) SiO2 
 PCOD9287552
Probable space group: C 2/C
;
_chemical_formula_sum "Si O2"
_cell_formula_units_Z 64
_cell_length_a 29.022043
_cell_length_b 14.380392
_cell_length_c 9.591937
_cell_angle_alpha 90.000000
_cell_angle_beta 98.972144
_cell_angle_gamma 90.000000
_cell_volume 3954.197345
_symmetry_space_group_name_H-M "C 2/C"
_symmetry_group_IT_number 15
_symmetry_cell_setting 'monoclinic'
loop_
_space_group_symop_operation_xyz
x,y,z
-x,y,1/2-z
-x,-y,-z
x,-y,1/2+z
1/2+x,1/2+y,z
1/2-x,1/2+y,1/2-z
1/2-x,1/2-y,-z
1/2+x,1/2-y,1/2+z
loop_
_atom_site_type_symbol
_atom_site_label
_atom_site_fract_x
_atom_site_fract_y
_atom_site_fract_z
Si Si1 0.944419 0.595198 0.563118
Si Si2 0.365589 0.829946 0.850512
Si Si3 0.274366 0.712576 0.873895
Si Si4 0.189464 0.503617 0.557490
Si Si5 0.631525 0.189010 0.478162
Si Si6 0.054181 0.402382 0.108826
Si Si7 0.248267 0.990620 0.162165
Si Si8 0.782826 0.200947 0.402067
O O1 0.911330 0.668873 0.469205
O O2 0.939450 0.497397 0.477458
O O3 0.932159 0.584215 0.721640
O O4 0.999116 0.619795 0.580542
O O5 0.324310 0.758718 0.868147
O O6 0.376707 0.818763 0.691943
O O7 0.341866 0.928422 0.879001
O O8 0.280775 0.601870 0.878419
O O9 0.236573 0.747044 0.742946
O O10 0.250000 0.750000 0.000000
O O11 0.163442 0.600680 0.534812
O O12 0.205221 0.476304 0.409989
O O13 0.236306 0.509586 0.670194
O O14 0.585104 0.175246 0.546787
O O15 0.663918 0.276126 0.534080
O O16 0.227470 0.091164 0.115317
O O17 0.750000 0.250000 0.500000
#
# Coordination Sequence:
#
# PCOD9287552 Si02
#       8
#     8   8   8   8   8   8   8   8
#     4  10  22  37  55  79 110 137 184 228 280 335
#     4  12  23  35  51  81 108 146 189 224 271 327
#     4  12  23  34  52  81 110 145 191 230 273 320
#     4  12  20  32  51  74 104 148 181 217 261 317
#     4  12  23  34  55  76 108 150 187 221 273 328
#     4  10  22  37  55  80 106 144 178 231 279 335
#     4  12  22  36  52  72 112 150 188 226 264 312
#     4  12  21  38  52  75 110 151 187 223 270 327
#
# _framework density 16.185334000000001
#
# number of rings (size 3 to 8) (size 9 to 14) (size 15 to 20)
#    0.000    0.500    8.750    0.750    3.500    1.500 
#    0.000    0.000    0.000    0.000    0.000    0.875 
#    0.000    0.000    0.000    0.000    0.000    0.000 
#
# Total GULP energy -178537.248074 kJ/mol
# GULP energy per Si atom -5579.289002 kJ/mol
# Density = 1.614850 g / cm^3
# Si number density = 16.185334 Si / 1000 Ang^3
#
#
#
# Elastic Constant Matrix: (Units=GPa)
#
#
# Indices 1 2 3 4 5 6 
#
# 1 78.2403 25.5538 37.4292 0.0000 -0.3887 0.0000
# 2 25.5538 84.7170 30.6493 0.0000 5.9481 0.0000
# 3 37.4292 30.6493 123.8963 0.0000 -4.0076 0.0000
# 4 0.0000 0.0000 0.0000 14.0703 0.0000 2.5047
# 5 -0.3887 5.9481 -4.0076 0.0000 27.9391 0.0000
# 6 0.0000 0.0000 0.0000 2.5047 0.0000 28.1298
#
#
#
# Elastic Compliance Matrix: (Units=1/GPa)
#
#
# Indices 1 2 3 4 5 6 
#
# 1 0.015754 -0.003362 -0.003916 0.000000 0.000373 0.000000
# 2 -0.003362 0.013979 -0.002552 0.000000 -0.003389 0.000000
# 3 -0.003916 -0.002552 0.009948 0.000000 0.001916 0.000000
# 4 0.000000 0.000000 0.000000 0.072216 0.000000 -0.006430
# 5 0.000373 -0.003389 0.001916 0.000000 0.036794 0.000000
# 6 0.000000 0.000000 0.000000 -0.006430 0.000000 0.036122
#
#
# Mechanical properties :
#
#
# Convention : Reuss Voigt Hill
#
# Bulk Modulus (GPa) = 49.94532 52.67979 51.31255
# Shear Modulus (GPa) = 23.68031 26.90926 25.29478
#
# Velocity S-wave (km/s) = 3.82916 4.08189 3.95754
# Velocity P-wave (km/s) = 7.10460 7.40501 7.25636
#
# Compressibility (1/GPa) = 0.02002190
#
# Stress axis : x y z
#
# Youngs Moduli (GPa) = 63.47543 71.53435 100.52741
#
# Poissons Ratio (x) = 0.24047 0.39363
# Poissons Ratio (y) = 0.21338 0.25657
# Poissons Ratio (z) = 0.24855 0.18257
#
# Static dielectric constant tensor:
#      x y z
#    x 1.567440 0.000000 0.005190 
#    y 0.000000 1.547770 0.000000 
#    z 0.005190 0.000000 1.533530 
# 
# From -- ./inp_files/69735.got.cif
#   From: 2010.05.17/outbox.cif.g08.bks.cpg/sg15_35_cif.got.tgz:69735.got - 2010.06.03 18:47:42.
