data_PCOD9287347
_publ_section_title
;
Structure prediction by ZEFSAII (Michael W. Deem and Ramdas Pophale) SiO2 
 PCOD9287347
Probable space group: C 2/C
;
_chemical_formula_sum "Si O2"
_cell_formula_units_Z 44
_cell_length_a 16.790541
_cell_length_b 13.114367
_cell_length_c 9.522045
_cell_angle_alpha 90.000000
_cell_angle_beta 120.378996
_cell_angle_gamma 90.000000
_cell_volume 1808.846051
_symmetry_space_group_name_H-M "C 2/C"
_symmetry_group_IT_number 15
_symmetry_cell_setting 'monoclinic'
loop_
_space_group_symop_operation_xyz
x,y,z
-x,y,1/2-z
-x,-y,-z
x,-y,1/2+z
1/2+x,1/2+y,z
1/2-x,1/2+y,1/2-z
1/2-x,1/2-y,-z
1/2+x,1/2-y,1/2+z
loop_
_atom_site_type_symbol
_atom_site_label
_atom_site_fract_x
_atom_site_fract_y
_atom_site_fract_z
Si Si1 0.023056 0.766838 0.610233
Si Si2 0.500000 0.500000 0.000000
Si Si3 0.256185 0.480488 0.802040
Si Si4 0.638018 0.577608 0.854145
Si Si5 0.281651 0.808200 0.165396
Si Si6 0.864839 0.276888 0.772535
O O1 0.005510 0.885905 0.582536
O O2 0.131090 0.745867 0.690793
O O3 0.000000 0.732376 0.750000
O O4 0.962499 0.709847 0.436962
O O5 0.447890 0.553289 0.818361
O O6 0.282099 0.515793 0.666595
O O7 0.200593 0.572344 0.824784
O O8 0.195706 0.379458 0.774104
O O9 0.352134 0.465833 0.977758
O O10 0.638096 0.702307 0.865137
O O11 0.190978 0.799810 0.177200
O O12 0.250000 0.750000 0.000000
#
# Coordination Sequence:
#
# PCOD9287347 Si02
#       6
#     8   4   8   8   8   8
#     4  11  22  37  62  91 124 162 212 259 310 379
#     4  10  22  36  56  90 124 156 204 260 316 358
#     4  11  22  40  64  86 126 169 206 253 318 367
#     4  10  23  36  62  92 122 167 207 259 311 377
#     4  11  21  38  61  90 123 159 210 256 302 378
#     4  10  22  39  59  90 124 165 207 259 313 374
#
# _framework density 24.324901000000001
#
# number of rings (size 3 to 8) (size 9 to 14) (size 15 to 20)
#    0.000    1.455    1.818    3.818    5.091    0.727 
#    0.000    0.000    0.000    0.000    0.000    0.000 
#    0.000    0.000    0.000    0.000    0.000    0.000 
#
# Total GULP energy -122489.336358 kJ/mol
# GULP energy per Si atom -5567.697107 kJ/mol
# Density = 2.426954 g / cm^3
# Si number density = 24.324901 Si / 1000 Ang^3
#
#
#
# Elastic Constant Matrix: (Units=GPa)
#
#
# Indices 1 2 3 4 5 6 
#
# 1 54.5739 4.1206 39.9837 0.0000 -0.5026 0.0000
# 2 4.1206 146.8960 36.8287 0.0000 1.1707 0.0000
# 3 39.9837 36.8287 130.2607 0.0000 7.9703 0.0000
# 4 0.0000 0.0000 0.0000 33.0631 0.0000 10.6638
# 5 -0.5026 1.1707 7.9703 0.0000 54.8102 0.0000
# 6 0.0000 0.0000 0.0000 10.6638 0.0000 35.7444
#
#
#
# Elastic Compliance Matrix: (Units=1/GPa)
#
#
# Indices 1 2 3 4 5 6 
#
# 1 0.023948 0.001271 -0.007791 0.000000 0.001325 0.000000
# 2 0.001271 0.007396 -0.002494 0.000000 0.000216 0.000000
# 3 -0.007791 -0.002494 0.010872 0.000000 -0.001599 0.000000
# 4 0.000000 0.000000 0.000000 0.033465 0.000000 -0.009984
# 5 0.001325 0.000216 -0.001599 0.000000 0.018485 0.000000
# 6 0.000000 0.000000 0.000000 -0.009984 0.000000 0.030955
#
#
# Mechanical properties :
#
#
# Convention : Reuss Voigt Hill
#
# Bulk Modulus (GPa) = 41.34611 54.84407 48.09509
# Shear Modulus (GPa) = 33.06613 41.44339 37.25476
#
# Velocity S-wave (km/s) = 3.69094 4.13212 3.91775
# Velocity P-wave (km/s) = 5.93282 6.73508 6.34664
#
# Compressibility (1/GPa) = 0.02418607
#
# Stress axis : x y z
#
# Youngs Moduli (GPa) = 41.75636 135.21704 91.98295
#
# Poissons Ratio (x) = -0.17187 0.71668
# Poissons Ratio (y) = -0.05308 0.22944
# Poissons Ratio (z) = 0.32534 0.33728
#
# Static dielectric constant tensor:
#      x y z
#    x 2.082630 0.000000 0.070920 
#    y 0.000000 2.454710 0.000000 
#    z 0.070920 0.000000 2.494320 
# 
# From -- ./inp_files/111276.got.cif
#   From: 2010.05.17/outbox.cif.g08.bks.cpg/sg15_56_cif.got.tgz:111276.got - 2010.06.03 18:47:42.
