data_PCOD9287383
_publ_section_title
;
Structure prediction by ZEFSAII (Michael W. Deem and Ramdas Pophale) SiO2 
 PCOD9287383
Probable space group: C 2/C
;
_chemical_formula_sum "Si O2"
_cell_formula_units_Z 52
_cell_length_a 19.202450
_cell_length_b 6.726550
_cell_length_c 21.255821
_cell_angle_alpha 90.000000
_cell_angle_beta 69.532947
_cell_angle_gamma 90.000000
_cell_volume 2572.218263
_symmetry_space_group_name_H-M "C 2/C"
_symmetry_group_IT_number 15
_symmetry_cell_setting 'monoclinic'
loop_
_space_group_symop_operation_xyz
x,y,z
-x,y,1/2-z
-x,-y,-z
x,-y,1/2+z
1/2+x,1/2+y,z
1/2-x,1/2+y,1/2-z
1/2-x,1/2-y,-z
1/2+x,1/2-y,1/2+z
loop_
_atom_site_type_symbol
_atom_site_label
_atom_site_fract_x
_atom_site_fract_y
_atom_site_fract_z
Si Si1 0.000000 0.886373 0.750000
Si Si2 0.061808 0.043585 0.347975
Si Si3 0.577798 0.236352 0.444852
Si Si4 0.477927 0.086887 0.910168
Si Si5 0.682356 0.295352 0.233626
Si Si6 0.741230 0.147684 0.343811
Si Si7 0.376188 0.921077 0.322781
O O1 0.929030 0.741967 0.772818
O O2 0.002029 0.006994 0.684184
O O3 0.065433 0.947341 0.415496
O O4 0.130473 0.947246 0.289097
O O5 0.045364 0.274725 0.364351
O O6 0.564321 0.213556 0.522914
O O7 0.660305 0.163522 0.400294
O O8 0.516140 0.100672 0.430020
O O9 0.421000 0.034933 0.872631
O O10 0.733204 0.203170 0.272266
O O11 0.726173 0.425163 0.168431
O O12 0.637692 0.116912 0.214472
O O13 0.798046 0.306142 0.355903
#
# Coordination Sequence:
#
# PCOD9287383 Si02
#       7
#     4   8   8   8   8   8   8
#     4  10  22  36  58  98 128 152 204 266 320 378
#     4  10  22  36  62  90 123 156 201 261 315 373
#     4  10  24  42  67  86 123 172 214 256 317 377
#     4  10  24  44  62  93 121 166 220 262 304 378
#     4  11  23  36  60  92 127 163 198 258 330 379
#     4  11  23  39  60  91 126 166 204 255 324 393
#     4  11  24  38  60  93 131 161 207 264 317 386
#
# _framework density 20.216014999999999
#
# number of rings (size 3 to 8) (size 9 to 14) (size 15 to 20)
#    0.000    1.538    3.077    0.462   12.923    0.615 
#    0.000    0.769    0.000    0.000    0.000    0.000 
#    0.000    0.000    0.000    0.000    0.000    0.000 
#
# Total GULP energy -144918.446735 kJ/mol
# GULP energy per Si atom -5573.786413 kJ/mol
# Density = 2.017000 g / cm^3
# Si number density = 20.216015 Si / 1000 Ang^3
#
#
#
# Elastic Constant Matrix: (Units=GPa)
#
#
# Indices 1 2 3 4 5 6 
#
# 1 93.5664 36.7707 20.3730 -0.0001 4.8741 -0.0015
# 2 36.7707 32.1399 0.3527 0.0002 3.2873 -0.0017
# 3 20.3730 0.3527 59.4540 -0.0001 -0.0865 -0.0016
# 4 -0.0001 0.0002 -0.0001 11.6588 0.0001 6.7982
# 5 4.8741 3.2873 -0.0865 0.0001 30.6823 -0.0009
# 6 -0.0015 -0.0017 -0.0016 6.7982 -0.0009 36.9295
#
#
#
# Elastic Compliance Matrix: (Units=1/GPa)
#
#
# Indices 1 2 3 4 5 6 
#
# 1 0.022348 -0.025399 -0.007509 0.000001 -0.000850 -0.000001
# 2 -0.025399 0.060327 0.008342 -0.000003 -0.002405 0.000003
# 3 -0.007509 0.008342 0.019344 -0.000001 0.000354 0.000001
# 4 0.000001 -0.000003 -0.000001 0.096086 -0.000001 -0.017688
# 5 -0.000850 -0.002405 0.000354 -0.000001 0.032986 0.000001
# 6 -0.000001 0.000003 0.000001 -0.017688 0.000001 0.030335
#
#
# Mechanical properties :
#
#
# Convention : Reuss Voigt Hill
#
# Bulk Modulus (GPa) = 18.90792 33.35033 26.12913
# Shear Modulus (GPa) = 15.23527 24.36506 19.80016
#
# Velocity S-wave (km/s) = 2.74820 3.47542 3.13298
# Velocity P-wave (km/s) = 4.40946 5.71292 5.10298
#
# Compressibility (1/GPa) = 0.05288789
#
# Stress axis : x y z
#
# Youngs Moduli (GPa) = 44.74599 16.57636 51.69630
#
# Poissons Ratio (x) = 0.42102 0.38817
# Poissons Ratio (y) = 1.13650 -0.43126
# Poissons Ratio (z) = 0.33598 -0.13828
#
# Static dielectric constant tensor:
#      x y z
#    x 1.753450 0.000000 0.012630 
#    y 0.000000 1.744980 0.000000 
#    z 0.012630 0.000000 1.746500 
# 
# From -- ./inp_files/278614.got.cif
#   From: 2010.05.17/outbox.cif.g08.bks.cpg/sg15_140_cif.got.tgz:278614.got - 2010.06.03 18:47:42.
