data_PCOD9287825
_publ_section_title
;
Structure prediction by ZEFSAII (Michael W. Deem and Ramdas Pophale) SiO2 
 PCOD9287825
Probable space group: C 2/C
;
_chemical_formula_sum "Si O2"
_cell_formula_units_Z 52
_cell_length_a 32.695579
_cell_length_b 13.926559
_cell_length_c 7.720719
_cell_angle_alpha 90.000000
_cell_angle_beta 126.883760
_cell_angle_gamma 90.000000
_cell_volume 2811.912248
_symmetry_space_group_name_H-M "C 2/C"
_symmetry_group_IT_number 15
_symmetry_cell_setting 'monoclinic'
loop_
_space_group_symop_operation_xyz
x,y,z
-x,y,1/2-z
-x,-y,-z
x,-y,1/2+z
1/2+x,1/2+y,z
1/2-x,1/2+y,1/2-z
1/2-x,1/2-y,-z
1/2+x,1/2-y,1/2+z
loop_
_atom_site_type_symbol
_atom_site_label
_atom_site_fract_x
_atom_site_fract_y
_atom_site_fract_z
Si Si1 0.196100 0.597829 0.741846
Si Si2 0.777289 0.406903 0.793325
Si Si3 0.206031 0.812006 0.167789
Si Si4 0.000000 0.052002 0.250000
Si Si5 0.334928 0.578873 0.610415
Si Si6 0.574604 0.580240 0.160096
Si Si7 0.641704 0.283572 0.652545
O O1 0.183232 0.488720 0.662972
O O2 0.238266 0.640775 0.716561
O O3 0.149698 0.672558 0.631079
O O4 0.221146 0.598632 0.996008
O O5 0.786643 0.298623 0.753561
O O6 0.723088 0.447704 0.588762
O O7 0.171823 0.871108 0.218570
O O8 0.180692 0.805817 0.911885
O O9 0.034245 0.982638 0.453403
O O10 0.956198 0.106890 0.245006
O O11 0.375637 0.491587 0.704282
O O12 0.348306 0.655335 0.494926
O O13 0.589635 0.675450 0.096499
#
# Coordination Sequence:
#
# PCOD9287825 Si02
#       7
#     8   8   8   4   8   8   8
#     4  11  22  35  51  75 116 151 197 241 258 306
#     4  11  22  35  52  78 113 159 199 231 261 302
#     4  11  22  35  51  77 113 151 201 234 258 313
#     4  10  22  38  58  82 110 136 174 234 296 352
#     4  12  22  34  57  80 109 159 194 220 275 330
#     4  11  22  38  57  83 111 143 179 231 289 350
#     4  11  22  38  51  80 111 145 190 228 271 326
#
# _framework density 18.492754999999999
#
# number of rings (size 3 to 8) (size 9 to 14) (size 15 to 20)
#    0.000    0.923    4.615    4.154    4.308    0.000 
#    0.000    0.000    0.000    0.000    0.000    0.000 
#    0.000   41.846    0.000    0.000    0.000    0.000 
#
# Total GULP energy -145043.629913 kJ/mol
# GULP energy per Si atom -5578.601150 kJ/mol
# Density = 1.845066 g / cm^3
# Si number density = 18.492755 Si / 1000 Ang^3
#
#
#
# Elastic Constant Matrix: (Units=GPa)
#
#
# Indices 1 2 3 4 5 6 
#
# 1 118.4419 53.4731 14.2989 0.0000 -8.2883 0.0000
# 2 53.4731 130.1198 18.1651 0.0000 2.2464 0.0000
# 3 14.2989 18.1651 46.4289 0.0000 -5.9432 0.0000
# 4 0.0000 0.0000 0.0000 71.1980 0.0000 27.1082
# 5 -8.2883 2.2464 -5.9432 0.0000 27.0247 0.0000
# 6 0.0000 0.0000 0.0000 27.1082 0.0000 45.1721
#
#
#
# Elastic Compliance Matrix: (Units=1/GPa)
#
#
# Indices 1 2 3 4 5 6 
#
# 1 0.010776 -0.004320 -0.001193 0.000000 0.003402 0.000000
# 2 -0.004320 0.009914 -0.002905 0.000000 -0.002788 0.000000
# 3 -0.001193 -0.002905 0.023693 0.000000 0.005086 0.000000
# 4 0.000000 0.000000 0.000000 0.018205 0.000000 -0.010925
# 5 0.003402 -0.002788 0.005086 0.000000 0.039397 0.000000
# 6 0.000000 0.000000 0.000000 -0.010925 0.000000 0.028694
#
#
# Mechanical properties :
#
#
# Convention : Reuss Voigt Hill
#
# Bulk Modulus (GPa) = 36.30251 51.87387 44.08819
# Shear Modulus (GPa) = 31.90853 42.61587 37.26220
#
# Velocity S-wave (km/s) = 4.15837 4.80569 4.49370
# Velocity P-wave (km/s) = 6.53677 7.67494 7.12861
#
# Compressibility (1/GPa) = 0.02754630
#
# Stress axis : x y z
#
# Youngs Moduli (GPa) = 92.80266 100.86292 42.20585
#
# Poissons Ratio (x) = 0.43577 0.05034
# Poissons Ratio (y) = 0.40095 0.12262
# Poissons Ratio (z) = 0.11070 0.29304
#
# Static dielectric constant tensor:
#      x y z
#    x 1.710050 0.000000 -0.041600 
#    y 0.000000 1.671480 0.000000 
#    z -0.041600 0.000000 1.682490 
# 
# From -- ./inp_files/69791.got.cif
#   From: 2010.05.17/outbox.cif.g08.bks.cpg/sg15_35_cif.got.tgz:69791.got - 2010.06.03 18:47:42.
