data_PCOD9287925
_publ_section_title
;
Structure prediction by ZEFSAII (Michael W. Deem and Ramdas Pophale) SiO2 
 PCOD9287925
Probable space group: C 2/C
;
_chemical_formula_sum "Si O2"
_cell_formula_units_Z 60
_cell_length_a 8.778704
_cell_length_b 31.094896
_cell_length_c 10.878710
_cell_angle_alpha 90.000000
_cell_angle_beta 95.406295
_cell_angle_gamma 90.000000
_cell_volume 2956.383005
_symmetry_space_group_name_H-M "C 2/C"
_symmetry_group_IT_number 15
_symmetry_cell_setting 'monoclinic'
loop_
_space_group_symop_operation_xyz
x,y,z
-x,y,1/2-z
-x,-y,-z
x,-y,1/2+z
1/2+x,1/2+y,z
1/2-x,1/2+y,1/2-z
1/2-x,1/2-y,-z
1/2+x,1/2-y,1/2+z
loop_
_atom_site_type_symbol
_atom_site_label
_atom_site_fract_x
_atom_site_fract_y
_atom_site_fract_z
Si Si1 0.045595 0.259845 0.892604
Si Si2 0.071543 0.547394 0.511677
Si Si3 0.254779 0.165464 0.203977
Si Si4 0.774409 0.690264 0.473086
Si Si5 0.349894 0.586257 0.678344
Si Si6 0.889805 0.617446 0.643154
Si Si7 0.554874 0.670530 0.969022
Si Si8 0.500000 0.093287 0.250000
O O1 0.134925 0.304048 0.869729
O O2 0.130110 0.216930 0.944379
O O3 0.000000 0.246938 0.750000
O O4 0.904716 0.272728 0.973670
O O5 0.243626 0.557172 0.578974
O O6 0.041341 0.566219 0.373754
O O7 0.000000 0.500000 0.500000
O O8 0.972497 0.575474 0.598658
O O9 0.218053 0.188902 0.328257
O O10 0.352846 0.124266 0.250204
O O11 0.110141 0.156545 0.108301
O O12 0.863862 0.648316 0.526859
O O13 0.623330 0.684250 0.545243
O O14 0.500000 0.564689 0.750000
O O15 0.252723 0.602024 0.788157
O O16 0.400806 0.630423 0.612892
O O17 0.000000 0.640573 0.750000
#
# Coordination Sequence:
#
# PCOD9287925 Si02
#       8
#     8   8   8   8   8   8   8   4
#     4  10  22  38  60  87 129 174 229 280 319 391
#     4  11  25  44  75 102 128 171 226 275 333 422
#     4  11  21  41  63  88 129 172 224 279 330 392
#     4  11  21  40  61  89 129 172 220 276 329 389
#     4  11  23  42  67  98 137 178 211 277 344 403
#     4  10  22  40  64  93 127 167 217 261 327 404
#     4  12  23  38  60  96 128 177 222 271 340 386
#     4  12  20  42  72  94 130 174 220 270 340 392
#
# _framework density 20.295069999999999
#
# number of rings (size 3 to 8) (size 9 to 14) (size 15 to 20)
#    0.000    1.067    6.000    1.600    4.667    0.000 
#    0.000    0.667    2.933    0.000    0.000    0.000 
#    0.000    0.000    0.000    0.000    0.000    0.000 
#
# Total GULP energy -167012.394479 kJ/mol
# GULP energy per Si atom -5567.079816 kJ/mol
# Density = 2.024888 g / cm^3
# Si number density = 20.295070 Si / 1000 Ang^3
#
#
#
# Elastic Constant Matrix: (Units=GPa)
#
#
# Indices 1 2 3 4 5 6 
#
# 1 79.9504 32.8720 34.2214 0.0000 10.1103 0.0000
# 2 32.8720 104.5976 37.7229 0.0000 18.6918 0.0000
# 3 34.2214 37.7229 107.1884 0.0000 17.7661 0.0000
# 4 0.0000 0.0000 0.0000 19.0733 0.0000 8.9094
# 5 10.1103 18.6918 17.7661 0.0000 33.4116 0.0000
# 6 0.0000 0.0000 0.0000 8.9094 0.0000 14.8826
#
#
#
# Elastic Compliance Matrix: (Units=1/GPa)
#
#
# Indices 1 2 3 4 5 6 
#
# 1 0.015580 -0.003435 -0.003621 0.000000 -0.000867 0.000000
# 2 -0.003435 0.012353 -0.002497 0.000000 -0.004543 0.000000
# 3 -0.003621 -0.002497 0.012010 0.000000 -0.003893 0.000000
# 4 0.000000 0.000000 0.000000 0.072781 0.000000 -0.043570
# 5 -0.000867 -0.004543 -0.003893 0.000000 0.034804 0.000000
# 6 0.000000 0.000000 0.000000 -0.043570 0.000000 0.093275
#
#
# Mechanical properties :
#
#
# Convention : Reuss Voigt Hill
#
# Bulk Modulus (GPa) = 47.99889 55.70766 51.85328
# Shear Modulus (GPa) = 18.73670 25.93484 22.33577
#
# Velocity S-wave (km/s) = 3.04174 3.57864 3.32106
# Velocity P-wave (km/s) = 6.00318 6.67712 6.34910
#
# Compressibility (1/GPa) = 0.02083381
#
# Stress axis : x y z
#
# Youngs Moduli (GPa) = 64.18509 80.95431 83.26568
#
# Poissons Ratio (x) = 0.27811 0.30154
# Poissons Ratio (y) = 0.22050 0.20796
# Poissons Ratio (z) = 0.23244 0.20218
#
# Static dielectric constant tensor:
#      x y z
#    x 1.841840 0.000000 0.023650 
#    y 0.000000 1.734170 0.000000 
#    z 0.023650 0.000000 1.742240 
# 
# From -- ./inp_files/82248.got.cif
#   From: 2010.05.17/outbox.cif.g08.bks.cpg/sg15_42_cif.got.tgz:82248.got - 2010.06.03 18:47:42.
