data_PCOD9287237
_publ_section_title
;
Structure prediction by ZEFSAII (Michael W. Deem and Ramdas Pophale) SiO2 
 PCOD9287237
Probable space group: C 2/C
;
_chemical_formula_sum "Si O2"
_cell_formula_units_Z 60
_cell_length_a 13.977883
_cell_length_b 20.007930
_cell_length_c 15.011969
_cell_angle_alpha 90.000000
_cell_angle_beta 138.780600
_cell_angle_gamma 90.000000
_cell_volume 2766.494743
_symmetry_space_group_name_H-M "C 2/C"
_symmetry_group_IT_number 15
_symmetry_cell_setting 'monoclinic'
loop_
_space_group_symop_operation_xyz
x,y,z
-x,y,1/2-z
-x,-y,-z
x,-y,1/2+z
1/2+x,1/2+y,z
1/2-x,1/2+y,1/2-z
1/2-x,1/2-y,-z
1/2+x,1/2-y,1/2+z
loop_
_atom_site_type_symbol
_atom_site_label
_atom_site_fract_x
_atom_site_fract_y
_atom_site_fract_z
Si Si1 0.548996 0.862464 0.987769
Si Si2 0.762018 0.619590 0.714612
Si Si3 0.662131 0.524215 0.101652
Si Si4 0.500000 0.910025 0.250000
Si Si5 0.753276 0.576697 0.342762
Si Si6 0.052421 0.771774 0.020020
Si Si7 0.866191 0.787233 0.715113
Si Si8 0.312708 0.024918 0.024387
O O1 0.420492 0.901753 0.949001
O O2 0.495559 0.785537 0.942598
O O3 0.594732 0.909810 0.937856
O O4 0.682259 0.861214 0.149574
O O5 0.753017 0.540610 0.695416
O O6 0.608344 0.655980 0.591597
O O7 0.888373 0.634079 0.730053
O O8 0.698370 0.576886 0.202733
O O9 0.706867 0.541068 0.032505
O O10 0.500000 0.500000 0.000000
O O11 0.409311 0.961758 0.124910
O O12 0.664944 0.634939 0.328840
O O13 0.738020 0.507144 0.384468
O O14 0.207464 0.744680 0.091179
O O15 0.927136 0.777898 0.858423
O O16 0.000000 0.765023 0.750000
#
# Coordination Sequence:
#
# PCOD9287237 Si02
#       8
#     8   8   8   4   8   8   8   8
#     4  11  21  42  63  93 129 177 222 265 330 418
#     4  11  21  38  63  93 136 168 217 276 332 403
#     4  11  25  41  65 100 134 169 218 289 343 399
#     4  10  22  34  66 104 132 166 226 280 346 402
#     4  11  23  39  65  99 133 171 215 285 344 402
#     4  11  24  40  61  93 134 183 221 271 333 401
#     4  11  25  38  61  92 136 179 226 276 341 411
#     4  11  22  40  67  98 129 176 224 273 344 407
#
# _framework density 21.688095000000001
#
# number of rings (size 3 to 8) (size 9 to 14) (size 15 to 20)
#    0.000    1.067    4.000    3.200    6.533    0.000 
#    0.000    0.000    0.000    3.200   13.867    0.000 
#    0.000    0.000    0.000    0.000    0.000    0.000 
#
# Total GULP energy -167375.757652 kJ/mol
# GULP energy per Si atom -5579.191922 kJ/mol
# Density = 2.163873 g / cm^3
# Si number density = 21.688095 Si / 1000 Ang^3
#
#
#
# Elastic Constant Matrix: (Units=GPa)
#
#
# Indices 1 2 3 4 5 6 
#
# 1 83.3136 15.4991 14.8621 0.0000 -4.6150 0.0000
# 2 15.4991 69.4680 -7.9835 0.0000 -4.6391 0.0000
# 3 14.8621 -7.9835 58.4035 0.0000 -1.9666 0.0000
# 4 0.0000 0.0000 0.0000 25.3599 0.0000 14.3775
# 5 -4.6150 -4.6391 -1.9666 0.0000 27.1619 0.0000
# 6 0.0000 0.0000 0.0000 14.3775 0.0000 28.6823
#
#
#
# Elastic Compliance Matrix: (Units=1/GPa)
#
#
# Indices 1 2 3 4 5 6 
#
# 1 0.013381 -0.003328 -0.003812 0.000000 0.001429 0.000000
# 2 -0.003328 0.015645 0.003064 0.000000 0.002328 0.000000
# 3 -0.003812 0.003064 0.018552 0.000000 0.001219 0.000000
# 4 0.000000 0.000000 0.000000 0.055088 0.000000 -0.027614
# 5 0.001429 0.002328 0.001219 0.000000 0.037545 0.000000
# 6 0.000000 0.000000 0.000000 -0.027614 0.000000 0.048706
#
#
# Mechanical properties :
#
#
# Convention : Reuss Voigt Hill
#
# Bulk Modulus (GPa) = 25.36376 28.43784 26.90080
# Shear Modulus (GPa) = 23.78551 28.82796 26.30674
#
# Velocity S-wave (km/s) = 3.31525 3.64978 3.48653
# Velocity P-wave (km/s) = 5.13563 5.55895 5.35148
#
# Compressibility (1/GPa) = 0.03942634
#
# Stress axis : x y z
#
# Youngs Moduli (GPa) = 74.73196 63.91702 53.90203
#
# Poissons Ratio (x) = 0.21272 0.20547
# Poissons Ratio (y) = 0.24872 -0.16515
# Poissons Ratio (z) = 0.28488 -0.19584
#
# Static dielectric constant tensor:
#      x y z
#    x 1.816340 0.000000 0.044610 
#    y 0.000000 1.857480 0.000000 
#    z 0.044610 0.000000 2.141340 
# 
# From -- ./inp_files/156376.got.cif
#   From: 2010.05.17/outbox.cif.g08.bks.cpg/sg15_79_cif.got.tgz:156376.got - 2010.06.03 18:47:42.
