data_PCOD9287959
_publ_section_title
;
Structure prediction by ZEFSAII (Michael W. Deem and Ramdas Pophale) SiO2 
 PCOD9287959
Probable space group: C 2/C
;
_chemical_formula_sum "Si O2"
_cell_formula_units_Z 56
_cell_length_a 14.666491
_cell_length_b 18.491755
_cell_length_c 21.951216
_cell_angle_alpha 90.000000
_cell_angle_beta 153.996548
_cell_angle_gamma 90.000000
_cell_volume 2610.108369
_symmetry_space_group_name_H-M "C 2/C"
_symmetry_group_IT_number 15
_symmetry_cell_setting 'monoclinic'
loop_
_space_group_symop_operation_xyz
x,y,z
-x,y,1/2-z
-x,-y,-z
x,-y,1/2+z
1/2+x,1/2+y,z
1/2-x,1/2+y,1/2-z
1/2-x,1/2-y,-z
1/2+x,1/2-y,1/2+z
loop_
_atom_site_type_symbol
_atom_site_label
_atom_site_fract_x
_atom_site_fract_y
_atom_site_fract_z
Si Si1 0.000000 0.686798 0.750000
Si Si2 0.304839 0.410492 0.595762
Si Si3 0.765535 0.601360 0.222325
Si Si4 0.887878 0.547799 0.983229
Si Si5 0.500000 0.067019 0.250000
Si Si6 0.312135 0.435538 0.460194
Si Si7 0.272977 0.743941 0.219943
Si Si8 0.067557 0.320415 0.068119
O O1 0.188832 0.629666 0.853860
O O2 0.035539 0.735412 0.710619
O O3 0.500000 0.383023 0.750000
O O4 0.288746 0.496277 0.598289
O O5 0.317922 0.406052 0.532202
O O6 0.109569 0.367120 0.504146
O O7 0.886375 0.616351 0.232137
O O8 0.718351 0.666486 0.240616
O O9 0.936981 0.554890 0.360345
O O10 0.549673 0.560325 0.081341
O O11 0.830251 0.624510 0.919095
O O12 0.000000 0.500000 0.000000
O O13 0.681016 0.009754 0.378863
O O14 0.287170 0.794067 0.289151
O O15 0.065974 0.738230 0.052193
#
# Coordination Sequence:
#
# PCOD9287959 Si02
#       8
#     4   8   8   8   4   8   8   8
#     4  11  24  38  62 102 136 165 212 284 330 397
#     4  11  20  37  61  96 127 162 209 274 339 388
#     4  11  23  41  62  95 127 180 215 268 331 392
#     4   9  19  37  61  88 131 163 213 267 329 391
#     4  11  24  44  64  88 134 167 226 276 318 397
#     4  11  22  38  65  97 126 162 216 274 343 380
#     4  11  23  39  63  92 138 171 218 260 334 395
#     4  10  22  38  60  92 132 176 211 266 323 401
#
# _framework density 21.455048000000001
#
# number of rings (size 3 to 8) (size 9 to 14) (size 15 to 20)
#    0.000    1.429    2.857    3.857    3.000    1.143 
#    0.000    4.286    1.571    4.286    0.000    0.000 
#    0.000    0.000    0.000    0.000    0.000    0.000 
#
# Total GULP energy -155976.058068 kJ/mol
# GULP energy per Si atom -5570.573502 kJ/mol
# Density = 2.140622 g / cm^3
# Si number density = 21.455048 Si / 1000 Ang^3
#
#
#
# Elastic Constant Matrix: (Units=GPa)
#
#
# Indices 1 2 3 4 5 6 
#
# 1 65.2132 3.3912 19.7476 0.0012 -5.7654 -0.0084
# 2 3.3912 53.5795 17.6008 0.0318 -0.3489 -0.0153
# 3 19.7476 17.6008 63.5254 0.0514 -11.0512 -0.0313
# 4 0.0012 0.0318 0.0514 -47.4254 0.0051 47.6054
# 5 -5.7654 -0.3489 -11.0512 0.0051 23.2942 -0.0113
# 6 -0.0084 -0.0153 -0.0313 47.6054 -0.0113 -12.6244
#
#
#
# Elastic Compliance Matrix: (Units=1/GPa)
#
#
# Indices 1 2 3 4 5 6 
#
# 1 0.017020 0.000628 -0.005156 0.000002 0.001776 0.000006
# 2 0.000628 0.020702 -0.006376 0.000000 -0.002560 -0.000006
# 3 -0.005156 -0.006376 0.020570 0.000010 0.008387 -0.000008
# 4 0.000002 0.000000 0.000010 0.007571 0.000018 0.028548
# 5 0.001776 -0.002560 0.008387 0.000018 0.047309 0.000005
# 6 0.000006 -0.000006 -0.000008 0.028548 0.000005 0.028440
#
#
# Mechanical properties :
#
#
# Convention : Reuss Voigt Hill
#
# Bulk Modulus (GPa) = 27.40944 29.31082 28.36013
# Shear Modulus (GPa) = 28.47674 2.08746 15.28210
#
# Velocity S-wave (km/s) = 3.64713 0.98745 2.67176
# Velocity P-wave (km/s) = 5.52616 3.87185 4.77125
#
# Compressibility (1/GPa) = 0.03648378
#
# Stress axis : x y z
#
# Youngs Moduli (GPa) = 58.75462 48.30443 48.61385
#
# Poissons Ratio (x) = -0.03034 0.25065
# Poissons Ratio (y) = -0.03690 0.30998
# Poissons Ratio (z) = 0.30293 0.30801
#
# Static dielectric constant tensor:
#      x y z
#    x 1.685370 0.000010 -0.125260 
#    y 0.000010 1.811530 0.000010 
#    z -0.125260 0.000010 1.722980 
# 
# From -- ./inp_files/245217.got.cif
#   From: 2010.05.17/outbox.cif.g08.bks.cpg/sg15_123_cif.got.tgz:245217.got - 2010.06.03 18:47:42.
