data_PCOD9287961
_publ_section_title
;
Structure prediction by ZEFSAII (Michael W. Deem and Ramdas Pophale) SiO2 
 PCOD9287961
Probable space group: C 2/C
;
_chemical_formula_sum "Si O2"
_cell_formula_units_Z 60
_cell_length_a 28.041663
_cell_length_b 17.740526
_cell_length_c 12.442438
_cell_angle_alpha 90.000000
_cell_angle_beta 30.632847
_cell_angle_gamma 90.000000
_cell_volume 3153.912073
_symmetry_space_group_name_H-M "C 2/C"
_symmetry_group_IT_number 15
_symmetry_cell_setting 'monoclinic'
loop_
_space_group_symop_operation_xyz
x,y,z
-x,y,1/2-z
-x,-y,-z
x,-y,1/2+z
1/2+x,1/2+y,z
1/2-x,1/2+y,1/2-z
1/2-x,1/2-y,-z
1/2+x,1/2-y,1/2+z
loop_
_atom_site_type_symbol
_atom_site_label
_atom_site_fract_x
_atom_site_fract_y
_atom_site_fract_z
Si Si1 0.133869 0.044267 0.975596
Si Si2 0.067838 0.881694 0.024430
Si Si3 0.573239 0.941944 0.304990
Si Si4 0.229739 0.761630 0.665089
Si Si5 0.505195 0.618403 0.406155
Si Si6 0.939632 0.287564 0.263219
Si Si7 0.500000 0.977610 0.750000
Si Si8 0.324364 0.091489 0.698898
O O1 0.242420 0.051949 0.791637
O O2 0.078787 0.070939 0.190378
O O3 0.093508 0.097693 0.958501
O O4 0.107420 0.960218 0.993026
O O5 0.000000 0.851579 0.250000
O O6 0.151323 0.823622 0.838431
O O7 0.015364 0.897161 0.012767
O O8 0.545580 0.853959 0.351660
O O9 0.566936 0.971003 0.195202
O O10 0.667618 0.939144 0.193188
O O11 0.500000 0.000000 0.500000
O O12 0.250000 0.750000 0.500000
O O13 0.331513 0.785274 0.509632
O O14 0.197698 0.679678 0.765559
O O15 0.531244 0.705838 0.337345
O O16 0.000000 0.303814 0.250000
O O17 0.572976 0.926383 0.544452
#
# Coordination Sequence:
#
# PCOD9287961 Si02
#       8
#     8   8   8   8   8   8   4   8
#     4  11  23  39  68 101 129 177 222 282 340 404
#     4  12  26  41  67 101 137 174 224 289 347 400
#     4  10  22  38  60  93 127 164 215 267 327 389
#     4  12  23  41  67  94 120 179 227 267 329 411
#     4  11  21  44  65  98 133 173 225 274 341 409
#     4  12  21  40  73  95 125 173 232 274 326 411
#     4  10  24  38  58  92 130 172 202 276 338 380
#     4  11  22  41  62  92 126 168 220 266 332 395
#
# _framework density 19.023993000000001
#
# number of rings (size 3 to 8) (size 9 to 14) (size 15 to 20)
#    0.000    0.800    7.333    0.400    2.800    0.000 
#    0.000    0.000    0.000    1.600    0.000    0.000 
#    0.000    0.000    0.000    0.000    0.000    0.000 
#
# Total GULP energy -167354.572631 kJ/mol
# GULP energy per Si atom -5578.485754 kJ/mol
# Density = 1.898069 g / cm^3
# Si number density = 19.023993 Si / 1000 Ang^3
#
#
#
# Elastic Constant Matrix: (Units=GPa)
#
#
# Indices 1 2 3 4 5 6 
#
# 1 149.1399 32.7969 61.5390 0.0000 -18.0294 0.0000
# 2 32.7969 120.7555 47.5875 0.0000 -2.2234 0.0000
# 3 61.5390 47.5875 84.9628 0.0000 -10.2192 0.0000
# 4 0.0000 0.0000 0.0000 30.1864 0.0000 -0.9916
# 5 -18.0294 -2.2234 -10.2192 0.0000 35.9383 0.0000
# 6 0.0000 0.0000 0.0000 -0.9916 0.0000 23.4995
#
#
#
# Elastic Compliance Matrix: (Units=1/GPa)
#
#
# Indices 1 2 3 4 5 6 
#
# 1 0.009871 0.000063 -0.006822 0.000000 0.003016 0.000000
# 2 0.000063 0.010667 -0.006147 0.000000 -0.001056 0.000000
# 3 -0.006822 -0.006147 0.020394 0.000000 0.001996 0.000000
# 4 0.000000 0.000000 0.000000 0.033173 0.000000 0.001400
# 5 0.003016 -0.001056 0.001996 0.000000 0.029841 0.000000
# 6 0.000000 0.000000 0.000000 0.001400 0.000000 0.042613
#
#
# Mechanical properties :
#
#
# Convention : Reuss Voigt Hill
#
# Bulk Modulus (GPa) = 66.13932 70.96721 68.55327
# Shear Modulus (GPa) = 28.18292 32.12050 30.15171
#
# Velocity S-wave (km/s) = 3.85312 4.11350 3.98544
# Velocity P-wave (km/s) = 7.39170 7.74249 7.56913
#
# Compressibility (1/GPa) = 0.01511960
#
# Stress axis : x y z
#
# Youngs Moduli (GPa) = 101.30903 93.74534 49.03314
#
# Poissons Ratio (x) = -0.00591 0.33451
# Poissons Ratio (y) = -0.00639 0.30143
# Poissons Ratio (z) = 0.69113 0.57629
#
# Static dielectric constant tensor:
#      x y z
#    x 1.754500 0.000000 0.007620 
#    y 0.000000 1.669800 0.000000 
#    z 0.007620 0.000000 1.689980 
# 
# From -- ./inp_files/123968.got.cif
#   From: 2010.05.17/outbox.cif.g08.bks.cpg/sg15_62_cif.got.tgz:123968.got - 2010.06.03 18:47:42.
