data_PCOD9287640
_publ_section_title
;
Structure prediction by ZEFSAII (Michael W. Deem and Ramdas Pophale) SiO2 
 PCOD9287640
Probable space group: C 2/C
;
_chemical_formula_sum "Si O2"
_cell_formula_units_Z 56
_cell_length_a 12.561487
_cell_length_b 24.375301
_cell_length_c 28.141280
_cell_angle_alpha 90.000000
_cell_angle_beta 160.253142
_cell_angle_gamma 90.000000
_cell_volume 2911.241461
_symmetry_space_group_name_H-M "C 2/C"
_symmetry_group_IT_number 15
_symmetry_cell_setting 'monoclinic'
loop_
_space_group_symop_operation_xyz
x,y,z
-x,y,1/2-z
-x,-y,-z
x,-y,1/2+z
1/2+x,1/2+y,z
1/2-x,1/2+y,1/2-z
1/2-x,1/2-y,-z
1/2+x,1/2-y,1/2+z
loop_
_atom_site_type_symbol
_atom_site_label
_atom_site_fract_x
_atom_site_fract_y
_atom_site_fract_z
Si Si1 0.783639 0.649144 0.053083
Si Si2 0.800833 0.834536 0.272375
Si Si3 0.774254 0.273780 0.700800
Si Si4 0.874123 0.031183 0.400975
Si Si5 0.341635 0.969861 0.533786
Si Si6 0.356284 0.351693 0.466789
Si Si7 0.429577 0.448710 0.275939
O O1 0.883877 0.587691 0.079588
O O2 0.063838 0.684069 0.193977
O O3 0.616681 0.673869 0.936176
O O4 0.523774 0.648868 0.986005
O O5 0.728113 0.782439 0.209305
O O6 0.517504 0.847520 0.189699
O O7 0.832485 0.888446 0.253355
O O8 0.478637 0.303120 0.552198
O O9 0.000000 0.264604 0.750000
O O10 0.500000 0.034562 0.250000
O O11 0.021350 0.091390 0.459817
O O12 0.000000 0.000000 0.500000
O O13 0.021488 0.996417 0.420401
O O14 0.245832 0.961355 0.438838
O O15 0.642608 0.008989 0.665411
O O16 0.500000 0.449187 0.250000
#
# Coordination Sequence:
#
# PCOD9287640 Si02
#       7
#     8   8   8   8   8   8   8
#     4  10  22  37  61  88 121 152 197 250 314 359
#     4  11  22  39  61  86 116 162 206 247 296 357
#     4  10  22  40  60  84 118 160 204 250 295 354
#     4  12  23  35  60  93 133 157 190 242 311 382
#     4  11  23  38  61  90 121 162 197 247 312 364
#     4  11  22  37  58  91 124 155 194 247 308 371
#     4  11  24  41  60  85 120 163 210 251 291 355
#
# _framework density 19.235779000000001
#
# number of rings (size 3 to 8) (size 9 to 14) (size 15 to 20)
#    0.000    1.143    2.857    4.286    4.000    0.000 
#    0.000    0.000    0.000    3.429    0.000    0.000 
#    0.000    0.000    0.000    0.000    0.000    0.000 
#
# Total GULP energy -156348.347595 kJ/mol
# GULP energy per Si atom -5583.869557 kJ/mol
# Density = 1.919200 g / cm^3
# Si number density = 19.235779 Si / 1000 Ang^3
#
#
#
# Elastic Constant Matrix: (Units=GPa)
#
#
# Indices 1 2 3 4 5 6 
#
# 1 85.4757 34.2140 25.6369 0.0231 -22.4845 0.0152
# 2 34.2140 112.5728 35.5550 0.0719 -15.4441 0.0370
# 3 25.6369 35.5550 83.9429 0.2123 -11.6549 0.0436
# 4 0.0231 0.0719 0.2123 22.2784 0.0935 -2.8731
# 5 -22.4845 -15.4441 -11.6549 0.0935 26.5531 0.0219
# 6 0.0152 0.0370 0.0436 -2.8731 0.0219 29.1127
#
#
#
# Elastic Compliance Matrix: (Units=1/GPa)
#
#
# Indices 1 2 3 4 5 6 
#
# 1 0.016463 -0.002720 -0.002300 -0.000036 0.011349 -0.000014
# 2 -0.002720 0.011192 -0.003542 -0.000012 0.002652 -0.000011
# 3 -0.002300 -0.003542 0.014439 -0.000138 0.002331 -0.000031
# 4 -0.000036 -0.000012 -0.000138 0.045468 -0.000262 0.004488
# 5 0.011349 0.002652 0.002331 -0.000262 0.049837 -0.000076
# 6 -0.000014 -0.000011 -0.000031 0.004488 -0.000076 0.034792
#
#
# Mechanical properties :
#
#
# Convention : Reuss Voigt Hill
#
# Bulk Modulus (GPa) = 40.04587 52.53367 46.28977
# Shear Modulus (GPa) = 25.29858 28.02788 26.66323
#
# Velocity S-wave (km/s) = 3.63048 3.82130 3.72711
# Velocity P-wave (km/s) = 6.19980 6.84394 6.52981
#
# Compressibility (1/GPa) = 0.02497136
#
# Stress axis : x y z
#
# Youngs Moduli (GPa) = 60.74102 89.34709 69.25499
#
# Poissons Ratio (x) = 0.24304 0.15929
# Poissons Ratio (y) = 0.16523 0.24528
# Poissons Ratio (z) = 0.13971 0.31643
#
# Static dielectric constant tensor:
#      x y z
#    x 1.668350 -0.000040 -0.005870 
#    y -0.000040 1.663120 -0.000060 
#    z -0.005870 -0.000060 1.675390 
# 
# From -- ./inp_files/293969.got.cif
#   From: 2010.05.17/outbox.cif.g08.bks.cpg/sg15_147_cif.got.tgz:293969.got - 2010.06.03 18:47:42.
