data_PCOD9287675
_publ_section_title
;
Structure prediction by ZEFSAII (Michael W. Deem and Ramdas Pophale) SiO2 
 PCOD9287675
Probable space group: C 2/C
;
_chemical_formula_sum "Si O2"
_cell_formula_units_Z 24
_cell_length_a 18.215734
_cell_length_b 8.736402
_cell_length_c 5.522061
_cell_angle_alpha 90.000000
_cell_angle_beta 94.957819
_cell_angle_gamma 90.000000
_cell_volume 875.492772
_symmetry_space_group_name_H-M "C 2/C"
_symmetry_group_IT_number 15
_symmetry_cell_setting 'monoclinic'
loop_
_space_group_symop_operation_xyz
x,y,z
-x,y,1/2-z
-x,-y,-z
x,-y,1/2+z
1/2+x,1/2+y,z
1/2-x,1/2+y,1/2-z
1/2-x,1/2-y,-z
1/2+x,1/2-y,1/2+z
loop_
_atom_site_type_symbol
_atom_site_label
_atom_site_fract_x
_atom_site_fract_y
_atom_site_fract_z
Si Si1 0.176142 0.929745 0.114326
Si Si2 0.689621 0.859277 0.865186
Si Si3 0.970311 0.673403 0.991932
O O1 0.168897 0.746784 0.126598
O O2 0.144845 0.003212 0.354676
O O3 0.261871 0.989398 0.157676
O O4 0.616738 0.855985 0.004515
O O5 0.750000 0.750000 0.000000
O O6 0.000000 0.747678 0.250000
O O7 0.000000 0.743981 0.750000
O O8 0.000000 0.500000 0.000000
#
# Coordination Sequence:
#
# PCOD9287675 Si02
#       3
#     8   8   8
#     4  10  22  37  62  97 129 163 222 270 322 375
#     4  10  23  41  70  99 133 175 228 274 326 399
#     4  10  24  40  65  95 135 172 223 270 333 390
#
# _framework density 27.413132999999998
#
# number of rings (size 3 to 8) (size 9 to 14) (size 15 to 20)
#    0.000    2.000    0.000    1.000   18.667    5.333 
#    0.000    0.000    0.000   24.000    0.000    0.000 
#    0.000    0.000    0.000    0.000    0.000    0.000 
#
# Total GULP energy -67034.581118 kJ/mol
# GULP energy per Si atom -5586.215093 kJ/mol
# Density = 2.735074 g / cm^3
# Si number density = 27.413133 Si / 1000 Ang^3
#
#
#
# Elastic Constant Matrix: (Units=GPa)
#
#
# Indices 1 2 3 4 5 6 
#
# 1 156.8098 11.9658 23.7762 0.0000 -34.0352 0.0000
# 2 11.9658 80.0060 27.8937 0.0000 -33.2600 0.0000
# 3 23.7762 27.8937 241.6414 0.0000 -0.4450 0.0000
# 4 0.0000 0.0000 0.0000 40.2644 0.0000 -5.8117
# 5 -34.0352 -33.2600 -0.4450 0.0000 38.8233 0.0000
# 6 0.0000 0.0000 0.0000 -5.8117 0.0000 32.6520
#
#
#
# Elastic Compliance Matrix: (Units=1/GPa)
#
#
# Indices 1 2 3 4 5 6 
#
# 1 0.008579 0.003521 -0.001231 0.000000 0.010523 0.000000
# 2 0.003521 0.022115 -0.002859 0.000000 0.022000 0.000000
# 3 -0.001231 -0.002859 0.004583 0.000000 -0.003476 0.000000
# 4 0.000000 0.000000 0.000000 0.025491 0.000000 0.004537
# 5 0.010523 0.022000 -0.003476 0.000000 0.053791 0.000000
# 6 0.000000 0.000000 0.000000 0.004537 0.000000 0.031434
#
#
# Mechanical properties :
#
#
# Convention : Reuss Voigt Hill
#
# Bulk Modulus (GPa) = 29.29182 67.30316 48.29749
# Shear Modulus (GPa) = 31.54373 50.00271 40.77322
#
# Velocity S-wave (km/s) = 3.39585 4.27551 3.86082
# Velocity P-wave (km/s) = 5.10727 6.99843 6.12627
#
# Compressibility (1/GPa) = 0.03413923
#
# Stress axis : x y z
#
# Youngs Moduli (GPa) = 116.56026 45.21839 218.19275
#
# Poissons Ratio (x) = -0.15921 0.26864
# Poissons Ratio (y) = -0.41040 0.62376
# Poissons Ratio (z) = 0.14351 0.12927
#
# Static dielectric constant tensor:
#      x y z
#    x 2.153200 0.000000 0.020860 
#    y 0.000000 2.000530 0.000000 
#    z 0.020860 0.000000 2.517220 
# 
# From -- ./inp_files/9317.got.cif
#   From: 2010.05.17/outbox.cif.g08.bks.cpg/sg15_5_cif.got.tgz:9317.got - 2010.06.03 18:47:42.
