data_PCOD9287146
_publ_section_title
;
Structure prediction by ZEFSAII (Michael W. Deem and Ramdas Pophale) SiO2 
 PCOD9287146
Probable space group: C 2/C
;
_chemical_formula_sum "Si O2"
_cell_formula_units_Z 64
_cell_length_a 29.672649
_cell_length_b 16.670172
_cell_length_c 23.478378
_cell_angle_alpha 90.000000
_cell_angle_beta 18.491481
_cell_angle_gamma 90.000000
_cell_volume 3683.391658
_symmetry_space_group_name_H-M "C 2/C"
_symmetry_group_IT_number 15
_symmetry_cell_setting 'monoclinic'
loop_
_space_group_symop_operation_xyz
x,y,z
-x,y,1/2-z
-x,-y,-z
x,-y,1/2+z
1/2+x,1/2+y,z
1/2-x,1/2+y,1/2-z
1/2-x,1/2-y,-z
1/2+x,1/2-y,1/2+z
loop_
_atom_site_type_symbol
_atom_site_label
_atom_site_fract_x
_atom_site_fract_y
_atom_site_fract_z
Si Si1 0.490189 0.683526 0.048743
Si Si2 0.129380 0.975933 0.415188
Si Si3 0.092349 0.176886 0.586892
Si Si4 0.931024 0.874229 0.166389
Si Si5 0.611272 0.865869 0.569828
Si Si6 0.235789 0.279396 0.783220
Si Si7 0.385019 0.112731 0.562583
Si Si8 0.188830 0.590083 0.240822
O O1 0.325744 0.694327 0.230425
O O2 0.531900 0.602698 0.031724
O O3 0.562822 0.681403 0.897526
O O4 0.572513 0.752625 0.983923
O O5 0.255545 0.951005 0.220637
O O6 0.227004 0.006807 0.350585
O O7 0.020818 0.048988 0.537438
O O8 0.122966 0.269641 0.562283
O O9 0.239800 0.132011 0.399196
O O10 0.000000 0.144694 0.750000
O O11 0.004806 0.165601 0.632965
O O12 0.773231 0.896140 0.375472
O O13 0.500000 0.895731 0.750000
O O14 0.560497 0.880838 0.566741
O O15 0.319206 0.198672 0.661306
O O16 0.230453 0.351669 0.744093
O O17 0.519998 0.087512 0.438199
#
# Coordination Sequence:
#
# PCOD9287146 Si02
#       8
#     8   8   8   8   8   8   8   8
#     4  11  19  33  50  72  96 132 173 213 257 315
#     4  10  22  34  51  69  94 138 181 216 271 311
#     4  10  22  32  47  71 102 143 180 219 243 288
#     4  11  20  34  50  66  97 136 187 207 265 308
#     4  11  23  31  47  74 101 142 184 219 243 291
#     4  11  19  29  50  71  96 132 174 209 255 301
#     4  11  21  34  48  72 104 136 180 222 258 299
#     4  11  20  32  49  72 100 136 180 219 257 305
#
# _framework density 17.37529
#
# number of rings (size 3 to 8) (size 9 to 14) (size 15 to 20)
#    0.000    1.250    7.500    0.750    3.500    1.000 
#    0.000    0.000    0.000    0.000    0.000    0.000 
#    0.000    0.000    0.000  162.000    1.000    0.000 
#
# Total GULP energy -178148.412125 kJ/mol
# GULP energy per Si atom -5567.137879 kJ/mol
# Density = 1.733574 g / cm^3
# Si number density = 17.375290 Si / 1000 Ang^3
#
#
#
# Elastic Constant Matrix: (Units=GPa)
#
#
# Indices 1 2 3 4 5 6 
#
# 1 42.4398 15.6932 23.1795 0.0007 -22.0245 -0.0003
# 2 15.6932 41.7825 22.7401 0.0009 -0.4729 -0.0004
# 3 23.1795 22.7401 79.1380 0.0006 -18.4406 -0.0014
# 4 0.0007 0.0009 0.0006 25.1098 -0.0004 -3.6804
# 5 -22.0245 -0.4729 -18.4406 -0.0004 35.9704 0.0006
# 6 -0.0003 -0.0004 -0.0014 -3.6804 0.0006 17.5400
#
#
#
# Elastic Compliance Matrix: (Units=1/GPa)
#
#
# Indices 1 2 3 4 5 6 
#
# 1 0.043383 -0.014538 -0.002708 0.000000 0.024984 -0.000001
# 2 -0.014538 0.033846 -0.008447 -0.000001 -0.012787 0.000000
# 3 -0.002708 -0.008447 0.017540 0.000000 0.007223 0.000001
# 4 0.000000 -0.000001 0.000000 0.041089 0.000000 0.008622
# 5 0.024984 -0.012787 0.007223 0.000000 0.046633 -0.000001
# 6 -0.000001 0.000000 0.000001 0.008622 -0.000001 0.058821
#
#
# Mechanical properties :
#
#
# Convention : Reuss Voigt Hill
#
# Bulk Modulus (GPa) = 23.05024 31.84288 27.44656
# Shear Modulus (GPa) = 16.27823 22.50721 19.39272
#
# Velocity S-wave (km/s) = 3.06414 3.60301 3.34445
# Velocity P-wave (km/s) = 5.08070 5.97288 5.54476
#
# Compressibility (1/GPa) = 0.04338349
#
# Stress axis : x y z
#
# Youngs Moduli (GPa) = 23.05050 29.54525 57.01388
#
# Poissons Ratio (x) = 0.42952 0.15438
# Poissons Ratio (y) = 0.33510 0.48161
# Poissons Ratio (z) = 0.06241 0.24957
#
# Static dielectric constant tensor:
#      x y z
#    x 1.632990 0.000000 -0.059890 
#    y 0.000000 1.646830 0.000000 
#    z -0.059890 0.000000 1.633660 
# 
# From -- ./inp_files/258063.got.cif
#   From: 2010.05.17/outbox.cif.g08.bks.cpg/sg15_130_cif.got.tgz:258063.got - 2010.06.03 18:47:42.
