data_PCOD9287472
_publ_section_title
;
Structure prediction by ZEFSAII (Michael W. Deem and Ramdas Pophale) SiO2 
 PCOD9287472
Probable space group: C 2/C
;
_chemical_formula_sum "Si O2"
_cell_formula_units_Z 40
_cell_length_a 24.573408
_cell_length_b 12.158406
_cell_length_c 11.977176
_cell_angle_alpha 90.000000
_cell_angle_beta 147.820512
_cell_angle_gamma 90.000000
_cell_volume 1905.793567
_symmetry_space_group_name_H-M "C 2/C"
_symmetry_group_IT_number 15
_symmetry_cell_setting 'monoclinic'
loop_
_space_group_symop_operation_xyz
x,y,z
-x,y,1/2-z
-x,-y,-z
x,-y,1/2+z
1/2+x,1/2+y,z
1/2-x,1/2+y,1/2-z
1/2-x,1/2-y,-z
1/2+x,1/2-y,1/2+z
loop_
_atom_site_type_symbol
_atom_site_label
_atom_site_fract_x
_atom_site_fract_y
_atom_site_fract_z
Si Si1 0.887827 0.910576 0.762443
Si Si2 0.284000 0.190418 0.173044
Si Si3 0.222239 0.438562 0.313670
Si Si4 0.405494 0.747580 0.501202
Si Si5 0.398029 0.393819 0.440078
O O1 0.780098 0.883157 0.519131
O O2 0.919050 0.832345 0.918996
O O3 0.879142 0.033538 0.795791
O O4 0.980531 0.907676 0.835171
O O5 0.189724 0.201754 0.093968
O O6 0.373727 0.266142 0.378018
O O7 0.309028 0.062049 0.208627
O O8 0.250000 0.250000 0.000000
O O9 0.130116 0.365814 0.107217
O O10 0.313244 0.438386 0.379007
O O11 0.500000 0.752237 0.750000
#
# Coordination Sequence:
#
# PCOD9287472 Si02
#       5
#     8   8   8   8   8
#     4  11  21  40  67  96 126 164 222 266 313 379
#     4  11  21  40  64  93 130 167 211 265 326 379
#     4  11  23  41  66  96 131 168 217 264 325 382
#     4  11  25  42  63  93 132 175 214 263 323 383
#     4  10  22  36  64 100 125 164 208 272 319 376
#
# _framework density 20.988631999999999
#
# number of rings (size 3 to 8) (size 9 to 14) (size 15 to 20)
#    0.000    1.200    4.000    2.400    2.800    0.000 
#    0.000    8.000    0.000    0.000    0.000    0.000 
#    0.000    0.000    0.000    0.000    0.000    0.000 
#
# Total GULP energy -111678.876831 kJ/mol
# GULP energy per Si atom -5583.943842 kJ/mol
# Density = 2.094086 g / cm^3
# Si number density = 20.988632 Si / 1000 Ang^3
#
#
#
# Elastic Constant Matrix: (Units=GPa)
#
#
# Indices 1 2 3 4 5 6 
#
# 1 83.4142 29.6377 9.1233 0.0000 -9.5134 0.0000
# 2 29.6377 157.9406 56.8053 0.0000 -7.2760 0.0000
# 3 9.1233 56.8053 111.2556 0.0000 -4.9792 0.0000
# 4 0.0000 0.0000 0.0000 12.7815 0.0000 -9.8029
# 5 -9.5134 -7.2760 -4.9792 0.0000 24.3586 0.0000
# 6 0.0000 0.0000 0.0000 -9.8029 0.0000 23.6492
#
#
#
# Elastic Compliance Matrix: (Units=1/GPa)
#
#
# Indices 1 2 3 4 5 6 
#
# 1 0.013328 -0.002415 0.000344 0.000000 0.004554 0.000000
# 2 -0.002415 0.008250 -0.003982 0.000000 0.000707 0.000000
# 3 0.000344 -0.003982 0.011047 0.000000 0.001203 0.000000
# 4 0.000000 0.000000 0.000000 0.114704 0.000000 0.047546
# 5 0.004554 0.000707 0.001203 0.000000 0.043289 0.000000
# 6 0.000000 0.000000 0.000000 0.047546 0.000000 0.061993
#
#
# Mechanical properties :
#
#
# Convention : Reuss Voigt Hill
#
# Bulk Modulus (GPa) = 48.73728 60.41590 54.57659
# Shear Modulus (GPa) = 18.41232 29.29414 23.85323
#
# Velocity S-wave (km/s) = 2.96506 3.73998 3.37483
# Velocity P-wave (km/s) = 5.91551 6.89184 6.42226
#
# Compressibility (1/GPa) = 0.02051817
#
# Stress axis : x y z
#
# Youngs Moduli (GPa) = 75.02876 121.21877 90.51983
#
# Poissons Ratio (x) = 0.29274 -0.03113
# Poissons Ratio (y) = 0.18119 0.36049
# Poissons Ratio (z) = -0.02580 0.48274
#
# Static dielectric constant tensor:
#      x y z
#    x 1.780270 0.000000 -0.031010 
#    y 0.000000 1.741570 0.000000 
#    z -0.031010 0.000000 1.787260 
# 
# From -- ./inp_files/94491.got.cif
#   From: 2010.05.17/outbox.cif.g08.bks.cpg/sg15_48_cif.got.tgz:94491.got - 2010.06.03 18:47:42.
