data_PCOD9287441
_publ_section_title
;
Structure prediction by ZEFSAII (Michael W. Deem and Ramdas Pophale) SiO2 
 PCOD9287441
Probable space group: C 2/C
;
_chemical_formula_sum "Si O2"
_cell_formula_units_Z 40
_cell_length_a 22.857238
_cell_length_b 5.047002
_cell_length_c 18.972869
_cell_angle_alpha 90.000000
_cell_angle_beta 60.492362
_cell_angle_gamma 90.000000
_cell_volume 1904.821352
_symmetry_space_group_name_H-M "C 2/C"
_symmetry_group_IT_number 15
_symmetry_cell_setting 'monoclinic'
loop_
_space_group_symop_operation_xyz
x,y,z
-x,y,1/2-z
-x,-y,-z
x,-y,1/2+z
1/2+x,1/2+y,z
1/2-x,1/2+y,1/2-z
1/2-x,1/2-y,-z
1/2+x,1/2-y,1/2+z
loop_
_atom_site_type_symbol
_atom_site_label
_atom_site_fract_x
_atom_site_fract_y
_atom_site_fract_z
Si Si1 0.594532 0.115404 0.884395
Si Si2 0.905895 0.243483 0.743688
Si Si3 0.705464 0.451868 0.776096
Si Si4 0.055642 0.753301 0.526720
Si Si5 0.440546 0.269322 0.381634
O O1 0.653274 0.556565 0.748614
O O2 0.599180 0.008798 0.801176
O O3 0.524850 0.269281 0.939905
O O4 0.590412 0.855507 0.935632
O O5 0.841928 0.800341 0.639933
O O6 0.903842 0.264389 0.828924
O O7 0.981877 0.149873 0.681132
O O8 0.744532 0.715701 0.777315
O O9 0.059944 0.508901 0.578626
O O10 0.083745 0.007407 0.549833
#
# Coordination Sequence:
#
# PCOD9287441 Si02
#       5
#     8   8   8   8   8
#     4  10  22  39  62  91 124 157 207 244 302 356
#     4  10  22  38  62  90 124 155 206 242 305 357
#     4  12  24  38  61  88 118 163 209 253 280 350
#     4  10  22  36  62  93 127 154 188 256 316 361
#     4  10  22  36  61  94 126 153 186 257 314 363
#
# _framework density 20.999345000000002
#
# number of rings (size 3 to 8) (size 9 to 14) (size 15 to 20)
#    0.000    1.600    4.000    0.000    5.600    4.000 
#    0.000    0.000    0.000    7.200    0.000    0.000 
#    0.000    0.000    0.000    0.000    0.000    0.000 
#
# Total GULP energy -111678.181090 kJ/mol
# GULP energy per Si atom -5583.909054 kJ/mol
# Density = 2.095155 g / cm^3
# Si number density = 20.999345 Si / 1000 Ang^3
#
#
#
# Elastic Constant Matrix: (Units=GPa)
#
#
# Indices 1 2 3 4 5 6 
#
# 1 95.2040 41.4727 41.3559 -0.0123 0.6821 -0.0048
# 2 41.4727 107.0369 32.2904 -0.1635 -4.6956 0.1448
# 3 41.3559 32.2904 74.2881 0.0065 17.3193 0.0108
# 4 -0.0123 -0.1635 0.0065 37.7429 -0.0098 -9.7702
# 5 0.6821 -4.6956 17.3193 -0.0098 28.4058 0.0028
# 6 -0.0048 0.1448 0.0108 -9.7702 0.0028 23.6970
#
#
#
# Elastic Compliance Matrix: (Units=1/GPa)
#
#
# Indices 1 2 3 4 5 6 
#
# 1 0.015449 -0.003379 -0.008060 0.000000 0.003985 0.000027
# 2 -0.003379 0.012251 -0.004587 0.000039 0.004903 -0.000058
# 3 -0.008060 -0.004587 0.023400 -0.000029 -0.014832 0.000006
# 4 0.000000 0.000039 -0.000029 0.029661 0.000033 0.012229
# 5 0.003985 0.004903 -0.014832 0.000033 0.044962 -0.000014
# 6 0.000027 -0.000058 0.000006 0.012229 -0.000014 0.047242
#
#
# Mechanical properties :
#
#
# Convention : Reuss Voigt Hill
#
# Bulk Modulus (GPa) = 52.50344 56.30744 54.40544
# Shear Modulus (GPa) = 23.65566 28.72980 26.19273
#
# Velocity S-wave (km/s) = 3.35997 3.70283 3.53556
# Velocity P-wave (km/s) = 6.33319 6.71963 6.52927
#
# Compressibility (1/GPa) = 0.01904637
#
# Stress axis : x y z
#
# Youngs Moduli (GPa) = 64.73036 81.62670 42.73533
#
# Poissons Ratio (x) = 0.27585 0.34446
# Poissons Ratio (y) = 0.21875 0.19602
# Poissons Ratio (z) = 0.52175 0.37440
#
# Static dielectric constant tensor:
#      x y z
#    x 1.770980 -0.000020 -0.029030 
#    y -0.000020 1.803730 0.000000 
#    z -0.029030 0.000000 1.788900 
# 
# From -- ./inp_files/253728.got.cif
#   From: 2010.05.17/outbox.cif.g08.bks.cpg/sg15_127_cif.got.tgz:253728.got - 2010.06.03 18:47:42.
