data_PCOD9287250
_publ_section_title
;
Structure prediction by ZEFSAII (Michael W. Deem and Ramdas Pophale) SiO2 
 PCOD9287250
Probable space group: C 2/C
;
_chemical_formula_sum "Si O2"
_cell_formula_units_Z 52
_cell_length_a 28.591958
_cell_length_b 19.899027
_cell_length_c 5.038914
_cell_angle_alpha 90.000000
_cell_angle_beta 67.754108
_cell_angle_gamma 90.000000
_cell_volume 2653.510752
_symmetry_space_group_name_H-M "C 2/C"
_symmetry_group_IT_number 15
_symmetry_cell_setting 'monoclinic'
loop_
_space_group_symop_operation_xyz
x,y,z
-x,y,1/2-z
-x,-y,-z
x,-y,1/2+z
1/2+x,1/2+y,z
1/2-x,1/2+y,1/2-z
1/2-x,1/2-y,-z
1/2+x,1/2-y,1/2+z
loop_
_atom_site_type_symbol
_atom_site_label
_atom_site_fract_x
_atom_site_fract_y
_atom_site_fract_z
Si Si1 0.335351 0.778105 0.862455
Si Si2 0.240689 0.811060 0.731090
Si Si3 0.393221 0.463932 0.409618
Si Si4 0.272229 0.538530 0.252809
Si Si5 0.500000 0.770306 0.250000
Si Si6 0.551877 0.664742 0.744162
Si Si7 0.596771 0.221694 0.803910
O O1 0.283985 0.811930 0.864560
O O2 0.369034 0.772423 0.528840
O O3 0.312790 0.708083 0.021652
O O4 0.368976 0.808318 0.030226
O O5 0.250000 0.750000 0.500000
O O6 0.239587 0.886253 0.624348
O O7 0.411377 0.478752 0.667843
O O8 0.332796 0.464182 0.577067
O O9 0.411979 0.394368 0.246510
O O10 0.253113 0.484410 0.506603
O O11 0.467168 0.721443 0.510175
O O12 0.457586 0.809136 0.168533
O O13 0.500000 0.633120 0.750000
O O14 0.579912 0.706103 0.453766
#
# Coordination Sequence:
#
# PCOD9287250 Si02
#       7
#     8   8   8   8   4   8   8
#     4  11  23  35  59  87 114 149 194 255 294 356
#     4  11  24  39  62  93 120 154 206 251 310 363
#     4  10  23  37  51  71  97 142 195 246 293 339
#     4  10  24  40  59  81 116 159 199 247 303 363
#     4  10  22  36  54  80 106 152 194 232 312 360
#     4  10  22  35  53  73 103 142 196 244 301 346
#     4  11  21  37  54  80 109 149 187 237 300 362
#
# _framework density 19.596681
#
# number of rings (size 3 to 8) (size 9 to 14) (size 15 to 20)
#    0.000    1.538    3.077    0.923    8.615    1.846 
#    0.000    0.000    0.000    0.000    0.000    0.000 
#    0.000    0.000    0.000   13.846    0.000    0.000 
#
# Total GULP energy -144771.417539 kJ/mol
# GULP energy per Si atom -5568.131444 kJ/mol
# Density = 1.955208 g / cm^3
# Si number density = 19.596681 Si / 1000 Ang^3
#
#
#
# Elastic Constant Matrix: (Units=GPa)
#
#
# Indices 1 2 3 4 5 6 
#
# 1 103.0162 -8.2994 31.5218 0.0000 15.0663 0.0000
# 2 -8.2994 42.6919 16.6730 0.0000 2.9115 0.0000
# 3 31.5218 16.6730 117.2440 0.0000 12.5537 0.0000
# 4 0.0000 0.0000 0.0000 19.6200 0.0000 0.1744
# 5 15.0663 2.9115 12.5537 0.0000 24.4357 0.0000
# 6 0.0000 0.0000 0.0000 0.1744 0.0000 15.3761
#
#
#
# Elastic Compliance Matrix: (Units=1/GPa)
#
#
# Indices 1 2 3 4 5 6 
#
# 1 0.011877 0.003939 -0.003089 0.000000 -0.006206 0.000000
# 2 0.003939 0.026141 -0.004426 0.000000 -0.003269 0.000000
# 3 -0.003089 -0.004426 0.010295 0.000000 -0.002857 0.000000
# 4 0.000000 0.000000 0.000000 0.050973 0.000000 -0.000578
# 5 -0.006206 -0.003269 -0.002857 0.000000 0.046607 0.000000
# 6 0.000000 0.000000 0.000000 -0.000578 0.000000 0.065043
#
#
# Mechanical properties :
#
#
# Convention : Reuss Voigt Hill
#
# Bulk Modulus (GPa) = 24.29553 38.08254 31.18903
# Shear Modulus (GPa) = 21.56939 26.75681 24.16310
#
# Velocity S-wave (km/s) = 3.32123 3.69911 3.51525
# Velocity P-wave (km/s) = 5.20885 6.14165 5.69438
#
# Compressibility (1/GPa) = 0.04115983
#
# Stress axis : x y z
#
# Youngs Moduli (GPa) = 84.19451 38.25421 97.13385
#
# Poissons Ratio (x) = -0.15067 0.30004
# Poissons Ratio (y) = -0.33160 0.42995
# Poissons Ratio (z) = 0.26007 0.16933
#
# Static dielectric constant tensor:
#      x y z
#    x 1.807040 0.000000 0.028710 
#    y 0.000000 1.657380 0.000000 
#    z 0.028710 0.000000 1.723240 
# 
# From -- ./inp_files/18333.got.cif
#   From: 2010.05.17/outbox.cif.g08.bks.cpg/sg15_10_cif.got.tgz:18333.got - 2010.06.03 18:47:42.
