data_PCOD9287663
_publ_section_title
;
Structure prediction by ZEFSAII (Michael W. Deem and Ramdas Pophale) SiO2 
 PCOD9287663
Probable space group: C 2/C
;
_chemical_formula_sum "Si O2"
_cell_formula_units_Z 64
_cell_length_a 15.366294
_cell_length_b 22.989050
_cell_length_c 9.390073
_cell_angle_alpha 90.000000
_cell_angle_beta 96.668340
_cell_angle_gamma 90.000000
_cell_volume 3294.664012
_symmetry_space_group_name_H-M "C 2/C"
_symmetry_group_IT_number 15
_symmetry_cell_setting 'monoclinic'
loop_
_space_group_symop_operation_xyz
x,y,z
-x,y,1/2-z
-x,-y,-z
x,-y,1/2+z
1/2+x,1/2+y,z
1/2-x,1/2+y,1/2-z
1/2-x,1/2-y,-z
1/2+x,1/2-y,1/2+z
loop_
_atom_site_type_symbol
_atom_site_label
_atom_site_fract_x
_atom_site_fract_y
_atom_site_fract_z
Si Si1 0.794281 0.901177 0.774479
Si Si2 0.323589 0.961253 0.977827
Si Si3 0.972064 0.055936 0.406906
Si Si4 0.073746 0.707727 0.884009
Si Si5 0.484229 0.888225 0.916045
Si Si6 0.682815 0.098116 0.504288
Si Si7 0.264031 0.137147 0.684102
Si Si8 0.103060 0.160202 0.457157
O O1 0.743271 0.945021 0.661198
O O2 0.868757 0.931798 0.883664
O O3 0.844258 0.857865 0.676979
O O4 0.723072 0.874923 0.868192
O O5 0.420568 0.942040 0.944166
O O6 0.313344 0.028413 0.011110
O O7 0.298783 0.919843 0.105394
O O8 0.000000 0.044715 0.250000
O O9 0.025462 0.113560 0.461527
O O10 0.000000 0.000000 0.500000
O O11 0.166877 0.688354 0.836309
O O12 0.070755 0.774686 0.928439
O O13 0.000000 0.696136 0.750000
O O14 0.060799 0.667639 0.020815
O O15 0.500000 0.885902 0.750000
O O16 0.580136 0.890347 0.003164
O O17 0.734439 0.121187 0.650488
O O18 0.171148 0.153828 0.599271
#
# Coordination Sequence:
#
# PCOD9287663 Si02
#       8
#     8   8   8   8   8   8   8   8
#     4  10  22  38  60  94 121 165 203 258 318 369
#     4  10  22  37  62  86 137 173 202 245 320 383
#     4  10  23  39  61  89 120 159 206 254 312 377
#     4  11  21  43  69  87 121 169 219 259 303 377
#     4  11  23  41  59  95 130 171 209 255 312 371
#     4  12  22  38  61  96 132 160 209 259 312 376
#     4  10  23  38  62  99 119 164 216 257 301 378
#     4  10  23  45  65  85 123 170 209 256 325 371
#
# _framework density 19.425349000000001
#
# number of rings (size 3 to 8) (size 9 to 14) (size 15 to 20)
#    0.000    1.500    2.500    2.625    7.000    0.000 
#    0.000    3.750    0.000    0.000    0.000    0.000 
#    0.000    0.000    0.000    0.000    0.000    0.000 
#
# Total GULP energy -178756.160279 kJ/mol
# GULP energy per Si atom -5586.130009 kJ/mol
# Density = 1.938114 g / cm^3
# Si number density = 19.425349 Si / 1000 Ang^3
#
#
#
# Elastic Constant Matrix: (Units=GPa)
#
#
# Indices 1 2 3 4 5 6 
#
# 1 78.3021 3.3429 -1.0759 0.0000 9.9162 0.0000
# 2 3.3429 73.1366 6.1540 0.0000 -0.8507 0.0000
# 3 -1.0759 6.1540 52.3688 0.0000 9.8553 0.0000
# 4 0.0000 0.0000 0.0000 11.3266 0.0000 9.1631
# 5 9.9162 -0.8507 9.8553 0.0000 32.5549 0.0000
# 6 0.0000 0.0000 0.0000 9.1631 0.0000 16.2729
#
#
#
# Elastic Compliance Matrix: (Units=1/GPa)
#
#
# Indices 1 2 3 4 5 6 
#
# 1 0.013385 -0.000765 0.001205 0.000000 -0.004462 0.000000
# 2 -0.000765 0.013878 -0.001865 0.000000 0.001160 0.000000
# 3 0.001205 -0.001865 0.020591 0.000000 -0.006649 0.000000
# 4 0.000000 0.000000 0.000000 0.162155 0.000000 -0.091308
# 5 -0.004462 0.001160 -0.006649 0.000000 0.034120 0.000000
# 6 0.000000 0.000000 0.000000 -0.091308 0.000000 0.112866
#
#
# Mechanical properties :
#
#
# Convention : Reuss Voigt Hill
#
# Bulk Modulus (GPa) = 22.22058 24.51661 23.36859
# Shear Modulus (GPa) = 13.33878 25.05664 19.19771
#
# Velocity S-wave (km/s) = 2.62328 3.59541 3.14710
# Velocity P-wave (km/s) = 4.54304 5.46665 5.02611
#
# Compressibility (1/GPa) = 0.04500333
#
# Stress axis : x y z
#
# Youngs Moduli (GPa) = 74.70881 72.05429 48.56606
#
# Poissons Ratio (x) = 0.05513 -0.05850
# Poissons Ratio (y) = 0.05716 0.09057
# Poissons Ratio (z) = -0.08999 0.13438
#
# Static dielectric constant tensor:
#      x y z
#    x 1.714880 0.000000 -0.003860 
#    y 0.000000 1.642030 0.000000 
#    z -0.003860 0.000000 1.674080 
# 
# From -- ./inp_files/42629.got.cif
#   From: 2010.05.17/outbox.cif.g08.bks.cpg/sg15_22_cif.got.tgz:42629.got - 2010.06.03 18:47:42.
