data_PCOD9287104
_publ_section_title
;
Structure prediction by ZEFSAII (Michael W. Deem and Ramdas Pophale) SiO2 
 PCOD9287104
Probable space group: C 2/C
;
_chemical_formula_sum "Si O2"
_cell_formula_units_Z 44
_cell_length_a 18.331432
_cell_length_b 17.572303
_cell_length_c 12.310589
_cell_angle_alpha 90.000000
_cell_angle_beta 152.159065
_cell_angle_gamma 90.000000
_cell_volume 1851.987291
_symmetry_space_group_name_H-M "C 2/C"
_symmetry_group_IT_number 15
_symmetry_cell_setting 'monoclinic'
loop_
_space_group_symop_operation_xyz
x,y,z
-x,y,1/2-z
-x,-y,-z
x,-y,1/2+z
1/2+x,1/2+y,z
1/2-x,1/2+y,1/2-z
1/2-x,1/2-y,-z
1/2+x,1/2-y,1/2+z
loop_
_atom_site_type_symbol
_atom_site_label
_atom_site_fract_x
_atom_site_fract_y
_atom_site_fract_z
Si Si1 0.735864 0.851692 0.637392
Si Si2 0.000000 0.976988 0.750000
Si Si3 0.607448 0.116776 0.183539
Si Si4 0.264916 0.096416 0.740921
Si Si5 0.564526 0.734267 0.539017
Si Si6 0.766310 0.489854 0.464380
O O1 0.738513 0.889616 0.762546
O O2 0.600076 0.789946 0.482966
O O3 0.703155 0.919817 0.510842
O O4 0.898064 0.808405 0.822978
O O5 0.866631 0.928484 0.516092
O O6 0.910392 0.020939 0.725934
O O7 0.589938 0.208341 0.174450
O O8 0.564859 0.902596 0.087904
O O9 0.638511 0.061890 0.325327
O O10 0.204154 0.174658 0.712261
O O11 0.279805 0.042159 0.862745
#
# Coordination Sequence:
#
# PCOD9287104 Si02
#       6
#     8   4   8   8   8   8
#     4  10  22  47  78 111 156 203 260 316 382 472
#     4  12  28  44  74 112 148 210 256 320 390 444
#     4  10  24  46  77 113 150 206 256 323 390 459
#     4  12  25  48  76 110 159 202 266 320 388 470
#     4  10  21  46  77 107 154 204 256 314 384 460
#     4  12  26  43  75 115 160 201 258 327 391 460
#
# _framework density 23.758261999999998
#
# number of rings (size 3 to 8) (size 9 to 14) (size 15 to 20)
#    1.091    0.000    3.636    2.182    2.545    5.091 
#    0.000    3.636    0.000    0.000    0.000    0.000 
#    0.000    0.000    0.000    0.000    0.000    0.000 
#
# Total GULP energy -122697.085340 kJ/mol
# GULP energy per Si atom -5577.140243 kJ/mol
# Density = 2.370419 g / cm^3
# Si number density = 23.758262 Si / 1000 Ang^3
#
#
#
# Elastic Constant Matrix: (Units=GPa)
#
#
# Indices 1 2 3 4 5 6 
#
# 1 131.6466 48.4371 40.8506 0.0000 19.6360 0.0000
# 2 48.4371 156.7636 78.4057 0.0000 -2.3567 0.0000
# 3 40.8506 78.4057 92.0927 0.0000 15.8197 0.0000
# 4 0.0000 0.0000 0.0000 25.8351 0.0000 1.2196
# 5 19.6360 -2.3567 15.8197 0.0000 30.4227 0.0000
# 6 0.0000 0.0000 0.0000 1.2196 0.0000 45.1683
#
#
#
# Elastic Compliance Matrix: (Units=1/GPa)
#
#
# Indices 1 2 3 4 5 6 
#
# 1 0.009765 -0.002516 -0.001178 0.000000 -0.005885 0.000000
# 2 -0.002516 0.012999 -0.011423 0.000000 0.008571 0.000000
# 3 -0.001178 -0.011423 0.023200 0.000000 -0.012188 0.000000
# 4 0.000000 0.000000 0.000000 0.038756 0.000000 -0.001046
# 5 -0.005885 0.008571 -0.012188 0.000000 0.043671 0.000000
# 6 0.000000 0.000000 0.000000 -0.001046 0.000000 0.022168
#
#
# Mechanical properties :
#
#
# Convention : Reuss Voigt Hill
#
# Bulk Modulus (GPa) = 63.57688 79.54330 71.56009
# Shear Modulus (GPa) = 26.87640 34.47251 30.67446
#
# Velocity S-wave (km/s) = 3.36705 3.81329 3.59710
# Velocity P-wave (km/s) = 6.47565 7.27607 6.88750
#
# Compressibility (1/GPa) = 0.01572899
#
# Stress axis : x y z
#
# Youngs Moduli (GPa) = 102.40177 76.93176 43.10332
#
# Poissons Ratio (x) = 0.19360 0.05079
# Poissons Ratio (y) = 0.25769 0.49236
# Poissons Ratio (z) = 0.12066 0.87877
#
# Static dielectric constant tensor:
#      x y z
#    x 1.957640 0.000000 -0.010950 
#    y 0.000000 2.002270 0.000000 
#    z -0.010950 0.000000 1.897220 
# 
# From -- ./inp_files/112628.got.cif
#   From: 2010.05.17/outbox.cif.g08.bks.cpg/sg15_57_cif.got.tgz:112628.got - 2010.06.03 18:47:42.
