data_PCOD9287202
_publ_section_title
;
Structure prediction by ZEFSAII (Michael W. Deem and Ramdas Pophale) SiO2 
 PCOD9287202
Probable space group: C 2/C
;
_chemical_formula_sum "Si O2"
_cell_formula_units_Z 52
_cell_length_a 17.078731
_cell_length_b 22.016559
_cell_length_c 13.863312
_cell_angle_alpha 90.000000
_cell_angle_beta 148.641273
_cell_angle_gamma 90.000000
_cell_volume 2712.719286
_symmetry_space_group_name_H-M "C 2/C"
_symmetry_group_IT_number 15
_symmetry_cell_setting 'monoclinic'
loop_
_space_group_symop_operation_xyz
x,y,z
-x,y,1/2-z
-x,-y,-z
x,-y,1/2+z
1/2+x,1/2+y,z
1/2-x,1/2+y,1/2-z
1/2-x,1/2-y,-z
1/2+x,1/2-y,1/2+z
loop_
_atom_site_type_symbol
_atom_site_label
_atom_site_fract_x
_atom_site_fract_y
_atom_site_fract_z
Si Si1 0.372430 0.071239 0.303665
Si Si2 0.169655 0.988894 0.435823
Si Si3 0.500000 0.846239 0.250000
Si Si4 0.796601 0.541136 0.863628
Si Si5 0.286045 0.223233 0.642894
Si Si6 0.259624 0.642612 0.164936
Si Si7 0.601605 0.396198 0.001889
O O1 0.547332 0.077569 0.460681
O O2 0.313147 0.123113 0.311184
O O3 0.343242 0.012589 0.340675
O O4 0.273077 0.056096 0.106645
O O5 0.238681 0.987707 0.401656
O O6 0.000000 0.965261 0.250000
O O7 0.151608 0.052988 0.475310
O O8 0.556756 0.808633 0.216635
O O9 0.673668 0.669556 0.554144
O O10 0.669954 0.579820 0.674771
O O11 0.250000 0.250000 0.500000
O O12 0.288093 0.284930 0.703813
O O13 0.422152 0.611771 0.317866
O O14 0.146671 0.624846 0.956072
#
# Coordination Sequence:
#
# PCOD9287202 Si02
#       7
#     8   8   4   8   8   8   8
#     4  10  22  40  58  88 117 157 205 249 307 359
#     4  11  23  38  63  88 120 161 206 251 303 353
#     4  10  22  34  52  86 124 162 196 234 302 362
#     4  10  22  41  59  85 119 158 205 253 304 358
#     4  10  22  37  56  90 122 162 200 242 304 366
#     4  11  21  38  59  84 128 159 202 250 296 364
#     4  11  24  39  61  91 125 163 205 249 300 361
#
# _framework density 19.168956999999999
#
# number of rings (size 3 to 8) (size 9 to 14) (size 15 to 20)
#    0.000    1.538    0.000    5.077    8.615    2.462 
#    0.000    0.000    0.000    0.923    0.000    2.154 
#    0.000    0.000    0.000    0.000    0.000    0.000 
#
# Total GULP energy -144976.626057 kJ/mol
# GULP energy per Si atom -5576.024079 kJ/mol
# Density = 1.912533 g / cm^3
# Si number density = 19.168957 Si / 1000 Ang^3
#
#
#
# Elastic Constant Matrix: (Units=GPa)
#
#
# Indices 1 2 3 4 5 6 
#
# 1 99.9497 43.4793 69.8606 0.0000 18.3258 0.0000
# 2 43.4793 92.6212 58.2145 0.0000 4.5689 0.0000
# 3 69.8606 58.2145 154.3220 0.0000 11.8026 0.0000
# 4 0.0000 0.0000 0.0000 17.7258 0.0000 -0.9757
# 5 18.3258 4.5689 11.8026 0.0000 35.2325 0.0000
# 6 0.0000 0.0000 0.0000 -0.9757 0.0000 34.4882
#
#
#
# Elastic Compliance Matrix: (Units=1/GPa)
#
#
# Indices 1 2 3 4 5 6 
#
# 1 0.016868 -0.004078 -0.005611 0.000000 -0.006365 0.000000
# 2 -0.004078 0.015138 -0.003978 0.000000 0.001491 0.000000
# 3 -0.005611 -0.003978 0.010528 0.000000 -0.000092 0.000000
# 4 0.000000 0.000000 0.000000 0.056503 0.000000 0.001598
# 5 -0.006365 0.001491 -0.000092 0.000000 0.031531 0.000000
# 6 0.000000 0.000000 0.000000 0.001598 0.000000 0.029041
#
#
# Mechanical properties :
#
#
# Convention : Reuss Voigt Hill
#
# Bulk Modulus (GPa) = 65.79246 76.66686 71.22966
# Shear Modulus (GPa) = 26.04048 29.17853 27.60951
#
# Velocity S-wave (km/s) = 3.68974 3.90574 3.79928
# Velocity P-wave (km/s) = 7.24908 7.77315 7.51569
#
# Compressibility (1/GPa) = 0.01519931
#
# Stress axis : x y z
#
# Youngs Moduli (GPa) = 59.28500 66.05938 94.98641
#
# Poissons Ratio (x) = 0.26937 0.53296
# Poissons Ratio (y) = 0.24175 0.37790
# Poissons Ratio (z) = 0.33264 0.26282
#
# Static dielectric constant tensor:
#      x y z
#    x 1.698570 0.000000 0.049820 
#    y 0.000000 1.777240 0.000000 
#    z 0.049820 0.000000 1.844180 
# 
# From -- ./inp_files/100721.got.cif
#   From: 2010.05.17/outbox.cif.g08.bks.cpg/sg15_51_cif.got.tgz:100721.got - 2010.06.03 18:47:42.
