data_PCOD9287513
_publ_section_title
;
Structure prediction by ZEFSAII (Michael W. Deem and Ramdas Pophale) SiO2 
 PCOD9287513
Probable space group: C 2/C
;
_chemical_formula_sum "Si O2"
_cell_formula_units_Z 52
_cell_length_a 25.858686
_cell_length_b 11.757389
_cell_length_c 8.505705
_cell_angle_alpha 90.000000
_cell_angle_beta 115.830473
_cell_angle_gamma 90.000000
_cell_volume 2327.620774
_symmetry_space_group_name_H-M "C 2/C"
_symmetry_group_IT_number 15
_symmetry_cell_setting 'monoclinic'
loop_
_space_group_symop_operation_xyz
x,y,z
-x,y,1/2-z
-x,-y,-z
x,-y,1/2+z
1/2+x,1/2+y,z
1/2-x,1/2+y,1/2-z
1/2-x,1/2-y,-z
1/2+x,1/2-y,1/2+z
loop_
_atom_site_type_symbol
_atom_site_label
_atom_site_fract_x
_atom_site_fract_y
_atom_site_fract_z
Si Si1 0.321903 0.007919 0.848568
Si Si2 0.033252 0.757097 0.125814
Si Si3 0.753129 0.884328 0.000003
Si Si4 0.000000 0.500000 0.000000
Si Si5 0.567610 0.368324 0.679629
Si Si6 0.896645 0.376513 0.202669
Si Si7 0.116028 0.909508 0.397165
O O1 0.294797 0.926526 0.684388
O O2 0.268526 0.064197 0.865731
O O3 0.360069 0.103365 0.813909
O O4 0.361822 0.935871 0.017835
O O5 0.094587 0.808077 0.253569
O O6 0.000000 0.758337 0.250000
O O7 0.029271 0.628413 0.062269
O O8 0.997404 0.838346 0.960261
O O9 0.816442 0.925958 0.038269
O O10 0.750000 0.750000 0.000000
O O11 0.954239 0.553925 0.813055
O O12 0.590723 0.256066 0.798588
O O13 0.601506 0.382097 0.558707
O O14 0.579451 0.480535 0.795174
#
# Coordination Sequence:
#
# PCOD9287513 Si02
#       7
#     8   8   8   4   8   8   8
#     4  10  24  42  62  94 129 167 215 268 322 376
#     4   9  21  39  62  91 129 163 201 266 323 382
#     4  11  24  41  63  93 124 173 220 265 315 373
#     4  10  22  36  66  98 124 166 210 254 342 390
#     4  10  22  41  62  94 124 168 207 261 323 380
#     4  10  23  41  67  93 134 162 212 268 327 387
#     4  11  22  40  66  86 129 169 216 258 315 376
#
# _framework density 22.340409000000001
#
# number of rings (size 3 to 8) (size 9 to 14) (size 15 to 20)
#    0.000    1.846    0.000    2.308   10.769    2.462 
#    0.000    3.846    0.000    0.000    0.000    0.000 
#    0.000    0.000    0.000    0.000    0.000    0.000 
#
# Total GULP energy -145044.698112 kJ/mol
# GULP energy per Si atom -5578.642235 kJ/mol
# Density = 2.228956 g / cm^3
# Si number density = 22.340409 Si / 1000 Ang^3
#
#
#
# Elastic Constant Matrix: (Units=GPa)
#
#
# Indices 1 2 3 4 5 6 
#
# 1 79.4599 -1.8135 10.4420 0.0000 3.6395 0.0000
# 2 -1.8135 118.5750 29.6390 0.0000 11.5140 0.0000
# 3 10.4420 29.6390 47.7633 0.0000 12.4329 0.0000
# 4 0.0000 0.0000 0.0000 37.0744 0.0000 3.8811
# 5 3.6395 11.5140 12.4329 0.0000 24.4838 0.0000
# 6 0.0000 0.0000 0.0000 3.8811 0.0000 27.2422
#
#
#
# Elastic Compliance Matrix: (Units=1/GPa)
#
#
# Indices 1 2 3 4 5 6 
#
# 1 0.013086 0.001112 -0.003352 0.000000 -0.000766 0.000000
# 2 0.001112 0.010144 -0.006054 0.000000 -0.001862 0.000000
# 3 -0.003352 -0.006054 0.028295 0.000000 -0.011023 0.000000
# 4 0.000000 0.000000 0.000000 0.027381 0.000000 -0.003901
# 5 -0.000766 -0.001862 -0.011023 0.000000 0.047430 0.000000
# 6 0.000000 0.000000 0.000000 -0.003901 0.000000 0.037264
#
#
# Mechanical properties :
#
#
# Convention : Reuss Voigt Hill
#
# Bulk Modulus (GPa) = 28.62060 35.81480 32.21770
# Shear Modulus (GPa) = 26.06437 31.59545 28.82991
#
# Velocity S-wave (km/s) = 3.41939 3.76476 3.59623
# Velocity P-wave (km/s) = 5.33185 5.91305 5.62995
#
# Compressibility (1/GPa) = 0.03493987
#
# Stress axis : x y z
#
# Youngs Moduli (GPa) = 76.41825 98.57613 35.34182
#
# Poissons Ratio (x) = -0.10965 0.11845
# Poissons Ratio (y) = -0.08500 0.21394
# Poissons Ratio (z) = 0.25612 0.59673
#
# Static dielectric constant tensor:
#      x y z
#    x 1.880200 0.000000 -0.059740 
#    y 0.000000 1.780550 0.000000 
#    z -0.059740 0.000000 1.805670 
# 
# From -- ./inp_files/65596.got.cif
#   From: 2010.05.17/outbox.cif.g08.bks.cpg/sg15_33_cif.got.tgz:65596.got - 2010.06.03 18:47:42.
