data_PCOD9287744
_publ_section_title
;
Structure prediction by ZEFSAII (Michael W. Deem and Ramdas Pophale) SiO2 
 PCOD9287744
Probable space group: C 2/C
;
_chemical_formula_sum "Si O2"
_cell_formula_units_Z 52
_cell_length_a 20.250529
_cell_length_b 18.567795
_cell_length_c 8.407681
_cell_angle_alpha 90.000000
_cell_angle_beta 138.025636
_cell_angle_gamma 90.000000
_cell_volume 2114.306366
_symmetry_space_group_name_H-M "C 2/C"
_symmetry_group_IT_number 15
_symmetry_cell_setting 'monoclinic'
loop_
_space_group_symop_operation_xyz
x,y,z
-x,y,1/2-z
-x,-y,-z
x,-y,1/2+z
1/2+x,1/2+y,z
1/2-x,1/2+y,1/2-z
1/2-x,1/2-y,-z
1/2+x,1/2-y,1/2+z
loop_
_atom_site_type_symbol
_atom_site_label
_atom_site_fract_x
_atom_site_fract_y
_atom_site_fract_z
Si Si1 0.500000 0.386177 0.250000
Si Si2 0.500000 0.277378 0.750000
Si Si3 0.137495 0.140012 0.730197
Si Si4 0.000000 0.460596 0.250000
Si Si5 0.317876 0.005048 0.221052
Si Si6 0.854802 0.357474 0.575140
Si Si7 0.330923 0.531084 0.272208
Si Si8 0.055933 0.661888 0.609234
O O1 0.420249 0.344192 0.210470
O O2 0.567226 0.430898 0.496461
O O3 0.426209 0.326624 0.521908
O O4 0.564412 0.228224 0.744713
O O5 0.144301 0.053292 0.713970
O O6 0.247111 0.171094 0.921608
O O7 0.944237 0.407722 0.274465
O O8 0.079126 0.503218 0.498599
O O9 0.345975 0.060780 0.130980
O O10 0.243848 0.042032 0.214865
O O11 0.239187 0.948388 0.003549
O O12 0.877096 0.346956 0.427791
O O13 0.946190 0.328757 0.839296
#
# Coordination Sequence:
#
# PCOD9287744 Si02
#       8
#     4   4   8   4   8   8   8   8
#     4  12  23  44  65  90 138 197 224 287 322 394
#     4  11  25  42  62 106 128 180 228 286 338 410
#     4  11  25  41  65  97 139 173 233 274 339 405
#     4   9  20  42  63 100 134 179 224 297 326 418
#     4  10  22  37  66  98 137 179 233 268 344 399
#     4   9  19  43  69 100 126 179 221 289 338 417
#     4  11  22  41  63  98 131 192 227 276 329 405
#     4   9  20  42  74  92 135 169 228 284 359 389
#
# _framework density 24.594353999999999
#
# number of rings (size 3 to 8) (size 9 to 14) (size 15 to 20)
#    0.000    1.846    3.077    0.923    2.154    5.538 
#    0.000    6.154    0.000    0.000    0.000    0.000 
#    0.000    0.000    0.000    0.000    0.000    0.000 
#
# Total GULP energy -145210.951467 kJ/mol
# GULP energy per Si atom -5585.036595 kJ/mol
# Density = 2.453838 g / cm^3
# Si number density = 24.594354 Si / 1000 Ang^3
#
#
#
# Elastic Constant Matrix: (Units=GPa)
#
#
# Indices 1 2 3 4 5 6 
#
# 1 193.2666 16.9720 60.4274 0.0000 7.9590 0.0000
# 2 16.9720 62.6653 40.3662 0.0000 -2.6369 0.0000
# 3 60.4274 40.3662 206.4512 0.0000 6.0377 0.0000
# 4 0.0000 0.0000 0.0000 12.5758 0.0000 -4.2183
# 5 7.9590 -2.6369 6.0377 0.0000 45.5495 0.0000
# 6 0.0000 0.0000 0.0000 -4.2183 0.0000 0.9162
#
#
#
# Elastic Compliance Matrix: (Units=1/GPa)
#
#
# Indices 1 2 3 4 5 6 
#
# 1 0.005742 -0.000599 -0.001539 0.000000 -0.000834 0.000000
# 2 -0.000599 0.018427 -0.003475 0.000000 0.001632 0.000000
# 3 -0.001539 -0.003475 0.005995 0.000000 -0.000727 0.000000
# 4 0.000000 0.000000 0.000000 -0.146051 0.000000 -0.672474
# 5 -0.000834 0.001632 -0.000727 0.000000 0.022291 0.000000
# 6 0.000000 0.000000 0.000000 -0.672474 0.000000 -2.004808
#
#
# Mechanical properties :
#
#
# Convention : Reuss Voigt Hill
#
# Bulk Modulus (GPa) = 52.80448 77.54601 65.17525
# Shear Modulus (GPa) = -2.40285 34.78280 16.18997
#
# Velocity S-wave (km/s) = -0.98950 3.76474 2.56848
# Velocity P-wave (km/s) = 4.49570 7.10607 5.94590
#
# Compressibility (1/GPa) = 0.01893779
#
# Stress axis : x y z
#
# Youngs Moduli (GPa) = 174.14273 54.26702 166.80277
#
# Poissons Ratio (x) = 0.03249 0.25676
# Poissons Ratio (y) = 0.10427 0.57972
# Poissons Ratio (z) = 0.26806 0.18860
#
# Static dielectric constant tensor:
#      x y z
#    x 2.034130 0.000000 -0.004900 
#    y 0.000000 2.009530 0.000000 
#    z -0.004900 0.000000 1.965190 
# 
# From -- ./inp_files/58698.got.cif
#   From: 2010.05.17/outbox.cif.g08.bks.cpg/sg15_30_cif.got.tgz:58698.got - 2010.06.03 18:47:42.
