data_PCOD9287949
_publ_section_title
;
Structure prediction by ZEFSAII (Michael W. Deem and Ramdas Pophale) SiO2 
 PCOD9287949
Probable space group: C 2/C
;
_chemical_formula_sum "Si O2"
_cell_formula_units_Z 44
_cell_length_a 8.448058
_cell_length_b 26.018472
_cell_length_c 12.577233
_cell_angle_alpha 90.000000
_cell_angle_beta 136.088341
_cell_angle_gamma 90.000000
_cell_volume 1917.346385
_symmetry_space_group_name_H-M "C 2/C"
_symmetry_group_IT_number 15
_symmetry_cell_setting 'monoclinic'
loop_
_space_group_symop_operation_xyz
x,y,z
-x,y,1/2-z
-x,-y,-z
x,-y,1/2+z
1/2+x,1/2+y,z
1/2-x,1/2+y,1/2-z
1/2-x,1/2-y,-z
1/2+x,1/2-y,1/2+z
loop_
_atom_site_type_symbol
_atom_site_label
_atom_site_fract_x
_atom_site_fract_y
_atom_site_fract_z
Si Si1 0.500000 0.489334 0.750000
Si Si2 0.157077 0.770276 0.622090
Si Si3 0.401969 0.910911 0.963973
Si Si4 0.750391 0.342093 0.081786
Si Si5 0.883133 0.915716 0.295124
Si Si6 0.939990 0.684891 0.063214
O O1 0.722568 0.454271 0.847651
O O2 0.486337 0.529562 0.644252
O O3 0.328118 0.784168 0.798489
O O4 0.268582 0.799741 0.574084
O O5 0.910000 0.793962 0.516551
O O6 0.153031 0.710366 0.590006
O O7 0.497477 0.874549 0.916445
O O8 0.277955 0.872451 0.985413
O O9 0.625008 0.929499 0.135373
O O10 0.631271 0.381185 0.108378
O O11 0.000000 0.329566 0.250000
O O12 0.000000 0.887406 0.250000
#
# Coordination Sequence:
#
# PCOD9287949 Si02
#       6
#     4   8   8   8   8   8
#     4  10  22  38  62  88 120 166 210 260 308 376
#     4  10  22  42  60  95 123 165 215 241 317 365
#     4  11  21  39  60  90 125 157 207 257 319 357
#     4  10  22  38  60  91 124 161 206 262 312 372
#     4   9  21  38  61  85 117 166 207 257 306 370
#     4  10  23  39  67  89 125 168 204 264 293 383
#
# _framework density 22.948384999999998
#
# number of rings (size 3 to 8) (size 9 to 14) (size 15 to 20)
#    0.545    1.455    0.000    2.727    5.091    1.455 
#    1.636    0.000    8.000    0.000    0.000    0.000 
#    0.000    0.000    0.000    0.000    0.000    0.000 
#
# Total GULP energy -122915.464019 kJ/mol
# GULP energy per Si atom -5587.066546 kJ/mol
# Density = 2.289615 g / cm^3
# Si number density = 22.948385 Si / 1000 Ang^3
#
#
#
# Elastic Constant Matrix: (Units=GPa)
#
#
# Indices 1 2 3 4 5 6 
#
# 1 84.9331 26.4393 -7.9432 0.0000 9.0153 0.0000
# 2 26.4393 85.2665 19.8339 0.0000 22.6927 0.0000
# 3 -7.9432 19.8339 40.5755 0.0000 13.2353 0.0000
# 4 0.0000 0.0000 0.0000 27.1535 0.0000 11.7946
# 5 9.0153 22.6927 13.2353 0.0000 28.5208 0.0000
# 6 0.0000 0.0000 0.0000 11.7946 0.0000 39.1021
#
#
#
# Elastic Compliance Matrix: (Units=1/GPa)
#
#
# Indices 1 2 3 4 5 6 
#
# 1 0.014294 -0.004981 0.006380 0.000000 -0.003516 0.000000
# 2 -0.004981 0.017192 -0.006399 0.000000 -0.009135 0.000000
# 3 0.006380 -0.006399 0.033017 0.000000 -0.012247 0.000000
# 4 0.000000 0.000000 0.000000 0.042380 0.000000 -0.012784
# 5 -0.003516 -0.009135 -0.012247 0.000000 0.049125 0.000000
# 6 0.000000 0.000000 0.000000 -0.012784 0.000000 0.029430
#
#
# Mechanical properties :
#
#
# Convention : Reuss Voigt Hill
#
# Bulk Modulus (GPa) = 18.34730 31.93722 25.14226
# Shear Modulus (GPa) = 23.40753 30.45162 26.92958
#
# Velocity S-wave (km/s) = 3.19722 3.64670 3.42933
# Velocity P-wave (km/s) = 4.65210 5.62836 5.16335
#
# Compressibility (1/GPa) = 0.05450394
#
# Stress axis : x y z
#
# Youngs Moduli (GPa) = 69.95800 58.16675 30.28730
#
# Poissons Ratio (x) = 0.28970 -0.19323
# Poissons Ratio (y) = 0.34843 0.19381
# Poissons Ratio (z) = -0.44632 0.37221
#
# Static dielectric constant tensor:
#      x y z
#    x 1.900360 0.000000 0.003200 
#    y 0.000000 1.844000 0.000000 
#    z 0.003200 0.000000 1.866170 
# 
# From -- ./inp_files/138826.got.cif
#   From: 2010.05.17/outbox.cif.g08.bks.cpg/sg15_70_cif.got.tgz:138826.got - 2010.06.03 18:47:42.
