data_PCOD9287550
_publ_section_title
;
Structure prediction by ZEFSAII (Michael W. Deem and Ramdas Pophale) SiO2 
 PCOD9287550
Probable space group: C 2/C
;
_chemical_formula_sum "Si O2"
_cell_formula_units_Z 60
_cell_length_a 11.843189
_cell_length_b 24.565932
_cell_length_c 12.107699
_cell_angle_alpha 90.000000
_cell_angle_beta 73.761885
_cell_angle_gamma 90.000000
_cell_volume 3382.077499
_symmetry_space_group_name_H-M "C 2/C"
_symmetry_group_IT_number 15
_symmetry_cell_setting 'monoclinic'
loop_
_space_group_symop_operation_xyz
x,y,z
-x,y,1/2-z
-x,-y,-z
x,-y,1/2+z
1/2+x,1/2+y,z
1/2-x,1/2+y,1/2-z
1/2-x,1/2-y,-z
1/2+x,1/2-y,1/2+z
loop_
_atom_site_type_symbol
_atom_site_label
_atom_site_fract_x
_atom_site_fract_y
_atom_site_fract_z
Si Si1 0.106853 0.706667 0.943653
Si Si2 0.316830 0.504652 0.565167
Si Si3 0.073994 0.436531 0.129031
Si Si4 0.298747 0.905830 0.806471
Si Si5 0.972512 0.930308 0.385751
Si Si6 0.505988 0.895699 0.922222
Si Si7 0.500000 0.830824 0.250000
Si Si8 0.837722 0.826776 0.503542
O O1 0.237022 0.683720 0.938136
O O2 0.067338 0.701066 0.827370
O O3 0.021816 0.666521 0.035874
O O4 0.106917 0.768839 0.982058
O O5 0.196644 0.535460 0.576102
O O6 0.286492 0.457784 0.663618
O O7 0.367204 0.471441 0.447422
O O8 0.415004 0.546293 0.580391
O O9 0.088528 0.374104 0.167613
O O10 0.000000 0.463026 0.250000
O O11 0.003919 0.430960 0.034307
O O12 0.401929 0.913969 0.869535
O O13 0.369330 0.899334 0.673751
O O14 0.227704 0.853599 0.872080
O O15 0.930444 0.871114 0.436627
O O16 0.000000 0.930252 0.250000
#
# Coordination Sequence:
#
# PCOD9287550 Si02
#       8
#     8   8   8   8   8   8   4   8
#     4   9  17  36  58  84 110 144 181 239 296 334
#     4  10  22  37  54  81 115 148 195 228 285 332
#     4   9  20  33  55  87 116 147 182 233 290 350
#     4   9  19  34  54  80 112 144 188 237 278 336
#     4  10  23  39  56  80 111 157 195 236 264 342
#     4   9  18  33  54  86 113 138 183 236 290 340
#     4   8  18  32  56  86 114 138 174 232 292 346
#     4   9  19  37  58  79 109 149 195 232 281 336
#
# _framework density 17.740576000000001
#
# number of rings (size 3 to 8) (size 9 to 14) (size 15 to 20)
#    0.400    2.400    0.000    0.000    5.600    1.600 
#    7.200    1.333    2.933    3.200    0.000    0.000 
#    0.000    0.000    0.000    0.000    0.000    0.000 
#
# Total GULP energy -167115.734529 kJ/mol
# GULP energy per Si atom -5570.524484 kJ/mol
# Density = 1.770020 g / cm^3
# Si number density = 17.740576 Si / 1000 Ang^3
#
#
#
# Elastic Constant Matrix: (Units=GPa)
#
#
# Indices 1 2 3 4 5 6 
#
# 1 56.8735 55.3682 30.4069 0.0000 -10.3883 0.0000
# 2 55.3682 119.9540 40.3107 0.0000 -5.3566 0.0000
# 3 30.4069 40.3107 92.3196 0.0000 -6.8331 0.0000
# 4 0.0000 0.0000 0.0000 3.5172 0.0000 -4.3413
# 5 -10.3883 -5.3566 -6.8331 0.0000 28.0457 0.0000
# 6 0.0000 0.0000 0.0000 -4.3413 0.0000 27.5649
#
#
#
# Elastic Compliance Matrix: (Units=1/GPa)
#
#
# Indices 1 2 3 4 5 6 
#
# 1 0.036123 -0.014637 -0.004810 0.000000 0.009413 0.000000
# 2 -0.014637 0.015721 -0.002263 0.000000 -0.002971 0.000000
# 3 -0.004810 -0.002263 0.013484 0.000000 0.001071 0.000000
# 4 0.000000 0.000000 0.000000 0.352926 0.000000 0.055583
# 5 0.009413 -0.002971 0.001071 0.000000 0.038836 0.000000
# 6 0.000000 0.000000 0.000000 0.055583 0.000000 0.045032
#
#
# Mechanical properties :
#
#
# Convention : Reuss Voigt Hill
#
# Bulk Modulus (GPa) = 45.64699 57.92430 51.78564
# Shear Modulus (GPa) = 9.04413 21.36299 15.20356
#
# Velocity S-wave (km/s) = 2.26032 3.47391 2.93062
# Velocity P-wave (km/s) = 5.70948 6.98658 6.38007
#
# Compressibility (1/GPa) = 0.02190725
#
# Stress axis : x y z
#
# Youngs Moduli (GPa) = 27.68284 63.61084 74.16381
#
# Poissons Ratio (x) = 0.93108 0.35672
# Poissons Ratio (y) = 0.40520 0.16785
# Poissons Ratio (z) = 0.13315 0.14396
#
# Static dielectric constant tensor:
#      x y z
#    x 1.595300 0.000000 -0.003920 
#    y 0.000000 1.615120 0.000000 
#    z -0.003920 0.000000 1.617700 
# 
# From -- ./inp_files/90771.got.cif
#   From: 2010.05.17/outbox.cif.g08.bks.cpg/sg15_46_cif.got.tgz:90771.got - 2010.06.03 18:47:42.
