data_PCOD9287653
_publ_section_title
;
Structure prediction by ZEFSAII (Michael W. Deem and Ramdas Pophale) SiO2 
 PCOD9287653
Probable space group: C 2/C
;
_chemical_formula_sum "Si O2"
_cell_formula_units_Z 64
_cell_length_a 16.725816
_cell_length_b 19.742292
_cell_length_c 13.731751
_cell_angle_alpha 90.000000
_cell_angle_beta 139.314402
_cell_angle_gamma 90.000000
_cell_volume 2955.949391
_symmetry_space_group_name_H-M "C 2/C"
_symmetry_group_IT_number 15
_symmetry_cell_setting 'monoclinic'
loop_
_space_group_symop_operation_xyz
x,y,z
-x,y,1/2-z
-x,-y,-z
x,-y,1/2+z
1/2+x,1/2+y,z
1/2-x,1/2+y,1/2-z
1/2-x,1/2-y,-z
1/2+x,1/2-y,1/2+z
loop_
_atom_site_type_symbol
_atom_site_label
_atom_site_fract_x
_atom_site_fract_y
_atom_site_fract_z
Si Si1 0.646128 0.589489 0.381840
Si Si2 0.491753 0.315813 0.410637
Si Si3 0.305148 0.962634 0.548705
Si Si4 0.720517 0.651418 0.657298
Si Si5 0.487871 0.170360 0.969911
Si Si6 0.287183 0.207624 0.436892
Si Si7 0.683905 0.678595 0.937308
Si Si8 0.039370 0.541897 0.130208
O O1 0.500000 0.590296 0.250000
O O2 0.701313 0.515096 0.419638
O O3 0.701131 0.617792 0.534502
O O4 0.697108 0.643702 0.350539
O O5 0.405612 0.361200 0.400671
O O6 0.519917 0.244205 0.488258
O O7 0.407798 0.311137 0.237306
O O8 0.618159 0.339204 0.479024
O O9 0.268393 0.885443 0.495885
O O10 0.341385 0.974776 0.695198
O O11 0.426239 0.971871 0.597326
O O12 0.855121 0.637486 0.824139
O O13 0.726860 0.733687 0.655431
O O14 0.574236 0.180193 0.953372
O O15 0.550240 0.119236 0.103577
O O16 0.250000 0.250000 0.500000
O O17 0.750000 0.750000 0.000000
O O18 0.000000 0.500000 0.000000
#
# Coordination Sequence:
#
# PCOD9287653 Si02
#       8
#     8   8   8   8   8   8   8   8
#     4  11  25  43  63  91 135 178 219 266 338 408
#     4  10  22  37  61  93 128 165 216 266 327 393
#     4  11  25  43  66  96 132 181 225 279 341 401
#     4  10  22  40  65  97 131 167 218 273 331 402
#     4  11  21  39  67  97 129 168 220 284 336 387
#     4   9  22  38  65  98 130 172 216 272 331 399
#     4  11  22  40  63  91 131 170 222 267 328 391
#     4  11  23  42  68  95 130 164 232 283 339 401
#
# _framework density 21.651250000000001
#
# number of rings (size 3 to 8) (size 9 to 14) (size 15 to 20)
#    0.000    1.500    0.000    4.500    7.000    5.500 
#    2.250    0.625    0.000    0.000    0.000    0.000 
#    0.000    0.000    0.000    0.000    0.000    0.000 
#
# Total GULP energy -178450.509491 kJ/mol
# GULP energy per Si atom -5576.578422 kJ/mol
# Density = 2.160197 g / cm^3
# Si number density = 21.651250 Si / 1000 Ang^3
#
#
#
# Elastic Constant Matrix: (Units=GPa)
#
#
# Indices 1 2 3 4 5 6 
#
# 1 81.5272 -4.8483 10.3813 0.0000 3.8433 0.0000
# 2 -4.8483 72.7803 25.3757 0.0000 8.8590 0.0000
# 3 10.3813 25.3757 72.5170 0.0000 9.6252 0.0000
# 4 0.0000 0.0000 0.0000 21.9341 0.0000 -1.8537
# 5 3.8433 8.8590 9.6252 0.0000 25.3781 0.0000
# 6 0.0000 0.0000 0.0000 -1.8537 0.0000 23.2654
#
#
#
# Elastic Compliance Matrix: (Units=1/GPa)
#
#
# Indices 1 2 3 4 5 6 
#
# 1 0.012742 0.001839 -0.002239 0.000000 -0.001722 0.000000
# 2 0.001839 0.016227 -0.005426 0.000000 -0.003885 0.000000
# 3 -0.002239 -0.005426 0.016546 0.000000 -0.004042 0.000000
# 4 0.000000 0.000000 0.000000 0.045900 0.000000 0.003657
# 5 -0.001722 -0.003885 -0.004042 0.000000 0.042554 0.000000
# 6 0.000000 0.000000 0.000000 0.003657 0.000000 0.043274
#
#
# Mechanical properties :
#
#
# Convention : Reuss Voigt Hill
#
# Bulk Modulus (GPa) = 29.53103 32.07133 30.80118
# Shear Modulus (GPa) = 24.97731 27.17657 26.07694
#
# Velocity S-wave (km/s) = 3.40018 3.54672 3.47422
# Velocity P-wave (km/s) = 5.39296 5.62291 5.50913
#
# Compressibility (1/GPa) = 0.03386269
#
# Stress axis : x y z
#
# Youngs Moduli (GPa) = 78.48366 61.62475 60.43910
#
# Poissons Ratio (x) = -0.11333 0.13532
# Poissons Ratio (y) = -0.14434 0.32794
# Poissons Ratio (z) = 0.17572 0.33437
#
# Static dielectric constant tensor:
#      x y z
#    x 1.839590 0.000000 0.014480 
#    y 0.000000 1.763750 0.000000 
#    z 0.014480 0.000000 1.831980 
# 
# From -- ./inp_files/163288.got.cif
#   From: 2010.05.17/outbox.cif.g08.bks.cpg/sg15_82_cif.got.tgz:163288.got - 2010.06.03 18:47:42.
