data_PCOD9287401
_publ_section_title
;
Structure prediction by ZEFSAII (Michael W. Deem and Ramdas Pophale) SiO2 
 PCOD9287401
Probable space group: C 2/C
;
_chemical_formula_sum "Si O2"
_cell_formula_units_Z 52
_cell_length_a 23.126818
_cell_length_b 21.197696
_cell_length_c 5.044928
_cell_angle_alpha 90.000000
_cell_angle_beta 111.967630
_cell_angle_gamma 90.000000
_cell_volume 2293.635631
_symmetry_space_group_name_H-M "C 2/C"
_symmetry_group_IT_number 15
_symmetry_cell_setting 'monoclinic'
loop_
_space_group_symop_operation_xyz
x,y,z
-x,y,1/2-z
-x,-y,-z
x,-y,1/2+z
1/2+x,1/2+y,z
1/2-x,1/2+y,1/2-z
1/2-x,1/2-y,-z
1/2+x,1/2-y,1/2+z
loop_
_atom_site_type_symbol
_atom_site_label
_atom_site_fract_x
_atom_site_fract_y
_atom_site_fract_z
Si Si1 0.621162 0.653566 0.246680
Si Si2 0.767308 0.853333 0.949509
Si Si3 0.593641 0.457587 0.083299
Si Si4 0.065514 0.542970 0.302601
Si Si5 0.000000 0.892271 0.250000
Si Si6 0.298164 0.042537 0.850987
Si Si7 0.808409 0.743246 0.403060
O O1 0.616380 0.607973 0.493289
O O2 0.632642 0.726319 0.349504
O O3 0.681839 0.631396 0.185404
O O4 0.559053 0.645157 0.965417
O O5 0.751569 0.907920 0.128202
O O6 0.796245 0.792885 0.147633
O O7 0.701628 0.827574 0.715350
O O8 0.524150 0.436364 0.054434
O O9 0.611348 0.509008 0.891082
O O10 0.064762 0.482454 0.501559
O O11 0.132623 0.571482 0.485609
O O12 0.000000 0.577177 0.250000
O O13 0.292686 0.017066 0.543764
O O14 0.750000 0.750000 0.500000
#
# Coordination Sequence:
#
# PCOD9287401 Si02
#       7
#     8   8   8   8   4   8   8
#     4  11  24  39  64  93 124 171 233 280 335 393
#     4  10  22  42  64  93 129 170 223 274 334 399
#     4  12  25  41  61  92 135 182 225 276 341 411
#     4   8  14  28  50  81 115 154 188 220 276 369
#     4  12  24  42  62  94 134 178 236 276 344 406
#     4  10  22  36  59  98 134 161 200 257 330 386
#     4   9  21  42  65  89 116 170 232 268 324 394
#
# _framework density 22.671430999999998
#
# number of rings (size 3 to 8) (size 9 to 14) (size 15 to 20)
#    0.000    1.846    1.538    1.846    4.308    1.231 
#    0.000    0.000    0.000    0.000   48.000    0.000 
#    0.000    0.000    0.000    0.000    0.000    0.000 
#
# Total GULP energy -144970.615295 kJ/mol
# GULP energy per Si atom -5575.792896 kJ/mol
# Density = 2.261983 g / cm^3
# Si number density = 22.671431 Si / 1000 Ang^3
#
#
#
# Elastic Constant Matrix: (Units=GPa)
#
#
# Indices 1 2 3 4 5 6 
#
# 1 131.3192 37.1465 36.0862 0.0000 -12.1837 0.0000
# 2 37.1465 57.2442 30.6452 0.0000 10.0452 0.0000
# 3 36.0862 30.6452 105.6503 0.0000 -0.5692 0.0000
# 4 0.0000 0.0000 0.0000 27.5809 0.0000 6.1190
# 5 -12.1837 10.0452 -0.5692 0.0000 54.7371 0.0000
# 6 0.0000 0.0000 0.0000 6.1190 0.0000 33.8907
#
#
#
# Elastic Compliance Matrix: (Units=1/GPa)
#
#
# Indices 1 2 3 4 5 6 
#
# 1 0.010166 -0.006328 -0.001618 0.000000 0.003407 0.000000
# 2 -0.006328 0.025468 -0.005259 0.000000 -0.006137 0.000000
# 3 -0.001618 -0.005259 0.011547 0.000000 0.000725 0.000000
# 4 0.000000 0.000000 0.000000 0.037770 0.000000 -0.006819
# 5 0.003407 -0.006137 0.000725 0.000000 0.020161 0.000000
# 6 0.000000 0.000000 0.000000 -0.006819 0.000000 0.030738
#
#
# Mechanical properties :
#
#
# Convention : Reuss Voigt Hill
#
# Bulk Modulus (GPa) = 48.14639 55.77439 51.96039
# Shear Modulus (GPa) = 29.55356 35.93081 32.74219
#
# Velocity S-wave (km/s) = 3.61440 3.98534 3.80439
# Velocity P-wave (km/s) = 6.22103 6.76992 6.50127
#
# Compressibility (1/GPa) = 0.02076999
#
# Stress axis : x y z
#
# Youngs Moduli (GPa) = 98.36707 39.26535 86.60090
#
# Poissons Ratio (x) = 0.24849 0.14015
# Poissons Ratio (y) = 0.62251 0.45541
# Poissons Ratio (z) = 0.15919 0.20649
#
# Static dielectric constant tensor:
#      x y z
#    x 1.922240 0.000000 0.033470 
#    y 0.000000 1.899770 0.000000 
#    z 0.033470 0.000000 2.011540 
# 
# From -- ./inp_files/11927.got.cif
#   From: 2010.05.17/outbox.cif.g08.bks.cpg/sg15_6_cif.got.tgz:11927.got - 2010.06.03 18:47:42.
