data_PCOD9287549
_publ_section_title
;
Structure prediction by ZEFSAII (Michael W. Deem and Ramdas Pophale) SiO2 
 PCOD9287549
Probable space group: C 2/C
;
_chemical_formula_sum "Si O2"
_cell_formula_units_Z 56
_cell_length_a 15.920416
_cell_length_b 9.540749
_cell_length_c 26.958250
_cell_angle_alpha 90.000000
_cell_angle_beta 37.682954
_cell_angle_gamma 90.000000
_cell_volume 2503.093191
_symmetry_space_group_name_H-M "C 2/C"
_symmetry_group_IT_number 15
_symmetry_cell_setting 'monoclinic'
loop_
_space_group_symop_operation_xyz
x,y,z
-x,y,1/2-z
-x,-y,-z
x,-y,1/2+z
1/2+x,1/2+y,z
1/2-x,1/2+y,1/2-z
1/2-x,1/2-y,-z
1/2+x,1/2-y,1/2+z
loop_
_atom_site_type_symbol
_atom_site_label
_atom_site_fract_x
_atom_site_fract_y
_atom_site_fract_z
Si Si1 0.237187 0.335377 0.222194
Si Si2 0.848421 0.971506 0.368372
Si Si3 0.582202 0.244704 0.618531
Si Si4 0.161465 0.471370 0.161035
Si Si5 0.264496 0.982538 0.682922
Si Si6 0.432155 0.970884 0.450060
Si Si7 0.348948 0.188806 0.411318
O O1 0.246245 0.436046 0.170309
O O2 0.290704 0.179390 0.186125
O O3 0.283524 0.420667 0.248790
O O4 0.075424 0.303752 0.303667
O O5 0.909971 0.092308 0.374235
O O6 0.840888 0.007507 0.313736
O O7 0.686556 0.971114 0.459489
O O8 0.910573 0.822399 0.354552
O O9 0.621186 0.176985 0.547555
O O10 0.658867 0.166429 0.627709
O O11 0.218480 0.596656 0.100771
O O12 0.000000 0.502465 0.250000
O O13 0.416939 0.039399 0.598190
O O14 0.439930 0.075879 0.398662
O O15 0.250000 0.250000 0.500000
#
# Coordination Sequence:
#
# PCOD9287549 Si02
#       7
#     8   8   8   8   8   8   8
#     4  10  22  37  54  80 120 150 188 238 291 343
#     4  11  20  35  61  87 110 141 197 239 272 338
#     4   9  18  36  59  83 106 146 193 235 276 337
#     4   9  17  36  57  78 109 153 189 228 289 342
#     4  11  23  37  56  84 115 152 187 233 289 344
#     4   9  20  39  58  80 116 152 182 228 294 344
#     4   9  20  36  58  84 113 145 191 238 281 337
#
# _framework density 22.372318
#
# number of rings (size 3 to 8) (size 9 to 14) (size 15 to 20)
#    0.000    2.286    1.429    1.714    2.000    1.143 
#    2.571    0.000    0.000    1.714    0.000    0.000 
#    0.000    0.000    0.000    0.000    0.000    0.000 
#
# Total GULP energy -156235.902765 kJ/mol
# GULP energy per Si atom -5579.853670 kJ/mol
# Density = 2.232140 g / cm^3
# Si number density = 22.372318 Si / 1000 Ang^3
#
#
#
# Elastic Constant Matrix: (Units=GPa)
#
#
# Indices 1 2 3 4 5 6 
#
# 1 103.3452 48.6987 18.3066 0.0000 18.2536 0.0000
# 2 48.6987 148.8344 8.2159 0.0000 20.4318 0.0001
# 3 18.3066 8.2159 43.1889 0.0000 14.5371 0.0000
# 4 0.0000 0.0000 0.0000 31.2806 0.0000 5.4664
# 5 18.2536 20.4318 14.5371 0.0000 29.9115 0.0000
# 6 0.0000 0.0001 0.0000 5.4664 0.0000 29.4238
#
#
#
# Elastic Compliance Matrix: (Units=1/GPa)
#
#
# Indices 1 2 3 4 5 6 
#
# 1 0.012537 -0.003411 -0.003437 0.000000 -0.003651 0.000000
# 2 -0.003411 0.008347 0.001287 0.000000 -0.004245 0.000000
# 3 -0.003437 0.001287 0.028641 0.000000 -0.012702 0.000000
# 4 0.000000 0.000000 0.000000 0.033041 0.000000 -0.006139
# 5 -0.003651 -0.004245 -0.012702 0.000000 0.044733 0.000000
# 6 0.000000 0.000000 0.000000 -0.006139 0.000000 0.035127
#
#
# Mechanical properties :
#
#
# Convention : Reuss Voigt Hill
#
# Bulk Modulus (GPa) = 26.03913 49.53454 37.78684
# Shear Modulus (GPa) = 26.83137 32.79966 29.81551
#
# Velocity S-wave (km/s) = 3.46686 3.83310 3.65457
# Velocity P-wave (km/s) = 5.26211 6.46369 5.89360
#
# Compressibility (1/GPa) = 0.03840374
#
# Stress axis : x y z
#
# Youngs Moduli (GPa) = 79.76143 119.80627 34.91470
#
# Poissons Ratio (x) = 0.40871 0.11999
# Poissons Ratio (y) = 0.27210 -0.04494
# Poissons Ratio (z) = 0.27410 -0.15420
#
# Static dielectric constant tensor:
#      x y z
#    x 1.822130 0.000000 0.011170 
#    y 0.000000 1.840360 0.000000 
#    z 0.011170 0.000000 1.924790 
# 
# From -- ./inp_files/247006.got.cif
#   From: 2010.05.17/outbox.cif.g08.bks.cpg/sg15_124_cif.got.tgz:247006.got - 2010.06.03 18:47:42.
