data_PCOD9287893
_publ_section_title
;
Structure prediction by ZEFSAII (Michael W. Deem and Ramdas Pophale) SiO2 
 PCOD9287893
Probable space group: C 2/C
;
_chemical_formula_sum "Si O2"
_cell_formula_units_Z 56
_cell_length_a 22.588448
_cell_length_b 9.584656
_cell_length_c 14.140798
_cell_angle_alpha 90.000000
_cell_angle_beta 85.758951
_cell_angle_gamma 90.000000
_cell_volume 3053.134970
_symmetry_space_group_name_H-M "C 2/C"
_symmetry_group_IT_number 15
_symmetry_cell_setting 'monoclinic'
loop_
_space_group_symop_operation_xyz
x,y,z
-x,y,1/2-z
-x,-y,-z
x,-y,1/2+z
1/2+x,1/2+y,z
1/2-x,1/2+y,1/2-z
1/2-x,1/2-y,-z
1/2+x,1/2-y,1/2+z
loop_
_atom_site_type_symbol
_atom_site_label
_atom_site_fract_x
_atom_site_fract_y
_atom_site_fract_z
Si Si1 0.433430 0.379265 0.725891
Si Si2 0.944005 0.591549 0.036644
Si Si3 0.446456 0.416059 0.055563
Si Si4 0.368998 0.098190 0.680426
Si Si5 0.736594 0.899362 0.457607
Si Si6 0.163079 0.599325 0.598760
Si Si7 0.153218 0.914269 0.587703
O O1 0.500000 0.342154 0.750000
O O2 0.436856 0.511219 0.656874
O O3 0.404175 0.245062 0.679172
O O4 0.393052 0.415083 0.820545
O O5 0.960342 0.751518 0.056813
O O6 0.910757 0.518976 0.128625
O O7 0.897789 0.591829 0.954505
O O8 0.000000 0.500000 0.000000
O O9 0.500000 0.500000 0.000000
O O10 0.386501 0.430782 0.001249
O O11 0.311785 0.110658 0.619955
O O12 0.349896 0.066411 0.790327
O O13 0.750000 0.750000 0.500000
O O14 0.709162 0.997641 0.542767
O O15 0.796578 0.969947 0.413175
O O16 0.182583 0.760688 0.587790
#
# Coordination Sequence:
#
# PCOD9287893 Si02
#       7
#     8   8   8   8   8   8   8
#     4  11  22  40  63  92 124 161 208 249 314 377
#     4  10  22  38  59  89 123 163 204 248 307 368
#     4  11  21  38  60  88 122 157 200 252 303 358
#     4  10  23  40  62  88 124 166 202 254 309 368
#     4  11  23  40  61  93 123 155 211 263 299 358
#     4   9  22  41  59  86 118 166 204 243 312 371
#     4  10  22  40  64  84 121 165 200 245 308 374
#
# _framework density 18.341802999999999
#
# number of rings (size 3 to 8) (size 9 to 14) (size 15 to 20)
#    0.000    1.714    1.429    2.143    4.000    5.714 
#    2.571    1.429    0.000    0.000    0.000    0.000 
#    0.000    0.000    0.000    0.000    0.000    0.000 
#
# Total GULP energy -156430.388916 kJ/mol
# GULP energy per Si atom -5586.799604 kJ/mol
# Density = 1.830006 g / cm^3
# Si number density = 18.341803 Si / 1000 Ang^3
#
#
#
# Elastic Constant Matrix: (Units=GPa)
#
#
# Indices 1 2 3 4 5 6 
#
# 1 104.3782 69.9797 29.0439 0.0000 -8.1693 0.0000
# 2 69.9797 123.2275 40.2768 0.0000 -5.9136 0.0000
# 3 29.0439 40.2768 86.5585 0.0000 -2.8910 0.0000
# 4 0.0000 0.0000 0.0000 30.7103 0.0000 0.1527
# 5 -8.1693 -5.9136 -2.8910 0.0000 19.7200 0.0000
# 6 0.0000 0.0000 0.0000 0.1527 0.0000 35.8338
#
#
#
# Elastic Compliance Matrix: (Units=1/GPa)
#
#
# Indices 1 2 3 4 5 6 
#
# 1 0.015881 -0.008413 -0.001285 0.000000 0.003868 0.000000
# 2 -0.008413 0.014126 -0.003743 0.000000 0.000202 0.000000
# 3 -0.001285 -0.003743 0.013738 0.000000 0.000359 0.000000
# 4 0.000000 0.000000 0.000000 0.032563 0.000000 -0.000139
# 5 0.003868 0.000202 0.000359 0.000000 0.052426 0.000000
# 6 0.000000 0.000000 0.000000 -0.000139 0.000000 0.027907
#
#
# Mechanical properties :
#
#
# Convention : Reuss Voigt Hill
#
# Bulk Modulus (GPa) = 59.30363 65.86277 62.58320
# Shear Modulus (GPa) = 26.43474 28.91039 27.67257
#
# Velocity S-wave (km/s) = 3.80047 3.97445 3.88843
# Velocity P-wave (km/s) = 7.18754 7.55302 7.37255
#
# Compressibility (1/GPa) = 0.01686238
#
# Stress axis : x y z
#
# Youngs Moduli (GPa) = 62.96647 70.79082 72.79186
#
# Poissons Ratio (x) = 0.59559 0.09353
# Poissons Ratio (y) = 0.52976 0.27248
# Poissons Ratio (z) = 0.08090 0.26499
#
# Static dielectric constant tensor:
#      x y z
#    x 1.466910 0.000000 0.165780 
#    y 0.000000 1.616990 0.000000 
#    z 0.165780 0.000000 1.429230 
# 
# From -- ./inp_files/166693.got.cif
#   From: 2010.05.17/outbox.cif.g08.bks.cpg/sg15_84_cif.got.tgz:166693.got - 2010.06.03 18:47:42.
