data_PCOD9287192
_publ_section_title
;
Structure prediction by ZEFSAII (Michael W. Deem and Ramdas Pophale) SiO2 
 PCOD9287192
Probable space group: C 2/C
;
_chemical_formula_sum "Si O2"
_cell_formula_units_Z 40
_cell_length_a 15.749927
_cell_length_b 28.462659
_cell_length_c 5.183746
_cell_angle_alpha 90.000000
_cell_angle_beta 64.474814
_cell_angle_gamma 90.000000
_cell_volume 2096.982796
_symmetry_space_group_name_H-M "C 2/C"
_symmetry_group_IT_number 15
_symmetry_cell_setting 'monoclinic'
loop_
_space_group_symop_operation_xyz
x,y,z
-x,y,1/2-z
-x,-y,-z
x,-y,1/2+z
1/2+x,1/2+y,z
1/2-x,1/2+y,1/2-z
1/2-x,1/2-y,-z
1/2+x,1/2-y,1/2+z
loop_
_atom_site_type_symbol
_atom_site_label
_atom_site_fract_x
_atom_site_fract_y
_atom_site_fract_z
Si Si1 0.393074 0.334804 0.393064
Si Si2 0.307542 0.296562 0.989892
Si Si3 0.109944 0.969118 0.569345
Si Si4 0.887682 0.529372 0.906253
Si Si5 0.758211 0.108028 0.375390
O O1 0.500000 0.352365 0.250000
O O2 0.358407 0.304295 0.196059
O O3 0.318474 0.376624 0.545125
O O4 0.383582 0.303617 0.663597
O O5 0.250000 0.250000 0.000000
O O6 0.240774 0.342291 0.037282
O O7 0.171882 0.923925 0.547556
O O8 0.000000 0.956874 0.750000
O O9 0.128563 0.992134 0.267931
O O10 0.862148 0.508217 0.661085
O O11 0.000000 0.536217 0.750000
O O12 0.833160 0.576872 0.043545
#
# Coordination Sequence:
#
# PCOD9287192 Si02
#       5
#     8   8   8   8   8
#     4  10  23  38  64  93 122 164 201 253 315 385
#     4  10  23  41  63  88 128 160 211 256 307 377
#     4  10  22  34  50  83 124 161 197 237 288 364
#     4  10  22  40  61  87 120 163 216 263 309 363
#     4  10  24  34  68  82 130 156 211 247 318 365
#
# _framework density 19.075028
#
# number of rings (size 3 to 8) (size 9 to 14) (size 15 to 20)
#    1.200    0.800    0.000    2.400    8.400    0.800 
#    0.000    2.000    0.000    1.200    0.000    0.000 
#    0.000    0.000    0.000    0.000    0.000    0.000 
#
# Total GULP energy -111490.295516 kJ/mol
# GULP energy per Si atom -5574.514776 kJ/mol
# Density = 1.903161 g / cm^3
# Si number density = 19.075028 Si / 1000 Ang^3
#
#
#
# Elastic Constant Matrix: (Units=GPa)
#
#
# Indices 1 2 3 4 5 6 
#
# 1 63.6727 34.9223 35.4817 0.0000 -2.3732 0.0000
# 2 34.9223 107.5966 16.4964 0.0000 -13.7329 0.0000
# 3 35.4817 16.4964 101.1687 0.0000 6.4527 0.0000
# 4 0.0000 0.0000 0.0000 14.7504 0.0000 -4.3130
# 5 -2.3732 -13.7329 6.4527 0.0000 29.6902 0.0000
# 6 0.0000 0.0000 0.0000 -4.3130 0.0000 17.9637
#
#
#
# Elastic Compliance Matrix: (Units=1/GPa)
#
#
# Indices 1 2 3 4 5 6 
#
# 1 0.023188 -0.006377 -0.007122 0.000000 0.000452 0.000000
# 2 -0.006377 0.012016 -0.000046 0.000000 0.005058 0.000000
# 3 -0.007122 -0.000046 0.012602 0.000000 -0.003329 0.000000
# 4 0.000000 0.000000 0.000000 0.072913 0.000000 0.017506
# 5 0.000452 0.005058 -0.003329 0.000000 0.036780 0.000000
# 6 0.000000 0.000000 0.000000 0.017506 0.000000 0.059871
#
#
# Mechanical properties :
#
#
# Convention : Reuss Voigt Hill
#
# Bulk Modulus (GPa) = 48.26544 49.58209 48.92377
# Shear Modulus (GPa) = 19.89143 24.85003 22.37073
#
# Velocity S-wave (km/s) = 3.23274 3.61328 3.42830
# Velocity P-wave (km/s) = 6.26834 6.59222 6.43232
#
# Compressibility (1/GPa) = 0.02071876
#
# Stress axis : x y z
#
# Youngs Moduli (GPa) = 43.12583 83.22123 79.35315
#
# Poissons Ratio (x) = 0.53066 0.56511
# Poissons Ratio (y) = 0.27499 0.00362
# Poissons Ratio (z) = 0.30712 0.00379
#
# Static dielectric constant tensor:
#      x y z
#    x 1.667130 0.000000 0.006930 
#    y 0.000000 1.666930 0.000000 
#    z 0.006930 0.000000 1.695130 
# 
# From -- ./inp_files/8471.got.cif
#   From: 2010.05.17/outbox.cif.g08.bks.cpg/sg15_5_cif.got.tgz:8471.got - 2010.06.03 18:47:42.
