data_PCOD9287539
_publ_section_title
;
Structure prediction by ZEFSAII (Michael W. Deem and Ramdas Pophale) SiO2 
 PCOD9287539
Probable space group: C 2/C
;
_chemical_formula_sum "Si O2"
_cell_formula_units_Z 48
_cell_length_a 7.855331
_cell_length_b 28.444023
_cell_length_c 9.002238
_cell_angle_alpha 90.000000
_cell_angle_beta 95.175333
_cell_angle_gamma 90.000000
_cell_volume 2003.235027
_symmetry_space_group_name_H-M "C 2/C"
_symmetry_group_IT_number 15
_symmetry_cell_setting 'monoclinic'
loop_
_space_group_symop_operation_xyz
x,y,z
-x,y,1/2-z
-x,-y,-z
x,-y,1/2+z
1/2+x,1/2+y,z
1/2-x,1/2+y,1/2-z
1/2-x,1/2-y,-z
1/2+x,1/2-y,1/2+z
loop_
_atom_site_type_symbol
_atom_site_label
_atom_site_fract_x
_atom_site_fract_y
_atom_site_fract_z
Si Si1 0.298011 0.760948 0.176200
Si Si2 0.809663 0.833558 0.806112
Si Si3 0.750416 0.479976 0.061353
Si Si4 0.500000 0.091050 0.750000
Si Si5 0.000000 0.067034 0.750000
Si Si6 0.242164 0.150354 0.861106
Si Si7 0.706826 0.437318 0.747271
O O1 0.500000 0.763425 0.250000
O O2 0.223976 0.714470 0.248700
O O3 0.221782 0.809503 0.234425
O O4 0.250000 0.750000 0.000000
O O5 0.732413 0.883583 0.750930
O O6 0.000000 0.833329 0.750000
O O7 0.813666 0.832028 0.983767
O O8 0.570285 0.464196 0.121382
O O9 0.769028 0.534000 0.108538
O O10 0.876894 0.444558 0.154742
O O11 0.765642 0.468474 0.890841
O O12 0.430835 0.128366 0.866612
O O13 0.861972 0.103407 0.680598
O O14 0.500000 0.435232 0.750000
#
# Coordination Sequence:
#
# PCOD9287539 Si02
#       7
#     8   8   8   4   4   8   8
#     4  11  26  47  75 107 149 188 242 299 368 436
#     4  10  24  43  70 104 138 181 243 300 351 421
#     4  11  24  42  65 100 140 184 235 295 348 431
#     4  10  26  44  70  98 146 184 236 280 368 424
#     4  10  22  36  74  98 132 184 242 288 354 412
#     4  11  23  46  74 103 143 187 233 293 365 427
#     4  11  23  40  69 100 138 176 243 295 354 407
#
# _framework density 23.961241000000001
#
# number of rings (size 3 to 8) (size 9 to 14) (size 15 to 20)
#    0.000    1.333    1.667    3.000   14.000    0.667 
#    0.000    1.667    0.000    0.000    0.000    0.000 
#    0.000    0.000    0.000    0.000    0.000    0.000 
#
# Total GULP energy -134059.830614 kJ/mol
# GULP energy per Si atom -5585.826276 kJ/mol
# Density = 2.390670 g / cm^3
# Si number density = 23.961241 Si / 1000 Ang^3
#
#
#
# Elastic Constant Matrix: (Units=GPa)
#
#
# Indices 1 2 3 4 5 6 
#
# 1 39.8338 13.3388 25.1559 0.0000 -4.1407 0.0000
# 2 13.3388 152.8606 13.6751 0.0000 -7.9722 0.0000
# 3 25.1559 13.6751 113.7938 0.0000 1.5884 0.0000
# 4 0.0000 0.0000 0.0000 50.4287 0.0000 -15.2331
# 5 -4.1407 -7.9722 1.5884 0.0000 23.1289 0.0000
# 6 0.0000 0.0000 0.0000 -15.2331 0.0000 86.1312
#
#
#
# Elastic Compliance Matrix: (Units=1/GPa)
#
#
# Indices 1 2 3 4 5 6 
#
# 1 0.030408 -0.001789 -0.006581 0.000000 0.005279 0.000000
# 2 -0.001789 0.006847 -0.000456 0.000000 0.002071 0.000000
# 3 -0.006581 -0.000456 0.010326 0.000000 -0.002045 0.000000
# 4 0.000000 0.000000 0.000000 0.020949 0.000000 0.003705
# 5 0.005279 0.002071 -0.002045 0.000000 0.045035 0.000000
# 6 0.000000 0.000000 0.000000 0.003705 0.000000 0.012265
#
#
# Mechanical properties :
#
#
# Convention : Reuss Voigt Hill
#
# Bulk Modulus (GPa) = 33.41322 45.64752 39.53037
# Shear Modulus (GPa) = 32.58178 48.89231 40.73704
#
# Velocity S-wave (km/s) = 3.69151 4.52206 4.12773
# Velocity P-wave (km/s) = 5.66962 6.80862 6.26506
#
# Compressibility (1/GPa) = 0.02992827
#
# Stress axis : x y z
#
# Youngs Moduli (GPa) = 32.88580 146.05207 96.84301
#
# Poissons Ratio (x) = 0.26135 0.63731
# Poissons Ratio (y) = 0.05885 0.04418
# Poissons Ratio (z) = 0.21642 0.06662
#
# Static dielectric constant tensor:
#      x y z
#    x 2.178630 0.000000 -0.032220 
#    y 0.000000 1.874330 0.000000 
#    z -0.032220 0.000000 1.909920 
# 
# From -- ./inp_files/26175.got.cif
#   From: 2010.05.17/outbox.cif.g08.bks.cpg/sg15_14_cif.got.tgz:26175.got - 2010.06.03 18:47:42.
