data_PCOD9287116
_publ_section_title
;
Structure prediction by ZEFSAII (Michael W. Deem and Ramdas Pophale) SiO2 
 PCOD9287116
Probable space group: C 2/C
;
_chemical_formula_sum "Si O2"
_cell_formula_units_Z 56
_cell_length_a 22.458392
_cell_length_b 12.558683
_cell_length_c 21.286219
_cell_angle_alpha 90.000000
_cell_angle_beta 158.203569
_cell_angle_gamma 90.000000
_cell_volume 2229.245643
_symmetry_space_group_name_H-M "C 2/C"
_symmetry_group_IT_number 15
_symmetry_cell_setting 'monoclinic'
loop_
_space_group_symop_operation_xyz
x,y,z
-x,y,1/2-z
-x,-y,-z
x,-y,1/2+z
1/2+x,1/2+y,z
1/2-x,1/2+y,1/2-z
1/2-x,1/2-y,-z
1/2+x,1/2-y,1/2+z
loop_
_atom_site_type_symbol
_atom_site_label
_atom_site_fract_x
_atom_site_fract_y
_atom_site_fract_z
Si Si1 0.650163 0.620461 0.785882
Si Si2 0.452427 0.141042 0.607484
Si Si3 0.445062 0.621500 0.948606
Si Si4 0.798106 0.245939 0.220556
Si Si5 0.684064 0.657564 0.981294
Si Si6 0.492517 0.101131 0.319772
Si Si7 0.337573 0.433687 0.615494
O O1 0.609482 0.646339 0.675204
O O2 0.679951 0.849478 0.831871
O O3 0.634962 0.494102 0.790586
O O4 0.838946 0.640816 0.985775
O O5 0.340886 0.167156 0.438212
O O6 0.595830 0.223061 0.736604
O O7 0.323504 0.135199 0.538163
O O8 0.516757 0.021836 0.670134
O O9 0.590270 0.692565 0.117849
O O10 0.500000 0.500000 0.000000
O O11 0.293091 0.649563 0.843628
O O12 0.500000 0.893414 0.750000
O O13 0.500494 0.669225 0.822332
O O14 0.750000 0.750000 0.000000
O O15 0.812875 0.960344 0.048014
O O16 0.500000 0.381716 0.750000
#
# Coordination Sequence:
#
# PCOD9287116 Si02
#       7
#     8   8   8   8   8   8   8
#     4  10  23  43  66 102 144 195 239 294 370 437
#     4  10  21  47  72 103 139 188 237 306 372 439
#     4  11  24  49  75 106 148 195 247 324 377 433
#     4  10  25  48  76 109 141 185 266 311 372 451
#     4  11  24  42  67 104 147 195 242 296 354 454
#     4  11  22  44  69 101 147 190 238 283 377 446
#     4   9  19  42  66  97 147 187 229 287 369 441
#
# _framework density 25.120605000000001
#
# number of rings (size 3 to 8) (size 9 to 14) (size 15 to 20)
#    0.000    1.714    2.857    1.714    2.000    3.429 
#   10.286    9.286    0.000    0.000    0.000    0.000 
#    0.000    0.000    0.000    0.000    0.000    0.000 
#
# Total GULP energy -156346.693769 kJ/mol
# GULP energy per Si atom -5583.810492 kJ/mol
# Density = 2.506343 g / cm^3
# Si number density = 25.120605 Si / 1000 Ang^3
#
#
#
# Elastic Constant Matrix: (Units=GPa)
#
#
# Indices 1 2 3 4 5 6 
#
# 1 81.3449 32.6746 37.3264 0.0002 2.3611 0.0000
# 2 32.6746 105.8454 68.6583 0.0002 5.1284 -0.0020
# 3 37.3264 68.6583 191.2909 0.0005 0.3346 -0.0015
# 4 0.0002 0.0002 0.0005 43.1142 0.0019 9.5085
# 5 2.3611 5.1284 0.3346 0.0019 39.9639 0.0001
# 6 0.0000 -0.0020 -0.0015 9.5085 0.0001 43.5148
#
#
#
# Elastic Compliance Matrix: (Units=1/GPa)
#
#
# Indices 1 2 3 4 5 6 
#
# 1 0.014398 -0.003393 -0.001591 0.000000 -0.000402 0.000000
# 2 -0.003393 0.013211 -0.004077 0.000000 -0.001461 0.000000
# 3 -0.001591 -0.004077 0.007000 0.000000 0.000559 0.000000
# 4 0.000000 0.000000 0.000000 0.024369 -0.000001 -0.005325
# 5 -0.000402 -0.001461 0.000559 -0.000001 0.025229 0.000000
# 6 0.000000 0.000000 0.000000 -0.005325 0.000000 0.024144
#
#
# Mechanical properties :
#
#
# Convention : Reuss Voigt Hill
#
# Bulk Modulus (GPa) = 60.65410 72.86664 66.76037
# Shear Modulus (GPa) = 37.88787 41.30671 39.59729
#
# Velocity S-wave (km/s) = 3.88782 4.05944 3.97456
# Velocity P-wave (km/s) = 6.65966 7.14435 6.90626
#
# Compressibility (1/GPa) = 0.01648693
#
# Stress axis : x y z
#
# Youngs Moduli (GPa) = 69.45410 75.69713 142.84992
#
# Poissons Ratio (x) = 0.25686 0.22725
# Poissons Ratio (y) = 0.23568 0.58238
# Poissons Ratio (z) = 0.11049 0.30861
#
# Static dielectric constant tensor:
#      x y z
#    x 2.125240 0.000000 0.055000 
#    y 0.000000 2.082750 0.000000 
#    z 0.055000 0.000000 2.072590 
# 
# From -- ./inp_files/303300.got.cif
#   From: 2010.05.17/outbox.cif.g08.bks.cpg/sg15_152_cif.got.tgz:303300.got - 2010.06.03 18:47:42.
