data_PCOD9287884
_publ_section_title
;
Structure prediction by ZEFSAII (Michael W. Deem and Ramdas Pophale) SiO2 
 PCOD9287884
Probable space group: C 2/C
;
_chemical_formula_sum "Si O2"
_cell_formula_units_Z 48
_cell_length_a 8.351513
_cell_length_b 32.598467
_cell_length_c 8.859471
_cell_angle_alpha 90.000000
_cell_angle_beta 83.645725
_cell_angle_gamma 90.000000
_cell_volume 2397.142426
_symmetry_space_group_name_H-M "C 2/C"
_symmetry_group_IT_number 15
_symmetry_cell_setting 'monoclinic'
loop_
_space_group_symop_operation_xyz
x,y,z
-x,y,1/2-z
-x,-y,-z
x,-y,1/2+z
1/2+x,1/2+y,z
1/2-x,1/2+y,1/2-z
1/2-x,1/2-y,-z
1/2+x,1/2-y,1/2+z
loop_
_atom_site_type_symbol
_atom_site_label
_atom_site_fract_x
_atom_site_fract_y
_atom_site_fract_z
Si Si1 0.557631 0.711196 0.076504
Si Si2 0.055695 0.705766 0.416493
Si Si3 0.556556 0.957892 0.569138
Si Si4 0.067425 0.623316 0.577605
Si Si5 0.567629 0.541156 0.568369
Si Si6 0.551599 0.371103 0.419773
O O1 0.500000 0.718020 0.250000
O O2 0.751436 0.707550 0.073872
O O3 0.502059 0.750089 0.984526
O O4 0.491463 0.668834 0.014758
O O5 0.999113 0.665220 0.511788
O O6 0.000000 0.701693 0.250000
O O7 0.500000 0.960185 0.750000
O O8 0.474424 0.916635 0.514743
O O9 0.500000 0.000000 0.500000
O O10 0.743446 0.956522 0.494925
O O11 0.257284 0.628351 0.580652
O O12 0.000000 0.616795 0.750000
O O13 0.500000 0.539919 0.750000
O O14 0.500000 0.500000 0.500000
O O15 0.504759 0.584847 0.514593
O O16 0.500000 0.367640 0.250000
#
# Coordination Sequence:
#
# PCOD9287884 Si02
#       6
#     8   8   8   8   8   8
#     4  10  22  38  59  87 118 156 201 251 304 364
#     4  10  22  39  59  87 121 158 202 250 305 367
#     4  12  25  42  65  95 129 165 209 259 314 373
#     4  11  22  39  62  90 125 162 207 256 310 370
#     4  11  23  41  64  90 123 163 206 251 308 367
#     4  10  22  39  60  87 120 160 204 252 307 368
#
# _framework density 20.02384
#
# number of rings (size 3 to 8) (size 9 to 14) (size 15 to 20)
#    0.000    1.333    0.000    6.000    0.000    6.667 
#    0.000    0.000    0.000    0.000    0.000    0.000 
#    0.000    0.000    0.000    0.000    0.000    0.000 
#
# Total GULP energy -133883.178272 kJ/mol
# GULP energy per Si atom -5578.465761 kJ/mol
# Density = 1.997827 g / cm^3
# Si number density = 20.023840 Si / 1000 Ang^3
#
#
#
# Elastic Constant Matrix: (Units=GPa)
#
#
# Indices 1 2 3 4 5 6 
#
# 1 67.5143 21.8415 23.6353 0.0000 -4.2533 0.0000
# 2 21.8415 173.2089 70.5267 0.0000 14.9910 0.0000
# 3 23.6353 70.5267 141.5417 0.0000 -0.7743 0.0000
# 4 0.0000 0.0000 0.0000 45.6449 0.0000 7.8369
# 5 -4.2533 14.9910 -0.7743 0.0000 32.9847 0.0000
# 6 0.0000 0.0000 0.0000 7.8369 0.0000 28.2296
#
#
#
# Elastic Compliance Matrix: (Units=1/GPa)
#
#
# Indices 1 2 3 4 5 6 
#
# 1 0.016141 -0.001478 -0.001944 0.000000 0.002708 0.000000
# 2 -0.001478 0.007775 -0.003648 0.000000 -0.003810 0.000000
# 3 -0.001944 -0.003648 0.009216 0.000000 0.001624 0.000000
# 4 0.000000 0.000000 0.000000 0.023005 0.000000 -0.006386
# 5 0.002708 -0.003810 0.001624 0.000000 0.032436 0.000000
# 6 0.000000 0.000000 0.000000 -0.006386 0.000000 0.037197
#
#
# Mechanical properties :
#
#
# Convention : Reuss Voigt Hill
#
# Bulk Modulus (GPa) = 52.65424 68.25245 60.45334
# Shear Modulus (GPa) = 34.19027 39.12261 36.65644
#
# Velocity S-wave (km/s) = 4.13665 4.42498 4.28324
# Velocity P-wave (km/s) = 7.01204 7.76317 7.39714
#
# Compressibility (1/GPa) = 0.01899182
#
# Stress axis : x y z
#
# Youngs Moduli (GPa) = 61.95415 128.61877 108.50363
#
# Poissons Ratio (x) = 0.19012 0.21092
# Poissons Ratio (y) = 0.09158 0.39583
# Poissons Ratio (z) = 0.12044 0.46921
#
# Static dielectric constant tensor:
#      x y z
#    x 1.698220 0.000000 -0.003680 
#    y 0.000000 1.727960 0.000000 
#    z -0.003680 0.000000 1.688310 
# 
# From -- ./inp_files/26095.got.cif
#   From: 2010.05.17/outbox.cif.g08.bks.cpg/sg15_14_cif.got.tgz:26095.got - 2010.06.03 18:47:42.
