data_PCOD9287371
_publ_section_title
;
Structure prediction by ZEFSAII (Michael W. Deem and Ramdas Pophale) SiO2 
 PCOD9287371
Probable space group: C 2/C
;
_chemical_formula_sum "Si O2"
_cell_formula_units_Z 56
_cell_length_a 16.080257
_cell_length_b 27.617847
_cell_length_c 7.796138
_cell_angle_alpha 90.000000
_cell_angle_beta 135.304754
_cell_angle_gamma 90.000000
_cell_volume 2435.145969
_symmetry_space_group_name_H-M "C 2/C"
_symmetry_group_IT_number 15
_symmetry_cell_setting 'monoclinic'
loop_
_space_group_symop_operation_xyz
x,y,z
-x,y,1/2-z
-x,-y,-z
x,-y,1/2+z
1/2+x,1/2+y,z
1/2-x,1/2+y,1/2-z
1/2-x,1/2-y,-z
1/2+x,1/2-y,1/2+z
loop_
_atom_site_type_symbol
_atom_site_label
_atom_site_fract_x
_atom_site_fract_y
_atom_site_fract_z
Si Si1 0.183241 0.131049 0.706031
Si Si2 0.675530 0.270954 0.647328
Si Si3 0.634161 0.958566 0.511341
Si Si4 0.506716 0.555042 0.464927
Si Si5 0.198383 0.876594 0.827858
Si Si6 0.361806 0.934971 0.585491
Si Si7 0.413811 0.268312 0.362547
O O1 0.126138 0.081234 0.688403
O O2 0.173641 0.138088 0.488206
O O3 0.107400 0.174076 0.671002
O O4 0.314569 0.117686 0.954651
O O5 0.699591 0.328029 0.717526
O O6 0.555959 0.258540 0.586503
O O7 0.629200 0.254393 0.391772
O O8 0.810844 0.249530 0.845170
O O9 0.500000 0.960935 0.250000
O O10 0.693014 0.913899 0.497367
O O11 0.650512 0.942922 0.730597
O O12 0.682223 0.013538 0.561831
O O13 0.500000 0.558705 0.250000
O O14 0.500000 0.500000 0.500000
O O15 0.402956 0.587559 0.388213
O O16 0.500000 0.934167 0.750000
#
# Coordination Sequence:
#
# PCOD9287371 Si02
#       7
#     8   8   8   8   8   8   8
#     4  11  22  40  62  92 127 168 218 270 329 394
#     4  10  22  43  68  95 130 171 219 277 337 398
#     4  11  22  39  61  90 129 171 219 266 325 389
#     4  10  22  36  58  90 126 165 210 260 323 391
#     4  11  22  40  62  90 129 169 217 273 327 397
#     4  11  22  39  61  90 127 173 217 270 324 391
#     4  10  22  43  67  96 130 170 220 277 338 398
#
# _framework density 22.996566999999999
#
# number of rings (size 3 to 8) (size 9 to 14) (size 15 to 20)
#    0.000    1.429    1.429    5.143    0.000    5.143 
#   10.286    0.000    0.000    0.000    0.000    0.000 
#    0.000    0.000    0.000    0.000    0.000    0.000 
#
# Total GULP energy -155978.509107 kJ/mol
# GULP energy per Si atom -5570.661040 kJ/mol
# Density = 2.294423 g / cm^3
# Si number density = 22.996567 Si / 1000 Ang^3
#
#
#
# Elastic Constant Matrix: (Units=GPa)
#
#
# Indices 1 2 3 4 5 6 
#
# 1 78.3125 31.3789 22.7855 0.0000 31.0041 0.0000
# 2 31.3789 91.4383 7.7546 0.0000 25.3553 0.0000
# 3 22.7855 7.7546 41.5773 0.0000 6.7800 0.0000
# 4 0.0000 0.0000 0.0000 16.1982 0.0000 1.6085
# 5 31.0041 25.3553 6.7800 0.0000 44.0220 0.0000
# 6 0.0000 0.0000 0.0000 1.6085 0.0000 44.9333
#
#
#
# Elastic Compliance Matrix: (Units=1/GPa)
#
#
# Indices 1 2 3 4 5 6 
#
# 1 0.021436 -0.003311 -0.009211 0.000000 -0.011772 0.000000
# 2 -0.003311 0.013589 0.000181 0.000000 -0.005523 0.000000
# 3 -0.009211 0.000181 0.028747 0.000000 0.001955 0.000000
# 4 0.000000 0.000000 0.000000 0.061955 0.000000 -0.002218
# 5 -0.011772 -0.005523 0.001955 0.000000 0.033886 0.000000
# 6 0.000000 0.000000 0.000000 -0.002218 0.000000 0.022335
#
#
# Mechanical properties :
#
#
# Convention : Reuss Voigt Hill
#
# Bulk Modulus (GPa) = 25.58206 37.24068 31.41137
# Shear Modulus (GPa) = 22.76250 30.99132 26.87691
#
# Velocity S-wave (km/s) = 3.14956 3.67502 3.42239
# Velocity P-wave (km/s) = 4.93708 5.85123 5.41348
#
# Compressibility (1/GPa) = 0.03908989
#
# Stress axis : x y z
#
# Youngs Moduli (GPa) = 46.64974 73.59104 34.78668
#
# Poissons Ratio (x) = 0.24366 0.32040
# Poissons Ratio (y) = 0.15446 -0.00628
# Poissons Ratio (z) = 0.42967 -0.01329
#
# Static dielectric constant tensor:
#      x y z
#    x 2.008150 0.000000 0.157960 
#    y 0.000000 1.889000 0.000000 
#    z 0.157960 0.000000 2.005360 
# 
# From -- ./inp_files/52357.got.cif
#   From: 2010.05.17/outbox.cif.g08.bks.cpg/sg15_27_cif.got.tgz:52357.got - 2010.06.03 18:47:42.
