data_PCOD9287787
_publ_section_title
;
Structure prediction by ZEFSAII (Michael W. Deem and Ramdas Pophale) SiO2 
 PCOD9287787
Probable space group: C 2/C
;
_chemical_formula_sum "Si O2"
_cell_formula_units_Z 48
_cell_length_a 20.419161
_cell_length_b 20.267489
_cell_length_c 17.452468
_cell_angle_alpha 90.000000
_cell_angle_beta 20.716909
_cell_angle_gamma 90.000000
_cell_volume 2555.007836
_symmetry_space_group_name_H-M "C 2/C"
_symmetry_group_IT_number 15
_symmetry_cell_setting 'monoclinic'
loop_
_space_group_symop_operation_xyz
x,y,z
-x,y,1/2-z
-x,-y,-z
x,-y,1/2+z
1/2+x,1/2+y,z
1/2-x,1/2+y,1/2-z
1/2-x,1/2-y,-z
1/2+x,1/2-y,1/2+z
loop_
_atom_site_type_symbol
_atom_site_label
_atom_site_fract_x
_atom_site_fract_y
_atom_site_fract_z
Si Si1 0.330215 0.588307 0.203031
Si Si2 0.500773 0.945302 0.337303
Si Si3 0.806443 0.296229 0.866320
Si Si4 0.884431 0.594216 0.495821
Si Si5 0.773904 0.954490 0.174587
Si Si6 0.022167 0.170735 0.873578
O O1 0.273784 0.530560 0.203967
O O2 0.155073 0.596336 0.448128
O O3 0.511123 0.564967 0.052307
O O4 0.400181 0.650403 0.079266
O O5 0.500000 0.925063 0.250000
O O6 0.684284 0.944423 0.189596
O O7 0.435710 0.021871 0.411156
O O8 0.963150 0.352467 0.697634
O O9 0.883913 0.241956 0.722055
O O10 0.750000 0.250000 0.000000
O O11 0.618715 0.327551 0.042116
O O12 0.845644 0.585461 0.629994
O O13 0.685990 0.618528 0.682621
#
# Coordination Sequence:
#
# PCOD9287787 Si02
#       6
#     8   8   8   8   8   8
#     4   9  19  38  57  78 106 151 196 231 279 337
#     4  11  22  34  58  88 115 141 185 242 297 335
#     4  12  24  36  51  80 121 153 190 227 266 322
#     4  10  22  38  56  78 114 158 191 220 273 336
#     4   9  18  38  59  78 108 147 194 239 274 343
#     4  11  22  36  55  74 109 155 191 225 263 326
#
# _framework density 18.786636000000001
#
# number of rings (size 3 to 8) (size 9 to 14) (size 15 to 20)
#    0.000    1.667    1.667    5.500    2.333    0.667 
#    3.000    0.000    0.000    0.000    0.000    4.667 
#    0.000    0.167    0.000    0.000    0.000    0.000 
#
# Total GULP energy -133917.163447 kJ/mol
# GULP energy per Si atom -5579.881810 kJ/mol
# Density = 1.874388 g / cm^3
# Si number density = 18.786636 Si / 1000 Ang^3
#
#
#
# Elastic Constant Matrix: (Units=GPa)
#
#
# Indices 1 2 3 4 5 6 
#
# 1 126.1751 11.7738 55.0923 0.0154 -16.8304 -0.0010
# 2 11.7738 57.8802 25.2750 0.0332 2.7632 -0.0028
# 3 55.0923 25.2750 85.6224 -0.0042 -16.3802 0.0089
# 4 0.0154 0.0332 -0.0042 12.9302 0.0004 -7.8615
# 5 -16.8304 2.7632 -16.3802 0.0004 27.8349 -0.0031
# 6 -0.0010 -0.0028 0.0089 -7.8615 -0.0031 16.4178
#
#
#
# Elastic Compliance Matrix: (Units=1/GPa)
#
#
# Indices 1 2 3 4 5 6 
#
# 1 0.011237 0.000597 -0.006894 -0.000020 0.002678 -0.000005
# 2 0.000597 0.020830 -0.007730 -0.000074 -0.006256 -0.000029
# 3 -0.006894 -0.007730 0.019998 0.000039 0.008367 0.000008
# 4 -0.000020 -0.000074 0.000039 0.109100 0.000023 0.052241
# 5 0.002678 -0.006256 0.008367 0.000023 0.043090 0.000014
# 6 -0.000005 -0.000029 0.000008 0.052241 0.000014 0.085924
#
#
# Mechanical properties :
#
#
# Convention : Reuss Voigt Hill
#
# Bulk Modulus (GPa) = 41.64822 50.43999 46.04410
# Shear Modulus (GPa) = 15.32629 23.27237 19.29933
#
# Velocity S-wave (km/s) = 2.85933 3.52344 3.20861
# Velocity P-wave (km/s) = 5.75485 6.59242 6.18782
#
# Compressibility (1/GPa) = 0.02401063
#
# Stress axis : x y z
#
# Youngs Moduli (GPa) = 88.98904 48.00850 50.00616
#
# Poissons Ratio (x) = -0.02866 0.34476
# Poissons Ratio (y) = -0.05312 0.38652
# Poissons Ratio (z) = 0.61352 0.37108
#
# Static dielectric constant tensor:
#      x y z
#    x 1.705760 0.000010 0.006670 
#    y 0.000010 1.655950 0.000020 
#    z 0.006670 0.000020 1.688820 
# 
# From -- ./inp_files/157110.got.cif
#   From: 2010.05.17/outbox.cif.g08.bks.cpg/sg15_79_cif.got.tgz:157110.got - 2010.06.03 18:47:42.
