data_PCOD9287386
_publ_section_title
;
Structure prediction by ZEFSAII (Michael W. Deem and Ramdas Pophale) SiO2 
 PCOD9287386
Probable space group: C 2/C
;
_chemical_formula_sum "Si O2"
_cell_formula_units_Z 52
_cell_length_a 9.208606
_cell_length_b 11.154758
_cell_length_c 25.390179
_cell_angle_alpha 90.000000
_cell_angle_beta 104.714287
_cell_angle_gamma 90.000000
_cell_volume 2522.540175
_symmetry_space_group_name_H-M "C 2/C"
_symmetry_group_IT_number 15
_symmetry_cell_setting 'monoclinic'
loop_
_space_group_symop_operation_xyz
x,y,z
-x,y,1/2-z
-x,-y,-z
x,-y,1/2+z
1/2+x,1/2+y,z
1/2-x,1/2+y,1/2-z
1/2-x,1/2-y,-z
1/2+x,1/2-y,1/2+z
loop_
_atom_site_type_symbol
_atom_site_label
_atom_site_fract_x
_atom_site_fract_y
_atom_site_fract_z
Si Si1 0.000000 0.624332 0.250000
Si Si2 0.715682 0.691926 0.053434
Si Si3 0.580850 0.778206 0.499704
Si Si4 0.177336 0.776263 0.122008
Si Si5 0.304077 0.033040 0.319395
Si Si6 0.105469 0.824479 0.340753
Si Si7 0.906945 0.545400 0.587202
O O1 0.128848 0.548278 0.232903
O O2 0.074511 0.712022 0.299800
O O3 0.535458 0.682595 0.034961
O O4 0.776169 0.779647 0.104459
O O5 0.798185 0.566665 0.067900
O O6 0.750000 0.750000 0.000000
O O7 0.750000 0.750000 0.500000
O O8 0.584892 0.776685 0.563139
O O9 0.545752 0.898531 0.464487
O O10 0.236363 0.664435 0.161615
O O11 0.309942 0.857736 0.111464
O O12 0.053463 0.847053 0.144851
O O13 0.173249 0.937076 0.316079
O O14 0.447284 0.990883 0.366853
#
# Coordination Sequence:
#
# PCOD9287386 Si02
#       7
#     4   8   8   8   8   8   8
#     4  10  24  46  62  98 122 162 220 274 340 370
#     4  12  22  39  66  99 131 176 214 260 331 385
#     4  10  22  36  58  99 137 171 214 254 313 389
#     4  10  23  40  61 101 133 171 213 262 322 385
#     4  11  23  44  70  89 124 169 218 273 325 393
#     4  11  23  44  69  93 129 167 214 275 323 389
#     4  11  23  39  65  94 138 177 211 265 316 390
#
# _framework density 20.614142999999999
#
# number of rings (size 3 to 8) (size 9 to 14) (size 15 to 20)
#    0.000    1.231    6.154    0.000    2.154    8.615 
#    0.000    0.000    0.000    0.000    0.000    0.000 
#    0.000    0.000    0.000    0.000    0.000    0.000 
#
# Total GULP energy -145234.120193 kJ/mol
# GULP energy per Si atom -5585.927700 kJ/mol
# Density = 2.056722 g / cm^3
# Si number density = 20.614143 Si / 1000 Ang^3
#
#
#
# Elastic Constant Matrix: (Units=GPa)
#
#
# Indices 1 2 3 4 5 6 
#
# 1 79.5576 28.4210 15.5694 0.0000 -13.3411 0.0000
# 2 28.4210 77.8729 9.6530 0.0000 -30.0600 0.0000
# 3 15.5694 9.6530 70.2781 0.0000 -25.5049 0.0000
# 4 0.0000 0.0000 0.0000 28.5753 0.0000 -12.9507
# 5 -13.3411 -30.0600 -25.5049 0.0000 35.2042 0.0000
# 6 0.0000 0.0000 0.0000 -12.9507 0.0000 46.1169
#
#
#
# Elastic Compliance Matrix: (Units=1/GPa)
#
#
# Indices 1 2 3 4 5 6 
#
# 1 0.014934 -0.005569 -0.003006 0.000000 -0.001274 0.000000
# 2 -0.005569 0.022333 0.005862 0.000000 0.021207 0.000000
# 3 -0.003006 0.005862 0.021020 0.000000 0.019095 0.000000
# 4 0.000000 0.000000 0.000000 0.040099 0.000000 0.011261
# 5 -0.001274 0.021207 0.019095 0.000000 0.059865 0.000000
# 6 0.000000 0.000000 0.000000 0.011261 0.000000 0.024846
#
#
# Mechanical properties :
#
#
# Convention : Reuss Voigt Hill
#
# Bulk Modulus (GPa) = 18.91736 37.22170 28.06953
# Shear Modulus (GPa) = 24.25498 33.58362 28.91930
#
# Velocity S-wave (km/s) = 3.43391 4.04066 3.74958
# Velocity P-wave (km/s) = 4.99190 6.31386 5.69139
#
# Compressibility (1/GPa) = 0.05286150
#
# Stress axis : x y z
#
# Youngs Moduli (GPa) = 66.96243 44.77581 47.57416
#
# Poissons Ratio (x) = 0.24938 0.14300
# Poissons Ratio (y) = 0.37295 -0.27890
# Poissons Ratio (z) = 0.20127 -0.26250
#
# Static dielectric constant tensor:
#      x y z
#    x 1.770610 0.000000 -0.033430 
#    y 0.000000 1.739800 0.000000 
#    z -0.033430 0.000000 1.768480 
# 
# From -- ./inp_files/287668.got.cif
#   From: 2010.05.17/outbox.cif.g08.bks.cpg/sg15_144_cif.got.tgz:287668.got - 2010.06.03 18:47:42.
