data_PCOD9287157
_publ_section_title
;
Structure prediction by ZEFSAII (Michael W. Deem and Ramdas Pophale) SiO2 
 PCOD9287157
Probable space group: C 2/C
;
_chemical_formula_sum "Si O2"
_cell_formula_units_Z 56
_cell_length_a 11.276425
_cell_length_b 19.900374
_cell_length_c 13.637073
_cell_angle_alpha 90.000000
_cell_angle_beta 106.542867
_cell_angle_gamma 90.000000
_cell_volume 2933.556277
_symmetry_space_group_name_H-M "C 2/C"
_symmetry_group_IT_number 15
_symmetry_cell_setting 'monoclinic'
loop_
_space_group_symop_operation_xyz
x,y,z
-x,y,1/2-z
-x,-y,-z
x,-y,1/2+z
1/2+x,1/2+y,z
1/2-x,1/2+y,1/2-z
1/2-x,1/2-y,-z
1/2+x,1/2-y,1/2+z
loop_
_atom_site_type_symbol
_atom_site_label
_atom_site_fract_x
_atom_site_fract_y
_atom_site_fract_z
Si Si1 0.921890 0.434654 0.509813
Si Si2 0.976368 0.632617 0.631888
Si Si3 0.389445 0.260202 0.500157
Si Si4 0.065778 0.911512 0.922630
Si Si5 0.696210 0.571701 0.244565
Si Si6 0.257183 0.022703 0.597002
Si Si7 0.081390 0.328977 0.675675
O O1 0.805575 0.460131 0.542995
O O2 0.000000 0.500000 0.500000
O O3 0.910426 0.399282 0.402440
O O4 0.005655 0.385373 0.595780
O O5 0.959960 0.704985 0.580565
O O6 0.854003 0.584005 0.598205
O O7 0.000000 0.639183 0.750000
O O8 0.250000 0.250000 0.500000
O O9 0.425501 0.335039 0.537509
O O10 0.399998 0.234823 0.390694
O O11 0.152440 0.928810 0.847889
O O12 0.927061 0.920344 0.850174
O O13 0.124496 0.954365 0.025126
O O14 0.757742 0.505588 0.208588
O O15 0.792227 0.633735 0.262715
O O16 0.000000 0.311215 0.750000
#
# Coordination Sequence:
#
# PCOD9287157 Si02
#       7
#     8   8   8   8   8   8   8
#     4   9  19  32  55  91 125 148 185 255 309 352
#     4  10  22  32  59  93 117 152 198 257 305 349
#     4  11  21  42  64  85 125 159 208 254 297 362
#     4  11  24  42  62  91 122 168 206 244 300 371
#     4  11  23  37  66  89 122 167 201 240 307 381
#     4  11  21  37  60  89 129 153 197 252 304 363
#     4  11  21  39  64  94 119 162 205 258 311 354
#
# _framework density 19.089458
#
# number of rings (size 3 to 8) (size 9 to 14) (size 15 to 20)
#    0.000    1.429    4.286    2.143    8.000    0.000 
#    0.000    0.714    9.429    0.000    0.000    0.000 
#    0.000    0.000    0.000    0.000    0.000    0.000 
#
# Total GULP energy -156038.503864 kJ/mol
# GULP energy per Si atom -5572.803709 kJ/mol
# Density = 1.904601 g / cm^3
# Si number density = 19.089458 Si / 1000 Ang^3
#
#
#
# Elastic Constant Matrix: (Units=GPa)
#
#
# Indices 1 2 3 4 5 6 
#
# 1 55.0482 16.5330 27.1901 0.0000 -10.1408 0.0000
# 2 16.5330 91.1445 43.0454 0.0000 -14.6620 0.0000
# 3 27.1901 43.0454 116.6634 0.0000 -21.8920 0.0000
# 4 0.0000 0.0000 0.0000 30.7473 0.0000 -0.4151
# 5 -10.1408 -14.6620 -21.8920 0.0000 30.4686 0.0000
# 6 0.0000 0.0000 0.0000 -0.4151 0.0000 20.0413
#
#
#
# Elastic Compliance Matrix: (Units=1/GPa)
#
#
# Indices 1 2 3 4 5 6 
#
# 1 0.021108 -0.001503 -0.003678 0.000000 0.003659 0.000000
# 2 -0.001503 0.013691 -0.004113 0.000000 0.003132 0.000000
# 3 -0.003678 -0.004113 0.011958 0.000000 0.005388 0.000000
# 4 0.000000 0.000000 0.000000 0.032532 0.000000 0.000674
# 5 0.003659 0.003132 0.005388 0.000000 0.039417 0.000000
# 6 0.000000 0.000000 0.000000 0.000674 0.000000 0.049911
#
#
# Mechanical properties :
#
#
# Convention : Reuss Voigt Hill
#
# Bulk Modulus (GPa) = 35.50223 48.48812 41.99518
# Shear Modulus (GPa) = 25.43289 27.99064 26.71177
#
# Velocity S-wave (km/s) = 3.65403 3.83337 3.74477
# Velocity P-wave (km/s) = 6.03662 6.71182 6.38315
#
# Compressibility (1/GPa) = 0.02816724
#
# Stress axis : x y z
#
# Youngs Moduli (GPa) = 47.37484 73.04181 83.62777
#
# Poissons Ratio (x) = 0.10979 0.30761
# Poissons Ratio (y) = 0.07121 0.34399
# Poissons Ratio (z) = 0.17426 0.30045
#
# Static dielectric constant tensor:
#      x y z
#    x 1.646600 0.000000 -0.008770 
#    y 0.000000 1.584920 0.000000 
#    z -0.008770 0.000000 1.654490 
# 
# From -- ./inp_files/89051.got.cif
#   From: 2010.05.17/outbox.cif.g08.bks.cpg/sg15_45_cif.got.tgz:89051.got - 2010.06.03 18:47:42.
