data_PCOD9287964
_publ_section_title
;
Structure prediction by ZEFSAII (Michael W. Deem and Ramdas Pophale) SiO2 
 PCOD9287964
Probable space group: C 2/C
;
_chemical_formula_sum "Si O2"
_cell_formula_units_Z 48
_cell_length_a 16.727770
_cell_length_b 23.472080
_cell_length_c 10.676901
_cell_angle_alpha 90.000000
_cell_angle_beta 141.569476
_cell_angle_gamma 90.000000
_cell_volume 2605.682718
_symmetry_space_group_name_H-M "C 2/C"
_symmetry_group_IT_number 15
_symmetry_cell_setting 'monoclinic'
loop_
_space_group_symop_operation_xyz
x,y,z
-x,y,1/2-z
-x,-y,-z
x,-y,1/2+z
1/2+x,1/2+y,z
1/2-x,1/2+y,1/2-z
1/2-x,1/2-y,-z
1/2+x,1/2-y,1/2+z
loop_
_atom_site_type_symbol
_atom_site_label
_atom_site_fract_x
_atom_site_fract_y
_atom_site_fract_z
Si Si1 0.699998 0.408373 0.048549
Si Si2 0.401449 0.158373 0.951451
Si Si3 0.136386 0.035904 0.988735
Si Si4 0.188169 0.641504 0.375392
Si Si5 0.102348 0.214096 0.988735
Si Si6 0.062777 0.891504 0.624609
O O1 0.821647 0.375000 0.250000
O O2 0.710972 0.476731 0.066264
O O3 0.659766 0.388680 0.860443
O O4 0.578153 0.396734 0.989513
O O5 0.549323 0.138679 0.139557
O O6 0.338639 0.146734 0.010486
O O7 0.394709 0.226732 0.933737
O O8 0.221767 0.087185 0.038802
O O9 0.101894 0.054468 0.087731
O O10 0.000000 0.030852 0.750000
O O11 0.264163 0.695532 0.412269
O O12 0.000000 0.219148 0.750000
O O13 0.067035 0.162815 0.038802
#
# Coordination Sequence:
#
# PCOD9287964 Si02
#       6
#     8   8   8   8   8   8
#     4  11  23  37  61  90 123 156 199 245 303 355
#     4  11  23  37  61  90 123 156 199 245 303 355
#     4  11  21  39  65  87 119 156 204 251 291 349
#     4  10  22  38  60  94 116 157 202 250 297 347
#     4  11  21  39  65  87 119 156 204 251 291 349
#     4  10  22  38  60  94 116 157 202 250 297 347
#
# _framework density 18.421275999999999
#
# number of rings (size 3 to 8) (size 9 to 14) (size 15 to 20)
#    0.000    1.333    3.333    5.000    4.667    1.333 
#    0.000    3.333    0.000    0.000    0.000    0.000 
#    0.000    0.000    0.000    0.000    0.000    0.000 
#
# Total GULP energy -134096.048622 kJ/mol
# GULP energy per Si atom -5587.335359 kJ/mol
# Density = 1.837935 g / cm^3
# Si number density = 18.421276 Si / 1000 Ang^3
#
#
#
# Elastic Constant Matrix: (Units=GPa)
#
#
# Indices 1 2 3 4 5 6 
#
# 1 37.0699 0.9885 -4.5672 0.0000 0.3884 0.0000
# 2 0.9885 123.3174 33.0846 0.0000 -3.4389 0.0000
# 3 -4.5672 33.0846 74.7257 0.0000 -4.4229 0.0000
# 4 0.0000 0.0000 0.0000 126.7548 0.0000 -11.6792
# 5 0.3884 -3.4389 -4.4229 0.0000 19.5228 0.0000
# 6 0.0000 0.0000 0.0000 -11.6792 0.0000 17.4223
#
#
#
# Elastic Compliance Matrix: (Units=1/GPa)
#
#
# Indices 1 2 3 4 5 6 
#
# 1 0.027243 -0.000758 0.001987 0.000000 -0.000225 0.000000
# 2 -0.000758 0.009233 -0.004092 0.000000 0.000714 0.000000
# 3 0.001987 -0.004092 0.015478 0.000000 0.002746 0.000000
# 4 0.000000 0.000000 0.000000 0.008409 0.000000 0.005637
# 5 -0.000225 0.000714 0.002746 0.000000 0.051975 0.000000
# 6 0.000000 0.000000 0.000000 0.005637 0.000000 0.061177
#
#
# Mechanical properties :
#
#
# Convention : Reuss Voigt Hill
#
# Bulk Modulus (GPa) = 21.63123 32.68055 27.15589
# Shear Modulus (GPa) = 25.68728 46.44711 36.06720
#
# Velocity S-wave (km/s) = 3.73827 5.02679 4.42963
# Velocity P-wave (km/s) = 5.51370 7.17430 6.39810
#
# Compressibility (1/GPa) = 0.04622947
#
# Stress axis : x y z
#
# Youngs Moduli (GPa) = 36.70608 108.30757 64.60800
#
# Poissons Ratio (x) = 0.08208 -0.12839
# Poissons Ratio (y) = 0.02782 0.26437
# Poissons Ratio (z) = -0.07295 0.44318
#
# Static dielectric constant tensor:
#      x y z
#    x 1.624370 0.000000 0.000790 
#    y 0.000000 1.640190 0.000000 
#    z 0.000790 0.000000 1.616990 
# 
# From -- ./inp_files/108147.got.cif
#   From: 2010.05.17/outbox.cif.g08.bks.cpg/sg15_55_cif.got.tgz:108147.got - 2010.06.03 18:47:42.
