data_PCOD9287126
_publ_section_title
;
Structure prediction by ZEFSAII (Michael W. Deem and Ramdas Pophale) SiO2 
 PCOD9287126
Probable space group: C 2/C
;
_chemical_formula_sum "Si O2"
_cell_formula_units_Z 52
_cell_length_a 15.791815
_cell_length_b 6.383554
_cell_length_c 23.654724
_cell_angle_alpha 90.000000
_cell_angle_beta 64.060111
_cell_angle_gamma 90.000000
_cell_volume 2144.344646
_symmetry_space_group_name_H-M "C 2/C"
_symmetry_group_IT_number 15
_symmetry_cell_setting 'monoclinic'
loop_
_space_group_symop_operation_xyz
x,y,z
-x,y,1/2-z
-x,-y,-z
x,-y,1/2+z
1/2+x,1/2+y,z
1/2-x,1/2+y,1/2-z
1/2-x,1/2-y,-z
1/2+x,1/2-y,1/2+z
loop_
_atom_site_type_symbol
_atom_site_label
_atom_site_fract_x
_atom_site_fract_y
_atom_site_fract_z
Si Si1 0.000000 0.420045 0.250000
Si Si2 0.765416 0.004434 0.936430
Si Si3 0.715546 0.799864 0.342887
Si Si4 0.944200 0.003956 0.601859
Si Si5 0.590410 0.185151 0.614238
Si Si6 0.861893 0.664082 0.208553
Si Si7 0.097532 0.298694 0.536876
O O1 0.062163 0.292207 0.187612
O O2 0.068082 0.558692 0.267945
O O3 0.784988 0.115091 0.870659
O O4 0.827735 0.123861 0.964889
O O5 0.803453 0.769073 0.924107
O O6 0.655145 0.046306 0.979074
O O7 0.647068 0.625654 0.390851
O O8 0.769110 0.712011 0.272447
O O9 0.659095 0.999115 0.335253
O O10 0.906216 0.131662 0.667193
O O11 0.002552 0.175173 0.548182
O O12 0.019612 0.831934 0.599987
O O13 0.578419 0.950024 0.595774
#
# Coordination Sequence:
#
# PCOD9287126 Si02
#       7
#     4   8   8   8   8   8   8
#     4  12  24  40  68  96 128 178 220 272 332 416
#     4  10  25  40  73  96 135 176 227 275 335 395
#     4  12  25  43  64 102 132 180 215 284 341 401
#     4  11  23  43  65  91 138 172 216 274 335 394
#     4  11  23  40  67  99 130 176 221 277 334 399
#     4  12  26  42  62  97 139 166 223 270 339 401
#     4  10  21  48  66 101 131 177 229 276 323 411
#
# _framework density 24.249832000000001
#
# number of rings (size 3 to 8) (size 9 to 14) (size 15 to 20)
#    0.000    0.923    4.615    1.385    6.462    1.846 
#    0.000    3.077    0.000    0.000    0.000    0.000 
#    0.000    0.000    0.000    0.000    0.000    0.000 
#
# Total GULP energy -145390.496385 kJ/mol
# GULP energy per Si atom -5591.942169 kJ/mol
# Density = 2.419464 g / cm^3
# Si number density = 24.249832 Si / 1000 Ang^3
#
#
#
# Elastic Constant Matrix: (Units=GPa)
#
#
# Indices 1 2 3 4 5 6 
#
# 1 53.0887 23.1362 1.3234 -0.0031 -2.9177 -0.0018
# 2 23.1362 55.3806 12.2684 -0.0041 -10.6956 -0.0025
# 3 1.3234 12.2684 69.6908 -0.0040 -23.2768 -0.0026
# 4 -0.0031 -0.0041 -0.0040 285.7818 0.0008 151.6545
# 5 -2.9177 -10.6956 -23.2768 0.0008 36.2681 0.0005
# 6 -0.0018 -0.0025 -0.0026 151.6545 0.0005 146.0424
#
#
#
# Elastic Compliance Matrix: (Units=1/GPa)
#
#
# Indices 1 2 3 4 5 6 
#
# 1 0.023147 -0.009999 0.001219 0.000000 -0.000304 0.000000
# 2 -0.009999 0.023664 -0.002436 0.000000 0.004611 0.000000
# 3 0.001219 -0.002436 0.018517 0.000000 0.011264 0.000000
# 4 0.000000 0.000000 0.000000 0.007794 0.000000 -0.008094
# 5 -0.000304 0.004611 0.011264 0.000000 0.036137 0.000000
# 6 0.000000 0.000000 0.000000 -0.008094 0.000000 0.015252
#
#
# Mechanical properties :
#
#
# Convention : Reuss Voigt Hill
#
# Bulk Modulus (GPa) = 23.31191 27.95736 25.63463
# Shear Modulus (GPa) = 31.00944 103.04726 67.02835
#
# Velocity S-wave (km/s) = 3.57984 6.52581 5.26315
# Velocity P-wave (km/s) = 5.16924 8.26653 6.89408
#
# Compressibility (1/GPa) = 0.04289654
#
# Stress axis : x y z
#
# Youngs Moduli (GPa) = 43.20257 42.25802 54.00473
#
# Poissons Ratio (x) = 0.42253 -0.06583
# Poissons Ratio (y) = 0.43197 0.13155
# Poissons Ratio (z) = -0.05267 0.10294
#
# Static dielectric constant tensor:
#      x y z
#    x 2.493850 0.000000 -0.525580 
#    y 0.000000 1.913570 0.000000 
#    z -0.525580 0.000000 2.385530 
# 
# From -- ./inp_files/297674.got.cif
#   From: 2010.05.17/outbox.cif.g08.bks.cpg/sg15_149_cif.got.tgz:297674.got - 2010.06.03 18:47:42.
