data_PCOD9287290
_publ_section_title
;
Structure prediction by ZEFSAII (Michael W. Deem and Ramdas Pophale) SiO2 
 PCOD9287290
Probable space group: C 2/C
;
_chemical_formula_sum "Si O2"
_cell_formula_units_Z 60
_cell_length_a 24.160642
_cell_length_b 6.526408
_cell_length_c 18.137881
_cell_angle_alpha 90.000000
_cell_angle_beta 117.725645
_cell_angle_gamma 90.000000
_cell_volume 2531.649156
_symmetry_space_group_name_H-M "C 2/C"
_symmetry_group_IT_number 15
_symmetry_cell_setting 'monoclinic'
loop_
_space_group_symop_operation_xyz
x,y,z
-x,y,1/2-z
-x,-y,-z
x,-y,1/2+z
1/2+x,1/2+y,z
1/2-x,1/2+y,1/2-z
1/2-x,1/2-y,-z
1/2+x,1/2-y,1/2+z
loop_
_atom_site_type_symbol
_atom_site_label
_atom_site_fract_x
_atom_site_fract_y
_atom_site_fract_z
Si Si1 0.943629 0.089058 0.829838
Si Si2 0.390673 0.012341 0.222986
Si Si3 0.299658 0.437918 0.534098
Si Si4 0.500000 0.709531 0.250000
Si Si5 0.369483 0.062941 0.558676
Si Si6 0.854912 0.768828 0.835464
Si Si7 0.962107 0.331966 0.520335
Si Si8 0.728774 0.813871 0.092542
O O1 0.923754 0.281558 0.768089
O O2 0.987353 0.167409 0.922648
O O3 0.879453 0.978449 0.814484
O O4 0.987439 0.935182 0.811549
O O5 0.441006 0.857584 0.219017
O O6 0.347538 0.027886 0.124183
O O7 0.361376 0.903707 0.276204
O O8 0.250000 0.250000 0.500000
O O9 0.363004 0.310001 0.558823
O O10 0.286545 0.611814 0.465474
O O11 0.290782 0.561340 0.605632
O O12 0.432543 0.949307 0.572448
O O13 0.322493 0.981025 0.466485
O O14 0.788196 0.747429 0.834662
O O15 0.907419 0.742124 0.932173
O O16 0.000000 0.500000 0.500000
#
# Coordination Sequence:
#
# PCOD9287290 Si02
#       8
#     8   8   8   4   8   8   8   8
#     4  11  22  36  55  79 126 170 203 247 293 349
#     4  11  22  38  55  85 123 160 205 238 293 365
#     4   9  19  38  66  87 110 145 191 251 310 361
#     4  10  22  36  54  80 116 172 204 238 278 346
#     4  10  22  35  61  86 118 159 197 250 299 362
#     4  10  23  36  58  88 118 160 204 252 310 356
#     4  11  21  36  55  87 125 163 208 255 290 354
#     4   9  20  39  62  92 112 143 202 254 309 368
#
# _framework density 23.699964999999999
#
# number of rings (size 3 to 8) (size 9 to 14) (size 15 to 20)
#    0.000    1.867    1.333    2.400    3.733    5.333 
#    0.000    0.000    8.800    0.000    0.000    0.000 
#    0.000    0.000    0.000    0.000    0.000    0.000 
#
# Total GULP energy -167405.782673 kJ/mol
# GULP energy per Si atom -5580.192756 kJ/mol
# Density = 2.364602 g / cm^3
# Si number density = 23.699965 Si / 1000 Ang^3
#
#
#
# Elastic Constant Matrix: (Units=GPa)
#
#
# Indices 1 2 3 4 5 6 
#
# 1 52.7042 37.0725 14.6644 0.0000 -24.7723 0.0000
# 2 37.0725 129.6209 19.1184 0.0000 -21.1302 0.0001
# 3 14.6644 19.1184 77.9330 0.0000 -25.0651 0.0000
# 4 0.0000 0.0000 0.0000 35.5332 0.0000 -8.0973
# 5 -24.7723 -21.1302 -25.0651 0.0000 36.2794 0.0000
# 6 0.0000 0.0001 0.0000 -8.0973 0.0000 21.9778
#
#
#
# Elastic Compliance Matrix: (Units=1/GPa)
#
#
# Indices 1 2 3 4 5 6 
#
# 1 0.032015 -0.006247 0.001760 0.000000 0.019438 0.000000
# 2 -0.006247 0.009768 -0.000981 0.000000 0.000746 0.000000
# 3 0.001760 -0.000981 0.016642 0.000000 0.012128 0.000000
# 4 0.000000 0.000000 0.000000 0.030722 0.000000 0.011319
# 5 0.019438 0.000746 0.012128 0.000000 0.049650 0.000000
# 6 0.000000 0.000000 0.000000 0.011319 0.000000 0.049671
#
#
# Mechanical properties :
#
#
# Convention : Reuss Voigt Hill
#
# Bulk Modulus (GPa) = 21.05805 44.66319 32.86062
# Shear Modulus (GPa) = 23.23071 31.38494 27.30783
#
# Velocity S-wave (km/s) = 3.13421 3.64299 3.39813
# Velocity P-wave (km/s) = 4.69066 6.04825 5.41219
#
# Compressibility (1/GPa) = 0.04748777
#
# Stress axis : x y z
#
# Youngs Moduli (GPa) = 31.23565 102.37703 60.09018
#
# Poissons Ratio (x) = 0.63959 -0.10576
# Poissons Ratio (y) = 0.19514 0.05894
# Poissons Ratio (z) = -0.05498 0.10042
#
# Static dielectric constant tensor:
#      x y z
#    x 2.035360 0.000000 0.061960 
#    y 0.000000 1.892210 0.000000 
#    z 0.061960 0.000000 2.002330 
# 
# From -- ./inp_files/223667.got.cif
#   From: 2010.05.17/outbox.cif.g08.bks.cpg/sg15_112_cif.got.tgz:223667.got - 2010.06.03 18:47:42.
