data_PCOD9287137
_publ_section_title
;
Structure prediction by ZEFSAII (Michael W. Deem and Ramdas Pophale) SiO2 
 PCOD9287137
Probable space group: C 2/C
;
_chemical_formula_sum "Si O2"
_cell_formula_units_Z 56
_cell_length_a 27.988490
_cell_length_b 7.392931
_cell_length_c 14.208431
_cell_angle_alpha 90.000000
_cell_angle_beta 138.300421
_cell_angle_gamma 90.000000
_cell_volume 1955.738208
_symmetry_space_group_name_H-M "C 2/C"
_symmetry_group_IT_number 15
_symmetry_cell_setting 'monoclinic'
loop_
_space_group_symop_operation_xyz
x,y,z
-x,y,1/2-z
-x,-y,-z
x,-y,1/2+z
1/2+x,1/2+y,z
1/2-x,1/2+y,1/2-z
1/2-x,1/2-y,-z
1/2+x,1/2-y,1/2+z
loop_
_atom_site_type_symbol
_atom_site_label
_atom_site_fract_x
_atom_site_fract_y
_atom_site_fract_z
Si Si1 0.383065 0.634987 0.009691
Si Si2 0.622518 0.902449 0.760075
Si Si3 0.270248 0.563114 0.954898
Si Si4 0.527549 0.377853 0.667039
Si Si5 0.807296 0.965280 0.217754
Si Si6 0.842148 0.684404 0.981878
Si Si7 0.467646 0.229888 0.018619
O O1 0.308828 0.707198 0.943445
O O2 0.357354 0.508330 0.883532
O O3 0.424183 0.598401 0.170305
O O4 0.452580 0.732684 0.068094
O O5 0.685619 0.036550 0.818202
O O6 0.655111 0.713408 0.770412
O O7 0.627126 0.907088 0.879170
O O8 0.538246 0.896687 0.616064
O O9 0.289759 0.574275 0.094769
O O10 0.311209 0.379696 0.975488
O O11 0.562739 0.286673 0.628592
O O12 0.502398 0.581706 0.608171
O O13 0.731048 0.914603 0.151677
O O14 0.905525 0.671871 0.999078
#
# Coordination Sequence:
#
# PCOD9287137 Si02
#       7
#     8   8   8   8   8   8   8
#     4  11  19  32  45  66 102 129 155 187 238 289
#     4   9  17  29  46  69  95 122 156 195 234 275
#     4   9  18  30  46  68  93 127 160 191 231 279
#     4  10  22  27  44  74 100 127 148 185 249 296
#     4   9  18  32  45  66  95 127 161 196 226 277
#     4   9  17  28  48  69  94 125 155 191 239 275
#     4  11  18  31  47  73 102 120 152 198 238 287
#
# _framework density 28.633690999999999
#
# number of rings (size 3 to 8) (size 9 to 14) (size 15 to 20)
#    0.000    2.286    2.857    3.857    4.000    0.000 
#    0.000    0.714    0.000    0.857    0.000    0.000 
#    0.000    0.000    0.000    0.000    0.000    0.571 
#
# Total GULP energy -156200.697161 kJ/mol
# GULP energy per Si atom -5578.596327 kJ/mol
# Density = 2.856852 g / cm^3
# Si number density = 28.633691 Si / 1000 Ang^3
#
#
#
# Elastic Constant Matrix: (Units=GPa)
#
#
# Indices 1 2 3 4 5 6 
#
# 1 289.5662 33.2593 113.6396 0.0000 38.8840 0.0000
# 2 33.2593 74.2045 34.4333 0.0000 12.8371 0.0000
# 3 113.6396 34.4333 215.5619 0.0000 -3.8951 0.0000
# 4 0.0000 0.0000 0.0000 13.8856 0.0000 7.7932
# 5 38.8840 12.8371 -3.8951 0.0000 68.3101 0.0000
# 6 0.0000 0.0000 0.0000 7.7932 0.0000 21.1764
#
#
#
# Elastic Compliance Matrix: (Units=1/GPa)
#
#
# Indices 1 2 3 4 5 6 
#
# 1 0.004894 -0.000521 -0.002548 0.000000 -0.002833 0.000000
# 2 -0.000521 0.015196 -0.002201 0.000000 -0.002685 0.000000
# 3 -0.002548 -0.002201 0.006374 0.000000 0.002227 0.000000
# 4 0.000000 0.000000 0.000000 0.090764 0.000000 -0.033403
# 5 -0.002833 -0.002685 0.002227 0.000000 0.016883 0.000000
# 6 0.000000 0.000000 0.000000 -0.033403 0.000000 0.059515
#
#
# Mechanical properties :
#
#
# Convention : Reuss Voigt Hill
#
# Bulk Modulus (GPa) = 62.80082 104.66635 83.73358
# Shear Modulus (GPa) = 23.86939 47.20778 35.53858
#
# Velocity S-wave (km/s) = 2.89037 4.06480 3.52681
# Velocity P-wave (km/s) = 5.75492 7.65918 6.77429
#
# Compressibility (1/GPa) = 0.01592336
#
# Stress axis : x y z
#
# Youngs Moduli (GPa) = 204.35047 65.80840 156.88726
#
# Poissons Ratio (x) = 0.03429 0.39971
# Poissons Ratio (y) = 0.10647 0.34533
# Poissons Ratio (z) = 0.52063 0.14485
#
# Static dielectric constant tensor:
#      x y z
#    x 2.298200 0.000000 0.048420 
#    y 0.000000 2.576790 0.000000 
#    z 0.048420 0.000000 2.143740 
# 
# From -- ./inp_files/177619.got.cif
#   From: 2010.05.17/outbox.cif.g08.bks.cpg/sg15_89_cif.got.tgz:177619.got - 2010.06.03 18:47:42.
