data_PCOD9287505
_publ_section_title
;
Structure prediction by ZEFSAII (Michael W. Deem and Ramdas Pophale) SiO2 
 PCOD9287505
Probable space group: C 2/C
;
_chemical_formula_sum "Si O2"
_cell_formula_units_Z 36
_cell_length_a 5.184424
_cell_length_b 16.170274
_cell_length_c 17.518819
_cell_angle_alpha 90.000000
_cell_angle_beta 89.874485
_cell_angle_gamma 90.000000
_cell_volume 1468.661380
_symmetry_space_group_name_H-M "C 2/C"
_symmetry_group_IT_number 15
_symmetry_cell_setting 'monoclinic'
loop_
_space_group_symop_operation_xyz
x,y,z
-x,y,1/2-z
-x,-y,-z
x,-y,1/2+z
1/2+x,1/2+y,z
1/2-x,1/2+y,1/2-z
1/2-x,1/2-y,-z
1/2+x,1/2-y,1/2+z
loop_
_atom_site_type_symbol
_atom_site_label
_atom_site_fract_x
_atom_site_fract_y
_atom_site_fract_z
Si Si1 0.474331 0.279589 0.838296
Si Si2 0.500000 0.415582 0.250000
Si Si3 0.540551 0.699705 0.604513
Si Si4 0.750711 0.962647 0.458998
Si Si5 0.209985 0.553958 0.299216
O O1 0.500000 0.244603 0.750000
O O2 0.746952 0.268788 0.879017
O O3 0.402553 0.374644 0.826298
O O4 0.248900 0.237942 0.891344
O O5 0.468550 0.358167 0.321250
O O6 0.277893 0.483269 0.236327
O O7 0.671963 0.635204 0.544767
O O8 0.500000 0.000000 0.500000
O O9 0.696563 0.997872 0.374211
O O10 0.000000 0.000000 0.500000
O O11 0.000000 0.603570 0.250000
#
# Coordination Sequence:
#
# PCOD9287505 Si02
#       5
#     8   4   8   8   8
#     4  12  22  41  64 108 144 175 225 296 361 416
#     4  10  22  36  66 100 136 174 232 284 350 400
#     4  11  24  40  68  98 138 182 231 283 350 420
#     4  11  27  49  71 101 144 192 245 293 354 426
#     4  11  26  42  73 105 144 184 239 298 361 423
#
# _framework density 24.512115999999999
#
# number of rings (size 3 to 8) (size 9 to 14) (size 15 to 20)
#    0.000    0.889    3.333    2.667   12.444    0.000 
#    0.000    6.667    0.000    0.000    0.000    0.000 
#    0.000    0.000    0.000    0.000    0.000    0.000 
#
# Total GULP energy -100230.111976 kJ/mol
# GULP energy per Si atom -5568.339554 kJ/mol
# Density = 2.445633 g / cm^3
# Si number density = 24.512116 Si / 1000 Ang^3
#
#
#
# Elastic Constant Matrix: (Units=GPa)
#
#
# Indices 1 2 3 4 5 6 
#
# 1 141.5021 11.3656 27.2401 0.0000 -8.5004 0.0000
# 2 11.3656 86.2980 19.7557 0.0000 -13.0377 0.0000
# 3 27.2401 19.7557 66.4458 0.0000 1.8323 0.0000
# 4 0.0000 0.0000 0.0000 38.1565 0.0000 -3.6510
# 5 -8.5004 -13.0377 1.8323 0.0000 35.3249 0.0000
# 6 0.0000 0.0000 0.0000 -3.6510 0.0000 17.5439
#
#
#
# Elastic Compliance Matrix: (Units=1/GPa)
#
#
# Indices 1 2 3 4 5 6 
#
# 1 0.007818 0.000031 -0.003271 0.000000 0.002062 0.000000
# 2 0.000031 0.013299 -0.004108 0.000000 0.005129 0.000000
# 3 -0.003271 -0.004108 0.017701 0.000000 -0.003222 0.000000
# 4 0.000000 0.000000 0.000000 0.026740 0.000000 0.005565
# 5 0.002062 0.005129 -0.003222 0.000000 0.030865 0.000000
# 6 0.000000 0.000000 0.000000 0.005565 0.000000 0.058158
#
#
# Mechanical properties :
#
#
# Convention : Reuss Voigt Hill
#
# Bulk Modulus (GPa) = 41.45709 45.66319 43.56014
# Shear Modulus (GPa) = 28.19773 33.93068 31.06421
#
# Velocity S-wave (km/s) = 3.39537 3.72458 3.56378
# Velocity P-wave (km/s) = 5.68516 6.09638 5.89436
#
# Compressibility (1/GPa) = 0.02412133
#
# Stress axis : x y z
#
# Youngs Moduli (GPa) = 127.90715 75.19356 56.49347
#
# Poissons Ratio (x) = -0.00231 0.18480
# Poissons Ratio (y) = -0.00393 0.23208
# Poissons Ratio (z) = 0.41840 0.30890
#
# Static dielectric constant tensor:
#      x y z
#    x 3.200590 0.000000 -0.182400 
#    y 0.000000 1.920780 0.000000 
#    z -0.182400 0.000000 2.034260 
# 
# From -- ./inp_files/226511.got.cif
#   From: 2010.05.17/outbox.cif.g08.bks.cpg/sg15_114_cif.got.tgz:226511.got - 2010.06.03 18:47:42.
