data_PCOD9287600
_publ_section_title
;
Structure prediction by ZEFSAII (Michael W. Deem and Ramdas Pophale) SiO2 
 PCOD9287600
Probable space group: C 2/C
;
_chemical_formula_sum "Si O2"
_cell_formula_units_Z 56
_cell_length_a 20.103834
_cell_length_b 15.236727
_cell_length_c 23.277390
_cell_angle_alpha 90.000000
_cell_angle_beta 156.791994
_cell_angle_gamma 90.000000
_cell_volume 2809.820681
_symmetry_space_group_name_H-M "C 2/C"
_symmetry_group_IT_number 15
_symmetry_cell_setting 'monoclinic'
loop_
_space_group_symop_operation_xyz
x,y,z
-x,y,1/2-z
-x,-y,-z
x,-y,1/2+z
1/2+x,1/2+y,z
1/2-x,1/2+y,1/2-z
1/2-x,1/2-y,-z
1/2+x,1/2-y,1/2+z
loop_
_atom_site_type_symbol
_atom_site_label
_atom_site_fract_x
_atom_site_fract_y
_atom_site_fract_z
Si Si1 0.990298 0.829456 0.311998
Si Si2 0.669989 0.694913 0.648903
Si Si3 0.944433 0.157060 0.365699
Si Si4 0.629667 0.219996 0.519069
Si Si5 0.422572 0.531289 0.251015
Si Si6 0.455305 0.982385 0.533063
Si Si7 0.312999 0.493421 0.324212
O O1 0.000000 0.825145 0.250000
O O2 0.124940 0.776740 0.456735
O O3 0.978154 0.933483 0.316920
O O4 0.818735 0.778558 0.192542
O O5 0.834030 0.755071 0.776473
O O6 0.606305 0.668692 0.534781
O O7 0.507790 0.741162 0.547273
O O8 0.693778 0.605834 0.704195
O O9 0.990411 0.111519 0.342617
O O10 0.820580 0.081691 0.293238
O O11 0.587506 0.117164 0.483081
O O12 0.500000 0.538113 0.250000
O O13 0.217669 0.533198 0.089713
O O14 0.626850 0.003831 0.704310
O O15 0.500000 0.000000 0.500000
O O16 0.500000 0.500000 0.500000
#
# Coordination Sequence:
#
# PCOD9287600 Si02
#       7
#     8   8   8   8   8   8   8
#     4  10  22  38  58  84 119 163 201 243 304 374
#     4  11  23  34  63  91 122 154 197 260 316 359
#     4  11  22  40  58  92 122 156 201 256 314 368
#     4  11  21  34  58  89 118 152 200 250 303 365
#     4  10  22  41  64  85 121 167 206 250 311 380
#     4  11  21  37  63  89 118 160 207 252 311 366
#     4  10  22  37  58  91 129 152 197 258 314 360
#
# _framework density 19.930097
#
# number of rings (size 3 to 8) (size 9 to 14) (size 15 to 20)
#    0.000    1.429    2.857    2.143    8.000    0.000 
#    0.000    0.714    0.000    0.000    0.000    0.000 
#    0.000    0.000    0.000    0.000    0.000    0.000 
#
# Total GULP energy -155910.070163 kJ/mol
# GULP energy per Si atom -5568.216792 kJ/mol
# Density = 1.988474 g / cm^3
# Si number density = 19.930097 Si / 1000 Ang^3
#
#
#
# Elastic Constant Matrix: (Units=GPa)
#
#
# Indices 1 2 3 4 5 6 
#
# 1 82.6930 10.0444 17.5495 0.0024 -6.7467 0.0012
# 2 10.0444 74.9821 20.0978 0.0076 -19.5186 0.0065
# 3 17.5495 20.0978 82.3243 0.0055 1.9364 0.0037
# 4 0.0024 0.0076 0.0055 33.1436 0.0038 -0.4974
# 5 -6.7467 -19.5186 1.9364 0.0038 23.3177 0.0026
# 6 0.0012 0.0065 0.0037 -0.4974 0.0026 27.4075
#
#
#
# Elastic Compliance Matrix: (Units=1/GPa)
#
#
# Indices 1 2 3 4 5 6 
#
# 1 0.013030 0.000096 -0.002897 -0.000001 0.004091 -0.000001
# 2 0.000096 0.018903 -0.005018 -0.000005 0.016268 -0.000005
# 3 -0.002897 -0.005018 0.014136 0.000000 -0.006213 0.000000
# 4 -0.000001 -0.000005 0.000000 0.030180 -0.000010 0.000548
# 5 0.004091 0.016268 -0.006213 -0.000010 0.058203 -0.000009
# 6 -0.000001 -0.000005 0.000000 0.000548 -0.000009 0.036496
#
#
# Mechanical properties :
#
#
# Convention : Reuss Voigt Hill
#
# Bulk Modulus (GPa) = 32.86158 37.26475 35.06317
# Shear Modulus (GPa) = 25.41548 29.59428 27.50488
#
# Velocity S-wave (km/s) = 3.57491 3.85763 3.71896
# Velocity P-wave (km/s) = 5.79346 6.21128 6.00601
#
# Compressibility (1/GPa) = 0.03043067
#
# Stress axis : x y z
#
# Youngs Moduli (GPa) = 76.74641 52.90068 70.74193
#
# Poissons Ratio (x) = -0.00508 0.20496
# Poissons Ratio (y) = -0.00737 0.35498
# Poissons Ratio (z) = 0.22236 0.26546
#
# Static dielectric constant tensor:
#      x y z
#    x 1.780980 0.000000 -0.026270 
#    y 0.000000 1.738630 0.000000 
#    z -0.026270 0.000000 1.766770 
# 
# From -- ./inp_files/249302.got.cif
#   From: 2010.05.17/outbox.cif.g08.bks.cpg/sg15_125_cif.got.tgz:249302.got - 2010.06.03 18:47:42.
