data_PCOD9287557
_publ_section_title
;
Structure prediction by ZEFSAII (Michael W. Deem and Ramdas Pophale) SiO2 
 PCOD9287557
Probable space group: C 2/C
;
_chemical_formula_sum "Si O2"
_cell_formula_units_Z 48
_cell_length_a 14.311481
_cell_length_b 34.109315
_cell_length_c 5.487181
_cell_angle_alpha 90.000000
_cell_angle_beta 56.084586
_cell_angle_gamma 90.000000
_cell_volume 2222.863779
_symmetry_space_group_name_H-M "C 2/C"
_symmetry_group_IT_number 15
_symmetry_cell_setting 'monoclinic'
loop_
_space_group_symop_operation_xyz
x,y,z
-x,y,1/2-z
-x,-y,-z
x,-y,1/2+z
1/2+x,1/2+y,z
1/2-x,1/2+y,1/2-z
1/2-x,1/2-y,-z
1/2+x,1/2-y,1/2+z
loop_
_atom_site_type_symbol
_atom_site_label
_atom_site_fract_x
_atom_site_fract_y
_atom_site_fract_z
Si Si1 0.756888 0.405545 0.415405
Si Si2 0.873958 0.896469 0.378874
Si Si3 0.877560 0.666388 0.893295
Si Si4 0.128436 0.484145 0.296520
Si Si5 0.797592 0.187854 0.981489
Si Si6 0.620694 0.235335 0.939986
O O1 0.678950 0.413245 0.293627
O O2 0.809285 0.361997 0.314139
O O3 0.854933 0.438022 0.266959
O O4 0.695427 0.405370 0.769640
O O5 0.875758 0.849268 0.318812
O O6 0.000000 0.909774 0.250000
O O7 0.888761 0.711289 0.793652
O O8 0.000000 0.649252 0.750000
O O9 0.809970 0.667710 0.238810
O O10 0.180295 0.495970 0.480881
O O11 0.000000 0.500000 0.500000
O O12 0.736907 0.215744 0.873708
O O13 0.858906 0.218302 0.075662
O O14 0.500000 0.227681 0.250000
#
# Coordination Sequence:
#
# PCOD9287557 Si02
#       6
#     8   8   8   8   8   8
#     4  11  24  42  69  99 137 168 215 277 320 401
#     4  11  23  44  67  98 128 180 229 273 328 376
#     4  11  22  37  57  89 126 167 213 268 343 389
#     4  10  22  42  66 102 138 172 209 249 332 409
#     4  10  22  37  56  82 123 168 219 276 318 391
#     4  11  20  37  55  81 121 164 220 272 332 385
#
# _framework density 21.593765000000001
#
# number of rings (size 3 to 8) (size 9 to 14) (size 15 to 20)
#    0.000    1.333    3.333    2.500    2.333    0.000 
#    6.000    0.000    0.000   10.000    0.000    0.000 
#    0.000    0.000    0.000    0.000    0.000    0.000 
#
# Total GULP energy -133648.413169 kJ/mol
# GULP energy per Si atom -5568.683882 kJ/mol
# Density = 2.154462 g / cm^3
# Si number density = 21.593765 Si / 1000 Ang^3
#
#
#
# Elastic Constant Matrix: (Units=GPa)
#
#
# Indices 1 2 3 4 5 6 
#
# 1 85.5675 -2.6558 27.5542 0.0000 7.0920 0.0000
# 2 -2.6558 83.6329 6.0150 0.0000 1.7437 0.0000
# 3 27.5542 6.0150 74.9097 0.0000 17.6170 0.0000
# 4 0.0000 0.0000 0.0000 19.3463 0.0000 7.0699
# 5 7.0920 1.7437 17.6170 0.0000 34.6583 0.0000
# 6 0.0000 0.0000 0.0000 7.0699 0.0000 8.3263
#
#
#
# Elastic Compliance Matrix: (Units=1/GPa)
#
#
# Indices 1 2 3 4 5 6 
#
# 1 0.013310 0.000780 -0.004894 0.000000 -0.000275 0.000000
# 2 0.000780 0.012073 -0.001222 0.000000 -0.000146 0.000000
# 3 -0.004894 -0.001222 0.017034 0.000000 -0.007596 0.000000
# 4 0.000000 0.000000 0.000000 0.074944 0.000000 -0.063635
# 5 -0.000275 -0.000146 -0.007596 0.000000 0.032778 0.000000
# 6 0.000000 0.000000 0.000000 -0.063635 0.000000 0.174133
#
#
# Mechanical properties :
#
#
# Convention : Reuss Voigt Hill
#
# Bulk Modulus (GPa) = 31.50066 33.99300 32.74683
# Shear Modulus (GPa) = 14.47080 26.67931 20.57505
#
# Velocity S-wave (km/s) = 2.59151 3.51880 3.09013
# Velocity P-wave (km/s) = 4.85532 5.68203 5.28486
#
# Compressibility (1/GPa) = 0.03174537
#
# Stress axis : x y z
#
# Youngs Moduli (GPa) = 75.13407 82.83124 58.70658
#
# Poissons Ratio (x) = -0.06464 0.28729
# Poissons Ratio (y) = -0.05863 0.07175
# Poissons Ratio (z) = 0.36768 0.10123
#
# Static dielectric constant tensor:
#      x y z
#    x 1.857920 0.000000 0.015400 
#    y 0.000000 1.852550 0.000000 
#    z 0.015400 0.000000 1.812130 
# 
# From -- ./inp_files/8942.got.cif
#   From: 2010.05.17/outbox.cif.g08.bks.cpg/sg15_5_cif.got.tgz:8942.got - 2010.06.03 18:47:42.
