data_PCOD9287373
_publ_section_title
;
Structure prediction by ZEFSAII (Michael W. Deem and Ramdas Pophale) SiO2 
 PCOD9287373
Probable space group: C 2/C
;
_chemical_formula_sum "Si O2"
_cell_formula_units_Z 40
_cell_length_a 11.281609
_cell_length_b 32.143505
_cell_length_c 5.254139
_cell_angle_alpha 90.000000
_cell_angle_beta 70.645804
_cell_angle_gamma 90.000000
_cell_volume 1797.637695
_symmetry_space_group_name_H-M "C 2/C"
_symmetry_group_IT_number 15
_symmetry_cell_setting 'monoclinic'
loop_
_space_group_symop_operation_xyz
x,y,z
-x,y,1/2-z
-x,-y,-z
x,-y,1/2+z
1/2+x,1/2+y,z
1/2-x,1/2+y,1/2-z
1/2-x,1/2-y,-z
1/2+x,1/2-y,1/2+z
loop_
_atom_site_type_symbol
_atom_site_label
_atom_site_fract_x
_atom_site_fract_y
_atom_site_fract_z
Si Si1 0.412014 0.781708 0.565286
Si Si2 0.858390 0.018147 0.587230
Si Si3 0.914231 0.191269 0.560774
Si Si4 0.763705 0.893358 0.198766
Si Si5 0.865479 0.626754 0.202550
O O1 0.500000 0.778762 0.750000
O O2 0.346814 0.736426 0.607768
O O3 0.337002 0.824109 0.672036
O O4 0.500000 0.787174 0.250000
O O5 0.853919 0.067687 0.582525
O O6 0.794935 0.998516 0.386780
O O7 0.000000 0.000000 0.500000
O O8 0.829194 0.150930 0.619547
O O9 0.000000 0.191052 0.250000
O O10 0.000000 0.188672 0.750000
O O11 0.722659 0.893739 0.522091
O O12 0.654765 0.894037 0.059382
O O13 0.000000 0.625467 0.250000
#
# Coordination Sequence:
#
# PCOD9287373 Si02
#       5
#     8   8   8   8   8
#     4   9  18  36  57  85 126 177 210 256 323 345
#     4  10  23  41  65  93 127 162 188 255 327 405
#     4  10  22  36  58  91 136 166 207 270 311 387
#     4  12  24  38  67  97 120 170 217 254 323 380
#     4  11  23  41  63  89 128 169 223 269 291 363
#
# _framework density 22.251425999999999
#
# number of rings (size 3 to 8) (size 9 to 14) (size 15 to 20)
#    0.000    1.600    0.000    5.400    5.600    1.600 
#    0.000    0.000    0.000   12.000    0.000    0.000 
#    0.000    0.000    0.000    0.000    0.000    0.000 
#
# Total GULP energy -111623.177943 kJ/mol
# GULP energy per Si atom -5581.158897 kJ/mol
# Density = 2.220078 g / cm^3
# Si number density = 22.251426 Si / 1000 Ang^3
#
#
#
# Elastic Constant Matrix: (Units=GPa)
#
#
# Indices 1 2 3 4 5 6 
#
# 1 58.3960 40.0673 22.7432 0.0000 21.8283 0.0000
# 2 40.0673 115.1493 22.1614 0.0000 7.7881 0.0000
# 3 22.7432 22.1614 154.9155 0.0000 45.7814 0.0000
# 4 0.0000 0.0000 0.0000 39.3979 0.0000 -8.4740
# 5 21.8283 7.7881 45.7814 0.0000 29.2462 0.0000
# 6 0.0000 0.0000 0.0000 -8.4740 0.0000 12.3431
#
#
#
# Elastic Compliance Matrix: (Units=1/GPa)
#
#
# Indices 1 2 3 4 5 6 
#
# 1 0.034254 -0.010907 0.006008 0.000000 -0.032066 0.000000
# 2 -0.010907 0.012411 -0.002983 0.000000 0.009505 0.000000
# 3 0.006008 -0.002983 0.013194 0.000000 -0.024343 0.000000
# 4 0.000000 0.000000 0.000000 0.029780 0.000000 0.020445
# 5 -0.032066 0.009505 -0.024343 0.000000 0.093700 0.000000
# 6 0.000000 0.000000 0.000000 0.020445 0.000000 0.095054
#
#
# Mechanical properties :
#
#
# Convention : Reuss Voigt Hill
#
# Bulk Modulus (GPa) = 22.67861 55.37829 39.02845
# Shear Modulus (GPa) = 16.18888 32.43002 24.30945
#
# Velocity S-wave (km/s) = 2.70023 3.82178 3.30887
# Velocity P-wave (km/s) = 4.46495 6.66455 5.67239
#
# Compressibility (1/GPa) = 0.04409441
#
# Stress axis : x y z
#
# Youngs Moduli (GPa) = 29.19356 80.57587 75.79295
#
# Poissons Ratio (x) = 0.87880 -0.45534
# Poissons Ratio (y) = 0.31840 0.22611
# Poissons Ratio (z) = -0.17538 0.24038
#
# Static dielectric constant tensor:
#      x y z
#    x 1.692180 0.000000 -0.100430 
#    y 0.000000 1.814830 0.000000 
#    z -0.100430 0.000000 1.776460 
# 
# From -- ./inp_files/5500.got.cif
#   From: 2010.05.17/outbox.cif.g08.bks.cpg/sg15_3_cif.got.tgz:5500.got - 2010.06.03 18:47:42.
