data_PCOD9287236
_publ_section_title
;
Structure prediction by ZEFSAII (Michael W. Deem and Ramdas Pophale) SiO2 
 PCOD9287236
Probable space group: C 2/C
;
_chemical_formula_sum "Si O2"
_cell_formula_units_Z 44
_cell_length_a 7.691103
_cell_length_b 16.454031
_cell_length_c 14.316887
_cell_angle_alpha 90.000000
_cell_angle_beta 81.173165
_cell_angle_gamma 90.000000
_cell_volume 1790.339200
_symmetry_space_group_name_H-M "C 2/C"
_symmetry_group_IT_number 15
_symmetry_cell_setting 'monoclinic'
loop_
_space_group_symop_operation_xyz
x,y,z
-x,y,1/2-z
-x,-y,-z
x,-y,1/2+z
1/2+x,1/2+y,z
1/2-x,1/2+y,1/2-z
1/2-x,1/2-y,-z
1/2+x,1/2-y,1/2+z
loop_
_atom_site_type_symbol
_atom_site_label
_atom_site_fract_x
_atom_site_fract_y
_atom_site_fract_z
Si Si1 0.500000 0.599991 0.750000
Si Si2 0.502554 0.610483 0.549099
Si Si3 0.589847 0.085365 0.006526
Si Si4 0.436041 0.785906 0.648815
Si Si5 0.624018 0.186032 0.826811
Si Si6 0.550499 0.349562 0.647257
O O1 0.454813 0.564159 0.650177
O O2 0.314280 0.646861 0.788149
O O3 0.700285 0.584002 0.510055
O O4 0.484943 0.705383 0.584385
O O5 0.414231 0.605782 0.454001
O O6 0.544386 0.139994 0.921154
O O7 0.522205 0.133536 0.100743
O O8 0.500000 0.000000 0.000000
O O9 0.500000 0.780967 0.750000
O O10 0.103545 0.781645 0.854182
O O11 0.500000 0.170458 0.750000
O O12 0.272259 0.299143 0.845057
O O13 0.500000 0.393086 0.750000
#
# Coordination Sequence:
#
# PCOD9287236 Si02
#       6
#     4   8   8   8   8   8
#     4  10  22  34  66 102 130 168 214 294 360 394
#     4  11  21  40  68 103 135 175 243 292 356 418
#     4  11  26  43  63  96 140 193 228 278 363 437
#     4  12  24  40  73 102 139 177 238 308 361 411
#     4  10  22  39  64  97 133 167 233 283 352 415
#     4  11  23  38  66 108 135 171 235 304 362 409
#
# _framework density 24.576347999999999
#
# number of rings (size 3 to 8) (size 9 to 14) (size 15 to 20)
#    0.000    1.091    2.727    4.364   10.182    0.727 
#    0.000    0.909    8.000    0.000    0.000    0.000 
#    0.000    0.000    0.000    0.000    0.000    0.000 
#
# Total GULP energy -122827.461545 kJ/mol
# GULP energy per Si atom -5583.066434 kJ/mol
# Density = 2.452041 g / cm^3
# Si number density = 24.576348 Si / 1000 Ang^3
#
#
#
# Elastic Constant Matrix: (Units=GPa)
#
#
# Indices 1 2 3 4 5 6 
#
# 1 97.6712 15.1063 36.0787 0.0000 -1.1613 0.0000
# 2 15.1063 88.0432 51.2306 0.0000 -4.1614 0.0000
# 3 36.0787 51.2306 206.4586 0.0000 23.9322 0.0000
# 4 0.0000 0.0000 0.0000 24.9909 0.0000 1.5660
# 5 -1.1613 -4.1614 23.9322 0.0000 59.2971 0.0000
# 6 0.0000 0.0000 0.0000 1.5660 0.0000 16.6320
#
#
#
# Elastic Compliance Matrix: (Units=1/GPa)
#
#
# Indices 1 2 3 4 5 6 
#
# 1 0.011051 -0.000781 -0.001842 0.000000 0.000905 0.000000
# 2 -0.000781 0.013656 -0.003526 0.000000 0.002366 0.000000
# 3 -0.001842 -0.003526 0.006371 0.000000 -0.002855 0.000000
# 4 0.000000 0.000000 0.000000 0.040252 0.000000 -0.003790
# 5 0.000905 0.002366 -0.002855 0.000000 0.018200 0.000000
# 6 0.000000 0.000000 0.000000 -0.003790 0.000000 0.060482
#
#
# Mechanical properties :
#
#
# Convention : Reuss Voigt Hill
#
# Bulk Modulus (GPa) = 53.25304 66.33379 59.79342
# Shear Modulus (GPa) = 29.66105 39.50113 34.58109
#
# Velocity S-wave (km/s) = 3.47781 4.01344 3.75519
# Velocity P-wave (km/s) = 6.15161 6.96609 6.57148
#
# Compressibility (1/GPa) = 0.01877827
#
# Stress axis : x y z
#
# Youngs Moduli (GPa) = 90.49362 73.22866 156.94980
#
# Poissons Ratio (x) = 0.05722 0.28912
# Poissons Ratio (y) = 0.07071 0.55345
# Poissons Ratio (z) = 0.16670 0.25823
#
# Static dielectric constant tensor:
#      x y z
#    x 1.977990 0.000000 0.016950 
#    y 0.000000 1.973700 0.000000 
#    z 0.016950 0.000000 2.046820 
# 
# From -- ./inp_files/134298.got.cif
#   From: 2010.05.17/outbox.cif.g08.bks.cpg/sg15_68_cif.got.tgz:134298.got - 2010.06.03 18:47:42.
