data_PCOD9287233
_publ_section_title
;
Structure prediction by ZEFSAII (Michael W. Deem and Ramdas Pophale) SiO2 
 PCOD9287233
Probable space group: C 2/C
;
_chemical_formula_sum "Si O2"
_cell_formula_units_Z 44
_cell_length_a 15.943850
_cell_length_b 15.368954
_cell_length_c 7.814809
_cell_angle_alpha 90.000000
_cell_angle_beta 80.108163
_cell_angle_gamma 90.000000
_cell_volume 1886.475214
_symmetry_space_group_name_H-M "C 2/C"
_symmetry_group_IT_number 15
_symmetry_cell_setting 'monoclinic'
loop_
_space_group_symop_operation_xyz
x,y,z
-x,y,1/2-z
-x,-y,-z
x,-y,1/2+z
1/2+x,1/2+y,z
1/2-x,1/2+y,1/2-z
1/2-x,1/2-y,-z
1/2+x,1/2-y,1/2+z
loop_
_atom_site_type_symbol
_atom_site_label
_atom_site_fract_x
_atom_site_fract_y
_atom_site_fract_z
Si Si1 0.063309 0.938662 0.577159
Si Si2 0.871710 0.449521 0.038570
Si Si3 0.808776 0.900921 0.514888
Si Si4 0.000000 0.547000 0.750000
Si Si5 0.731541 0.875251 0.886745
Si Si6 0.336780 0.689995 0.662721
O O1 0.084928 0.854412 0.459365
O O2 0.000000 0.911901 0.750000
O O3 0.145801 0.006457 0.550026
O O4 0.000000 0.000000 0.500000
O O5 0.792509 0.399350 0.988865
O O6 0.823457 0.537922 0.115402
O O7 0.929184 0.403651 0.162905
O O8 0.941595 0.483908 0.883127
O O9 0.809424 0.880208 0.718447
O O10 0.841842 0.834942 0.359810
O O11 0.676399 0.791230 0.858294
O O12 0.761320 0.856187 0.073067
#
# Coordination Sequence:
#
# PCOD9287233 Si02
#       6
#     8   8   8   4   8   8
#     4  12  23  41  69  99 134 175 234 278 324 405
#     4  11  20  40  63  93 122 165 219 266 325 396
#     4  12  22  43  72  93 126 183 225 268 334 410
#     4  10  22  34  64  92 120 152 214 272 312 378
#     4  11  23  41  66  97 131 168 224 273 335 400
#     4  11  24  41  64  99 131 172 218 279 335 387
#
# _framework density 23.323922
#
# number of rings (size 3 to 8) (size 9 to 14) (size 15 to 20)
#    0.000    0.727    5.455    3.818    0.000    0.000 
#    1.636    1.818    4.000    0.000    0.000    0.000 
#    0.000    0.000    0.000    0.000    0.000    0.000 
#
# Total GULP energy -122543.133621 kJ/mol
# GULP energy per Si atom -5570.142437 kJ/mol
# Density = 2.327084 g / cm^3
# Si number density = 23.323922 Si / 1000 Ang^3
#
#
#
# Elastic Constant Matrix: (Units=GPa)
#
#
# Indices 1 2 3 4 5 6 
#
# 1 100.7485 -16.5275 5.3852 0.0000 -12.0413 0.0000
# 2 -16.5275 61.7524 3.3602 0.0000 -10.0739 0.0000
# 3 5.3852 3.3602 117.6784 0.0000 -28.3376 0.0000
# 4 0.0000 0.0000 0.0000 16.8768 0.0000 -6.1014
# 5 -12.0413 -10.0739 -28.3376 0.0000 46.0797 0.0000
# 6 0.0000 0.0000 0.0000 -6.1014 0.0000 19.1041
#
#
#
# Elastic Compliance Matrix: (Units=1/GPa)
#
#
# Indices 1 2 3 4 5 6 
#
# 1 0.010947 0.003537 0.000321 0.000000 0.003831 0.000000
# 2 0.003537 0.017958 0.000579 0.000000 0.005207 0.000000
# 3 0.000321 0.000579 0.009998 0.000000 0.006359 0.000000
# 4 0.000000 0.000000 0.000000 0.066988 0.000000 0.021394
# 5 0.003831 0.005207 0.006359 0.000000 0.027751 0.000000
# 6 0.000000 0.000000 0.000000 0.021394 0.000000 0.059178
#
#
# Mechanical properties :
#
#
# Convention : Reuss Voigt Hill
#
# Bulk Modulus (GPa) = 20.93067 29.40168 25.16618
# Shear Modulus (GPa) = 25.01615 35.60954 30.31284
#
# Velocity S-wave (km/s) = 3.27854 3.91159 3.60897
# Velocity P-wave (km/s) = 4.82961 5.74751 5.30844
#
# Compressibility (1/GPa) = 0.04777677
#
# Stress axis : x y z
#
# Youngs Moduli (GPa) = 91.35141 55.68460 100.02274
#
# Poissons Ratio (x) = -0.19697 -0.03207
# Poissons Ratio (y) = -0.32314 -0.05792
# Poissons Ratio (z) = -0.02929 -0.03225
#
# Static dielectric constant tensor:
#      x y z
#    x 1.757890 0.000000 0.343900 
#    y 0.000000 1.867330 0.000000 
#    z 0.343900 0.000000 1.588570 
# 
# From -- ./inp_files/39099.got.cif
#   From: 2010.05.17/outbox.cif.g08.bks.cpg/sg15_20_cif.got.tgz:39099.got - 2010.06.03 18:47:42.
