data_PCOD9287382
_publ_section_title
;
Structure prediction by ZEFSAII (Michael W. Deem and Ramdas Pophale) SiO2 
 PCOD9287382
Probable space group: C 2/C
;
_chemical_formula_sum "Si O2"
_cell_formula_units_Z 60
_cell_length_a 8.621292
_cell_length_b 12.320446
_cell_length_c 27.620042
_cell_angle_alpha 90.000000
_cell_angle_beta 108.566068
_cell_angle_gamma 90.000000
_cell_volume 2781.069363
_symmetry_space_group_name_H-M "C 2/C"
_symmetry_group_IT_number 15
_symmetry_cell_setting 'monoclinic'
loop_
_space_group_symop_operation_xyz
x,y,z
-x,y,1/2-z
-x,-y,-z
x,-y,1/2+z
1/2+x,1/2+y,z
1/2-x,1/2+y,1/2-z
1/2-x,1/2-y,-z
1/2+x,1/2-y,1/2+z
loop_
_atom_site_type_symbol
_atom_site_label
_atom_site_fract_x
_atom_site_fract_y
_atom_site_fract_z
Si Si1 0.309058 0.208512 0.326859
Si Si2 0.361288 0.029631 0.821712
Si Si3 0.599104 0.363617 0.892657
Si Si4 0.053215 0.356421 0.418444
Si Si5 0.000000 0.323985 0.250000
Si Si6 0.672035 0.555495 0.505290
Si Si7 0.432142 0.403954 0.141021
Si Si8 0.696238 0.147718 0.526079
O O1 0.253980 0.163477 0.374279
O O2 0.143373 0.251390 0.286393
O O3 0.436349 0.308447 0.339522
O O4 0.362917 0.096522 0.307328
O O5 0.480832 0.046792 0.879678
O O6 0.424056 0.101257 0.784073
O O7 0.186967 0.074227 0.824872
O O8 0.500560 0.251877 0.884579
O O9 0.651439 0.382248 0.953063
O O10 0.509242 0.472830 0.865857
O O11 0.246767 0.372448 0.444973
O O12 0.975723 0.344673 0.463842
O O13 0.500000 0.500000 0.500000
O O14 0.795351 0.456614 0.507234
O O15 0.321871 0.371729 0.083301
O O16 0.750000 0.250000 0.500000
#
# Coordination Sequence:
#
# PCOD9287382 Si02
#       8
#     8   8   8   8   4   8   8   8
#     4  11  25  47  74  98 140 176 223 298 343 421
#     4  10  25  46  68 107 129 179 226 284 356 409
#     4  10  22  41  67  97 136 185 226 277 345 402
#     4  11  22  42  64  96 143 177 233 288 332 415
#     4  12  26  48  72 104 130 178 230 280 368 410
#     4  11  24  37  62  98 139 191 236 275 341 409
#     4   9  23  43  66  99 140 173 227 276 347 405
#     4  10  22  36  58  96 133 185 228 272 331 402
#
# _framework density 21.574434
#
# number of rings (size 3 to 8) (size 9 to 14) (size 15 to 20)
#    0.000    1.600    1.333    2.400    7.467    3.733 
#    4.800    0.000    0.000    0.000    0.000    0.000 
#    0.000    0.000    0.000    0.000    0.000    0.000 
#
# Total GULP energy -167496.913810 kJ/mol
# GULP energy per Si atom -5583.230460 kJ/mol
# Density = 2.152533 g / cm^3
# Si number density = 21.574434 Si / 1000 Ang^3
#
#
#
# Elastic Constant Matrix: (Units=GPa)
#
#
# Indices 1 2 3 4 5 6 
#
# 1 74.1568 54.6842 40.4912 0.0000 2.2647 0.0000
# 2 54.6842 178.4520 46.6497 0.0000 6.8569 0.0000
# 3 40.4912 46.6497 72.6197 0.0000 -0.8708 0.0000
# 4 0.0000 0.0000 0.0000 13.3106 0.0000 0.6388
# 5 2.2647 6.8569 -0.8708 0.0000 31.6983 0.0000
# 6 0.0000 0.0000 0.0000 0.6388 0.0000 38.9517
#
#
#
# Elastic Compliance Matrix: (Units=1/GPa)
#
#
# Indices 1 2 3 4 5 6 
#
# 1 0.021745 -0.004153 -0.009468 0.000000 -0.000915 0.000000
# 2 -0.004153 0.007608 -0.002588 0.000000 -0.001420 0.000000
# 3 -0.009468 -0.002588 0.020734 0.000000 0.001806 0.000000
# 4 0.000000 0.000000 0.000000 0.075187 0.000000 -0.001233
# 5 -0.000915 -0.001420 0.001806 0.000000 0.031970 0.000000
# 6 0.000000 0.000000 0.000000 -0.001233 0.000000 0.025693
#
#
# Mechanical properties :
#
#
# Convention : Reuss Voigt Hill
#
# Bulk Modulus (GPa) = 56.59932 67.65318 62.12625
# Shear Modulus (GPa) = 22.59950 29.01902 25.80926
#
# Velocity S-wave (km/s) = 3.24004 3.67149 3.46249
# Velocity P-wave (km/s) = 6.34733 7.02846 6.69656
#
# Compressibility (1/GPa) = 0.01766806
#
# Stress axis : x y z
#
# Youngs Moduli (GPa) = 45.98734 131.44657 48.23109
#
# Poissons Ratio (x) = 0.54595 0.45663
# Poissons Ratio (y) = 0.19100 0.12483
# Poissons Ratio (z) = 0.43539 0.34021
#
# Static dielectric constant tensor:
#      x y z
#    x 1.782580 0.000000 -0.004690 
#    y 0.000000 1.946460 0.000000 
#    z -0.004690 0.000000 1.767590 
# 
# From -- ./inp_files/307511.got.cif
#   From: 2010.05.17/outbox.cif.g08.bks.cpg/sg15_154_cif.got.tgz:307511.got - 2010.06.03 18:47:42.
