data_PCOD9287199
_publ_section_title
;
Structure prediction by ZEFSAII (Michael W. Deem and Ramdas Pophale) SiO2 
 PCOD9287199
Probable space group: C 2/C
;
_chemical_formula_sum "Si O2"
_cell_formula_units_Z 48
_cell_length_a 14.395770
_cell_length_b 23.583771
_cell_length_c 9.506831
_cell_angle_alpha 90.000000
_cell_angle_beta 109.569388
_cell_angle_gamma 90.000000
_cell_volume 3041.192186
_symmetry_space_group_name_H-M "C 2/C"
_symmetry_group_IT_number 15
_symmetry_cell_setting 'monoclinic'
loop_
_space_group_symop_operation_xyz
x,y,z
-x,y,1/2-z
-x,-y,-z
x,-y,1/2+z
1/2+x,1/2+y,z
1/2-x,1/2+y,1/2-z
1/2-x,1/2-y,-z
1/2+x,1/2-y,1/2+z
loop_
_atom_site_type_symbol
_atom_site_label
_atom_site_fract_x
_atom_site_fract_y
_atom_site_fract_z
Si Si1 0.330720 0.873103 0.453752
Si Si2 0.978355 0.732583 0.074997
Si Si3 0.928634 0.486229 0.593313
Si Si4 0.690793 0.792723 0.571433
Si Si5 0.882148 0.389022 0.166111
Si Si6 0.795819 0.800173 0.927292
O O1 0.418312 0.827231 0.531011
O O2 0.357676 0.936194 0.513419
O O3 0.326347 0.874570 0.282740
O O4 0.236536 0.853676 0.496061
O O5 0.000000 0.741914 0.250000
O O6 0.082366 0.730852 0.050838
O O7 0.909209 0.782126 0.978881
O O8 0.881112 0.544562 0.624850
O O9 0.000000 0.463142 0.750000
O O10 0.000000 0.500000 0.500000
O O11 0.750000 0.750000 0.500000
O O12 0.666886 0.851371 0.479519
O O13 0.747224 0.800929 0.748513
O O14 0.000000 0.376060 0.250000
O O15 0.750000 0.750000 0.000000
#
# Coordination Sequence:
#
# PCOD9287199 Si02
#       6
#     8   8   8   8   8   8
#     4  11  20  35  52  74 113 144 182 215 264 338
#     4  11  20  36  55  77 109 147 182 225 265 323
#     4  11  20  32  50  78 109 147 180 216 280 336
#     4  12  23  34  56  79 111 143 181 233 273 320
#     4  11  22  33  49  79 111 146 176 224 274 323
#     4  10  22  34  52  78 102 146 187 213 270 328
#
# _framework density 15.783284
#
# number of rings (size 3 to 8) (size 9 to 14) (size 15 to 20)
#    0.000    1.000    8.333    2.500    2.333    0.000 
#    0.000    0.000    0.000    0.000    0.000    1.167 
#    0.000    0.000    0.000    0.000    0.000    0.000 
#
# Total GULP energy -133796.286159 kJ/mol
# GULP energy per Si atom -5574.845257 kJ/mol
# Density = 1.574736 g / cm^3
# Si number density = 15.783284 Si / 1000 Ang^3
#
#
#
# Elastic Constant Matrix: (Units=GPa)
#
#
# Indices 1 2 3 4 5 6 
#
# 1 87.8868 36.3356 37.9000 0.0000 -3.1337 0.0000
# 2 36.3356 83.2010 43.7780 0.0000 4.1985 0.0000
# 3 37.9000 43.7780 132.0889 0.0000 -5.3917 0.0000
# 4 0.0000 0.0000 0.0000 32.1411 0.0000 -0.6149
# 5 -3.1337 4.1985 -5.3917 0.0000 22.7977 0.0000
# 6 0.0000 0.0000 0.0000 -0.6149 0.0000 16.1105
#
#
#
# Elastic Compliance Matrix: (Units=1/GPa)
#
#
# Indices 1 2 3 4 5 6 
#
# 1 0.014668 -0.005289 -0.002356 0.000000 0.002433 0.000000
# 2 -0.005289 0.016809 -0.004251 0.000000 -0.004828 0.000000
# 3 -0.002356 -0.004251 0.009769 0.000000 0.002769 0.000000
# 4 0.000000 0.000000 0.000000 0.031136 0.000000 0.001188
# 5 0.002433 -0.004828 0.002769 0.000000 0.045743 0.000000
# 6 0.000000 0.000000 0.000000 0.001188 0.000000 0.062117
#
#
# Mechanical properties :
#
#
# Convention : Reuss Voigt Hill
#
# Bulk Modulus (GPa) = 57.29362 59.91154 58.60258
# Shear Modulus (GPa) = 23.82663 26.55405 25.19034
#
# Velocity S-wave (km/s) = 3.88959 4.10618 3.99935
# Velocity P-wave (km/s) = 7.52003 7.77960 7.65092
#
# Compressibility (1/GPa) = 0.01745395
#
# Stress axis : x y z
#
# Youngs Moduli (GPa) = 68.17695 59.49248 102.36885
#
# Poissons Ratio (x) = 0.31463 0.24123
# Poissons Ratio (y) = 0.36056 0.43512
# Poissons Ratio (z) = 0.16066 0.25288
#
# Static dielectric constant tensor:
#      x y z
#    x 1.542830 0.000000 0.000350 
#    y 0.000000 1.577360 0.000000 
#    z 0.000350 0.000000 1.524770 
# 
# From -- ./inp_files/41681.got.cif
#   From: 2010.05.17/outbox.cif.g08.bks.cpg/sg15_21_cif.got.tgz:41681.got - 2010.06.03 18:47:42.
