data_PCOD9287405
_publ_section_title
;
Structure prediction by ZEFSAII (Michael W. Deem and Ramdas Pophale) SiO2 
 PCOD9287405
Probable space group: C 2/C
;
_chemical_formula_sum "Si O2"
_cell_formula_units_Z 48
_cell_length_a 9.081429
_cell_length_b 15.209596
_cell_length_c 23.328739
_cell_angle_alpha 90.000000
_cell_angle_beta 143.573590
_cell_angle_gamma 90.000000
_cell_volume 1913.356480
_symmetry_space_group_name_H-M "C 2/C"
_symmetry_group_IT_number 15
_symmetry_cell_setting 'monoclinic'
loop_
_space_group_symop_operation_xyz
x,y,z
-x,y,1/2-z
-x,-y,-z
x,-y,1/2+z
1/2+x,1/2+y,z
1/2-x,1/2+y,1/2-z
1/2-x,1/2-y,-z
1/2+x,1/2-y,1/2+z
loop_
_atom_site_type_symbol
_atom_site_label
_atom_site_fract_x
_atom_site_fract_y
_atom_site_fract_z
Si Si1 0.251572 0.485845 0.806589
Si Si2 0.513691 0.385042 0.470607
Si Si3 0.351709 0.130966 0.531298
Si Si4 0.550114 0.046082 0.124463
Si Si5 0.714828 0.231789 0.167931
Si Si6 0.873051 0.208213 0.340852
O O1 0.449876 0.540385 0.903518
O O2 0.260719 0.383533 0.826145
O O3 0.000000 0.527832 0.750000
O O4 0.230490 0.488489 0.731577
O O5 0.316766 0.379656 0.462148
O O6 0.796983 0.411718 0.572361
O O7 0.471823 0.294299 0.423815
O O8 0.568377 0.203373 0.606344
O O9 0.158866 0.171461 0.425157
O O10 0.473211 0.035960 0.561443
O O11 0.679118 0.130920 0.138662
O O12 0.706113 0.233384 0.234279
O O13 0.000000 0.260542 0.250000
#
# Coordination Sequence:
#
# PCOD9287405 Si02
#       6
#     8   8   8   8   8   8
#     4  11  20  35  61  96 125 155 205 264 302 358
#     4  12  21  40  67  94 120 165 212 252 312 369
#     4  11  20  39  63  92 121 160 203 256 313 362
#     4  11  23  36  63  96 122 156 211 262 298 361
#     4  11  23  42  60  88 126 172 203 249 308 375
#     4  10  22  36  60  88 127 157 202 252 314 357
#
# _framework density 25.086804000000001
#
# number of rings (size 3 to 8) (size 9 to 14) (size 15 to 20)
#    0.000    1.000    5.000    3.500    0.000    0.000 
#    0.000    1.667    0.000    0.000    0.000    0.000 
#    0.000    0.000    0.000    0.000    0.000    0.000 
#
# Total GULP energy -133894.887560 kJ/mol
# GULP energy per Si atom -5578.953648 kJ/mol
# Density = 2.502970 g / cm^3
# Si number density = 25.086804 Si / 1000 Ang^3
#
#
#
# Elastic Constant Matrix: (Units=GPa)
#
#
# Indices 1 2 3 4 5 6 
#
# 1 24.7392 8.8110 11.2178 0.0000 -14.9563 0.0000
# 2 8.8110 140.9183 24.5012 0.0000 -3.2706 0.0000
# 3 11.2178 24.5012 82.1663 -0.0001 -2.1213 0.0000
# 4 0.0000 0.0000 -0.0001 43.8241 0.0000 8.8205
# 5 -14.9563 -3.2706 -2.1213 0.0000 25.3792 0.0000
# 6 0.0000 0.0000 0.0000 8.8205 0.0000 14.6098
#
#
#
# Elastic Compliance Matrix: (Units=1/GPa)
#
#
# Indices 1 2 3 4 5 6 
#
# 1 0.068507 -0.002023 -0.007731 0.000000 0.039465 0.000000
# 2 -0.002023 0.007560 -0.001988 0.000000 -0.000384 0.000000
# 3 -0.007731 -0.001988 0.013724 0.000000 -0.003665 0.000000
# 4 0.000000 0.000000 0.000000 0.025975 0.000000 -0.015682
# 5 0.039465 -0.000384 -0.003665 0.000000 0.062304 0.000000
# 6 0.000000 0.000000 0.000000 -0.015682 0.000000 0.077915
#
#
# Mechanical properties :
#
#
# Convention : Reuss Voigt Hill
#
# Bulk Modulus (GPa) = 15.08148 37.43151 26.25649
# Shear Modulus (GPa) = 16.57989 30.31552 23.44771
#
# Velocity S-wave (km/s) = 2.57359 3.48001 3.06054
# Velocity P-wave (km/s) = 3.85434 5.57678 4.79356
#
# Compressibility (1/GPa) = 0.06630649
#
# Stress axis : x y z
#
# Youngs Moduli (GPa) = 14.59710 132.28340 72.86493
#
# Poissons Ratio (x) = 0.26765 0.56330
# Poissons Ratio (y) = 0.02953 0.14485
# Poissons Ratio (z) = 0.11285 0.26296
#
# Static dielectric constant tensor:
#      x y z
#    x 2.111580 0.000000 0.010370 
#    y 0.000000 1.962630 0.000000 
#    z 0.010370 0.000000 2.192200 
# 
# From -- ./inp_files/143668.got.cif
#   From: 2010.05.17/outbox.cif.g08.bks.cpg/sg15_72_cif.got.tgz:143668.got - 2010.06.03 18:47:42.
