data_PCOD9287877
_publ_section_title
;
Structure prediction by ZEFSAII (Michael W. Deem and Ramdas Pophale) SiO2 
 PCOD9287877
Probable space group: C 2/C
;
_chemical_formula_sum "Si O2"
_cell_formula_units_Z 48
_cell_length_a 12.806081
_cell_length_b 9.377656
_cell_length_c 23.076488
_cell_angle_alpha 90.000000
_cell_angle_beta 132.344681
_cell_angle_gamma 90.000000
_cell_volume 2048.269058
_symmetry_space_group_name_H-M "C 2/C"
_symmetry_group_IT_number 15
_symmetry_cell_setting 'monoclinic'
loop_
_space_group_symop_operation_xyz
x,y,z
-x,y,1/2-z
-x,-y,-z
x,-y,1/2+z
1/2+x,1/2+y,z
1/2-x,1/2+y,1/2-z
1/2-x,1/2-y,-z
1/2+x,1/2-y,1/2+z
loop_
_atom_site_type_symbol
_atom_site_label
_atom_site_fract_x
_atom_site_fract_y
_atom_site_fract_z
Si Si1 0.337824 0.247693 0.198223
Si Si2 0.558237 0.037607 0.457311
Si Si3 0.646288 0.514770 0.876250
Si Si4 0.890684 0.052934 0.411725
Si Si5 0.095137 0.252316 0.412739
Si Si6 0.397287 0.298551 0.340336
O O1 0.500000 0.203608 0.250000
O O2 0.318721 0.411468 0.171506
O O3 0.239556 0.152695 0.120484
O O4 0.304313 0.233764 0.253763
O O5 0.541605 0.912588 0.402982
O O6 0.500000 0.000000 0.500000
O O7 0.725486 0.048995 0.532006
O O8 0.479046 0.177536 0.406028
O O9 0.617979 0.345470 0.864236
O O10 0.513838 0.604375 0.850541
O O11 0.987058 0.154458 0.408114
O O12 0.828465 0.913136 0.357198
O O13 0.000000 0.000000 0.500000
O O14 0.250000 0.250000 0.500000
#
# Coordination Sequence:
#
# PCOD9287877 Si02
#       6
#     8   8   8   8   8   8
#     4  10  22  39  61  87 121 165 215 270 323 382
#     4  11  20  34  60  93 122 155 199 256 311 373
#     4   9  19  38  59  82 116 161 203 247 306 377
#     4  11  22  40  63  89 122 166 213 259 317 392
#     4   9  20  35  58  90 121 152 198 254 306 366
#     4  10  22  38  59  85 117 161 205 252 315 376
#
# _framework density 23.434421
#
# number of rings (size 3 to 8) (size 9 to 14) (size 15 to 20)
#    0.000    2.000    0.000    3.500    0.000    9.333 
#    0.000    0.000    0.000   25.000    0.000    0.000 
#    0.000    0.000    0.000    0.000    0.000    0.000 
#
# Total GULP energy -133927.494552 kJ/mol
# GULP energy per Si atom -5580.312273 kJ/mol
# Density = 2.338108 g / cm^3
# Si number density = 23.434421 Si / 1000 Ang^3
#
#
#
# Elastic Constant Matrix: (Units=GPa)
#
#
# Indices 1 2 3 4 5 6 
#
# 1 20.2852 23.5457 17.7741 0.0000 5.6923 0.0000
# 2 23.5457 124.6484 33.0949 0.0000 -2.8061 0.0000
# 3 17.7741 33.0949 93.9556 0.0000 -1.9239 0.0000
# 4 0.0000 0.0000 0.0000 23.3263 0.0000 -4.6340
# 5 5.6923 -2.8061 -1.9239 0.0000 30.7745 0.0000
# 6 0.0000 0.0000 0.0000 -4.6340 0.0000 30.4145
#
#
#
# Elastic Compliance Matrix: (Units=1/GPa)
#
#
# Indices 1 2 3 4 5 6 
#
# 1 0.077210 -0.012114 -0.010668 0.000000 -0.016053 0.000000
# 2 -0.012114 0.010762 -0.001435 0.000000 0.003132 0.000000
# 3 -0.010668 -0.001435 0.013222 0.000000 0.002669 0.000000
# 4 0.000000 0.000000 0.000000 0.044208 0.000000 0.006736
# 5 -0.016053 0.003132 0.002669 0.000000 0.035916 0.000000
# 6 0.000000 0.000000 0.000000 0.006736 0.000000 0.033905
#
#
# Mechanical properties :
#
#
# Convention : Reuss Voigt Hill
#
# Bulk Modulus (GPa) = 18.95376 43.07985 31.01681
# Shear Modulus (GPa) = 17.77820 27.86804 22.82312
#
# Velocity S-wave (km/s) = 2.75732 3.45221 3.12415
# Velocity P-wave (km/s) = 4.27114 5.85776 5.12621
#
# Compressibility (1/GPa) = 0.05275999
#
# Stress axis : x y z
#
# Youngs Moduli (GPa) = 12.95175 92.91644 75.63362
#
# Poissons Ratio (x) = 1.12556 0.80686
# Poissons Ratio (y) = 0.15689 0.10855
# Poissons Ratio (z) = 0.13817 0.13335
#
# Static dielectric constant tensor:
#      x y z
#    x 2.223140 0.000000 -0.200330 
#    y 0.000000 1.804430 0.000000 
#    z -0.200330 0.000000 2.100880 
# 
# From -- ./inp_files/295406.got.cif
#   From: 2010.05.17/outbox.cif.g08.bks.cpg/sg15_148_cif.got.tgz:295406.got - 2010.06.03 18:47:42.
