data_PCOD9287857
_publ_section_title
;
Structure prediction by ZEFSAII (Michael W. Deem and Ramdas Pophale) SiO2 
 PCOD9287857
Probable space group: C 2/C
;
_chemical_formula_sum "Si O2"
_cell_formula_units_Z 36
_cell_length_a 13.211462
_cell_length_b 13.981755
_cell_length_c 11.223886
_cell_angle_alpha 90.000000
_cell_angle_beta 126.053626
_cell_angle_gamma 90.000000
_cell_volume 1676.169157
_symmetry_space_group_name_H-M "C 2/C"
_symmetry_group_IT_number 15
_symmetry_cell_setting 'monoclinic'
loop_
_space_group_symop_operation_xyz
x,y,z
-x,y,1/2-z
-x,-y,-z
x,-y,1/2+z
1/2+x,1/2+y,z
1/2-x,1/2+y,1/2-z
1/2-x,1/2-y,-z
1/2+x,1/2-y,1/2+z
loop_
_atom_site_type_symbol
_atom_site_label
_atom_site_fract_x
_atom_site_fract_y
_atom_site_fract_z
Si Si1 0.000000 0.532808 0.250000
Si Si2 0.000000 0.125000 0.750000
Si Si3 0.278151 0.855510 0.471426
Si Si4 0.156312 0.375000 0.250000
Si Si5 0.056725 0.105510 0.528574
Si Si6 0.500000 0.717192 0.250000
O O1 0.116120 0.594156 0.377008
O O2 0.057696 0.460824 0.192618
O O3 0.144241 0.087629 0.869858
O O4 0.024383 0.162371 0.630143
O O5 0.250000 0.750000 0.500000
O O6 0.334459 0.843785 0.379441
O O7 0.294982 0.406216 0.379441
O O8 0.115078 0.289176 0.307382
O O9 0.010889 0.155844 0.377008
O O10 0.000000 0.000000 0.500000
#
# Coordination Sequence:
#
# PCOD9287857 Si02
#       6
#     4   4   8   8   8   4
#     4  11  23  42  67  97 132 176 222 277 335 399
#     4  10  22  38  58  90 128 166 212 262 322 386
#     4  11  22  40  65  95 131 173 220 274 333 397
#     4  10  24  42  64  96 134 174 222 274 334 404
#     4  11  22  40  65  95 131 173 220 274 333 397
#     4  11  23  42  67  97 132 176 222 277 335 399
#
# _framework density 21.477546
#
# number of rings (size 3 to 8) (size 9 to 14) (size 15 to 20)
#    0.000    1.333    0.000    5.333    0.000    3.556 
#    0.000    4.444    0.000    0.000    0.000    0.000 
#    0.000    0.000    0.000    0.000    0.000    0.000 
#
# Total GULP energy -100316.582255 kJ/mol
# GULP energy per Si atom -5573.143459 kJ/mol
# Density = 2.142866 g / cm^3
# Si number density = 21.477546 Si / 1000 Ang^3
#
#
#
# Elastic Constant Matrix: (Units=GPa)
#
#
# Indices 1 2 3 4 5 6 
#
# 1 159.9171 63.9348 65.9099 0.0000 -0.0003 0.0000
# 2 63.9348 122.0563 62.6477 0.0000 -0.0001 0.0000
# 3 65.9099 62.6477 138.8042 0.0000 -0.0002 0.0000
# 4 0.0000 0.0000 0.0000 22.2904 0.0000 0.0002
# 5 -0.0003 -0.0001 -0.0002 0.0000 53.4645 0.0000
# 6 0.0000 0.0000 0.0000 0.0002 0.0000 28.1610
#
#
#
# Elastic Compliance Matrix: (Units=1/GPa)
#
#
# Indices 1 2 3 4 5 6 
#
# 1 0.008609 -0.003138 -0.002671 0.000000 0.000000 0.000000
# 2 -0.003138 0.011807 -0.003839 0.000000 0.000000 0.000000
# 3 -0.002671 -0.003839 0.010206 0.000000 0.000000 0.000000
# 4 0.000000 0.000000 0.000000 0.044862 0.000000 0.000000
# 5 0.000000 0.000000 0.000000 0.000000 0.018704 0.000000
# 6 0.000000 0.000000 0.000000 0.000000 0.000000 0.035510
#
#
# Mechanical properties :
#
#
# Convention : Reuss Voigt Hill
#
# Bulk Modulus (GPa) = 88.30437 89.52916 88.91676
# Shear Modulus (GPa) = 32.72888 36.00218 34.36553
#
# Velocity S-wave (km/s) = 3.90791 4.09867 4.00442
# Velocity P-wave (km/s) = 7.84642 8.01089 7.92908
#
# Compressibility (1/GPa) = 0.01132447
#
# Stress axis : x y z
#
# Youngs Moduli (GPa) = 116.15776 84.69412 97.98616
#
# Poissons Ratio (x) = 0.26580 0.26176
# Poissons Ratio (y) = 0.36454 0.37615
# Poissons Ratio (z) = 0.31031 0.32513
#
# Static dielectric constant tensor:
#      x y z
#    x 1.785860 0.000000 0.000000 
#    y 0.000000 1.811930 0.000000 
#    z 0.000000 0.000000 1.786250 
# 
# From -- ./inp_files/85400.got.cif
#   From: 2010.05.17/outbox.cif.g08.bks.cpg/sg15_43_cif.got.tgz:85400.got - 2010.06.03 18:47:42.
