data_PCOD9287239
_publ_section_title
;
Structure prediction by ZEFSAII (Michael W. Deem and Ramdas Pophale) SiO2 
 PCOD9287239
Probable space group: C 2/C
;
_chemical_formula_sum "Si O2"
_cell_formula_units_Z 28
_cell_length_a 19.262067
_cell_length_b 7.095306
_cell_length_c 23.378175
_cell_angle_alpha 90.000000
_cell_angle_beta 20.340814
_cell_angle_gamma 90.000000
_cell_volume 1110.628881
_symmetry_space_group_name_H-M "C 2/C"
_symmetry_group_IT_number 15
_symmetry_cell_setting 'monoclinic'
loop_
_space_group_symop_operation_xyz
x,y,z
-x,y,1/2-z
-x,-y,-z
x,-y,1/2+z
1/2+x,1/2+y,z
1/2-x,1/2+y,1/2-z
1/2-x,1/2-y,-z
1/2+x,1/2-y,1/2+z
loop_
_atom_site_type_symbol
_atom_site_label
_atom_site_fract_x
_atom_site_fract_y
_atom_site_fract_z
Si Si1 0.333426 0.197952 0.097537
Si Si2 0.885833 0.575080 0.460128
Si Si3 0.500000 0.842567 0.750000
Si Si4 0.296477 0.369060 0.232855
O O1 0.297622 0.385091 0.162700
O O2 0.177436 0.062270 0.252745
O O3 0.569980 0.172850 0.925943
O O4 0.325021 0.116352 0.040195
O O5 0.690371 0.707062 0.610167
O O6 0.962415 0.540760 0.336725
O O7 0.048906 0.710822 0.365687
#
# Coordination Sequence:
#
# PCOD9287239 Si02
#       4
#     8   8   4   8
#     4  11  23  37  60  95 125 153 195 247 321 345
#     4  11  19  40  58  95 115 158 204 248 285 357
#     4  10  22  34  66  84 118 166 210 244 272 352
#     4  11  19  39  60  95 121 151 193 253 311 358
#
# _framework density 25.210940999999998
#
# number of rings (size 3 to 8) (size 9 to 14) (size 15 to 20)
#    0.000    1.143    8.571    0.000    0.000    1.143 
#    5.143    0.000    0.000    5.143    0.000    0.000 
#    0.000    0.000    0.000    0.000    0.000    0.000 
#
# Total GULP energy -77993.930106 kJ/mol
# GULP energy per Si atom -5570.995008 kJ/mol
# Density = 2.515356 g / cm^3
# Si number density = 25.210941 Si / 1000 Ang^3
#
#
#
# Elastic Constant Matrix: (Units=GPa)
#
#
# Indices 1 2 3 4 5 6 
#
# 1 147.3607 37.5681 71.0045 -0.0018 52.5995 0.0006
# 2 37.5681 66.5439 45.6008 -0.0096 20.8610 0.0069
# 3 71.0045 45.6008 120.4355 -0.0099 32.7714 0.0078
# 4 -0.0018 -0.0096 -0.0099 22.0760 0.0011 20.0886
# 5 52.5995 20.8610 32.7714 0.0011 73.0803 -0.0005
# 6 0.0006 0.0069 0.0078 20.0886 -0.0005 36.4973
#
#
#
# Elastic Compliance Matrix: (Units=1/GPa)
#
#
# Indices 1 2 3 4 5 6 
#
# 1 0.011440 -0.001496 -0.004617 -0.000005 -0.005736 0.000004
# 2 -0.001496 0.020958 -0.006513 0.000017 -0.001985 -0.000012
# 3 -0.004617 -0.006513 0.013760 0.000009 -0.000988 -0.000007
# 4 -0.000005 0.000017 0.000009 0.090753 -0.000007 -0.049952
# 5 -0.005736 -0.001985 -0.000988 -0.000007 0.018822 0.000005
# 6 0.000004 -0.000012 -0.000007 -0.049952 0.000005 0.054894
#
#
# Mechanical properties :
#
#
# Convention : Reuss Voigt Hill
#
# Bulk Modulus (GPa) = 47.83530 71.40964 59.62247
# Shear Modulus (GPa) = 20.58900 38.34180 29.46540
#
# Velocity S-wave (km/s) = 2.86084 3.90403 3.42241
# Velocity P-wave (km/s) = 5.47063 6.97913 6.27041
#
# Compressibility (1/GPa) = 0.02090507
#
# Stress axis : x y z
#
# Youngs Moduli (GPa) = 87.41481 47.71464 72.67318
#
# Poissons Ratio (x) = 0.07139 0.33554
# Poissons Ratio (y) = 0.13079 0.47333
# Poissons Ratio (z) = 0.40360 0.31077
#
# Static dielectric constant tensor:
#      x y z
#    x 2.100760 0.000000 0.019060 
#    y 0.000000 2.199480 0.000000 
#    z 0.019060 0.000000 1.950400 
# 
# From -- ./inp_files/53281.got.cif
#   From: 2010.05.17/outbox.cif.g08.bks.cpg/sg15_27_cif.got.tgz:53281.got - 2010.06.03 18:47:42.
