data_PCOD9287277
_publ_section_title
;
Structure prediction by ZEFSAII (Michael W. Deem and Ramdas Pophale) SiO2 
 PCOD9287277
Probable space group: C 2/C
;
_chemical_formula_sum "Si O2"
_cell_formula_units_Z 40
_cell_length_a 13.808007
_cell_length_b 11.770185
_cell_length_c 27.310584
_cell_angle_alpha 90.000000
_cell_angle_beta 24.538688
_cell_angle_gamma 90.000000
_cell_volume 1843.381126
_symmetry_space_group_name_H-M "C 2/C"
_symmetry_group_IT_number 15
_symmetry_cell_setting 'monoclinic'
loop_
_space_group_symop_operation_xyz
x,y,z
-x,y,1/2-z
-x,-y,-z
x,-y,1/2+z
1/2+x,1/2+y,z
1/2-x,1/2+y,1/2-z
1/2-x,1/2-y,-z
1/2+x,1/2-y,1/2+z
loop_
_atom_site_type_symbol
_atom_site_label
_atom_site_fract_x
_atom_site_fract_y
_atom_site_fract_z
Si Si1 0.086378 0.526659 0.034113
Si Si2 0.511301 0.235171 0.486729
Si Si3 0.170962 0.143834 0.711751
Si Si4 0.378257 0.311693 0.895761
Si Si5 0.926813 0.258022 0.647088
O O1 0.869314 0.440937 0.138890
O O2 0.069348 0.623810 0.083106
O O3 0.033119 0.605467 0.011518
O O4 0.308571 0.444905 0.930118
O O5 0.305434 0.247011 0.621244
O O6 0.753243 0.236817 0.404551
O O7 0.518633 0.297510 0.431188
O O8 0.034265 0.188315 0.821755
O O9 0.000000 0.092123 0.750000
O O10 0.652177 0.289646 0.771261
O O11 0.250000 0.250000 0.000000
#
# Coordination Sequence:
#
# PCOD9287277 Si02
#       5
#     8   8   8   8   8
#     4   9  22  34  58  91 110 149 194 236 289 334
#     4   9  21  35  56  90 112 145 195 233 292 335
#     4  11  21  37  59  83 118 150 192 239 281 340
#     4  11  17  35  60  87 118 144 194 246 281 339
#     4  10  22  35  59  85 121 149 184 244 293 335
#
# _framework density 21.699255999999998
#
# number of rings (size 3 to 8) (size 9 to 14) (size 15 to 20)
#    1.200    0.800    4.000    3.000    5.600    0.800 
#    0.000    0.000    4.400    2.400    0.000    0.000 
#    0.000    0.000    0.000    0.000    0.000    0.000 
#
# Total GULP energy -111504.508253 kJ/mol
# GULP energy per Si atom -5575.225413 kJ/mol
# Density = 2.164987 g / cm^3
# Si number density = 21.699256 Si / 1000 Ang^3
#
#
#
# Elastic Constant Matrix: (Units=GPa)
#
#
# Indices 1 2 3 4 5 6 
#
# 1 132.9068 42.1539 30.2728 0.0011 17.4807 0.0010
# 2 42.1539 28.1443 2.4223 -0.0005 2.8059 0.0007
# 3 30.2728 2.4223 104.1535 -0.0008 -0.2778 -0.0041
# 4 0.0011 -0.0005 -0.0008 27.0516 0.0068 7.2150
# 5 17.4807 2.8059 -0.2778 0.0068 46.1259 0.0008
# 6 0.0010 0.0007 -0.0041 7.2150 0.0008 30.8792
#
#
#
# Elastic Compliance Matrix: (Units=1/GPa)
#
#
# Indices 1 2 3 4 5 6 
#
# 1 0.016944 -0.024509 -0.004368 0.000000 -0.004957 0.000000
# 2 -0.024509 0.071272 0.005479 0.000001 0.004986 -0.000001
# 3 -0.004368 0.005479 0.010747 0.000000 0.001387 0.000001
# 4 0.000000 0.000001 0.000000 0.039423 -0.000006 -0.009211
# 5 -0.004957 0.004986 0.001387 -0.000006 0.023263 0.000001
# 6 0.000000 -0.000001 0.000001 -0.009211 0.000001 0.034536
#
#
# Mechanical properties :
#
#
# Convention : Reuss Voigt Hill
#
# Bulk Modulus (GPa) = 19.16899 46.10028 32.63464
# Shear Modulus (GPa) = 19.20337 33.50171 26.35254
#
# Velocity S-wave (km/s) = 2.97809 3.93353 3.48867
# Velocity P-wave (km/s) = 4.54736 6.47467 5.59463
#
# Compressibility (1/GPa) = 0.05216760
#
# Stress axis : x y z
#
# Youngs Moduli (GPa) = 59.01629 14.03085 93.04815
#
# Poissons Ratio (x) = 0.34388 0.40645
# Poissons Ratio (y) = 1.44643 -0.50985
# Poissons Ratio (z) = 0.25780 -0.07688
#
# Static dielectric constant tensor:
#      x y z
#    x 1.827470 0.000000 0.053970 
#    y 0.000000 1.777180 0.000000 
#    z 0.053970 0.000000 1.887680 
# 
# From -- ./inp_files/310717.got.cif
#   From: 2010.05.17/outbox.cif.g08.bks.cpg/sg15_156_cif.got.tgz:310717.got - 2010.06.03 18:47:42.
