data_PCOD9287353
_publ_section_title
;
Structure prediction by ZEFSAII (Michael W. Deem and Ramdas Pophale) SiO2 
 PCOD9287353
Probable space group: C 2/C
;
_chemical_formula_sum "Si O2"
_cell_formula_units_Z 60
_cell_length_a 21.685635
_cell_length_b 5.740307
_cell_length_c 20.015409
_cell_angle_alpha 90.000000
_cell_angle_beta 111.112174
_cell_angle_gamma 90.000000
_cell_volume 2324.321122
_symmetry_space_group_name_H-M "C 2/C"
_symmetry_group_IT_number 15
_symmetry_cell_setting 'monoclinic'
loop_
_space_group_symop_operation_xyz
x,y,z
-x,y,1/2-z
-x,-y,-z
x,-y,1/2+z
1/2+x,1/2+y,z
1/2-x,1/2+y,1/2-z
1/2-x,1/2-y,-z
1/2+x,1/2-y,1/2+z
loop_
_atom_site_type_symbol
_atom_site_label
_atom_site_fract_x
_atom_site_fract_y
_atom_site_fract_z
Si Si1 0.596196 0.875297 0.785669
Si Si2 0.999031 0.837803 0.352961
Si Si3 0.721580 0.967537 0.289744
Si Si4 0.575956 0.818181 0.990997
Si Si5 0.261504 0.615183 0.101366
Si Si6 0.830105 0.294813 0.363676
Si Si7 0.000000 0.221488 0.250000
Si Si8 0.358261 0.679586 0.021819
O O1 0.567036 0.732296 0.712175
O O2 0.559399 0.791965 0.837864
O O3 0.674022 0.872673 0.816693
O O4 0.565563 0.129439 0.764491
O O5 0.004227 0.742323 0.430365
O O6 0.009548 0.092543 0.325241
O O7 0.718012 0.713764 0.319524
O O8 0.684392 0.960524 0.204749
O O9 0.796135 0.058077 0.324774
O O10 0.596682 0.808093 0.077458
O O11 0.608217 0.567282 0.981723
O O12 0.600874 0.075793 0.974104
O O13 0.216941 0.386337 0.094038
O O14 0.326051 0.637146 0.081646
O O15 0.207096 0.790274 0.049136
#
# Coordination Sequence:
#
# PCOD9287353 Si02
#       8
#     8   8   8   8   8   8   4   8
#     4   9  21  36  61  88 123 161 209 258 329 374
#     4   9  20  38  60  96 120 155 204 276 319 384
#     4  12  22  41  58  86 126 174 220 253 312 379
#     4  11  23  40  64  94 132 162 210 266 329 376
#     4  10  22  36  57  86 125 159 214 258 309 385
#     4  11  25  40  59  88 126 175 216 258 305 388
#     4   8  18  38  60  90 118 156 206 262 328 382
#     4  10  23  36  60  95 124 166 196 266 332 379
#
# _framework density 25.813991000000001
#
# number of rings (size 3 to 8) (size 9 to 14) (size 15 to 20)
#    0.000    2.133    2.667    0.800    9.333    2.667 
#    0.000    0.667    0.000    0.800    0.000    0.000 
#    0.000    0.000    0.000    0.000    0.000    0.000 
#
# Total GULP energy -167040.101681 kJ/mol
# GULP energy per Si atom -5568.003389 kJ/mol
# Density = 2.575524 g / cm^3
# Si number density = 25.813991 Si / 1000 Ang^3
#
#
#
# Elastic Constant Matrix: (Units=GPa)
#
#
# Indices 1 2 3 4 5 6 
#
# 1 30.8804 13.8577 -5.0692 0.0000 10.2014 0.0000
# 2 13.8577 95.9935 3.2599 -0.0001 -3.2635 0.0001
# 3 -5.0692 3.2599 115.2817 0.0000 8.8508 0.0000
# 4 0.0000 -0.0001 0.0000 36.4669 0.0000 8.9799
# 5 10.2014 -3.2635 8.8508 0.0000 23.8249 0.0000
# 6 0.0000 0.0001 0.0000 8.9799 0.0000 12.5923
#
#
#
# Elastic Compliance Matrix: (Units=1/GPa)
#
#
# Indices 1 2 3 4 5 6 
#
# 1 0.042998 -0.007038 0.003682 0.000000 -0.020743 0.000000
# 2 -0.007038 0.011638 -0.001021 0.000000 0.004987 0.000000
# 3 0.003682 -0.001021 0.009261 0.000000 -0.005157 0.000000
# 4 0.000000 0.000000 0.000000 0.033263 0.000000 -0.023721
# 5 -0.020743 0.004987 -0.005157 0.000000 0.053454 0.000000
# 6 0.000000 0.000000 0.000000 -0.023721 0.000000 0.096330
#
#
# Mechanical properties :
#
#
# Convention : Reuss Voigt Hill
#
# Bulk Modulus (GPa) = 18.13449 29.58361 23.85905
# Shear Modulus (GPa) = 18.24296 29.91729 24.08012
#
# Velocity S-wave (km/s) = 2.66128 3.40804 3.05754
# Velocity P-wave (km/s) = 4.05999 5.19341 4.66128
#
# Compressibility (1/GPa) = 0.05514354
#
# Stress axis : x y z
#
# Youngs Moduli (GPa) = 23.25686 85.92881 107.97799
#
# Poissons Ratio (x) = 0.60472 -0.39761
# Poissons Ratio (y) = 0.16367 0.11029
# Poissons Ratio (z) = -0.08564 0.08777
#
# Static dielectric constant tensor:
#      x y z
#    x 2.067550 0.000000 -0.042270 
#    y 0.000000 2.090930 0.000000 
#    z -0.042270 0.000000 2.126490 
# 
# From -- ./inp_files/256599.got.cif
#   From: 2010.05.17/outbox.cif.g08.bks.cpg/sg15_129_cif.got.tgz:256599.got - 2010.06.03 18:47:42.
