data_PCOD9287388
_publ_section_title
;
Structure prediction by ZEFSAII (Michael W. Deem and Ramdas Pophale) SiO2 
 PCOD9287388
Probable space group: C 2/C
;
_chemical_formula_sum "Si O2"
_cell_formula_units_Z 64
_cell_length_a 20.365089
_cell_length_b 20.902271
_cell_length_c 10.942664
_cell_angle_alpha 90.000000
_cell_angle_beta 139.645742
_cell_angle_gamma 90.000000
_cell_volume 3016.132979
_symmetry_space_group_name_H-M "C 2/C"
_symmetry_group_IT_number 15
_symmetry_cell_setting 'monoclinic'
loop_
_space_group_symop_operation_xyz
x,y,z
-x,y,1/2-z
-x,-y,-z
x,-y,1/2+z
1/2+x,1/2+y,z
1/2-x,1/2+y,1/2-z
1/2-x,1/2-y,-z
1/2+x,1/2-y,1/2+z
loop_
_atom_site_type_symbol
_atom_site_label
_atom_site_fract_x
_atom_site_fract_y
_atom_site_fract_z
Si Si1 0.646448 0.054327 0.386525
Si Si2 0.700669 0.749138 0.230583
Si Si3 0.216192 0.369997 0.373716
Si Si4 0.775822 0.512569 0.740687
Si Si5 0.980509 0.228096 0.868638
Si Si6 0.792609 0.384327 0.852317
Si Si7 0.017178 0.371611 0.541716
Si Si8 0.734418 0.683047 0.907617
O O1 0.664160 0.027407 0.547458
O O2 0.540301 0.081591 0.186881
O O3 0.721815 0.116334 0.481105
O O4 0.671425 0.003648 0.314721
O O5 0.745928 0.795789 0.397312
O O6 0.763677 0.688062 0.278598
O O7 0.701222 0.800953 0.121818
O O8 0.588552 0.720649 0.089323
O O9 0.275486 0.420372 0.371099
O O10 0.220011 0.385953 0.520971
O O11 0.097753 0.372716 0.165424
O O12 0.728164 0.443366 0.705665
O O13 0.955611 0.301241 0.869600
O O14 0.887902 0.182931 0.777944
O O15 0.000000 0.221937 0.750000
O O16 0.906160 0.391493 0.958670
O O17 0.750000 0.750000 0.000000
#
# Coordination Sequence:
#
# PCOD9287388 Si02
#       8
#     8   8   8   8   8   8   8   8
#     4  11  22  39  60  88 121 171 199 260 304 378
#     4  11  22  38  64  92 122 160 205 258 313 369
#     4  11  23  39  59  91 120 167 204 251 307 383
#     4  11  23  39  58  86 123 166 211 245 310 367
#     4  11  21  33  59  98 122 149 199 261 312 366
#     4  11  22  42  59  85 125 166 205 251 309 370
#     4  10  22  36  59  86 126 157 203 248 306 369
#     4  12  19  37  62  92 124 154 204 258 319 357
#
# _framework density 21.219223
#
# number of rings (size 3 to 8) (size 9 to 14) (size 15 to 20)
#    0.000    1.000    6.250    1.500    1.750    2.000 
#    4.500    0.000    0.000    0.750    3.250    0.000 
#    0.000    0.000    0.000    0.000    0.000    0.000 
#
# Total GULP energy -178142.576056 kJ/mol
# GULP energy per Si atom -5566.955502 kJ/mol
# Density = 2.117093 g / cm^3
# Si number density = 21.219223 Si / 1000 Ang^3
#
#
#
# Elastic Constant Matrix: (Units=GPa)
#
#
# Indices 1 2 3 4 5 6 
#
# 1 58.7280 15.3870 15.8629 0.0000 -4.8169 0.0000
# 2 15.3870 124.5290 16.5843 0.0000 -5.6659 0.0000
# 3 15.8629 16.5843 30.4922 0.0000 -15.7945 0.0000
# 4 0.0000 0.0000 0.0000 29.5839 0.0000 -17.7701
# 5 -4.8169 -5.6659 -15.7945 0.0000 35.8107 0.0000
# 6 0.0000 0.0000 0.0000 -17.7701 0.0000 36.1250
#
#
#
# Elastic Compliance Matrix: (Units=1/GPa)
#
#
# Indices 1 2 3 4 5 6 
#
# 1 0.020120 -0.001118 -0.011080 0.000000 -0.002358 0.000000
# 2 -0.001118 0.008743 -0.004582 0.000000 -0.000788 0.000000
# 3 -0.011080 -0.004582 0.051720 0.000000 0.020596 0.000000
# 4 0.000000 0.000000 0.000000 0.047979 0.000000 0.023601
# 5 -0.002358 -0.000788 0.020596 0.000000 0.036567 0.000000
# 6 0.000000 0.000000 0.000000 0.023601 0.000000 0.039291
#
#
# Mechanical properties :
#
#
# Convention : Reuss Voigt Hill
#
# Bulk Modulus (GPa) = 21.26602 34.37972 27.82287
# Shear Modulus (GPa) = 19.71200 31.36493 25.53846
#
# Velocity S-wave (km/s) = 3.05121 3.84883 3.47299
# Velocity P-wave (km/s) = 4.73888 5.99905 5.40581
#
# Compressibility (1/GPa) = 0.04702338
#
# Stress axis : x y z
#
# Youngs Moduli (GPa) = 49.70181 114.38131 19.33493
#
# Poissons Ratio (x) = 0.12784 0.21424
# Poissons Ratio (y) = 0.05555 0.08859
# Poissons Ratio (z) = 0.55071 0.52406
#
# Static dielectric constant tensor:
#      x y z
#    x 1.835860 0.000000 -0.033660 
#    y 0.000000 1.858730 0.000000 
#    z -0.033660 0.000000 1.830080 
# 
# From -- ./inp_files/119728.got.cif
#   From: 2010.05.17/outbox.cif.g08.bks.cpg/sg15_60_cif.got.tgz:119728.got - 2010.06.03 18:47:42.
