data_PCOD9287746
_publ_section_title
;
Structure prediction by ZEFSAII (Michael W. Deem and Ramdas Pophale) SiO2 
 PCOD9287746
Probable space group: C 2/C
;
_chemical_formula_sum "Si O2"
_cell_formula_units_Z 64
_cell_length_a 16.378637
_cell_length_b 12.624983
_cell_length_c 19.018273
_cell_angle_alpha 90.000000
_cell_angle_beta 46.231129
_cell_angle_gamma 90.000000
_cell_volume 2839.871782
_symmetry_space_group_name_H-M "C 2/C"
_symmetry_group_IT_number 15
_symmetry_cell_setting 'monoclinic'
loop_
_space_group_symop_operation_xyz
x,y,z
-x,y,1/2-z
-x,-y,-z
x,-y,1/2+z
1/2+x,1/2+y,z
1/2-x,1/2+y,1/2-z
1/2-x,1/2-y,-z
1/2+x,1/2-y,1/2+z
loop_
_atom_site_type_symbol
_atom_site_label
_atom_site_fract_x
_atom_site_fract_y
_atom_site_fract_z
Si Si1 0.276981 0.206975 0.877628
Si Si2 0.657625 0.110349 0.516247
Si Si3 0.820172 0.144609 0.769993
Si Si4 0.601559 0.253526 0.020524
Si Si5 0.057761 0.110458 0.951438
Si Si6 0.929662 0.365915 0.718861
Si Si7 0.604789 0.905677 0.317166
Si Si8 0.302796 0.402708 0.422880
O O1 0.337265 0.176028 0.914033
O O2 0.163606 0.135847 0.937793
O O3 0.357315 0.181428 0.763771
O O4 0.225619 0.324327 0.916471
O O5 0.524965 0.096703 0.580966
O O6 0.725617 0.001903 0.488020
O O7 0.888477 0.116657 0.658548
O O8 0.840050 0.270489 0.769540
O O9 0.692962 0.108387 0.827708
O O10 0.865766 0.083089 0.811217
O O11 0.539581 0.299674 0.989439
O O12 0.517801 0.170844 0.107235
O O13 0.624113 0.354825 0.057999
O O14 0.718345 0.192070 0.950204
O O15 0.000000 0.000000 0.000000
O O16 0.880625 0.480564 0.730299
O O17 0.000000 0.368051 0.750000
#
# Coordination Sequence:
#
# PCOD9287746 Si02
#       8
#     8   8   8   8   8   8   8   8
#     4  10  24  44  63  96 130 174 237 275 330 421
#     4  11  23  43  69  92 133 179 224 282 339 409
#     4  10  25  39  62 102 140 164 224 291 333 403
#     4  10  22  37  67 101 132 173 223 284 341 407
#     4  10  22  43  63  90 135 180 217 271 340 410
#     4  11  20  42  71  96 132 182 229 280 337 410
#     4  11  24  43  71  98 132 185 231 277 347 415
#     4  11  22  39  63 103 133 168 220 286 344 394
#
# _framework density 22.536228999999999
#
# number of rings (size 3 to 8) (size 9 to 14) (size 15 to 20)
#    0.000    1.500    2.500    1.875    1.750    5.500 
#    2.250    0.000    5.500    0.000    0.000    0.000 
#    0.000    0.000    0.000    0.000    0.000    0.000 
#
# Total GULP energy -178766.382425 kJ/mol
# GULP energy per Si atom -5586.449451 kJ/mol
# Density = 2.248494 g / cm^3
# Si number density = 22.536229 Si / 1000 Ang^3
#
#
#
# Elastic Constant Matrix: (Units=GPa)
#
#
# Indices 1 2 3 4 5 6 
#
# 1 110.7369 35.7746 5.4736 0.0000 -19.0346 0.0000
# 2 35.7746 87.9270 22.2051 0.0000 -5.9679 0.0000
# 3 5.4736 22.2051 38.8749 0.0000 -5.5916 0.0000
# 4 0.0000 0.0000 0.0000 27.4625 0.0000 -7.1625
# 5 -19.0346 -5.9679 -5.5916 0.0000 31.0877 0.0000
# 6 0.0000 0.0000 0.0000 -7.1625 0.0000 34.6646
#
#
#
# Elastic Compliance Matrix: (Units=1/GPa)
#
#
# Indices 1 2 3 4 5 6 
#
# 1 0.011604 -0.004793 0.002047 0.000000 0.006553 0.000000
# 2 -0.004793 0.015315 -0.008287 0.000000 -0.001485 0.000000
# 3 0.002047 -0.008287 0.030920 0.000000 0.005224 0.000000
# 4 0.000000 0.000000 0.000000 0.038487 0.000000 0.007952
# 5 0.006553 -0.001485 0.005224 0.000000 0.036834 0.000000
# 6 0.000000 0.000000 0.000000 0.007952 0.000000 0.030491
#
#
# Mechanical properties :
#
#
# Convention : Reuss Voigt Hill
#
# Bulk Modulus (GPa) = 27.95439 40.49394 34.22416
# Shear Modulus (GPa) = 25.29813 30.24866 27.77340
#
# Velocity S-wave (km/s) = 3.35409 3.66761 3.51435
# Velocity P-wave (km/s) = 5.23746 5.99521 5.62910
#
# Compressibility (1/GPa) = 0.03577256
#
# Stress axis : x y z
#
# Youngs Moduli (GPa) = 86.17550 65.29416 32.34142
#
# Poissons Ratio (x) = 0.31299 -0.06619
# Poissons Ratio (y) = 0.41308 0.26801
# Poissons Ratio (z) = -0.17637 0.54108
#
# Static dielectric constant tensor:
#      x y z
#    x 1.815540 0.000000 0.016610 
#    y 0.000000 1.826200 0.000000 
#    z 0.016610 0.000000 1.974120 
# 
# From -- ./inp_files/248600.got.cif
#   From: 2010.05.17/outbox.cif.g08.bks.cpg/sg15_125_cif.got.tgz:248600.got - 2010.06.03 18:47:42.
