data_PCOD9287878
_publ_section_title
;
Structure prediction by ZEFSAII (Michael W. Deem and Ramdas Pophale) SiO2 
 PCOD9287878
Probable space group: C 2/C
;
_chemical_formula_sum "Si O2"
_cell_formula_units_Z 48
_cell_length_a 12.219594
_cell_length_b 21.953256
_cell_length_c 13.670579
_cell_angle_alpha 90.000000
_cell_angle_beta 138.946787
_cell_angle_gamma 90.000000
_cell_volume 2408.513626
_symmetry_space_group_name_H-M "C 2/C"
_symmetry_group_IT_number 15
_symmetry_cell_setting 'monoclinic'
loop_
_space_group_symop_operation_xyz
x,y,z
-x,y,1/2-z
-x,-y,-z
x,-y,1/2+z
1/2+x,1/2+y,z
1/2-x,1/2+y,1/2-z
1/2-x,1/2-y,-z
1/2+x,1/2-y,1/2+z
loop_
_atom_site_type_symbol
_atom_site_label
_atom_site_fract_x
_atom_site_fract_y
_atom_site_fract_z
Si Si1 0.092207 0.599278 0.089962
Si Si2 0.434104 0.457750 0.103793
Si Si3 0.784260 0.822937 0.435614
Si Si4 0.556281 0.581653 0.102750
Si Si5 0.489401 0.203750 0.587408
Si Si6 0.068532 0.505126 0.898382
O O1 0.287553 0.611324 0.237731
O O2 0.029552 0.556348 0.136016
O O3 0.006174 0.663230 0.007350
O O4 0.054675 0.556234 0.971496
O O5 0.500000 0.430385 0.250000
O O6 0.549878 0.513233 0.142530
O O7 0.415401 0.417244 0.994812
O O8 0.258069 0.486382 0.012355
O O9 0.666916 0.819439 0.451757
O O10 0.657900 0.807249 0.262126
O O11 0.934013 0.773456 0.535998
O O12 0.878701 0.886857 0.498342
O O13 0.000000 0.529031 0.750000
#
# Coordination Sequence:
#
# PCOD9287878 Si02
#       6
#     8   8   8   8   8   8
#     4  11  23  36  60  85 116 154 192 235 285 338
#     4  11  23  38  56  85 120 155 189 233 285 339
#     4  10  22  38  60  84 117 147 190 236 287 341
#     4  11  23  37  58  87 116 153 192 235 285 340
#     4  10  22  38  59  86 113 151 187 236 289 338
#     4  11  23  38  56  84 120 155 191 232 283 341
#
# _framework density 19.929303999999998
#
# number of rings (size 3 to 8) (size 9 to 14) (size 15 to 20)
#    0.000    1.333    3.333    2.000    7.000    1.333 
#    0.000    0.000    0.000    2.000    0.000    0.000 
#    0.000    0.000    0.000    0.000    0.000    0.000 
#
# Total GULP energy -133983.850845 kJ/mol
# GULP energy per Si atom -5582.660452 kJ/mol
# Density = 1.988394 g / cm^3
# Si number density = 19.929304 Si / 1000 Ang^3
#
#
#
# Elastic Constant Matrix: (Units=GPa)
#
#
# Indices 1 2 3 4 5 6 
#
# 1 33.7506 -2.5342 8.7621 0.0000 -10.4307 0.0000
# 2 -2.5342 48.0790 10.3731 0.0000 -4.1088 0.0000
# 3 8.7621 10.3731 107.0165 0.0000 -21.7566 0.0000
# 4 0.0000 0.0000 0.0000 25.6877 0.0000 7.5434
# 5 -10.4307 -4.1088 -21.7566 0.0000 20.2911 0.0000
# 6 0.0000 0.0000 0.0000 7.5434 0.0000 24.6575
#
#
#
# Elastic Compliance Matrix: (Units=1/GPa)
#
#
# Indices 1 2 3 4 5 6 
#
# 1 0.035854 0.003426 0.000793 0.000000 0.019975 0.000000
# 2 0.003426 0.021685 -0.001447 0.000000 0.004600 0.000000
# 3 0.000793 -0.001447 0.012075 0.000000 0.013062 0.000000
# 4 0.000000 0.000000 0.000000 0.042772 0.000000 -0.013085
# 5 0.019975 0.004600 0.013062 0.000000 0.074488 0.000000
# 6 0.000000 0.000000 0.000000 -0.013085 0.000000 0.044559
#
#
# Mechanical properties :
#
#
# Convention : Reuss Voigt Hill
#
# Bulk Modulus (GPa) = 13.30536 24.67202 18.98869
# Shear Modulus (GPa) = 19.92501 25.61028 22.76765
#
# Velocity S-wave (km/s) = 3.16537 3.58866 3.38364
# Velocity P-wave (km/s) = 4.47774 5.43856 4.98137
#
# Compressibility (1/GPa) = 0.07515765
#
# Stress axis : x y z
#
# Youngs Moduli (GPa) = 27.89118 46.11473 82.81433
#
# Poissons Ratio (x) = -0.15798 -0.06570
# Poissons Ratio (y) = -0.09555 0.11984
# Poissons Ratio (z) = -0.02213 0.06673
#
# Static dielectric constant tensor:
#      x y z
#    x 1.715220 0.000000 -0.033400 
#    y 0.000000 1.741510 0.000000 
#    z -0.033400 0.000000 1.749700 
# 
# From -- ./inp_files/31913.got.cif
#   From: 2010.05.17/outbox.cif.g08.bks.cpg/sg15_16_cif.got.tgz:31913.got - 2010.06.03 18:47:42.
