data_PCOD9287508
_publ_section_title
;
Structure prediction by ZEFSAII (Michael W. Deem and Ramdas Pophale) SiO2 
 PCOD9287508
Probable space group: C 2/C
;
_chemical_formula_sum "Si O2"
_cell_formula_units_Z 60
_cell_length_a 26.161174
_cell_length_b 15.966333
_cell_length_c 20.074912
_cell_angle_alpha 90.000000
_cell_angle_beta 19.691230
_cell_angle_gamma 90.000000
_cell_volume 2825.419919
_symmetry_space_group_name_H-M "C 2/C"
_symmetry_group_IT_number 15
_symmetry_cell_setting 'monoclinic'
loop_
_space_group_symop_operation_xyz
x,y,z
-x,y,1/2-z
-x,-y,-z
x,-y,1/2+z
1/2+x,1/2+y,z
1/2-x,1/2+y,1/2-z
1/2-x,1/2-y,-z
1/2+x,1/2-y,1/2+z
loop_
_atom_site_type_symbol
_atom_site_label
_atom_site_fract_x
_atom_site_fract_y
_atom_site_fract_z
Si Si1 0.584019 0.465776 0.462865
Si Si2 0.000000 0.830034 0.750000
Si Si3 0.527565 0.815312 0.480245
Si Si4 0.271616 0.316753 0.285220
Si Si5 0.204089 0.714771 0.418823
Si Si6 0.877110 0.442727 0.946805
Si Si7 0.116252 0.559490 0.432427
Si Si8 0.187678 0.920311 0.611893
O O1 0.500000 0.500000 0.500000
O O2 0.637335 0.372135 0.380350
O O3 0.732799 0.522474 0.287420
O O4 0.464142 0.458442 0.668562
O O5 0.062518 0.771576 0.614319
O O6 0.140378 0.888816 0.597987
O O7 0.368486 0.765837 0.677625
O O8 0.604841 0.809656 0.457967
O O9 0.652950 0.767418 0.282134
O O10 0.499384 0.906358 0.481776
O O11 0.250455 0.377002 0.374265
O O12 0.158867 0.644773 0.420182
O O13 0.257915 0.662146 0.416294
O O14 0.000000 0.397728 0.750000
O O15 0.921274 0.493032 0.961487
O O16 0.814437 0.512125 0.972321
#
# Coordination Sequence:
#
# PCOD9287508 Si02
#       8
#     8   4   8   8   8   8   8   8
#     4  11  18  41  62  86 121 167 209 246 315 355
#     4  12  26  36  52  98 128 170 198 246 300 384
#     4  12  22  39  65 102 121 154 210 265 316 349
#     4  11  23  40  66  93 126 159 207 264 309 369
#     4  11  21  37  59  88 135 159 202 240 310 369
#     4  10  24  42  61  83 125 171 205 245 310 374
#     4  10  22  36  66  92 118 164 200 258 299 373
#     4  11  22  38  61  81 127 172 200 242 303 379
#
# _framework density 21.235782
#
# number of rings (size 3 to 8) (size 9 to 14) (size 15 to 20)
#    0.000    1.067    6.667    2.000    5.600    2.133 
#    2.400    0.667    0.000    0.000    0.000    0.000 
#    0.000    0.000    0.000    0.000    0.000    0.000 
#
# Total GULP energy -167432.943696 kJ/mol
# GULP energy per Si atom -5581.098123 kJ/mol
# Density = 2.118745 g / cm^3
# Si number density = 21.235782 Si / 1000 Ang^3
#
#
#
# Elastic Constant Matrix: (Units=GPa)
#
#
# Indices 1 2 3 4 5 6 
#
# 1 43.2086 18.8992 2.1938 -0.0006 -26.5407 0.0004
# 2 18.8992 67.4960 12.6270 -0.0014 -3.3353 0.0009
# 3 2.1938 12.6270 63.5494 -0.0020 6.6913 0.0015
# 4 -0.0006 -0.0014 -0.0020 27.7041 0.0008 -9.3926
# 5 -26.5407 -3.3353 6.6913 0.0008 32.6751 -0.0013
# 6 0.0004 0.0009 0.0015 -9.3926 -0.0013 5.7548
#
#
#
# Elastic Compliance Matrix: (Units=1/GPa)
#
#
# Indices 1 2 3 4 5 6 
#
# 1 0.057408 -0.012995 -0.004262 0.000005 0.046176 0.000017
# 2 -0.012995 0.018492 -0.002364 -0.000001 -0.008184 -0.000005
# 3 -0.004262 -0.002364 0.017111 -0.000001 -0.007207 -0.000007
# 4 0.000005 -0.000001 -0.000001 0.080814 0.000007 0.131898
# 5 0.046176 -0.008184 -0.007207 0.000007 0.068752 0.000028
# 6 0.000017 -0.000005 -0.000007 0.131898 0.000028 0.389044
#
#
# Mechanical properties :
#
#
# Convention : Reuss Voigt Hill
#
# Bulk Modulus (GPa) = 18.59800 26.85489 22.72644
# Shear Modulus (GPa) = 7.25915 22.59572 14.92743
#
# Velocity S-wave (km/s) = 1.85089 3.26550 2.65417
# Velocity P-wave (km/s) = 3.65302 5.18570 4.48531
#
# Compressibility (1/GPa) = 0.05376922
#
# Stress axis : x y z
#
# Youngs Moduli (GPa) = 17.41931 54.07656 58.44034
#
# Poissons Ratio (x) = 0.70274 0.24906
# Poissons Ratio (y) = 0.22637 0.13815
# Poissons Ratio (z) = 0.07424 0.12784
#
# Static dielectric constant tensor:
#      x y z
#    x 1.855590 0.000000 -0.048670 
#    y 0.000000 1.780550 0.000000 
#    z -0.048670 0.000000 1.775680 
# 
# From -- ./inp_files/257862.got.cif
#   From: 2010.05.17/outbox.cif.g08.bks.cpg/sg15_129_cif.got.tgz:257862.got - 2010.06.03 18:47:42.
