data_PCOD9287248
_publ_section_title
;
Structure prediction by ZEFSAII (Michael W. Deem and Ramdas Pophale) SiO2 
 PCOD9287248
Probable space group: C 2/C
;
_chemical_formula_sum "Si O2"
_cell_formula_units_Z 64
_cell_length_a 21.036665
_cell_length_b 23.126598
_cell_length_c 9.701732
_cell_angle_alpha 90.000000
_cell_angle_beta 53.361857
_cell_angle_gamma 90.000000
_cell_volume 3787.388579
_symmetry_space_group_name_H-M "C 2/C"
_symmetry_group_IT_number 15
_symmetry_cell_setting 'monoclinic'
loop_
_space_group_symop_operation_xyz
x,y,z
-x,y,1/2-z
-x,-y,-z
x,-y,1/2+z
1/2+x,1/2+y,z
1/2-x,1/2+y,1/2-z
1/2-x,1/2-y,-z
1/2+x,1/2-y,1/2+z
loop_
_atom_site_type_symbol
_atom_site_label
_atom_site_fract_x
_atom_site_fract_y
_atom_site_fract_z
Si Si1 0.947347 0.252242 0.183197
Si Si2 0.787993 0.198488 0.358571
Si Si3 0.561268 0.233351 0.282976
Si Si4 0.334174 0.122467 0.368365
Si Si5 0.298417 0.300026 0.514108
Si Si6 0.144107 0.370405 0.142073
Si Si7 0.421605 0.066844 0.032693
Si Si8 0.912495 0.432721 0.035865
O O1 0.881112 0.202085 0.271430
O O2 0.897907 0.312702 0.241983
O O3 0.000000 0.252735 0.250000
O O4 0.008282 0.247825 0.979133
O O5 0.750000 0.250000 0.500000
O O6 0.785517 0.205581 0.195505
O O7 0.731563 0.145554 0.474568
O O8 0.500000 0.210312 0.250000
O O9 0.619349 0.180259 0.242867
O O10 0.612346 0.284836 0.147260
O O11 0.242651 0.141636 0.488816
O O12 0.350192 0.075287 0.231667
O O13 0.375256 0.101730 0.456109
O O14 0.250000 0.250000 0.500000
O O15 0.142908 0.418533 0.261971
O O16 0.092755 0.393040 0.079955
O O17 0.422746 0.000130 0.986281
O O18 0.500336 0.083212 0.017401
#
# Coordination Sequence:
#
# PCOD9287248 Si02
#       8
#     8   8   8   8   8   8   8   8
#     4  11  22  33  53  79 104 140 177 212 264 317
#     4  10  22  36  52  75 107 138 176 219 262 317
#     4  11  20  33  53  74 107 137 179 218 254 318
#     4  11  21  34  52  73 105 143 178 213 266 311
#     4  10  22  35  51  76 104 141 177 219 262 312
#     4  11  21  36  54  73 109 146 178 213 270 317
#     4  11  21  37  51  74 108 139 184 228 254 301
#     4  11  23  33  52  78 103 142 184 225 258 298
#
# _framework density 16.898187
#
# number of rings (size 3 to 8) (size 9 to 14) (size 15 to 20)
#    0.000    1.250    2.500    5.250   10.500    2.000 
#    0.000    0.000    0.000    0.000    0.000    0.000 
#    0.000   20.000    0.000    0.000    0.000    0.000 
#
# Total GULP energy -178393.086463 kJ/mol
# GULP energy per Si atom -5574.783952 kJ/mol
# Density = 1.685973 g / cm^3
# Si number density = 16.898187 Si / 1000 Ang^3
#
#
#
# Elastic Constant Matrix: (Units=GPa)
#
#
# Indices 1 2 3 4 5 6 
#
# 1 46.6690 16.2264 22.9407 0.0000 -4.2643 0.0000
# 2 16.2264 43.3718 21.8389 0.0000 -8.7490 0.0000
# 3 22.9407 21.8389 112.6457 0.0000 1.0789 0.0000
# 4 0.0000 0.0000 0.0000 20.1096 0.0000 -2.6378
# 5 -4.2643 -8.7490 1.0789 0.0000 27.2006 0.0000
# 6 0.0000 0.0000 0.0000 -2.6378 0.0000 36.4185
#
#
#
# Elastic Compliance Matrix: (Units=1/GPa)
#
#
# Indices 1 2 3 4 5 6 
#
# 1 0.026093 -0.007428 -0.003892 0.000000 0.001856 0.000000
# 2 -0.007428 0.029749 -0.004337 0.000000 0.008576 0.000000
# 3 -0.003892 -0.004337 0.010534 0.000000 -0.002423 0.000000
# 4 0.000000 0.000000 0.000000 0.050205 0.000000 0.003636
# 5 0.001856 0.008576 -0.002423 0.000000 0.039910 0.000000
# 6 0.000000 0.000000 0.000000 0.003636 0.000000 0.027722
#
#
# Mechanical properties :
#
#
# Convention : Reuss Voigt Hill
#
# Bulk Modulus (GPa) = 28.52026 36.07762 32.29894
# Shear Modulus (GPa) = 22.00582 26.19110 24.09846
#
# Velocity S-wave (km/s) = 3.61260 3.94119 3.78047
# Velocity P-wave (km/s) = 5.85794 6.48899 6.18153
#
# Compressibility (1/GPa) = 0.03506279
#
# Stress axis : x y z
#
# Youngs Moduli (GPa) = 38.32491 33.61427 94.93122
#
# Poissons Ratio (x) = 0.24969 0.36943
# Poissons Ratio (y) = 0.28468 0.41171
# Poissons Ratio (z) = 0.14914 0.14578
#
# Static dielectric constant tensor:
#      x y z
#    x 1.594240 0.000000 -0.026860 
#    y 0.000000 1.634390 0.000000 
#    z -0.026860 0.000000 1.611130 
# 
# From -- ./inp_files/58630.got.cif
#   From: 2010.05.17/outbox.cif.g08.bks.cpg/sg15_30_cif.got.tgz:58630.got - 2010.06.03 18:47:42.
