data_PCOD9287391
_publ_section_title
;
Structure prediction by ZEFSAII (Michael W. Deem and Ramdas Pophale) SiO2 
 PCOD9287391
Probable space group: C 2/C
;
_chemical_formula_sum "Si O2"
_cell_formula_units_Z 48
_cell_length_a 12.993112
_cell_length_b 10.510859
_cell_length_c 18.031834
_cell_angle_alpha 90.000000
_cell_angle_beta 66.761398
_cell_angle_gamma 90.000000
_cell_volume 2262.795117
_symmetry_space_group_name_H-M "C 2/C"
_symmetry_group_IT_number 15
_symmetry_cell_setting 'monoclinic'
loop_
_space_group_symop_operation_xyz
x,y,z
-x,y,1/2-z
-x,-y,-z
x,-y,1/2+z
1/2+x,1/2+y,z
1/2-x,1/2+y,1/2-z
1/2-x,1/2-y,-z
1/2+x,1/2-y,1/2+z
loop_
_atom_site_type_symbol
_atom_site_label
_atom_site_fract_x
_atom_site_fract_y
_atom_site_fract_z
Si Si1 0.716393 0.681440 0.934487
Si Si2 0.244286 0.596203 0.126307
Si Si3 0.779884 0.267470 0.723098
Si Si4 0.513226 0.159332 0.131910
Si Si5 0.058711 0.373684 0.311392
Si Si6 0.473118 0.730652 0.028446
O O1 0.772707 0.547737 0.896740
O O2 0.736435 0.778698 0.860684
O O3 0.750000 0.750000 0.000000
O O4 0.584487 0.651065 0.979953
O O5 0.251001 0.617886 0.212871
O O6 0.357997 0.653167 0.061038
O O7 0.134948 0.674894 0.132726
O O8 0.914364 0.246845 0.688041
O O9 0.690863 0.159664 0.771258
O O10 0.467637 0.020883 0.167346
O O11 0.528184 0.170418 0.039368
O O12 0.014066 0.296539 0.395206
O O13 0.000000 0.336839 0.250000
#
# Coordination Sequence:
#
# PCOD9287391 Si02
#       6
#     8   8   8   8   8   8
#     4  11  22  40  64  91 122 164 210 255 306 375
#     4  11  22  40  62  88 123 163 202 255 313 371
#     4  10  22  36  59  90 119 152 202 258 305 357
#     4  11  21  38  60  87 119 161 204 249 310 379
#     4  11  21  38  62  87 117 160 207 255 310 377
#     4  10  23  38  59  91 125 156 203 260 311 365
#
# _framework density 21.212702
#
# number of rings (size 3 to 8) (size 9 to 14) (size 15 to 20)
#    0.000    1.333    0.000    7.000    0.000    1.333 
#    0.000    1.667    0.000   34.000    0.000    0.000 
#    0.000    0.000    0.000    0.000    0.000    0.000 
#
# Total GULP energy -133860.641225 kJ/mol
# GULP energy per Si atom -5577.526718 kJ/mol
# Density = 2.116442 g / cm^3
# Si number density = 21.212702 Si / 1000 Ang^3
#
#
#
# Elastic Constant Matrix: (Units=GPa)
#
#
# Indices 1 2 3 4 5 6 
#
# 1 116.8120 41.4839 51.2353 0.0000 -18.4093 0.0000
# 2 41.4839 56.9813 43.5750 0.0000 4.2884 0.0000
# 3 51.2353 43.5750 165.5644 0.0000 8.9390 0.0000
# 4 0.0000 0.0000 0.0000 31.3218 0.0000 -3.3791
# 5 -18.4093 4.2884 8.9390 0.0000 51.2128 0.0000
# 6 0.0000 0.0000 0.0000 -3.3791 0.0000 21.9489
#
#
#
# Elastic Compliance Matrix: (Units=1/GPa)
#
#
# Indices 1 2 3 4 5 6 
#
# 1 0.013540 -0.008584 -0.002254 0.000000 0.005979 0.000000
# 2 -0.008584 0.027450 -0.004318 0.000000 -0.004631 0.000000
# 3 -0.002254 -0.004318 0.007973 0.000000 -0.001840 0.000000
# 4 0.000000 0.000000 0.000000 0.032466 0.000000 0.004998
# 5 0.005979 -0.004631 -0.001840 0.000000 0.022385 0.000000
# 6 0.000000 0.000000 0.000000 0.004998 0.000000 0.046330
#
#
# Mechanical properties :
#
#
# Convention : Reuss Voigt Hill
#
# Bulk Modulus (GPa) = 53.61561 67.99401 60.80481
# Shear Modulus (GPa) = 26.78491 34.43427 30.60959
#
# Velocity S-wave (km/s) = 3.55728 4.03337 3.80278
# Velocity P-wave (km/s) = 6.49634 7.33579 6.92879
#
# Compressibility (1/GPa) = 0.01865129
#
# Stress axis : x y z
#
# Youngs Moduli (GPa) = 73.85471 36.43026 125.42027
#
# Poissons Ratio (x) = 0.31272 0.28266
# Poissons Ratio (y) = 0.63398 0.54157
# Poissons Ratio (z) = 0.16644 0.15731
#
# Static dielectric constant tensor:
#      x y z
#    x 1.824880 0.000000 -0.013210 
#    y 0.000000 1.763150 0.000000 
#    z -0.013210 0.000000 1.775610 
# 
# From -- ./inp_files/196484.got.cif
#   From: 2010.05.17/outbox.cif.g08.bks.cpg/sg15_99_cif.got.tgz:196484.got - 2010.06.03 18:47:42.
