data_PCOD9287678
_publ_section_title
;
Structure prediction by ZEFSAII (Michael W. Deem and Ramdas Pophale) SiO2 
 PCOD9287678
Probable space group: C 2/C
;
_chemical_formula_sum "Si O2"
_cell_formula_units_Z 44
_cell_length_a 8.947959
_cell_length_b 16.907492
_cell_length_c 13.791753
_cell_angle_alpha 90.000000
_cell_angle_beta 111.359168
_cell_angle_gamma 90.000000
_cell_volume 1943.209071
_symmetry_space_group_name_H-M "C 2/C"
_symmetry_group_IT_number 15
_symmetry_cell_setting 'monoclinic'
loop_
_space_group_symop_operation_xyz
x,y,z
-x,y,1/2-z
-x,-y,-z
x,-y,1/2+z
1/2+x,1/2+y,z
1/2-x,1/2+y,1/2-z
1/2-x,1/2-y,-z
1/2+x,1/2-y,1/2+z
loop_
_atom_site_type_symbol
_atom_site_label
_atom_site_fract_x
_atom_site_fract_y
_atom_site_fract_z
Si Si1 0.200426 0.350245 0.118101
Si Si2 0.090540 0.656056 0.073839
Si Si3 0.500000 0.242573 0.250000
Si Si4 0.172868 0.090632 0.504234
Si Si5 0.469246 0.554791 0.626443
Si Si6 0.503450 0.991278 0.143006
O O1 0.340227 0.292953 0.186431
O O2 0.297685 0.405351 0.066705
O O3 0.123685 0.415788 0.171294
O O4 0.049475 0.311824 0.029615
O O5 0.061114 0.562273 0.088206
O O6 0.060760 0.695854 0.169793
O O7 0.257338 0.656539 0.053029
O O8 0.331026 0.042711 0.574466
O O9 0.089120 0.105809 0.588113
O O10 0.048335 0.034538 0.416319
O O11 0.500000 0.554518 0.750000
O O12 0.500000 0.024390 0.250000
#
# Coordination Sequence:
#
# PCOD9287678 Si02
#       6
#     8   8   4   8   8   8
#     4  11  22  41  64  94 128 181 222 276 333 407
#     4  11  22  43  64  98 132 174 228 277 333 400
#     4  12  26  40  70  94 144 180 222 272 356 402
#     4  10  22  37  63 102 130 165 222 296 315 387
#     4  11  20  36  65  97 133 168 217 273 344 380
#     4  11  20  38  70  96 125 172 235 274 325 397
#
# _framework density 22.642959000000001
#
# number of rings (size 3 to 8) (size 9 to 14) (size 15 to 20)
#    0.000    1.091    5.455    2.727    0.000    0.000 
#    0.000    0.909    4.000    0.000    0.000    0.000 
#    0.000    0.000    0.000    0.000    0.000    0.000 
#
# Total GULP energy -122642.254307 kJ/mol
# GULP energy per Si atom -5574.647923 kJ/mol
# Density = 2.259142 g / cm^3
# Si number density = 22.642959 Si / 1000 Ang^3
#
#
#
# Elastic Constant Matrix: (Units=GPa)
#
#
# Indices 1 2 3 4 5 6 
#
# 1 148.2539 23.5245 52.3189 0.0000 -25.7054 0.0000
# 2 23.5245 55.7470 29.2739 0.0000 -4.6872 0.0000
# 3 52.3189 29.2739 97.5660 0.0000 -25.2069 0.0000
# 4 0.0000 0.0000 0.0000 22.8455 0.0000 -2.3772
# 5 -25.7054 -4.6872 -25.2069 0.0000 29.9694 0.0000
# 6 0.0000 0.0000 0.0000 -2.3772 0.0000 23.0473
#
#
#
# Elastic Compliance Matrix: (Units=1/GPa)
#
#
# Indices 1 2 3 4 5 6 
#
# 1 0.008928 -0.001785 -0.002997 0.000000 0.004858 0.000000
# 2 -0.001785 0.021811 -0.006517 0.000000 -0.003602 0.000000
# 3 -0.002997 -0.006517 0.016462 0.000000 0.010256 0.000000
# 4 0.000000 0.000000 0.000000 0.044247 0.000000 0.004564
# 5 0.004858 -0.003602 0.010256 0.000000 0.045597 0.000000
# 6 0.000000 0.000000 0.000000 0.004564 0.000000 0.043860
#
#
# Mechanical properties :
#
#
# Convention : Reuss Voigt Hill
#
# Bulk Modulus (GPa) = 40.64746 56.86685 48.75715
# Shear Modulus (GPa) = 23.61770 28.26909 25.94339
#
# Velocity S-wave (km/s) = 3.23313 3.53720 3.38858
# Velocity P-wave (km/s) = 5.65048 6.46928 6.07369
#
# Compressibility (1/GPa) = 0.02460178
#
# Stress axis : x y z
#
# Youngs Moduli (GPa) = 112.00129 45.84802 60.74689
#
# Poissons Ratio (x) = 0.08186 0.18206
# Poissons Ratio (y) = 0.19997 0.39591
# Poissons Ratio (z) = 0.33566 0.29881
#
# Static dielectric constant tensor:
#      x y z
#    x 1.874750 0.000000 -0.019400 
#    y 0.000000 1.914700 0.000000 
#    z -0.019400 0.000000 1.885270 
# 
# From -- ./inp_files/134959.got.cif
#   From: 2010.05.17/outbox.cif.g08.bks.cpg/sg15_68_cif.got.tgz:134959.got - 2010.06.03 18:47:42.
