data_PCOD9287231
_publ_section_title
;
Structure prediction by ZEFSAII (Michael W. Deem and Ramdas Pophale) SiO2 
 PCOD9287231
Probable space group: C 2/C
;
_chemical_formula_sum "Si O2"
_cell_formula_units_Z 52
_cell_length_a 26.355015
_cell_length_b 10.808743
_cell_length_c 9.322506
_cell_angle_alpha 90.000000
_cell_angle_beta 107.828001
_cell_angle_gamma 90.000000
_cell_volume 2528.127082
_symmetry_space_group_name_H-M "C 2/C"
_symmetry_group_IT_number 15
_symmetry_cell_setting 'monoclinic'
loop_
_space_group_symop_operation_xyz
x,y,z
-x,y,1/2-z
-x,-y,-z
x,-y,1/2+z
1/2+x,1/2+y,z
1/2-x,1/2+y,1/2-z
1/2-x,1/2-y,-z
1/2+x,1/2-y,1/2+z
loop_
_atom_site_type_symbol
_atom_site_label
_atom_site_fract_x
_atom_site_fract_y
_atom_site_fract_z
Si Si1 0.831227 0.732434 0.013198
Si Si2 0.387441 0.279615 0.777354
Si Si3 0.113630 0.515633 0.275502
Si Si4 0.271713 0.607844 0.684409
Si Si5 0.785140 0.126937 0.027083
Si Si6 0.000000 0.782596 0.750000
Si Si7 0.952405 0.436952 0.040860
O O1 0.874816 0.779711 0.936730
O O2 0.778735 0.699693 0.874223
O O3 0.845909 0.606602 0.110990
O O4 0.816606 0.832162 0.121303
O O5 0.342489 0.350162 0.648455
O O6 0.446309 0.330185 0.784646
O O7 0.378422 0.132505 0.730952
O O8 0.062436 0.517933 0.334558
O O9 0.098841 0.565097 0.106149
O O10 0.288276 0.589994 0.862728
O O11 0.257562 0.477969 0.599246
O O12 0.750000 0.250000 0.000000
O O13 0.971996 0.695698 0.607297
O O14 0.000000 0.500000 0.000000
#
# Coordination Sequence:
#
# PCOD9287231 Si02
#       7
#     8   8   8   8   8   4   8
#     4  11  23  41  61  96 133 168 220 272 331 402
#     4  11  22  40  62  96 133 176 215 276 326 401
#     4  11  21  31  59  89 126 170 211 259 329 387
#     4  11  27  42  67  96 130 172 221 274 339 392
#     4  12  25  45  71  96 134 172 222 275 336 389
#     4  10  22  34  62  92 130 178 220 264 338 384
#     4  11  17  32  50  85 127 163 209 262 317 388
#
# _framework density 20.568586
#
# number of rings (size 3 to 8) (size 9 to 14) (size 15 to 20)
#    0.000    0.923    6.154    1.846    6.462    0.000 
#    0.000    0.000    0.000    3.692    0.000    0.000 
#    0.000    0.000    0.000    0.000    0.000    0.000 
#
# Total GULP energy -145040.106098 kJ/mol
# GULP energy per Si atom -5578.465619 kJ/mol
# Density = 2.052177 g / cm^3
# Si number density = 20.568586 Si / 1000 Ang^3
#
#
#
# Elastic Constant Matrix: (Units=GPa)
#
#
# Indices 1 2 3 4 5 6 
#
# 1 83.2803 9.0340 18.3168 0.0000 -12.7349 0.0000
# 2 9.0340 44.8777 14.3334 0.0000 -9.5603 0.0000
# 3 18.3168 14.3334 127.5087 0.0000 -7.7966 0.0000
# 4 0.0000 0.0000 0.0000 31.1780 0.0000 5.0273
# 5 -12.7349 -9.5603 -7.7966 0.0000 37.5738 0.0000
# 6 0.0000 0.0000 0.0000 5.0273 0.0000 21.7348
#
#
#
# Elastic Compliance Matrix: (Units=1/GPa)
#
#
# Indices 1 2 3 4 5 6 
#
# 1 0.013059 -0.001348 -0.001494 0.000000 0.003773 0.000000
# 2 -0.001348 0.024391 -0.002225 0.000000 0.005288 0.000000
# 3 -0.001494 -0.002225 0.008348 0.000000 0.000660 0.000000
# 4 0.000000 0.000000 0.000000 0.033317 0.000000 -0.007706
# 5 0.003773 0.005288 0.000660 0.000000 0.029375 0.000000
# 6 0.000000 0.000000 0.000000 -0.007706 0.000000 0.047792
#
#
# Mechanical properties :
#
#
# Convention : Reuss Voigt Hill
#
# Bulk Modulus (GPa) = 28.03875 37.67055 32.85465
# Shear Modulus (GPa) = 28.04211 32.36281 30.20246
#
# Velocity S-wave (km/s) = 3.69636 3.97093 3.83610
# Velocity P-wave (km/s) = 5.64613 6.27524 5.96898
#
# Compressibility (1/GPa) = 0.03566493
#
# Stress axis : x y z
#
# Youngs Moduli (GPa) = 76.57317 40.99850 119.79455
#
# Poissons Ratio (x) = 0.05527 0.17894
# Poissons Ratio (y) = 0.10322 0.26653
# Poissons Ratio (z) = 0.11438 0.09122
#
# Static dielectric constant tensor:
#      x y z
#    x 1.789810 0.000000 0.023950 
#    y 0.000000 1.740640 0.000000 
#    z 0.023950 0.000000 1.761140 
# 
# From -- ./inp_files/65075.got.cif
#   From: 2010.05.17/outbox.cif.g08.bks.cpg/sg15_33_cif.got.tgz:65075.got - 2010.06.03 18:47:42.
