data_PCOD9287499
_publ_section_title
;
Structure prediction by ZEFSAII (Michael W. Deem and Ramdas Pophale) SiO2 
 PCOD9287499
Probable space group: C 2/C
;
_chemical_formula_sum "Si O2"
_cell_formula_units_Z 44
_cell_length_a 5.232718
_cell_length_b 25.704273
_cell_length_c 16.279400
_cell_angle_alpha 90.000000
_cell_angle_beta 64.582430
_cell_angle_gamma 90.000000
_cell_volume 1977.683387
_symmetry_space_group_name_H-M "C 2/C"
_symmetry_group_IT_number 15
_symmetry_cell_setting 'monoclinic'
loop_
_space_group_symop_operation_xyz
x,y,z
-x,y,1/2-z
-x,-y,-z
x,-y,1/2+z
1/2+x,1/2+y,z
1/2-x,1/2+y,1/2-z
1/2-x,1/2-y,-z
1/2+x,1/2-y,1/2+z
loop_
_atom_site_type_symbol
_atom_site_label
_atom_site_fract_x
_atom_site_fract_y
_atom_site_fract_z
Si Si1 0.972362 0.548626 0.611572
Si Si2 0.000000 0.288627 0.250000
Si Si3 0.169521 0.861661 0.398031
Si Si4 0.064828 0.427509 0.912698
Si Si5 0.500000 0.220949 0.250000
Si Si6 0.597871 0.638512 0.393811
Si Si7 0.000000 0.889039 0.250000
O O1 0.912890 0.487689 0.615723
O O2 0.764846 0.573177 0.705855
O O3 0.266603 0.576732 0.595353
O O4 0.942075 0.569919 0.522552
O O5 0.059101 0.326289 0.163526
O O6 0.283962 0.254857 0.224241
O O7 0.005969 0.858892 0.334744
O O8 0.031325 0.842702 0.501066
O O9 0.347055 0.391593 0.879264
O O10 0.837682 0.402837 0.884033
O O11 0.270848 0.184583 0.327663
#
# Coordination Sequence:
#
# PCOD9287499 Si02
#       7
#     8   4   8   8   4   8   4
#     4  10  22  36  65 103 138 177 218 273 329 417
#     4  12  26  46  72 102 131 175 228 304 344 410
#     4  11  24  41  70 101 142 172 227 283 353 395
#     4  10  23  41  68  98 140 179 222 264 337 402
#     4  12  29  48  71  96 133 176 248 285 350 408
#     4  11  25  47  69  97 137 186 223 284 334 409
#     4  12  19  38  63 100 138 183 216 281 318 416
#
# _framework density 22.248251
#
# number of rings (size 3 to 8) (size 9 to 14) (size 15 to 20)
#    0.000    1.091    3.636    1.636    2.545    5.091 
#    0.000    0.000    0.000    0.000    0.000    0.000 
#    0.000    0.000    0.000    0.000    0.000    0.000 
#
# Total GULP energy -122676.843983 kJ/mol
# GULP energy per Si atom -5576.220181 kJ/mol
# Density = 2.219761 g / cm^3
# Si number density = 22.248251 Si / 1000 Ang^3
#
#
#
# Elastic Constant Matrix: (Units=GPa)
#
#
# Indices 1 2 3 4 5 6 
#
# 1 101.9096 31.9065 19.2401 0.0000 -28.4067 0.0000
# 2 31.9065 109.4924 59.7089 0.0000 -16.2455 0.0000
# 3 19.2401 59.7089 113.7781 0.0000 -19.1228 0.0000
# 4 0.0000 0.0000 0.0000 55.3758 0.0000 0.2964
# 5 -28.4067 -16.2455 -19.1228 0.0000 21.4796 0.0000
# 6 0.0000 0.0000 0.0000 0.2964 0.0000 32.9303
#
#
#
# Elastic Compliance Matrix: (Units=1/GPa)
#
#
# Indices 1 2 3 4 5 6 
#
# 1 0.016219 -0.002826 0.002336 0.000000 0.021392 0.000000
# 2 -0.002826 0.013642 -0.006556 0.000000 0.000743 0.000000
# 3 0.002336 -0.006556 0.013548 0.000000 0.010191 0.000000
# 4 0.000000 0.000000 0.000000 0.018059 0.000000 -0.000163
# 5 0.021392 0.000743 0.010191 0.000000 0.084482 0.000000
# 6 0.000000 0.000000 0.000000 -0.000163 0.000000 0.030369
#
#
# Mechanical properties :
#
#
# Convention : Reuss Voigt Hill
#
# Bulk Modulus (GPa) = 34.11135 60.76568 47.43852
# Shear Modulus (GPa) = 24.97689 36.24545 30.61117
#
# Velocity S-wave (km/s) = 3.35422 4.04064 3.71332
# Velocity P-wave (km/s) = 5.51058 7.01005 6.30505
#
# Compressibility (1/GPa) = 0.02931575
#
# Stress axis : x y z
#
# Youngs Moduli (GPa) = 61.65443 73.30165 73.81371
#
# Poissons Ratio (x) = 0.20717 -0.17241
# Poissons Ratio (y) = 0.17425 0.48395
# Poissons Ratio (z) = -0.14401 0.48059
#
# Static dielectric constant tensor:
#      x y z
#    x 1.907200 0.000000 -0.017500 
#    y 0.000000 1.867770 0.000000 
#    z -0.017500 0.000000 1.845750 
# 
# From -- ./inp_files/129504.got.cif
#   From: 2010.05.17/outbox.cif.g08.bks.cpg/sg15_65_cif.got.tgz:129504.got - 2010.06.03 18:47:42.
