data_PCOD9287432
_publ_section_title
;
Structure prediction by ZEFSAII (Michael W. Deem and Ramdas Pophale) SiO2 
 PCOD9287432
Probable space group: C 2/C
;
_chemical_formula_sum "Si O2"
_cell_formula_units_Z 56
_cell_length_a 10.576663
_cell_length_b 32.007469
_cell_length_c 7.688433
_cell_angle_alpha 90.000000
_cell_angle_beta 117.082809
_cell_angle_gamma 90.000000
_cell_volume 2317.385724
_symmetry_space_group_name_H-M "C 2/C"
_symmetry_group_IT_number 15
_symmetry_cell_setting 'monoclinic'
loop_
_space_group_symop_operation_xyz
x,y,z
-x,y,1/2-z
-x,-y,-z
x,-y,1/2+z
1/2+x,1/2+y,z
1/2-x,1/2+y,1/2-z
1/2-x,1/2-y,-z
1/2+x,1/2-y,1/2+z
loop_
_atom_site_type_symbol
_atom_site_label
_atom_site_fract_x
_atom_site_fract_y
_atom_site_fract_z
Si Si1 0.302809 0.145360 0.725951
Si Si2 0.426523 0.879799 0.933297
Si Si3 0.908053 0.732602 0.915116
Si Si4 0.321269 0.791261 0.755067
Si Si5 0.144841 0.024092 0.726266
Si Si6 0.248434 0.939714 0.614015
Si Si7 0.969262 0.897736 0.527545
O O1 0.356484 0.124337 0.580318
O O2 0.346445 0.194031 0.764651
O O3 0.135614 0.136194 0.623825
O O4 0.404975 0.125648 0.937104
O O5 0.360903 0.839234 0.799071
O O6 0.376844 0.920017 0.799528
O O7 0.838373 0.775989 0.816334
O O8 0.859925 0.721972 0.083044
O O9 0.076474 0.731969 0.042657
O O10 0.112740 0.058181 0.557120
O O11 0.000000 0.020845 0.750000
O O12 0.190385 0.979691 0.683954
O O13 0.262308 0.043024 0.928675
O O14 0.121418 0.905271 0.533751
O O15 0.000000 0.890227 0.750000
#
# Coordination Sequence:
#
# PCOD9287432 Si02
#       7
#     8   8   8   8   8   8   8
#     4  10  22  38  58  84 119 157 185 239 287 343
#     4  10  22  38  59  84 120 153 191 233 293 341
#     4   9  19  37  60  82 118 150 190 230 285 337
#     4   9  19  37  58  86 114 154 186 235 280 341
#     4  10  22  36  61  86 115 151 190 245 292 342
#     4  11  21  38  61  86 113 152 192 243 286 347
#     4  11  20  37  60  84 114 150 197 236 289 336
#
# _framework density 24.165158999999999
#
# number of rings (size 3 to 8) (size 9 to 14) (size 15 to 20)
#    0.000    2.000    1.429    3.000    2.000    1.714 
#    0.000    0.714    0.000    0.000    0.000    0.000 
#    0.000    0.000    0.000    0.000    0.000    0.000 
#
# Total GULP energy -156579.032950 kJ/mol
# GULP energy per Si atom -5592.108320 kJ/mol
# Density = 2.411016 g / cm^3
# Si number density = 24.165159 Si / 1000 Ang^3
#
#
#
# Elastic Constant Matrix: (Units=GPa)
#
#
# Indices 1 2 3 4 5 6 
#
# 1 39.2835 12.2033 31.0094 0.0000 6.5298 0.0000
# 2 12.2033 62.2165 63.2439 0.0000 11.4507 0.0000
# 3 31.0094 63.2439 154.2638 0.0000 15.7334 0.0000
# 4 0.0000 0.0000 0.0000 34.4581 0.0000 15.5957
# 5 6.5298 11.4507 15.7334 0.0000 20.0367 0.0000
# 6 0.0000 0.0000 0.0000 15.5957 0.0000 25.3344
#
#
#
# Elastic Compliance Matrix: (Units=1/GPa)
#
#
# Indices 1 2 3 4 5 6 
#
# 1 0.030886 0.001258 -0.006114 0.000000 -0.005984 0.000000
# 2 0.001258 0.028679 -0.011193 0.000000 -0.008010 0.000000
# 3 -0.006114 -0.011193 0.012441 0.000000 -0.001380 0.000000
# 4 0.000000 0.000000 0.000000 0.040229 0.000000 -0.024765
# 5 -0.005984 -0.008010 -0.001380 0.000000 0.057520 0.000000
# 6 0.000000 0.000000 0.000000 -0.024765 0.000000 0.054717
#
#
# Mechanical properties :
#
#
# Convention : Reuss Voigt Hill
#
# Bulk Modulus (GPa) = 25.05808 52.07521 38.56664
# Shear Modulus (GPa) = 18.52725 25.91964 22.22344
#
# Velocity S-wave (km/s) = 2.77193 3.27862 3.03586
# Velocity P-wave (km/s) = 4.54277 5.99407 5.31816
#
# Compressibility (1/GPa) = 0.03990729
#
# Stress axis : x y z
#
# Youngs Moduli (GPa) = 32.37707 34.86921 80.37832
#
# Poissons Ratio (x) = -0.04388 0.49145
# Poissons Ratio (y) = -0.04074 0.89971
# Poissons Ratio (z) = 0.19796 0.39031
#
# Static dielectric constant tensor:
#      x y z
#    x 2.013920 0.000000 0.001320 
#    y 0.000000 1.900510 0.000000 
#    z 0.001320 0.000000 1.957310 
# 
# From -- ./inp_files/44583.got.cif
#   From: 2010.05.17/outbox.cif.g08.bks.cpg/sg15_23_cif.got.tgz:44583.got - 2010.06.03 18:47:42.
