data_PCOD9287611
_publ_section_title
;
Structure prediction by ZEFSAII (Michael W. Deem and Ramdas Pophale) SiO2 
 PCOD9287611
Probable space group: C 2/C
;
_chemical_formula_sum "Si O2"
_cell_formula_units_Z 44
_cell_length_a 10.559874
_cell_length_b 9.258020
_cell_length_c 24.935064
_cell_angle_alpha 90.000000
_cell_angle_beta 60.017609
_cell_angle_gamma 90.000000
_cell_volume 2111.519049
_symmetry_space_group_name_H-M "C 2/C"
_symmetry_group_IT_number 15
_symmetry_cell_setting 'monoclinic'
loop_
_space_group_symop_operation_xyz
x,y,z
-x,y,1/2-z
-x,-y,-z
x,-y,1/2+z
1/2+x,1/2+y,z
1/2-x,1/2+y,1/2-z
1/2-x,1/2-y,-z
1/2+x,1/2-y,1/2+z
loop_
_atom_site_type_symbol
_atom_site_label
_atom_site_fract_x
_atom_site_fract_y
_atom_site_fract_z
Si Si1 0.336063 0.101094 0.792597
Si Si2 0.757263 0.715454 0.923074
Si Si3 0.000000 0.832807 0.250000
Si Si4 0.248851 0.516430 0.868576
Si Si5 0.789976 0.632212 0.226989
Si Si6 0.985667 0.649666 0.968884
O O1 0.500000 0.047243 0.750000
O O2 0.283226 0.125172 0.863795
O O3 0.333372 0.256129 0.764476
O O4 0.240493 0.987657 0.779594
O O5 0.867681 0.655140 0.944996
O O6 0.786113 0.885606 0.901592
O O7 0.587847 0.726951 0.978324
O O8 0.108954 0.926258 0.191093
O O9 0.090725 0.732303 0.270840
O O10 0.157056 0.443158 0.839078
O O11 0.150564 0.649105 0.911202
O O12 0.000000 0.500000 0.000000
#
# Coordination Sequence:
#
# PCOD9287611 Si02
#       6
#     8   8   4   8   8   8
#     4  11  22  37  61  91 124 160 202 255 314 371
#     4   9  20  34  64  89 118 164 211 250 312 371
#     4  12  24  36  58  96 126 162 202 248 310 374
#     4  10  22  37  59  88 125 160 204 253 310 372
#     4  11  23  37  57  92 126 160 200 258 314 376
#     4   9  18  38  60  91 119 162 209 260 305 361
#
# _framework density 20.838080000000001
#
# number of rings (size 3 to 8) (size 9 to 14) (size 15 to 20)
#    0.000    1.818    2.727    1.091    5.091    0.000 
#    0.000    0.000    0.000   20.727    0.000    0.000 
#    0.000    0.000    0.000    0.000    0.000    0.000 
#
# Total GULP energy -122512.187285 kJ/mol
# GULP energy per Si atom -5568.735786 kJ/mol
# Density = 2.079065 g / cm^3
# Si number density = 20.838080 Si / 1000 Ang^3
#
#
#
# Elastic Constant Matrix: (Units=GPa)
#
#
# Indices 1 2 3 4 5 6 
#
# 1 76.7749 34.2202 46.3700 0.0000 3.5620 0.0000
# 2 34.2202 68.1373 40.4979 0.0000 7.1622 0.0000
# 3 46.3700 40.4979 106.9526 0.0000 0.6107 0.0000
# 4 0.0000 0.0000 0.0000 -12.9559 0.0000 -1.4742
# 5 3.5620 7.1622 0.6107 0.0000 42.5666 0.0000
# 6 0.0000 0.0000 0.0000 -1.4742 0.0000 27.1246
#
#
#
# Elastic Compliance Matrix: (Units=1/GPa)
#
#
# Indices 1 2 3 4 5 6 
#
# 1 0.019461 -0.006073 -0.006135 0.000000 -0.000519 0.000000
# 2 -0.006073 0.021247 -0.005395 0.000000 -0.002989 0.000000
# 3 -0.006135 -0.005395 0.014046 0.000000 0.001220 0.000000
# 4 0.000000 0.000000 0.000000 -0.076710 0.000000 -0.004169
# 5 -0.000519 -0.002989 0.001220 0.000000 0.024021 0.000000
# 6 0.000000 0.000000 0.000000 -0.004169 0.000000 0.036640
#
#
# Mechanical properties :
#
#
# Convention : Reuss Voigt Hill
#
# Bulk Modulus (GPa) = 51.15694 54.89347 53.02520
# Shear Modulus (GPa) = 62.16696 20.06551 41.11623
#
# Velocity S-wave (km/s) = 5.46792 3.10647 4.44681
# Velocity P-wave (km/s) = 8.02915 6.26633 7.20188
#
# Compressibility (1/GPa) = 0.01954769
#
# Stress axis : x y z
#
# Youngs Moduli (GPa) = 51.38355 47.06499 71.19566
#
# Poissons Ratio (x) = 0.28583 0.43679
# Poissons Ratio (y) = 0.31206 0.38412
# Poissons Ratio (z) = 0.31524 0.25393
#
# Static dielectric constant tensor:
#      x y z
#    x 1.984260 0.000000 -0.121440 
#    y 0.000000 1.766910 0.000000 
#    z -0.121440 0.000000 1.885420 
# 
# From -- ./inp_files/267977.got.cif
#   From: 2010.05.17/outbox.cif.g08.bks.cpg/sg15_134_cif.got.tgz:267977.got - 2010.06.03 18:47:42.
