data_PCOD9287514
_publ_section_title
;
Structure prediction by ZEFSAII (Michael W. Deem and Ramdas Pophale) SiO2 
 PCOD9287514
Probable space group: C 2/C
;
_chemical_formula_sum "Si O2"
_cell_formula_units_Z 52
_cell_length_a 22.498460
_cell_length_b 4.932016
_cell_length_c 30.381493
_cell_angle_alpha 90.000000
_cell_angle_beta 142.511761
_cell_angle_gamma 90.000000
_cell_volume 2051.716285
_symmetry_space_group_name_H-M "C 2/C"
_symmetry_group_IT_number 15
_symmetry_cell_setting 'monoclinic'
loop_
_space_group_symop_operation_xyz
x,y,z
-x,y,1/2-z
-x,-y,-z
x,-y,1/2+z
1/2+x,1/2+y,z
1/2-x,1/2+y,1/2-z
1/2-x,1/2-y,-z
1/2+x,1/2-y,1/2+z
loop_
_atom_site_type_symbol
_atom_site_label
_atom_site_fract_x
_atom_site_fract_y
_atom_site_fract_z
Si Si1 0.614954 0.562254 0.246246
Si Si2 0.156204 0.563038 0.906305
Si Si3 0.166488 0.611990 0.602681
Si Si4 0.427935 0.403933 0.096854
Si Si5 0.681563 0.935001 0.207882
Si Si6 0.642526 0.384606 0.029691
Si Si7 0.500000 0.101825 0.750000
O O1 0.718120 0.452242 0.323639
O O2 0.536305 0.358009 0.179214
O O3 0.628952 0.795026 0.217608
O O4 0.564566 0.708202 0.257299
O O5 0.119933 0.852810 0.902687
O O6 0.258202 0.597330 0.941429
O O7 0.078977 0.446212 0.825411
O O8 0.141812 0.355824 0.938227
O O9 0.127101 0.569976 0.629042
O O10 0.127672 0.406318 0.542894
O O11 0.152243 0.911711 0.576303
O O12 0.435166 0.507100 0.051127
O O13 0.775469 0.731875 0.258199
#
# Coordination Sequence:
#
# PCOD9287514 Si02
#       7
#     8   8   8   8   8   8   4
#     4  10  23  43  64  98 128 166 213 269 319 385
#     4  11  23  38  61  89 132 168 209 253 324 383
#     4  11  23  40  67  91 122 168 219 261 308 377
#     4  11  25  40  61  90 132 169 204 260 330 378
#     4  10  22  41  66  94 127 168 216 270 324 373
#     4  12  23  41  62  92 126 169 216 256 313 392
#     4  10  22  36  66  98 126 154 214 270 318 368
#
# _framework density 25.344636000000001
#
# number of rings (size 3 to 8) (size 9 to 14) (size 15 to 20)
#    0.000    1.231    1.538    4.615    4.308    4.308 
#    0.000    1.538    0.000    0.000    0.000    0.000 
#    0.000    0.000    0.000    0.000    0.000    0.000 
#
# Total GULP energy -145645.459574 kJ/mol
# GULP energy per Si atom -5601.748445 kJ/mol
# Density = 2.528695 g / cm^3
# Si number density = 25.344636 Si / 1000 Ang^3
#
#
#
# Elastic Constant Matrix: (Units=GPa)
#
#
# Indices 1 2 3 4 5 6 
#
# 1 85.6934 2.4005 4.1608 -0.0002 -23.3897 -0.0406
# 2 2.4005 80.3304 -15.0677 -0.0017 10.2379 -0.0562
# 3 4.1608 -15.0677 83.3653 0.0088 -11.3464 0.0134
# 4 -0.0002 -0.0017 0.0088 28.0439 0.0006 -14.5644
# 5 -23.3897 10.2379 -11.3464 0.0006 29.9897 0.0034
# 6 -0.0406 -0.0562 0.0134 -14.5644 0.0034 42.4855
#
#
#
# Elastic Compliance Matrix: (Units=1/GPa)
#
#
# Indices 1 2 3 4 5 6 
#
# 1 0.015171 -0.001960 0.000622 0.000006 0.012736 0.000013
# 2 -0.001960 0.013542 0.001801 0.000010 -0.005470 0.000019
# 3 0.000622 0.001801 0.012938 -0.000006 0.004766 -0.000004
# 4 0.000006 0.000010 -0.000006 0.043382 -0.000003 0.014872
# 5 0.012736 -0.005470 0.004766 -0.000003 0.046948 -0.000001
# 6 0.000013 0.000019 -0.000004 0.014872 -0.000001 0.028636
#
#
# Mechanical properties :
#
#
# Convention : Reuss Voigt Hill
#
# Bulk Modulus (GPa) = 23.48662 25.81959 24.65311
# Shear Modulus (GPa) = 28.75493 37.29684 33.02588
#
# Velocity S-wave (km/s) = 3.37197 3.84029 3.61373
# Velocity P-wave (km/s) = 4.94442 5.46565 5.21155
#
# Compressibility (1/GPa) = 0.04257743
#
# Stress axis : x y z
#
# Youngs Moduli (GPa) = 65.91732 73.84365 77.28886
#
# Poissons Ratio (x) = 0.14472 -0.04808
# Poissons Ratio (y) = 0.12919 -0.13919
# Poissons Ratio (z) = -0.04100 -0.13299
#
# Static dielectric constant tensor:
#      x y z
#    x 2.039320 -0.000030 -0.003770 
#    y -0.000030 1.938070 0.000010 
#    z -0.003770 0.000010 2.072670 
# 
# From -- ./inp_files/318305.got.cif
#   From: 2010.05.17/outbox.cif.g08.bks.cpg/sg15_160_cif.got.tgz:318305.got - 2010.06.03 18:47:42.
