data_PCOD9287033
_publ_section_title
;
Structure prediction by ZEFSAII (Michael W. Deem and Ramdas Pophale) SiO2 
 PCOD9287033
Probable space group: C 2/C
;
_chemical_formula_sum "Si O2"
_cell_formula_units_Z 32
_cell_length_a 16.166647
_cell_length_b 7.538197
_cell_length_c 9.542685
_cell_angle_alpha 90.000000
_cell_angle_beta 87.049613
_cell_angle_gamma 90.000000
_cell_volume 1161.400418
_symmetry_space_group_name_H-M "C 2/C"
_symmetry_group_IT_number 15
_symmetry_cell_setting 'monoclinic'
loop_
_space_group_symop_operation_xyz
x,y,z
-x,y,1/2-z
-x,-y,-z
x,-y,1/2+z
1/2+x,1/2+y,z
1/2-x,1/2+y,1/2-z
1/2-x,1/2-y,-z
1/2+x,1/2-y,1/2+z
loop_
_atom_site_type_symbol
_atom_site_label
_atom_site_fract_x
_atom_site_fract_y
_atom_site_fract_z
Si Si1 0.300505 0.967045 0.530040
Si Si2 0.751143 0.712062 0.301836
Si Si3 0.459825 0.770184 0.395663
Si Si4 0.570359 0.639980 0.633024
O O1 0.252704 0.834633 0.638996
O O2 0.387952 0.890869 0.469218
O O3 0.309208 0.136801 0.635183
O O4 0.245237 0.042959 0.406344
O O5 0.843322 0.780174 0.328352
O O6 0.500000 0.844646 0.250000
O O7 0.533847 0.720901 0.494753
O O8 0.423390 0.573259 0.369293
O O9 0.500000 0.684815 0.750000
#
# Coordination Sequence:
#
# PCOD9287033 Si02
#       4
#     8   8   8   8
#     4  11  27  49  71 110 150 205 254 316 386 458
#     4  11  27  47  75 106 154 201 258 322 385 462
#     4  10  23  43  79 114 153 197 250 320 388 457
#     4  10  21  45  74 115 149 196 255 316 383 458
#
# _framework density 27.552947
#
# number of rings (size 3 to 8) (size 9 to 14) (size 15 to 20)
#    0.000    1.500    2.500    0.000    3.500   10.000 
#    0.000    0.000    0.000    0.000    0.000    0.000 
#    0.000    0.000    0.000    0.000    0.000    0.000 
#
# Total GULP energy -89853.706039 kJ/mol
# GULP energy per Si atom -5615.856627 kJ/mol
# Density = 2.749023 g / cm^3
# Si number density = 27.552947 Si / 1000 Ang^3
#
#
#
# Elastic Constant Matrix: (Units=GPa)
#
#
# Indices 1 2 3 4 5 6 
#
# 1 132.4571 28.3396 56.1048 0.0000 -30.5430 0.0000
# 2 28.3396 136.5330 55.1881 0.0000 -26.0954 0.0000
# 3 56.1048 55.1881 236.0049 0.0000 -34.0172 0.0000
# 4 0.0000 0.0000 0.0000 57.0030 0.0000 -11.4253
# 5 -30.5430 -26.0954 -34.0172 0.0000 46.0134 0.0000
# 6 0.0000 0.0000 0.0000 -11.4253 0.0000 40.5698
#
#
#
# Elastic Compliance Matrix: (Units=1/GPa)
#
#
# Indices 1 2 3 4 5 6 
#
# 1 0.009380 -0.000431 -0.001418 0.000000 0.004934 0.000000
# 2 -0.000431 0.008669 -0.001407 0.000000 0.003590 0.000000
# 3 -0.001418 -0.001407 0.005208 0.000000 0.002111 0.000000
# 4 0.000000 0.000000 0.000000 0.018592 0.000000 0.005236
# 5 0.004934 0.003590 0.002111 0.000000 0.028604 0.000000
# 6 0.000000 0.000000 0.000000 0.005236 0.000000 0.026123
#
#
# Mechanical properties :
#
#
# Convention : Reuss Voigt Hill
#
# Bulk Modulus (GPa) = 59.72263 87.14000 73.43132
# Shear Modulus (GPa) = 46.01104 53.07475 49.54289
#
# Velocity S-wave (km/s) = 4.09089 4.39370 4.24500
# Velocity P-wave (km/s) = 6.63600 7.57856 7.12289
#
# Compressibility (1/GPa) = 0.01674407
#
# Stress axis : x y z
#
# Youngs Moduli (GPa) = 106.60902 115.35875 192.02742
#
# Poissons Ratio (x) = 0.04970 0.27230
# Poissons Ratio (y) = 0.04593 0.27023
# Poissons Ratio (z) = 0.15117 0.16234
#
# Static dielectric constant tensor:
#      x y z
#    x 2.057930 0.000000 0.052420 
#    y 0.000000 2.292630 0.000000 
#    z 0.052420 0.000000 2.160520 
# 
# From -- ./inp_files/102159.got.cif
#   From: 2010.05.17/outbox.cif.g08.bks.cpg/sg15_52_cif.got.tgz:102159.got - 2010.06.03 18:47:42.
