data_PCOD9287936
_publ_section_title
;
Structure prediction by ZEFSAII (Michael W. Deem and Ramdas Pophale) SiO2 
 PCOD9287936
Probable space group: C 2/C
;
_chemical_formula_sum "Si O2"
_cell_formula_units_Z 56
_cell_length_a 28.001866
_cell_length_b 17.149826
_cell_length_c 8.516528
_cell_angle_alpha 90.000000
_cell_angle_beta 138.810671
_cell_angle_gamma 90.000000
_cell_volume 2693.379639
_symmetry_space_group_name_H-M "C 2/C"
_symmetry_group_IT_number 15
_symmetry_cell_setting 'monoclinic'
loop_
_space_group_symop_operation_xyz
x,y,z
-x,y,1/2-z
-x,-y,-z
x,-y,1/2+z
1/2+x,1/2+y,z
1/2-x,1/2+y,1/2-z
1/2-x,1/2-y,-z
1/2+x,1/2-y,1/2+z
loop_
_atom_site_type_symbol
_atom_site_label
_atom_site_fract_x
_atom_site_fract_y
_atom_site_fract_z
Si Si1 0.542296 0.932200 0.512288
Si Si2 0.534907 0.756502 0.585244
Si Si3 0.889995 0.775642 0.554723
Si Si4 0.160813 0.253219 0.107019
Si Si5 0.743644 0.614113 0.780249
Si Si6 0.701648 0.843225 0.526408
Si Si7 0.299657 0.002067 0.639607
O O1 0.539800 0.851043 0.600255
O O2 0.500000 0.000000 0.500000
O O3 0.620930 0.964152 0.657135
O O4 0.500000 0.913006 0.250000
O O5 0.577162 0.723455 0.537399
O O6 0.453450 0.729989 0.341979
O O7 0.580790 0.732746 0.851598
O O8 0.833440 0.845554 0.442892
O O9 0.843827 0.695863 0.449164
O O10 0.198685 0.314671 0.080314
O O11 0.214559 0.180044 0.250794
O O12 0.170286 0.298535 0.294795
O O13 0.769031 0.554203 0.706318
O O14 0.746927 0.566135 0.949460
O O15 0.692312 0.933540 0.478638
#
# Coordination Sequence:
#
# PCOD9287936 Si02
#       7
#     8   8   8   8   8   8   8
#     4  12  24  38  59  95 130 162 196 248 321 388
#     4  11  22  39  61  86 121 163 205 252 312 360
#     4  10  22  40  59  87 124 161 212 251 296 369
#     4   9  19  38  57  87 114 158 205 245 306 360
#     4  10  22  38  60  89 122 158 205 255 299 367
#     4   9  20  36  58  83 122 153 199 255 293 369
#     4  11  22  37  61  88 124 159 199 251 315 357
#
# _framework density 20.791723000000001
#
# number of rings (size 3 to 8) (size 9 to 14) (size 15 to 20)
#    0.000    1.714    2.857    2.571    4.000    4.000 
#    0.000    0.000    0.000    7.714    0.000    0.000 
#    0.000    0.000    0.000    0.000    0.000    0.000 
#
# Total GULP energy -156367.071469 kJ/mol
# GULP energy per Si atom -5584.538267 kJ/mol
# Density = 2.074440 g / cm^3
# Si number density = 20.791723 Si / 1000 Ang^3
#
#
#
# Elastic Constant Matrix: (Units=GPa)
#
#
# Indices 1 2 3 4 5 6 
#
# 1 54.0895 21.9180 25.1773 0.0000 20.8111 0.0000
# 2 21.9180 75.4145 51.2653 0.0000 20.1965 0.0000
# 3 25.1773 51.2653 134.6344 0.0000 32.5675 0.0000
# 4 0.0000 0.0000 0.0000 23.9949 0.0000 5.4001
# 5 20.8111 20.1965 32.5675 0.0000 29.5115 0.0000
# 6 0.0000 0.0000 0.0000 5.4001 0.0000 23.1349
#
#
#
# Elastic Compliance Matrix: (Units=1/GPa)
#
#
# Indices 1 2 3 4 5 6 
#
# 1 0.026018 -0.003444 0.000428 0.000000 -0.016464 0.000000
# 2 -0.003444 0.019294 -0.005588 0.000000 -0.004609 0.000000
# 3 0.000428 -0.005588 0.011763 0.000000 -0.009459 0.000000
# 4 0.000000 0.000000 0.000000 0.043986 0.000000 -0.010267
# 5 -0.016464 -0.004609 -0.009459 0.000000 0.059088 0.000000
# 6 0.000000 0.000000 0.000000 -0.010267 0.000000 0.045621
#
#
# Mechanical properties :
#
#
# Convention : Reuss Voigt Hill
#
# Bulk Modulus (GPa) = 25.08221 51.20662 38.14441
# Shear Modulus (GPa) = 21.16247 26.38010 23.77129
#
# Velocity S-wave (km/s) = 3.19381 3.56586 3.38495
# Velocity P-wave (km/s) = 5.06856 6.45257 5.80198
#
# Compressibility (1/GPa) = 0.03986890
#
# Stress axis : x y z
#
# Youngs Moduli (GPa) = 38.43424 51.83060 85.01047
#
# Poissons Ratio (x) = 0.17850 -0.03640
# Poissons Ratio (y) = 0.13236 0.47500
# Poissons Ratio (z) = -0.01646 0.28961
#
# Static dielectric constant tensor:
#      x y z
#    x 1.808880 0.000000 -0.040810 
#    y 0.000000 1.737810 0.000000 
#    z -0.040810 0.000000 1.789620 
# 
# From -- ./inp_files/70520.got.cif
#   From: 2010.05.17/outbox.cif.g08.bks.cpg/sg15_36_cif.got.tgz:70520.got - 2010.06.03 18:47:42.
