data_PCOD9287526
_publ_section_title
;
Structure prediction by ZEFSAII (Michael W. Deem and Ramdas Pophale) SiO2 
 PCOD9287526
Probable space group: C 2/C
;
_chemical_formula_sum "Si O2"
_cell_formula_units_Z 36
_cell_length_a 4.935691
_cell_length_b 16.973095
_cell_length_c 19.722559
_cell_angle_alpha 90.000000
_cell_angle_beta 96.901450
_cell_angle_gamma 90.000000
_cell_volume 1640.265106
_symmetry_space_group_name_H-M "C 2/C"
_symmetry_group_IT_number 15
_symmetry_cell_setting 'monoclinic'
loop_
_space_group_symop_operation_xyz
x,y,z
-x,y,1/2-z
-x,-y,-z
x,-y,1/2+z
1/2+x,1/2+y,z
1/2-x,1/2+y,1/2-z
1/2-x,1/2-y,-z
1/2+x,1/2-y,1/2+z
loop_
_atom_site_type_symbol
_atom_site_label
_atom_site_fract_x
_atom_site_fract_y
_atom_site_fract_z
Si Si1 0.291147 0.430520 0.188620
Si Si2 0.770136 0.120806 0.389293
Si Si3 0.738950 0.936017 0.401291
Si Si4 0.186018 0.667358 0.032039
Si Si5 0.000000 0.576052 0.250000
O O1 0.500000 0.393928 0.250000
O O2 0.466787 0.429374 0.125178
O O3 0.210342 0.515944 0.218467
O O4 0.991658 0.401426 0.157059
O O5 0.599423 0.170705 0.437924
O O6 0.658583 0.126714 0.310024
O O7 0.084381 0.141891 0.407005
O O8 0.705424 0.029939 0.406551
O O9 0.704274 0.895775 0.472162
O O10 0.250000 0.750000 0.000000
#
# Coordination Sequence:
#
# PCOD9287526 Si02
#       5
#     8   8   8   8   4
#     4  11  18  35  62  97 128 148 194 270 317 358
#     4  11  22  40  69  92 124 158 213 263 303 377
#     4  11  22  37  66  97 118 159 214 256 308 367
#     4  12  26  43  62  89 133 171 207 253 313 364
#     4  10  22  36  68  98 124 154 208 262 328 346
#
# _framework density 21.947671
#
# number of rings (size 3 to 8) (size 9 to 14) (size 15 to 20)
#    0.000    0.889    4.444    6.000    0.000    0.000 
#    0.000    0.000   14.667    0.000    0.000    0.000 
#    0.000    0.000    0.000    0.000    0.000    0.000 
#
# Total GULP energy -100530.830274 kJ/mol
# GULP energy per Si atom -5585.046126 kJ/mol
# Density = 2.189772 g / cm^3
# Si number density = 21.947671 Si / 1000 Ang^3
#
#
#
# Elastic Constant Matrix: (Units=GPa)
#
#
# Indices 1 2 3 4 5 6 
#
# 1 100.5743 -16.4169 -1.0074 0.0000 1.3662 0.0000
# 2 -16.4169 20.9292 1.8205 0.0000 13.9084 0.0000
# 3 -1.0074 1.8205 74.8451 0.0000 15.0024 0.0000
# 4 0.0000 0.0000 0.0000 -1.1497 0.0000 -1.9021
# 5 1.3662 13.9084 15.0024 0.0000 46.3235 0.0000
# 6 0.0000 0.0000 0.0000 -1.9021 0.0000 -5.2921
#
#
#
# Elastic Compliance Matrix: (Units=1/GPa)
#
#
# Indices 1 2 3 4 5 6 
#
# 1 0.011992 0.012160 0.000715 0.000000 -0.004236 0.000000
# 2 0.012160 0.072388 0.003028 0.000000 -0.023073 0.000000
# 3 0.000715 0.003028 0.014419 0.000000 -0.005600 0.000000
# 4 0.000000 0.000000 0.000000 -2.145711 0.000000 0.771191
# 5 -0.004236 -0.023073 -0.005600 0.000000 0.030454 0.000000
# 6 0.000000 0.000000 0.000000 0.771191 0.000000 -0.466134
#
#
# Mechanical properties :
#
#
# Convention : Reuss Voigt Hill
#
# Bulk Modulus (GPa) = 7.65668 18.34901 13.00285
# Shear Modulus (GPa) = -2.02359 22.10651 10.04146
#
# Velocity S-wave (km/s) = -0.96125 3.17714 2.14129
# Velocity P-wave (km/s) = 1.50472 4.67306 3.47143
#
# Compressibility (1/GPa) = 0.13060486
#
# Stress axis : x y z
#
# Youngs Moduli (GPa) = 83.38581 13.81442 69.35096
#
# Poissons Ratio (x) = -0.16798 -0.04957
# Poissons Ratio (y) = -1.01395 -0.20999
# Poissons Ratio (z) = -0.05960 -0.04183
#
# Static dielectric constant tensor:
#      x y z
#    x 1.830260 0.000000 -0.000820 
#    y 0.000000 1.779210 0.000000 
#    z -0.000820 0.000000 1.866280 
# 
# From -- ./inp_files/184141.got.cif
#   From: 2010.05.17/outbox.cif.g08.bks.cpg/sg15_93_cif.got.tgz:184141.got - 2010.06.03 18:47:42.
