data_PCOD9287043
_publ_section_title
;
Structure prediction by ZEFSAII (Michael W. Deem and Ramdas Pophale) SiO2 
 PCOD9287043
Probable space group: C 2/C
;
_chemical_formula_sum "Si O2"
_cell_formula_units_Z 44
_cell_length_a 4.992498
_cell_length_b 27.777310
_cell_length_c 14.229107
_cell_angle_alpha 90.000000
_cell_angle_beta 72.034904
_cell_angle_gamma 90.000000
_cell_volume 1877.059028
_symmetry_space_group_name_H-M "C 2/C"
_symmetry_group_IT_number 15
_symmetry_cell_setting 'monoclinic'
loop_
_space_group_symop_operation_xyz
x,y,z
-x,y,1/2-z
-x,-y,-z
x,-y,1/2+z
1/2+x,1/2+y,z
1/2-x,1/2+y,1/2-z
1/2-x,1/2-y,-z
1/2+x,1/2-y,1/2+z
loop_
_atom_site_type_symbol
_atom_site_label
_atom_site_fract_x
_atom_site_fract_y
_atom_site_fract_z
Si Si1 0.000000 0.573589 0.750000
Si Si2 0.299327 0.615132 0.863511
Si Si3 0.000000 0.061541 0.250000
Si Si4 0.500000 0.871894 0.750000
Si Si5 0.023004 0.016536 0.603450
Si Si6 0.087434 0.195851 0.957408
Si Si7 0.980078 0.296668 0.586310
O O1 0.987681 0.611733 0.663834
O O2 0.760045 0.536520 0.813954
O O3 0.500000 0.610938 0.750000
O O4 0.289577 0.564359 0.917204
O O5 0.437360 0.655150 0.912128
O O6 0.772451 0.093746 0.219481
O O7 0.134557 0.026482 0.156828
O O8 0.438181 0.836945 0.668819
O O9 0.000000 0.000000 0.500000
O O10 0.152443 0.243307 0.888138
O O11 0.817242 0.210982 0.050116
O O12 0.341655 0.185791 0.002059
#
# Coordination Sequence:
#
# PCOD9287043 Si02
#       7
#     4   8   4   4   8   8   8
#     4  10  21  46  61 104 140 167 240 289 330 430
#     4  10  23  40  67  97 132 171 227 281 337 409
#     4  12  26  48  62 104 139 179 240 290 332 430
#     4  12  27  42  71  94 143 180 228 277 350 406
#     4  11  25  43  67  95 137 185 227 289 351 406
#     4  10  23  44  70  97 136 169 227 280 342 407
#     4  10  24  45  65 101 133 175 222 281 334 423
#
# _framework density 23.440926000000001
#
# number of rings (size 3 to 8) (size 9 to 14) (size 15 to 20)
#    0.000    1.455    2.727    1.636   11.455    0.727 
#    0.000    0.909    0.000    0.000    0.000    0.000 
#    0.000    0.000    0.000    0.000    0.000    0.000 
#
# Total GULP energy -122471.637923 kJ/mol
# GULP energy per Si atom -5566.892633 kJ/mol
# Density = 2.338757 g / cm^3
# Si number density = 23.440926 Si / 1000 Ang^3
#
#
#
# Elastic Constant Matrix: (Units=GPa)
#
#
# Indices 1 2 3 4 5 6 
#
# 1 99.8657 28.7274 28.3043 0.0000 32.4239 0.0000
# 2 28.7274 157.9247 67.2041 0.0000 50.8408 0.0000
# 3 28.3043 67.2041 87.5335 0.0000 47.5312 0.0000
# 4 0.0000 0.0000 0.0000 29.9230 0.0000 15.7506
# 5 32.4239 50.8408 47.5312 0.0000 43.4476 0.0000
# 6 0.0000 0.0000 0.0000 15.7506 0.0000 19.4143
#
#
#
# Elastic Compliance Matrix: (Units=1/GPa)
#
#
# Indices 1 2 3 4 5 6 
#
# 1 0.013564 0.000986 0.002415 0.000000 -0.013917 0.000000
# 2 0.000986 0.010636 -0.003269 0.000000 -0.009606 0.000000
# 3 0.002415 -0.003269 0.029694 0.000000 -0.030462 0.000000
# 4 0.000000 0.000000 0.000000 0.058327 0.000000 -0.047320
# 5 -0.013917 -0.009606 -0.030462 0.000000 0.077968 0.000000
# 6 0.000000 0.000000 0.000000 -0.047320 0.000000 0.089899
#
#
# Mechanical properties :
#
#
# Convention : Reuss Voigt Hill
#
# Bulk Modulus (GPa) = 18.46477 65.97727 42.22102
# Shear Modulus (GPa) = 16.78536 33.29617 25.04077
#
# Velocity S-wave (km/s) = 2.67885 3.77295 3.27195
# Velocity P-wave (km/s) = 4.17883 6.86931 5.68551
#
# Compressibility (1/GPa) = 0.05415719
#
# Stress axis : x y z
#
# Youngs Moduli (GPa) = 73.72324 94.01859 33.67671
#
# Poissons Ratio (x) = -0.09266 -0.08131
# Poissons Ratio (y) = -0.07266 0.11008
# Poissons Ratio (z) = -0.17801 0.30732
#
# Static dielectric constant tensor:
#      x y z
#    x 2.414950 0.000000 0.125220 
#    y 0.000000 2.038420 0.000000 
#    z 0.125220 0.000000 1.914200 
# 
# From -- ./inp_files/129442.got.cif
#   From: 2010.05.17/outbox.cif.g08.bks.cpg/sg15_65_cif.got.tgz:129442.got - 2010.06.03 18:47:42.
