data_PCOD9287664
_publ_section_title
;
Structure prediction by ZEFSAII (Michael W. Deem and Ramdas Pophale) SiO2 
 PCOD9287664
Probable space group: C 2/C
;
_chemical_formula_sum "Si O2"
_cell_formula_units_Z 52
_cell_length_a 15.535218
_cell_length_b 17.164991
_cell_length_c 18.842553
_cell_angle_alpha 90.000000
_cell_angle_beta 29.799639
_cell_angle_gamma 90.000000
_cell_volume 2497.063198
_symmetry_space_group_name_H-M "C 2/C"
_symmetry_group_IT_number 15
_symmetry_cell_setting 'monoclinic'
loop_
_space_group_symop_operation_xyz
x,y,z
-x,y,1/2-z
-x,-y,-z
x,-y,1/2+z
1/2+x,1/2+y,z
1/2-x,1/2+y,1/2-z
1/2-x,1/2-y,-z
1/2+x,1/2-y,1/2+z
loop_
_atom_site_type_symbol
_atom_site_label
_atom_site_fract_x
_atom_site_fract_y
_atom_site_fract_z
Si Si1 0.375900 0.423198 0.086953
Si Si2 0.934503 0.617209 0.091423
Si Si3 0.726632 0.486621 0.475659
Si Si4 0.714643 0.629557 0.379114
Si Si5 0.500000 0.423838 0.250000
Si Si6 0.761429 0.715675 0.571649
Si Si7 0.485746 0.949710 0.412622
O O1 0.335400 0.418519 0.032504
O O2 0.189553 0.431170 0.256787
O O3 0.500000 0.500000 0.000000
O O4 0.506045 0.363749 0.031211
O O5 0.765759 0.614558 0.261359
O O6 0.030317 0.536729 0.044544
O O7 0.909766 0.609834 0.025069
O O8 0.052471 0.687767 0.033407
O O9 0.775267 0.559882 0.388523
O O10 0.575472 0.522006 0.633611
O O11 0.880755 0.455772 0.414633
O O12 0.799409 0.710250 0.340343
O O13 0.351027 0.361911 0.337619
O O14 0.750000 0.750000 0.500000
#
# Coordination Sequence:
#
# PCOD9287664 Si02
#       7
#     8   8   8   8   4   8   8
#     4  10  22  37  62  87 123 166 204 262 314 368
#     4  11  24  37  60  89 128 163 208 256 311 367
#     4  11  23  38  63  90 126 161 209 258 313 371
#     4  11  24  41  61  89 132 165 210 253 316 373
#     4  12  24  34  62  92 128 162 210 248 308 376
#     4  12  24  40  60  89 131 172 206 248 311 384
#     4  11  22  39  62  87 127 160 211 258 316 366
#
# _framework density 20.824462
#
# number of rings (size 3 to 8) (size 9 to 14) (size 15 to 20)
#    0.000    0.923    6.154    1.385    6.462    1.231 
#    0.000    0.000    0.000    0.923    0.000    0.000 
#    0.000    0.000    0.000    0.000    0.000    0.000 
#
# Total GULP energy -144968.644200 kJ/mol
# GULP energy per Si atom -5575.717085 kJ/mol
# Density = 2.077706 g / cm^3
# Si number density = 20.824462 Si / 1000 Ang^3
#
#
#
# Elastic Constant Matrix: (Units=GPa)
#
#
# Indices 1 2 3 4 5 6 
#
# 1 122.4234 18.1969 40.5359 0.0022 1.6694 0.0008
# 2 18.1969 44.1157 20.0541 0.0126 5.7244 -0.0048
# 3 40.5359 20.0541 113.2779 0.0050 15.2327 -0.0033
# 4 0.0022 0.0126 0.0050 18.2760 -0.0018 -6.8397
# 5 1.6694 5.7244 15.2327 -0.0018 33.1735 0.0003
# 6 0.0008 -0.0048 -0.0033 -6.8397 0.0003 20.9888
#
#
#
# Elastic Compliance Matrix: (Units=1/GPa)
#
#
# Indices 1 2 3 4 5 6 
#
# 1 0.009593 -0.002713 -0.003145 0.000001 0.001429 -0.000001
# 2 -0.002713 0.025599 -0.003182 -0.000017 -0.002820 0.000000
# 3 -0.003145 -0.003182 0.011107 -0.000001 -0.004393 0.000001
# 4 0.000001 -0.000017 -0.000001 0.062316 0.000006 0.020307
# 5 0.001429 -0.002820 -0.004393 0.000006 0.032576 0.000000
# 6 -0.000001 0.000000 0.000001 0.020307 0.000000 0.054262
#
#
# Mechanical properties :
#
#
# Convention : Reuss Voigt Hill
#
# Bulk Modulus (GPa) = 35.43566 48.59896 42.01731
# Shear Modulus (GPa) = 22.42747 27.88967 25.15857
#
# Velocity S-wave (km/s) = 3.28529 3.66358 3.47958
# Velocity P-wave (km/s) = 5.60751 6.42525 6.03026
#
# Compressibility (1/GPa) = 0.02822016
#
# Stress axis : x y z
#
# Youngs Moduli (GPa) = 104.23777 39.06397 90.03124
#
# Poissons Ratio (x) = 0.10598 0.28314
# Poissons Ratio (y) = 0.28280 0.28647
# Poissons Ratio (z) = 0.32782 0.12430
#
# Static dielectric constant tensor:
#      x y z
#    x 1.819270 0.000000 -0.013660 
#    y 0.000000 1.780080 0.000000 
#    z -0.013660 0.000000 1.835040 
# 
# From -- ./inp_files/206777.got.cif
#   From: 2010.05.17/outbox.cif.g08.bks.cpg/sg15_104_cif.got.tgz:206777.got - 2010.06.03 18:47:42.
