data_PCOD9287037
_publ_section_title
;
Structure prediction by ZEFSAII (Michael W. Deem and Ramdas Pophale) SiO2 
 PCOD9287037
Probable space group: C 2/C
;
_chemical_formula_sum "Si O2"
_cell_formula_units_Z 32
_cell_length_a 12.115288
_cell_length_b 7.480830
_cell_length_c 15.143401
_cell_angle_alpha 90.000000
_cell_angle_beta 50.393080
_cell_angle_gamma 90.000000
_cell_volume 1057.410601
_symmetry_space_group_name_H-M "C 2/C"
_symmetry_group_IT_number 15
_symmetry_cell_setting 'monoclinic'
loop_
_space_group_symop_operation_xyz
x,y,z
-x,y,1/2-z
-x,-y,-z
x,-y,1/2+z
1/2+x,1/2+y,z
1/2-x,1/2+y,1/2-z
1/2-x,1/2-y,-z
1/2+x,1/2-y,1/2+z
loop_
_atom_site_type_symbol
_atom_site_label
_atom_site_fract_x
_atom_site_fract_y
_atom_site_fract_z
Si Si1 0.689923 0.907213 0.411222
Si Si2 0.173688 0.738715 0.639138
Si Si3 0.634674 0.532552 0.367347
Si Si4 0.465171 0.243985 0.359308
O O1 0.732560 0.942203 0.151313
O O2 0.653312 0.746812 0.362236
O O3 0.736139 0.103068 0.357475
O O4 0.560113 0.893771 0.548747
O O5 0.250000 0.750000 0.500000
O O6 0.000000 0.760992 0.750000
O O7 0.177483 0.145700 0.591988
O O8 0.500000 0.500000 0.500000
O O9 0.581991 0.397025 0.318290
O O10 0.500000 0.153111 0.250000
#
# Coordination Sequence:
#
# PCOD9287037 Si02
#       4
#     8   8   8   8
#     4  10  23  46  78 112 166 218 281 356 430 509
#     4  12  27  50  85 127 176 227 296 362 437 535
#     4  10  24  49  81 119 169 229 287 360 441 521
#     4  10  21  45  75 116 166 219 281 353 430 517
#
# _framework density 30.262605000000001
#
# number of rings (size 3 to 8) (size 9 to 14) (size 15 to 20)
#    0.000    1.500    0.000    5.250    0.000    9.000 
#   22.500    2.500    0.000    1.500    0.000    0.000 
#    0.000    0.000    0.000    0.000    0.000    0.000 
#
# Total GULP energy -89466.527340 kJ/mol
# GULP energy per Si atom -5591.657959 kJ/mol
# Density = 3.019373 g / cm^3
# Si number density = 30.262605 Si / 1000 Ang^3
#
#
#
# Elastic Constant Matrix: (Units=GPa)
#
#
# Indices 1 2 3 4 5 6 
#
# 1 162.0160 52.8027 67.7330 0.0000 -42.0858 0.0000
# 2 52.8027 190.4419 74.3505 0.0000 -8.0781 0.0000
# 3 67.7330 74.3505 197.6930 0.0000 -10.4920 0.0000
# 4 0.0000 0.0000 0.0000 65.1571 0.0000 -15.9135
# 5 -42.0858 -8.0781 -10.4920 0.0000 68.6510 0.0000
# 6 0.0000 0.0000 0.0000 -15.9135 0.0000 61.4201
#
#
#
# Elastic Compliance Matrix: (Units=1/GPa)
#
#
# Indices 1 2 3 4 5 6 
#
# 1 0.008834 -0.001361 -0.002254 0.000000 0.004911 0.000000
# 2 -0.001361 0.006374 -0.001951 0.000000 -0.000383 0.000000
# 3 -0.002254 -0.001951 0.006532 0.000000 -0.000613 0.000000
# 4 0.000000 0.000000 0.000000 0.016384 0.000000 0.004245
# 5 0.004911 -0.000383 -0.000613 0.000000 0.017438 0.000000
# 6 0.000000 0.000000 0.000000 0.004245 0.000000 0.017381
#
#
# Mechanical properties :
#
#
# Convention : Reuss Voigt Hill
#
# Bulk Modulus (GPa) = 94.27686 104.43592 99.35639
# Shear Modulus (GPa) = 57.07019 62.72997 59.90008
#
# Velocity S-wave (km/s) = 4.34733 4.55780 4.45381
# Velocity P-wave (km/s) = 7.51130 7.89195 7.70397
#
# Compressibility (1/GPa) = 0.01060706
#
# Stress axis : x y z
#
# Youngs Moduli (GPa) = 113.20149 156.89202 153.09431
#
# Poissons Ratio (x) = 0.21352 0.34510
# Poissons Ratio (y) = 0.15406 0.29871
# Poissons Ratio (z) = 0.25517 0.30612
#
# Static dielectric constant tensor:
#      x y z
#    x 2.312720 0.000000 0.174820 
#    y 0.000000 2.515420 0.000000 
#    z 0.174820 0.000000 2.891880 
# 
# From -- ./inp_files/208400.got.cif
#   From: 2010.05.17/outbox.cif.g08.bks.cpg/sg15_105_cif.got.tgz:208400.got - 2010.06.03 18:47:42.
