data_PCOD9287429
_publ_section_title
;
Structure prediction by ZEFSAII (Michael W. Deem and Ramdas Pophale) SiO2 
 PCOD9287429
Probable space group: C 2/C
;
_chemical_formula_sum "Si O2"
_cell_formula_units_Z 48
_cell_length_a 22.412861
_cell_length_b 15.794035
_cell_length_c 14.462090
_cell_angle_alpha 90.000000
_cell_angle_beta 159.348712
_cell_angle_gamma 90.000000
_cell_volume 1805.516936
_symmetry_space_group_name_H-M "C 2/C"
_symmetry_group_IT_number 15
_symmetry_cell_setting 'monoclinic'
loop_
_space_group_symop_operation_xyz
x,y,z
-x,y,1/2-z
-x,-y,-z
x,-y,1/2+z
1/2+x,1/2+y,z
1/2-x,1/2+y,1/2-z
1/2-x,1/2-y,-z
1/2+x,1/2-y,1/2+z
loop_
_atom_site_type_symbol
_atom_site_label
_atom_site_fract_x
_atom_site_fract_y
_atom_site_fract_z
Si Si1 0.900744 0.816355 0.226935
Si Si2 0.395480 0.635411 0.180755
Si Si3 0.258222 0.653089 0.345693
Si Si4 0.699053 0.097861 0.055600
Si Si5 0.685198 0.423545 0.225275
Si Si6 0.419741 0.907814 0.401467
O O1 0.882959 0.854806 0.301762
O O2 0.087268 0.786529 0.464960
O O3 0.750000 0.750000 0.000000
O O4 0.838528 0.882706 0.056691
O O5 0.500000 0.684109 0.250000
O O6 0.297383 0.664437 0.132404
O O7 0.539426 0.574469 0.434555
O O8 0.235606 0.599629 0.893852
O O9 0.239422 0.604181 0.222641
O O10 0.060889 0.663584 0.084754
O O11 0.770377 0.003321 0.146199
O O12 0.500000 0.102732 0.750000
O O13 0.851119 0.403091 0.406057
O O14 0.500000 0.000000 0.500000
#
# Coordination Sequence:
#
# PCOD9287429 Si02
#       6
#     8   8   8   8   8   8
#     4  11  28  48  69  99 140 200 260 301 357 443
#     4  10  22  36  60  98 145 181 230 282 368 462
#     4  11  25  43  70 100 143 182 240 313 364 439
#     4  12  22  39  66 108 145 184 233 300 398 451
#     4  11  24  39  68 101 149 195 234 301 373 454
#     4  11  22  39  63 108 150 182 233 298 380 463
#
# _framework density 26.585184000000002
#
# number of rings (size 3 to 8) (size 9 to 14) (size 15 to 20)
#    0.000    1.000    5.000    0.500    4.667    4.000 
#    0.000    0.000    0.000    7.000    0.000    0.000 
#    0.000    0.000    0.000    0.000    0.000    0.000 
#
# Total GULP energy -133673.464193 kJ/mol
# GULP energy per Si atom -5569.727675 kJ/mol
# Density = 2.652468 g / cm^3
# Si number density = 26.585184 Si / 1000 Ang^3
#
#
#
# Elastic Constant Matrix: (Units=GPa)
#
#
# Indices 1 2 3 4 5 6 
#
# 1 236.3254 32.5011 58.6277 0.0000 31.1588 0.0000
# 2 32.5011 61.0786 49.7288 0.0000 2.2283 0.0000
# 3 58.6277 49.7288 167.0365 0.0000 22.7600 0.0000
# 4 0.0000 0.0000 0.0000 23.7694 0.0000 9.1281
# 5 31.1588 2.2283 22.7600 0.0000 65.2978 0.0000
# 6 0.0000 0.0000 0.0000 9.1281 0.0000 5.5133
#
#
#
# Elastic Compliance Matrix: (Units=1/GPa)
#
#
# Indices 1 2 3 4 5 6 
#
# 1 0.004975 -0.001813 -0.000936 0.000000 -0.001986 0.000000
# 2 -0.001813 0.022428 -0.006356 0.000000 0.002315 0.000000
# 3 -0.000936 -0.006356 0.008522 0.000000 -0.002307 0.000000
# 4 0.000000 0.000000 0.000000 0.115524 0.000000 -0.191269
# 5 -0.001986 0.002315 -0.002307 0.000000 0.016987 0.000000
# 6 0.000000 0.000000 0.000000 -0.191269 0.000000 0.498058
#
#
# Mechanical properties :
#
#
# Convention : Reuss Voigt Hill
#
# Bulk Modulus (GPa) = 56.45064 82.90620 69.67842
# Shear Modulus (GPa) = 7.24000 40.48828 23.86414
#
# Velocity S-wave (km/s) = 1.65204 3.90675 2.99933
# Velocity P-wave (km/s) = 4.99189 7.18353 6.18555
#
# Compressibility (1/GPa) = 0.01771459
#
# Stress axis : x y z
#
# Youngs Moduli (GPa) = 201.01561 44.58807 117.34617
#
# Poissons Ratio (x) = 0.08083 0.10981
# Poissons Ratio (y) = 0.36440 0.74587
# Poissons Ratio (z) = 0.18811 0.28341
#
# Static dielectric constant tensor:
#      x y z
#    x 2.211400 0.000000 -0.001390 
#    y 0.000000 2.242520 0.000000 
#    z -0.001390 0.000000 2.069970 
# 
# From -- ./inp_files/174534.got.cif
#   From: 2010.05.17/outbox.cif.g08.bks.cpg/sg15_88_cif.got.tgz:174534.got - 2010.06.03 18:47:42.
