data_PCOD9287823
_publ_section_title
;
Structure prediction by ZEFSAII (Michael W. Deem and Ramdas Pophale) SiO2 
 PCOD9287823
Probable space group: C 2/C
;
_chemical_formula_sum "Si O2"
_cell_formula_units_Z 60
_cell_length_a 9.589991
_cell_length_b 16.376828
_cell_length_c 16.729720
_cell_angle_alpha 90.000000
_cell_angle_beta 111.472811
_cell_angle_gamma 90.000000
_cell_volume 2445.094710
_symmetry_space_group_name_H-M "C 2/C"
_symmetry_group_IT_number 15
_symmetry_cell_setting 'monoclinic'
loop_
_space_group_symop_operation_xyz
x,y,z
-x,y,1/2-z
-x,-y,-z
x,-y,1/2+z
1/2+x,1/2+y,z
1/2-x,1/2+y,1/2-z
1/2-x,1/2-y,-z
1/2+x,1/2-y,1/2+z
loop_
_atom_site_type_symbol
_atom_site_label
_atom_site_fract_x
_atom_site_fract_y
_atom_site_fract_z
Si Si1 0.382403 0.307351 0.993591
Si Si2 0.212504 0.579050 0.763992
Si Si3 0.450343 0.796926 0.377051
Si Si4 0.339482 0.077791 0.991105
Si Si5 0.714744 0.665515 0.567989
Si Si6 0.214443 0.084912 0.397525
Si Si7 0.936792 0.591846 0.316380
Si Si8 0.500000 0.511320 0.750000
O O1 0.555147 0.293339 0.056062
O O2 0.250000 0.250000 0.000000
O O3 0.383452 0.286453 0.899302
O O4 0.326994 0.392897 0.017223
O O5 0.252902 0.591887 0.864248
O O6 0.123415 0.496421 0.726287
O O7 0.364849 0.567954 0.747879
O O8 0.128324 0.658946 0.713336
O O9 0.418436 0.861957 0.443063
O O10 0.626738 0.787941 0.398615
O O11 0.430625 0.081084 0.092267
O O12 0.321499 0.991029 0.945578
O O13 0.696131 0.632755 0.474881
O O14 0.299267 0.127042 0.340412
O O15 0.061435 0.046681 0.332753
O O16 0.000000 0.635151 0.250000
#
# Coordination Sequence:
#
# PCOD9287823 Si02
#       8
#     8   8   8   8   8   8   8   4
#     4  10  26  43  65  92 127 181 232 276 334 398
#     4  11  23  37  69 103 133 171 226 280 335 401
#     4  11  21  43  68  94 134 175 231 278 327 403
#     4  11  20  41  65  95 137 173 214 274 341 406
#     4  12  24  42  71 101 130 180 227 286 341 396
#     4  11  22  37  66  98 135 174 215 282 341 405
#     4  11  21  36  63 100 134 173 215 266 342 407
#     4  10  22  38  58 102 144 172 212 284 336 406
#
# _framework density 24.538927999999999
#
# number of rings (size 3 to 8) (size 9 to 14) (size 15 to 20)
#    0.000    1.067    4.000    4.400    1.867    4.267 
#    0.000    2.667    8.800    0.000    0.000    0.000 
#    0.000    0.000    0.000    0.000    0.000    0.000 
#
# Total GULP energy -167708.568692 kJ/mol
# GULP energy per Si atom -5590.285623 kJ/mol
# Density = 2.448308 g / cm^3
# Si number density = 24.538928 Si / 1000 Ang^3
#
#
#
# Elastic Constant Matrix: (Units=GPa)
#
#
# Indices 1 2 3 4 5 6 
#
# 1 179.6548 26.4628 40.5917 0.0000 -3.4406 0.0000
# 2 26.4628 27.0311 17.7745 0.0000 -11.6965 0.0000
# 3 40.5917 17.7745 139.1031 0.0000 -5.9759 0.0000
# 4 0.0000 0.0000 0.0000 -15.9021 0.0000 2.8381
# 5 -3.4406 -11.6965 -5.9759 0.0000 39.9523 0.0000
# 6 0.0000 0.0000 0.0000 2.8381 0.0000 30.0131
#
#
#
# Elastic Compliance Matrix: (Units=1/GPa)
#
#
# Indices 1 2 3 4 5 6 
#
# 1 0.006765 -0.006472 -0.001211 0.000000 -0.001493 0.000000
# 2 -0.006472 0.052172 -0.004172 0.000000 0.014092 0.000000
# 3 -0.001211 -0.004172 0.008070 0.000000 -0.000119 0.000000
# 4 0.000000 0.000000 0.000000 -0.061841 0.000000 0.005848
# 5 -0.001493 0.014092 -0.000119 0.000000 0.029009 0.000000
# 6 0.000000 0.000000 0.000000 0.005848 0.000000 0.032766
#
#
# Mechanical properties :
#
#
# Convention : Reuss Voigt Hill
#
# Bulk Modulus (GPa) = 23.09709 57.27188 40.18449
# Shear Modulus (GPa) = 47.58090 28.20999 37.89545
#
# Velocity S-wave (km/s) = 4.40818 3.39426 3.93402
# Velocity P-wave (km/s) = 5.94494 6.22504 6.08660
#
# Compressibility (1/GPa) = 0.04329550
#
# Stress axis : x y z
#
# Youngs Moduli (GPa) = 147.82795 19.16736 123.90985
#
# Poissons Ratio (x) = 0.12406 0.15007
# Poissons Ratio (y) = 0.95678 0.51700
# Poissons Ratio (z) = 0.17904 0.07997
#
# Static dielectric constant tensor:
#      x y z
#    x 2.009050 0.000000 -0.011360 
#    y 0.000000 2.040290 0.000000 
#    z -0.011360 0.000000 1.933900 
# 
# From -- ./inp_files/192197.got.cif
#   From: 2010.05.17/outbox.cif.g08.bks.cpg/sg15_97_cif.got.tgz:192197.got - 2010.06.03 18:47:42.
