data_PCOD9287456
_publ_section_title
;
Structure prediction by ZEFSAII (Michael W. Deem and Ramdas Pophale) SiO2 
 PCOD9287456
Probable space group: C 2/C
;
_chemical_formula_sum "Si O2"
_cell_formula_units_Z 52
_cell_length_a 9.281238
_cell_length_b 21.555750
_cell_length_c 13.805475
_cell_angle_alpha 90.000000
_cell_angle_beta 62.364612
_cell_angle_gamma 90.000000
_cell_volume 2446.885036
_symmetry_space_group_name_H-M "C 2/C"
_symmetry_group_IT_number 15
_symmetry_cell_setting 'monoclinic'
loop_
_space_group_symop_operation_xyz
x,y,z
-x,y,1/2-z
-x,-y,-z
x,-y,1/2+z
1/2+x,1/2+y,z
1/2-x,1/2+y,1/2-z
1/2-x,1/2-y,-z
1/2+x,1/2-y,1/2+z
loop_
_atom_site_type_symbol
_atom_site_label
_atom_site_fract_x
_atom_site_fract_y
_atom_site_fract_z
Si Si1 0.480961 0.868100 0.370391
Si Si2 0.726541 0.329725 0.099509
Si Si3 0.979845 0.941468 0.366304
Si Si4 0.250000 0.250000 0.000000
Si Si5 0.996438 0.854734 0.635570
Si Si6 0.332118 0.188201 0.350893
Si Si7 0.205297 0.960720 0.470679
O O1 0.500000 0.858180 0.250000
O O2 0.657407 0.866707 0.364148
O O3 0.369968 0.812309 0.446713
O O4 0.383262 0.931784 0.419154
O O5 0.564300 0.368536 0.125700
O O6 0.691481 0.262330 0.154519
O O7 0.823027 0.321375 0.968778
O O8 0.000000 0.963618 0.250000
O O9 0.135776 0.956958 0.383100
O O10 0.828671 0.973452 0.469472
O O11 0.404922 0.295629 0.933971
O O12 0.814529 0.847939 0.653451
O O13 0.000000 0.854116 0.750000
O O14 0.084041 0.915287 0.567273
O O15 0.500000 0.169535 0.250000
#
# Coordination Sequence:
#
# PCOD9287456 Si02
#       7
#     8   8   8   4   8   8   8
#     4  11  23  39  63  94 126 171 211 266 322 383
#     4  11  24  41  61  93 132 164 214 264 323 379
#     4  11  22  44  68  91 122 173 212 272 322 386
#     4  10  22  36  62  92 132 162 220 260 312 386
#     4  11  22  40  65  94 127 171 212 268 321 384
#     4  11  25  39  60  97 132 170 208 264 328 387
#     4  10  24  42  66  93 127 160 228 262 316 396
#
# _framework density 21.251508999999999
#
# number of rings (size 3 to 8) (size 9 to 14) (size 15 to 20)
#    0.000    1.231    3.077    2.308    4.308    0.615 
#    0.000    0.769    0.000    0.000    0.000    0.000 
#    0.000    0.000    0.000    0.000    0.000    0.000 
#
# Total GULP energy -144880.502895 kJ/mol
# GULP energy per Si atom -5572.327034 kJ/mol
# Density = 2.120314 g / cm^3
# Si number density = 21.251509 Si / 1000 Ang^3
#
#
#
# Elastic Constant Matrix: (Units=GPa)
#
#
# Indices 1 2 3 4 5 6 
#
# 1 72.6769 -15.9101 29.6240 0.0000 8.1675 0.0000
# 2 -15.9101 42.1352 -16.0440 0.0000 4.3451 0.0000
# 3 29.6240 -16.0440 50.3883 0.0000 -7.8698 0.0000
# 4 0.0000 0.0000 0.0000 1.5662 0.0000 -6.0493
# 5 8.1675 4.3451 -7.8698 0.0000 23.3302 0.0000
# 6 0.0000 0.0000 0.0000 -6.0493 0.0000 24.7119
#
#
#
# Elastic Compliance Matrix: (Units=1/GPa)
#
#
# Indices 1 2 3 4 5 6 
#
# 1 0.021593 0.004417 -0.013298 0.000000 -0.012868 0.000000
# 2 0.004417 0.028023 0.005562 0.000000 -0.004889 0.000000
# 3 -0.013298 0.005562 0.031669 0.000000 0.014302 0.000000
# 4 0.000000 0.000000 0.000000 11.710301 0.000000 2.866582
# 5 -0.012868 -0.004889 0.014302 0.000000 0.053103 0.000000
# 6 0.000000 0.000000 0.000000 2.866582 0.000000 0.742181
#
#
# Mechanical properties :
#
#
# Convention : Reuss Voigt Hill
#
# Bulk Modulus (GPa) = 13.39636 17.83782 15.61709
# Shear Modulus (GPa) = 0.39625 21.09036 10.74330
#
# Velocity S-wave (km/s) = 0.43227 3.15368 2.25084
# Velocity P-wave (km/s) = 2.56253 4.65541 3.75762
#
# Compressibility (1/GPa) = 0.07464712
#
# Stress axis : x y z
#
# Youngs Moduli (GPa) = 46.31120 35.68488 31.57663
#
# Poissons Ratio (x) = -0.15761 0.41991
# Poissons Ratio (y) = -0.20455 -0.17564
# Poissons Ratio (z) = 0.61586 -0.19850
#
# Static dielectric constant tensor:
#      x y z
#    x 1.752830 0.000000 0.008820 
#    y 0.000000 1.773900 0.000000 
#    z 0.008820 0.000000 1.793880 
# 
# From -- ./inp_files/137193.got.cif
#   From: 2010.05.17/outbox.cif.g08.bks.cpg/sg15_69_cif.got.tgz:137193.got - 2010.06.03 18:47:42.
