data_PCOD9287173
_publ_section_title
;
Structure prediction by ZEFSAII (Michael W. Deem and Ramdas Pophale) SiO2 
 PCOD9287173
Probable space group: C 2/C
;
_chemical_formula_sum "Si O2"
_cell_formula_units_Z 48
_cell_length_a 25.586997
_cell_length_b 14.297399
_cell_length_c 11.554061
_cell_angle_alpha 90.000000
_cell_angle_beta 149.322319
_cell_angle_gamma 90.000000
_cell_volume 2156.543476
_symmetry_space_group_name_H-M "C 2/C"
_symmetry_group_IT_number 15
_symmetry_cell_setting 'monoclinic'
loop_
_space_group_symop_operation_xyz
x,y,z
-x,y,1/2-z
-x,-y,-z
x,-y,1/2+z
1/2+x,1/2+y,z
1/2-x,1/2+y,1/2-z
1/2-x,1/2-y,-z
1/2+x,1/2-y,1/2+z
loop_
_atom_site_type_symbol
_atom_site_label
_atom_site_fract_x
_atom_site_fract_y
_atom_site_fract_z
Si Si1 0.945314 0.665782 0.416264
Si Si2 0.118318 0.147285 0.578272
Si Si3 0.258840 0.579588 0.478275
Si Si4 0.108418 0.778777 0.415842
Si Si5 0.594616 0.593888 0.274530
Si Si6 0.144122 0.733802 0.734197
O O1 0.917355 0.748393 0.453709
O O2 0.862962 0.583411 0.274833
O O3 0.920642 0.708858 0.242784
O O4 0.068360 0.656450 0.645892
O O5 0.128165 0.140676 0.460121
O O6 0.026053 0.074309 0.435340
O O7 0.212130 0.121285 0.839980
O O8 0.312525 0.647823 0.486745
O O9 0.320839 0.483894 0.586834
O O10 0.152003 0.727145 0.611790
O O11 0.000000 0.822708 0.250000
O O12 0.591347 0.666876 0.163672
O O13 0.250000 0.750000 0.000000
#
# Coordination Sequence:
#
# PCOD9287173 Si02
#       6
#     8   8   8   8   8   8
#     4   9  20  39  58  84 112 160 199 241 292 373
#     4   9  19  36  55  81 122 152 196 235 305 355
#     4  11  21  33  60  82 120 152 195 243 309 351
#     4   9  19  34  56  83 114 150 195 231 290 361
#     4  10  22  33  54  89 117 151 191 260 300 348
#     4  10  22  38  58  84 114 152 199 249 301 355
#
# _framework density 22.257839000000001
#
# number of rings (size 3 to 8) (size 9 to 14) (size 15 to 20)
#    0.000    2.333    0.000    3.500    9.333    0.000 
#    0.000    0.833    0.000    0.000    4.333    0.000 
#    0.000    0.000    0.000    0.000    0.000    0.000 
#
# Total GULP energy -133827.146684 kJ/mol
# GULP energy per Si atom -5576.131112 kJ/mol
# Density = 2.220718 g / cm^3
# Si number density = 22.257839 Si / 1000 Ang^3
#
#
#
# Elastic Constant Matrix: (Units=GPa)
#
#
# Indices 1 2 3 4 5 6 
#
# 1 87.0099 16.3096 41.2898 0.0000 -10.7053 0.0000
# 2 16.3096 36.2987 10.0516 0.0000 11.3914 0.0000
# 3 41.2898 10.0516 134.3978 0.0000 20.7540 0.0000
# 4 0.0000 0.0000 0.0000 29.4911 0.0000 11.4941
# 5 -10.7053 11.3914 20.7540 0.0000 44.8487 0.0000
# 6 0.0000 0.0000 0.0000 11.4941 0.0000 14.6591
#
#
#
# Elastic Compliance Matrix: (Units=1/GPa)
#
#
# Indices 1 2 3 4 5 6 
#
# 1 0.017137 -0.008902 -0.006009 0.000000 0.009132 0.000000
# 2 -0.008902 0.034724 0.001969 0.000000 -0.011856 0.000000
# 3 -0.006009 0.001969 0.010165 0.000000 -0.006638 0.000000
# 4 0.000000 0.000000 0.000000 0.048831 0.000000 -0.038288
# 5 0.009132 -0.011856 -0.006638 0.000000 0.030560 0.000000
# 6 0.000000 0.000000 0.000000 -0.038288 0.000000 0.098239
#
#
# Mechanical properties :
#
#
# Convention : Reuss Voigt Hill
#
# Bulk Modulus (GPa) = 27.66952 43.66761 35.66856
# Shear Modulus (GPa) = 18.01232 30.47014 24.24123
#
# Velocity S-wave (km/s) = 2.84783 3.70396 3.30375
# Velocity P-wave (km/s) = 4.82409 6.16068 5.53290
#
# Compressibility (1/GPa) = 0.03614085
#
# Stress axis : x y z
#
# Youngs Moduli (GPa) = 58.35412 28.79824 98.38057
#
# Poissons Ratio (x) = 0.25635 0.59119
# Poissons Ratio (y) = 0.51945 -0.19366
# Poissons Ratio (z) = 0.35066 -0.05669
#
# Static dielectric constant tensor:
#      x y z
#    x 1.867780 0.000000 0.102320 
#    y 0.000000 1.847930 0.000000 
#    z 0.102320 0.000000 1.918430 
# 
# From -- ./inp_files/123597.got.cif
#   From: 2010.05.17/outbox.cif.g08.bks.cpg/sg15_62_cif.got.tgz:123597.got - 2010.06.03 18:47:42.
