data_PCOD9287886
_publ_section_title
;
Structure prediction by ZEFSAII (Michael W. Deem and Ramdas Pophale) SiO2 
 PCOD9287886
Probable space group: C 2/C
;
_chemical_formula_sum "Si O2"
_cell_formula_units_Z 44
_cell_length_a 18.836001
_cell_length_b 15.416634
_cell_length_c 10.848887
_cell_angle_alpha 90.000000
_cell_angle_beta 133.302155
_cell_angle_gamma 90.000000
_cell_volume 2292.682172
_symmetry_space_group_name_H-M "C 2/C"
_symmetry_group_IT_number 15
_symmetry_cell_setting 'monoclinic'
loop_
_space_group_symop_operation_xyz
x,y,z
-x,y,1/2-z
-x,-y,-z
x,-y,1/2+z
1/2+x,1/2+y,z
1/2-x,1/2+y,1/2-z
1/2-x,1/2-y,-z
1/2+x,1/2-y,1/2+z
loop_
_atom_site_type_symbol
_atom_site_label
_atom_site_fract_x
_atom_site_fract_y
_atom_site_fract_z
Si Si1 0.592364 0.048359 0.766573
Si Si2 0.648966 0.850597 0.820850
Si Si3 0.218160 0.156659 0.516157
Si Si4 0.000000 0.813532 0.750000
Si Si5 0.479007 0.206480 0.966933
Si Si6 0.784313 0.272882 0.343256
O O1 0.500000 0.047741 0.750000
O O2 0.695407 0.093428 0.928254
O O3 0.555096 0.109196 0.610488
O O4 0.622050 0.950448 0.772744
O O5 0.553201 0.797643 0.667134
O O6 0.727107 0.811529 0.819267
O O7 0.686197 0.828442 0.001504
O O8 0.250000 0.250000 0.500000
O O9 0.228612 0.168575 0.676683
O O10 0.103876 0.138284 0.353569
O O11 0.982824 0.751213 0.611558
O O12 0.383013 0.255631 0.894704
#
# Coordination Sequence:
#
# PCOD9287886 Si02
#       6
#     8   8   8   4   8   8
#     4  11  22  37  64  97 122 153 200 263 314 352
#     4  11  23  38  59  92 128 156 201 250 315 369
#     4  11  21  40  62  87 121 161 212 248 305 364
#     4  12  20  38  64  86 116 164 210 246 296 368
#     4  11  20  37  62  91 120 157 201 249 308 361
#     4  10  22  38  59  87 122 168 193 244 308 378
#
# _framework density 19.191496000000001
#
# number of rings (size 3 to 8) (size 9 to 14) (size 15 to 20)
#    0.000    1.091    6.364    2.182    0.000    1.455 
#    0.000    0.000    8.000    2.182    0.000    0.000 
#    0.000    0.000    0.000    0.000    0.000    0.000 
#
# Total GULP energy -122621.838555 kJ/mol
# GULP energy per Si atom -5573.719934 kJ/mol
# Density = 1.914782 g / cm^3
# Si number density = 19.191496 Si / 1000 Ang^3
#
#
#
# Elastic Constant Matrix: (Units=GPa)
#
#
# Indices 1 2 3 4 5 6 
#
# 1 110.9902 46.2401 33.2636 0.0000 26.8609 0.0000
# 2 46.2401 53.6660 21.2198 0.0000 13.8398 0.0000
# 3 33.2636 21.2198 109.9624 0.0000 20.3439 0.0000
# 4 0.0000 0.0000 0.0000 21.1401 0.0000 8.6206
# 5 26.8609 13.8398 20.3439 0.0000 40.6770 0.0000
# 6 0.0000 0.0000 0.0000 8.6206 0.0000 7.6103
#
#
#
# Elastic Compliance Matrix: (Units=1/GPa)
#
#
# Indices 1 2 3 4 5 6 
#
# 1 0.015554 -0.011360 -0.001463 0.000000 -0.005674 0.000000
# 2 -0.011360 0.029615 -0.001986 0.000000 -0.001581 0.000000
# 3 -0.001463 -0.001986 0.010597 0.000000 -0.003658 0.000000
# 4 0.000000 0.000000 0.000000 0.087912 0.000000 -0.099582
# 5 -0.005674 -0.001581 -0.003658 0.000000 0.030698 0.000000
# 6 0.000000 0.000000 0.000000 -0.099582 0.000000 0.244202
#
#
# Mechanical properties :
#
#
# Convention : Reuss Voigt Hill
#
# Bulk Modulus (GPa) = 38.24471 52.89617 45.57044
# Shear Modulus (GPa) = 10.94302 25.47850 18.21076
#
# Velocity S-wave (km/s) = 2.39048 3.64757 3.08376
# Velocity P-wave (km/s) = 5.25266 6.73512 6.03954
#
# Compressibility (1/GPa) = 0.02614741
#
# Stress axis : x y z
#
# Youngs Moduli (GPa) = 64.29054 33.76666 94.37005
#
# Poissons Ratio (x) = 0.38360 0.13808
# Poissons Ratio (y) = 0.73035 0.18741
# Poissons Ratio (z) = 0.09407 0.06706
#
# Static dielectric constant tensor:
#      x y z
#    x 1.743390 0.000000 0.020230 
#    y 0.000000 1.637150 0.000000 
#    z 0.020230 0.000000 1.733780 
# 
# From -- ./inp_files/105507.got.cif
#   From: 2010.05.17/outbox.cif.g08.bks.cpg/sg15_53_cif.got.tgz:105507.got - 2010.06.03 18:47:42.
