data_PCOD9287299
_publ_section_title
;
Structure prediction by ZEFSAII (Michael W. Deem and Ramdas Pophale) SiO2 
 PCOD9287299
Probable space group: C 2/C
;
_chemical_formula_sum "Si O2"
_cell_formula_units_Z 36
_cell_length_a 11.250186
_cell_length_b 17.197878
_cell_length_c 9.203519
_cell_angle_alpha 90.000000
_cell_angle_beta 119.850653
_cell_angle_gamma 90.000000
_cell_volume 1544.438874
_symmetry_space_group_name_H-M "C 2/C"
_symmetry_group_IT_number 15
_symmetry_cell_setting 'monoclinic'
loop_
_space_group_symop_operation_xyz
x,y,z
-x,y,1/2-z
-x,-y,-z
x,-y,1/2+z
1/2+x,1/2+y,z
1/2-x,1/2+y,1/2-z
1/2-x,1/2-y,-z
1/2+x,1/2-y,1/2+z
loop_
_atom_site_type_symbol
_atom_site_label
_atom_site_fract_x
_atom_site_fract_y
_atom_site_fract_z
Si Si1 0.500000 0.698854 0.250000
Si Si2 0.825530 0.656136 0.687286
Si Si3 0.060556 0.583872 0.009904
Si Si4 0.208970 0.148930 0.146123
Si Si5 0.152361 0.814217 0.312530
O O1 0.621961 0.762858 0.353366
O O2 0.578049 0.649078 0.174084
O O3 0.847319 0.591420 0.578787
O O4 0.677550 0.650766 0.668922
O O5 0.930997 0.637500 0.884625
O O6 0.158517 0.610859 0.199481
O O7 0.000000 0.500000 0.000000
O O8 0.249087 0.239621 0.145353
O O9 0.182197 0.126693 0.962626
O O10 0.000000 0.785321 0.250000
#
# Coordination Sequence:
#
# PCOD9287299 Si02
#       5
#     4   8   8   8   8
#     4   8  18  36  58  92 120 162 202 264 328 372
#     4   9  22  38  59  92 125 168 212 270 324 378
#     4  10  22  40  64  88 121 173 225 261 310 386
#     4  10  22  35  62  92 130 172 208 264 326 388
#     4  10  23  36  58  98 135 164 204 270 339 388
#
# _framework density 23.309434
#
# number of rings (size 3 to 8) (size 9 to 14) (size 15 to 20)
#    0.000    2.667    0.000    0.000   15.556    8.000 
#    0.000    0.000    2.444    2.667    0.000    0.000 
#    0.000    0.000    0.000    0.000    0.000    0.000 
#
# Total GULP energy -100224.391481 kJ/mol
# GULP energy per Si atom -5568.021749 kJ/mol
# Density = 2.325638 g / cm^3
# Si number density = 23.309434 Si / 1000 Ang^3
#
#
#
# Elastic Constant Matrix: (Units=GPa)
#
#
# Indices 1 2 3 4 5 6 
#
# 1 140.4091 9.0802 16.3609 0.0000 -32.2320 0.0000
# 2 9.0802 42.3962 19.4495 0.0000 -7.2894 0.0000
# 3 16.3609 19.4495 86.7048 0.0000 12.6824 0.0000
# 4 0.0000 0.0000 0.0000 16.8185 0.0000 7.5182
# 5 -32.2320 -7.2894 12.6824 0.0000 40.6028 0.0000
# 6 0.0000 0.0000 0.0000 7.5182 0.0000 16.2206
#
#
#
# Elastic Compliance Matrix: (Units=1/GPa)
#
#
# Indices 1 2 3 4 5 6 
#
# 1 0.009434 0.000972 -0.003268 0.000000 0.008684 0.000000
# 2 0.000972 0.028363 -0.007758 0.000000 0.008287 0.000000
# 3 -0.003268 -0.007758 0.015166 0.000000 -0.008725 0.000000
# 4 0.000000 0.000000 0.000000 0.074997 0.000000 -0.034761
# 5 0.008684 0.008287 -0.008725 0.000000 0.035735 0.000000
# 6 0.000000 0.000000 0.000000 -0.034761 0.000000 0.077762
#
#
# Mechanical properties :
#
#
# Convention : Reuss Voigt Hill
#
# Bulk Modulus (GPa) = 30.43733 39.92125 35.17929
# Shear Modulus (GPa) = 18.34750 29.70301 24.02525
#
# Velocity S-wave (km/s) = 2.80862 3.57359 3.21395
# Velocity P-wave (km/s) = 4.85841 5.84733 5.37566
#
# Compressibility (1/GPa) = 0.03285439
#
# Stress axis : x y z
#
# Youngs Moduli (GPa) = 106.00495 35.25774 65.93487
#
# Poissons Ratio (x) = -0.03427 0.21550
# Poissons Ratio (y) = -0.10304 0.51151
# Poissons Ratio (z) = 0.34646 0.27352
#
# Static dielectric constant tensor:
#      x y z
#    x 1.975280 0.000000 -0.058650 
#    y 0.000000 1.896670 0.000000 
#    z -0.058650 0.000000 2.100520 
# 
# From -- ./inp_files/30587.got.cif
#   From: 2010.05.17/outbox.cif.g08.bks.cpg/sg15_16_cif.got.tgz:30587.got - 2010.06.03 18:47:42.
