data_PCOD9287881
_publ_section_title
;
Structure prediction by ZEFSAII (Michael W. Deem and Ramdas Pophale) SiO2 
 PCOD9287881
Probable space group: C 2/C
;
_chemical_formula_sum "Si O2"
_cell_formula_units_Z 40
_cell_length_a 8.254850
_cell_length_b 28.967762
_cell_length_c 8.068697
_cell_angle_alpha 90.000000
_cell_angle_beta 93.216021
_cell_angle_gamma 90.000000
_cell_volume 1926.384762
_symmetry_space_group_name_H-M "C 2/C"
_symmetry_group_IT_number 15
_symmetry_cell_setting 'monoclinic'
loop_
_space_group_symop_operation_xyz
x,y,z
-x,y,1/2-z
-x,-y,-z
x,-y,1/2+z
1/2+x,1/2+y,z
1/2-x,1/2+y,1/2-z
1/2-x,1/2-y,-z
1/2+x,1/2-y,1/2+z
loop_
_atom_site_type_symbol
_atom_site_label
_atom_site_fract_x
_atom_site_fract_y
_atom_site_fract_z
Si Si1 0.807806 0.312730 0.868602
Si Si2 0.000000 0.000471 0.750000
Si Si3 0.500000 0.633146 0.250000
Si Si4 0.588788 0.139654 0.579292
Si Si5 0.680018 0.709531 0.729381
Si Si6 0.148338 0.932540 0.528966
O O1 0.666949 0.339708 0.766799
O O2 0.826856 0.265101 0.768845
O O3 0.736463 0.301089 0.046549
O O4 0.964892 0.342504 0.930653
O O5 0.917774 0.034440 0.615736
O O6 0.143151 0.967585 0.685589
O O7 0.487111 0.603763 0.417495
O O8 0.500000 0.127308 0.750000
O O9 0.699641 0.183715 0.638363
O O10 0.696594 0.096978 0.518809
O O11 0.500000 0.691420 0.750000
#
# Coordination Sequence:
#
# PCOD9287881 Si02
#       6
#     8   4   4   8   8   8
#     4  10  24  38  57  94 132 172 226 263 314 371
#     4   9  22  44  74 100 122 164 210 274 338 417
#     4  11  24  38  68  94 128 180 210 272 320 389
#     4  10  23  40  63  95 130 177 220 271 313 382
#     4  10  22  38  59  86 129 182 222 266 302 370
#     4  10  22  43  71  96 127 164 217 264 337 401
#
# _framework density 20.764285000000001
#
# number of rings (size 3 to 8) (size 9 to 14) (size 15 to 20)
#    0.000    2.000    0.000    1.200   16.800    0.800 
#    0.000    1.000    0.000    0.000    0.000    0.000 
#    0.000    0.000    0.000    0.000    0.000    0.000 
#
# Total GULP energy -111515.852134 kJ/mol
# GULP energy per Si atom -5575.792607 kJ/mol
# Density = 2.071702 g / cm^3
# Si number density = 20.764285 Si / 1000 Ang^3
#
#
#
# Elastic Constant Matrix: (Units=GPa)
#
#
# Indices 1 2 3 4 5 6 
#
# 1 129.0242 74.2636 48.5043 0.0000 -6.4502 0.0000
# 2 74.2636 135.2300 60.3162 0.0000 -5.8260 0.0000
# 3 48.5043 60.3162 89.5956 0.0000 -5.1078 0.0000
# 4 0.0000 0.0000 0.0000 15.1006 0.0000 -10.9363
# 5 -6.4502 -5.8260 -5.1078 0.0000 32.1088 0.0000
# 6 0.0000 0.0000 0.0000 -10.9363 0.0000 27.3729
#
#
#
# Elastic Compliance Matrix: (Units=1/GPa)
#
#
# Indices 1 2 3 4 5 6 
#
# 1 0.011870 -0.005195 -0.002873 0.000000 0.000985 0.000000
# 2 -0.005195 0.012862 -0.005825 0.000000 0.000363 0.000000
# 3 -0.002873 -0.005825 0.016696 0.000000 0.001022 0.000000
# 4 0.000000 0.000000 0.000000 0.093186 0.000000 0.037231
# 5 0.000985 0.000363 0.001022 0.000000 0.031570 0.000000
# 6 0.000000 0.000000 0.000000 0.037231 0.000000 0.051407
#
#
# Mechanical properties :
#
#
# Convention : Reuss Voigt Hill
#
# Bulk Modulus (GPa) = 73.30308 80.00200 76.65254
# Shear Modulus (GPa) = 20.00607 26.30082 23.15345
#
# Velocity S-wave (km/s) = 3.10737 3.56285 3.34288
# Velocity P-wave (km/s) = 6.94647 7.45235 7.20385
#
# Compressibility (1/GPa) = 0.01364199
#
# Stress axis : x y z
#
# Youngs Moduli (GPa) = 84.24911 77.75129 59.89307
#
# Poissons Ratio (x) = 0.40389 0.17205
# Poissons Ratio (y) = 0.43765 0.34891
# Poissons Ratio (z) = 0.24201 0.45294
#
# Static dielectric constant tensor:
#      x y z
#    x 1.745340 0.000000 -0.048750 
#    y 0.000000 1.756000 0.000000 
#    z -0.048750 0.000000 1.801550 
# 
# From -- ./inp_files/23686.got.cif
#   From: 2010.05.17/outbox.cif.g08.bks.cpg/sg15_12_cif.got.tgz:23686.got - 2010.06.03 18:47:42.
