data_PCOD9287460
_publ_section_title
;
Structure prediction by ZEFSAII (Michael W. Deem and Ramdas Pophale) SiO2 
 PCOD9287460
Probable space group: C 2/C
;
_chemical_formula_sum "Si O2"
_cell_formula_units_Z 36
_cell_length_a 5.422509
_cell_length_b 17.346053
_cell_length_c 21.774931
_cell_angle_alpha 90.000000
_cell_angle_beta 116.893570
_cell_angle_gamma 90.000000
_cell_volume 1826.622177
_symmetry_space_group_name_H-M "C 2/C"
_symmetry_group_IT_number 15
_symmetry_cell_setting 'monoclinic'
loop_
_space_group_symop_operation_xyz
x,y,z
-x,y,1/2-z
-x,-y,-z
x,-y,1/2+z
1/2+x,1/2+y,z
1/2-x,1/2+y,1/2-z
1/2-x,1/2-y,-z
1/2+x,1/2-y,1/2+z
loop_
_atom_site_type_symbol
_atom_site_label
_atom_site_fract_x
_atom_site_fract_y
_atom_site_fract_z
Si Si1 0.000000 0.982709 0.750000
Si Si2 0.760446 0.050511 0.506551
Si Si3 0.000000 0.704275 0.750000
Si Si4 0.805502 0.927504 0.346015
Si Si5 0.500000 0.802625 0.750000
Si Si6 0.030192 0.583804 0.359649
O O1 0.866192 0.038380 0.785418
O O2 0.794378 0.928230 0.688468
O O3 0.634094 0.104743 0.439047
O O4 0.917261 0.085724 0.582993
O O5 0.500000 0.000000 0.500000
O O6 0.000000 0.000000 0.500000
O O7 0.127749 0.648760 0.816809
O O8 0.253193 0.752862 0.751052
O O9 0.642119 0.997650 0.359284
O O10 0.379277 0.857677 0.682904
#
# Coordination Sequence:
#
# PCOD9287460 Si02
#       6
#     4   8   4   8   4   8
#     4  12  16  34  72  88 124 148 218 254 314 344
#     4  10  22  36  62  96 124 152 205 266 315 360
#     4  12  26  40  61  93 130 168 212 256 310 374
#     4  11  22  39  64  94 121 163 211 263 309 369
#     4  12  26  40  61  93 130 168 212 256 310 374
#     4  11  22  39  64  94 121 163 211 263 309 369
#
# _framework density 19.708508999999999
#
# number of rings (size 3 to 8) (size 9 to 14) (size 15 to 20)
#    0.000    0.889    6.667    1.333    0.000    0.000 
#    0.000    2.222    0.000    0.000    0.000    0.000 
#    0.000    0.000    0.000    0.000    0.000    0.000 
#
# Total GULP energy -100417.642504 kJ/mol
# GULP energy per Si atom -5578.757917 kJ/mol
# Density = 1.966365 g / cm^3
# Si number density = 19.708509 Si / 1000 Ang^3
#
#
#
# Elastic Constant Matrix: (Units=GPa)
#
#
# Indices 1 2 3 4 5 6 
#
# 1 94.2679 32.0732 21.7962 0.0000 13.6795 0.0000
# 2 32.0732 84.3690 40.3067 0.0000 8.5537 0.0000
# 3 21.7962 40.3067 181.5597 0.0000 20.5130 0.0000
# 4 0.0000 0.0000 0.0000 -3.7575 0.0000 2.1335
# 5 13.6795 8.5537 20.5130 0.0000 29.4336 0.0000
# 6 0.0000 0.0000 0.0000 2.1335 0.0000 36.2689
#
#
#
# Elastic Compliance Matrix: (Units=1/GPa)
#
#
# Indices 1 2 3 4 5 6 
#
# 1 0.012777 -0.004368 -0.000040 0.000000 -0.004641 0.000000
# 2 -0.004368 0.014856 -0.002730 0.000000 -0.000385 0.000000
# 3 -0.000040 -0.002730 0.006542 0.000000 -0.003747 0.000000
# 4 0.000000 0.000000 0.000000 -0.257532 0.000000 0.015149
# 5 -0.004641 -0.000385 -0.003747 0.000000 0.038855 0.000000
# 6 0.000000 0.000000 0.000000 0.015149 0.000000 0.026681
#
#
# Mechanical properties :
#
#
# Convention : Reuss Voigt Hill
#
# Bulk Modulus (GPa) = 50.25190 60.94987 55.60089
# Shear Modulus (GPa) = -36.51996 30.12370 -3.19813
#
# Velocity S-wave (km/s) = -4.30932 3.91380 -1.27524
# Velocity P-wave (km/s) = 0.89026 7.17053 5.10926
#
# Compressibility (1/GPa) = 0.01989974
#
# Stress axis : x y z
#
# Youngs Moduli (GPa) = 78.26716 67.31074 152.85483
#
# Poissons Ratio (x) = 0.29398 0.00610
# Poissons Ratio (y) = 0.34184 0.41735
# Poissons Ratio (z) = 0.00312 0.18378
#
# Static dielectric constant tensor:
#      x y z
#    x 1.715250 0.000000 0.019030 
#    y 0.000000 1.736560 0.000000 
#    z 0.019030 0.000000 1.756960 
# 
# From -- ./inp_files/184126.got.cif
#   From: 2010.05.17/outbox.cif.g08.bks.cpg/sg15_93_cif.got.tgz:184126.got - 2010.06.03 18:47:42.
