data_PCOD9287583
_publ_section_title
;
Structure prediction by ZEFSAII (Michael W. Deem and Ramdas Pophale) SiO2 
 PCOD9287583
Probable space group: C 2/C
;
_chemical_formula_sum "Si O2"
_cell_formula_units_Z 60
_cell_length_a 13.504999
_cell_length_b 26.894804
_cell_length_c 14.027275
_cell_angle_alpha 90.000000
_cell_angle_beta 36.376455
_cell_angle_gamma 90.000000
_cell_volume 3021.728518
_symmetry_space_group_name_H-M "C 2/C"
_symmetry_group_IT_number 15
_symmetry_cell_setting 'monoclinic'
loop_
_space_group_symop_operation_xyz
x,y,z
-x,y,1/2-z
-x,-y,-z
x,-y,1/2+z
1/2+x,1/2+y,z
1/2-x,1/2+y,1/2-z
1/2-x,1/2-y,-z
1/2+x,1/2-y,1/2+z
loop_
_atom_site_type_symbol
_atom_site_label
_atom_site_fract_x
_atom_site_fract_y
_atom_site_fract_z
Si Si1 0.337088 0.764517 0.332798
Si Si2 0.000000 0.102930 0.250000
Si Si3 0.925457 0.895789 0.111590
Si Si4 0.685427 0.558391 0.627468
Si Si5 0.479896 0.320290 0.931858
Si Si6 0.613472 0.067276 0.747572
Si Si7 0.196302 0.456810 0.884519
Si Si8 0.733251 0.540400 0.385302
O O1 0.500000 0.791464 0.250000
O O2 0.250000 0.750000 0.500000
O O3 0.401463 0.720054 0.213683
O O4 0.188260 0.794165 0.400440
O O5 0.939568 0.139950 0.379987
O O6 0.849621 0.071457 0.319161
O O7 0.855694 0.894843 0.273222
O O8 0.762666 0.900750 0.173115
O O9 0.038270 0.852617 0.977753
O O10 0.037785 0.946013 0.020171
O O11 0.500000 0.537215 0.750000
O O12 0.776146 0.515314 0.616110
O O13 0.768484 0.566916 0.459893
O O14 0.500000 0.086966 0.750000
O O15 0.704661 0.015835 0.645123
O O16 0.476911 0.057766 0.934188
O O17 0.191441 0.445905 0.775666
#
# Coordination Sequence:
#
# PCOD9287583 Si02
#       8
#     8   4   8   8   8   8   8   8
#     4   9  18  36  59  85 118 151 181 243 323 382
#     4  12  22  34  60  92 122 168 208 240 290 378
#     4  11  24  40  58  86 118 163 215 250 297 371
#     4  10  22  37  58  79 117 171 210 254 291 338
#     4  11  21  38  61  88 120 154 198 246 318 388
#     4  12  24  36  55  87 122 167 212 262 292 337
#     4  12  23  35  57  84 126 165 218 251 297 335
#     4  11  23  39  58  80 120 171 212 251 305 347
#
# _framework density 19.856185
#
# number of rings (size 3 to 8) (size 9 to 14) (size 15 to 20)
#    0.000    1.067    6.667    1.600    1.867    1.600 
#    0.000    0.000    0.000    0.000    0.000    8.400 
#    0.000    0.000    0.000    0.000    0.000    0.000 
#
# Total GULP energy -167042.004338 kJ/mol
# GULP energy per Si atom -5568.066811 kJ/mol
# Density = 1.981099 g / cm^3
# Si number density = 19.856185 Si / 1000 Ang^3
#
#
#
# Elastic Constant Matrix: (Units=GPa)
#
#
# Indices 1 2 3 4 5 6 
#
# 1 80.3046 36.2323 53.8570 0.0000 22.2095 0.0000
# 2 36.2323 69.7404 32.4191 0.0000 8.1939 0.0000
# 3 53.8570 32.4191 117.3730 0.0001 23.7475 0.0000
# 4 0.0000 0.0000 0.0001 28.5700 -0.0001 5.3716
# 5 22.2095 8.1939 23.7475 -0.0001 50.7788 0.0000
# 6 0.0000 0.0000 0.0000 5.3716 0.0000 12.7878
#
#
#
# Elastic Compliance Matrix: (Units=1/GPa)
#
#
# Indices 1 2 3 4 5 6 
#
# 1 0.021940 -0.007571 -0.006939 0.000000 -0.005130 0.000000
# 2 -0.007571 0.019079 -0.002036 0.000000 0.001185 0.000000
# 3 -0.006939 -0.002036 0.012796 0.000000 -0.002621 0.000000
# 4 0.000000 0.000000 0.000000 0.038003 0.000000 -0.015963
# 5 -0.005130 0.001185 -0.002621 0.000000 0.022972 0.000000
# 6 0.000000 0.000000 0.000000 -0.015963 0.000000 0.084905
#
#
# Mechanical properties :
#
#
# Convention : Reuss Voigt Hill
#
# Bulk Modulus (GPa) = 48.24806 56.93719 52.59263
# Shear Modulus (GPa) = 20.85993 28.08795 24.47394
#
# Velocity S-wave (km/s) = 3.24474 3.76516 3.51459
# Velocity P-wave (km/s) = 6.19591 6.90209 6.55851
#
# Compressibility (1/GPa) = 0.02072622
#
# Stress axis : x y z
#
# Youngs Moduli (GPa) = 45.57786 52.41314 78.14832
#
# Poissons Ratio (x) = 0.39680 0.54223
# Poissons Ratio (y) = 0.34505 0.15908
# Poissons Ratio (z) = 0.31624 0.10669
#
# Static dielectric constant tensor:
#      x y z
#    x 1.780110 0.000000 0.016530 
#    y 0.000000 1.762890 0.000000 
#    z 0.016530 0.000000 1.785000 
# 
# From -- ./inp_files/157313.got.cif
#   From: 2010.05.17/outbox.cif.g08.bks.cpg/sg15_79_cif.got.tgz:157313.got - 2010.06.03 18:47:42.
