data_PCOD9287477
_publ_section_title
;
Structure prediction by ZEFSAII (Michael W. Deem and Ramdas Pophale) SiO2 
 PCOD9287477
Probable space group: C 2/C
;
_chemical_formula_sum "Si O2"
_cell_formula_units_Z 52
_cell_length_a 18.159912
_cell_length_b 20.167465
_cell_length_c 8.737122
_cell_angle_alpha 90.000000
_cell_angle_beta 141.941944
_cell_angle_gamma 90.000000
_cell_volume 1972.595734
_symmetry_space_group_name_H-M "C 2/C"
_symmetry_group_IT_number 15
_symmetry_cell_setting 'monoclinic'
loop_
_space_group_symop_operation_xyz
x,y,z
-x,y,1/2-z
-x,-y,-z
x,-y,1/2+z
1/2+x,1/2+y,z
1/2-x,1/2+y,1/2-z
1/2-x,1/2-y,-z
1/2+x,1/2-y,1/2+z
loop_
_atom_site_type_symbol
_atom_site_label
_atom_site_fract_x
_atom_site_fract_y
_atom_site_fract_z
Si Si1 0.901793 0.425757 0.216764
Si Si2 0.000000 0.171994 0.750000
Si Si3 0.343943 0.352388 0.665860
Si Si4 0.885900 0.429329 0.725957
Si Si5 0.378273 0.783132 0.738257
Si Si6 0.341923 0.577514 0.456216
Si Si7 0.000000 0.744381 0.750000
Si Si8 0.500000 0.460101 0.750000
O O1 0.856090 0.500183 0.100853
O O2 0.000000 0.408815 0.250000
O O3 0.977285 0.432950 0.496082
O O4 0.795061 0.374303 0.072242
O O5 0.969258 0.230029 0.824203
O O6 0.920073 0.112019 0.713767
O O7 0.358515 0.357005 0.874647
O O8 0.397011 0.289810 0.664177
O O9 0.420722 0.413729 0.727071
O O10 0.873507 0.354549 0.646247
O O11 0.792045 0.429561 0.712860
O O12 0.250000 0.750000 0.500000
O O13 0.425002 0.791162 0.990572
O O14 0.403139 0.509057 0.512498
#
# Coordination Sequence:
#
# PCOD9287477 Si02
#       8
#     8   4   8   8   8   8   4   4
#     4  11  24  44  68 102 146 194 246 303 376 447
#     4  11  24  45  70 105 144 193 252 302 372 447
#     4  11  22  43  70 107 143 190 249 310 375 446
#     4  11  25  44  67 103 144 194 246 305 371 454
#     4  12  27  50  75 109 151 196 251 311 377 450
#     4  11  20  41  67  99 145 187 242 308 369 443
#     4  11  28  49  78 115 150 195 258 316 376 451
#     4  10  22  36  64 104 140 190 236 308 370 440
#
# _framework density 26.361204000000001
#
# number of rings (size 3 to 8) (size 9 to 14) (size 15 to 20)
#    0.000    0.923    6.154    0.462    2.154    1.231 
#    8.308    2.308    0.000    0.000    0.000    0.000 
#    0.000    0.000    0.000    0.000    0.000    0.000 
#
# Total GULP energy -144829.279499 kJ/mol
# GULP energy per Si atom -5570.356904 kJ/mol
# Density = 2.630120 g / cm^3
# Si number density = 26.361204 Si / 1000 Ang^3
#
#
#
# Elastic Constant Matrix: (Units=GPa)
#
#
# Indices 1 2 3 4 5 6 
#
# 1 101.5934 37.3661 21.0649 0.0000 28.8694 0.0000
# 2 37.3661 151.4555 17.6018 0.0000 8.4903 0.0000
# 3 21.0649 17.6018 120.5589 0.0000 25.5531 0.0000
# 4 0.0000 0.0000 0.0000 30.3930 0.0000 -3.9176
# 5 28.8694 8.4903 25.5531 0.0000 32.1651 0.0000
# 6 0.0000 0.0000 0.0000 -3.9176 0.0000 32.4466
#
#
#
# Elastic Compliance Matrix: (Units=1/GPa)
#
#
# Indices 1 2 3 4 5 6 
#
# 1 0.014370 -0.002907 0.000583 0.000000 -0.012593 0.000000
# 2 -0.002907 0.007343 -0.000849 0.000000 0.001346 0.000000
# 3 0.000583 -0.000849 0.010077 0.000000 -0.008304 0.000000
# 4 0.000000 0.000000 0.000000 0.033423 0.000000 0.004035
# 5 -0.012593 0.001346 -0.008304 0.000000 0.048635 0.000000
# 6 0.000000 0.000000 0.000000 0.004035 0.000000 0.031307
#
#
# Mechanical properties :
#
#
# Convention : Reuss Voigt Hill
#
# Bulk Modulus (GPa) = 39.30353 58.40816 48.85584
# Shear Modulus (GPa) = 31.25332 38.83928 35.04630
#
# Velocity S-wave (km/s) = 3.44696 3.84259 3.65014
# Velocity P-wave (km/s) = 5.54834 6.47242 6.02811
#
# Compressibility (1/GPa) = 0.02544301
#
# Stress axis : x y z
#
# Youngs Moduli (GPa) = 69.58869 136.18244 99.23530
#
# Poissons Ratio (x) = 0.39589 -0.05784
# Poissons Ratio (y) = 0.20230 0.08429
# Poissons Ratio (z) = -0.04056 0.11567
#
# Static dielectric constant tensor:
#      x y z
#    x 2.211180 0.000000 -0.043640 
#    y 0.000000 2.035500 0.000000 
#    z -0.043640 0.000000 1.675720 
# 
# From -- ./inp_files/114425.got.cif
#   From: 2010.05.17/outbox.cif.g08.bks.cpg/sg15_58_cif.got.tgz:114425.got - 2010.06.03 18:47:42.
