data_PCOD9287869
_publ_section_title
;
Structure prediction by ZEFSAII (Michael W. Deem and Ramdas Pophale) SiO2 
 PCOD9287869
Probable space group: C 2/C
;
_chemical_formula_sum "Si O2"
_cell_formula_units_Z 60
_cell_length_a 13.410399
_cell_length_b 25.961128
_cell_length_c 14.433014
_cell_angle_alpha 90.000000
_cell_angle_beta 32.677229
_cell_angle_gamma 90.000000
_cell_volume 2712.940780
_symmetry_space_group_name_H-M "C 2/C"
_symmetry_group_IT_number 15
_symmetry_cell_setting 'monoclinic'
loop_
_space_group_symop_operation_xyz
x,y,z
-x,y,1/2-z
-x,-y,-z
x,-y,1/2+z
1/2+x,1/2+y,z
1/2-x,1/2+y,1/2-z
1/2-x,1/2-y,-z
1/2+x,1/2-y,1/2+z
loop_
_atom_site_type_symbol
_atom_site_label
_atom_site_fract_x
_atom_site_fract_y
_atom_site_fract_z
Si Si1 0.459060 0.711854 0.424066
Si Si2 0.000000 0.509097 0.250000
Si Si3 0.704688 0.184866 0.449945
Si Si4 0.072242 0.180095 0.856398
Si Si5 0.638812 0.573941 0.848948
Si Si6 0.742846 0.458162 0.780085
Si Si7 0.055758 0.573322 0.563401
Si Si8 0.182675 0.278127 0.643934
O O1 0.456994 0.773637 0.437068
O O2 0.329021 0.700722 0.439357
O O3 0.660374 0.690766 0.243239
O O4 0.368463 0.687103 0.584328
O O5 0.142499 0.536696 0.211582
O O6 0.109588 0.471665 0.092751
O O7 0.643984 0.127673 0.514998
O O8 0.127563 0.121990 0.785542
O O9 0.140986 0.230196 0.745777
O O10 0.850701 0.185566 0.037437
O O11 0.665388 0.513570 0.803077
O O12 0.835533 0.580782 0.745183
O O13 0.444112 0.574580 0.056462
O O14 0.881235 0.439635 0.591079
O O15 0.250000 0.250000 0.500000
O O16 0.000000 0.306447 0.750000
#
# Coordination Sequence:
#
# PCOD9287869 Si02
#       8
#     8   4   8   8   8   8   8   8
#     4  10  22  38  58  98 137 179 217 270 331 407
#     4  10  22  42  74  96 130 182 224 292 352 412
#     4  10  23  38  61  96 145 173 221 272 330 419
#     4  11  21  38  67  94 128 175 220 273 340 400
#     4  10  23  42  70  99 130 177 228 281 347 412
#     4  10  23  49  67 101 139 170 235 296 344 414
#     4  11  24  44  70 100 138 184 223 285 355 410
#     4   9  21  42  61  90 131 171 224 275 327 395
#
# _framework density 22.116223000000002
#
# number of rings (size 3 to 8) (size 9 to 14) (size 15 to 20)
#    0.000    1.867    0.000    3.200    7.467    1.067 
#    6.000   11.333    0.000    0.000    0.000    0.000 
#    0.000    0.000    0.000    0.000    0.000    0.000 
#
# Total GULP energy -167102.068981 kJ/mol
# GULP energy per Si atom -5570.068966 kJ/mol
# Density = 2.206589 g / cm^3
# Si number density = 22.116223 Si / 1000 Ang^3
#
#
#
# Elastic Constant Matrix: (Units=GPa)
#
#
# Indices 1 2 3 4 5 6 
#
# 1 71.4234 24.0671 54.7892 0.0032 8.9479 0.0004
# 2 24.0671 62.4865 11.4739 0.0029 -7.3670 0.0009
# 3 54.7892 11.4739 94.1686 0.0046 -1.9304 0.0008
# 4 0.0032 0.0029 0.0046 31.2980 -0.0043 -13.0054
# 5 8.9479 -7.3670 -1.9304 -0.0043 34.0373 -0.0005
# 6 0.0004 0.0009 0.0008 -13.0054 -0.0005 0.1517
#
#
#
# Elastic Compliance Matrix: (Units=1/GPa)
#
#
# Indices 1 2 3 4 5 6 
#
# 1 0.033135 -0.010845 -0.018205 0.000000 -0.012091 0.000002
# 2 -0.010845 0.020330 0.003986 0.000001 0.007477 0.000003
# 3 -0.018205 0.003986 0.020866 0.000001 0.006832 0.000004
# 4 0.000000 0.000001 0.000001 -0.000923 -0.000001 -0.079112
# 5 -0.012091 0.007477 0.006832 -0.000001 0.034564 -0.000013
# 6 0.000002 0.000003 0.000004 -0.079112 -0.000013 -0.190385
#
#
# Mechanical properties :
#
#
# Convention : Reuss Voigt Hill
#
# Bulk Modulus (GPa) = 41.31745 45.41544 43.36644
# Shear Modulus (GPa) = -206.46738 22.28062 -92.09338
#
# Velocity S-wave (km/s) = -9.67255 3.17745 -6.45996
# Velocity P-wave (km/s) = 10.29669 5.83447 5.99920
#
# Compressibility (1/GPa) = 0.02420285
#
# Stress axis : x y z
#
# Youngs Moduli (GPa) = 30.17922 49.18815 47.92528
#
# Poissons Ratio (x) = 0.53344 0.87249
# Poissons Ratio (y) = 0.32729 -0.19103
# Poissons Ratio (z) = 0.54942 -0.19606
#
# Static dielectric constant tensor:
#      x y z
#    x 1.915720 0.000000 -0.065780 
#    y 0.000000 2.386170 0.000000 
#    z -0.065780 0.000000 1.880490 
# 
# From -- ./inp_files/157324.got.cif
#   From: 2010.05.17/outbox.cif.g08.bks.cpg/sg15_79_cif.got.tgz:157324.got - 2010.06.03 18:47:42.
