data_PCOD9287944
_publ_section_title
;
Structure prediction by ZEFSAII (Michael W. Deem and Ramdas Pophale) SiO2 
 PCOD9287944
Probable space group: C 2/C
;
_chemical_formula_sum "Si O2"
_cell_formula_units_Z 48
_cell_length_a 8.803030
_cell_length_b 23.038722
_cell_length_c 14.861637
_cell_angle_alpha 90.000000
_cell_angle_beta 139.048967
_cell_angle_gamma 90.000000
_cell_volume 1975.480690
_symmetry_space_group_name_H-M "C 2/C"
_symmetry_group_IT_number 15
_symmetry_cell_setting 'monoclinic'
loop_
_space_group_symop_operation_xyz
x,y,z
-x,y,1/2-z
-x,-y,-z
x,-y,1/2+z
1/2+x,1/2+y,z
1/2-x,1/2+y,1/2-z
1/2-x,1/2-y,-z
1/2+x,1/2-y,1/2+z
loop_
_atom_site_type_symbol
_atom_site_label
_atom_site_fract_x
_atom_site_fract_y
_atom_site_fract_z
Si Si1 0.499206 0.636659 0.083206
Si Si2 0.128489 0.165620 0.674385
Si Si3 0.087458 0.296248 0.687978
Si Si4 0.315031 0.559486 0.610708
Si Si5 0.748021 0.970655 0.883347
Si Si6 0.961176 0.365129 0.019987
O O1 0.638789 0.692430 0.179777
O O2 0.690624 0.586017 0.150124
O O3 0.378382 0.649496 0.933422
O O4 0.297948 0.624526 0.063874
O O5 0.024925 0.229526 0.642077
O O6 0.379668 0.166670 0.834047
O O7 0.969526 0.116229 0.649591
O O8 0.019881 0.333404 0.568966
O O9 0.000000 0.311768 0.750000
O O10 0.500000 0.522292 0.750000
O O11 0.214046 0.540907 0.472448
O O12 0.097191 0.574715 0.573364
O O13 0.500000 0.999216 0.750000
O O14 0.000000 0.000000 0.000000
#
# Coordination Sequence:
#
# PCOD9287944 Si02
#       6
#     8   8   8   8   8   8
#     4  11  24  41  63  94 132 168 213 276 332 388
#     4  10  22  38  60  90 128 175 223 266 320 391
#     4  12  23  37  58  88 129 179 224 265 320 388
#     4   9  20  41  65  92 127 169 216 270 330 398
#     4  11  25  47  73  99 129 171 222 277 339 401
#     4  11  22  37  60  89 127 170 214 268 331 389
#
# _framework density 24.297885000000001
#
# number of rings (size 3 to 8) (size 9 to 14) (size 15 to 20)
#    0.000    1.333    0.000    7.000    0.000   10.000 
#    0.000    5.000    0.000    0.000    0.000    0.000 
#    0.000    0.000    0.000    0.000    0.000    0.000 
#
# Total GULP energy -133949.082324 kJ/mol
# GULP energy per Si atom -5581.211763 kJ/mol
# Density = 2.424258 g / cm^3
# Si number density = 24.297885 Si / 1000 Ang^3
#
#
#
# Elastic Constant Matrix: (Units=GPa)
#
#
# Indices 1 2 3 4 5 6 
#
# 1 106.6497 -0.9219 34.3422 0.0000 19.8139 0.0000
# 2 -0.9219 30.4496 0.6133 0.0000 6.5043 0.0000
# 3 34.3422 0.6133 125.0637 0.0000 4.6590 0.0000
# 4 0.0000 0.0000 0.0000 16.1954 0.0000 1.1609
# 5 19.8139 6.5043 4.6590 0.0000 41.8292 0.0000
# 6 0.0000 0.0000 0.0000 1.1609 0.0000 -0.3964
#
#
#
# Elastic Compliance Matrix: (Units=1/GPa)
#
#
# Indices 1 2 3 4 5 6 
#
# 1 0.011308 0.001527 -0.002916 0.000000 -0.005269 0.000000
# 2 0.001527 0.034176 -0.000363 0.000000 -0.005997 0.000000
# 3 -0.002916 -0.000363 0.008781 0.000000 0.000460 0.000000
# 4 0.000000 0.000000 0.000000 0.051033 0.000000 0.149460
# 5 -0.005269 -0.005997 0.000460 0.000000 0.027284 0.000000
# 6 0.000000 0.000000 0.000000 0.149460 0.000000 -2.085071
#
#
# Mechanical properties :
#
#
# Convention : Reuss Voigt Hill
#
# Bulk Modulus (GPa) = 19.70112 36.69224 28.19668
# Shear Modulus (GPa) = -2.58791 26.73427 12.07318
#
# Velocity S-wave (km/s) = -1.03314 3.32063 2.23150
# Velocity P-wave (km/s) = 2.58893 5.46223 4.27425
#
# Compressibility (1/GPa) = 0.05075853
#
# Stress axis : x y z
#
# Youngs Moduli (GPa) = 88.43600 29.26059 113.87746
#
# Poissons Ratio (x) = -0.04467 0.33209
# Poissons Ratio (y) = -0.13500 0.04138
# Poissons Ratio (z) = 0.25790 0.01063
#
# Static dielectric constant tensor:
#      x y z
#    x 1.865970 0.000000 -0.056150 
#    y 0.000000 2.905860 0.000000 
#    z -0.056150 0.000000 2.209340 
# 
# From -- ./inp_files/139043.got.cif
#   From: 2010.05.17/outbox.cif.g08.bks.cpg/sg15_70_cif.got.tgz:139043.got - 2010.06.03 18:47:42.
