data_PCOD9287916
_publ_section_title
;
Structure prediction by ZEFSAII (Michael W. Deem and Ramdas Pophale) SiO2 
 PCOD9287916
Probable space group: C 2/C
;
_chemical_formula_sum "Si O2"
_cell_formula_units_Z 60
_cell_length_a 25.378828
_cell_length_b 18.656750
_cell_length_c 8.919957
_cell_angle_alpha 90.000000
_cell_angle_beta 56.164187
_cell_angle_gamma 90.000000
_cell_volume 3508.176009
_symmetry_space_group_name_H-M "C 2/C"
_symmetry_group_IT_number 15
_symmetry_cell_setting 'monoclinic'
loop_
_space_group_symop_operation_xyz
x,y,z
-x,y,1/2-z
-x,-y,-z
x,-y,1/2+z
1/2+x,1/2+y,z
1/2-x,1/2+y,1/2-z
1/2-x,1/2-y,-z
1/2+x,1/2-y,1/2+z
loop_
_atom_site_type_symbol
_atom_site_label
_atom_site_fract_x
_atom_site_fract_y
_atom_site_fract_z
Si Si1 0.689219 0.713771 0.173438
Si Si2 0.805257 0.715932 0.512223
Si Si3 0.219348 0.915652 0.174108
Si Si4 0.310818 0.551304 0.432007
Si Si5 0.891972 0.190307 0.714115
Si Si6 0.945888 0.940517 0.600511
Si Si7 0.434720 0.702122 0.309896
Si Si8 0.500000 0.366635 0.250000
O O1 0.687979 0.739710 0.345426
O O2 0.696910 0.628456 0.135897
O O3 0.621190 0.733120 0.205760
O O4 0.750000 0.750000 0.000000
O O5 0.750000 0.750000 0.500000
O O6 0.780532 0.636316 0.585738
O O7 0.866911 0.733886 0.316519
O O8 0.197147 0.936266 0.378084
O O9 0.163312 0.869772 0.181236
O O10 0.232580 0.987808 0.060970
O O11 0.381059 0.527483 0.266140
O O12 0.902243 0.189714 0.520730
O O13 0.956972 0.173641 0.697172
O O14 0.955290 0.872420 0.695897
O O15 0.947713 0.909566 0.429658
O O16 0.000000 0.000000 0.500000
O O17 0.500000 0.741922 0.250000
#
# Coordination Sequence:
#
# PCOD9287916 Si02
#       8
#     8   8   8   8   8   8   8   4
#     4  11  20  41  62  82 116 166 202 251 309 351
#     4  10  22  38  60  82 110 155 203 252 303 354
#     4  11  23  40  55  82 117 153 204 250 298 357
#     4  11  24  36  57  83 116 159 201 249 293 358
#     4  11  21  39  55  80 115 157 200 249 291 350
#     4  11  24  34  50  74 115 167 202 231 281 346
#     4  11  22  39  55  82 119 154 205 250 287 353
#     4  12  24  32  52  78 112 156 196 242 282 346
#
# _framework density 17.102905
#
# number of rings (size 3 to 8) (size 9 to 14) (size 15 to 20)
#    0.000    1.067    5.333    3.200    8.400    0.000 
#    0.000    0.000    0.000    0.000    0.000    0.000 
#    2.000    3.200    0.000    0.000    0.000    0.000 
#
# Total GULP energy -167154.917757 kJ/mol
# GULP energy per Si atom -5571.830592 kJ/mol
# Density = 1.706398 g / cm^3
# Si number density = 17.102905 Si / 1000 Ang^3
#
#
#
# Elastic Constant Matrix: (Units=GPa)
#
#
# Indices 1 2 3 4 5 6 
#
# 1 104.6266 37.9332 32.5677 0.0000 16.2908 0.0000
# 2 37.9332 75.8577 38.0690 0.0000 -2.6548 0.0000
# 3 32.5677 38.0690 107.5436 0.0000 8.4765 0.0000
# 4 0.0000 0.0000 0.0000 25.8868 0.0000 -3.5759
# 5 16.2908 -2.6548 8.4765 0.0000 32.9728 0.0000
# 6 0.0000 0.0000 0.0000 -3.5759 0.0000 29.6559
#
#
#
# Elastic Compliance Matrix: (Units=1/GPa)
#
#
# Indices 1 2 3 4 5 6 
#
# 1 0.013260 -0.006222 -0.001283 0.000000 -0.006722 0.000000
# 2 -0.006222 0.019208 -0.005389 0.000000 0.006006 0.000000
# 3 -0.001283 -0.005389 0.011818 0.000000 -0.002838 0.000000
# 4 0.000000 0.000000 0.000000 0.039284 0.000000 0.004737
# 5 -0.006722 0.006006 -0.002838 0.000000 0.034862 0.000000
# 6 0.000000 0.000000 0.000000 0.004737 0.000000 0.034291
#
#
# Mechanical properties :
#
#
# Convention : Reuss Voigt Hill
#
# Bulk Modulus (GPa) = 54.05724 56.12977 55.09351
# Shear Modulus (GPa) = 27.07414 29.66698 28.37056
#
# Velocity S-wave (km/s) = 3.98303 4.16939 4.07727
# Velocity P-wave (km/s) = 7.26831 7.48789 7.37892
#
# Compressibility (1/GPa) = 0.01849891
#
# Stress axis : x y z
#
# Youngs Moduli (GPa) = 75.41640 52.06057 84.61412
#
# Poissons Ratio (x) = 0.32392 0.10857
# Poissons Ratio (y) = 0.46924 0.45596
# Poissons Ratio (z) = 0.09677 0.28054
#
# Static dielectric constant tensor:
#      x y z
#    x 1.542550 0.000000 0.028780 
#    y 0.000000 1.643110 0.000000 
#    z 0.028780 0.000000 1.600250 
# 
# From -- ./inp_files/62444.got.cif
#   From: 2010.05.17/outbox.cif.g08.bks.cpg/sg15_32_cif.got.tgz:62444.got - 2010.06.03 18:47:42.
