data_PCOD9287079
_publ_section_title
;
Structure prediction by ZEFSAII (Michael W. Deem and Ramdas Pophale) SiO2 
 PCOD9287079
Probable space group: C 2/C
;
_chemical_formula_sum "Si O2"
_cell_formula_units_Z 48
_cell_length_a 11.349355
_cell_length_b 20.898203
_cell_length_c 9.075905
_cell_angle_alpha 90.000000
_cell_angle_beta 114.033414
_cell_angle_gamma 90.000000
_cell_volume 1966.017480
_symmetry_space_group_name_H-M "C 2/C"
_symmetry_group_IT_number 15
_symmetry_cell_setting 'monoclinic'
loop_
_space_group_symop_operation_xyz
x,y,z
-x,y,1/2-z
-x,-y,-z
x,-y,1/2+z
1/2+x,1/2+y,z
1/2-x,1/2+y,1/2-z
1/2-x,1/2-y,-z
1/2+x,1/2-y,1/2+z
loop_
_atom_site_type_symbol
_atom_site_label
_atom_site_fract_x
_atom_site_fract_y
_atom_site_fract_z
Si Si1 0.240562 0.328658 0.193885
Si Si2 0.821469 0.974200 0.945210
Si Si3 0.099205 0.376616 0.865509
Si Si4 0.000000 0.095743 0.750000
Si Si5 0.500000 0.821765 0.250000
Si Si6 0.350242 0.411776 0.650103
Si Si7 0.343669 0.201045 0.394344
O O1 0.378377 0.362750 0.242925
O O2 0.279447 0.261914 0.288791
O O3 0.121191 0.357053 0.232393
O O4 0.167441 0.321485 0.000088
O O5 0.950603 0.947599 0.090159
O O6 0.814500 0.047110 0.989744
O O7 0.712695 0.928259 0.957735
O O8 0.817038 0.957549 0.771595
O O9 0.000000 0.430748 0.750000
O O10 0.923547 0.340810 0.812863
O O11 0.565971 0.784561 0.420046
O O12 0.500000 0.396376 0.750000
O O13 0.267196 0.348012 0.615070
#
# Coordination Sequence:
#
# PCOD9287079 Si02
#       7
#     8   8   8   4   4   8   8
#     4  11  25  44  75 102 149 188 245 303 365 446
#     4  10  23  42  69 103 137 186 248 307 360 431
#     4  10  21  46  70  98 138 187 249 295 362 445
#     4  10  24  44  77 110 135 192 252 300 366 434
#     4  12  26  44  65 102 155 184 234 300 374 446
#     4  11  24  42  69  98 143 187 247 305 361 432
#     4  11  26  43  66 105 141 195 236 300 374 432
#
# _framework density 24.414840000000002
#
# number of rings (size 3 to 8) (size 9 to 14) (size 15 to 20)
#    0.000    1.333    2.500    1.500    4.667    5.333 
#    1.500    1.667    0.000    0.000    0.000    0.000 
#    0.000    0.000    0.000    0.000    0.000    0.000 
#
# Total GULP energy -133615.160088 kJ/mol
# GULP energy per Si atom -5567.298337 kJ/mol
# Density = 2.435927 g / cm^3
# Si number density = 24.414840 Si / 1000 Ang^3
#
#
#
# Elastic Constant Matrix: (Units=GPa)
#
#
# Indices 1 2 3 4 5 6 
#
# 1 -199.8057 60.0491 -38.8640 0.0000 11.3348 0.0000
# 2 60.0491 104.7567 63.8630 0.0000 16.8586 0.0000
# 3 -38.8640 63.8630 187.9397 0.0000 26.1967 0.0000
# 4 0.0000 0.0000 0.0000 25.5056 0.0000 0.0504
# 5 11.3348 16.8586 26.1967 0.0000 40.5873 0.0000
# 6 0.0000 0.0000 0.0000 0.0504 0.0000 51.5336
#
#
#
# Elastic Compliance Matrix: (Units=1/GPa)
#
#
# Indices 1 2 3 4 5 6 
#
# 1 -0.003635 0.003113 -0.001946 0.000000 0.000978 0.000000
# 2 0.003113 0.009629 -0.002142 0.000000 -0.003486 0.000000
# 3 -0.001946 -0.002142 0.005985 0.000000 -0.002430 0.000000
# 4 0.000000 0.000000 0.000000 0.039207 0.000000 -0.000038
# 5 0.000978 -0.003486 -0.002430 0.000000 0.027381 0.000000
# 6 0.000000 0.000000 0.000000 -0.000038 0.000000 0.019405
#
#
# Mechanical properties :
#
#
# Convention : Reuss Voigt Hill
#
# Bulk Modulus (GPa) = 99.72532 29.22078 64.47305
# Shear Modulus (GPa) = 48.41906 24.04813 36.23360
#
# Velocity S-wave (km/s) = 4.45812 3.14184 3.85656
# Velocity P-wave (km/s) = 8.21186 5.01558 6.80407
#
# Compressibility (1/GPa) = 0.01002754
#
# Stress axis : x y z
#
# Youngs Moduli (GPa) = -275.07305 103.85666 167.08087
#
# Poissons Ratio (x) = -0.32328 0.32511
# Poissons Ratio (y) = 0.85622 0.35794
# Poissons Ratio (z) = -0.53525 0.22249
#
# Static dielectric constant tensor:
#      x y z
#    x 2.135770 0.000000 -0.141540 
#    y 0.000000 1.954310 0.000000 
#    z -0.141540 0.000000 1.851860 
# 
# From -- ./inp_files/89826.got.cif
#   From: 2010.05.17/outbox.cif.g08.bks.cpg/sg15_45_cif.got.tgz:89826.got - 2010.06.03 18:47:42.
