data_PCOD9287626
_publ_section_title
;
Structure prediction by ZEFSAII (Michael W. Deem and Ramdas Pophale) SiO2 
 PCOD9287626
Probable space group: C 2/C
;
_chemical_formula_sum "Si O2"
_cell_formula_units_Z 52
_cell_length_a 6.113646
_cell_length_b 19.570773
_cell_length_c 22.303954
_cell_angle_alpha 90.000000
_cell_angle_beta 104.028824
_cell_angle_gamma 90.000000
_cell_volume 2589.045691
_symmetry_space_group_name_H-M "C 2/C"
_symmetry_group_IT_number 15
_symmetry_cell_setting 'monoclinic'
loop_
_space_group_symop_operation_xyz
x,y,z
-x,y,1/2-z
-x,-y,-z
x,-y,1/2+z
1/2+x,1/2+y,z
1/2-x,1/2+y,1/2-z
1/2-x,1/2-y,-z
1/2+x,1/2-y,1/2+z
loop_
_atom_site_type_symbol
_atom_site_label
_atom_site_fract_x
_atom_site_fract_y
_atom_site_fract_z
Si Si1 0.923387 0.738911 0.311522
Si Si2 0.201332 0.351608 0.138448
Si Si3 0.800922 0.013899 0.581006
Si Si4 0.000000 0.329702 0.250000
Si Si5 0.874852 0.919226 0.969023
Si Si6 0.061576 0.618214 0.100649
Si Si7 0.209710 0.328752 0.481565
O O1 0.700247 0.784369 0.290950
O O2 0.860839 0.672562 0.345707
O O3 0.000000 0.718423 0.250000
O O4 0.126200 0.787267 0.350134
O O5 0.326447 0.418876 0.122337
O O6 0.113687 0.365571 0.200186
O O7 0.983655 0.338366 0.081177
O O8 0.726851 0.042937 0.510395
O O9 0.650798 0.959584 0.607902
O O10 0.016086 0.972884 0.569798
O O11 0.707801 0.875825 0.917811
O O12 0.061444 0.872409 0.014422
O O13 0.134702 0.641557 0.040020
O O14 0.250000 0.250000 0.500000
#
# Coordination Sequence:
#
# PCOD9287626 Si02
#       7
#     8   8   8   4   8   8   8
#     4  10  24  44  66  88 119 163 209 262 313 366
#     4  11  23  40  64  92 124 162 207 255 309 370
#     4  10  23  37  60  93 129 165 202 245 313 378
#     4  10  24  44  68  84 120 160 210 258 314 352
#     4  10  22  37  60  90 137 166 192 252 316 370
#     4  11  22  40  62  91 127 163 204 250 314 371
#     4  11  23  34  61  99 123 158 207 254 306 375
#
# _framework density 20.084620999999999
#
# number of rings (size 3 to 8) (size 9 to 14) (size 15 to 20)
#    0.000    1.538    1.538    2.308    8.615    4.923 
#    1.385    0.000    5.077    0.000    0.000    0.000 
#    0.000    0.000    0.000    0.000    0.000    0.000 
#
# Total GULP energy -144877.961745 kJ/mol
# GULP energy per Si atom -5572.229298 kJ/mol
# Density = 2.003891 g / cm^3
# Si number density = 20.084621 Si / 1000 Ang^3
#
#
#
# Elastic Constant Matrix: (Units=GPa)
#
#
# Indices 1 2 3 4 5 6 
#
# 1 65.2519 36.1222 29.7440 0.0000 -5.2444 0.0000
# 2 36.1222 110.9702 46.6811 0.0000 -5.2804 0.0000
# 3 29.7440 46.6811 86.4036 0.0000 -8.0080 0.0000
# 4 0.0000 0.0000 0.0000 21.3426 0.0000 -10.7736
# 5 -5.2444 -5.2804 -8.0080 0.0000 28.5218 0.0000
# 6 0.0000 0.0000 0.0000 -10.7736 0.0000 16.2839
#
#
#
# Elastic Compliance Matrix: (Units=1/GPa)
#
#
# Indices 1 2 3 4 5 6 
#
# 1 0.019945 -0.004646 -0.004205 0.000000 0.001627 0.000000
# 2 -0.004646 0.012749 -0.005286 0.000000 0.000022 0.000000
# 3 -0.004205 -0.005286 0.016135 0.000000 0.002778 0.000000
# 4 0.000000 0.000000 0.000000 0.070350 0.000000 0.046544
# 5 0.001627 0.000022 0.002778 0.000000 0.036144 0.000000
# 6 0.000000 0.000000 0.000000 0.046544 0.000000 0.092204
#
#
# Mechanical properties :
#
#
# Convention : Reuss Voigt Hill
#
# Bulk Modulus (GPa) = 48.65392 54.19114 51.42253
# Shear Modulus (GPa) = 17.68966 23.23490 20.46228
#
# Velocity S-wave (km/s) = 2.97097 3.40494 3.19533
# Velocity P-wave (km/s) = 6.00383 6.51906 6.26674
#
# Compressibility (1/GPa) = 0.02055333
#
# Stress axis : x y z
#
# Youngs Moduli (GPa) = 50.13871 78.44060 61.97845
#
# Poissons Ratio (x) = 0.36443 0.26062
# Poissons Ratio (y) = 0.23294 0.32763
# Poissons Ratio (z) = 0.21084 0.41466
#
# Static dielectric constant tensor:
#      x y z
#    x 1.797640 0.000000 0.003210 
#    y 0.000000 1.934670 0.000000 
#    z 0.003210 0.000000 1.726400 
# 
# From -- ./inp_files/227529.got.cif
#   From: 2010.05.17/outbox.cif.g08.bks.cpg/sg15_114_cif.got.tgz:227529.got - 2010.06.03 18:47:42.
