data_PCOD9287474
_publ_section_title
;
Structure prediction by ZEFSAII (Michael W. Deem and Ramdas Pophale) SiO2 
 PCOD9287474
Probable space group: C 2/C
;
_chemical_formula_sum "Si O2"
_cell_formula_units_Z 52
_cell_length_a 24.958531
_cell_length_b 8.511832
_cell_length_c 13.020465
_cell_angle_alpha 90.000000
_cell_angle_beta 127.460963
_cell_angle_gamma 90.000000
_cell_volume 2195.644888
_symmetry_space_group_name_H-M "C 2/C"
_symmetry_group_IT_number 15
_symmetry_cell_setting 'monoclinic'
loop_
_space_group_symop_operation_xyz
x,y,z
-x,y,1/2-z
-x,-y,-z
x,-y,1/2+z
1/2+x,1/2+y,z
1/2-x,1/2+y,1/2-z
1/2-x,1/2-y,-z
1/2+x,1/2-y,1/2+z
loop_
_atom_site_type_symbol
_atom_site_label
_atom_site_fract_x
_atom_site_fract_y
_atom_site_fract_z
Si Si1 0.319153 0.646737 0.811925
Si Si2 0.578382 0.572731 0.979453
Si Si3 0.515797 0.279734 0.612853
Si Si4 0.920600 0.619243 0.355593
Si Si5 0.762106 0.407451 0.894885
Si Si6 0.000000 0.704174 0.250000
Si Si7 0.646366 0.162243 0.814985
O O1 0.377074 0.719353 0.806882
O O2 0.259305 0.571472 0.678053
O O3 0.297766 0.791448 0.856687
O O4 0.349297 0.506934 0.917975
O O5 0.528760 0.425444 0.906136
O O6 0.560545 0.691575 0.868813
O O7 0.557324 0.657722 0.061229
O O8 0.467339 0.144561 0.510218
O O9 0.572662 0.227395 0.758825
O O10 0.872934 0.466163 0.294715
O O11 0.965640 0.617554 0.305462
O O12 0.694213 0.309886 0.844758
O O13 0.812213 0.425235 0.048583
#
# Coordination Sequence:
#
# PCOD9287474 Si02
#       7
#     8   8   8   8   8   4   8
#     4  11  23  45  62  95 129 175 211 261 321 386
#     4   9  19  35  65  91 123 164 209 261 320 377
#     4   9  18  39  65  92 123 163 204 268 328 368
#     4  10  23  43  67  93 132 165 211 271 332 366
#     4  11  26  40  69  93 129 177 218 252 322 371
#     4  10  22  36  64 102 120 172 208 260 336 378
#     4  11  23  43  63  97 130 165 219 270 299 394
#
# _framework density 23.683247999999999
#
# number of rings (size 3 to 8) (size 9 to 14) (size 15 to 20)
#    0.000    1.846    1.538    2.308    2.154    3.077 
#   11.077    0.000    0.000    0.000    0.000    0.000 
#    0.000    0.000    0.000    0.000    0.000    0.000 
#
# Total GULP energy -145349.912001 kJ/mol
# GULP energy per Si atom -5590.381231 kJ/mol
# Density = 2.362934 g / cm^3
# Si number density = 23.683248 Si / 1000 Ang^3
#
#
#
# Elastic Constant Matrix: (Units=GPa)
#
#
# Indices 1 2 3 4 5 6 
#
# 1 34.8071 1.1164 24.2987 0.0000 1.1096 0.0000
# 2 1.1164 76.4105 30.9365 0.0000 3.1170 0.0000
# 3 24.2987 30.9365 127.2319 0.0000 28.0960 0.0000
# 4 0.0000 0.0000 0.0000 52.2769 0.0000 18.0274
# 5 1.1096 3.1170 28.0960 0.0000 23.1521 0.0000
# 6 0.0000 0.0000 0.0000 18.0274 0.0000 6.9285
#
#
#
# Elastic Compliance Matrix: (Units=1/GPa)
#
#
# Indices 1 2 3 4 5 6 
#
# 1 0.034945 0.002939 -0.009469 0.000000 0.009420 0.000000
# 2 0.002939 0.014937 -0.005079 0.000000 0.004012 0.000000
# 3 -0.009469 -0.005079 0.014551 0.000000 -0.016521 0.000000
# 4 0.000000 0.000000 0.000000 0.186168 0.000000 -0.484389
# 5 0.009420 0.004012 -0.016521 0.000000 0.062250 0.000000
# 6 0.000000 0.000000 0.000000 -0.484389 0.000000 1.404660
#
#
# Mechanical properties :
#
#
# Convention : Reuss Voigt Hill
#
# Bulk Modulus (GPa) = 24.26273 39.01698 31.63985
# Shear Modulus (GPa) = 2.84987 28.61137 15.73062
#
# Velocity S-wave (km/s) = 1.09815 3.47952 2.58002
# Velocity P-wave (km/s) = 3.44599 5.71428 4.71847
#
# Compressibility (1/GPa) = 0.04121547
#
# Stress axis : x y z
#
# Youngs Moduli (GPa) = 28.61628 66.94782 68.72302
#
# Poissons Ratio (x) = -0.19674 0.65071
# Poissons Ratio (y) = -0.08410 0.34905
# Poissons Ratio (z) = 0.27095 0.34003
#
# Static dielectric constant tensor:
#      x y z
#    x 1.962550 0.000000 0.013950 
#    y 0.000000 1.907890 0.000000 
#    z 0.013950 0.000000 1.894760 
# 
# From -- ./inp_files/171360.got.cif
#   From: 2010.05.17/outbox.cif.g08.bks.cpg/sg15_86_cif.got.tgz:171360.got - 2010.06.03 18:47:42.
