data_PCOD9287532
_publ_section_title
;
Structure prediction by ZEFSAII (Michael W. Deem and Ramdas Pophale) SiO2 
 PCOD9287532
Probable space group: C 2/C
;
_chemical_formula_sum "Si O2"
_cell_formula_units_Z 52
_cell_length_a 28.811852
_cell_length_b 17.100494
_cell_length_c 5.242301
_cell_angle_alpha 90.000000
_cell_angle_beta 58.940480
_cell_angle_gamma 90.000000
_cell_volume 2212.564708
_symmetry_space_group_name_H-M "C 2/C"
_symmetry_group_IT_number 15
_symmetry_cell_setting 'monoclinic'
loop_
_space_group_symop_operation_xyz
x,y,z
-x,y,1/2-z
-x,-y,-z
x,-y,1/2+z
1/2+x,1/2+y,z
1/2-x,1/2+y,1/2-z
1/2-x,1/2-y,-z
1/2+x,1/2-y,1/2+z
loop_
_atom_site_type_symbol
_atom_site_label
_atom_site_fract_x
_atom_site_fract_y
_atom_site_fract_z
Si Si1 0.000000 0.194755 0.750000
Si Si2 0.155500 0.954075 0.420772
Si Si3 0.201430 0.247145 0.334179
Si Si4 0.763176 0.619462 0.468181
Si Si5 0.140926 0.552424 0.595052
Si Si6 0.555316 0.184520 0.710124
Si Si7 0.900241 0.822083 0.251230
O O1 0.034098 0.252920 0.474927
O O2 0.044478 0.147412 0.781660
O O3 0.122491 0.881416 0.396138
O O4 0.143636 0.978019 0.744537
O O5 0.220500 0.938706 0.216997
O O6 0.196410 0.334814 0.456334
O O7 0.223394 0.187497 0.484406
O O8 0.146106 0.204360 0.414887
O O9 0.250000 0.250000 0.000000
O O10 0.799304 0.587023 0.135924
O O11 0.134823 0.508914 0.879668
O O12 0.096622 0.620559 0.695793
O O13 0.500000 0.148365 0.750000
O O14 0.584635 0.239337 0.420472
#
# Coordination Sequence:
#
# PCOD9287532 Si02
#       7
#     4   8   8   8   8   8   8
#     4  10  24  42  78  96 132 184 244 310 338 422
#     4  11  26  44  68 103 146 184 223 286 355 426
#     4  10  22  36  70 101 137 177 237 293 337 413
#     4  10  23  40  61 101 136 189 227 280 342 422
#     4  12  28  43  68  99 142 186 227 286 350 419
#     4  10  24  45  69  98 131 180 242 291 346 406
#     4  10  23  44  71 102 135 183 242 287 355 416
#
# _framework density 23.502134999999999
#
# number of rings (size 3 to 8) (size 9 to 14) (size 15 to 20)
#    0.000    1.538    1.538    0.923   15.077    0.615 
#    0.000    0.769    0.000    0.000    0.000    0.000 
#    0.000    0.000    0.000    0.000    0.000    0.000 
#
# Total GULP energy -145297.085981 kJ/mol
# GULP energy per Si atom -5588.349461 kJ/mol
# Density = 2.344864 g / cm^3
# Si number density = 23.502135 Si / 1000 Ang^3
#
#
#
# Elastic Constant Matrix: (Units=GPa)
#
#
# Indices 1 2 3 4 5 6 
#
# 1 103.4116 44.4472 -1.6791 0.0000 -18.2870 0.0000
# 2 44.4472 67.8005 3.3107 0.0000 -8.6890 0.0000
# 3 -1.6791 3.3107 57.5111 0.0000 -5.9242 0.0000
# 4 0.0000 0.0000 0.0000 30.8949 0.0000 -0.3817
# 5 -18.2870 -8.6890 -5.9242 0.0000 32.7851 0.0000
# 6 0.0000 0.0000 0.0000 -0.3817 0.0000 38.3275
#
#
#
# Elastic Compliance Matrix: (Units=1/GPa)
#
#
# Indices 1 2 3 4 5 6 
#
# 1 0.014572 -0.008852 0.001560 0.000000 0.006064 0.000000
# 2 -0.008852 0.020658 -0.001419 0.000000 0.000281 0.000000
# 3 0.001560 -0.001419 0.017899 0.000000 0.003728 0.000000
# 4 0.000000 0.000000 0.000000 0.032372 0.000000 0.000322
# 5 0.006064 0.000281 0.003728 0.000000 0.034632 0.000000
# 6 0.000000 0.000000 0.000000 0.000322 0.000000 0.026094
#
#
# Mechanical properties :
#
#
# Convention : Reuss Voigt Hill
#
# Bulk Modulus (GPa) = 28.00573 35.65341 31.82957
# Shear Modulus (GPa) = 28.48158 32.57779 30.52969
#
# Velocity S-wave (km/s) = 3.48497 3.72716 3.60810
# Velocity P-wave (km/s) = 5.30429 5.80737 5.56152
#
# Compressibility (1/GPa) = 0.03570698
#
# Stress axis : x y z
#
# Youngs Moduli (GPa) = 68.62241 48.40850 55.86843
#
# Poissons Ratio (x) = 0.42852 -0.08714
# Poissons Ratio (y) = 0.60746 0.07926
# Poissons Ratio (z) = -0.10703 0.06868
#
# Static dielectric constant tensor:
#      x y z
#    x 1.994710 0.000000 0.010170 
#    y 0.000000 1.903900 0.000000 
#    z 0.010170 0.000000 1.945650 
# 
# From -- ./inp_files/18195.got.cif
#   From: 2010.05.17/outbox.cif.g08.bks.cpg/sg15_10_cif.got.tgz:18195.got - 2010.06.03 18:47:42.
