data_PCOD9287951
_publ_section_title
;
Structure prediction by ZEFSAII (Michael W. Deem and Ramdas Pophale) SiO2 
 PCOD9287951
Probable space group: C 2/C
;
_chemical_formula_sum "Si O2"
_cell_formula_units_Z 48
_cell_length_a 15.410889
_cell_length_b 11.793798
_cell_length_c 13.461506
_cell_angle_alpha 90.000000
_cell_angle_beta 124.077204
_cell_angle_gamma 90.000000
_cell_volume 2026.534242
_symmetry_space_group_name_H-M "C 2/C"
_symmetry_group_IT_number 15
_symmetry_cell_setting 'monoclinic'
loop_
_space_group_symop_operation_xyz
x,y,z
-x,y,1/2-z
-x,-y,-z
x,-y,1/2+z
1/2+x,1/2+y,z
1/2-x,1/2+y,1/2-z
1/2-x,1/2-y,-z
1/2+x,1/2-y,1/2+z
loop_
_atom_site_type_symbol
_atom_site_label
_atom_site_fract_x
_atom_site_fract_y
_atom_site_fract_z
Si Si1 0.400189 0.291017 0.554958
Si Si2 0.810173 0.444323 0.716441
Si Si3 0.179241 0.698982 0.804945
Si Si4 0.139850 0.315128 0.925426
Si Si5 0.600430 0.331640 0.572002
Si Si6 0.893272 0.458701 0.979604
O O1 0.294889 0.311596 0.425436
O O2 0.377275 0.289787 0.657990
O O3 0.496464 0.358250 0.568343
O O4 0.419206 0.156741 0.551833
O O5 0.855473 0.567761 0.719283
O O6 0.876601 0.349085 0.699910
O O7 0.687621 0.427688 0.609046
O O8 0.817381 0.431890 0.839139
O O9 0.164304 0.743350 0.683779
O O10 0.250000 0.250000 0.000000
O O11 0.070272 0.234807 0.951442
O O12 0.148965 0.438638 0.981882
O O13 0.000000 0.500000 0.000000
#
# Coordination Sequence:
#
# PCOD9287951 Si02
#       6
#     8   8   8   8   8   8
#     4  11  23  38  60  94 121 160 216 259 313 376
#     4  11  23  39  64  88 125 171 201 255 330 374
#     4  11  22  39  63  88 123 165 210 262 315 381
#     4  10  22  38  60  91 126 163 203 258 319 381
#     4  11  22  41  61  90 131 163 205 269 317 382
#     4  12  21  38  64  93 121 159 215 262 312 379
#
# _framework density 23.685756999999999
#
# number of rings (size 3 to 8) (size 9 to 14) (size 15 to 20)
#    0.000    1.000    6.667    0.500    0.000    1.333 
#    0.000    0.000    0.000    0.000    0.000    0.000 
#    0.000    0.000    0.000    0.000    0.000    0.000 
#
# Total GULP energy -134000.423419 kJ/mol
# GULP energy per Si atom -5583.350976 kJ/mol
# Density = 2.363185 g / cm^3
# Si number density = 23.685757 Si / 1000 Ang^3
#
#
#
# Elastic Constant Matrix: (Units=GPa)
#
#
# Indices 1 2 3 4 5 6 
#
# 1 100.2344 2.5839 17.6190 0.0000 -2.5741 0.0000
# 2 2.5839 48.0864 1.2742 0.0000 -0.4979 0.0000
# 3 17.6190 1.2742 52.6065 0.0000 0.1607 0.0000
# 4 0.0000 0.0000 0.0000 24.9640 0.0000 -1.4411
# 5 -2.5741 -0.4979 0.1607 0.0000 35.4905 0.0000
# 6 0.0000 0.0000 0.0000 -1.4411 0.0000 35.2041
#
#
#
# Elastic Compliance Matrix: (Units=1/GPa)
#
#
# Indices 1 2 3 4 5 6 
#
# 1 0.010633 -0.000469 -0.003552 0.000000 0.000781 0.000000
# 2 -0.000469 0.020833 -0.000348 0.000000 0.000260 0.000000
# 3 -0.003552 -0.000348 0.020208 0.000000 -0.000354 0.000000
# 4 0.000000 0.000000 0.000000 0.040153 0.000000 0.001644
# 5 0.000781 0.000260 -0.000354 0.000000 0.028238 0.000000
# 6 0.000000 0.000000 0.000000 0.001644 0.000000 0.028473
#
#
# Mechanical properties :
#
#
# Convention : Reuss Voigt Hill
#
# Bulk Modulus (GPa) = 23.29099 27.09795 25.19447
# Shear Modulus (GPa) = 29.13927 31.09506 30.11717
#
# Velocity S-wave (km/s) = 3.51129 3.62721 3.56972
# Velocity P-wave (km/s) = 5.12772 5.38588 5.25838
#
# Compressibility (1/GPa) = 0.04293506
#
# Stress axis : x y z
#
# Youngs Moduli (GPa) = 94.04527 48.00075 49.48455
#
# Poissons Ratio (x) = 0.02252 0.17578
# Poissons Ratio (y) = 0.04412 0.01723
# Poissons Ratio (z) = 0.33408 0.01672
#
# Static dielectric constant tensor:
#      x y z
#    x 2.004400 0.000000 -0.047890 
#    y 0.000000 1.886880 0.000000 
#    z -0.047890 0.000000 2.090610 
# 
# From -- ./inp_files/152470.got.cif
#   From: 2010.05.17/outbox.cif.g08.bks.cpg/sg15_77_cif.got.tgz:152470.got - 2010.06.03 18:47:42.
