data_PCOD9287897
_publ_section_title
;
Structure prediction by ZEFSAII (Michael W. Deem and Ramdas Pophale) SiO2 
 PCOD9287897
Probable space group: C 2/C
;
_chemical_formula_sum "Si O2"
_cell_formula_units_Z 44
_cell_length_a 11.120318
_cell_length_b 23.945654
_cell_length_c 9.533525
_cell_angle_alpha 90.000000
_cell_angle_beta 52.159503
_cell_angle_gamma 90.000000
_cell_volume 2004.801787
_symmetry_space_group_name_H-M "C 2/C"
_symmetry_group_IT_number 15
_symmetry_cell_setting 'monoclinic'
loop_
_space_group_symop_operation_xyz
x,y,z
-x,y,1/2-z
-x,-y,-z
x,-y,1/2+z
1/2+x,1/2+y,z
1/2-x,1/2+y,1/2-z
1/2-x,1/2-y,-z
1/2+x,1/2-y,1/2+z
loop_
_atom_site_type_symbol
_atom_site_label
_atom_site_fract_x
_atom_site_fract_y
_atom_site_fract_z
Si Si1 0.465710 0.090718 0.936010
Si Si2 0.691922 0.540464 0.316642
Si Si3 0.007860 0.846653 0.947771
Si Si4 0.500000 0.343833 0.250000
Si Si5 0.235533 0.058026 0.604329
Si Si6 0.250950 0.812935 0.551462
O O1 0.500000 0.074530 0.750000
O O2 0.608754 0.073903 0.928946
O O3 0.325488 0.060888 0.115613
O O4 0.408682 0.155622 0.970888
O O5 0.568569 0.589905 0.409113
O O6 0.749419 0.534083 0.435843
O O7 0.643886 0.483953 0.272679
O O8 0.133976 0.816426 0.763938
O O9 0.840493 0.847513 0.001903
O O10 0.004409 0.815021 0.098089
O O11 0.355765 0.384671 0.345720
O O12 0.250000 0.750000 0.500000
#
# Coordination Sequence:
#
# PCOD9287897 Si02
#       6
#     8   8   8   4   8   8
#     4  11  22  36  59  89 123 161 203 259 306 362
#     4  10  22  38  59  90 126 169 203 254 299 371
#     4   9  21  41  63  88 125 155 208 256 312 366
#     4  10  22  40  60  88 126 168 198 254 308 370
#     4  11  22  37  61  89 129 167 211 241 308 368
#     4  10  22  40  66  90 118 157 211 264 313 367
#
# _framework density 21.947306000000001
#
# number of rings (size 3 to 8) (size 9 to 14) (size 15 to 20)
#    0.000    1.818    0.000    3.273    2.545    8.727 
#    0.000    0.909    8.000    0.000    0.000    0.000 
#    0.000    0.000    0.000    0.000    0.000    0.000 
#
# Total GULP energy -122833.324924 kJ/mol
# GULP energy per Si atom -5583.332951 kJ/mol
# Density = 2.189735 g / cm^3
# Si number density = 21.947306 Si / 1000 Ang^3
#
#
#
# Elastic Constant Matrix: (Units=GPa)
#
#
# Indices 1 2 3 4 5 6 
#
# 1 78.5272 22.9482 28.0867 0.0000 21.8869 0.0000
# 2 22.9482 77.5446 27.7626 0.0000 5.6434 0.0000
# 3 28.0867 27.7626 135.7472 0.0000 40.8631 0.0000
# 4 0.0000 0.0000 0.0000 23.9285 0.0000 2.4332
# 5 21.8869 5.6434 40.8631 0.0000 40.2060 0.0000
# 6 0.0000 0.0000 0.0000 2.4332 0.0000 13.1208
#
#
#
# Elastic Compliance Matrix: (Units=1/GPa)
#
#
# Indices 1 2 3 4 5 6 
#
# 1 0.016269 -0.004206 -0.000026 0.000000 -0.008240 0.000000
# 2 -0.004206 0.015053 -0.003259 0.000000 0.003488 0.000000
# 3 -0.000026 -0.003259 0.011377 0.000000 -0.011092 0.000000
# 4 0.000000 0.000000 0.000000 0.042594 0.000000 -0.007899
# 5 -0.008240 0.003488 -0.011092 0.000000 0.040141 0.000000
# 6 0.000000 0.000000 0.000000 -0.007899 0.000000 0.077679
#
#
# Mechanical properties :
#
#
# Convention : Reuss Voigt Hill
#
# Bulk Modulus (GPa) = 36.07498 49.93489 43.00493
# Shear Modulus (GPa) = 21.99401 29.65251 25.82326
#
# Velocity S-wave (km/s) = 3.16907 3.67969 3.43389
# Velocity P-wave (km/s) = 5.46475 6.39179 5.94637
#
# Compressibility (1/GPa) = 0.02772005
#
# Stress axis : x y z
#
# Youngs Moduli (GPa) = 61.46529 66.43102 87.89458
#
# Poissons Ratio (x) = 0.27940 0.00224
# Poissons Ratio (y) = 0.25851 0.28641
# Poissons Ratio (z) = 0.00157 0.21647
#
# Static dielectric constant tensor:
#      x y z
#    x 1.861030 0.000000 0.029410 
#    y 0.000000 1.841590 0.000000 
#    z 0.029410 0.000000 1.862120 
# 
# From -- ./inp_files/32464.got.cif
#   From: 2010.05.17/outbox.cif.g08.bks.cpg/sg15_17_cif.got.tgz:32464.got - 2010.06.03 18:47:42.
