data_PCOD9287896
_publ_section_title
;
Structure prediction by ZEFSAII (Michael W. Deem and Ramdas Pophale) SiO2 
 PCOD9287896
Probable space group: C 2/C
;
_chemical_formula_sum "Si O2"
_cell_formula_units_Z 40
_cell_length_a 29.344306
_cell_length_b 11.767859
_cell_length_c 5.210427
_cell_angle_alpha 90.000000
_cell_angle_beta 71.639694
_cell_angle_gamma 90.000000
_cell_volume 1707.670414
_symmetry_space_group_name_H-M "C 2/C"
_symmetry_group_IT_number 15
_symmetry_cell_setting 'monoclinic'
loop_
_space_group_symop_operation_xyz
x,y,z
-x,y,1/2-z
-x,-y,-z
x,-y,1/2+z
1/2+x,1/2+y,z
1/2-x,1/2+y,1/2-z
1/2-x,1/2-y,-z
1/2+x,1/2-y,1/2+z
loop_
_atom_site_type_symbol
_atom_site_label
_atom_site_fract_x
_atom_site_fract_y
_atom_site_fract_z
Si Si1 0.478949 0.373771 0.035438
Si Si2 0.276609 0.070778 0.859162
Si Si3 0.941938 0.569318 0.366257
Si Si4 0.823520 0.192829 0.443482
Si Si5 0.882035 0.202620 0.851467
O O1 0.500000 0.317903 0.250000
O O2 0.422530 0.377951 0.157323
O O3 0.500000 0.312690 0.750000
O O4 0.500000 0.500000 0.000000
O O5 0.304570 0.186430 0.870188
O O6 0.287525 0.020342 0.561157
O O7 0.220473 0.105089 0.973431
O O8 0.929805 0.525216 0.672162
O O9 0.910574 0.679778 0.351913
O O10 0.000000 0.582021 0.250000
O O11 0.842655 0.210964 0.697620
O O12 0.862212 0.158378 0.158288
#
# Coordination Sequence:
#
# PCOD9287896 Si02
#       5
#     8   8   8   8   8
#     4  10  22  42  61  88 128 181 215 258 328 378
#     4  11  24  48  71  94 137 178 211 275 364 407
#     4  10  22  38  59  89 128 174 218 266 331 387
#     4  11  26  43  67 105 130 170 229 278 333 415
#     4  12  23  41  66  97 136 167 228 285 315 394
#
# _framework density 23.423725999999998
#
# number of rings (size 3 to 8) (size 9 to 14) (size 15 to 20)
#    0.000    1.200    0.000    5.400    0.000   10.400 
#   21.600    0.000    0.000    0.000    0.000    0.000 
#    0.000    0.000    0.000    0.000    0.000    0.000 
#
# Total GULP energy -111941.056718 kJ/mol
# GULP energy per Si atom -5597.052836 kJ/mol
# Density = 2.337041 g / cm^3
# Si number density = 23.423726 Si / 1000 Ang^3
#
#
#
# Elastic Constant Matrix: (Units=GPa)
#
#
# Indices 1 2 3 4 5 6 
#
# 1 37.6506 2.5625 17.4085 0.0000 16.8003 0.0000
# 2 2.5625 51.3055 -9.1213 0.0000 11.4504 0.0000
# 3 17.4085 -9.1213 129.6145 0.0000 22.5034 0.0000
# 4 0.0000 0.0000 0.0000 -32.0241 0.0000 -11.7205
# 5 16.8003 11.4504 22.5034 0.0000 51.9071 0.0000
# 6 0.0000 0.0000 0.0000 -11.7205 0.0000 19.6184
#
#
#
# Elastic Compliance Matrix: (Units=1/GPa)
#
#
# Indices 1 2 3 4 5 6 
#
# 1 0.031890 -0.000031 -0.002698 0.000000 -0.009145 0.000000
# 2 -0.000031 0.021220 0.002496 0.000000 -0.005753 0.000000
# 3 -0.002698 0.002496 0.008864 0.000000 -0.003521 0.000000
# 4 0.000000 0.000000 0.000000 -0.025624 0.000000 -0.015308
# 5 -0.009145 -0.005753 -0.003521 0.000000 0.025021 0.000000
# 6 0.000000 0.000000 0.000000 -0.015308 0.000000 0.041827
#
#
# Mechanical properties :
#
#
# Convention : Reuss Voigt Hill
#
# Bulk Modulus (GPa) = 16.25751 26.69667 21.47709
# Shear Modulus (GPa) = 40.26831 21.74835 31.00833
#
# Velocity S-wave (km/s) = 4.15073 3.05040 3.64235
# Velocity P-wave (km/s) = 5.47057 4.88145 5.18438
#
# Compressibility (1/GPa) = 0.06151004
#
# Stress axis : x y z
#
# Youngs Moduli (GPa) = 31.35767 47.12427 112.81057
#
# Poissons Ratio (x) = 0.00148 0.30432
# Poissons Ratio (y) = 0.00098 -0.28162
# Poissons Ratio (z) = 0.08459 -0.11764
#
# Static dielectric constant tensor:
#      x y z
#    x 1.909740 0.000000 -0.012100 
#    y 0.000000 1.774190 0.000000 
#    z -0.012100 0.000000 1.930210 
# 
# From -- ./inp_files/16724.got.cif
#   From: 2010.05.17/outbox.cif.g08.bks.cpg/sg15_9_cif.got.tgz:16724.got - 2010.06.03 18:47:42.
