data_PCOD9287337
_publ_section_title
;
Structure prediction by ZEFSAII (Michael W. Deem and Ramdas Pophale) SiO2 
 PCOD9287337
Probable space group: C 2/C
;
_chemical_formula_sum "Si O2"
_cell_formula_units_Z 56
_cell_length_a 17.512713
_cell_length_b 14.882439
_cell_length_c 21.247972
_cell_angle_alpha 90.000000
_cell_angle_beta 32.116728
_cell_angle_gamma 90.000000
_cell_volume 2944.201169
_symmetry_space_group_name_H-M "C 2/C"
_symmetry_group_IT_number 15
_symmetry_cell_setting 'monoclinic'
loop_
_space_group_symop_operation_xyz
x,y,z
-x,y,1/2-z
-x,-y,-z
x,-y,1/2+z
1/2+x,1/2+y,z
1/2-x,1/2+y,1/2-z
1/2-x,1/2-y,-z
1/2+x,1/2-y,1/2+z
loop_
_atom_site_type_symbol
_atom_site_label
_atom_site_fract_x
_atom_site_fract_y
_atom_site_fract_z
Si Si1 0.126025 0.549245 0.705938
Si Si2 0.292586 0.077668 0.158402
Si Si3 0.404418 0.434368 0.521935
Si Si4 0.008109 0.999524 0.675033
Si Si5 0.328888 0.670550 0.481932
Si Si6 0.058889 0.401710 0.388898
Si Si7 0.385257 0.290074 0.635204
O O1 0.243526 0.473403 0.638551
O O2 0.214919 0.627589 0.609498
O O3 0.054267 0.590323 0.817638
O O4 0.000000 0.513777 0.750000
O O5 0.240075 0.154457 0.242638
O O6 0.369959 0.994086 0.138046
O O7 0.404749 0.110805 0.028438
O O8 0.148680 0.039710 0.228549
O O9 0.500000 0.500000 0.500000
O O10 0.451377 0.443871 0.416183
O O11 0.413863 0.338062 0.548546
O O12 0.000000 0.042805 0.750000
O O13 0.116248 0.913540 0.598899
O O14 0.250000 0.750000 0.500000
O O15 0.470809 0.700183 0.422077
O O16 0.149656 0.314560 0.344807
#
# Coordination Sequence:
#
# PCOD9287337 Si02
#       7
#     8   8   8   8   8   8   8
#     4  11  22  36  59  92 132 167 199 267 330 383
#     4  10  23  41  56  93 126 160 220 261 315 379
#     4  11  19  42  63  88 121 177 225 248 316 401
#     4  10  22  36  64  84 125 171 207 265 316 383
#     4  10  22  36  55  92 133 162 205 248 325 407
#     4  11  24  38  63  90 129 164 211 269 320 383
#     4  11  22  39  68  86 124 178 213 262 306 404
#
# _framework density 19.020440000000001
#
# number of rings (size 3 to 8) (size 9 to 14) (size 15 to 20)
#    0.000    1.429    5.714    0.857    8.000    1.714 
#    0.000    0.000    0.000    1.714    0.000    0.000 
#    0.000    0.000    0.000    0.000    0.000    0.000 
#
# Total GULP energy -156320.147483 kJ/mol
# GULP energy per Si atom -5582.862410 kJ/mol
# Density = 1.897715 g / cm^3
# Si number density = 19.020440 Si / 1000 Ang^3
#
#
#
# Elastic Constant Matrix: (Units=GPa)
#
#
# Indices 1 2 3 4 5 6 
#
# 1 72.1332 21.4530 57.8200 -0.0004 15.4429 0.0001
# 2 21.4530 62.0130 39.3186 -0.0010 5.3681 0.0003
# 3 57.8200 39.3186 127.7887 -0.0010 16.2629 0.0004
# 4 -0.0004 -0.0010 -0.0010 11.7550 0.0002 -3.6722
# 5 15.4429 5.3681 16.2629 0.0002 39.8782 0.0000
# 6 0.0001 0.0003 0.0004 -3.6722 0.0000 25.2653
#
#
#
# Elastic Compliance Matrix: (Units=1/GPa)
#
#
# Indices 1 2 3 4 5 6 
#
# 1 0.022735 -0.001633 -0.009168 0.000000 -0.004846 0.000000
# 2 -0.001633 0.020153 -0.005482 0.000001 0.000155 0.000000
# 3 -0.009168 -0.005482 0.013832 0.000000 -0.001353 0.000000
# 4 0.000000 0.000001 0.000000 0.089117 -0.000001 0.012953
# 5 -0.004846 0.000155 -0.001353 -0.000001 0.027484 0.000000
# 6 0.000000 0.000000 0.000000 0.012953 0.000000 0.041463
#
#
# Mechanical properties :
#
#
# Convention : Reuss Voigt Hill
#
# Bulk Modulus (GPa) = 41.39843 55.45755 48.42799
# Shear Modulus (GPa) = 19.57723 24.93592 22.25657
#
# Velocity S-wave (km/s) = 3.21171 3.62471 3.42444
# Velocity P-wave (km/s) = 5.96372 6.83653 6.41498
#
# Compressibility (1/GPa) = 0.02415551
#
# Stress axis : x y z
#
# Youngs Moduli (GPa) = 43.98543 49.62131 72.29500
#
# Poissons Ratio (x) = 0.08103 0.66277
# Poissons Ratio (y) = 0.07182 0.39629
# Poissons Ratio (z) = 0.40324 0.27200
#
# Static dielectric constant tensor:
#      x y z
#    x 1.686670 0.000000 0.025010 
#    y 0.000000 1.681030 0.000000 
#    z 0.025010 0.000000 1.688620 
# 
# From -- ./inp_files/249219.got.cif
#   From: 2010.05.17/outbox.cif.g08.bks.cpg/sg15_125_cif.got.tgz:249219.got - 2010.06.03 18:47:42.
