data_PCOD9287412
_publ_section_title
;
Structure prediction by ZEFSAII (Michael W. Deem and Ramdas Pophale) SiO2 
 PCOD9287412
Probable space group: C 2/C
;
_chemical_formula_sum "Si O2"
_cell_formula_units_Z 40
_cell_length_a 7.435609
_cell_length_b 7.608199
_cell_length_c 25.855690
_cell_angle_alpha 90.000000
_cell_angle_beta 82.882748
_cell_angle_gamma 90.000000
_cell_volume 1451.427012
_symmetry_space_group_name_H-M "C 2/C"
_symmetry_group_IT_number 15
_symmetry_cell_setting 'monoclinic'
loop_
_space_group_symop_operation_xyz
x,y,z
-x,y,1/2-z
-x,-y,-z
x,-y,1/2+z
1/2+x,1/2+y,z
1/2-x,1/2+y,1/2-z
1/2-x,1/2-y,-z
1/2+x,1/2-y,1/2+z
loop_
_atom_site_type_symbol
_atom_site_label
_atom_site_fract_x
_atom_site_fract_y
_atom_site_fract_z
Si Si1 0.718917 0.380537 0.734417
Si Si2 0.822946 0.302260 0.360561
Si Si3 0.398554 0.304695 0.036448
Si Si4 0.283522 0.781938 0.165176
Si Si5 0.292228 0.867144 0.930461
O O1 0.500000 0.399976 0.750000
O O2 0.747259 0.212825 0.695219
O O3 0.803817 0.341162 0.787359
O O4 0.791550 0.538550 0.696953
O O5 0.678279 0.230952 0.405919
O O6 0.865292 0.487483 0.386682
O O7 0.015187 0.205453 0.352479
O O8 0.582394 0.193730 0.027015
O O9 0.381467 0.518057 0.044100
O O10 0.250000 0.250000 0.000000
O O11 0.217058 0.796370 0.108833
#
# Coordination Sequence:
#
# PCOD9287412 Si02
#       5
#     8   8   8   8   8
#     4  10  22  36  60  91 136 169 221 271 344 421
#     4   9  22  39  63  91 132 172 219 281 339 411
#     4  10  22  44  68  95 129 178 229 295 360 422
#     4  11  22  39  62  96 128 177 222 274 341 421
#     4  10  23  39  69  92 133 169 228 282 354 418
#
# _framework density 27.559085
#
# number of rings (size 3 to 8) (size 9 to 14) (size 15 to 20)
#    1.200    0.800    0.000    3.000    5.600    1.600 
#    0.000    2.000    0.000    0.000    0.000    0.000 
#    0.000    0.000    0.000    0.000    0.000    0.000 
#
# Total GULP energy -111470.422939 kJ/mol
# GULP energy per Si atom -5573.521147 kJ/mol
# Density = 2.749636 g / cm^3
# Si number density = 27.559085 Si / 1000 Ang^3
#
#
#
# Elastic Constant Matrix: (Units=GPa)
#
#
# Indices 1 2 3 4 5 6 
#
# 1 86.8378 4.2529 39.1923 0.0000 -6.1036 0.0000
# 2 4.2529 132.0152 22.0516 0.0000 4.3835 0.0000
# 3 39.1923 22.0516 78.4223 0.0000 12.6080 0.0000
# 4 0.0000 0.0000 0.0000 50.4742 0.0000 3.4604
# 5 -6.1036 4.3835 12.6080 0.0000 53.4356 0.0000
# 6 0.0000 0.0000 0.0000 3.4604 0.0000 28.1086
#
#
#
# Elastic Compliance Matrix: (Units=1/GPa)
#
#
# Indices 1 2 3 4 5 6 
#
# 1 0.015646 0.000817 -0.008653 0.000000 0.003762 0.000000
# 2 0.000817 0.007992 -0.002666 0.000000 0.000067 0.000000
# 3 -0.008653 -0.002666 0.018657 0.000000 -0.005172 0.000000
# 4 0.000000 0.000000 0.000000 0.019981 0.000000 -0.002460
# 5 0.003762 0.000067 -0.005172 0.000000 0.020359 0.000000
# 6 0.000000 0.000000 0.000000 -0.002460 0.000000 0.035879
#
#
# Mechanical properties :
#
#
# Convention : Reuss Voigt Hill
#
# Bulk Modulus (GPa) = 46.97310 47.58541 47.27925
# Shear Modulus (GPa) = 34.10286 41.85557 37.97922
#
# Velocity S-wave (km/s) = 3.52155 3.90135 3.71631
# Velocity P-wave (km/s) = 5.79798 6.13174 5.96720
#
# Compressibility (1/GPa) = 0.02128878
#
# Stress axis : x y z
#
# Youngs Moduli (GPa) = 63.91535 125.13006 53.59842
#
# Poissons Ratio (x) = -0.10217 0.46381
# Poissons Ratio (y) = -0.05219 0.14289
# Poissons Ratio (z) = 0.55309 0.33359
#
# Static dielectric constant tensor:
#      x y z
#    x 2.460120 0.000000 0.086910 
#    y 0.000000 2.365830 0.000000 
#    z 0.086910 0.000000 2.210770 
# 
# From -- ./inp_files/262511.got.cif
#   From: 2010.05.17/outbox.cif.g08.bks.cpg/sg15_132_cif.got.tgz:262511.got - 2010.06.03 18:47:42.
