data_PCOD9287598
_publ_section_title
;
Structure prediction by ZEFSAII (Michael W. Deem and Ramdas Pophale) SiO2 
 PCOD9287598
Probable space group: C 2/C
;
_chemical_formula_sum "Si O2"
_cell_formula_units_Z 36
_cell_length_a 13.592265
_cell_length_b 18.815104
_cell_length_c 5.231461
_cell_angle_alpha 90.000000
_cell_angle_beta 95.678751
_cell_angle_gamma 90.000000
_cell_volume 1331.327275
_symmetry_space_group_name_H-M "C 2/C"
_symmetry_group_IT_number 15
_symmetry_cell_setting 'monoclinic'
loop_
_space_group_symop_operation_xyz
x,y,z
-x,y,1/2-z
-x,-y,-z
x,-y,1/2+z
1/2+x,1/2+y,z
1/2-x,1/2+y,1/2-z
1/2-x,1/2-y,-z
1/2+x,1/2-y,1/2+z
loop_
_atom_site_type_symbol
_atom_site_label
_atom_site_fract_x
_atom_site_fract_y
_atom_site_fract_z
Si Si1 0.911168 0.657703 0.909414
Si Si2 0.000000 0.219842 0.750000
Si Si3 0.140089 0.038335 0.161723
Si Si4 0.127900 0.536786 0.224214
Si Si5 0.801778 0.822507 0.128879
O O1 0.897531 0.613372 0.168708
O O2 0.800029 0.649551 0.763860
O O3 0.000000 0.636427 0.750000
O O4 0.948507 0.734257 0.015644
O O5 0.898023 0.186531 0.833715
O O6 0.255554 0.025256 0.245153
O O7 0.150359 0.119342 0.055928
O O8 0.099155 0.986403 0.926837
O O9 0.092706 0.514885 0.939701
O O10 0.750000 0.750000 0.000000
#
# Coordination Sequence:
#
# PCOD9287598 Si02
#       5
#     8   4   8   8   8
#     4  10  22  37  58  90 121 160 209 260 319 386
#     4  10  22  42  60  84 122 162 216 264 326 368
#     4   9  18  38  63  94 127 168 214 269 326 386
#     4   9  19  34  57  87 126 165 204 252 318 394
#     4   9  20  43  64  93 127 167 217 266 323 386
#
# _framework density 27.040680999999999
#
# number of rings (size 3 to 8) (size 9 to 14) (size 15 to 20)
#    0.000    2.667    0.000    0.000    3.111    1.778 
#   20.000    1.111    0.000    0.000    0.000    0.000 
#    0.000    0.000    0.000    0.000    0.000    0.000 
#
# Total GULP energy -100227.753688 kJ/mol
# GULP energy per Si atom -5568.208538 kJ/mol
# Density = 2.697914 g / cm^3
# Si number density = 27.040681 Si / 1000 Ang^3
#
#
#
# Elastic Constant Matrix: (Units=GPa)
#
#
# Indices 1 2 3 4 5 6 
#
# 1 243.9403 12.4266 34.1702 0.0000 13.8219 0.0000
# 2 12.4266 115.2641 22.9778 0.0000 4.6485 0.0000
# 3 34.1702 22.9778 90.1184 0.0000 -5.2832 0.0000
# 4 0.0000 0.0000 0.0000 34.0066 0.0000 -0.2506
# 5 13.8219 4.6485 -5.2832 0.0000 42.8314 0.0000
# 6 0.0000 0.0000 0.0000 -0.2506 0.0000 28.7314
#
#
#
# Elastic Compliance Matrix: (Units=1/GPa)
#
#
# Indices 1 2 3 4 5 6 
#
# 1 0.004443 -0.000061 -0.001766 0.000000 -0.001645 0.000000
# 2 -0.000061 0.009212 -0.002401 0.000000 -0.001276 0.000000
# 3 -0.001766 -0.002401 0.012517 0.000000 0.002374 0.000000
# 4 0.000000 0.000000 0.000000 0.029408 0.000000 0.000257
# 5 -0.001645 -0.001276 0.002374 0.000000 0.024310 0.000000
# 6 0.000000 0.000000 0.000000 0.000257 0.000000 0.034807
#
#
# Mechanical properties :
#
#
# Convention : Reuss Voigt Hill
#
# Bulk Modulus (GPa) = 56.43792 65.38577 60.91184
# Shear Modulus (GPa) = 38.74236 46.43042 42.58639
#
# Velocity S-wave (km/s) = 3.78927 4.14824 3.97281
# Velocity P-wave (km/s) = 6.32942 6.86854 6.60448
#
# Compressibility (1/GPa) = 0.01771858
#
# Stress axis : x y z
#
# Youngs Moduli (GPa) = 225.07413 108.55020 79.88947
#
# Poissons Ratio (x) = 0.00659 0.14105
# Poissons Ratio (y) = 0.01366 0.19179
# Poissons Ratio (z) = 0.39739 0.26060
#
# Static dielectric constant tensor:
#      x y z
#    x 2.355280 0.000000 -0.134930 
#    y 0.000000 2.404050 0.000000 
#    z -0.134930 0.000000 2.229000 
# 
# From -- ./inp_files/6860.got.cif
#   From: 2010.05.17/outbox.cif.g08.bks.cpg/sg15_4_cif.got.tgz:6860.got - 2010.06.03 18:47:42.
