data_PCOD9287669
_publ_section_title
;
Structure prediction by ZEFSAII (Michael W. Deem and Ramdas Pophale) SiO2 
 PCOD9287669
Probable space group: C 2/C
;
_chemical_formula_sum "Si O2"
_cell_formula_units_Z 44
_cell_length_a 14.096263
_cell_length_b 16.353861
_cell_length_c 17.220172
_cell_angle_alpha 90.000000
_cell_angle_beta 28.605363
_cell_angle_gamma 90.000000
_cell_volume 1900.607210
_symmetry_space_group_name_H-M "C 2/C"
_symmetry_group_IT_number 15
_symmetry_cell_setting 'monoclinic'
loop_
_space_group_symop_operation_xyz
x,y,z
-x,y,1/2-z
-x,-y,-z
x,-y,1/2+z
1/2+x,1/2+y,z
1/2-x,1/2+y,1/2-z
1/2-x,1/2-y,-z
1/2+x,1/2-y,1/2+z
loop_
_atom_site_type_symbol
_atom_site_label
_atom_site_fract_x
_atom_site_fract_y
_atom_site_fract_z
Si Si1 0.916097 0.146591 0.894470
Si Si2 0.668473 0.883123 0.789316
Si Si3 0.273976 0.814440 0.413650
Si Si4 0.500000 0.116023 0.250000
Si Si5 0.490116 0.456154 0.665661
Si Si6 0.497696 0.738947 0.520877
O O1 0.000000 0.166736 0.750000
O O2 0.034142 0.191682 0.876179
O O3 0.943631 0.049637 0.886510
O O4 0.685406 0.164425 0.079350
O O5 0.589650 0.923510 0.765290
O O6 0.494203 0.834161 0.959915
O O7 0.785468 0.940219 0.766036
O O8 0.826940 0.813155 0.646511
O O9 0.500000 0.838343 0.250000
O O10 0.250000 0.750000 0.500000
O O11 0.144870 0.895030 0.515941
O O12 0.194637 0.768992 0.394718
O O13 0.500000 0.434592 0.750000
#
# Coordination Sequence:
#
# PCOD9287669 Si02
#       6
#     8   8   8   4   8   8
#     4  10  24  44  64  93 131 170 213 265 322 380
#     4  10  22  38  63  91 124 164 209 263 318 381
#     4  11  21  36  61  93 123 166 213 260 318 376
#     4  10  24  40  64  96 126 170 214 264 320 390
#     4  10  22  43  62  88 131 165 209 270 315 382
#     4  10  22  37  62  92 125 166 207 269 318 375
#
# _framework density 23.150496
#
# number of rings (size 3 to 8) (size 9 to 14) (size 15 to 20)
#    0.000    1.818    0.000    3.818    5.091    8.000 
#    0.000    1.818    0.000    0.000    0.000    0.000 
#    0.000    0.000    0.000    0.000    0.000    0.000 
#
# Total GULP energy -122859.068307 kJ/mol
# GULP energy per Si atom -5584.503105 kJ/mol
# Density = 2.309780 g / cm^3
# Si number density = 23.150496 Si / 1000 Ang^3
#
#
#
# Elastic Constant Matrix: (Units=GPa)
#
#
# Indices 1 2 3 4 5 6 
#
# 1 213.0996 24.3622 35.7946 -0.0059 14.3805 0.0018
# 2 24.3622 74.7762 24.9383 -0.0094 10.6380 0.0058
# 3 35.7946 24.9383 75.2904 -0.0137 9.8872 0.0102
# 4 -0.0059 -0.0094 -0.0137 15.8663 0.0071 6.0650
# 5 14.3805 10.6380 9.8872 0.0071 30.1822 -0.0026
# 6 0.0018 0.0058 0.0102 6.0650 -0.0026 26.9925
#
#
#
# Elastic Compliance Matrix: (Units=1/GPa)
#
#
# Indices 1 2 3 4 5 6 
#
# 1 0.005228 -0.000812 -0.002014 0.000000 -0.001545 0.000000
# 2 -0.000812 0.015597 -0.004294 0.000008 -0.003704 -0.000004
# 3 -0.002014 -0.004294 0.016026 0.000015 -0.002777 -0.000009
# 4 0.000000 0.000008 0.000015 0.068949 -0.000026 -0.015492
# 5 -0.001545 -0.003704 -0.002777 -0.000026 0.036084 0.000011
# 6 0.000000 -0.000004 -0.000009 -0.015492 0.000011 0.040528
#
#
# Mechanical properties :
#
#
# Convention : Reuss Voigt Hill
#
# Bulk Modulus (GPa) = 44.22373 59.26182 51.74278
# Shear Modulus (GPa) = 24.48732 33.14627 28.81679
#
# Velocity S-wave (km/s) = 3.25583 3.78798 3.53194
# Velocity P-wave (km/s) = 5.76871 6.69222 6.24756
#
# Compressibility (1/GPa) = 0.02261230
#
# Stress axis : x y z
#
# Youngs Moduli (GPa) = 191.27914 64.11637 62.39810
#
# Poissons Ratio (x) = 0.05206 0.12565
# Poissons Ratio (y) = 0.15530 0.26792
# Poissons Ratio (z) = 0.38517 0.27529
#
# Static dielectric constant tensor:
#      x y z
#    x 1.820280 -0.000010 0.086690 
#    y -0.000010 1.855850 0.000020 
#    z 0.086690 0.000020 1.668380 
# 
# From -- ./inp_files/62633.got.cif
#   From: 2010.05.17/outbox.cif.g08.bks.cpg/sg15_32_cif.got.tgz:62633.got - 2010.06.03 18:47:42.
