data_PCOD9287208
_publ_section_title
;
Structure prediction by ZEFSAII (Michael W. Deem and Ramdas Pophale) SiO2 
 PCOD9287208
Probable space group: C 2/C
;
_chemical_formula_sum "Si O2"
_cell_formula_units_Z 48
_cell_length_a 17.125132
_cell_length_b 18.831130
_cell_length_c 15.239274
_cell_angle_alpha 90.000000
_cell_angle_beta 33.608015
_cell_angle_gamma 90.000000
_cell_volume 2720.185592
_symmetry_space_group_name_H-M "C 2/C"
_symmetry_group_IT_number 15
_symmetry_cell_setting 'monoclinic'
loop_
_space_group_symop_operation_xyz
x,y,z
-x,y,1/2-z
-x,-y,-z
x,-y,1/2+z
1/2+x,1/2+y,z
1/2-x,1/2+y,1/2-z
1/2-x,1/2-y,-z
1/2+x,1/2-y,1/2+z
loop_
_atom_site_type_symbol
_atom_site_label
_atom_site_fract_x
_atom_site_fract_y
_atom_site_fract_z
Si Si1 0.726166 0.177484 0.361416
Si Si2 0.045965 0.188672 0.003832
Si Si3 0.722516 0.373793 0.500897
Si Si4 0.077381 0.946523 0.359387
Si Si5 0.123706 0.515773 0.451865
Si Si6 0.500000 0.952168 0.250000
Si Si7 0.500000 0.493403 0.750000
O O1 0.615445 0.234363 0.429244
O O2 0.748051 0.179395 0.446450
O O3 0.672690 0.097629 0.395579
O O4 0.880029 0.191490 0.178045
O O5 0.128293 0.156388 0.011165
O O6 0.067177 0.132747 0.905798
O O7 0.633667 0.440385 0.622366
O O8 0.874266 0.403132 0.329485
O O9 0.240153 0.968617 0.196664
O O10 0.006341 0.960466 0.331747
O O11 0.000000 0.000000 0.500000
O O12 0.000000 0.500000 0.500000
O O13 0.065981 0.506859 0.605530
#
# Coordination Sequence:
#
# PCOD9287208 Si02
#       7
#     8   8   8   8   8   4   4
#     4  11  24  39  57  94 126 165 201 251 319 382
#     4  12  24  38  61  89 127 166 203 251 323 380
#     4  11  19  38  58  88 128 161 197 252 316 385
#     4  12  22  41  66  89 122 171 212 261 305 370
#     4  11  23  40  62  92 125 160 207 259 314 366
#     4  10  22  34  55  95 124 154 194 252 312 362
#     4  12  20  40  67  89 124 160 224 260 304 372
#
# _framework density 17.645855000000001
#
# number of rings (size 3 to 8) (size 9 to 14) (size 15 to 20)
#    0.000    0.667    8.333    1.500    7.000    0.000 
#    0.000    0.000    0.000    2.000    0.000    0.000 
#    0.000    0.000    0.000    0.000    0.000    0.000 
#
# Total GULP energy -134048.554699 kJ/mol
# GULP energy per Si atom -5585.356446 kJ/mol
# Density = 1.760569 g / cm^3
# Si number density = 17.645855 Si / 1000 Ang^3
#
#
#
# Elastic Constant Matrix: (Units=GPa)
#
#
# Indices 1 2 3 4 5 6 
#
# 1 85.3749 17.6077 23.0723 -0.0006 0.1932 0.0000
# 2 17.6077 38.8815 -2.9622 0.0002 2.2118 0.0001
# 3 23.0723 -2.9622 102.7166 -0.0006 -11.6122 0.0003
# 4 -0.0006 0.0002 -0.0006 19.0648 0.0004 -3.2645
# 5 0.1932 2.2118 -11.6122 0.0004 31.3267 -0.0001
# 6 0.0000 0.0001 0.0003 -3.2645 -0.0001 39.3047
#
#
#
# Elastic Compliance Matrix: (Units=1/GPa)
#
#
# Indices 1 2 3 4 5 6 
#
# 1 0.013993 -0.006547 -0.003433 0.000000 -0.000897 0.000000
# 2 -0.006547 0.028918 0.002169 0.000000 -0.001197 0.000000
# 3 -0.003433 0.002169 0.011016 0.000000 0.003951 0.000000
# 4 0.000000 0.000000 0.000000 0.053209 -0.000001 0.004419
# 5 -0.000897 -0.001197 0.003951 -0.000001 0.033476 0.000000
# 6 0.000000 0.000000 0.000000 0.004419 0.000000 0.025809
#
#
# Mechanical properties :
#
#
# Convention : Reuss Voigt Hill
#
# Bulk Modulus (GPa) = 26.10712 33.60096 29.85404
# Shear Modulus (GPa) = 25.66563 30.55625 28.11094
#
# Velocity S-wave (km/s) = 3.81791 4.16581 3.99565
# Velocity P-wave (km/s) = 5.85341 6.49783 6.18402
#
# Compressibility (1/GPa) = 0.03830372
#
# Stress axis : x y z
#
# Youngs Moduli (GPa) = 71.46281 34.58102 90.77708
#
# Poissons Ratio (x) = 0.22642 0.31167
# Poissons Ratio (y) = 0.46790 -0.19692
# Poissons Ratio (z) = 0.24536 -0.07502
#
# Static dielectric constant tensor:
#      x y z
#    x 1.610540 0.000000 0.000820 
#    y 0.000000 1.604790 0.000000 
#    z 0.000820 0.000000 1.614220 
# 
# From -- ./inp_files/48393.got.cif
#   From: 2010.05.17/outbox.cif.g08.bks.cpg/sg15_25_cif.got.tgz:48393.got - 2010.06.03 18:47:42.
