data_PCOD9287098
_publ_section_title
;
Structure prediction by ZEFSAII (Michael W. Deem and Ramdas Pophale) SiO2 
 PCOD9287098
Probable space group: C 2/C
;
_chemical_formula_sum "Si O2"
_cell_formula_units_Z 56
_cell_length_a 22.271745
_cell_length_b 12.784770
_cell_length_c 9.295398
_cell_angle_alpha 90.000000
_cell_angle_beta 63.229506
_cell_angle_gamma 90.000000
_cell_volume 2363.077904
_symmetry_space_group_name_H-M "C 2/C"
_symmetry_group_IT_number 15
_symmetry_cell_setting 'monoclinic'
loop_
_space_group_symop_operation_xyz
x,y,z
-x,y,1/2-z
-x,-y,-z
x,-y,1/2+z
1/2+x,1/2+y,z
1/2-x,1/2+y,1/2-z
1/2-x,1/2-y,-z
1/2+x,1/2-y,1/2+z
loop_
_atom_site_type_symbol
_atom_site_label
_atom_site_fract_x
_atom_site_fract_y
_atom_site_fract_z
Si Si1 0.437537 0.678992 0.704692
Si Si2 0.797352 0.159308 0.384697
Si Si3 0.564123 0.566643 0.281711
Si Si4 0.173427 0.549630 0.597799
Si Si5 0.058489 0.664970 0.567710
Si Si6 0.889203 0.784179 0.540517
Si Si7 0.101387 0.555321 0.956299
O O1 0.500000 0.699802 0.750000
O O2 0.430906 0.555205 0.686940
O O3 0.435679 0.750276 0.564815
O O4 0.378823 0.704214 0.883282
O O5 0.750000 0.250000 0.500000
O O6 0.872502 0.353817 0.415254
O O7 0.747118 0.061824 0.456764
O O8 0.820200 0.198950 0.202833
O O9 0.500000 0.582333 0.250000
O O10 0.630540 0.616859 0.135042
O O11 0.563790 0.628364 0.433723
O O12 0.162264 0.543979 0.778164
O O13 0.133961 0.450721 0.577884
O O14 0.055142 0.547611 0.502333
O O15 0.000000 0.680440 0.750000
O O16 0.923032 0.672199 0.539743
#
# Coordination Sequence:
#
# PCOD9287098 Si02
#       7
#     8   8   8   8   8   8   8
#     4  11  25  48  72 112 153 203 253 324 383 459
#     4  10  21  46  75 111 151 208 256 308 385 453
#     4   9  23  48  74 112 155 203 258 313 381 459
#     4  10  22  44  69 113 148 201 254 313 380 460
#     4  10  26  47  75 111 154 204 258 313 395 462
#     4  10  23  46  73 106 155 197 255 320 377 459
#     4  10  22  43  69 108 157 191 261 311 389 451
#
# _framework density 23.697907000000001
#
# number of rings (size 3 to 8) (size 9 to 14) (size 15 to 20)
#    1.714    0.286    1.429    0.857    2.000    4.571 
#   12.857    2.143    0.000    0.000    0.000    0.000 
#    0.000    0.000    0.000    0.000    0.000    0.000 
#
# Total GULP energy -155989.073505 kJ/mol
# GULP energy per Si atom -5571.038339 kJ/mol
# Density = 2.364397 g / cm^3
# Si number density = 23.697907 Si / 1000 Ang^3
#
#
#
# Elastic Constant Matrix: (Units=GPa)
#
#
# Indices 1 2 3 4 5 6 
#
# 1 92.9483 21.9388 41.1634 0.0000 -19.1611 0.0000
# 2 21.9388 174.5841 76.2502 0.0000 -5.7752 0.0000
# 3 41.1634 76.2502 171.1211 0.0000 -16.4886 0.0000
# 4 0.0000 0.0000 0.0000 46.7233 0.0000 -3.5209
# 5 -19.1611 -5.7752 -16.4886 0.0000 26.4749 0.0000
# 6 0.0000 0.0000 0.0000 -3.5209 0.0000 25.0258
#
#
#
# Elastic Compliance Matrix: (Units=1/GPa)
#
#
# Indices 1 2 3 4 5 6 
#
# 1 0.013583 -0.000440 -0.002269 0.000000 0.008321 0.000000
# 2 -0.000440 0.007131 -0.003141 0.000000 -0.000719 0.000000
# 3 -0.002269 -0.003141 0.008048 0.000000 0.002685 0.000000
# 4 0.000000 0.000000 0.000000 0.021632 0.000000 0.003043
# 5 0.008321 -0.000719 0.002685 0.000000 0.045309 0.000000
# 6 0.000000 0.000000 0.000000 0.003043 0.000000 0.040387
#
#
# Mechanical properties :
#
#
# Convention : Reuss Voigt Hill
#
# Bulk Modulus (GPa) = 58.61428 79.70649 69.16039
# Shear Modulus (GPa) = 32.57775 39.59821 36.08798
#
# Velocity S-wave (km/s) = 3.71173 4.09217 3.90658
# Velocity P-wave (km/s) = 6.56939 7.48567 7.04245
#
# Compressibility (1/GPa) = 0.01706069
#
# Stress axis : x y z
#
# Youngs Moduli (GPa) = 73.62115 140.22687 124.25432
#
# Poissons Ratio (x) = 0.06177 0.28198
# Poissons Ratio (y) = 0.03243 0.39028
# Poissons Ratio (z) = 0.16707 0.44045
#
# Static dielectric constant tensor:
#      x y z
#    x 1.952100 0.000000 -0.041660 
#    y 0.000000 1.975550 0.000000 
#    z -0.041660 0.000000 1.960640 
# 
# From -- ./inp_files/69042.got.cif
#   From: 2010.05.17/outbox.cif.g08.bks.cpg/sg15_35_cif.got.tgz:69042.got - 2010.06.03 18:47:42.
