data_PCOD9287006
_publ_section_title
;
Structure prediction by ZEFSAII (Michael W. Deem and Ramdas Pophale) SiO2 
 PCOD9287006
Probable space group: C 2/C
;
_chemical_formula_sum "Si O2"
_cell_formula_units_Z 36
_cell_length_a 8.238349
_cell_length_b 9.337355
_cell_length_c 20.036235
_cell_angle_alpha 90.000000
_cell_angle_beta 91.775208
_cell_angle_gamma 90.000000
_cell_volume 1540.535418
_symmetry_space_group_name_H-M "C 2/C"
_symmetry_group_IT_number 15
_symmetry_cell_setting 'monoclinic'
loop_
_space_group_symop_operation_xyz
x,y,z
-x,y,1/2-z
-x,-y,-z
x,-y,1/2+z
1/2+x,1/2+y,z
1/2-x,1/2+y,1/2-z
1/2-x,1/2-y,-z
1/2+x,1/2-y,1/2+z
loop_
_atom_site_type_symbol
_atom_site_label
_atom_site_fract_x
_atom_site_fract_y
_atom_site_fract_z
Si Si1 0.750000 0.250000 0.500000
Si Si2 0.397844 0.971360 0.394356
Si Si3 0.758325 0.592203 0.662263
Si Si4 0.587745 0.726141 0.539570
Si Si5 0.807965 0.370398 0.764189
O O1 0.698612 0.134611 0.559239
O O2 0.568240 0.322556 0.502384
O O3 0.563789 0.905809 0.368017
O O4 0.458720 0.114665 0.434113
O O5 0.295172 0.031813 0.330422
O O6 0.630614 0.630627 0.603755
O O7 0.728130 0.443349 0.699189
O O8 0.753861 0.715128 0.717857
O O9 0.750000 0.750000 0.500000
O O10 0.000000 0.362275 0.750000
#
# Coordination Sequence:
#
# PCOD9287006 Si02
#       5
#     4   8   8   8   8
#     4  12  24  42  70 102 140 186 228 280 350 416
#     4  10  23  44  66 100 144 176 232 292 337 419
#     4  10  21  45  71  97 145 184 229 298 350 411
#     4  11  24  45  68 103 143 182 230 288 345 414
#     4   9  21  42  67  97 138 186 231 293 351 415
#
# _framework density 23.368499
#
# number of rings (size 3 to 8) (size 9 to 14) (size 15 to 20)
#    0.000    1.778    2.222    0.667    0.000    6.222 
#    0.000   14.444    0.000    0.000    0.000    0.000 
#    0.000    0.000    0.000    0.000    0.000    0.000 
#
# Total GULP energy -100202.310353 kJ/mol
# GULP energy per Si atom -5566.795020 kJ/mol
# Density = 2.331531 g / cm^3
# Si number density = 23.368499 Si / 1000 Ang^3
#
#
#
# Elastic Constant Matrix: (Units=GPa)
#
#
# Indices 1 2 3 4 5 6 
#
# 1 58.9869 5.2256 2.4403 0.0000 -9.5468 0.0000
# 2 5.2256 60.4171 25.0845 0.0000 -14.3121 0.0000
# 3 2.4403 25.0845 48.8699 0.0000 -21.3018 0.0000
# 4 0.0000 0.0000 0.0000 47.7002 0.0000 -21.4404
# 5 -9.5468 -14.3121 -21.3018 0.0000 31.0975 0.0000
# 6 0.0000 0.0000 0.0000 -21.4404 0.0000 23.4530
#
#
#
# Elastic Compliance Matrix: (Units=1/GPa)
#
#
# Indices 1 2 3 4 5 6 
#
# 1 0.018045 -0.001021 0.002613 0.000000 0.006860 0.000000
# 2 -0.001021 0.021326 -0.009629 0.000000 0.002906 0.000000
# 3 0.002613 -0.009629 0.033778 0.000000 0.019509 0.000000
# 4 0.000000 0.000000 0.000000 0.035588 0.000000 0.032533
# 5 0.006860 0.002906 0.019509 0.000000 0.048964 0.000000
# 6 0.000000 0.000000 0.000000 0.032533 0.000000 0.072380
#
#
# Mechanical properties :
#
#
# Convention : Reuss Voigt Hill
#
# Bulk Modulus (GPa) = 17.52034 25.97498 21.74766
# Shear Modulus (GPa) = 18.85518 29.48505 24.17011
#
# Velocity S-wave (km/s) = 2.84362 3.55596 3.21955
# Velocity P-wave (km/s) = 4.27729 5.29143 4.81116
#
# Compressibility (1/GPa) = 0.05707651
#
# Stress axis : x y z
#
# Youngs Moduli (GPa) = 55.41551 46.89106 29.60509
#
# Poissons Ratio (x) = 0.04786 -0.07736
# Poissons Ratio (y) = 0.05656 0.28506
# Poissons Ratio (z) = -0.14480 0.45151
#
# Static dielectric constant tensor:
#      x y z
#    x 1.650050 0.000000 0.026560 
#    y 0.000000 2.009080 0.000000 
#    z 0.026560 0.000000 1.911720 
# 
# From -- ./inp_files/229345.got.cif
#   From: 2010.05.17/outbox.cif.g08.bks.cpg/sg15_115_cif.got.tgz:229345.got - 2010.06.03 18:47:42.
