data_PCOD9287608
_publ_section_title
;
Structure prediction by ZEFSAII (Michael W. Deem and Ramdas Pophale) SiO2 
 PCOD9287608
Probable space group: C 2/C
;
_chemical_formula_sum "Si O2"
_cell_formula_units_Z 40
_cell_length_a 12.494802
_cell_length_b 13.958005
_cell_length_c 20.100121
_cell_angle_alpha 90.000000
_cell_angle_beta 33.503336
_cell_angle_gamma 90.000000
_cell_volume 1934.991663
_symmetry_space_group_name_H-M "C 2/C"
_symmetry_group_IT_number 15
_symmetry_cell_setting 'monoclinic'
loop_
_space_group_symop_operation_xyz
x,y,z
-x,y,1/2-z
-x,-y,-z
x,-y,1/2+z
1/2+x,1/2+y,z
1/2-x,1/2+y,1/2-z
1/2-x,1/2-y,-z
1/2+x,1/2-y,1/2+z
loop_
_atom_site_type_symbol
_atom_site_label
_atom_site_fract_x
_atom_site_fract_y
_atom_site_fract_z
Si Si1 0.264221 0.732323 0.293338
Si Si2 0.605445 0.138648 0.628423
Si Si3 0.036156 0.111576 0.974080
Si Si4 0.531646 0.102548 0.516176
Si Si5 0.296757 0.239395 0.321056
O O1 0.490320 0.760254 0.181103
O O2 0.163425 0.838178 0.350937
O O3 0.198121 0.696352 0.256015
O O4 0.185595 0.663488 0.391927
O O5 0.500000 0.093828 0.750000
O O6 0.830606 0.143174 0.531954
O O7 0.585711 0.092668 0.566092
O O8 0.830888 0.162509 0.073552
O O9 0.000000 0.000000 0.000000
O O10 0.335603 0.165814 0.613954
O O11 0.500000 0.000000 0.500000
O O12 0.500000 0.256124 0.250000
#
# Coordination Sequence:
#
# PCOD9287608 Si02
#       5
#     8   8   8   8   8
#     4   9  21  38  59  86 118 152 193 243 293 340
#     4   9  20  39  61  85 116 149 194 241 288 345
#     4  10  22  37  59  87 113 150 197 240 287 345
#     4  10  22  40  62  90 119 152 196 244 290 344
#     4  10  23  40  58  84 121 159 193 237 294 348
#
# _framework density 20.671924000000001
#
# number of rings (size 3 to 8) (size 9 to 14) (size 15 to 20)
#    0.000    2.400    0.000    0.000    0.000   28.000 
#    0.000    5.000    0.000    0.000    0.000    0.000 
#    0.000    0.000    0.000    0.000    0.000    0.000 
#
# Total GULP energy -111366.236821 kJ/mol
# GULP energy per Si atom -5568.311841 kJ/mol
# Density = 2.062487 g / cm^3
# Si number density = 20.671924 Si / 1000 Ang^3
#
#
#
# Elastic Constant Matrix: (Units=GPa)
#
#
# Indices 1 2 3 4 5 6 
#
# 1 109.0902 1.6183 28.1031 -0.0001 -10.9142 -0.0001
# 2 1.6183 90.0887 22.5149 -0.0005 -6.6801 0.0001
# 3 28.1031 22.5149 63.9641 -0.0016 5.2215 0.0004
# 4 -0.0001 -0.0005 -0.0016 5.6570 0.0004 4.4756
# 5 -10.9142 -6.6801 5.2215 0.0004 44.5509 0.0000
# 6 -0.0001 0.0001 0.0004 4.4756 0.0000 11.8203
#
#
#
# Elastic Compliance Matrix: (Units=1/GPa)
#
#
# Indices 1 2 3 4 5 6 
#
# 1 0.010949 0.001472 -0.005619 -0.000003 0.003562 0.000001
# 2 0.001472 0.012617 -0.005323 -0.000001 0.002876 0.000001
# 3 -0.005619 -0.005323 0.020348 0.000009 -0.004560 -0.000004
# 4 -0.000003 -0.000001 0.000009 0.252377 -0.000004 -0.095559
# 5 0.003562 0.002876 -0.004560 -0.000004 0.024284 0.000002
# 6 0.000001 0.000001 -0.000004 -0.095559 0.000002 0.120782
#
#
# Mechanical properties :
#
#
# Convention : Reuss Voigt Hill
#
# Bulk Modulus (GPa) = 40.04123 40.84618 40.44370
# Shear Modulus (GPa) = 10.66957 26.46610 18.56784
#
# Velocity S-wave (km/s) = 2.27433 3.58200 3.00028
# Velocity P-wave (km/s) = 5.12920 6.07534 5.62221
#
# Compressibility (1/GPa) = 0.02497426
#
# Stress axis : x y z
#
# Youngs Moduli (GPa) = 91.33423 79.25680 49.14415
#
# Poissons Ratio (x) = -0.11665 0.27615
# Poissons Ratio (y) = -0.13442 0.26157
# Poissons Ratio (z) = 0.51323 0.42185
#
# Static dielectric constant tensor:
#      x y z
#    x 1.774620 0.000000 0.034340 
#    y 0.000000 1.734080 0.000000 
#    z 0.034340 0.000000 1.842060 
# 
# From -- ./inp_files/197602.got.cif
#   From: 2010.05.17/outbox.cif.g08.bks.cpg/sg15_99_cif.got.tgz:197602.got - 2010.06.03 18:47:42.
