data_PCOD9287215
_publ_section_title
;
Structure prediction by ZEFSAII (Michael W. Deem and Ramdas Pophale) SiO2 
 PCOD9287215
Probable space group: C 2/C
;
_chemical_formula_sum "Si O2"
_cell_formula_units_Z 60
_cell_length_a 19.906520
_cell_length_b 24.808417
_cell_length_c 10.992197
_cell_angle_alpha 90.000000
_cell_angle_beta 147.055737
_cell_angle_gamma 90.000000
_cell_volume 2952.136343
_symmetry_space_group_name_H-M "C 2/C"
_symmetry_group_IT_number 15
_symmetry_cell_setting 'monoclinic'
loop_
_space_group_symop_operation_xyz
x,y,z
-x,y,1/2-z
-x,-y,-z
x,-y,1/2+z
1/2+x,1/2+y,z
1/2-x,1/2+y,1/2-z
1/2-x,1/2-y,-z
1/2+x,1/2-y,1/2+z
loop_
_atom_site_type_symbol
_atom_site_label
_atom_site_fract_x
_atom_site_fract_y
_atom_site_fract_z
Si Si1 0.404112 0.120317 0.707243
Si Si2 0.000000 0.843333 0.750000
Si Si3 0.763852 0.386765 0.441643
Si Si4 0.460903 0.696658 0.924868
Si Si5 0.353274 0.451467 0.019848
Si Si6 0.273974 0.426547 0.382055
Si Si7 0.087296 0.681437 0.163920
Si Si8 0.283958 0.350135 0.771639
O O1 0.500000 0.100128 0.750000
O O2 0.331236 0.076692 0.675449
O O3 0.300844 0.153466 0.476233
O O4 0.479532 0.157092 0.916039
O O5 0.013257 0.807406 0.890766
O O6 0.881507 0.883179 0.577435
O O7 0.713569 0.432109 0.458060
O O8 0.777917 0.409612 0.328226
O O9 0.882880 0.357478 0.678459
O O10 0.656065 0.341577 0.274823
O O11 0.581380 0.673080 0.043487
O O12 0.438641 0.756960 0.846637
O O13 0.500000 0.441757 0.250000
O O14 0.329562 0.513949 0.960190
O O15 0.298310 0.412687 0.831976
O O16 0.210643 0.678678 0.268286
#
# Coordination Sequence:
#
# PCOD9287215 Si02
#       8
#     8   4   8   8   8   8   8   8
#     4  10  23  45  66  92 136 177 227 267 320 403
#     4  10  22  34  58 112 136 152 224 278 338 390
#     4  10  24  42  61 104 135 164 227 272 332 404
#     4  11  21  38  68  95 136 173 215 282 334 386
#     4  11  22  40  71  99 130 170 214 277 356 390
#     4  11  23  40  68  99 135 169 210 291 336 387
#     4  10  24  42  64  93 132 184 220 262 328 396
#     4  10  22  41  65  98 131 166 227 278 322 403
#
# _framework density 20.324263999999999
#
# number of rings (size 3 to 8) (size 9 to 14) (size 15 to 20)
#    0.000    1.600    3.333    0.400    4.667    3.733 
#    0.000    8.667    0.000    0.000    0.000    0.000 
#    0.000    0.000    0.000    0.000    0.000    0.000 
#
# Total GULP energy -167668.250697 kJ/mol
# GULP energy per Si atom -5588.941690 kJ/mol
# Density = 2.027801 g / cm^3
# Si number density = 20.324264 Si / 1000 Ang^3
#
#
#
# Elastic Constant Matrix: (Units=GPa)
#
#
# Indices 1 2 3 4 5 6 
#
# 1 69.7480 25.6121 31.6361 0.0000 1.2376 0.0000
# 2 25.6121 59.1030 30.4868 0.0000 -1.0824 0.0000
# 3 31.6361 30.4868 86.9117 0.0000 -20.0825 0.0000
# 4 0.0000 0.0000 0.0000 20.9506 0.0000 3.1078
# 5 1.2376 -1.0824 -20.0825 0.0000 33.4138 0.0000
# 6 0.0000 0.0000 0.0000 3.1078 0.0000 11.7230
#
#
#
# Elastic Compliance Matrix: (Units=1/GPa)
#
#
# Indices 1 2 3 4 5 6 
#
# 1 0.019139 -0.005170 -0.006219 0.000000 -0.004614 0.000000
# 2 -0.005170 0.022595 -0.006771 0.000000 -0.003146 0.000000
# 3 -0.006219 -0.006771 0.018751 0.000000 0.011281 0.000000
# 4 0.000000 0.000000 0.000000 0.049685 0.000000 -0.013172
# 5 -0.004614 -0.003146 0.011281 0.000000 0.036777 0.000000
# 6 0.000000 0.000000 0.000000 -0.013172 0.000000 0.088794
#
#
# Mechanical properties :
#
#
# Convention : Reuss Voigt Hill
#
# Bulk Modulus (GPa) = 41.38240 43.47029 42.42634
# Shear Modulus (GPa) = 17.84971 21.75265 19.80118
#
# Velocity S-wave (km/s) = 2.96674 3.27506 3.12471
# Velocity P-wave (km/s) = 5.66927 5.97797 5.82567
#
# Compressibility (1/GPa) = 0.02416486
#
# Stress axis : x y z
#
# Youngs Moduli (GPa) = 52.25051 44.25744 53.32912
#
# Poissons Ratio (x) = 0.22882 0.33166
# Poissons Ratio (y) = 0.27014 0.36108
# Poissons Ratio (z) = 0.32495 0.29966
#
# Static dielectric constant tensor:
#      x y z
#    x 1.729020 0.000000 -0.014100 
#    y 0.000000 1.659540 0.000000 
#    z -0.014100 0.000000 1.728010 
# 
# From -- ./inp_files/114847.got.cif
#   From: 2010.05.17/outbox.cif.g08.bks.cpg/sg15_58_cif.got.tgz:114847.got - 2010.06.03 18:47:42.
