data_PCOD9287710
_publ_section_title
;
Structure prediction by ZEFSAII (Michael W. Deem and Ramdas Pophale) SiO2 
 PCOD9287710
Probable space group: C 2/C
;
_chemical_formula_sum "Si O2"
_cell_formula_units_Z 56
_cell_length_a 14.627723
_cell_length_b 11.741342
_cell_length_c 16.028868
_cell_angle_alpha 90.000000
_cell_angle_beta 111.851052
_cell_angle_gamma 90.000000
_cell_volume 2555.157182
_symmetry_space_group_name_H-M "C 2/C"
_symmetry_group_IT_number 15
_symmetry_cell_setting 'monoclinic'
loop_
_space_group_symop_operation_xyz
x,y,z
-x,y,1/2-z
-x,-y,-z
x,-y,1/2+z
1/2+x,1/2+y,z
1/2-x,1/2+y,1/2-z
1/2-x,1/2-y,-z
1/2+x,1/2-y,1/2+z
loop_
_atom_site_type_symbol
_atom_site_label
_atom_site_fract_x
_atom_site_fract_y
_atom_site_fract_z
Si Si1 0.615029 0.035143 0.138848
Si Si2 0.954047 0.948596 0.386268
Si Si3 0.593612 0.090707 0.948079
Si Si4 0.725538 0.968205 0.340690
Si Si5 0.757008 0.228248 0.404505
Si Si6 0.471028 0.314114 0.933419
Si Si7 0.413566 0.249885 0.266085
O O1 0.620973 0.166252 0.172200
O O2 0.503130 0.987096 0.102470
O O3 0.676786 0.969868 0.231850
O O4 0.642393 0.038932 0.049474
O O5 0.839445 0.934144 0.373468
O O6 0.967485 0.859266 0.318860
O O7 0.019963 0.892586 0.481088
O O8 0.972490 0.080385 0.369346
O O9 0.662700 0.094664 0.890369
O O10 0.552362 0.217622 0.952451
O O11 0.729612 0.097594 0.375564
O O12 0.750000 0.250000 0.500000
O O13 0.865973 0.247243 0.405789
O O14 0.674359 0.289857 0.322632
O O15 0.500000 0.179349 0.250000
#
# Coordination Sequence:
#
# PCOD9287710 Si02
#       7
#     8   8   8   8   8   8   8
#     4  10  22  39  63  96 127 158 220 276 329 377
#     4  10  22  42  62  88 135 171 217 270 323 401
#     4  11  22  38  69  93 130 173 212 275 336 395
#     4  10  23  40  60  97 131 171 215 279 327 390
#     4  10  22  37  64  91 124 167 222 275 328 386
#     4  10  22  41  61  90 128 174 211 262 333 402
#     4  11  21  39  66  92 123 168 223 275 320 383
#
# _framework density 21.916461000000002
#
# number of rings (size 3 to 8) (size 9 to 14) (size 15 to 20)
#    0.000    1.714    1.429    3.000    6.000    0.571 
#    0.000    1.429    0.000    0.000    0.000    0.000 
#    0.000    0.000    0.000    0.000    0.000    0.000 
#
# Total GULP energy -156179.634293 kJ/mol
# GULP energy per Si atom -5577.844082 kJ/mol
# Density = 2.186658 g / cm^3
# Si number density = 21.916461 Si / 1000 Ang^3
#
#
#
# Elastic Constant Matrix: (Units=GPa)
#
#
# Indices 1 2 3 4 5 6 
#
# 1 53.7124 7.9341 19.6172 0.0000 2.4315 0.0000
# 2 7.9341 60.4909 15.3646 0.0000 -15.3649 0.0000
# 3 19.6172 15.3646 124.4834 0.0000 2.7536 0.0000
# 4 0.0000 0.0000 0.0000 27.8350 0.0000 -0.1321
# 5 2.4315 -15.3649 2.7536 0.0000 24.1697 0.0000
# 6 0.0000 0.0000 0.0000 -0.1321 0.0000 24.2386
#
#
#
# Elastic Compliance Matrix: (Units=1/GPa)
#
#
# Indices 1 2 3 4 5 6 
#
# 1 0.020204 -0.002847 -0.002755 0.000000 -0.003528 0.000000
# 2 -0.002847 0.021077 -0.002462 0.000000 0.013966 0.000000
# 3 -0.002755 -0.002462 0.008822 0.000000 -0.002293 0.000000
# 4 0.000000 0.000000 0.000000 0.035927 0.000000 0.000196
# 5 -0.003528 0.013966 -0.002293 0.000000 0.050869 0.000000
# 6 0.000000 0.000000 0.000000 0.000196 0.000000 0.041258
#
#
# Mechanical properties :
#
#
# Convention : Reuss Voigt Hill
#
# Bulk Modulus (GPa) = 29.43133 36.05759 32.74446
# Shear Modulus (GPa) = 24.31812 28.30005 26.30908
#
# Velocity S-wave (km/s) = 3.33465 3.59732 3.46847
# Velocity P-wave (km/s) = 5.31832 5.80881 5.56897
#
# Compressibility (1/GPa) = 0.03397740
#
# Stress axis : x y z
#
# Youngs Moduli (GPa) = 49.49545 47.44400 113.35474
#
# Poissons Ratio (x) = 0.13505 0.31224
# Poissons Ratio (y) = 0.14089 0.27906
# Poissons Ratio (z) = 0.13634 0.11680
#
# Static dielectric constant tensor:
#      x y z
#    x 1.876540 0.000000 0.029940 
#    y 0.000000 1.898110 0.000000 
#    z 0.029940 0.000000 1.896340 
# 
# From -- ./inp_files/210674.got.cif
#   From: 2010.05.17/outbox.cif.g08.bks.cpg/sg15_106_cif.got.tgz:210674.got - 2010.06.03 18:47:42.
