data_PCOD9287100
_publ_section_title
;
Structure prediction by ZEFSAII (Michael W. Deem and Ramdas Pophale) SiO2 
 PCOD9287100
Probable space group: C 2/C
;
_chemical_formula_sum "Si O2"
_cell_formula_units_Z 28
_cell_length_a 5.694952
_cell_length_b 17.594708
_cell_length_c 10.009600
_cell_angle_alpha 90.000000
_cell_angle_beta 108.973919
_cell_angle_gamma 90.000000
_cell_volume 948.477297
_symmetry_space_group_name_H-M "C 2/C"
_symmetry_group_IT_number 15
_symmetry_cell_setting 'monoclinic'
loop_
_space_group_symop_operation_xyz
x,y,z
-x,y,1/2-z
-x,-y,-z
x,-y,1/2+z
1/2+x,1/2+y,z
1/2-x,1/2+y,1/2-z
1/2-x,1/2-y,-z
1/2+x,1/2-y,1/2+z
loop_
_atom_site_type_symbol
_atom_site_label
_atom_site_fract_x
_atom_site_fract_y
_atom_site_fract_z
Si Si1 0.260354 0.056158 0.061903
Si Si2 0.500000 0.917366 0.250000
Si Si3 0.500000 0.346196 0.750000
Si Si4 0.000000 0.092413 0.750000
Si Si5 0.008572 0.709897 0.094382
O O1 0.128995 0.098878 0.163789
O O2 0.455342 0.121320 0.058651
O O3 0.399636 0.979431 0.125140
O O4 0.087406 0.048322 0.899560
O O5 0.742776 0.871027 0.252292
O O6 0.690078 0.292313 0.869755
O O7 0.000000 0.725762 0.250000
O O8 0.750000 0.750000 0.000000
#
# Coordination Sequence:
#
# PCOD9287100 Si02
#       5
#     8   4   4   4   8
#     4  11  24  44  68 103 140 186 239 294 362 423
#     4  12  24  46  68 102 145 193 240 292 366 420
#     4  10  21  46  75  94 152 187 228 295 370 424
#     4  12  29  40  73 108 141 188 248 301 344 430
#     4  10  23  42  71 102 139 184 238 292 367 431
#
# _framework density 29.521003
#
# number of rings (size 3 to 8) (size 9 to 14) (size 15 to 20)
#    0.000    1.143    4.286    2.571    6.000    4.571 
#    0.000    1.429    0.000    0.000    0.000    0.000 
#    0.000    0.000    0.000    0.000    0.000    0.000 
#
# Total GULP energy -78145.968959 kJ/mol
# GULP energy per Si atom -5581.854926 kJ/mol
# Density = 2.945381 g / cm^3
# Si number density = 29.521003 Si / 1000 Ang^3
#
#
#
# Elastic Constant Matrix: (Units=GPa)
#
#
# Indices 1 2 3 4 5 6 
#
# 1 205.1535 55.3485 40.1763 0.0000 60.1242 0.0000
# 2 55.3485 153.5277 55.1308 0.0000 17.9400 0.0000
# 3 40.1763 55.1308 275.3342 0.0000 27.6311 0.0000
# 4 0.0000 0.0000 0.0000 31.6614 0.0000 8.5821
# 5 60.1242 17.9400 27.6311 0.0000 57.4972 0.0000
# 6 0.0000 0.0000 0.0000 8.5821 0.0000 35.9279
#
#
#
# Elastic Compliance Matrix: (Units=1/GPa)
#
#
# Indices 1 2 3 4 5 6 
#
# 1 0.007506 -0.001859 0.000007 0.000000 -0.007272 0.000000
# 2 -0.001859 0.007620 -0.001272 0.000000 0.000177 0.000000
# 3 0.000007 -0.001272 0.004042 0.000000 -0.001552 0.000000
# 4 0.000000 0.000000 0.000000 0.033771 0.000000 -0.008067
# 5 -0.007272 0.000177 -0.001552 0.000000 0.025687 0.000000
# 6 0.000000 0.000000 0.000000 -0.008067 0.000000 0.029760
#
#
# Mechanical properties :
#
#
# Convention : Reuss Voigt Hill
#
# Bulk Modulus (GPa) = 77.40826 103.92518 90.66672
# Shear Modulus (GPa) = 42.03820 57.24130 49.63975
#
# Velocity S-wave (km/s) = 3.77770 4.40819 4.10507
# Velocity P-wave (km/s) = 6.73100 7.82239 7.29713
#
# Compressibility (1/GPa) = 0.01291852
#
# Stress axis : x y z
#
# Youngs Moduli (GPa) = 133.23233 131.23954 247.43267
#
# Poissons Ratio (x) = 0.24391 -0.00166
# Poissons Ratio (y) = 0.24762 0.31481
# Poissons Ratio (z) = -0.00089 0.16698
#
# Static dielectric constant tensor:
#      x y z
#    x 2.734400 0.000000 0.077430 
#    y 0.000000 2.226010 0.000000 
#    z 0.077430 0.000000 2.353500 
# 
# From -- ./inp_files/19699.got.cif
#   From: 2010.05.17/outbox.cif.g08.bks.cpg/sg15_10_cif.got.tgz:19699.got - 2010.06.03 18:47:42.
