data_PCOD9287798
_publ_section_title
;
Structure prediction by ZEFSAII (Michael W. Deem and Ramdas Pophale) SiO2 
 PCOD9287798
Probable space group: C 2/C
;
_chemical_formula_sum "Si O2"
_cell_formula_units_Z 60
_cell_length_a 19.410457
_cell_length_b 12.995721
_cell_length_c 20.137304
_cell_angle_alpha 90.000000
_cell_angle_beta 36.736180
_cell_angle_gamma 90.000000
_cell_volume 3038.323467
_symmetry_space_group_name_H-M "C 2/C"
_symmetry_group_IT_number 15
_symmetry_cell_setting 'monoclinic'
loop_
_space_group_symop_operation_xyz
x,y,z
-x,y,1/2-z
-x,-y,-z
x,-y,1/2+z
1/2+x,1/2+y,z
1/2-x,1/2+y,1/2-z
1/2-x,1/2-y,-z
1/2+x,1/2-y,1/2+z
loop_
_atom_site_type_symbol
_atom_site_label
_atom_site_fract_x
_atom_site_fract_y
_atom_site_fract_z
Si Si1 0.000000 0.749321 0.750000
Si Si2 0.044837 0.163335 0.883174
Si Si3 0.802021 0.930430 0.601676
Si Si4 0.044770 0.443890 0.144030
Si Si5 0.944807 0.645784 0.222497
Si Si6 0.241836 0.847089 0.582362
Si Si7 0.890952 0.155871 0.514291
Si Si8 0.637694 0.562017 0.292785
O O1 0.012611 0.670426 0.803776
O O2 0.884131 0.814748 0.846617
O O3 0.059493 0.258333 0.823718
O O4 0.085799 0.185340 0.926774
O O5 0.108792 0.059043 0.810605
O O6 0.911512 0.131280 0.990875
O O7 0.684985 0.889047 0.663405
O O8 0.805733 0.921047 0.678867
O O9 0.819778 0.049852 0.570615
O O10 0.000000 0.482438 0.250000
O O11 0.004024 0.546828 0.138214
O O12 0.176997 0.418046 0.026487
O O13 0.000000 0.680164 0.250000
O O14 0.316081 0.744635 0.538867
O O15 0.216129 0.901857 0.671995
O O16 0.015800 0.124392 0.387697
#
# Coordination Sequence:
#
# PCOD9287798 Si02
#       8
#     4   8   8   8   8   8   8   8
#     4  10  22  38  56  86 120 164 194 242 314 362
#     4   9  20  40  59  87 120 161 210 245 302 359
#     4   9  19  39  61  83 126 159 194 254 299 375
#     4   9  23  39  53  82 121 156 200 240 303 363
#     4  11  22  39  60  87 119 163 208 242 308 361
#     4  12  20  37  62  90 120 152 205 261 297 362
#     4   9  19  36  64  87 119 163 197 249 314 366
#     4   9  20  37  60  93 115 154 208 250 306 355
#
# _framework density 19.747733
#
# number of rings (size 3 to 8) (size 9 to 14) (size 15 to 20)
#    0.400    1.867    0.000    4.400    0.000    1.600 
#    6.000    5.333    0.000    0.000    0.000    0.000 
#    0.000    0.000    0.000    0.000    0.000    0.000 
#
# Total GULP energy -167102.801810 kJ/mol
# GULP energy per Si atom -5570.093394 kJ/mol
# Density = 1.970279 g / cm^3
# Si number density = 19.747733 Si / 1000 Ang^3
#
#
#
# Elastic Constant Matrix: (Units=GPa)
#
#
# Indices 1 2 3 4 5 6 
#
# 1 59.2315 25.1560 36.5309 0.0000 -13.8460 0.0000
# 2 25.1560 56.3394 25.9600 0.0000 -0.1058 0.0000
# 3 36.5309 25.9600 102.1409 0.0000 5.6735 0.0000
# 4 0.0000 0.0000 0.0000 71.9475 0.0000 8.6099
# 5 -13.8460 -0.1058 5.6735 0.0000 31.9622 0.0000
# 6 0.0000 0.0000 0.0000 8.6099 0.0000 19.4263
#
#
#
# Elastic Compliance Matrix: (Units=1/GPa)
#
#
# Indices 1 2 3 4 5 6 
#
# 1 0.029749 -0.009042 -0.009146 0.000000 0.014481 0.000000
# 2 -0.009042 0.022883 -0.002392 0.000000 -0.003416 0.000000
# 3 -0.009146 -0.002392 0.014028 0.000000 -0.006460 0.000000
# 4 0.000000 0.000000 0.000000 0.014677 0.000000 -0.006505
# 5 0.014481 -0.003416 -0.006460 0.000000 0.038695 0.000000
# 6 0.000000 0.000000 0.000000 -0.006505 0.000000 0.054360
#
#
# Mechanical properties :
#
#
# Convention : Reuss Voigt Hill
#
# Bulk Modulus (GPa) = 39.21589 43.66730 41.44160
# Shear Modulus (GPa) = 22.31623 33.33819 27.82721
#
# Velocity S-wave (km/s) = 3.36529 4.11323 3.75792
# Velocity P-wave (km/s) = 5.91623 6.68721 6.31350
#
# Compressibility (1/GPa) = 0.02549987
#
# Stress axis : x y z
#
# Youngs Moduli (GPa) = 33.61489 43.70136 71.28418
#
# Poissons Ratio (x) = 0.39513 0.65197
# Poissons Ratio (y) = 0.30393 0.17054
# Poissons Ratio (z) = 0.30744 0.10455
#
# Static dielectric constant tensor:
#      x y z
#    x 1.756800 0.000000 0.029120 
#    y 0.000000 1.738530 0.000000 
#    z 0.029120 0.000000 1.695720 
# 
# From -- ./inp_files/280077.got.cif
#   From: 2010.05.17/outbox.cif.g08.bks.cpg/sg15_141_cif.got.tgz:280077.got - 2010.06.03 18:47:42.
