data_PCOD9287918
_publ_section_title
;
Structure prediction by ZEFSAII (Michael W. Deem and Ramdas Pophale) SiO2 
 PCOD9287918
Probable space group: C 2/C
;
_chemical_formula_sum "Si O2"
_cell_formula_units_Z 56
_cell_length_a 16.542234
_cell_length_b 23.504393
_cell_length_c 8.546407
_cell_angle_alpha 90.000000
_cell_angle_beta 115.987454
_cell_angle_gamma 90.000000
_cell_volume 2986.986962
_symmetry_space_group_name_H-M "C 2/C"
_symmetry_group_IT_number 15
_symmetry_cell_setting 'monoclinic'
loop_
_space_group_symop_operation_xyz
x,y,z
-x,y,1/2-z
-x,-y,-z
x,-y,1/2+z
1/2+x,1/2+y,z
1/2-x,1/2+y,1/2-z
1/2-x,1/2-y,-z
1/2+x,1/2-y,1/2+z
loop_
_atom_site_type_symbol
_atom_site_label
_atom_site_fract_x
_atom_site_fract_y
_atom_site_fract_z
Si Si1 0.603351 0.442926 0.010057
Si Si2 0.535424 0.758998 0.938866
Si Si3 0.794852 0.174951 0.433627
Si Si4 0.654579 0.756766 0.597226
Si Si5 0.260743 0.643390 0.757374
Si Si6 0.607503 0.568986 0.146852
Si Si7 0.907738 0.659505 0.732518
O O1 0.664380 0.403959 0.168838
O O2 0.617422 0.508290 0.070217
O O3 0.500634 0.422685 0.949034
O O4 0.628309 0.435029 0.849214
O O5 0.500000 0.787883 0.750000
O O6 0.441483 0.733365 0.921447
O O7 0.617152 0.715748 0.978645
O O8 0.567901 0.801884 0.097728
O O9 0.716982 0.206070 0.267075
O O10 0.755346 0.162728 0.572508
O O11 0.833640 0.118209 0.383574
O O12 0.709897 0.699121 0.617934
O O13 0.627338 0.797673 0.431741
O O14 0.171444 0.621080 0.767205
O O15 0.000000 0.632060 0.750000
#
# Coordination Sequence:
#
# PCOD9287918 Si02
#       7
#     8   8   8   8   8   8   8
#     4  10  22  38  60  82 119 154 194 243 281 356
#     4  11  21  36  52  82 117 156 187 237 292 343
#     4  12  23  36  58  85 121 158 195 242 288 358
#     4  11  22  36  55  82 117 152 198 237 288 355
#     4  12  21  36  56  83 113 154 195 235 295 342
#     4  10  22  39  56  87 116 155 196 235 297 337
#     4  10  23  37  55  80 118 153 196 244 292 347
#
# _framework density 18.747987999999999
#
# number of rings (size 3 to 8) (size 9 to 14) (size 15 to 20)
#    0.000    1.143    2.857    4.286    2.000    1.143 
#    0.000    0.000    0.000    0.000    0.000   17.000 
#    0.000    0.000    0.000    0.000    0.000    0.000 
#
# Total GULP energy -156193.243183 kJ/mol
# GULP energy per Si atom -5578.330114 kJ/mol
# Density = 1.870532 g / cm^3
# Si number density = 18.747988 Si / 1000 Ang^3
#
#
#
# Elastic Constant Matrix: (Units=GPa)
#
#
# Indices 1 2 3 4 5 6 
#
# 1 90.6243 15.2198 19.7620 0.0000 -2.5554 0.0000
# 2 15.2198 46.6717 14.3658 0.0000 5.9402 0.0000
# 3 19.7620 14.3658 104.0619 0.0000 8.3652 0.0000
# 4 0.0000 0.0000 0.0000 21.1342 0.0000 -2.1646
# 5 -2.5554 5.9402 8.3652 0.0000 21.4449 0.0000
# 6 0.0000 0.0000 0.0000 -2.1646 0.0000 23.3741
#
#
#
# Elastic Compliance Matrix: (Units=1/GPa)
#
#
# Indices 1 2 3 4 5 6 
#
# 1 0.012211 -0.003767 -0.002064 0.000000 0.003304 0.000000
# 2 -0.003767 0.024105 -0.002106 0.000000 -0.006305 0.000000
# 3 -0.002064 -0.002106 0.010598 0.000000 -0.003797 0.000000
# 4 0.000000 0.000000 0.000000 0.047770 0.000000 0.004424
# 5 0.003304 -0.006305 -0.003797 0.000000 0.050252 0.000000
# 6 0.000000 0.000000 0.000000 0.004424 0.000000 0.043192
#
#
# Mechanical properties :
#
#
# Convention : Reuss Voigt Hill
#
# Bulk Modulus (GPa) = 32.21702 37.78368 35.00035
# Shear Modulus (GPa) = 23.32657 25.99131 24.65894
#
# Velocity S-wave (km/s) = 3.53117 3.72741 3.63062
# Velocity P-wave (km/s) = 5.81783 6.22270 6.02367
#
# Compressibility (1/GPa) = 0.03103950
#
# Stress axis : x y z
#
# Youngs Moduli (GPa) = 81.89643 41.48479 94.36120
#
# Poissons Ratio (x) = 0.15627 0.19480
# Poissons Ratio (y) = 0.30850 0.19868
# Poissons Ratio (z) = 0.16907 0.08735
#
# Static dielectric constant tensor:
#      x y z
#    x 1.742050 0.000000 -0.014520 
#    y 0.000000 1.601060 0.000000 
#    z -0.014520 0.000000 1.670650 
# 
# From -- ./inp_files/50339.got.cif
#   From: 2010.05.17/outbox.cif.g08.bks.cpg/sg15_26_cif.got.tgz:50339.got - 2010.06.03 18:47:42.
