data_PCOD9287449
_publ_section_title
;
Structure prediction by ZEFSAII (Michael W. Deem and Ramdas Pophale) SiO2 
 PCOD9287449
Probable space group: C 2/C
;
_chemical_formula_sum "Si O2"
_cell_formula_units_Z 44
_cell_length_a 11.068242
_cell_length_b 24.318654
_cell_length_c 10.135734
_cell_angle_alpha 90.000000
_cell_angle_beta 51.809673
_cell_angle_gamma 90.000000
_cell_volume 2144.245654
_symmetry_space_group_name_H-M "C 2/C"
_symmetry_group_IT_number 15
_symmetry_cell_setting 'monoclinic'
loop_
_space_group_symop_operation_xyz
x,y,z
-x,y,1/2-z
-x,-y,-z
x,-y,1/2+z
1/2+x,1/2+y,z
1/2-x,1/2+y,1/2-z
1/2-x,1/2-y,-z
1/2+x,1/2-y,1/2+z
loop_
_atom_site_type_symbol
_atom_site_label
_atom_site_fract_x
_atom_site_fract_y
_atom_site_fract_z
Si Si1 0.718783 0.219367 0.718864
Si Si2 0.114116 0.505673 0.298304
Si Si3 0.815979 0.397868 0.363244
Si Si4 0.026061 0.699136 0.387802
Si Si5 0.000000 0.810852 0.750000
Si Si6 0.275614 0.392550 0.788427
O O1 0.745514 0.162133 0.628170
O O2 0.876776 0.245755 0.656912
O O3 0.633708 0.264150 0.682659
O O4 0.617122 0.205333 0.916915
O O5 0.202282 0.447685 0.224903
O O6 0.235734 0.555489 0.224579
O O7 0.000000 0.512534 0.250000
O O8 0.000000 0.500000 0.500000
O O9 0.745324 0.415068 0.549569
O O10 0.000000 0.390018 0.250000
O O11 0.133720 0.649199 0.361674
O O12 0.000000 0.691812 0.250000
O O13 0.929589 0.855127 0.689576
#
# Coordination Sequence:
#
# PCOD9287449 Si02
#       6
#     8   8   8   8   4   8
#     4  11  20  37  58  86 114 152 196 236 297 350
#     4  11  20  35  59  86 112 147 194 243 288 335
#     4  11  19  34  60  83 110 144 192 242 283 339
#     4  11  22  35  56  83 120 152 188 243 294 355
#     4  10  22  36  62  84 114 154 188 246 284 354
#     4  11  21  38  57  87 115 148 198 237 295 346
#
# _framework density 20.520036000000001
#
# number of rings (size 3 to 8) (size 9 to 14) (size 15 to 20)
#    0.000    1.091    6.364    2.182    0.000    2.909 
#    0.000    0.909    2.000    0.000    0.000    0.000 
#    0.000    0.000    0.000    0.000    0.000    0.000 
#
# Total GULP energy -122558.080075 kJ/mol
# GULP energy per Si atom -5570.821822 kJ/mol
# Density = 2.047333 g / cm^3
# Si number density = 20.520036 Si / 1000 Ang^3
#
#
#
# Elastic Constant Matrix: (Units=GPa)
#
#
# Indices 1 2 3 4 5 6 
#
# 1 46.2961 25.9502 22.4649 0.0000 9.5094 0.0000
# 2 25.9502 151.3948 5.9695 0.0000 11.7572 0.0000
# 3 22.4649 5.9695 77.5277 0.0000 10.8212 0.0000
# 4 0.0000 0.0000 0.0000 22.8476 0.0000 6.4031
# 5 9.5094 11.7572 10.8212 0.0000 23.5979 0.0000
# 6 0.0000 0.0000 0.0000 6.4031 0.0000 27.8514
#
#
#
# Elastic Compliance Matrix: (Units=1/GPa)
#
#
# Indices 1 2 3 4 5 6 
#
# 1 0.028655 -0.004148 -0.007116 0.000000 -0.006217 0.000000
# 2 -0.004148 0.007472 0.000975 0.000000 -0.002498 0.000000
# 3 -0.007116 0.000975 0.015548 0.000000 -0.004748 0.000000
# 4 0.000000 0.000000 0.000000 0.046782 0.000000 -0.010755
# 5 -0.006217 -0.002498 -0.004748 0.000000 0.048304 0.000000
# 6 0.000000 0.000000 0.000000 -0.010755 0.000000 0.038377
#
#
# Mechanical properties :
#
#
# Convention : Reuss Voigt Hill
#
# Bulk Modulus (GPa) = 32.15686 42.66531 37.41108
# Shear Modulus (GPa) = 23.13919 29.58167 26.36043
#
# Velocity S-wave (km/s) = 3.36168 3.80096 3.58805
# Velocity P-wave (km/s) = 5.54732 6.33247 5.95286
#
# Compressibility (1/GPa) = 0.03109757
#
# Stress axis : x y z
#
# Youngs Moduli (GPa) = 34.89737 133.83555 64.31582
#
# Poissons Ratio (x) = 0.55519 0.45768
# Poissons Ratio (y) = 0.14477 -0.06274
# Poissons Ratio (z) = 0.24833 -0.13055
#
# Static dielectric constant tensor:
#      x y z
#    x 1.739370 0.000000 0.006720 
#    y 0.000000 1.757560 0.000000 
#    z 0.006720 0.000000 1.912700 
# 
# From -- ./inp_files/32430.got.cif
#   From: 2010.05.17/outbox.cif.g08.bks.cpg/sg15_17_cif.got.tgz:32430.got - 2010.06.03 18:47:42.
