data_PCOD9287554
_publ_section_title
;
Structure prediction by ZEFSAII (Michael W. Deem and Ramdas Pophale) SiO2 
 PCOD9287554
Probable space group: C 2/C
;
_chemical_formula_sum "Si O2"
_cell_formula_units_Z 52
_cell_length_a 22.089929
_cell_length_b 23.814884
_cell_length_c 16.139962
_cell_angle_alpha 90.000000
_cell_angle_beta 18.582167
_cell_angle_gamma 90.000000
_cell_volume 2705.694250
_symmetry_space_group_name_H-M "C 2/C"
_symmetry_group_IT_number 15
_symmetry_cell_setting 'monoclinic'
loop_
_space_group_symop_operation_xyz
x,y,z
-x,y,1/2-z
-x,-y,-z
x,-y,1/2+z
1/2+x,1/2+y,z
1/2-x,1/2+y,1/2-z
1/2-x,1/2-y,-z
1/2+x,1/2-y,1/2+z
loop_
_atom_site_type_symbol
_atom_site_label
_atom_site_fract_x
_atom_site_fract_y
_atom_site_fract_z
Si Si1 0.178194 0.217817 0.455937
Si Si2 0.500000 0.543677 0.750000
Si Si3 0.439804 0.613776 0.995399
Si Si4 0.718549 0.063677 0.845576
Si Si5 0.090135 0.562478 0.546484
Si Si6 0.817654 0.469006 0.278129
Si Si7 0.023697 0.328125 0.620153
O O1 0.120889 0.175161 0.457215
O O2 0.352083 0.198314 0.288694
O O3 0.189130 0.280711 0.404600
O O4 0.000000 0.219091 0.750000
O O5 0.463330 0.580469 0.878426
O O6 0.687581 0.505285 0.507655
O O7 0.633933 0.597751 0.789946
O O8 0.276981 0.590855 0.267377
O O9 0.802147 0.049209 0.646291
O O10 0.642810 0.004839 0.980579
O O11 0.556557 0.110033 0.041068
O O12 0.924047 0.575653 0.695747
O O13 0.000000 0.578979 0.750000
O O14 0.000000 0.500000 0.000000
O O15 0.000000 0.337556 0.750000
#
# Coordination Sequence:
#
# PCOD9287554 Si02
#       7
#     8   4   8   8   8   8   8
#     4  11  22  37  57  84 116 149 195 237 296 348
#     4  12  22  36  60  80 126 152 202 240 290 350
#     4  12  23  37  59  88 117 162 191 244 294 348
#     4  11  22  37  56  86 119 153 197 231 299 346
#     4  11  23  38  58  85 121 155 200 241 290 349
#     4  10  22  37  55  84 117 157 199 239 293 349
#     4  11  22  36  57  83 115 153 189 243 289 351
#
# _framework density 19.218727999999999
#
# number of rings (size 3 to 8) (size 9 to 14) (size 15 to 20)
#    0.000    0.923    3.846    6.462    4.308    0.000 
#    0.000    0.000    0.000    0.000    2.000    3.231 
#    0.000    0.000    0.000    0.000    0.000    0.000 
#
# Total GULP energy -144856.304164 kJ/mol
# GULP energy per Si atom -5571.396314 kJ/mol
# Density = 1.917499 g / cm^3
# Si number density = 19.218728 Si / 1000 Ang^3
#
#
#
# Elastic Constant Matrix: (Units=GPa)
#
#
# Indices 1 2 3 4 5 6 
#
# 1 80.3524 -5.3341 9.1087 -0.0227 8.4482 0.0064
# 2 -5.3341 84.0590 16.2178 -0.0242 13.1870 0.0146
# 3 9.1087 16.2178 77.3830 -0.0427 18.8059 0.0279
# 4 -0.0227 -0.0242 -0.0427 19.4870 0.0440 -4.8886
# 5 8.4482 13.1870 18.8059 0.0440 31.3921 -0.0111
# 6 0.0064 0.0146 0.0279 -4.8886 -0.0111 26.0798
#
#
#
# Elastic Compliance Matrix: (Units=1/GPa)
#
#
# Indices 1 2 3 4 5 6 
#
# 1 0.013039 0.001581 -0.000997 0.000023 -0.003576 0.000000
# 2 0.001581 0.013099 -0.001745 0.000024 -0.004883 -0.000003
# 3 -0.000997 -0.001745 0.015405 0.000046 -0.008228 -0.000010
# 4 0.000023 0.000024 0.000046 0.053849 -0.000116 0.010094
# 5 -0.003576 -0.004883 -0.008228 -0.000116 0.039798 0.000008
# 6 0.000000 -0.000003 -0.000010 0.010094 0.000008 0.040236
#
#
# Mechanical properties :
#
#
# Convention : Reuss Voigt Hill
#
# Bulk Modulus (GPa) = 25.49619 31.30883 28.40251
# Shear Modulus (GPa) = 26.20242 30.17859 28.19050
#
# Velocity S-wave (km/s) = 3.69640 3.96696 3.83407
# Velocity P-wave (km/s) = 5.61364 6.10807 5.86607
#
# Compressibility (1/GPa) = 0.03922155
#
# Stress axis : x y z
#
# Youngs Moduli (GPa) = 76.69242 76.33961 64.91280
#
# Poissons Ratio (x) = -0.12067 0.06473
# Poissons Ratio (y) = -0.12123 0.11326
# Poissons Ratio (z) = 0.07647 0.13319
#
# Static dielectric constant tensor:
#      x y z
#    x 1.784910 -0.000020 -0.015200 
#    y -0.000020 1.730260 0.000050 
#    z -0.015200 0.000050 1.719020 
# 
# From -- ./inp_files/169861.got.cif
#   From: 2010.05.17/outbox.cif.g08.bks.cpg/sg15_85_cif.got.tgz:169861.got - 2010.06.03 18:47:42.
