data_PCOD9287071
_publ_section_title
;
Structure prediction by ZEFSAII (Michael W. Deem and Ramdas Pophale) SiO2 
 PCOD9287071
Probable space group: C 2/C
;
_chemical_formula_sum "Si O2"
_cell_formula_units_Z 48
_cell_length_a 13.881191
_cell_length_b 10.107949
_cell_length_c 21.907899
_cell_angle_alpha 90.000000
_cell_angle_beta 42.958242
_cell_angle_gamma 90.000000
_cell_volume 2094.759448
_symmetry_space_group_name_H-M "C 2/C"
_symmetry_group_IT_number 15
_symmetry_cell_setting 'monoclinic'
loop_
_space_group_symop_operation_xyz
x,y,z
-x,y,1/2-z
-x,-y,-z
x,-y,1/2+z
1/2+x,1/2+y,z
1/2-x,1/2+y,1/2-z
1/2-x,1/2-y,-z
1/2+x,1/2-y,1/2+z
loop_
_atom_site_type_symbol
_atom_site_label
_atom_site_fract_x
_atom_site_fract_y
_atom_site_fract_z
Si Si1 0.983409 0.442186 0.326307
Si Si2 0.167504 0.882850 0.458240
Si Si3 0.569399 0.141471 0.462911
Si Si4 0.585690 0.213470 0.074880
Si Si5 0.875205 0.829009 0.756819
Si Si6 0.940142 0.043610 0.627109
O O1 0.830952 0.373671 0.395718
O O2 0.964832 0.569524 0.378201
O O3 0.000000 0.497743 0.250000
O O4 0.096214 0.322180 0.280395
O O5 0.096772 0.740634 0.505564
O O6 0.092016 0.989149 0.534928
O O7 0.141612 0.928312 0.399149
O O8 0.452779 0.217826 0.478213
O O9 0.722421 0.147007 0.359059
O O10 0.500000 0.000000 0.500000
O O11 0.478403 0.326111 0.148781
O O12 0.750000 0.250000 0.000000
O O13 0.878190 0.931440 0.699448
O O14 0.000000 0.852328 0.750000
#
# Coordination Sequence:
#
# PCOD9287071 Si02
#       6
#     8   8   8   8   8   8
#     4  11  23  43  71  97 140 184 237 286 357 422
#     4  10  21  46  69  99 137 189 227 296 360 426
#     4  11  26  45  69 102 141 182 243 293 359 430
#     4  11  25  43  65 103 139 179 231 285 350 427
#     4  11  25  45  72 102 138 184 248 293 356 431
#     4  10  24  43  70  98 145 181 236 293 359 418
#
# _framework density 22.914325999999999
#
# number of rings (size 3 to 8) (size 9 to 14) (size 15 to 20)
#    0.000    1.333    5.000    0.000    7.000    1.333 
#    0.000    0.000    0.000    0.000    0.000    0.000 
#    0.000    0.000    0.000    0.000    0.000    0.000 
#
# Total GULP energy -133755.305837 kJ/mol
# GULP energy per Si atom -5573.137743 kJ/mol
# Density = 2.286217 g / cm^3
# Si number density = 22.914326 Si / 1000 Ang^3
#
#
#
# Elastic Constant Matrix: (Units=GPa)
#
#
# Indices 1 2 3 4 5 6 
#
# 1 64.8340 20.4022 32.8235 0.0000 -9.7995 0.0000
# 2 20.4022 173.6465 38.7053 0.0000 -5.3808 0.0000
# 3 32.8235 38.7053 79.3758 0.0000 -20.6862 0.0000
# 4 0.0000 0.0000 0.0000 43.1787 0.0000 0.9872
# 5 -9.7995 -5.3808 -20.6862 0.0000 38.0984 0.0000
# 6 0.0000 0.0000 0.0000 0.9872 0.0000 34.5198
#
#
#
# Elastic Compliance Matrix: (Units=1/GPa)
#
#
# Indices 1 2 3 4 5 6 
#
# 1 0.019578 -0.000581 -0.007596 0.000000 0.000829 0.000000
# 2 -0.000581 0.006507 -0.003182 0.000000 -0.000958 0.000000
# 3 -0.007596 -0.003182 0.019412 0.000000 0.008137 0.000000
# 4 0.000000 0.000000 0.000000 0.023175 0.000000 -0.000663
# 5 0.000829 -0.000958 0.008137 0.000000 0.030744 0.000000
# 6 0.000000 0.000000 0.000000 -0.000663 0.000000 0.028988
#
#
# Mechanical properties :
#
#
# Convention : Reuss Voigt Hill
#
# Bulk Modulus (GPa) = 43.90450 55.74646 49.82548
# Shear Modulus (GPa) = 31.50305 38.22105 34.86205
#
# Velocity S-wave (km/s) = 3.71188 4.08854 3.90476
# Velocity P-wave (km/s) = 6.12965 6.83149 6.49006
#
# Compressibility (1/GPa) = 0.02277671
#
# Stress axis : x y z
#
# Youngs Moduli (GPa) = 51.07751 153.68693 51.51529
#
# Poissons Ratio (x) = 0.08935 0.39133
# Poissons Ratio (y) = 0.02970 0.16393
# Poissons Ratio (z) = 0.38800 0.48906
#
# Static dielectric constant tensor:
#      x y z
#    x 1.873670 0.000000 0.047210 
#    y 0.000000 2.127810 0.000000 
#    z 0.047210 0.000000 1.937510 
# 
# From -- ./inp_files/295403.got.cif
#   From: 2010.05.17/outbox.cif.g08.bks.cpg/sg15_148_cif.got.tgz:295403.got - 2010.06.03 18:47:42.
