data_PCOD9287902
_publ_section_title
;
Structure prediction by ZEFSAII (Michael W. Deem and Ramdas Pophale) SiO2 
 PCOD9287902
Probable space group: C 2/C
;
_chemical_formula_sum "Si O2"
_cell_formula_units_Z 52
_cell_length_a 5.600880
_cell_length_b 21.746121
_cell_length_c 22.270318
_cell_angle_alpha 90.000000
_cell_angle_beta 83.377008
_cell_angle_gamma 90.000000
_cell_volume 2694.365667
_symmetry_space_group_name_H-M "C 2/C"
_symmetry_group_IT_number 15
_symmetry_cell_setting 'monoclinic'
loop_
_space_group_symop_operation_xyz
x,y,z
-x,y,1/2-z
-x,-y,-z
x,-y,1/2+z
1/2+x,1/2+y,z
1/2-x,1/2+y,1/2-z
1/2-x,1/2-y,-z
1/2+x,1/2-y,1/2+z
loop_
_atom_site_type_symbol
_atom_site_label
_atom_site_fract_x
_atom_site_fract_y
_atom_site_fract_z
Si Si1 0.500000 0.811243 0.750000
Si Si2 0.404330 0.775473 0.187683
Si Si3 0.159573 0.049599 0.924584
Si Si4 0.728092 0.830020 0.862580
Si Si5 0.484510 0.417627 0.938773
Si Si6 0.348750 0.115224 0.597091
Si Si7 0.841765 0.315362 0.975148
O O1 0.320292 0.767203 0.790796
O O2 0.632380 0.846473 0.799188
O O3 0.500000 0.797294 0.250000
O O4 0.594975 0.728095 0.152764
O O5 0.333915 0.831370 0.147071
O O6 0.416926 0.074015 0.894387
O O7 0.911573 0.081652 0.906174
O O8 0.137946 0.976714 0.915794
O O9 0.153481 0.061162 0.996991
O O10 0.536957 0.808020 0.917670
O O11 0.831173 0.891874 0.888709
O O12 0.637139 0.358350 0.953331
O O13 0.420073 0.148263 0.532375
O O14 0.750000 0.250000 0.000000
#
# Coordination Sequence:
#
# PCOD9287902 Si02
#       7
#     4   8   8   8   8   8   8
#     4  10  22  40  60  92 120 166 210 262 340 386
#     4  10  24  40  65  89 124 166 213 269 330 385
#     4  10  24  39  64  93 131 173 216 250 324 369
#     4  11  21  38  62  91 126 165 211 262 327 385
#     4  10  22  38  59  92 133 172 206 263 309 392
#     4  11  23  41  64  96 125 170 211 267 311 394
#     4  11  23  35  62  96 133 162 205 264 328 378
#
# _framework density 19.299534000000001
#
# number of rings (size 3 to 8) (size 9 to 14) (size 15 to 20)
#    0.000    1.538    1.538    2.769   10.769    3.077 
#    0.000    0.000    1.692    1.846    0.000    0.000 
#    0.000    0.000    0.000    0.000    0.000    0.000 
#
# Total GULP energy -145050.690765 kJ/mol
# GULP energy per Si atom -5578.872722 kJ/mol
# Density = 1.925561 g / cm^3
# Si number density = 19.299534 Si / 1000 Ang^3
#
#
#
# Elastic Constant Matrix: (Units=GPa)
#
#
# Indices 1 2 3 4 5 6 
#
# 1 65.9235 45.4148 32.1027 0.0000 16.5637 0.0000
# 2 45.4148 106.5666 41.8433 0.0000 22.5744 0.0000
# 3 32.1027 41.8433 91.2062 0.0000 21.4954 0.0000
# 4 0.0000 0.0000 0.0000 96.7548 0.0000 -48.9275
# 5 16.5637 22.5744 21.4954 0.0000 34.7443 0.0000
# 6 0.0000 0.0000 0.0000 -48.9275 0.0000 51.5087
#
#
#
# Elastic Compliance Matrix: (Units=1/GPa)
#
#
# Indices 1 2 3 4 5 6 
#
# 1 0.023198 -0.007598 -0.003789 0.000000 -0.003778 0.000000
# 2 -0.007598 0.014695 -0.003127 0.000000 -0.003991 0.000000
# 3 -0.003789 -0.003127 0.015017 0.000000 -0.005453 0.000000
# 4 0.000000 0.000000 0.000000 0.019889 0.000000 0.018892
# 5 -0.003778 -0.003991 -0.005453 0.000000 0.036550 0.000000
# 6 0.000000 0.000000 0.000000 0.018892 0.000000 0.037360
#
#
# Mechanical properties :
#
#
# Convention : Reuss Voigt Hill
#
# Bulk Modulus (GPa) = 41.87084 55.82422 48.84753
# Shear Modulus (GPa) = 27.21876 46.22393 36.72134
#
# Velocity S-wave (km/s) = 3.75951 4.89926 4.36673
# Velocity P-wave (km/s) = 6.37084 7.80972 7.12669
#
# Compressibility (1/GPa) = 0.02388297
#
# Stress axis : x y z
#
# Youngs Moduli (GPa) = 43.10767 68.05068 66.58928
#
# Poissons Ratio (x) = 0.51704 0.25230
# Poissons Ratio (y) = 0.32753 0.20821
# Poissons Ratio (z) = 0.16333 0.21278
#
# Static dielectric constant tensor:
#      x y z
#    x 1.783130 0.000000 0.037760 
#    y 0.000000 1.667940 0.000000 
#    z 0.037760 0.000000 1.696140 
# 
# From -- ./inp_files/227486.got.cif
#   From: 2010.05.17/outbox.cif.g08.bks.cpg/sg15_114_cif.got.tgz:227486.got - 2010.06.03 18:47:42.
