data_PCOD9287408
_publ_section_title
;
Structure prediction by ZEFSAII (Michael W. Deem and Ramdas Pophale) SiO2 
 PCOD9287408
Probable space group: C 2/C
;
_chemical_formula_sum "Si O2"
_cell_formula_units_Z 60
_cell_length_a 24.209493
_cell_length_b 7.987285
_cell_length_c 21.500920
_cell_angle_alpha 90.000000
_cell_angle_beta 33.333145
_cell_angle_gamma 90.000000
_cell_volume 2284.622980
_symmetry_space_group_name_H-M "C 2/C"
_symmetry_group_IT_number 15
_symmetry_cell_setting 'monoclinic'
loop_
_space_group_symop_operation_xyz
x,y,z
-x,y,1/2-z
-x,-y,-z
x,-y,1/2+z
1/2+x,1/2+y,z
1/2-x,1/2+y,1/2-z
1/2-x,1/2-y,-z
1/2+x,1/2-y,1/2+z
loop_
_atom_site_type_symbol
_atom_site_label
_atom_site_fract_x
_atom_site_fract_y
_atom_site_fract_z
Si Si1 0.411932 0.909741 0.166188
Si Si2 0.000000 0.390203 0.750000
Si Si3 0.798706 0.431614 0.470832
Si Si4 0.092912 0.063135 0.623467
Si Si5 0.939386 0.705968 0.498807
Si Si6 0.910919 0.765084 0.964321
Si Si7 0.259785 0.371999 0.669931
Si Si8 0.620107 0.380687 0.369030
O O1 0.306705 0.974223 0.291117
O O2 0.404810 0.865766 0.099440
O O3 0.469135 0.767554 0.149581
O O4 0.490662 0.062980 0.094096
O O5 0.101614 0.502688 0.661434
O O6 0.044157 0.248501 0.660478
O O7 0.750000 0.250000 0.500000
O O8 0.701921 0.555833 0.555967
O O9 0.848580 0.382820 0.490296
O O10 0.108458 0.938712 0.551562
O O11 0.000000 0.980837 0.750000
O O12 0.841422 0.768634 0.555689
O O13 0.009147 0.869993 0.445065
O O14 0.885931 0.780764 0.060203
O O15 0.320926 0.451561 0.670644
O O16 0.183968 0.232577 0.763524
#
# Coordination Sequence:
#
# PCOD9287408 Si02
#       8
#     8   4   8   8   8   8   8   8
#     4   9  19  36  59  88 123 166 218 280 320 390
#     4  10  22  44  72 104 134 178 222 270 358 424
#     4  10  22  42  73 102 137 185 225 278 352 428
#     4   9  22  43  72  95 139 180 222 278 357 405
#     4   9  18  36  58  81 126 167 221 268 337 384
#     4  10  22  41  62  96 135 169 236 283 327 405
#     4  11  19  37  60  85 120 177 221 262 345 393
#     4  10  22  36  60  90 125 178 222 278 322 404
#
# _framework density 26.262540000000001
#
# number of rings (size 3 to 8) (size 9 to 14) (size 15 to 20)
#    0.400    1.867    1.333    1.600    3.733    1.067 
#    4.800    1.333    0.000    0.000    0.000    0.000 
#    0.000    0.000    0.000    0.000    0.000    0.000 
#
# Total GULP energy -167383.547459 kJ/mol
# GULP energy per Si atom -5579.451582 kJ/mol
# Density = 2.620277 g / cm^3
# Si number density = 26.262540 Si / 1000 Ang^3
#
#
#
# Elastic Constant Matrix: (Units=GPa)
#
#
# Indices 1 2 3 4 5 6 
#
# 1 74.8418 17.2422 47.3377 -0.0015 -25.4395 -0.0001
# 2 17.2422 109.0256 40.6701 -0.0047 -15.1112 0.0007
# 3 47.3377 40.6701 166.1127 -0.0060 -42.1841 0.0025
# 4 -0.0015 -0.0047 -0.0060 54.1950 0.0019 -16.3910
# 5 -25.4395 -15.1112 -42.1841 0.0019 45.3456 -0.0002
# 6 -0.0001 0.0007 0.0025 -16.3910 -0.0002 39.1792
#
#
#
# Elastic Compliance Matrix: (Units=1/GPa)
#
#
# Indices 1 2 3 4 5 6 
#
# 1 0.017855 -0.000689 -0.003187 0.000000 0.006823 0.000000
# 2 -0.000689 0.010188 -0.002009 0.000001 0.001140 0.000000
# 3 -0.003187 -0.002009 0.008898 0.000000 0.005820 0.000000
# 4 0.000000 0.000001 0.000000 0.021125 0.000000 0.008838
# 5 0.006823 0.001140 0.005820 0.000000 0.031675 0.000000
# 6 0.000000 0.000000 0.000000 0.008838 0.000000 0.029221
#
#
# Mechanical properties :
#
#
# Convention : Reuss Voigt Hill
#
# Bulk Modulus (GPa) = 39.72650 62.27556 51.00103
# Shear Modulus (GPa) = 35.93952 44.05930 39.99941
#
# Velocity S-wave (km/s) = 3.70330 4.10035 3.90687
# Velocity P-wave (km/s) = 5.78320 6.79569 6.30979
#
# Compressibility (1/GPa) = 0.02517212
#
# Stress axis : x y z
#
# Youngs Moduli (GPa) = 56.00636 98.15055 112.38446
#
# Poissons Ratio (x) = 0.06766 0.35815
# Poissons Ratio (y) = 0.03861 0.22573
# Poissons Ratio (z) = 0.17848 0.19714
#
# Static dielectric constant tensor:
#      x y z
#    x 2.128590 0.000000 0.046490 
#    y 0.000000 2.094840 0.000000 
#    z 0.046490 0.000000 2.167450 
# 
# From -- ./inp_files/283380.got.cif
#   From: 2010.05.17/outbox.cif.g08.bks.cpg/sg15_142_cif.got.tgz:283380.got - 2010.06.03 18:47:42.
