data_PCOD9287814
_publ_section_title
;
Structure prediction by ZEFSAII (Michael W. Deem and Ramdas Pophale) SiO2 
 PCOD9287814
Probable space group: C 2/C
;
_chemical_formula_sum "Si O2"
_cell_formula_units_Z 48
_cell_length_a 11.980299
_cell_length_b 29.561733
_cell_length_c 5.611442
_cell_angle_alpha 90.000000
_cell_angle_beta 103.828886
_cell_angle_gamma 90.000000
_cell_volume 1929.734103
_symmetry_space_group_name_H-M "C 2/C"
_symmetry_group_IT_number 15
_symmetry_cell_setting 'monoclinic'
loop_
_space_group_symop_operation_xyz
x,y,z
-x,y,1/2-z
-x,-y,-z
x,-y,1/2+z
1/2+x,1/2+y,z
1/2-x,1/2+y,1/2-z
1/2-x,1/2-y,-z
1/2+x,1/2-y,1/2+z
loop_
_atom_site_type_symbol
_atom_site_label
_atom_site_fract_x
_atom_site_fract_y
_atom_site_fract_z
Si Si1 0.627175 0.452087 0.373351
Si Si2 0.649458 0.014897 0.963675
Si Si3 0.277350 0.105458 0.629822
Si Si4 0.123356 0.137655 0.187343
Si Si5 0.429529 0.267433 0.968240
Si Si6 0.571280 0.168118 0.533811
O O1 0.500000 0.470198 0.250000
O O2 0.724333 0.489031 0.483098
O O3 0.671320 0.424424 0.167151
O O4 0.626656 0.411488 0.565542
O O5 0.600751 0.004897 0.679541
O O6 0.649779 0.069010 0.978704
O O7 0.225843 0.142003 0.428763
O O8 0.340679 0.127106 0.885751
O O9 0.130136 0.183735 0.041388
O O10 0.000000 0.138579 0.250000
O O11 0.500000 0.268334 0.750000
O O12 0.370763 0.217989 0.931663
O O13 0.500000 0.264729 0.250000
O O14 0.500000 0.165371 0.750000
O O15 0.500000 0.163612 0.250000
#
# Coordination Sequence:
#
# PCOD9287814 Si02
#       6
#     8   8   8   8   8   8
#     4  11  22  37  60  91 136 173 203 244 312 386
#     4  10  22  38  57  86 126 165 205 249 299 366
#     4  11  24  39  64  94 125 168 215 263 307 377
#     4  11  21  36  61  95 133 168 205 250 311 381
#     4   9  20  39  62  89 128 165 206 261 311 371
#     4  10  24  46  69  91 120 166 217 271 325 364
#
# _framework density 24.873892000000001
#
# number of rings (size 3 to 8) (size 9 to 14) (size 15 to 20)
#    0.000    1.667    3.333    0.500    4.667    4.000 
#    0.000    0.833    0.000   12.000    0.000    0.000 
#    0.000    0.000    0.000    0.000    0.000    0.000 
#
# Total GULP energy -133962.998482 kJ/mol
# GULP energy per Si atom -5581.791603 kJ/mol
# Density = 2.481728 g / cm^3
# Si number density = 24.873892 Si / 1000 Ang^3
#
#
#
# Elastic Constant Matrix: (Units=GPa)
#
#
# Indices 1 2 3 4 5 6 
#
# 1 66.4561 35.6126 36.1353 0.0000 -4.7789 0.0000
# 2 35.6126 136.2730 37.9451 0.0000 12.7036 0.0000
# 3 36.1353 37.9451 128.6348 0.0000 -2.4431 0.0000
# 4 0.0000 0.0000 0.0000 65.9220 0.0000 2.0619
# 5 -4.7789 12.7036 -2.4431 0.0000 34.1855 0.0000
# 6 0.0000 0.0000 0.0000 2.0619 0.0000 13.3245
#
#
#
# Elastic Compliance Matrix: (Units=1/GPa)
#
#
# Indices 1 2 3 4 5 6 
#
# 1 0.020030 -0.004441 -0.004238 0.000000 0.004148 0.000000
# 2 -0.004441 0.009332 -0.001585 0.000000 -0.004202 0.000000
# 3 -0.004238 -0.001585 0.009445 0.000000 0.000672 0.000000
# 4 0.000000 0.000000 0.000000 0.015243 0.000000 -0.002359
# 5 0.004148 -0.004202 0.000672 0.000000 0.031441 0.000000
# 6 0.000000 0.000000 0.000000 -0.002359 0.000000 0.075415
#
#
# Mechanical properties :
#
#
# Convention : Reuss Voigt Hill
#
# Bulk Modulus (GPa) = 54.70862 61.19446 57.95154
# Shear Modulus (GPa) = 26.66288 37.46446 32.06367
#
# Velocity S-wave (km/s) = 3.27757 3.88516 3.59423
# Velocity P-wave (km/s) = 6.03038 6.69188 6.36972
#
# Compressibility (1/GPa) = 0.01827865
#
# Stress axis : x y z
#
# Youngs Moduli (GPa) = 49.92504 107.15980 105.87923
#
# Poissons Ratio (x) = 0.47591 0.44871
# Poissons Ratio (y) = 0.22172 0.16782
# Poissons Ratio (z) = 0.21158 0.16985
#
# Static dielectric constant tensor:
#      x y z
#    x 2.093250 0.000000 -0.037360 
#    y 0.000000 1.938800 0.000000 
#    z -0.037360 0.000000 1.961560 
# 
# From -- ./inp_files/8642.got.cif
#   From: 2010.05.17/outbox.cif.g08.bks.cpg/sg15_5_cif.got.tgz:8642.got - 2010.06.03 18:47:42.
