data_PCOD9287311
_publ_section_title
;
Structure prediction by ZEFSAII (Michael W. Deem and Ramdas Pophale) SiO2 
 PCOD9287311
Probable space group: C 2/C
;
_chemical_formula_sum "Si O2"
_cell_formula_units_Z 40
_cell_length_a 19.664646
_cell_length_b 5.212192
_cell_length_c 19.569473
_cell_angle_alpha 90.000000
_cell_angle_beta 130.855982
_cell_angle_gamma 90.000000
_cell_volume 1517.092538
_symmetry_space_group_name_H-M "C 2/C"
_symmetry_group_IT_number 15
_symmetry_cell_setting 'monoclinic'
loop_
_space_group_symop_operation_xyz
x,y,z
-x,y,1/2-z
-x,-y,-z
x,-y,1/2+z
1/2+x,1/2+y,z
1/2-x,1/2+y,1/2-z
1/2-x,1/2-y,-z
1/2+x,1/2-y,1/2+z
loop_
_atom_site_type_symbol
_atom_site_label
_atom_site_fract_x
_atom_site_fract_y
_atom_site_fract_z
Si Si1 0.462638 0.085382 0.861741
Si Si2 0.724689 0.648386 0.273900
Si Si3 0.400973 0.278005 0.433261
Si Si4 0.192310 0.926297 0.532504
Si Si5 0.860912 0.431967 0.087361
O O1 0.434724 0.823075 0.882490
O O2 0.377360 0.257744 0.784567
O O3 0.531768 0.047044 0.845292
O O4 0.522256 0.216653 0.960980
O O5 0.732696 0.373053 0.244884
O O6 0.804297 0.636634 0.382226
O O7 0.366233 0.554639 0.436692
O O8 0.171841 0.658453 0.484322
O O9 0.161729 0.149007 0.457686
O O10 0.298673 0.990858 0.611235
#
# Coordination Sequence:
#
# PCOD9287311 Si02
#       5
#     8   8   8   8   8
#     4   9  19  35  56  80 108 143 186 227 277 335
#     4  10  22  36  51  78 111 138 175 229 276 321
#     4   9  19  34  56  80 106 143 182 222 274 332
#     4   9  18  32  51  76 105 137 175 218 268 320
#     4   9  18  32  51  76 105 137 174 220 267 319
#
# _framework density 26.366220999999999
#
# number of rings (size 3 to 8) (size 9 to 14) (size 15 to 20)
#    0.000    2.800    0.000    0.000    0.000   16.000 
#    0.000    1.000    0.000    0.000    0.000   33.600 
#    0.000    0.000    0.000    0.000    0.000    0.000 
#
# Total GULP energy -111449.639860 kJ/mol
# GULP energy per Si atom -5572.481993 kJ/mol
# Density = 2.630621 g / cm^3
# Si number density = 26.366221 Si / 1000 Ang^3
#
#
#
# Elastic Constant Matrix: (Units=GPa)
#
#
# Indices 1 2 3 4 5 6 
#
# 1 157.4034 30.3719 47.9887 0.0002 53.4881 -0.0003
# 2 30.3719 141.4301 36.5013 0.0008 1.4841 -0.0010
# 3 47.9887 36.5013 143.6056 -0.0001 39.4216 0.0001
# 4 0.0002 0.0008 -0.0001 36.1901 -0.0001 10.5334
# 5 53.4881 1.4841 39.4216 -0.0001 58.8385 0.0001
# 6 -0.0003 -0.0010 0.0001 10.5334 0.0001 43.8234
#
#
#
# Elastic Compliance Matrix: (Units=1/GPa)
#
#
# Indices 1 2 3 4 5 6 
#
# 1 0.009746 -0.001891 -0.000438 0.000000 -0.008519 0.000000
# 2 -0.001891 0.008022 -0.002234 0.000000 0.003013 0.000000
# 3 -0.000438 -0.002234 0.009255 0.000000 -0.005747 0.000000
# 4 0.000000 0.000000 0.000000 0.029710 0.000000 -0.007141
# 5 -0.008519 0.003013 -0.005747 0.000000 0.028514 0.000000
# 6 0.000000 0.000000 0.000000 -0.007141 0.000000 0.024535
#
#
# Mechanical properties :
#
#
# Convention : Reuss Voigt Hill
#
# Bulk Modulus (GPa) = 55.87310 74.68478 65.27894
# Shear Modulus (GPa) = 40.04020 49.60888 44.82454
#
# Velocity S-wave (km/s) = 3.90117 4.34237 4.12767
# Velocity P-wave (km/s) = 6.44433 7.31635 6.89414
#
# Compressibility (1/GPa) = 0.01789770
#
# Stress axis : x y z
#
# Youngs Moduli (GPa) = 102.60353 124.66229 108.04657
#
# Poissons Ratio (x) = 0.23569 0.04730
# Poissons Ratio (y) = 0.19398 0.24141
# Poissons Ratio (z) = 0.04492 0.27854
#
# Static dielectric constant tensor:
#      x y z
#    x 2.186610 0.000000 0.006460 
#    y 0.000000 2.096220 0.000000 
#    z 0.006460 0.000000 2.260320 
# 
# From -- ./inp_files/301638.got.cif
#   From: 2010.05.17/outbox.cif.g08.bks.cpg/sg15_151_cif.got.tgz:301638.got - 2010.06.03 18:47:42.
