data_PCOD9287684
_publ_section_title
;
Structure prediction by ZEFSAII (Michael W. Deem and Ramdas Pophale) SiO2 
 PCOD9287684
Probable space group: C 2/C
;
_chemical_formula_sum "Si O2"
_cell_formula_units_Z 48
_cell_length_a 32.248404
_cell_length_b 11.484256
_cell_length_c 9.944494
_cell_angle_alpha 90.000000
_cell_angle_beta 29.900329
_cell_angle_gamma 90.000000
_cell_volume 1835.915122
_symmetry_space_group_name_H-M "C 2/C"
_symmetry_group_IT_number 15
_symmetry_cell_setting 'monoclinic'
loop_
_space_group_symop_operation_xyz
x,y,z
-x,y,1/2-z
-x,-y,-z
x,-y,1/2+z
1/2+x,1/2+y,z
1/2-x,1/2+y,1/2-z
1/2-x,1/2-y,-z
1/2+x,1/2-y,1/2+z
loop_
_atom_site_type_symbol
_atom_site_label
_atom_site_fract_x
_atom_site_fract_y
_atom_site_fract_z
Si Si1 0.952449 0.283675 0.697919
Si Si2 0.850328 0.258608 0.718015
Si Si3 0.126962 0.190387 0.124270
Si Si4 0.228734 0.401525 0.920161
Si Si5 0.634763 0.009896 0.940516
Si Si6 0.409212 0.572377 0.012474
O O1 0.892009 0.246033 0.745061
O O2 0.929935 0.196054 0.880855
O O3 0.046306 0.268747 0.385230
O O4 0.937790 0.413364 0.792453
O O5 0.876528 0.171329 0.525286
O O6 0.881498 0.384450 0.578578
O O7 0.750000 0.250000 0.000000
O O8 0.114379 0.085443 0.263265
O O9 0.208117 0.268735 0.932000
O O10 0.194392 0.482503 0.898269
O O11 0.320844 0.444722 0.690311
O O12 0.178822 0.418909 0.198514
O O13 0.500000 0.511521 0.750000
#
# Coordination Sequence:
#
# PCOD9287684 Si02
#       6
#     8   8   8   8   8   8
#     4  11  21  40  57  95 129 156 207 253 316 374
#     4  11  24  40  59  89 127 168 209 254 306 371
#     4  10  22  37  63  90 122 168 196 252 311 374
#     4  11  22  39  58  91 121 161 208 246 312 373
#     4  11  23  37  61  91 124 167 199 256 311 371
#     4  10  22  40  66  88 120 160 210 255 307 371
#
# _framework density 26.145001000000001
#
# number of rings (size 3 to 8) (size 9 to 14) (size 15 to 20)
#    0.000    1.333    3.333    3.000    2.333    2.667 
#    6.000    0.833    0.000    2.000    0.000    0.000 
#    0.000    0.000    0.000    0.000    0.000    0.000 
#
# Total GULP energy -134329.499307 kJ/mol
# GULP energy per Si atom -5597.062471 kJ/mol
# Density = 2.608549 g / cm^3
# Si number density = 26.145001 Si / 1000 Ang^3
#
#
#
# Elastic Constant Matrix: (Units=GPa)
#
#
# Indices 1 2 3 4 5 6 
#
# 1 157.0515 -5.8755 32.5688 0.0000 5.7281 0.0000
# 2 -5.8755 33.8964 10.2552 0.0000 -8.5570 0.0000
# 3 32.5688 10.2552 93.0180 0.0000 8.6914 0.0000
# 4 0.0000 0.0000 0.0000 18.3347 0.0000 -8.0575
# 5 5.7281 -8.5570 8.6914 0.0000 50.8410 0.0000
# 6 0.0000 0.0000 0.0000 -8.0575 0.0000 9.2399
#
#
#
# Elastic Compliance Matrix: (Units=1/GPa)
#
#
# Indices 1 2 3 4 5 6 
#
# 1 0.006997 0.002024 -0.002674 0.000000 0.000009 0.000000
# 2 0.002024 0.032890 -0.004909 0.000000 0.006147 0.000000
# 3 -0.002674 -0.004909 0.012476 0.000000 -0.002658 0.000000
# 4 0.000000 0.000000 0.000000 0.088431 0.000000 0.077115
# 5 0.000009 0.006147 -0.002658 0.000000 0.021157 0.000000
# 6 0.000000 0.000000 0.000000 0.077115 0.000000 0.175473
#
#
# Mechanical properties :
#
#
# Convention : Reuss Voigt Hill
#
# Bulk Modulus (GPa) = 24.24510 39.76252 32.00381
# Shear Modulus (GPa) = 13.80108 32.15096 22.97602
#
# Velocity S-wave (km/s) = 2.30003 3.51054 2.96766
# Velocity P-wave (km/s) = 4.04314 5.62790 4.90001
#
# Compressibility (1/GPa) = 0.04124545
#
# Stress axis : x y z
#
# Youngs Moduli (GPa) = 142.91309 30.40481 80.15096
#
# Poissons Ratio (x) = -0.06155 0.21433
# Poissons Ratio (y) = -0.28930 0.39347
# Poissons Ratio (z) = 0.38216 0.14926
#
# Static dielectric constant tensor:
#      x y z
#    x 2.041000 0.000000 -0.011320 
#    y 0.000000 2.175650 0.000000 
#    z -0.011320 0.000000 2.042060 
# 
# From -- ./inp_files/70553.got.cif
#   From: 2010.05.17/outbox.cif.g08.bks.cpg/sg15_36_cif.got.tgz:70553.got - 2010.06.03 18:47:42.
