data_PCOD9287229
_publ_section_title
;
Structure prediction by ZEFSAII (Michael W. Deem and Ramdas Pophale) SiO2 
 PCOD9287229
Probable space group: C 2/C
;
_chemical_formula_sum "Si O2"
_cell_formula_units_Z 48
_cell_length_a 21.449640
_cell_length_b 9.863429
_cell_length_c 9.251183
_cell_angle_alpha 90.000000
_cell_angle_beta 109.218313
_cell_angle_gamma 90.000000
_cell_volume 1848.170145
_symmetry_space_group_name_H-M "C 2/C"
_symmetry_group_IT_number 15
_symmetry_cell_setting 'monoclinic'
loop_
_space_group_symop_operation_xyz
x,y,z
-x,y,1/2-z
-x,-y,-z
x,-y,1/2+z
1/2+x,1/2+y,z
1/2-x,1/2+y,1/2-z
1/2-x,1/2-y,-z
1/2+x,1/2-y,1/2+z
loop_
_atom_site_type_symbol
_atom_site_label
_atom_site_fract_x
_atom_site_fract_y
_atom_site_fract_z
Si Si1 0.231747 0.556767 0.963830
Si Si2 0.371507 0.550699 0.511368
Si Si3 0.817330 0.280242 0.681175
Si Si4 0.000000 0.550495 0.750000
Si Si5 0.944684 0.319633 0.920032
Si Si6 0.000000 0.088054 0.750000
Si Si7 0.196036 0.800572 0.755082
O O1 0.189837 0.424655 0.901763
O O2 0.192369 0.682940 0.868080
O O3 0.306429 0.542701 0.953256
O O4 0.254934 0.585529 0.143419
O O5 0.350654 0.666996 0.608787
O O6 0.440702 0.503661 0.629291
O O7 0.369317 0.630470 0.356744
O O8 0.866908 0.294095 0.852612
O O9 0.743089 0.241035 0.666488
O O10 0.041825 0.446180 0.680003
O O11 0.966535 0.641445 0.598447
O O12 0.978193 0.190175 0.864760
#
# Coordination Sequence:
#
# PCOD9287229 Si02
#       7
#     8   8   8   4   8   4   8
#     4  10  22  37  59  90 119 152 200 250 310 352
#     4  10  22  39  65  84 121 160 203 242 303 364
#     4  10  22  34  61  85 118 158 193 248 305 367
#     4   9  18  32  52  83 116 164 193 256 289 360
#     4   9  19  34  55  83 120 153 207 240 306 354
#     4   9  20  42  58  87 114 172 199 242 295 368
#     4  10  22  37  58  90 118 153 196 258 296 359
#
# _framework density 25.971634999999999
#
# number of rings (size 3 to 8) (size 9 to 14) (size 15 to 20)
#    0.000    2.333    0.000    2.000   11.667    4.000 
#    3.000    0.833    0.000    0.000    0.000    0.000 
#    0.000    0.000    0.000    0.000    0.000    0.000 
#
# Total GULP energy -134007.338683 kJ/mol
# GULP energy per Si atom -5583.639112 kJ/mol
# Density = 2.591252 g / cm^3
# Si number density = 25.971635 Si / 1000 Ang^3
#
#
#
# Elastic Constant Matrix: (Units=GPa)
#
#
# Indices 1 2 3 4 5 6 
#
# 1 66.2840 6.1443 43.9367 0.0000 21.0296 0.0000
# 2 6.1443 68.6678 22.6849 0.0000 -7.4217 0.0000
# 3 43.9367 22.6849 175.9351 0.0000 15.4596 0.0000
# 4 0.0000 0.0000 0.0000 35.1104 0.0000 -8.6601
# 5 21.0296 -7.4217 15.4596 0.0000 39.0815 0.0000
# 6 0.0000 0.0000 0.0000 -8.6601 0.0000 13.4671
#
#
#
# Elastic Compliance Matrix: (Units=1/GPa)
#
#
# Indices 1 2 3 4 5 6 
#
# 1 0.021214 -0.001594 -0.004209 0.000000 -0.010053 0.000000
# 2 -0.001594 0.015894 -0.002064 0.000000 0.004693 0.000000
# 3 -0.004209 -0.002064 0.007083 0.000000 -0.000929 0.000000
# 4 0.000000 0.000000 0.000000 0.033851 0.000000 0.021768
# 5 -0.010053 0.004693 -0.000929 0.000000 0.032255 0.000000
# 6 0.000000 0.000000 0.000000 0.021768 0.000000 0.088253
#
#
# Mechanical properties :
#
#
# Convention : Reuss Voigt Hill
#
# Bulk Modulus (GPa) = 35.14032 50.71318 42.92675
# Shear Modulus (GPa) = 22.34446 33.40654 27.87550
#
# Velocity S-wave (km/s) = 2.93634 3.59035 3.27969
# Velocity P-wave (km/s) = 5.00557 6.06269 5.55932
#
# Compressibility (1/GPa) = 0.02845734
#
# Stress axis : x y z
#
# Youngs Moduli (GPa) = 47.13959 62.91516 141.18931
#
# Poissons Ratio (x) = 0.10030 0.59424
# Poissons Ratio (y) = 0.07515 0.29136
# Poissons Ratio (z) = 0.19840 0.12983
#
# Static dielectric constant tensor:
#      x y z
#    x 2.098700 0.000000 -0.072730 
#    y 0.000000 2.076150 0.000000 
#    z -0.072730 0.000000 2.143550 
# 
# From -- ./inp_files/60912.got.cif
#   From: 2010.05.17/outbox.cif.g08.bks.cpg/sg15_31_cif.got.tgz:60912.got - 2010.06.03 18:47:42.
