data_PCOD9287120
_publ_section_title
;
Structure prediction by ZEFSAII (Michael W. Deem and Ramdas Pophale) SiO2 
 PCOD9287120
Probable space group: C 2/C
;
_chemical_formula_sum "Si O2"
_cell_formula_units_Z 36
_cell_length_a 16.810695
_cell_length_b 14.225682
_cell_length_c 7.555838
_cell_angle_alpha 90.000000
_cell_angle_beta 126.131978
_cell_angle_gamma 90.000000
_cell_volume 1459.386987
_symmetry_space_group_name_H-M "C 2/C"
_symmetry_group_IT_number 15
_symmetry_cell_setting 'monoclinic'
loop_
_space_group_symop_operation_xyz
x,y,z
-x,y,1/2-z
-x,-y,-z
x,-y,1/2+z
1/2+x,1/2+y,z
1/2-x,1/2+y,1/2-z
1/2-x,1/2-y,-z
1/2+x,1/2-y,1/2+z
loop_
_atom_site_type_symbol
_atom_site_label
_atom_site_fract_x
_atom_site_fract_y
_atom_site_fract_z
Si Si1 0.500000 0.900906 0.250000
Si Si2 0.305460 0.310164 0.725817
Si Si3 0.020989 0.754578 0.071417
Si Si4 0.728517 0.650363 0.843630
Si Si5 0.207659 0.526904 0.910286
O O1 0.535491 0.834178 0.459435
O O2 0.407475 0.960567 0.195726
O O3 0.250000 0.250000 0.500000
O O4 0.280369 0.250043 0.869105
O O5 0.269507 0.413714 0.635555
O O6 0.422620 0.303338 0.867693
O O7 0.000000 0.728204 0.250000
O O8 0.113161 0.825215 0.183381
O O9 0.767751 0.584152 0.734412
O O10 0.760259 0.580892 0.041598
#
# Coordination Sequence:
#
# PCOD9287120 Si02
#       5
#     4   8   8   8   8
#     4  12  22  54  76 108 154 202 252 314 390 444
#     4  10  21  47  73 104 149 207 237 308 385 437
#     4  12  26  45  80 113 145 206 259 308 378 460
#     4  11  25  47  70 113 150 192 257 308 382 446
#     4  11  25  45  79 105 154 203 243 323 379 449
#
# _framework density 24.667891000000001
#
# number of rings (size 3 to 8) (size 9 to 14) (size 15 to 20)
#    0.000    0.889    6.667    1.333    3.111    4.444 
#    2.000    0.000    0.000    0.000    0.000    0.000 
#    0.000    0.000    0.000    0.000    0.000    0.000 
#
# Total GULP energy -100734.678267 kJ/mol
# GULP energy per Si atom -5596.371015 kJ/mol
# Density = 2.461175 g / cm^3
# Si number density = 24.667891 Si / 1000 Ang^3
#
#
#
# Elastic Constant Matrix: (Units=GPa)
#
#
# Indices 1 2 3 4 5 6 
#
# 1 119.6398 28.8366 41.6455 0.0000 32.6484 0.0000
# 2 28.8366 186.2332 19.8500 0.0000 20.5371 0.0000
# 3 41.6455 19.8500 105.4943 0.0000 26.0153 0.0000
# 4 0.0000 0.0000 0.0000 39.2051 0.0000 -10.4225
# 5 32.6484 20.5371 26.0153 0.0000 70.8527 0.0000
# 6 0.0000 0.0000 0.0000 -10.4225 0.0000 2.6804
#
#
#
# Elastic Compliance Matrix: (Units=1/GPa)
#
#
# Indices 1 2 3 4 5 6 
#
# 1 0.010630 -0.000926 -0.003167 0.000000 -0.003467 0.000000
# 2 -0.000926 0.005677 -0.000442 0.000000 -0.001056 0.000000
# 3 -0.003167 -0.000442 0.011459 0.000000 -0.002620 0.000000
# 4 0.000000 0.000000 0.000000 -0.755929 0.000000 -2.939426
# 5 -0.003467 -0.001056 -0.002620 0.000000 0.016979 0.000000
# 6 0.000000 0.000000 0.000000 -2.939426 0.000000-11.056852
#
#
# Mechanical properties :
#
#
# Convention : Reuss Voigt Hill
#
# Bulk Modulus (GPa) = 53.49062 65.78130 59.63596
# Shear Modulus (GPa) = -0.42543 43.94997 21.76227
#
# Velocity S-wave (km/s) = -0.41574 4.22556 2.97342
# Velocity P-wave (km/s) = 4.63691 7.10857 6.00136
#
# Compressibility (1/GPa) = 0.01869487
#
# Stress axis : x y z
#
# Youngs Moduli (GPa) = 94.07148 176.16133 87.26973
#
# Poissons Ratio (x) = 0.16314 0.27640
# Poissons Ratio (y) = 0.08712 0.03858
# Poissons Ratio (z) = 0.29795 0.07787
#
# Static dielectric constant tensor:
#      x y z
#    x 2.097310 0.000000 -0.181000 
#    y 0.000000 1.927500 0.000000 
#    z -0.181000 0.000000 2.045020 
# 
# From -- ./inp_files/47312.got.cif
#   From: 2010.05.17/outbox.cif.g08.bks.cpg/sg15_24_cif.got.tgz:47312.got - 2010.06.03 18:47:42.
