data_PCOD9287732
_publ_section_title
;
Structure prediction by ZEFSAII (Michael W. Deem and Ramdas Pophale) SiO2 
 PCOD9287732
Probable space group: C 2/C
;
_chemical_formula_sum "Si O2"
_cell_formula_units_Z 48
_cell_length_a 5.416497
_cell_length_b 23.300699
_cell_length_c 18.537010
_cell_angle_alpha 90.000000
_cell_angle_beta 102.856426
_cell_angle_gamma 90.000000
_cell_volume 2280.871851
_symmetry_space_group_name_H-M "C 2/C"
_symmetry_group_IT_number 15
_symmetry_cell_setting 'monoclinic'
loop_
_space_group_symop_operation_xyz
x,y,z
-x,y,1/2-z
-x,-y,-z
x,-y,1/2+z
1/2+x,1/2+y,z
1/2-x,1/2+y,1/2-z
1/2-x,1/2-y,-z
1/2+x,1/2-y,1/2+z
loop_
_atom_site_type_symbol
_atom_site_label
_atom_site_fract_x
_atom_site_fract_y
_atom_site_fract_z
Si Si1 0.320933 0.962036 0.084454
Si Si2 0.594379 0.276226 0.556547
Si Si3 0.436032 0.647686 0.161784
Si Si4 0.219863 0.672277 0.917749
Si Si5 0.791110 0.754636 0.297714
Si Si6 0.824775 0.023138 0.093201
O O1 0.346630 0.893755 0.092326
O O2 0.588081 0.992613 0.116288
O O3 0.247693 0.973754 0.996123
O O4 0.087768 0.988056 0.114824
O O5 0.750000 0.250000 0.500000
O O6 0.648735 0.321456 0.624996
O O7 0.381665 0.312880 0.499297
O O8 0.506494 0.217892 0.589954
O O9 0.500000 0.638124 0.250000
O O10 0.221975 0.697289 0.153498
O O11 0.359510 0.587507 0.123540
O O12 0.358790 0.692909 0.854382
O O13 0.500000 0.761505 0.250000
O O14 0.000000 0.749819 0.250000
#
# Coordination Sequence:
#
# PCOD9287732 Si02
#       6
#     8   8   8   8   8   8
#     4  10  22  39  64  88 123 165 216 269 319 374
#     4  10  22  37  66 100 133 168 223 270 332 398
#     4  10  22  42  64  98 136 173 219 277 336 389
#     4  10  22  39  62  96 128 171 216 277 319 400
#     4  10  24  41  63  94 130 171 210 264 338 392
#     4  10  22  40  60  91 122 168 216 264 318 387
#
# _framework density 21.044582999999999
#
# number of rings (size 3 to 8) (size 9 to 14) (size 15 to 20)
#    0.000    2.000    1.667    0.000    9.333    4.000 
#    0.000    2.500    0.000    0.000    0.000    0.000 
#    0.000    0.000    0.000    0.000    0.000    0.000 
#
# Total GULP energy -133734.002778 kJ/mol
# GULP energy per Si atom -5572.250116 kJ/mol
# Density = 2.099668 g / cm^3
# Si number density = 21.044583 Si / 1000 Ang^3
#
#
#
# Elastic Constant Matrix: (Units=GPa)
#
#
# Indices 1 2 3 4 5 6 
#
# 1 125.3188 75.7815 46.4764 0.0000 -19.6367 0.0000
# 2 75.7815 178.3365 23.5078 0.0000 -15.2145 0.0000
# 3 46.4764 23.5078 77.2133 0.0000 -15.6983 0.0000
# 4 0.0000 0.0000 0.0000 31.4915 0.0000 2.2564
# 5 -19.6367 -15.2145 -15.6983 0.0000 28.9691 0.0000
# 6 0.0000 0.0000 0.0000 2.2564 0.0000 8.5292
#
#
#
# Elastic Compliance Matrix: (Units=1/GPa)
#
#
# Indices 1 2 3 4 5 6 
#
# 1 0.013604 -0.004686 -0.006054 0.000000 0.003479 0.000000
# 2 -0.004686 0.007604 0.000755 0.000000 0.001226 0.000000
# 3 -0.006054 0.000755 0.017545 0.000000 0.005800 0.000000
# 4 0.000000 0.000000 0.000000 0.032368 0.000000 -0.008563
# 5 0.003479 0.001226 0.005800 0.000000 0.040665 0.000000
# 6 0.000000 0.000000 0.000000 -0.008563 0.000000 0.119510
#
#
# Mechanical properties :
#
#
# Convention : Reuss Voigt Hill
#
# Bulk Modulus (GPa) = 53.24392 74.71111 63.97752
# Shear Modulus (GPa) = 19.41548 29.47148 24.44348
#
# Velocity S-wave (km/s) = 3.04071 3.74629 3.41179
# Velocity P-wave (km/s) = 6.13868 7.36827 6.78140
#
# Compressibility (1/GPa) = 0.01878149
#
# Stress axis : x y z
#
# Youngs Moduli (GPa) = 73.50902 131.51576 56.99698
#
# Poissons Ratio (x) = 0.61626 0.34508
# Poissons Ratio (y) = 0.34445 -0.04302
# Poissons Ratio (z) = 0.44505 -0.09927
#
# Static dielectric constant tensor:
#      x y z
#    x 1.861600 0.000000 0.012270 
#    y 0.000000 1.710690 0.000000 
#    z 0.012270 0.000000 1.843540 
# 
# From -- ./inp_files/227345.got.cif
#   From: 2010.05.17/outbox.cif.g08.bks.cpg/sg15_114_cif.got.tgz:227345.got - 2010.06.03 18:47:42.
