data_PCOD9287585
_publ_section_title
;
Structure prediction by ZEFSAII (Michael W. Deem and Ramdas Pophale) SiO2 
 PCOD9287585
Probable space group: C 2/C
;
_chemical_formula_sum "Si O2"
_cell_formula_units_Z 48
_cell_length_a 28.028010
_cell_length_b 9.526176
_cell_length_c 20.351989
_cell_angle_alpha 90.000000
_cell_angle_beta 21.511542
_cell_angle_gamma 90.000000
_cell_volume 1992.577350
_symmetry_space_group_name_H-M "C 2/C"
_symmetry_group_IT_number 15
_symmetry_cell_setting 'monoclinic'
loop_
_space_group_symop_operation_xyz
x,y,z
-x,y,1/2-z
-x,-y,-z
x,-y,1/2+z
1/2+x,1/2+y,z
1/2-x,1/2+y,1/2-z
1/2-x,1/2-y,-z
1/2+x,1/2-y,1/2+z
loop_
_atom_site_type_symbol
_atom_site_label
_atom_site_fract_x
_atom_site_fract_y
_atom_site_fract_z
Si Si1 0.377738 0.982163 0.329450
Si Si2 0.227782 0.920977 0.907366
Si Si3 0.315293 0.561195 0.181855
Si Si4 0.500000 0.234265 0.250000
Si Si5 0.572189 0.224054 0.523993
Si Si6 0.500000 0.241981 0.750000
Si Si7 0.082738 0.823868 0.370548
O O1 0.257168 0.987999 0.434546
O O2 0.412781 0.129815 0.317146
O O3 0.380538 0.863444 0.383042
O O4 0.498875 0.923221 0.131553
O O5 0.230531 0.988428 0.831419
O O6 0.345435 0.806447 0.753569
O O7 0.097466 0.832509 0.085005
O O8 0.221930 0.687219 0.322074
O O9 0.314964 0.443341 0.238594
O O10 0.463236 0.612393 0.984769
O O11 0.537494 0.312652 0.633685
O O12 0.523792 0.283414 0.517479
#
# Coordination Sequence:
#
# PCOD9287585 Si02
#       7
#     8   8   8   4   8   4   8
#     4   9  19  34  59  84 111 148 190 238 286 341
#     4  11  22  36  59  88 114 152 195 239 293 347
#     4  10  22  38  55  87 119 146 194 243 283 346
#     4  11  20  36  57  90 116 147 190 246 295 342
#     4   9  19  39  62  80 112 153 196 233 289 345
#     4   7  18  38  57  84 106 145 196 234 279 332
#     4  10  22  37  58  82 118 156 186 239 297 333
#
# _framework density 24.089403000000001
#
# number of rings (size 3 to 8) (size 9 to 14) (size 15 to 20)
#    1.000    1.333    0.000    2.500    0.000    6.667 
#    3.000    1.667    0.000    0.000    0.000    0.000 
#    0.000    0.000    0.000    0.000    0.000    0.000 
#
# Total GULP energy -133942.542286 kJ/mol
# GULP energy per Si atom -5580.939262 kJ/mol
# Density = 2.403457 g / cm^3
# Si number density = 24.089403 Si / 1000 Ang^3
#
#
#
# Elastic Constant Matrix: (Units=GPa)
#
#
# Indices 1 2 3 4 5 6 
#
# 1 118.4174 4.3705 1.7840 0.0000 -3.9439 0.0000
# 2 4.3705 50.3374 6.7611 0.0000 2.2464 0.0000
# 3 1.7840 6.7611 25.3781 0.0000 8.3409 0.0001
# 4 0.0000 0.0000 0.0000 20.6714 0.0000 23.1844
# 5 -3.9439 2.2464 8.3409 0.0000 35.9601 0.0000
# 6 0.0000 0.0000 0.0001 23.1844 0.0000 11.7241
#
#
#
# Elastic Compliance Matrix: (Units=1/GPa)
#
#
# Indices 1 2 3 4 5 6 
#
# 1 0.008521 -0.000684 -0.000799 0.000000 0.001163 0.000000
# 2 -0.000684 0.020658 -0.005420 0.000000 -0.000108 0.000000
# 3 -0.000799 -0.005420 0.044190 0.000000 -0.009999 0.000000
# 4 0.000000 0.000000 0.000000 -0.039721 0.000000 0.078548
# 5 0.001163 -0.000108 -0.009999 0.000000 0.030262 0.000000
# 6 0.000000 0.000000 0.000000 0.078548 0.000000 -0.070034
#
#
# Mechanical properties :
#
#
# Convention : Reuss Voigt Hill
#
# Bulk Modulus (GPa) = 16.78887 24.44044 20.61466
# Shear Modulus (GPa) = 181.57330 25.75228 103.66279
#
# Velocity S-wave (km/s) = 8.69128 3.27315 6.56703
# Velocity P-wave (km/s) = 10.37798 4.94494 8.12880
#
# Compressibility (1/GPa) = 0.05956325
#
# Stress axis : x y z
#
# Youngs Moduli (GPa) = 117.36103 48.40694 22.62934
#
# Poissons Ratio (x) = 0.03313 0.01807
# Poissons Ratio (y) = 0.08032 0.12265
# Poissons Ratio (z) = 0.09374 0.26236
#
# Static dielectric constant tensor:
#      x y z
#    x 1.940410 0.000000 -0.038330 
#    y 0.000000 1.981600 0.000000 
#    z -0.038330 0.000000 1.915810 
# 
# From -- ./inp_files/279867.got.cif
#   From: 2010.05.17/outbox.cif.g08.bks.cpg/sg15_140_cif.got.tgz:279867.got - 2010.06.03 18:47:42.
