data_PCOD9287297
_publ_section_title
;
Structure prediction by ZEFSAII (Michael W. Deem and Ramdas Pophale) SiO2 
 PCOD9287297
Probable space group: C 2/C
;
_chemical_formula_sum "Si O2"
_cell_formula_units_Z 44
_cell_length_a 9.927819
_cell_length_b 13.486615
_cell_length_c 24.486853
_cell_angle_alpha 90.000000
_cell_angle_beta 146.435322
_cell_angle_gamma 90.000000
_cell_volume 1812.671317
_symmetry_space_group_name_H-M "C 2/C"
_symmetry_group_IT_number 15
_symmetry_cell_setting 'monoclinic'
loop_
_space_group_symop_operation_xyz
x,y,z
-x,y,1/2-z
-x,-y,-z
x,-y,1/2+z
1/2+x,1/2+y,z
1/2-x,1/2+y,1/2-z
1/2-x,1/2-y,-z
1/2+x,1/2-y,1/2+z
loop_
_atom_site_type_symbol
_atom_site_label
_atom_site_fract_x
_atom_site_fract_y
_atom_site_fract_z
Si Si1 0.034868 0.917583 0.121383
Si Si2 0.118944 0.655223 0.560013
Si Si3 0.683369 0.216736 0.863077
Si Si4 0.500000 0.775489 0.750000
Si Si5 0.733367 0.924297 0.478181
Si Si6 0.637756 0.373695 0.693981
O O1 0.826973 0.868890 0.087075
O O2 0.234791 0.845697 0.162936
O O3 0.135443 0.006742 0.194209
O O4 0.879757 0.973208 0.020937
O O5 0.272081 0.709240 0.658413
O O6 0.924439 0.723937 0.463828
O O7 0.970347 0.570184 0.542798
O O8 0.638054 0.131953 0.893465
O O9 0.477447 0.303323 0.799093
O O10 0.407485 0.841498 0.768843
O O11 0.945794 0.858612 0.578835
#
# Coordination Sequence:
#
# PCOD9287297 Si02
#       6
#     8   8   8   4   8   8
#     4  10  22  35  62  92 114 142 204 254 290 335
#     4  11  20  37  59  87 115 155 186 241 299 350
#     4  11  18  39  62  90 107 153 200 243 294 349
#     4  12  20  40  60  76 118 168 186 216 310 362
#     4   9  18  37  59  82 112 148 193 236 289 339
#     4   9  21  37  60  78 122 152 193 239 288 353
#
# _framework density 24.273565999999999
#
# number of rings (size 3 to 8) (size 9 to 14) (size 15 to 20)
#    1.091    0.727    3.636    2.727    0.000    0.000 
#    3.273    1.818    0.000    0.000    0.000    0.000 
#    0.000    0.000    0.000    0.000    0.000    0.000 
#
# Total GULP energy -122608.155928 kJ/mol
# GULP energy per Si atom -5573.097997 kJ/mol
# Density = 2.421832 g / cm^3
# Si number density = 24.273566 Si / 1000 Ang^3
#
#
#
# Elastic Constant Matrix: (Units=GPa)
#
#
# Indices 1 2 3 4 5 6 
#
# 1 134.0931 54.5799 13.9076 0.0000 25.3360 0.0000
# 2 54.5799 100.4584 19.3004 -0.0001 12.8454 0.0000
# 3 13.9076 19.3004 36.2413 -0.0003 11.4825 0.0000
# 4 0.0000 -0.0001 -0.0003 32.4791 0.0000 13.0013
# 5 25.3360 12.8454 11.4825 0.0000 41.6530 0.0000
# 6 0.0000 0.0000 0.0000 13.0013 0.0000 34.9744
#
#
#
# Elastic Compliance Matrix: (Units=1/GPa)
#
#
# Indices 1 2 3 4 5 6 
#
# 1 0.010417 -0.005088 0.000244 0.000000 -0.004834 0.000000
# 2 -0.005088 0.013723 -0.005473 0.000000 0.000372 0.000000
# 3 0.000244 -0.005473 0.032790 0.000000 -0.007500 0.000000
# 4 0.000000 0.000000 0.000000 0.036172 0.000000 -0.013446
# 5 -0.004834 0.000372 -0.007500 0.000000 0.028901 0.000000
# 6 0.000000 0.000000 0.000000 -0.013446 0.000000 0.033591
#
#
# Mechanical properties :
#
#
# Convention : Reuss Voigt Hill
#
# Bulk Modulus (GPa) = 27.55230 49.59649 38.57439
# Shear Modulus (GPa) = 26.54965 34.02164 30.28564
#
# Velocity S-wave (km/s) = 3.31080 3.74785 3.53608
# Velocity P-wave (km/s) = 5.09810 6.26140 5.70945
#
# Compressibility (1/GPa) = 0.03629461
#
# Stress axis : x y z
#
# Youngs Moduli (GPa) = 96.00040 72.87125 30.49689
#
# Poissons Ratio (x) = 0.37078 -0.00744
# Poissons Ratio (y) = 0.48847 0.16692
# Poissons Ratio (z) = -0.02342 0.39885
#
# Static dielectric constant tensor:
#      x y z
#    x 1.937810 0.000000 -0.057780 
#    y 0.000000 1.991670 0.000000 
#    z -0.057780 0.000000 1.960180 
# 
# From -- ./inp_files/230303.got.cif
#   From: 2010.05.17/outbox.cif.g08.bks.cpg/sg15_116_cif.got.tgz:230303.got - 2010.06.03 18:47:42.
