data_PCOD9287123
_publ_section_title
;
Structure prediction by ZEFSAII (Michael W. Deem and Ramdas Pophale) SiO2 
 PCOD9287123
Probable space group: C 2/C
;
_chemical_formula_sum "Si O2"
_cell_formula_units_Z 40
_cell_length_a 14.671443
_cell_length_b 7.363524
_cell_length_c 15.727959
_cell_angle_alpha 90.000000
_cell_angle_beta 54.891268
_cell_angle_gamma 90.000000
_cell_volume 1390.007571
_symmetry_space_group_name_H-M "C 2/C"
_symmetry_group_IT_number 15
_symmetry_cell_setting 'monoclinic'
loop_
_space_group_symop_operation_xyz
x,y,z
-x,y,1/2-z
-x,-y,-z
x,-y,1/2+z
1/2+x,1/2+y,z
1/2-x,1/2+y,1/2-z
1/2-x,1/2-y,-z
1/2+x,1/2-y,1/2+z
loop_
_atom_site_type_symbol
_atom_site_label
_atom_site_fract_x
_atom_site_fract_y
_atom_site_fract_z
Si Si1 0.883034 0.205232 0.277038
Si Si2 0.221232 0.476510 0.752491
Si Si3 0.651678 0.062365 0.534892
Si Si4 0.633246 0.457267 0.490332
Si Si5 0.011947 0.238989 0.846364
O O1 0.861173 0.348447 0.211164
O O2 0.862854 0.345239 0.364654
O O3 0.000000 0.132922 0.250000
O O4 0.796924 0.050643 0.295133
O O5 0.304695 0.474517 0.627096
O O6 0.136371 0.308624 0.795199
O O7 0.622906 0.237274 0.492586
O O8 0.780540 0.006737 0.477174
O O9 0.572569 0.891904 0.571358
O O10 0.476853 0.438353 0.419830
O O11 0.000000 0.238926 0.750000
#
# Coordination Sequence:
#
# PCOD9287123 Si02
#       5
#     8   8   8   8   8
#     4  11  23  50  79 111 165 212 263 339 405 477
#     4  11  25  49  76 120 157 213 276 327 412 496
#     4  10  21  47  77 110 169 212 256 352 405 468
#     4  10  24  44  77 121 158 211 278 328 410 490
#     4  12  22  45  79 117 164 212 274 337 404 490
#
# _framework density 28.776824000000001
#
# number of rings (size 3 to 8) (size 9 to 14) (size 15 to 20)
#    0.000    1.200    6.000    0.600    0.000    4.800 
#    7.200   15.000    0.000    0.000    0.000    0.000 
#    0.000    0.000    0.000    0.000    0.000    0.000 
#
# Total GULP energy -111929.179635 kJ/mol
# GULP energy per Si atom -5596.458982 kJ/mol
# Density = 2.871133 g / cm^3
# Si number density = 28.776824 Si / 1000 Ang^3
#
#
#
# Elastic Constant Matrix: (Units=GPa)
#
#
# Indices 1 2 3 4 5 6 
#
# 1 237.5411 68.1095 57.2762 0.0000 2.9186 0.0000
# 2 68.1095 163.7150 43.9467 0.0000 -4.0547 0.0001
# 3 57.2762 43.9467 140.5801 0.0000 17.5415 0.0000
# 4 0.0000 0.0000 0.0000 50.7913 0.0000 -2.9801
# 5 2.9186 -4.0547 17.5415 0.0000 53.2492 0.0000
# 6 0.0000 0.0001 0.0000 -2.9801 0.0000 46.1175
#
#
#
# Elastic Compliance Matrix: (Units=1/GPa)
#
#
# Indices 1 2 3 4 5 6 
#
# 1 0.005066 -0.001689 -0.001549 0.000000 0.000104 0.000000
# 2 -0.001689 0.007311 -0.001750 0.000000 0.001226 0.000000
# 3 -0.001549 -0.001750 0.008653 0.000000 -0.002899 0.000000
# 4 0.000000 0.000000 0.000000 0.019763 0.000000 0.001277
# 5 0.000104 0.001226 -0.002899 0.000000 0.019822 0.000000
# 6 0.000000 0.000000 0.000000 0.001277 0.000000 0.021766
#
#
# Mechanical properties :
#
#
# Convention : Reuss Voigt Hill
#
# Bulk Modulus (GPa) = 90.46744 97.83345 94.15045
# Shear Modulus (GPa) = 52.05908 54.86517 53.46213
#
# Velocity S-wave (km/s) = 4.25792 4.37117 4.31492
# Velocity P-wave (km/s) = 7.46184 7.71669 7.59033
#
# Compressibility (1/GPa) = 0.01105370
#
# Stress axis : x y z
#
# Youngs Moduli (GPa) = 197.37809 136.77709 115.56172
#
# Poissons Ratio (x) = 0.23107 0.17901
# Poissons Ratio (y) = 0.33344 0.20226
# Poissons Ratio (z) = 0.30575 0.23939
#
# Static dielectric constant tensor:
#      x y z
#    x 2.315310 0.000000 -0.116630 
#    y 0.000000 2.290610 0.000000 
#    z -0.116630 0.000000 2.393690 
# 
# From -- ./inp_files/202223.got.cif
#   From: 2010.05.17/outbox.cif.g08.bks.cpg/sg15_102_cif.got.tgz:202223.got - 2010.06.03 18:47:42.
