data_PCOD9287836
_publ_section_title
;
Structure prediction by ZEFSAII (Michael W. Deem and Ramdas Pophale) SiO2 
 PCOD9287836
Probable space group: C 2/C
;
_chemical_formula_sum "Si O2"
_cell_formula_units_Z 48
_cell_length_a 11.706374
_cell_length_b 9.192886
_cell_length_c 17.470702
_cell_angle_alpha 90.000000
_cell_angle_beta 101.134214
_cell_angle_gamma 90.000000
_cell_volume 1844.727480
_symmetry_space_group_name_H-M "C 2/C"
_symmetry_group_IT_number 15
_symmetry_cell_setting 'monoclinic'
loop_
_space_group_symop_operation_xyz
x,y,z
-x,y,1/2-z
-x,-y,-z
x,-y,1/2+z
1/2+x,1/2+y,z
1/2-x,1/2+y,1/2-z
1/2-x,1/2-y,-z
1/2+x,1/2-y,1/2+z
loop_
_atom_site_type_symbol
_atom_site_label
_atom_site_fract_x
_atom_site_fract_y
_atom_site_fract_z
Si Si1 0.020736 0.716398 0.136077
Si Si2 0.888795 0.553781 0.686199
Si Si3 0.377160 0.023636 0.942452
Si Si4 0.351988 0.473692 0.257962
Si Si5 0.128713 0.959764 0.425686
Si Si6 0.514472 0.713752 0.126212
O O1 0.931028 0.600844 0.160212
O O2 0.939132 0.810751 0.070088
O O3 0.120995 0.618490 0.111555
O O4 0.081362 0.832471 0.199677
O O5 0.774672 0.536433 0.720726
O O6 0.899388 0.686386 0.628727
O O7 0.000000 0.600356 0.750000
O O8 0.258542 0.030797 0.974908
O O9 0.394425 0.172523 0.897475
O O10 0.500000 0.000000 0.000000
O O11 0.352005 0.470421 0.165653
O O12 0.415931 0.616653 0.301336
O O13 0.042193 0.089749 0.433859
#
# Coordination Sequence:
#
# PCOD9287836 Si02
#       6
#     8   8   8   8   8   8
#     4  10  22  38  58  86 116 149 192 240 287 338
#     4  11  20  31  53  85 120 154 183 222 283 350
#     4  11  25  42  59  82 115 158 201 237 279 334
#     4  11  21  37  61  91 121 147 183 234 298 353
#     4  11  22  38  61  88 120 151 185 237 291 345
#     4  10  22  38  58  86 116 149 192 240 287 338
#
# _framework density 26.020104
#
# number of rings (size 3 to 8) (size 9 to 14) (size 15 to 20)
#    0.000    1.333    0.000    8.000    0.000    5.333 
#    0.000    3.333    0.000    0.000    0.000    0.000 
#    0.000    0.000    0.000    0.000    0.000    0.000 
#
# Total GULP energy -134265.156699 kJ/mol
# GULP energy per Si atom -5594.381529 kJ/mol
# Density = 2.596088 g / cm^3
# Si number density = 26.020104 Si / 1000 Ang^3
#
#
#
# Elastic Constant Matrix: (Units=GPa)
#
#
# Indices 1 2 3 4 5 6 
#
# 1 148.1982 34.9697 5.0970 0.0000 10.1624 0.0000
# 2 34.9697 192.1268 27.9646 0.0000 0.5298 0.0000
# 3 5.0970 27.9646 56.6996 0.0000 5.3486 0.0000
# 4 0.0000 0.0000 0.0000 12.4655 0.0000 12.6177
# 5 10.1624 0.5298 5.3486 0.0000 37.1599 0.0000
# 6 0.0000 0.0000 0.0000 12.6177 0.0000 11.7404
#
#
#
# Elastic Compliance Matrix: (Units=1/GPa)
#
#
# Indices 1 2 3 4 5 6 
#
# 1 0.007191 -0.001332 0.000197 0.000000 -0.001976 0.000000
# 2 -0.001332 0.005858 -0.002834 0.000000 0.000689 0.000000
# 3 0.000197 -0.002834 0.019280 0.000000 -0.002789 0.000000
# 4 0.000000 0.000000 0.000000 -0.913180 0.000000 0.981416
# 5 -0.001976 0.000689 -0.002789 0.000000 0.027843 0.000000
# 6 0.000000 0.000000 0.000000 0.981416 0.000000 -0.969576
#
#
# Mechanical properties :
#
#
# Convention : Reuss Voigt Hill
#
# Bulk Modulus (GPa) = 41.00069 59.23191 50.11630
# Shear Modulus (GPa) = -2.76776 34.20604 15.71914
#
# Velocity S-wave (km/s) = -1.03248 3.62968 2.46054
# Velocity P-wave (km/s) = 3.79080 6.35448 5.23209
#
# Compressibility (1/GPa) = 0.02438983
#
# Stress axis : x y z
#
# Youngs Moduli (GPa) = 139.06745 170.70664 51.86693
#
# Poissons Ratio (x) = 0.22739 -0.01022
# Poissons Ratio (y) = 0.18524 0.14701
# Poissons Ratio (z) = -0.02739 0.48386
#
# Static dielectric constant tensor:
#      x y z
#    x 2.034540 0.000000 -0.091710 
#    y 0.000000 2.013120 0.000000 
#    z -0.091710 0.000000 2.401410 
# 
# From -- ./inp_files/267735.got.cif
#   From: 2010.05.17/outbox.cif.g08.bks.cpg/sg15_134_cif.got.tgz:267735.got - 2010.06.03 18:47:42.
