data_PCOD9287561
_publ_section_title
;
Structure prediction by ZEFSAII (Michael W. Deem and Ramdas Pophale) SiO2 
 PCOD9287561
Probable space group: C 2/C
;
_chemical_formula_sum "Si O2"
_cell_formula_units_Z 32
_cell_length_a 9.858317
_cell_length_b 16.267550
_cell_length_c 11.125790
_cell_angle_alpha 90.000000
_cell_angle_beta 135.529150
_cell_angle_gamma 90.000000
_cell_volume 1249.949969
_symmetry_space_group_name_H-M "C 2/C"
_symmetry_group_IT_number 15
_symmetry_cell_setting 'monoclinic'
loop_
_space_group_symop_operation_xyz
x,y,z
-x,y,1/2-z
-x,-y,-z
x,-y,1/2+z
1/2+x,1/2+y,z
1/2-x,1/2+y,1/2-z
1/2-x,1/2-y,-z
1/2+x,1/2-y,1/2+z
loop_
_atom_site_type_symbol
_atom_site_label
_atom_site_fract_x
_atom_site_fract_y
_atom_site_fract_z
Si Si1 0.330288 0.316921 0.390243
Si Si2 0.233090 0.548072 0.522685
Si Si3 0.500000 0.306543 0.250000
Si Si4 0.285402 0.001982 0.742879
Si Si5 0.500000 0.690133 0.250000
O O1 0.446462 0.276455 0.350422
O O2 0.215073 0.399332 0.276786
O O3 0.448502 0.344625 0.584226
O O4 0.181535 0.247883 0.334767
O O5 0.314013 0.637138 0.602463
O O6 0.296640 0.490911 0.675046
O O7 0.310502 0.531036 0.438624
O O8 0.001803 0.535992 0.378126
#
# Coordination Sequence:
#
# PCOD9287561 Si02
#       5
#     8   8   4   8   4
#     4  10  22  40  60  84 114 148 193 241 282 329
#     4   9  18  32  53  80 114 148 178 217 278 341
#     4  10  22  37  56  88 120 145 184 236 286 340
#     4   9  18  34  53  78 116 149 178 222 274 339
#     4  10  22  41  64  82 104 153 202 238 286 330
#
# _framework density 25.601023999999999
#
# number of rings (size 3 to 8) (size 9 to 14) (size 15 to 20)
#    0.000    2.500    0.000    1.500    0.000    8.000 
#    0.000   15.000    0.000    0.000    0.000    0.000 
#    0.000    0.000    0.000    0.000    0.000    0.000 
#
# Total GULP energy -89177.291591 kJ/mol
# GULP energy per Si atom -5573.580724 kJ/mol
# Density = 2.554276 g / cm^3
# Si number density = 25.601024 Si / 1000 Ang^3
#
#
#
# Elastic Constant Matrix: (Units=GPa)
#
#
# Indices 1 2 3 4 5 6 
#
# 1 194.4745 17.0976 83.0405 0.0000 -53.9590 0.0000
# 2 17.0976 16.0751 18.5057 0.0000 8.0504 0.0000
# 3 83.0405 18.5057 158.9343 0.0000 -35.9419 0.0000
# 4 0.0000 0.0000 0.0000 19.1191 0.0000 -17.1599
# 5 -53.9590 8.0504 -35.9419 0.0000 62.3575 0.0000
# 6 0.0000 0.0000 0.0000 -17.1599 0.0000 36.4465
#
#
#
# Elastic Compliance Matrix: (Units=1/GPa)
#
#
# Indices 1 2 3 4 5 6 
#
# 1 0.009336 -0.012855 -0.001356 0.000000 0.008957 0.000000
# 2 -0.012855 0.107307 -0.013139 0.000000 -0.032550 0.000000
# 3 -0.001356 -0.013139 0.009945 0.000000 0.006255 0.000000
# 4 0.000000 0.000000 0.000000 0.090582 0.000000 0.042648
# 5 0.008957 -0.032550 0.006255 0.000000 0.031595 0.000000
# 6 0.000000 0.000000 0.000000 0.042648 0.000000 0.047517
#
#
# Mechanical properties :
#
#
# Convention : Reuss Voigt Hill
#
# Bulk Modulus (GPa) = 13.91037 67.41904 40.66471
# Shear Modulus (GPa) = 13.33528 40.30730 26.82129
#
# Velocity S-wave (km/s) = 2.28477 3.97223 3.24028
# Velocity P-wave (km/s) = 3.52215 6.88693 5.46971
#
# Compressibility (1/GPa) = 0.07188882
#
# Stress axis : x y z
#
# Youngs Moduli (GPa) = 107.10759 9.31901 100.55708
#
# Poissons Ratio (x) = 0.11980 0.13632
# Poissons Ratio (y) = 1.37690 1.32120
# Poissons Ratio (z) = 0.14520 0.12244
#
# Static dielectric constant tensor:
#      x y z
#    x 2.043690 0.000000 -0.089110 
#    y 0.000000 2.010030 0.000000 
#    z -0.089110 0.000000 2.118990 
# 
# From -- ./inp_files/28656.got.cif
#   From: 2010.05.17/outbox.cif.g08.bks.cpg/sg15_15_cif.got.tgz:28656.got - 2010.06.03 18:47:42.
