data_PCOD9287102
_publ_section_title
;
Structure prediction by ZEFSAII (Michael W. Deem and Ramdas Pophale) SiO2 
 PCOD9287102
Probable space group: C 2/C
;
_chemical_formula_sum "Si O2"
_cell_formula_units_Z 40
_cell_length_a 17.387667
_cell_length_b 7.213071
_cell_length_c 14.339941
_cell_angle_alpha 90.000000
_cell_angle_beta 122.208126
_cell_angle_gamma 90.000000
_cell_volume 1521.737018
_symmetry_space_group_name_H-M "C 2/C"
_symmetry_group_IT_number 15
_symmetry_cell_setting 'monoclinic'
loop_
_space_group_symop_operation_xyz
x,y,z
-x,y,1/2-z
-x,-y,-z
x,-y,1/2+z
1/2+x,1/2+y,z
1/2-x,1/2+y,1/2-z
1/2-x,1/2-y,-z
1/2+x,1/2-y,1/2+z
loop_
_atom_site_type_symbol
_atom_site_label
_atom_site_fract_x
_atom_site_fract_y
_atom_site_fract_z
Si Si1 0.832291 0.391919 0.528160
Si Si2 0.383546 0.670593 0.896514
Si Si3 0.816927 0.268757 0.154716
Si Si4 0.421853 0.234829 0.910786
Si Si5 0.096055 0.893470 0.303251
O O1 0.750000 0.250000 0.500000
O O2 0.829089 0.583351 0.581083
O O3 0.859133 0.388323 0.437820
O O4 0.911727 0.269349 0.627559
O O5 0.284080 0.714719 0.869719
O O6 0.397245 0.448992 0.918499
O O7 0.384570 0.691908 0.785235
O O8 0.470345 0.771866 0.999295
O O9 0.888932 0.302159 0.284700
O O10 0.832453 0.057228 0.132713
O O11 0.000000 0.995473 0.250000
#
# Coordination Sequence:
#
# PCOD9287102 Si02
#       5
#     8   8   8   8   8
#     4  12  24  47  75 110 152 200 253 316 385 450
#     4  10  21  46  76 106 156 203 251 313 384 452
#     4  11  26  46  79 116 145 198 272 309 369 474
#     4  10  22  46  78 107 157 204 246 317 391 443
#     4  11  25  47  72 103 156 203 249 316 382 451
#
# _framework density 26.285748999999999
#
# number of rings (size 3 to 8) (size 9 to 14) (size 15 to 20)
#    0.000    1.200    4.000    1.200    2.800    1.600 
#    0.000    5.000    0.000    0.000    0.000    0.000 
#    0.000    0.000    0.000    0.000    0.000    0.000 
#
# Total GULP energy -112179.398544 kJ/mol
# GULP energy per Si atom -5608.969927 kJ/mol
# Density = 2.622592 g / cm^3
# Si number density = 26.285749 Si / 1000 Ang^3
#
#
#
# Elastic Constant Matrix: (Units=GPa)
#
#
# Indices 1 2 3 4 5 6 
#
# 1 64.6798 9.6286 0.7428 0.0000 0.7343 0.0000
# 2 9.6286 85.6647 31.5619 0.0000 -10.3328 0.0000
# 3 0.7428 31.5619 142.4247 0.0000 -14.4597 0.0000
# 4 0.0000 0.0000 0.0000 30.9103 0.0000 -3.0115
# 5 0.7343 -10.3328 -14.4597 0.0000 47.8181 0.0000
# 6 0.0000 0.0000 0.0000 -3.0115 0.0000 38.0786
#
#
#
# Elastic Compliance Matrix: (Units=1/GPa)
#
#
# Indices 1 2 3 4 5 6 
#
# 1 0.015754 -0.001947 0.000291 0.000000 -0.000575 0.000000
# 2 -0.001947 0.013132 -0.002691 0.000000 0.002054 0.000000
# 3 0.000291 -0.002691 0.007796 0.000000 0.001771 0.000000
# 4 0.000000 0.000000 0.000000 0.032603 0.000000 0.002578
# 5 -0.000575 0.002054 0.001771 0.000000 0.021901 0.000000
# 6 0.000000 0.000000 0.000000 0.002578 0.000000 0.026465
#
#
# Mechanical properties :
#
#
# Convention : Reuss Voigt Hill
#
# Bulk Modulus (GPa) = 35.73183 41.84838 38.79011
# Shear Modulus (GPa) = 36.85293 40.08381 38.46837
#
# Velocity S-wave (km/s) = 3.74841 3.90927 3.82968
# Velocity P-wave (km/s) = 5.68834 6.02757 5.86041
#
# Compressibility (1/GPa) = 0.02798625
#
# Stress axis : x y z
#
# Youngs Moduli (GPa) = 63.47656 76.15226 128.27098
#
# Poissons Ratio (x) = 0.14829 -0.03733
# Poissons Ratio (y) = 0.12360 0.34522
# Poissons Ratio (z) = -0.01847 0.20495
#
# Static dielectric constant tensor:
#      x y z
#    x 2.081050 0.000000 0.107320 
#    y 0.000000 2.081740 0.000000 
#    z 0.107320 0.000000 2.202590 
# 
# From -- ./inp_files/159484.got.cif
#   From: 2010.05.17/outbox.cif.g08.bks.cpg/sg15_80_cif.got.tgz:159484.got - 2010.06.03 18:47:42.
