data_PCOD9287852
_publ_section_title
;
Structure prediction by ZEFSAII (Michael W. Deem and Ramdas Pophale) SiO2 
 PCOD9287852
Probable space group: C 2/C
;
_chemical_formula_sum "Si O2"
_cell_formula_units_Z 52
_cell_length_a 10.361764
_cell_length_b 9.507933
_cell_length_c 23.195323
_cell_angle_alpha 90.000000
_cell_angle_beta 68.970422
_cell_angle_gamma 90.000000
_cell_volume 2132.975386
_symmetry_space_group_name_H-M "C 2/C"
_symmetry_group_IT_number 15
_symmetry_cell_setting 'monoclinic'
loop_
_space_group_symop_operation_xyz
x,y,z
-x,y,1/2-z
-x,-y,-z
x,-y,1/2+z
1/2+x,1/2+y,z
1/2-x,1/2+y,1/2-z
1/2-x,1/2-y,-z
1/2+x,1/2-y,1/2+z
loop_
_atom_site_type_symbol
_atom_site_label
_atom_site_fract_x
_atom_site_fract_y
_atom_site_fract_z
Si Si1 0.737645 0.233699 0.234666
Si Si2 0.584046 0.491632 0.287695
Si Si3 0.000000 0.526516 0.250000
Si Si4 0.572935 0.624791 0.081872
Si Si5 0.147712 0.480571 0.446115
Si Si6 0.788507 0.824073 0.588339
Si Si7 0.449962 0.950299 0.381239
O O1 0.709608 0.380477 0.270831
O O2 0.860281 0.142104 0.241146
O O3 0.606312 0.134428 0.262243
O O4 0.765500 0.220043 0.160381
O O5 0.500000 0.422956 0.250000
O O6 0.486312 0.524753 0.356998
O O7 0.045141 0.438064 0.188190
O O8 0.731551 0.579924 0.050122
O O9 0.443373 0.612257 0.058636
O O10 0.576483 0.792358 0.092783
O O11 0.207323 0.324031 0.444176
O O12 0.000000 0.500000 0.500000
O O13 0.094845 0.497549 0.388138
O O14 0.670346 0.933740 0.589392
#
# Coordination Sequence:
#
# PCOD9287852 Si02
#       7
#     8   8   4   8   8   8   8
#     4  10  22  38  58  89 131 172 204 258 314 388
#     4  11  23  36  58  90 128 173 214 256 315 389
#     4  10  22  40  64  92 140 172 204 258 322 390
#     4  10  24  41  64  98 129 172 225 273 326 397
#     4  11  25  46  70  96 129 172 229 288 335 383
#     4   9  22  45  62  94 136 167 220 274 331 392
#     4  10  24  44  66  97 138 175 217 270 328 404
#
# _framework density 24.379092
#
# number of rings (size 3 to 8) (size 9 to 14) (size 15 to 20)
#    0.000    1.846    0.769    0.923   11.846    6.769 
#    0.000    1.538    0.000    0.000    0.000    0.000 
#    0.000    0.000    0.000    0.000    0.000    0.000 
#
# Total GULP energy -145057.223542 kJ/mol
# GULP energy per Si atom -5579.123982 kJ/mol
# Density = 2.432360 g / cm^3
# Si number density = 24.379092 Si / 1000 Ang^3
#
#
#
# Elastic Constant Matrix: (Units=GPa)
#
#
# Indices 1 2 3 4 5 6 
#
# 1 109.6905 42.1932 -5.5304 0.0000 -21.4628 0.0000
# 2 42.1932 98.7186 24.5829 0.0000 -21.2544 0.0000
# 3 -5.5304 24.5829 52.4327 0.0000 -10.2362 0.0000
# 4 0.0000 0.0000 0.0000 20.8862 0.0000 -8.8321
# 5 -21.4628 -21.2544 -10.2362 0.0000 38.3265 0.0000
# 6 0.0000 0.0000 0.0000 -8.8321 0.0000 46.7439
#
#
#
# Elastic Compliance Matrix: (Units=1/GPa)
#
#
# Indices 1 2 3 4 5 6 
#
# 1 0.012480 -0.005411 0.004887 0.000000 0.005293 0.000000
# 2 -0.005411 0.014887 -0.006890 0.000000 0.003385 0.000000
# 3 0.004887 -0.006890 0.023850 0.000000 0.005286 0.000000
# 4 0.000000 0.000000 0.000000 0.052036 0.000000 0.009832
# 5 0.005293 0.003385 0.005286 0.000000 0.032345 0.000000
# 6 0.000000 0.000000 0.000000 0.009832 0.000000 0.023251
#
#
# Mechanical properties :
#
#
# Convention : Reuss Voigt Hill
#
# Bulk Modulus (GPa) = 27.48126 42.59257 35.03692
# Shear Modulus (GPa) = 26.90963 34.49773 30.70368
#
# Velocity S-wave (km/s) = 3.32595 3.76580 3.55269
# Velocity P-wave (km/s) = 5.10355 6.03467 5.58853
#
# Compressibility (1/GPa) = 0.03638843
#
# Stress axis : x y z
#
# Youngs Moduli (GPa) = 80.12708 67.17145 41.92938
#
# Poissons Ratio (x) = 0.36349 -0.20490
# Poissons Ratio (y) = 0.43360 0.28888
# Poissons Ratio (z) = -0.39157 0.46279
#
# Static dielectric constant tensor:
#      x y z
#    x 2.000900 0.000000 -0.012330 
#    y 0.000000 1.918940 0.000000 
#    z -0.012330 0.000000 2.086130 
# 
# From -- ./inp_files/291247.got.cif
#   From: 2010.05.17/outbox.cif.g08.bks.cpg/sg15_146_cif.got.tgz:291247.got - 2010.06.03 18:47:42.
