data_PCOD9287069
_publ_section_title
;
Structure prediction by ZEFSAII (Michael W. Deem and Ramdas Pophale) SiO2 
 PCOD9287069
Probable space group: C 2/C
;
_chemical_formula_sum "Si O2"
_cell_formula_units_Z 48
_cell_length_a 13.752946
_cell_length_b 12.805997
_cell_length_c 19.257153
_cell_angle_alpha 90.000000
_cell_angle_beta 136.962438
_cell_angle_gamma 90.000000
_cell_volume 2314.673096
_symmetry_space_group_name_H-M "C 2/C"
_symmetry_group_IT_number 15
_symmetry_cell_setting 'monoclinic'
loop_
_space_group_symop_operation_xyz
x,y,z
-x,y,1/2-z
-x,-y,-z
x,-y,1/2+z
1/2+x,1/2+y,z
1/2-x,1/2+y,1/2-z
1/2-x,1/2-y,-z
1/2+x,1/2-y,1/2+z
loop_
_atom_site_type_symbol
_atom_site_label
_atom_site_fract_x
_atom_site_fract_y
_atom_site_fract_z
Si Si1 0.000000 0.311354 0.750000
Si Si2 0.291829 0.787913 0.372222
Si Si3 0.500000 0.079525 0.750000
Si Si4 0.764269 0.629484 0.524289
Si Si5 0.324031 0.986725 0.292134
Si Si6 0.544252 0.421642 0.584316
Si Si7 0.594591 0.084854 0.442315
O O1 0.873199 0.245843 0.718552
O O2 0.916636 0.371331 0.643032
O O3 0.323283 0.878218 0.332526
O O4 0.389253 0.686536 0.409394
O O5 0.324751 0.836870 0.464798
O O6 0.377217 0.137752 0.645649
O O7 0.597636 0.025018 0.741659
O O8 0.750000 0.750000 0.500000
O O9 0.603424 0.596054 0.454461
O O10 0.832212 0.530345 0.518090
O O11 0.167011 0.028524 0.196311
O O12 0.432242 0.068226 0.384482
O O13 0.500000 0.500000 0.500000
#
# Coordination Sequence:
#
# PCOD9287069 Si02
#       7
#     4   8   4   8   8   8   8
#     4  12  25  46  75 104 144 193 228 286 373 430
#     4  12  28  44  70 111 143 187 240 304 356 425
#     4  10  21  46  69  94 140 183 232 288 363 416
#     4  11  24  44  70 101 136 187 236 293 361 419
#     4  11  24  45  72 101 139 188 238 293 362 420
#     4  12  24  42  72 103 135 185 248 288 350 442
#     4  11  24  49  71 100 150 188 233 298 365 429
#
# _framework density 20.737269999999999
#
# number of rings (size 3 to 8) (size 9 to 14) (size 15 to 20)
#    0.000    0.667    3.333    6.000    4.667    0.000 
#    9.000    0.000    0.000    0.000    0.000    0.000 
#    0.000    0.000    0.000    0.000    0.000    0.000 
#
# Total GULP energy -133762.845390 kJ/mol
# GULP energy per Si atom -5573.451891 kJ/mol
# Density = 2.069007 g / cm^3
# Si number density = 20.737270 Si / 1000 Ang^3
#
#
#
# Elastic Constant Matrix: (Units=GPa)
#
#
# Indices 1 2 3 4 5 6 
#
# 1 65.4013 22.1832 43.6663 0.0000 23.2977 0.0000
# 2 22.1832 111.7149 52.6940 0.0000 -4.9173 0.0000
# 3 43.6663 52.6940 111.6361 0.0000 23.4835 0.0000
# 4 0.0000 0.0000 0.0000 24.3000 0.0000 17.5448
# 5 23.2977 -4.9173 23.4835 0.0000 48.9921 0.0000
# 6 0.0000 0.0000 0.0000 17.5448 0.0000 19.2283
#
#
#
# Elastic Compliance Matrix: (Units=1/GPa)
#
#
# Indices 1 2 3 4 5 6 
#
# 1 0.023123 -0.001911 -0.006438 0.000000 -0.008102 0.000000
# 2 -0.001911 0.012499 -0.006236 0.000000 0.005153 0.000000
# 3 -0.006438 -0.006236 0.015467 0.000000 -0.004978 0.000000
# 4 0.000000 0.000000 0.000000 0.120608 0.000000 -0.110048
# 5 -0.008102 0.005153 -0.004978 0.000000 0.027168 0.000000
# 6 0.000000 0.000000 0.000000 -0.110048 0.000000 0.152420
#
#
# Mechanical properties :
#
#
# Convention : Reuss Voigt Hill
#
# Bulk Modulus (GPa) = 45.62504 58.42658 52.02581
# Shear Modulus (GPa) = 12.89454 29.85133 21.37293
#
# Velocity S-wave (km/s) = 2.49631 3.79819 3.21386
# Velocity P-wave (km/s) = 5.50981 6.88991 6.23814
#
# Compressibility (1/GPa) = 0.02191779
#
# Stress axis : x y z
#
# Youngs Moduli (GPa) = 43.24668 80.00548 64.65554
#
# Poissons Ratio (x) = 0.15293 0.41626
# Poissons Ratio (y) = 0.08266 0.40319
# Poissons Ratio (z) = 0.27843 0.49892
#
# Static dielectric constant tensor:
#      x y z
#    x 1.753210 0.000000 -0.014940 
#    y 0.000000 1.798650 0.000000 
#    z -0.014940 0.000000 1.813880 
# 
# From -- ./inp_files/244014.got.cif
#   From: 2010.05.17/outbox.cif.g08.bks.cpg/sg15_123_cif.got.tgz:244014.got - 2010.06.03 18:47:42.
