data_PCOD9287343
_publ_section_title
;
Structure prediction by ZEFSAII (Michael W. Deem and Ramdas Pophale) SiO2 
 PCOD9287343
Probable space group: C 2/C
;
_chemical_formula_sum "Si O2"
_cell_formula_units_Z 52
_cell_length_a 7.218924
_cell_length_b 28.455648
_cell_length_c 12.131818
_cell_angle_alpha 90.000000
_cell_angle_beta 120.436189
_cell_angle_gamma 90.000000
_cell_volume 2148.680144
_symmetry_space_group_name_H-M "C 2/C"
_symmetry_group_IT_number 15
_symmetry_cell_setting 'monoclinic'
loop_
_space_group_symop_operation_xyz
x,y,z
-x,y,1/2-z
-x,-y,-z
x,-y,1/2+z
1/2+x,1/2+y,z
1/2-x,1/2+y,1/2-z
1/2-x,1/2-y,-z
1/2+x,1/2-y,1/2+z
loop_
_atom_site_type_symbol
_atom_site_label
_atom_site_fract_x
_atom_site_fract_y
_atom_site_fract_z
Si Si1 0.208626 0.709933 0.231478
Si Si2 0.482220 0.858313 0.507587
Si Si3 0.945501 0.145606 0.464411
Si Si4 0.118166 0.048307 0.018330
Si Si5 0.916656 0.460898 0.888909
Si Si6 0.000000 0.979538 0.250000
Si Si7 0.284993 0.681666 0.761434
O O1 0.387412 0.679211 0.346997
O O2 0.275496 0.763830 0.242199
O O3 0.000000 0.709819 0.250000
O O4 0.130638 0.683755 0.097879
O O5 0.270639 0.856589 0.523813
O O6 0.594890 0.908669 0.561621
O O7 0.392381 0.847595 0.359018
O O8 0.977735 0.091478 0.444136
O O9 0.139100 0.162299 0.598622
O O10 0.368705 0.044378 0.119267
O O11 0.073626 0.053869 0.872942
O O12 0.000000 0.000000 0.000000
O O13 0.697870 0.485253 0.782909
O O14 0.000000 0.500000 0.000000
O O15 0.500000 0.681076 0.750000
#
# Coordination Sequence:
#
# PCOD9287343 Si02
#       7
#     8   8   8   8   8   4   8
#     4   9  16  27  41  71 106 142 183 229 281 338
#     4   9  17  28  48  70 104 143 183 232 282 336
#     4   9  18  28  46  72 110 147 182 228 286 339
#     4  10  22  36  56  85 117 154 192 238 292 347
#     4   9  20  36  55  81 111 148 195 234 284 341
#     4  10  22  38  60  76 116 154 196 242 288 342
#     4   9  16  26  45  69 105 146 183 223 285 343
#
# _framework density 24.200903
#
# number of rings (size 3 to 8) (size 9 to 14) (size 15 to 20)
#    0.000    2.769    0.000    0.923    9.692    4.308 
#    0.000    0.000    0.000    0.000    0.000    1.077 
#    0.000    0.000    0.000    0.000    0.000    0.000 
#
# Total GULP energy -145319.886661 kJ/mol
# GULP energy per Si atom -5589.226410 kJ/mol
# Density = 2.414582 g / cm^3
# Si number density = 24.200903 Si / 1000 Ang^3
#
#
#
# Elastic Constant Matrix: (Units=GPa)
#
#
# Indices 1 2 3 4 5 6 
#
# 1 97.0947 11.1500 21.5989 0.0000 28.6056 0.0000
# 2 11.1500 147.1213 29.5494 0.0000 19.7016 0.0000
# 3 21.5989 29.5494 142.1444 0.0000 27.8258 0.0000
# 4 0.0000 0.0000 0.0000 45.7218 0.0000 4.5362
# 5 28.6056 19.7016 27.8258 0.0000 19.6170 0.0000
# 6 0.0000 0.0000 0.0000 4.5362 0.0000 0.4584
#
#
#
# Elastic Compliance Matrix: (Units=1/GPa)
#
#
# Indices 1 2 3 4 5 6 
#
# 1 0.020190 0.002741 0.003689 0.000000 -0.037427 0.000000
# 2 0.002741 0.008227 0.000378 0.000000 -0.012796 0.000000
# 3 0.003689 0.000378 0.010415 0.000000 -0.020533 0.000000
# 4 0.000000 0.000000 0.000000 1.195805 0.000000-11.832535
# 5 -0.037427 -0.012796 -0.020533 0.000000 0.147528 0.000000
# 6 0.000000 0.000000 0.000000-11.832535 0.000000119.264768
#
#
# Mechanical properties :
#
#
# Convention : Reuss Voigt Hill
#
# Bulk Modulus (GPa) = 19.06629 56.77298 37.91964
# Shear Modulus (GPa) = 0.04144 34.76358 17.40251
#
# Velocity S-wave (km/s) = 0.13100 3.79418 2.68449
# Velocity P-wave (km/s) = 2.81395 6.53485 5.03104
#
# Compressibility (1/GPa) = 0.05244859
#
# Stress axis : x y z
#
# Youngs Moduli (GPa) = 49.52830 121.55166 96.01198
#
# Poissons Ratio (x) = -0.33316 -0.35418
# Poissons Ratio (y) = -0.13575 -0.03630
# Poissons Ratio (z) = -0.18270 -0.04596
#
# Static dielectric constant tensor:
#      x y z
#    x 1.650710 0.000000 -0.095490 
#    y 0.000000 1.897400 0.000000 
#    z -0.095490 0.000000 1.935090 
# 
# From -- ./inp_files/148420.got.cif
#   From: 2010.05.17/outbox.cif.g08.bks.cpg/sg15_75_cif.got.tgz:148420.got - 2010.06.03 18:47:42.
