data_PCOD9287081
_publ_section_title
;
Structure prediction by ZEFSAII (Michael W. Deem and Ramdas Pophale) SiO2 
 PCOD9287081
Probable space group: C 2/C
;
_chemical_formula_sum "Si O2"
_cell_formula_units_Z 48
_cell_length_a 21.363119
_cell_length_b 10.352213
_cell_length_c 26.461465
_cell_angle_alpha 90.000000
_cell_angle_beta 19.883130
_cell_angle_gamma 90.000000
_cell_volume 1990.314914
_symmetry_space_group_name_H-M "C 2/C"
_symmetry_group_IT_number 15
_symmetry_cell_setting 'monoclinic'
loop_
_space_group_symop_operation_xyz
x,y,z
-x,y,1/2-z
-x,-y,-z
x,-y,1/2+z
1/2+x,1/2+y,z
1/2-x,1/2+y,1/2-z
1/2-x,1/2-y,-z
1/2+x,1/2-y,1/2+z
loop_
_atom_site_type_symbol
_atom_site_label
_atom_site_fract_x
_atom_site_fract_y
_atom_site_fract_z
Si Si1 0.727756 0.764468 0.626598
Si Si2 0.749178 0.345979 0.683424
Si Si3 0.000000 0.529939 0.250000
Si Si4 0.935553 0.684975 0.881175
Si Si5 0.577991 0.638871 0.424849
Si Si6 0.500000 0.426832 0.250000
Si Si7 0.359008 0.993348 0.014898
O O1 0.675061 0.878444 0.628293
O O2 0.774875 0.820835 0.644527
O O3 0.548625 0.669668 0.759238
O O4 0.885679 0.660720 0.490666
O O5 0.586917 0.297223 0.769396
O O6 0.669560 0.365664 0.799872
O O7 0.818088 0.477234 0.604310
O O8 0.911125 0.240943 0.556649
O O9 0.981810 0.434146 0.310145
O O10 0.750000 0.750000 0.000000
O O11 0.969881 0.614430 0.909865
O O12 0.500000 0.500000 0.500000
O O13 0.682758 0.508770 0.110744
#
# Coordination Sequence:
#
# PCOD9287081 Si02
#       7
#     8   8   4   8   8   4   8
#     4   9  23  46  72 105 140 196 238 314 360 442
#     4  12  27  50  73 111 149 201 246 308 372 453
#     4  11  24  45  72 108 145 182 259 304 370 439
#     4  12  25  42  75 106 147 191 241 307 373 437
#     4  12  29  49  77 108 154 198 253 304 376 449
#     4   7  18  43  68 102 131 176 245 290 370 415
#     4  10  21  46  71 101 144 186 244 296 373 431
#
# _framework density 24.116788
#
# number of rings (size 3 to 8) (size 9 to 14) (size 15 to 20)
#    1.000    0.333    1.667    3.000    4.667    4.000 
#    3.000    0.000    0.000    0.000    0.000    0.000 
#    0.000    0.000    0.000    0.000    0.000    0.000 
#
# Total GULP energy -133743.429267 kJ/mol
# GULP energy per Si atom -5572.642886 kJ/mol
# Density = 2.406190 g / cm^3
# Si number density = 24.116788 Si / 1000 Ang^3
#
#
#
# Elastic Constant Matrix: (Units=GPa)
#
#
# Indices 1 2 3 4 5 6 
#
# 1 134.2022 48.4467 45.4026 -0.0029 2.0669 0.0002
# 2 48.4467 123.1749 14.3269 -0.0106 10.7690 -0.0029
# 3 45.4026 14.3269 57.9474 -0.0299 7.6240 -0.0057
# 4 -0.0029 -0.0106 -0.0299 9.8697 -0.0010 -3.5064
# 5 2.0669 10.7690 7.6240 -0.0010 43.5029 -0.0011
# 6 0.0002 -0.0029 -0.0057 -3.5064 -0.0011 48.5317
#
#
#
# Elastic Compliance Matrix: (Units=1/GPa)
#
#
# Indices 1 2 3 4 5 6 
#
# 1 0.011630 -0.003756 -0.008428 -0.000027 0.001854 -0.000003
# 2 -0.003756 0.009704 0.000856 0.000012 -0.002374 0.000002
# 3 -0.008428 0.000856 0.024181 0.000074 -0.004049 0.000008
# 4 -0.000027 0.000012 0.000074 0.103990 -0.000012 0.007513
# 5 0.001854 -0.002374 -0.004049 -0.000012 0.024196 -0.000001
# 6 -0.000003 0.000002 0.000008 0.007513 -0.000001 0.021148
#
#
# Mechanical properties :
#
#
# Convention : Reuss Voigt Hill
#
# Bulk Modulus (GPa) = 43.74465 59.07521 51.40993
# Shear Modulus (GPa) = 22.20995 34.19074 28.20035
#
# Velocity S-wave (km/s) = 3.03798 3.76934 3.42325
# Velocity P-wave (km/s) = 5.52121 6.59489 6.08179
#
# Compressibility (1/GPa) = 0.02285994
#
# Stress axis : x y z
#
# Youngs Moduli (GPa) = 85.98441 103.05193 41.35434
#
# Poissons Ratio (x) = 0.38708 0.34852
# Poissons Ratio (y) = 0.32297 -0.03540
# Poissons Ratio (z) = 0.72464 -0.08822
#
# Static dielectric constant tensor:
#      x y z
#    x 2.947750 -0.000060 -0.218020 
#    y -0.000060 1.920080 0.000030 
#    z -0.218020 0.000030 2.121270 
# 
# From -- ./inp_files/318736.got.cif
#   From: 2010.05.17/outbox.cif.g08.bks.cpg/sg15_160_cif.got.tgz:318736.got - 2010.06.03 18:47:42.
