data_PCOD9287259
_publ_section_title
;
Structure prediction by ZEFSAII (Michael W. Deem and Ramdas Pophale) SiO2 
 PCOD9287259
Probable space group: C 2/C
;
_chemical_formula_sum "Si O2"
_cell_formula_units_Z 44
_cell_length_a 14.220357
_cell_length_b 22.084648
_cell_length_c 14.292566
_cell_angle_alpha 90.000000
_cell_angle_beta 33.090464
_cell_angle_gamma 90.000000
_cell_volume 2450.608996
_symmetry_space_group_name_H-M "C 2/C"
_symmetry_group_IT_number 15
_symmetry_cell_setting 'monoclinic'
loop_
_space_group_symop_operation_xyz
x,y,z
-x,y,1/2-z
-x,-y,-z
x,-y,1/2+z
1/2+x,1/2+y,z
1/2-x,1/2+y,1/2-z
1/2-x,1/2-y,-z
1/2+x,1/2-y,1/2+z
loop_
_atom_site_type_symbol
_atom_site_label
_atom_site_fract_x
_atom_site_fract_y
_atom_site_fract_z
Si Si1 0.491771 0.431641 0.049445
Si Si2 0.729583 0.932914 0.965523
Si Si3 0.146179 0.394222 0.244530
Si Si4 0.273709 0.728950 0.587480
Si Si5 0.133113 0.159510 0.290045
Si Si6 0.000000 0.963394 0.250000
O O1 0.296924 0.408741 0.191713
O O2 0.531022 0.429959 0.126572
O O3 0.500000 0.500000 0.000000
O O4 0.622482 0.387595 0.884426
O O5 0.841264 0.882038 0.821713
O O6 0.709796 0.920461 0.091897
O O7 0.537986 0.924803 0.082694
O O8 0.833487 0.994605 0.867921
O O9 0.134379 0.321975 0.235532
O O10 0.250000 0.750000 0.500000
O O11 0.266724 0.785781 0.663566
O O12 0.451866 0.693511 0.442104
#
# Coordination Sequence:
#
# PCOD9287259 Si02
#       6
#     8   8   8   8   8   4
#     4  11  22  39  60  83 118 161 193 241 288 340
#     4  11  20  34  57  87 120 152 190 232 281 365
#     4  10  22  35  54  90 122 152 187 233 296 346
#     4  11  20  30  53  84 118 153 177 231 291 358
#     4  11  22  35  55  84 122 151 188 229 299 351
#     4  12  22  40  60  80 118 158 202 236 282 340
#
# _framework density 17.954720999999999
#
# number of rings (size 3 to 8) (size 9 to 14) (size 15 to 20)
#    0.000    1.091    5.455    2.727    5.091    0.727 
#    0.000    0.000    0.000    4.364    0.000    0.000 
#    0.000    0.000    0.000    0.000    0.000    0.000 
#
# Total GULP energy -122729.537867 kJ/mol
# GULP energy per Si atom -5578.615358 kJ/mol
# Density = 1.791386 g / cm^3
# Si number density = 17.954721 Si / 1000 Ang^3
#
#
#
# Elastic Constant Matrix: (Units=GPa)
#
#
# Indices 1 2 3 4 5 6 
#
# 1 59.4874 28.0856 31.9927 -0.0026 3.0203 0.0013
# 2 28.0856 85.8551 38.4207 -0.0070 10.2332 0.0039
# 3 31.9927 38.4207 103.4220 -0.0176 3.5647 0.0101
# 4 -0.0026 -0.0070 -0.0176 37.6892 0.0058 10.9943
# 5 3.0203 10.2332 3.5647 0.0058 24.5109 -0.0052
# 6 0.0013 0.0039 0.0101 10.9943 -0.0052 23.2736
#
#
#
# Elastic Compliance Matrix: (Units=1/GPa)
#
#
# Indices 1 2 3 4 5 6 
#
# 1 0.021775 -0.004940 -0.004904 -0.000003 0.000092 0.000003
# 2 -0.004940 0.015756 -0.004140 0.000002 -0.005367 -0.000003
# 3 -0.004904 -0.004140 0.012708 0.000007 0.000485 -0.000008
# 4 -0.000003 0.000002 0.000007 0.030773 -0.000012 -0.014537
# 5 0.000092 -0.005367 0.000485 -0.000012 0.042957 0.000016
# 6 0.000003 -0.000003 -0.000008 -0.014537 0.000016 0.049834
#
#
# Mechanical properties :
#
#
# Convention : Reuss Voigt Hill
#
# Bulk Modulus (GPa) = 44.90202 49.52917 47.21559
# Shear Modulus (GPa) = 23.90114 27.11243 25.50678
#
# Velocity S-wave (km/s) = 3.65251 3.89014 3.77320
# Velocity P-wave (km/s) = 6.54603 6.91543 6.73326
#
# Compressibility (1/GPa) = 0.02227071
#
# Stress axis : x y z
#
# Youngs Moduli (GPa) = 45.92378 63.46819 78.69354
#
# Poissons Ratio (x) = 0.31351 0.38592
# Poissons Ratio (y) = 0.22685 0.32581
# Poissons Ratio (z) = 0.22522 0.26277
#
# Static dielectric constant tensor:
#      x y z
#    x 1.620240 0.000010 -0.046310 
#    y 0.000010 1.662800 0.000010 
#    z -0.046310 0.000010 1.696960 
# 
# From -- ./inp_files/40359.got.cif
#   From: 2010.05.17/outbox.cif.g08.bks.cpg/sg15_21_cif.got.tgz:40359.got - 2010.06.03 18:47:42.
