data_PCOD9287890
_publ_section_title
;
Structure prediction by ZEFSAII (Michael W. Deem and Ramdas Pophale) SiO2 
 PCOD9287890
Probable space group: C 2/C
;
_chemical_formula_sum "Si O2"
_cell_formula_units_Z 64
_cell_length_a 18.805564
_cell_length_b 17.042526
_cell_length_c 15.020481
_cell_angle_alpha 90.000000
_cell_angle_beta 139.014811
_cell_angle_gamma 90.000000
_cell_volume 3157.314942
_symmetry_space_group_name_H-M "C 2/C"
_symmetry_group_IT_number 15
_symmetry_cell_setting 'monoclinic'
loop_
_space_group_symop_operation_xyz
x,y,z
-x,y,1/2-z
-x,-y,-z
x,-y,1/2+z
1/2+x,1/2+y,z
1/2-x,1/2+y,1/2-z
1/2-x,1/2-y,-z
1/2+x,1/2-y,1/2+z
loop_
_atom_site_type_symbol
_atom_site_label
_atom_site_fract_x
_atom_site_fract_y
_atom_site_fract_z
Si Si1 0.636716 0.062214 0.290975
Si Si2 0.741211 0.799712 0.364311
Si Si3 0.596004 0.998678 0.449806
Si Si4 0.892685 0.675064 0.599369
Si Si5 0.113577 0.133853 0.648385
Si Si6 0.713352 0.237370 0.364820
Si Si7 0.780142 0.018583 0.264974
Si Si8 0.123361 0.186892 0.132647
O O1 0.637171 0.032949 0.393723
O O2 0.520229 0.037115 0.142143
O O3 0.645976 0.156427 0.296535
O O4 0.731475 0.025667 0.319085
O O5 0.833877 0.738424 0.482460
O O6 0.695125 0.843219 0.406348
O O7 0.795558 0.851672 0.340913
O O8 0.643473 0.751039 0.227414
O O9 0.578724 0.905486 0.422041
O O10 0.683493 0.009482 0.609273
O O11 0.000000 0.705171 0.750000
O O12 0.149799 0.187361 0.766007
O O13 0.998547 0.164795 0.506182
O O14 0.121200 0.040236 0.663760
O O15 0.750000 0.250000 0.500000
O O16 0.815272 0.220676 0.396245
O O17 0.816438 0.107486 0.279420
#
# Coordination Sequence:
#
# PCOD9287890 Si02
#       8
#     8   8   8   8   8   8   8   8
#     4  10  22  38  61  92 122 156 200 255 309 369
#     4  10  22  38  59  88 124 155 192 248 296 372
#     4  11  21  37  62  91 120 158 198 254 310 366
#     4  11  20  36  62  89 124 155 193 242 306 358
#     4  11  23  38  62  85 115 163 202 242 303 361
#     4  10  23  42  61  88 124 156 204 258 307 363
#     4  11  22  40  60  85 121 161 205 254 300 364
#     4  10  22  41  60  86 120 158 201 250 300 364
#
# _framework density 20.270389000000002
#
# number of rings (size 3 to 8) (size 9 to 14) (size 15 to 20)
#    0.000    1.500    2.500    3.000    0.000    4.500 
#    0.000    0.000    0.000    1.500    0.000    0.000 
#    0.000    0.000    0.000    0.000    0.000    0.000 
#
# Total GULP energy -178723.471718 kJ/mol
# GULP energy per Si atom -5585.108491 kJ/mol
# Density = 2.022425 g / cm^3
# Si number density = 20.270389 Si / 1000 Ang^3
#
#
#
# Elastic Constant Matrix: (Units=GPa)
#
#
# Indices 1 2 3 4 5 6 
#
# 1 25.7944 14.3067 1.8609 0.0000 1.4117 0.0000
# 2 14.3067 63.9534 8.6357 0.0000 3.6178 0.0000
# 3 1.8609 8.6357 76.9596 0.0000 3.5958 0.0000
# 4 0.0000 0.0000 0.0000 18.4181 0.0000 2.5067
# 5 1.4117 3.6178 3.5958 0.0000 26.7799 0.0000
# 6 0.0000 0.0000 0.0000 2.5067 0.0000 21.9476
#
#
#
# Elastic Compliance Matrix: (Units=1/GPa)
#
#
# Indices 1 2 3 4 5 6 
#
# 1 0.044287 -0.009861 0.000083 0.000000 -0.001014 0.000000
# 2 -0.009861 0.018171 -0.001721 0.000000 -0.001704 0.000000
# 3 0.000083 -0.001721 0.013257 0.000000 -0.001552 0.000000
# 4 0.000000 0.000000 0.000000 0.055152 0.000000 -0.006299
# 5 -0.001014 -0.001704 -0.001552 0.000000 0.037833 0.000000
# 6 0.000000 0.000000 0.000000 -0.006299 0.000000 0.046282
#
#
# Mechanical properties :
#
#
# Convention : Reuss Voigt Hill
#
# Bulk Modulus (GPa) = 18.96905 24.03490 21.50198
# Shear Modulus (GPa) = 19.56537 22.88940 21.22739
#
# Velocity S-wave (km/s) = 3.11017 3.36401 3.23958
# Velocity P-wave (km/s) = 4.71973 5.19342 4.96223
#
# Compressibility (1/GPa) = 0.05271745
#
# Stress axis : x y z
#
# Youngs Moduli (GPa) = 22.58004 55.03238 75.42927
#
# Poissons Ratio (x) = 0.54268 -0.00626
# Poissons Ratio (y) = 0.22266 0.12981
# Poissons Ratio (z) = -0.00187 0.09471
#
# Static dielectric constant tensor:
#      x y z
#    x 1.714970 0.000000 -0.007630 
#    y 0.000000 1.729300 0.000000 
#    z -0.007630 0.000000 1.705780 
# 
# From -- ./inp_files/163268.got.cif
#   From: 2010.05.17/outbox.cif.g08.bks.cpg/sg15_82_cif.got.tgz:163268.got - 2010.06.03 18:47:42.
