data_PCOD9287470
_publ_section_title
;
Structure prediction by ZEFSAII (Michael W. Deem and Ramdas Pophale) SiO2 
 PCOD9287470
Probable space group: C 2/C
;
_chemical_formula_sum "Si O2"
_cell_formula_units_Z 64
_cell_length_a 19.860020
_cell_length_b 23.832984
_cell_length_c 12.118222
_cell_angle_alpha 90.000000
_cell_angle_beta 149.592396
_cell_angle_gamma 90.000000
_cell_volume 2903.185112
_symmetry_space_group_name_H-M "C 2/C"
_symmetry_group_IT_number 15
_symmetry_cell_setting 'monoclinic'
loop_
_space_group_symop_operation_xyz
x,y,z
-x,y,1/2-z
-x,-y,-z
x,-y,1/2+z
1/2+x,1/2+y,z
1/2-x,1/2+y,1/2-z
1/2-x,1/2-y,-z
1/2+x,1/2-y,1/2+z
loop_
_atom_site_type_symbol
_atom_site_label
_atom_site_fract_x
_atom_site_fract_y
_atom_site_fract_z
Si Si1 0.635893 0.840709 0.891424
Si Si2 0.833600 0.526452 0.615747
Si Si3 0.758611 0.579671 0.142870
Si Si4 0.214182 0.215793 0.692131
Si Si5 0.984987 0.278616 0.493126
Si Si6 0.475367 0.121727 0.594775
Si Si7 0.643778 0.499317 0.145679
Si Si8 0.851161 0.101213 0.003480
O O1 0.500000 0.869702 0.750000
O O2 0.732131 0.877633 0.948138
O O3 0.570885 0.791757 0.723823
O O4 0.720462 0.814383 0.108974
O O5 0.836844 0.472899 0.699752
O O6 0.761871 0.510722 0.400052
O O7 0.739537 0.575279 0.530620
O O8 0.971897 0.558506 0.819818
O O9 0.828239 0.614663 0.339167
O O10 0.643692 0.545438 0.045640
O O11 0.084923 0.249202 0.549466
O O12 0.168404 0.166090 0.547901
O O13 0.341506 0.247823 0.818346
O O14 0.955417 0.339952 0.399204
O O15 0.500000 0.147178 0.750000
O O16 0.500000 0.500000 0.000000
O O17 0.672572 0.438115 0.136172
O O18 0.000000 0.090295 0.250000
#
# Coordination Sequence:
#
# PCOD9287470 Si02
#       8
#     8   8   8   8   8   8   8   8
#     4   9  20  41  69  96 131 162 213 274 329 388
#     4  11  21  39  61  89 129 169 212 258 316 384
#     4  10  22  36  63  98 125 169 212 256 321 394
#     4  11  22  45  67  96 125 175 216 278 333 383
#     4  10  23  42  69  94 129 165 222 272 332 390
#     4  11  21  40  61  94 126 162 211 274 315 384
#     4  11  22  39  63  91 132 174 209 258 315 387
#     4  11  23  40  63  89 129 174 219 262 322 385
#
# _framework density 22.044753
#
# number of rings (size 3 to 8) (size 9 to 14) (size 15 to 20)
#    0.000    1.500    3.750    1.500    0.000    1.000 
#    6.750    1.250    0.000    0.000    0.000    0.000 
#    0.000    0.000    0.000    0.000    0.000    0.000 
#
# Total GULP energy -178302.067548 kJ/mol
# GULP energy per Si atom -5571.939611 kJ/mol
# Density = 2.199458 g / cm^3
# Si number density = 22.044753 Si / 1000 Ang^3
#
#
#
# Elastic Constant Matrix: (Units=GPa)
#
#
# Indices 1 2 3 4 5 6 
#
# 1 87.5329 17.0081 13.1415 0.0000 19.7582 0.0000
# 2 17.0081 47.5727 11.3442 0.0000 11.0805 0.0000
# 3 13.1415 11.3442 54.3329 0.0000 -10.1187 0.0000
# 4 0.0000 0.0000 0.0000 -0.1300 0.0000 -4.4426
# 5 19.7582 11.0805 -10.1187 0.0000 36.9396 0.0000
# 6 0.0000 0.0000 0.0000 -4.4426 0.0000 28.8710
#
#
#
# Elastic Compliance Matrix: (Units=1/GPa)
#
#
# Indices 1 2 3 4 5 6 
#
# 1 0.014405 -0.002115 -0.004594 0.000000 -0.008329 0.000000
# 2 -0.002115 0.025162 -0.006256 0.000000 -0.008130 0.000000
# 3 -0.004594 -0.006256 0.022792 0.000000 0.010577 0.000000
# 4 0.000000 0.000000 0.000000 -1.229111 0.000000 -0.189135
# 5 -0.008329 -0.008130 0.010577 0.000000 0.036862 0.000000
# 6 0.000000 0.000000 0.000000 -0.189135 0.000000 0.005533
#
#
# Mechanical properties :
#
#
# Convention : Reuss Voigt Hill
#
# Bulk Modulus (GPa) = 27.45001 30.26955 28.85978
# Shear Modulus (GPa) = -4.60285 22.99910 9.19813
#
# Velocity S-wave (km/s) = -1.44654 3.23351 2.04488
# Velocity P-wave (km/s) = 3.11271 5.26322 4.32380
#
# Compressibility (1/GPa) = 0.03642986
#
# Stress axis : x y z
#
# Youngs Moduli (GPa) = 69.42108 39.74236 43.87464
#
# Poissons Ratio (x) = 0.08404 0.20155
# Poissons Ratio (y) = 0.14680 0.27449
# Poissons Ratio (z) = 0.31890 0.24864
#
# Static dielectric constant tensor:
#      x y z
#    x 1.917090 0.000000 0.011830 
#    y 0.000000 1.808390 0.000000 
#    z 0.011830 0.000000 1.861680 
# 
# From -- ./inp_files/115027.got.cif
#   From: 2010.05.17/outbox.cif.g08.bks.cpg/sg15_58_cif.got.tgz:115027.got - 2010.06.03 18:47:42.
