data_PCOD9287289
_publ_section_title
;
Structure prediction by ZEFSAII (Michael W. Deem and Ramdas Pophale) SiO2 
 PCOD9287289
Probable space group: C 2/C
;
_chemical_formula_sum "Si O2"
_cell_formula_units_Z 60
_cell_length_a 18.118740
_cell_length_b 20.848628
_cell_length_c 8.177786
_cell_angle_alpha 90.000000
_cell_angle_beta 108.253852
_cell_angle_gamma 90.000000
_cell_volume 2933.712993
_symmetry_space_group_name_H-M "C 2/C"
_symmetry_group_IT_number 15
_symmetry_cell_setting 'monoclinic'
loop_
_space_group_symop_operation_xyz
x,y,z
-x,y,1/2-z
-x,-y,-z
x,-y,1/2+z
1/2+x,1/2+y,z
1/2-x,1/2+y,1/2-z
1/2-x,1/2-y,-z
1/2+x,1/2-y,1/2+z
loop_
_atom_site_type_symbol
_atom_site_label
_atom_site_fract_x
_atom_site_fract_y
_atom_site_fract_z
Si Si1 0.266695 0.069312 0.864781
Si Si2 0.934671 0.223340 0.840283
Si Si3 0.030060 0.681605 0.591475
Si Si4 0.851476 0.522694 0.623962
Si Si5 0.822969 0.702708 0.024489
Si Si6 0.048572 0.438626 0.591002
Si Si7 0.500000 0.516467 0.250000
Si Si8 0.899846 0.078386 0.908405
O O1 0.334683 0.060816 0.777076
O O2 0.188453 0.065203 0.706828
O O3 0.282494 0.133419 0.978175
O O4 0.276060 0.010313 0.994779
O O5 0.876614 0.274499 0.713965
O O6 0.905148 0.154162 0.874331
O O7 0.000000 0.210655 0.750000
O O8 0.975974 0.257628 0.018815
O O9 0.117114 0.702472 0.591750
O O10 0.000000 0.659556 0.750000
O O11 0.002718 0.624762 0.449921
O O12 0.907554 0.463499 0.717031
O O13 0.887359 0.566514 0.508406
O O14 0.750000 0.750000 0.000000
O O15 0.000000 0.500000 0.500000
O O16 0.563485 0.560062 0.390063
O O17 0.547881 0.467782 0.168816
#
# Coordination Sequence:
#
# PCOD9287289 Si02
#       8
#     8   8   8   8   8   8   4   8
#     4  11  21  38  63  89 132 162 207 255 330 380
#     4  10  22  40  63  87 122 165 218 259 311 390
#     4  11  23  39  62  91 126 169 218 265 313 374
#     4  10  22  35  60  95 126 166 202 262 310 377
#     4  11  22  40  63  91 125 175 211 264 321 392
#     4  11  20  36  59  90 127 164 211 252 299 369
#     4  10  24  38  66  90 118 152 212 268 326 380
#     4  11  21  41  62  90 118 158 205 265 324 388
#
# _framework density 20.451898
#
# number of rings (size 3 to 8) (size 9 to 14) (size 15 to 20)
#    0.000    1.333    2.000    5.200    0.933    2.133 
#    0.000    0.667    5.867    0.000    0.000    0.000 
#    0.000    0.000    0.000    0.000    0.000    0.000 
#
# Total GULP energy -167085.115517 kJ/mol
# GULP energy per Si atom -5569.503851 kJ/mol
# Density = 2.040535 g / cm^3
# Si number density = 20.451898 Si / 1000 Ang^3
#
#
#
# Elastic Constant Matrix: (Units=GPa)
#
#
# Indices 1 2 3 4 5 6 
#
# 1 76.8422 34.6757 19.5626 0.0000 15.0565 0.0000
# 2 34.6757 94.0623 34.5642 0.0000 4.1646 0.0000
# 3 19.5626 34.5642 83.6752 0.0000 14.7471 0.0000
# 4 0.0000 0.0000 0.0000 24.6519 0.0000 8.9891
# 5 15.0565 4.1646 14.7471 0.0000 36.9964 0.0000
# 6 0.0000 0.0000 0.0000 8.9891 0.0000 30.2666
#
#
#
# Elastic Compliance Matrix: (Units=1/GPa)
#
#
# Indices 1 2 3 4 5 6 
#
# 1 0.016939 -0.005792 -0.000503 0.000000 -0.006041 0.000000
# 2 -0.005792 0.014531 -0.005136 0.000000 0.002769 0.000000
# 3 -0.000503 -0.005136 0.015114 0.000000 -0.005242 0.000000
# 4 0.000000 0.000000 0.000000 0.045491 0.000000 -0.013511
# 5 -0.006041 0.002769 -0.005242 0.000000 0.031266 0.000000
# 6 0.000000 0.000000 0.000000 -0.013511 0.000000 0.037052
#
#
# Mechanical properties :
#
#
# Convention : Reuss Voigt Hill
#
# Bulk Modulus (GPa) = 42.15563 48.02053 45.08808
# Shear Modulus (GPa) = 26.15541 29.43480 27.79510
#
# Velocity S-wave (km/s) = 3.58002 3.79782 3.69053
# Velocity P-wave (km/s) = 6.14374 6.53927 6.34458
#
# Compressibility (1/GPa) = 0.02372162
#
# Stress axis : x y z
#
# Youngs Moduli (GPa) = 59.03437 68.81648 66.16351
#
# Poissons Ratio (x) = 0.39861 0.03327
# Poissons Ratio (y) = 0.34195 0.33984
# Poissons Ratio (z) = 0.02969 0.35347
#
# Static dielectric constant tensor:
#      x y z
#    x 1.781780 0.000000 0.003620 
#    y 0.000000 1.711670 0.000000 
#    z 0.003620 0.000000 1.760020 
# 
# From -- ./inp_files/50306.got.cif
#   From: 2010.05.17/outbox.cif.g08.bks.cpg/sg15_26_cif.got.tgz:50306.got - 2010.06.03 18:47:42.
