data_PCOD9287078
_publ_section_title
;
Structure prediction by ZEFSAII (Michael W. Deem and Ramdas Pophale) SiO2 
 PCOD9287078
Probable space group: C 2/C
;
_chemical_formula_sum "Si O2"
_cell_formula_units_Z 52
_cell_length_a 11.889244
_cell_length_b 8.430036
_cell_length_c 28.458396
_cell_angle_alpha 90.000000
_cell_angle_beta 54.111008
_cell_angle_gamma 90.000000
_cell_volume 2310.797132
_symmetry_space_group_name_H-M "C 2/C"
_symmetry_group_IT_number 15
_symmetry_cell_setting 'monoclinic'
loop_
_space_group_symop_operation_xyz
x,y,z
-x,y,1/2-z
-x,-y,-z
x,-y,1/2+z
1/2+x,1/2+y,z
1/2-x,1/2+y,1/2-z
1/2-x,1/2-y,-z
1/2+x,1/2-y,1/2+z
loop_
_atom_site_type_symbol
_atom_site_label
_atom_site_fract_x
_atom_site_fract_y
_atom_site_fract_z
Si Si1 0.166368 0.765029 0.708624
Si Si2 0.000000 0.215022 0.750000
Si Si3 0.349200 0.422956 0.533624
Si Si4 0.868784 0.011428 0.705130
Si Si5 0.840361 0.543855 0.098573
Si Si6 0.641490 0.064071 0.009096
Si Si7 0.210985 0.813227 0.852543
O O1 0.258755 0.625499 0.707163
O O2 0.230854 0.829034 0.644372
O O3 0.000000 0.736620 0.750000
O O4 0.194372 0.911057 0.737029
O O5 0.016516 0.111798 0.794163
O O6 0.140585 0.312276 0.709618
O O7 0.500000 0.500000 0.500000
O O8 0.345904 0.240841 0.515847
O O9 0.256020 0.500843 0.516573
O O10 0.287469 0.417679 0.600931
O O11 0.902379 0.884393 0.655982
O O12 0.812173 0.367917 0.125717
O O13 0.999377 0.576904 0.073343
O O14 0.851877 0.542447 0.039228
#
# Coordination Sequence:
#
# PCOD9287078 Si02
#       7
#     8   4   8   8   8   8   8
#     4  12  25  43  68 101 135 178 227 276 345 407
#     4  12  24  46  68  96 142 188 222 286 348 400
#     4  10  23  42  67 106 129 177 230 279 342 401
#     4  12  25  44  66  98 137 178 227 282 335 415
#     4  10  21  46  70  98 135 182 223 278 345 394
#     4   9  22  44  69  94 140 174 223 282 334 408
#     4  11  25  43  68 100 138 178 229 279 342 411
#
# _framework density 22.503056000000001
#
# number of rings (size 3 to 8) (size 9 to 14) (size 15 to 20)
#    0.000    1.231    3.846    0.000    5.385    3.692 
#    2.769    8.462    0.000    0.000    0.000    0.000 
#    0.000    0.000    0.000    0.000    0.000    0.000 
#
# Total GULP energy -145066.259710 kJ/mol
# GULP energy per Si atom -5579.471527 kJ/mol
# Density = 2.245184 g / cm^3
# Si number density = 22.503056 Si / 1000 Ang^3
#
#
#
# Elastic Constant Matrix: (Units=GPa)
#
#
# Indices 1 2 3 4 5 6 
#
# 1 136.2819 17.7050 39.7927 0.0000 13.2318 0.0000
# 2 17.7050 39.2647 0.1262 0.0000 9.4282 0.0000
# 3 39.7927 0.1262 78.7839 0.0000 5.6519 0.0000
# 4 0.0000 0.0000 0.0000 22.4203 0.0000 4.9355
# 5 13.2318 9.4282 5.6519 0.0000 26.4683 0.0000
# 6 0.0000 0.0000 0.0000 4.9355 0.0000 31.5494
#
#
#
# Elastic Compliance Matrix: (Units=1/GPa)
#
#
# Indices 1 2 3 4 5 6 
#
# 1 0.009375 -0.003631 -0.004556 0.000000 -0.002420 0.000000
# 2 -0.003631 0.029293 0.002443 0.000000 -0.009141 0.000000
# 3 -0.004556 0.002443 0.015121 0.000000 -0.001822 0.000000
# 4 0.000000 0.000000 0.000000 0.046193 0.000000 -0.007226
# 5 -0.002420 -0.009141 -0.001822 0.000000 0.042636 0.000000
# 6 0.000000 0.000000 0.000000 -0.007226 0.000000 0.032827
#
#
# Mechanical properties :
#
#
# Convention : Reuss Voigt Hill
#
# Bulk Modulus (GPa) = 23.64067 41.06425 32.35246
# Shear Modulus (GPa) = 24.87171 29.20139 27.03655
#
# Velocity S-wave (km/s) = 3.32815 3.60622 3.46997
# Velocity P-wave (km/s) = 5.02962 5.96889 5.51927
#
# Compressibility (1/GPa) = 0.04229999
#
# Stress axis : x y z
#
# Youngs Moduli (GPa) = 106.67057 34.13828 66.13456
#
# Poissons Ratio (x) = 0.12397 0.30128
# Poissons Ratio (y) = 0.38736 -0.16157
# Poissons Ratio (z) = 0.48595 -0.08340
#
# Static dielectric constant tensor:
#      x y z
#    x 1.856960 0.000000 0.020350 
#    y 0.000000 1.899130 0.000000 
#    z 0.020350 0.000000 1.834100 
# 
# From -- ./inp_files/291478.got.cif
#   From: 2010.05.17/outbox.cif.g08.bks.cpg/sg15_146_cif.got.tgz:291478.got - 2010.06.03 18:47:42.
