data_PCOD9287815
_publ_section_title
;
Structure prediction by ZEFSAII (Michael W. Deem and Ramdas Pophale) SiO2 
 PCOD9287815
Probable space group: C 2/C
;
_chemical_formula_sum "Si O2"
_cell_formula_units_Z 56
_cell_length_a 23.513697
_cell_length_b 9.105228
_cell_length_c 16.818060
_cell_angle_alpha 90.000000
_cell_angle_beta 55.457731
_cell_angle_gamma 90.000000
_cell_volume 2965.930575
_symmetry_space_group_name_H-M "C 2/C"
_symmetry_group_IT_number 15
_symmetry_cell_setting 'monoclinic'
loop_
_space_group_symop_operation_xyz
x,y,z
-x,y,1/2-z
-x,-y,-z
x,-y,1/2+z
1/2+x,1/2+y,z
1/2-x,1/2+y,1/2-z
1/2-x,1/2-y,-z
1/2+x,1/2-y,1/2+z
loop_
_atom_site_type_symbol
_atom_site_label
_atom_site_fract_x
_atom_site_fract_y
_atom_site_fract_z
Si Si1 0.115110 0.993930 0.757269
Si Si2 0.337264 0.817459 0.759805
Si Si3 0.211826 0.419266 0.115771
Si Si4 0.070090 0.447475 0.401106
Si Si5 0.350047 0.336317 0.936786
Si Si6 0.998247 0.783473 0.845895
Si Si7 0.310958 0.256623 0.701399
O O1 0.125884 0.165656 0.750565
O O2 0.134655 0.929999 0.654862
O O3 0.038251 0.934046 0.832222
O O4 0.161076 0.911753 0.787490
O O5 0.261288 0.781040 0.785062
O O6 0.322944 0.923301 0.846304
O O7 0.385781 0.912421 0.662562
O O8 0.178342 0.318734 0.074060
O O9 0.202141 0.338313 0.208037
O O10 0.292493 0.419669 0.032435
O O11 0.040076 0.347587 0.353143
O O12 0.128265 0.335396 0.391861
O O13 0.000000 0.500000 0.500000
O O14 0.418838 0.301700 0.930983
O O15 0.000000 0.758296 0.750000
#
# Coordination Sequence:
#
# PCOD9287815 Si02
#       7
#     8   8   8   8   8   8   8
#     4   9  18  33  54  79 106 143 179 226 276 328
#     4  11  20  35  56  81 115 144 179 235 284 324
#     4   9  19  34  57  81 104 145 189 223 270 334
#     4  10  22  38  57  87 113 146 195 234 271 340
#     4   9  18  36  56  77 106 146 189 223 267 343
#     4   9  18  37  58  76 110 153 183 221 284 341
#     4   9  19  37  56  76 113 151 179 215 287 337
#
# _framework density 18.88109
#
# number of rings (size 3 to 8) (size 9 to 14) (size 15 to 20)
#    0.000    2.571    0.000    4.286    2.000    0.571 
#    5.143    7.857    0.000    0.000    0.000    0.000 
#    0.000    0.000    0.000    0.000    0.000    0.000 
#
# Total GULP energy -156014.465546 kJ/mol
# GULP energy per Si atom -5571.945198 kJ/mol
# Density = 1.883812 g / cm^3
# Si number density = 18.881090 Si / 1000 Ang^3
#
#
#
# Elastic Constant Matrix: (Units=GPa)
#
#
# Indices 1 2 3 4 5 6 
#
# 1 98.1420 41.9650 26.9951 0.0000 -28.3235 0.0000
# 2 41.9650 133.6368 24.2019 0.0000 -12.8904 -0.0001
# 3 26.9951 24.2019 58.0849 0.0000 -32.9406 0.0000
# 4 0.0000 0.0000 0.0000 11.7873 0.0000 -10.4565
# 5 -28.3235 -12.8904 -32.9406 0.0000 31.7876 0.0000
# 6 0.0000 -0.0001 0.0000 -10.4565 0.0000 15.5395
#
#
#
# Elastic Compliance Matrix: (Units=1/GPa)
#
#
# Indices 1 2 3 4 5 6 
#
# 1 0.015476 -0.003953 0.003312 0.000000 0.015619 0.000000
# 2 -0.003953 0.009107 -0.004512 0.000000 -0.004505 0.000000
# 3 0.003312 -0.004512 0.044123 0.000000 0.046845 0.000000
# 4 0.000000 0.000000 0.000000 0.210478 0.000000 0.141630
# 5 0.015619 -0.004505 0.046845 0.000000 0.092093 0.000000
# 6 0.000000 0.000000 0.000000 0.141630 0.000000 0.159655
#
#
# Mechanical properties :
#
#
# Convention : Reuss Voigt Hill
#
# Bulk Modulus (GPa) = 17.12324 52.90974 35.01649
# Shear Modulus (GPa) = 8.91733 24.93631 16.92682
#
# Velocity S-wave (km/s) = 2.17558 3.63809 2.99740
# Velocity P-wave (km/s) = 3.92422 6.76247 5.52859
#
# Compressibility (1/GPa) = 0.05840015
#
# Stress axis : x y z
#
# Youngs Moduli (GPa) = 64.61533 109.80603 22.66366
#
# Poissons Ratio (x) = 0.43408 -0.07507
# Poissons Ratio (y) = 0.25543 0.10227
# Poissons Ratio (z) = -0.21402 0.49548
#
# Static dielectric constant tensor:
#      x y z
#    x 1.674630 0.000000 -0.031670 
#    y 0.000000 1.654020 0.000000 
#    z -0.031670 0.000000 1.684360 
# 
# From -- ./inp_files/218175.got.cif
#   From: 2010.05.17/outbox.cif.g08.bks.cpg/sg15_110_cif.got.tgz:218175.got - 2010.06.03 18:47:42.
