data_PCOD9287252
_publ_section_title
;
Structure prediction by ZEFSAII (Michael W. Deem and Ramdas Pophale) SiO2 
 PCOD9287252
Probable space group: C 2/C
;
_chemical_formula_sum "Si O2"
_cell_formula_units_Z 56
_cell_length_a 24.470803
_cell_length_b 12.623755
_cell_length_c 27.893123
_cell_angle_alpha 90.000000
_cell_angle_beta 20.470242
_cell_angle_gamma 90.000000
_cell_volume 3013.390710
_symmetry_space_group_name_H-M "C 2/C"
_symmetry_group_IT_number 15
_symmetry_cell_setting 'monoclinic'
loop_
_space_group_symop_operation_xyz
x,y,z
-x,y,1/2-z
-x,-y,-z
x,-y,1/2+z
1/2+x,1/2+y,z
1/2-x,1/2+y,1/2-z
1/2-x,1/2-y,-z
1/2+x,1/2-y,1/2+z
loop_
_atom_site_type_symbol
_atom_site_label
_atom_site_fract_x
_atom_site_fract_y
_atom_site_fract_z
Si Si1 0.651929 0.519560 0.252618
Si Si2 0.048304 0.145114 0.765013
Si Si3 0.095772 0.573149 0.327579
Si Si4 0.867480 0.240397 0.998167
Si Si5 0.414866 0.541063 0.021350
Si Si6 0.133181 0.622738 0.853603
Si Si7 0.326825 0.207797 0.145402
O O1 0.613509 0.463064 0.234556
O O2 0.494285 0.526075 0.413960
O O3 0.763164 0.436546 0.191164
O O4 0.728831 0.634469 0.189714
O O5 0.187634 0.231564 0.654244
O O6 0.000000 0.134406 0.750000
O O7 0.908205 0.182962 0.914835
O O8 0.229134 0.536058 0.181600
O O9 0.041958 0.470212 0.400837
O O10 0.182028 0.644848 0.296789
O O11 0.959789 0.648480 0.421409
O O12 0.932957 0.162047 0.985961
O O13 0.500000 0.500000 0.000000
O O14 0.246811 0.681748 0.723173
O O15 0.005201 0.700986 0.981038
#
# Coordination Sequence:
#
# PCOD9287252 Si02
#       7
#     8   8   8   8   8   8   8
#     4  10  22  35  53  77 114 143 188 226 283 329
#     4  11  22  38  58  82 107 146 197 241 285 331
#     4  11  22  34  54  78 117 151 183 223 282 344
#     4  11  22  38  58  81 118 152 185 235 289 335
#     4  11  20  34  53  84 110 153 185 223 273 347
#     4  11  23  34  52  81 114 150 182 222 274 350
#     4  11  22  33  52  77 113 148 185 216 274 344
#
# _framework density 18.583715999999999
#
# number of rings (size 3 to 8) (size 9 to 14) (size 15 to 20)
#    0.000    1.143    4.286    5.571    6.000    0.000 
#    0.000    0.000    0.000    0.000    0.000    5.000 
#    0.000    0.000    0.000    0.000    0.000    0.000 
#
# Total GULP energy -156267.902889 kJ/mol
# GULP energy per Si atom -5580.996532 kJ/mol
# Density = 1.854142 g / cm^3
# Si number density = 18.583716 Si / 1000 Ang^3
#
#
#
# Elastic Constant Matrix: (Units=GPa)
#
#
# Indices 1 2 3 4 5 6 
#
# 1 78.4617 28.6809 2.1236 0.0014 13.0950 0.0011
# 2 28.6809 69.1134 9.0657 -0.0049 4.2761 0.0040
# 3 2.1236 9.0657 90.8314 -0.0037 13.4331 0.0026
# 4 0.0014 -0.0049 -0.0037 29.6242 0.0012 0.0841
# 5 13.0950 4.2761 13.4331 0.0012 18.5409 -0.0002
# 6 0.0011 0.0040 0.0026 0.0841 -0.0002 16.2400
#
#
#
# Elastic Compliance Matrix: (Units=1/GPa)
#
#
# Indices 1 2 3 4 5 6 
#
# 1 0.017123 -0.006628 0.002043 -0.000001 -0.012045 0.000000
# 2 -0.006628 0.017340 -0.001878 0.000003 0.002043 -0.000004
# 3 0.002043 -0.001878 0.012654 0.000002 -0.010178 -0.000002
# 4 -0.000001 0.000003 0.000002 0.033757 -0.000003 -0.000175
# 5 -0.012045 0.002043 -0.010178 -0.000003 0.069344 0.000003
# 6 0.000000 -0.000004 -0.000002 -0.000175 0.000003 0.061577
#
#
# Mechanical properties :
#
#
# Convention : Reuss Voigt Hill
#
# Bulk Modulus (GPa) = 29.24887 35.34965 32.29926
# Shear Modulus (GPa) = 21.17575 26.11675 23.64625
#
# Velocity S-wave (km/s) = 3.37928 3.75288 3.57097
# Velocity P-wave (km/s) = 5.56769 6.15158 5.86690
#
# Compressibility (1/GPa) = 0.03418935
#
# Stress axis : x y z
#
# Youngs Moduli (GPa) = 58.40107 57.67150 79.02483
#
# Poissons Ratio (x) = 0.38227 -0.16141
# Poissons Ratio (y) = 0.38711 0.14839
# Poissons Ratio (z) = -0.11929 0.10830
#
# Static dielectric constant tensor:
#      x y z
#    x 1.619450 0.000000 0.009650 
#    y 0.000000 1.700720 0.000010 
#    z 0.009650 0.000010 1.714950 
# 
# From -- ./inp_files/319514.got.cif
#   From: 2010.05.17/outbox.cif.g08.bks.cpg/sg15_160_cif.got.tgz:319514.got - 2010.06.03 18:47:42.
