data_PCOD9287762
_publ_section_title
;
Structure prediction by ZEFSAII (Michael W. Deem and Ramdas Pophale) SiO2 
 PCOD9287762
Probable space group: C 2/C
;
_chemical_formula_sum "Si O2"
_cell_formula_units_Z 48
_cell_length_a 18.870778
_cell_length_b 6.602369
_cell_length_c 27.794198
_cell_angle_alpha 90.000000
_cell_angle_beta 142.724199
_cell_angle_gamma 90.000000
_cell_volume 2097.331941
_symmetry_space_group_name_H-M "C 2/C"
_symmetry_group_IT_number 15
_symmetry_cell_setting 'monoclinic'
loop_
_space_group_symop_operation_xyz
x,y,z
-x,y,1/2-z
-x,-y,-z
x,-y,1/2+z
1/2+x,1/2+y,z
1/2-x,1/2+y,1/2-z
1/2-x,1/2-y,-z
1/2+x,1/2-y,1/2+z
loop_
_atom_site_type_symbol
_atom_site_label
_atom_site_fract_x
_atom_site_fract_y
_atom_site_fract_z
Si Si1 0.516916 0.432952 0.954405
Si Si2 0.912710 0.328979 0.605649
Si Si3 0.399024 0.950057 0.352791
Si Si4 0.780885 0.581876 0.612452
Si Si5 0.214288 0.941718 0.946861
Si Si6 0.707244 0.668186 0.677370
O O1 0.603315 0.588237 0.895811
O O2 0.487995 0.200847 0.927005
O O3 0.411849 0.552523 0.872674
O O4 0.500000 0.500000 0.000000
O O5 0.873018 0.442097 0.633718
O O6 0.032683 0.419975 0.650772
O O7 0.679034 0.095131 0.485383
O O8 0.298110 0.831862 0.269867
O O9 0.337738 0.104470 0.356297
O O10 0.802064 0.818607 0.611182
O O11 0.653484 0.526408 0.521165
O O12 0.764894 0.568796 0.661105
O O13 0.250000 0.750000 0.000000
#
# Coordination Sequence:
#
# PCOD9287762 Si02
#       6
#     8   8   8   8   8   8
#     4  10  23  42  66  99 136 176 230 285 340 416
#     4  10  22  37  68  97 133 172 222 283 346 408
#     4  12  24  44  68  97 136 186 230 280 354 413
#     4  10  22  41  66  98 135 169 227 288 345 402
#     4   9  19  37  62 101 129 166 217 283 336 399
#     4  11  26  42  66  96 139 185 229 281 344 418
#
# _framework density 22.886219000000001
#
# number of rings (size 3 to 8) (size 9 to 14) (size 15 to 20)
#    0.000    1.667    3.333    0.000    7.000    6.000 
#    0.000    0.000    0.000    0.000    0.000    0.000 
#    0.000    0.000    0.000    0.000    0.000    0.000 
#
# Total GULP energy -133796.474107 kJ/mol
# GULP energy per Si atom -5574.853088 kJ/mol
# Density = 2.283413 g / cm^3
# Si number density = 22.886219 Si / 1000 Ang^3
#
#
#
# Elastic Constant Matrix: (Units=GPa)
#
#
# Indices 1 2 3 4 5 6 
#
# 1 104.0388 32.5492 14.1315 -0.0005 -9.6799 0.0010
# 2 32.5492 117.7366 17.5872 -0.0014 -6.1737 0.0029
# 3 14.1315 17.5872 52.4094 0.0000 7.0943 0.0001
# 4 -0.0005 -0.0014 0.0000 17.2707 -0.0001 3.4540
# 5 -9.6799 -6.1737 7.0943 -0.0001 19.4942 -0.0001
# 6 0.0010 0.0029 0.0001 3.4540 -0.0001 44.2735
#
#
#
# Elastic Compliance Matrix: (Units=1/GPa)
#
#
# Indices 1 2 3 4 5 6 
#
# 1 0.011325 -0.002357 -0.003074 0.000000 0.005995 0.000000
# 2 -0.002357 0.009760 -0.003050 0.000001 0.003030 -0.000001
# 3 -0.003074 -0.003050 0.022372 0.000000 -0.010634 0.000000
# 4 0.000000 0.000001 0.000000 0.058819 0.000001 -0.004589
# 5 0.005995 0.003030 -0.010634 0.000001 0.059104 0.000000
# 6 0.000000 -0.000001 0.000000 -0.004589 0.000000 0.022945
#
#
# Mechanical properties :
#
#
# Convention : Reuss Voigt Hill
#
# Bulk Modulus (GPa) = 37.74350 44.74673 41.24512
# Shear Modulus (GPa) = 23.79616 30.20215 26.99915
#
# Velocity S-wave (km/s) = 3.22803 3.63666 3.43842
# Velocity P-wave (km/s) = 5.51554 6.10148 5.81589
#
# Compressibility (1/GPa) = 0.02649463
#
# Stress axis : x y z
#
# Youngs Moduli (GPa) = 88.30301 102.46278 44.69829
#
# Poissons Ratio (x) = 0.24153 0.13741
# Poissons Ratio (y) = 0.20815 0.13631
# Poissons Ratio (z) = 0.27145 0.31248
#
# Static dielectric constant tensor:
#      x y z
#    x 1.957290 0.000000 0.005780 
#    y 0.000000 1.966700 0.000000 
#    z 0.005780 0.000000 1.871430 
# 
# From -- ./inp_files/316915.got.cif
#   From: 2010.05.17/outbox.cif.g08.bks.cpg/sg15_159_cif.got.tgz:316915.got - 2010.06.03 18:47:42.
