data_PCOD9287031
_publ_section_title
;
Structure prediction by ZEFSAII (Michael W. Deem and Ramdas Pophale) SiO2 
 PCOD9287031
Probable space group: C 2/C
;
_chemical_formula_sum "Si O2"
_cell_formula_units_Z 56
_cell_length_a 15.755580
_cell_length_b 14.861100
_cell_length_c 13.823549
_cell_angle_alpha 90.000000
_cell_angle_beta 46.016481
_cell_angle_gamma 90.000000
_cell_volume 2328.946976
_symmetry_space_group_name_H-M "C 2/C"
_symmetry_group_IT_number 15
_symmetry_cell_setting 'monoclinic'
loop_
_space_group_symop_operation_xyz
x,y,z
-x,y,1/2-z
-x,-y,-z
x,-y,1/2+z
1/2+x,1/2+y,z
1/2-x,1/2+y,1/2-z
1/2-x,1/2-y,-z
1/2+x,1/2-y,1/2+z
loop_
_atom_site_type_symbol
_atom_site_label
_atom_site_fract_x
_atom_site_fract_y
_atom_site_fract_z
Si Si1 0.991155 0.679452 0.362840
Si Si2 0.215963 0.398336 0.371105
Si Si3 0.616567 0.989513 0.284045
Si Si4 0.546808 0.511018 0.807470
Si Si5 0.750000 0.250000 0.500000
Si Si6 0.648490 0.417123 0.913481
Si Si7 0.500000 0.836346 0.250000
Si Si8 0.206249 0.736203 0.307478
O O1 0.857301 0.661982 0.498121
O O2 0.000000 0.722389 0.250000
O O3 0.046299 0.579261 0.314439
O O4 0.069681 0.725667 0.383499
O O5 0.136088 0.474679 0.383522
O O6 0.333234 0.440867 0.319187
O O7 0.255851 0.336324 0.250474
O O8 0.550530 0.904743 0.291532
O O9 0.749922 0.009575 0.140388
O O10 0.500000 0.461218 0.750000
O O11 0.580728 0.448736 0.870282
O O12 0.449136 0.580682 0.925738
O O13 0.611437 0.221601 0.629266
O O14 0.766362 0.279769 0.602954
O O15 0.720056 0.329750 0.822356
#
# Coordination Sequence:
#
# PCOD9287031 Si02
#       8
#     8   8   8   8   4   8   4   8
#     4  11  25  44  73 102 136 189 246 298 354 431
#     4  11  24  42  67 100 141 181 230 302 361 421
#     4  10  21  45  73  99 138 182 238 299 345 431
#     4  10  23  42  70  98 137 185 234 292 355 425
#     4  12  28  46  74 112 144 194 230 300 370 436
#     4   9  23  46  65 103 140 182 238 297 351 426
#     4  12  24  46  78 108 144 190 240 292 366 432
#     4  11  26  46  69 102 145 183 238 292 365 438
#
# _framework density 24.045202
#
# number of rings (size 3 to 8) (size 9 to 14) (size 15 to 20)
#    0.000    1.429    2.143    1.286    6.000    4.571 
#    6.429    0.000    0.000    0.000    0.000    0.000 
#    0.000    0.000    0.000    0.000    0.000    0.000 
#
# Total GULP energy -156036.730847 kJ/mol
# GULP energy per Si atom -5572.740387 kJ/mol
# Density = 2.399047 g / cm^3
# Si number density = 24.045202 Si / 1000 Ang^3
#
#
#
# Elastic Constant Matrix: (Units=GPa)
#
#
# Indices 1 2 3 4 5 6 
#
# 1 145.4180 23.4948 54.1114 0.0000 -1.9982 0.0000
# 2 23.4948 45.3814 9.6084 0.0000 -13.2222 0.0000
# 3 54.1114 9.6084 76.7364 0.0000 -11.8373 0.0000
# 4 0.0000 0.0000 0.0000 7.1372 0.0000 -2.5393
# 5 -1.9982 -13.2222 -11.8373 0.0000 31.6708 0.0000
# 6 0.0000 0.0000 0.0000 -2.5393 0.0000 14.3585
#
#
#
# Elastic Compliance Matrix: (Units=1/GPa)
#
#
# Indices 1 2 3 4 5 6 
#
# 1 0.010355 -0.005030 -0.007317 0.000000 -0.004181 0.000000
# 2 -0.005030 0.027721 0.001923 0.000000 0.011975 0.000000
# 3 -0.007317 0.001923 0.019104 0.000000 0.007482 0.000000
# 4 0.000000 0.000000 0.000000 0.149519 0.000000 0.026443
# 5 -0.004181 0.011975 0.007482 0.000000 0.039107 0.000000
# 6 0.000000 0.000000 0.000000 0.026443 0.000000 0.074322
#
#
# Mechanical properties :
#
#
# Convention : Reuss Voigt Hill
#
# Bulk Modulus (GPa) = 27.52323 49.10721 38.31522
# Shear Modulus (GPa) = 14.16086 22.65472 18.40779
#
# Velocity S-wave (km/s) = 2.42941 3.07281 2.76986
# Velocity P-wave (km/s) = 4.39781 5.74950 5.11847
#
# Compressibility (1/GPa) = 0.03633295
#
# Stress axis : x y z
#
# Youngs Moduli (GPa) = 96.57543 36.07336 52.34370
#
# Poissons Ratio (x) = 0.18144 0.38299
# Poissons Ratio (y) = 0.48576 -0.10066
# Poissons Ratio (z) = 0.70663 -0.06937
#
# Static dielectric constant tensor:
#      x y z
#    x 1.904750 0.000000 -0.022420 
#    y 0.000000 1.963520 0.000000 
#    z -0.022420 0.000000 1.943870 
# 
# From -- ./inp_files/155157.got.cif
#   From: 2010.05.17/outbox.cif.g08.bks.cpg/sg15_78_cif.got.tgz:155157.got - 2010.06.03 18:47:42.
