data_PCOD9287778
_publ_section_title
;
Structure prediction by ZEFSAII (Michael W. Deem and Ramdas Pophale) SiO2 
 PCOD9287778
Probable space group: C 2/C
;
_chemical_formula_sum "Si O2"
_cell_formula_units_Z 56
_cell_length_a 32.799912
_cell_length_b 11.081782
_cell_length_c 9.218117
_cell_angle_alpha 90.000000
_cell_angle_beta 111.347797
_cell_angle_gamma 90.000000
_cell_volume 3120.721956
_symmetry_space_group_name_H-M "C 2/C"
_symmetry_group_IT_number 15
_symmetry_cell_setting 'monoclinic'
loop_
_space_group_symop_operation_xyz
x,y,z
-x,y,1/2-z
-x,-y,-z
x,-y,1/2+z
1/2+x,1/2+y,z
1/2-x,1/2+y,1/2-z
1/2-x,1/2-y,-z
1/2+x,1/2-y,1/2+z
loop_
_atom_site_type_symbol
_atom_site_label
_atom_site_fract_x
_atom_site_fract_y
_atom_site_fract_z
Si Si1 0.293121 0.331162 0.030184
Si Si2 0.782955 0.643695 0.571133
Si Si3 0.532161 0.146537 0.156652
Si Si4 0.126432 0.353756 0.882986
Si Si5 0.969423 0.369044 0.348613
Si Si6 0.125098 0.613343 0.727548
Si Si7 0.738751 0.495476 0.768817
O O1 0.286540 0.400023 0.867351
O O2 0.250000 0.250000 0.000000
O O3 0.334847 0.242766 0.086190
O O4 0.291871 0.428234 0.160800
O O5 0.750000 0.750000 0.500000
O O6 0.832122 0.683656 0.663595
O O7 0.765099 0.577378 0.690188
O O8 0.775735 0.561015 0.421111
O O9 0.500000 0.138592 0.250000
O O10 0.579375 0.194336 0.263550
O O11 0.539787 0.008133 0.111909
O O12 0.500316 0.204603 0.997162
O O13 0.133500 0.478420 0.802848
O O14 0.122093 0.384990 0.048697
O O15 0.919542 0.328934 0.267224
O O16 0.000000 0.377353 0.250000
#
# Coordination Sequence:
#
# PCOD9287778 Si02
#       7
#     8   8   8   8   8   8   8
#     4  11  22  39  57  82 111 145 189 224 272 328
#     4  11  21  36  54  76 106 141 179 218 264 317
#     4   9  16  31  47  71 106 143 176 212 269 323
#     4  11  22  33  54  80 111 148 185 217 266 335
#     4   9  18  30  45  70 109 146 176 212 266 329
#     4  11  21  32  50  78 112 148 181 218 269 323
#     4  10  22  38  55  75 112 143 177 231 270 304
#
# _framework density 17.944565000000001
#
# number of rings (size 3 to 8) (size 9 to 14) (size 15 to 20)
#    0.000    1.714    1.429    5.143    6.000    1.143 
#    0.000    0.000    0.000    0.000    0.000    1.000 
#    0.000    0.000    0.000    0.000    0.000    0.000 
#
# Total GULP energy -155959.092313 kJ/mol
# GULP energy per Si atom -5569.967583 kJ/mol
# Density = 1.790372 g / cm^3
# Si number density = 17.944565 Si / 1000 Ang^3
#
#
#
# Elastic Constant Matrix: (Units=GPa)
#
#
# Indices 1 2 3 4 5 6 
#
# 1 148.3670 38.9854 74.4789 0.0000 37.2082 0.0000
# 2 38.9854 39.0624 41.0807 0.0000 3.8382 0.0000
# 3 74.4789 41.0807 134.7508 0.0000 10.5930 0.0000
# 4 0.0000 0.0000 0.0000 31.8038 0.0000 30.8421
# 5 37.2082 3.8382 10.5930 0.0000 38.5738 0.0000
# 6 0.0000 0.0000 0.0000 30.8421 0.0000 75.1219
#
#
#
# Elastic Compliance Matrix: (Units=1/GPa)
#
#
# Indices 1 2 3 4 5 6 
#
# 1 0.013932 -0.008284 -0.004276 0.000000 -0.011441 0.000000
# 2 -0.008284 0.042621 -0.008902 0.000000 0.006195 0.000000
# 3 -0.004276 -0.008902 0.012371 0.000000 0.001613 0.000000
# 4 0.000000 0.000000 0.000000 0.052243 0.000000 -0.021449
# 5 -0.011441 0.006195 0.001613 0.000000 0.035901 0.000000
# 6 0.000000 0.000000 0.000000 -0.021449 0.000000 0.022118
#
#
# Mechanical properties :
#
#
# Convention : Reuss Voigt Hill
#
# Bulk Modulus (GPa) = 38.45940 70.14113 54.30027
# Shear Modulus (GPa) = 21.66595 40.27559 30.97077
#
# Velocity S-wave (km/s) = 3.47851 4.74270 4.15892
# Velocity P-wave (km/s) = 6.13288 8.31646 7.30670
#
# Compressibility (1/GPa) = 0.02600145
#
# Stress axis : x y z
#
# Youngs Moduli (GPa) = 71.77578 23.46263 80.83134
#
# Poissons Ratio (x) = 0.19437 0.34561
# Poissons Ratio (y) = 0.59459 0.71955
# Poissons Ratio (z) = 0.30689 0.20886
#
# Static dielectric constant tensor:
#      x y z
#    x 1.614720 0.000000 0.077070 
#    y 0.000000 1.634130 0.000000 
#    z 0.077070 0.000000 1.614190 
# 
# From -- ./inp_files/69152.got.cif
#   From: 2010.05.17/outbox.cif.g08.bks.cpg/sg15_35_cif.got.tgz:69152.got - 2010.06.03 18:47:42.
