data_PCOD9287919
_publ_section_title
;
Structure prediction by ZEFSAII (Michael W. Deem and Ramdas Pophale) SiO2 
 PCOD9287919
Probable space group: C 2/C
;
_chemical_formula_sum "Si O2"
_cell_formula_units_Z 48
_cell_length_a 12.519321
_cell_length_b 7.862270
_cell_length_c 25.050671
_cell_angle_alpha 90.000000
_cell_angle_beta 78.189807
_cell_angle_gamma 90.000000
_cell_volume 2413.547244
_symmetry_space_group_name_H-M "C 2/C"
_symmetry_group_IT_number 15
_symmetry_cell_setting 'monoclinic'
loop_
_space_group_symop_operation_xyz
x,y,z
-x,y,1/2-z
-x,-y,-z
x,-y,1/2+z
1/2+x,1/2+y,z
1/2-x,1/2+y,1/2-z
1/2-x,1/2-y,-z
1/2+x,1/2-y,1/2+z
loop_
_atom_site_type_symbol
_atom_site_label
_atom_site_fract_x
_atom_site_fract_y
_atom_site_fract_z
Si Si1 0.315075 0.466141 0.935170
Si Si2 0.500000 0.524497 0.750000
Si Si3 0.341735 0.289518 0.819943
Si Si4 0.500000 0.034223 0.750000
Si Si5 0.410288 0.219473 0.176677
Si Si6 0.929166 0.673264 0.438257
Si Si7 0.104840 0.657561 0.506554
O O1 0.352316 0.384318 0.875514
O O2 0.349445 0.663933 0.938496
O O3 0.362993 0.344312 0.976569
O O4 0.187050 0.425745 0.955046
O O5 0.390194 0.419612 0.771499
O O6 0.526296 0.630924 0.799667
O O7 0.423982 0.135254 0.799706
O O8 0.215506 0.245426 0.823744
O O9 0.580363 0.927883 0.779803
O O10 0.480135 0.181745 0.116958
O O11 0.885027 0.479329 0.446049
O O12 0.989148 0.681805 0.489615
#
# Coordination Sequence:
#
# PCOD9287919 Si02
#       7
#     8   4   8   4   8   8   8
#     4  11  21  39  62  88 121 160 202 247 306 362
#     4  10  22  38  60  84 116 154 196 250 304 366
#     4  11  21  39  61  86 118 156 200 251 307 363
#     4  10  24  38  60  88 120 154 202 258 306 364
#     4  11  21  39  61  86 118 156 200 251 307 363
#     4  11  21  39  62  88 121 160 202 247 306 362
#     4  10  23  38  60  89 126 158 197 254 300 360
#
# _framework density 19.887739
#
# number of rings (size 3 to 8) (size 9 to 14) (size 15 to 20)
#    0.000    1.333    3.333    3.000    0.000    0.000 
#    0.000    0.000    0.000    0.000    0.000    0.000 
#    0.000    0.000    0.000    0.000    0.000    0.000 
#
# Total GULP energy -133636.761350 kJ/mol
# GULP energy per Si atom -5568.198390 kJ/mol
# Density = 1.984247 g / cm^3
# Si number density = 19.887739 Si / 1000 Ang^3
#
#
#
# Elastic Constant Matrix: (Units=GPa)
#
#
# Indices 1 2 3 4 5 6 
#
# 1 55.0743 7.6110 -0.4875 0.0000 -2.9107 0.0000
# 2 7.6110 54.6876 -0.4074 0.0000 1.1276 0.0000
# 3 -0.4875 -0.4074 65.2461 0.0000 -16.7880 0.0000
# 4 0.0000 0.0000 0.0000 21.3172 0.0000 1.8054
# 5 -2.9107 1.1276 -16.7880 0.0000 33.1008 0.0000
# 6 0.0000 0.0000 0.0000 1.8054 0.0000 -20.1827
#
#
#
# Elastic Compliance Matrix: (Units=1/GPa)
#
#
# Indices 1 2 3 4 5 6 
#
# 1 0.018635 -0.002631 0.000653 0.000000 0.002059 0.000000
# 2 -0.002631 0.018670 -0.000145 0.000000 -0.000941 0.000000
# 3 0.000653 -0.000145 0.017650 0.000000 0.009014 0.000000
# 4 0.000000 0.000000 0.000000 0.046558 0.000000 0.004165
# 5 0.002059 -0.000941 0.009014 0.000000 0.034996 0.000000
# 6 0.000000 0.000000 0.000000 0.004165 0.000000 -0.049175
#
#
# Mechanical properties :
#
#
# Convention : Reuss Voigt Hill
#
# Bulk Modulus (GPa) = 19.72066 20.93780 20.32923
# Shear Modulus (GPa) = 46.08959 18.06650 32.07805
#
# Velocity S-wave (km/s) = 4.81925 3.01728 4.02052
# Velocity P-wave (km/s) = 6.39566 4.76335 5.63888
#
# Compressibility (1/GPa) = 0.05070825
#
# Stress axis : x y z
#
# Youngs Moduli (GPa) = 53.66103 53.56133 56.65760
#
# Poissons Ratio (x) = 0.14093 -0.03698
# Poissons Ratio (y) = 0.14119 0.00823
# Poissons Ratio (z) = -0.03502 0.00778
#
# Static dielectric constant tensor:
#      x y z
#    x 1.765030 0.000000 0.018660 
#    y 0.000000 1.765490 0.000000 
#    z 0.018660 0.000000 1.799380 
# 
# From -- ./inp_files/263137.got.cif
#   From: 2010.05.17/outbox.cif.g08.bks.cpg/sg15_132_cif.got.tgz:263137.got - 2010.06.03 18:47:42.
