data_PCOD9287907
_publ_section_title
;
Structure prediction by ZEFSAII (Michael W. Deem and Ramdas Pophale) SiO2 
 PCOD9287907
Probable space group: C 2/C
;
_chemical_formula_sum "Si O2"
_cell_formula_units_Z 60
_cell_length_a 10.693152
_cell_length_b 25.326855
_cell_length_c 12.518059
_cell_angle_alpha 90.000000
_cell_angle_beta 133.305114
_cell_angle_gamma 90.000000
_cell_volume 2467.080162
_symmetry_space_group_name_H-M "C 2/C"
_symmetry_group_IT_number 15
_symmetry_cell_setting 'monoclinic'
loop_
_space_group_symop_operation_xyz
x,y,z
-x,y,1/2-z
-x,-y,-z
x,-y,1/2+z
1/2+x,1/2+y,z
1/2-x,1/2+y,1/2-z
1/2-x,1/2-y,-z
1/2+x,1/2-y,1/2+z
loop_
_atom_site_type_symbol
_atom_site_label
_atom_site_fract_x
_atom_site_fract_y
_atom_site_fract_z
Si Si1 0.592701 0.533724 0.901852
Si Si2 0.622046 0.819533 0.216760
Si Si3 0.764059 0.427482 0.309457
Si Si4 0.832067 0.472821 0.723718
Si Si5 0.000000 0.219696 0.750000
Si Si6 0.803672 0.643720 0.260289
Si Si7 0.674989 0.817503 0.961458
Si Si8 0.668736 0.235255 0.066768
O O1 0.435533 0.570435 0.846279
O O2 0.733916 0.566817 0.918560
O O3 0.753849 0.666557 0.114387
O O4 0.686561 0.507784 0.054598
O O5 0.500000 0.821795 0.250000
O O6 0.644806 0.877838 0.187260
O O7 0.795669 0.788152 0.346054
O O8 0.521266 0.782863 0.074036
O O9 0.500000 0.498582 0.250000
O O10 0.854666 0.480701 0.321416
O O11 0.764951 0.418466 0.737579
O O12 0.000000 0.463938 0.750000
O O13 0.069908 0.262140 0.879340
O O14 0.170595 0.183635 0.862030
O O15 0.748482 0.684986 0.321002
O O16 0.011539 0.645622 0.387149
O O17 0.750000 0.250000 0.000000
#
# Coordination Sequence:
#
# PCOD9287907 Si02
#       8
#     8   8   8   8   4   8   8   8
#     4   8  23  45  66 100 146 185 239 284 361 429
#     4  10  22  45  71 102 135 184 244 297 362 428
#     4   9  22  44  74 101 143 190 235 296 358 431
#     4  12  22  41  72 108 149 184 240 305 359 434
#     4   8  16  32  58  82 126 172 226 262 346 428
#     4  10  22  38  59  94 141 175 233 293 359 421
#     4   9  18  36  54  96 129 173 223 282 354 429
#     4  10  24  44  67  92 140 184 240 295 347 435
#
# _framework density 24.320249
#
# number of rings (size 3 to 8) (size 9 to 14) (size 15 to 20)
#    0.800    1.600    1.333    0.800    1.867    5.867 
#    6.000    2.667    5.867    3.200    0.000    0.000 
#    0.000    0.000    0.000    0.000    0.000    0.000 
#
# Total GULP energy -167260.879939 kJ/mol
# GULP energy per Si atom -5575.362665 kJ/mol
# Density = 2.426489 g / cm^3
# Si number density = 24.320249 Si / 1000 Ang^3
#
#
#
# Elastic Constant Matrix: (Units=GPa)
#
#
# Indices 1 2 3 4 5 6 
#
# 1 82.9752 52.4404 39.3897 0.0000 -13.7704 0.0000
# 2 52.4404 141.3138 24.1018 0.0000 -23.0045 0.0000
# 3 39.3897 24.1018 148.6176 0.0000 -3.0005 0.0000
# 4 0.0000 0.0000 0.0000 10.4552 0.0000 7.2280
# 5 -13.7704 -23.0045 -3.0005 0.0000 34.2976 0.0000
# 6 0.0000 0.0000 0.0000 7.2280 0.0000 29.1371
#
#
#
# Elastic Compliance Matrix: (Units=1/GPa)
#
#
# Indices 1 2 3 4 5 6 
#
# 1 0.017814 -0.005452 -0.003773 0.000000 0.003166 0.000000
# 2 -0.005452 0.009825 -0.000060 0.000000 0.004396 0.000000
# 3 -0.003773 -0.000060 0.007721 0.000000 -0.000880 0.000000
# 4 0.000000 0.000000 0.000000 0.115445 0.000000 -0.028638
# 5 0.003166 0.004396 -0.000880 0.000000 0.033299 0.000000
# 6 0.000000 0.000000 0.000000 -0.028638 0.000000 0.041425
#
#
# Mechanical properties :
#
#
# Convention : Reuss Voigt Hill
#
# Bulk Modulus (GPa) = 59.55807 67.19671 63.37739
# Shear Modulus (GPa) = 20.02438 31.90961 25.96700
#
# Velocity S-wave (km/s) = 2.87254 3.62617 3.27113
# Velocity P-wave (km/s) = 5.96190 6.72473 6.35477
#
# Compressibility (1/GPa) = 0.01679034
#
# Stress axis : x y z
#
# Youngs Moduli (GPa) = 56.13587 101.77736 129.52188
#
# Poissons Ratio (x) = 0.55486 0.48874
# Poissons Ratio (y) = 0.30604 0.00774
# Poissons Ratio (z) = 0.21182 0.00608
#
# Static dielectric constant tensor:
#      x y z
#    x 2.065700 0.000000 -0.019090 
#    y 0.000000 2.016610 0.000000 
#    z -0.019090 0.000000 1.994920 
# 
# From -- ./inp_files/148108.got.cif
#   From: 2010.05.17/outbox.cif.g08.bks.cpg/sg15_75_cif.got.tgz:148108.got - 2010.06.03 18:47:42.
