data_PCOD9287448
_publ_section_title
;
Structure prediction by ZEFSAII (Michael W. Deem and Ramdas Pophale) SiO2 
 PCOD9287448
Probable space group: C 2/C
;
_chemical_formula_sum "Si O2"
_cell_formula_units_Z 44
_cell_length_a 9.898993
_cell_length_b 18.488364
_cell_length_c 15.667993
_cell_angle_alpha 90.000000
_cell_angle_beta 50.377289
_cell_angle_gamma 90.000000
_cell_volume 2208.719202
_symmetry_space_group_name_H-M "C 2/C"
_symmetry_group_IT_number 15
_symmetry_cell_setting 'monoclinic'
loop_
_space_group_symop_operation_xyz
x,y,z
-x,y,1/2-z
-x,-y,-z
x,-y,1/2+z
1/2+x,1/2+y,z
1/2-x,1/2+y,1/2-z
1/2-x,1/2-y,-z
1/2+x,1/2-y,1/2+z
loop_
_atom_site_type_symbol
_atom_site_label
_atom_site_fract_x
_atom_site_fract_y
_atom_site_fract_z
Si Si1 0.299911 0.644957 0.421272
Si Si2 0.628358 0.566212 0.940529
Si Si3 0.648476 0.979257 0.870164
Si Si4 0.000000 0.493883 0.750000
Si Si5 0.994905 0.706337 0.657308
Si Si6 0.846616 0.869307 0.246340
O O1 0.391814 0.606475 0.462977
O O2 0.263713 0.586829 0.361606
O O3 0.413396 0.716741 0.362267
O O4 0.114256 0.669255 0.536999
O O5 0.584734 0.615129 0.876661
O O6 0.826873 0.537428 0.849425
O O7 0.500000 0.500000 0.000000
O O8 0.564434 0.957137 0.812560
O O9 0.756436 0.053897 0.810567
O O10 0.500000 0.000000 0.000000
O O11 0.798033 0.693834 0.704198
O O12 0.000000 0.671457 0.750000
O O13 0.000000 0.852285 0.250000
#
# Coordination Sequence:
#
# PCOD9287448 Si02
#       6
#     8   8   8   4   8   8
#     4  11  22  39  69  96 123 182 232 272 338 417
#     4  11  21  37  66  97 132 174 227 283 349 409
#     4  11  20  38  68 101 139 172 225 296 346 403
#     4  10  22  36  62 104 144 170 214 288 364 398
#     4  11  23  42  67  91 132 185 228 272 335 431
#     4  11  23  39  65  99 136 179 223 285 358 401
#
# _framework density 19.921047000000002
#
# number of rings (size 3 to 8) (size 9 to 14) (size 15 to 20)
#    0.000    1.091    5.455    2.182    1.273    3.636 
#    0.000    0.909    8.000    0.000    0.000    0.000 
#    0.000    0.000    0.000    0.000    0.000    0.000 
#
# Total GULP energy -122702.272167 kJ/mol
# GULP energy per Si atom -5577.376008 kJ/mol
# Density = 1.987571 g / cm^3
# Si number density = 19.921047 Si / 1000 Ang^3
#
#
#
# Elastic Constant Matrix: (Units=GPa)
#
#
# Indices 1 2 3 4 5 6 
#
# 1 156.5930 34.8533 45.4270 0.0000 16.9875 0.0000
# 2 34.8533 61.9018 31.1168 0.0000 -4.2202 0.0000
# 3 45.4270 31.1168 81.1961 0.0000 15.4833 0.0000
# 4 0.0000 0.0000 0.0000 0.3643 0.0000 2.7817
# 5 16.9875 -4.2202 15.4833 0.0000 41.8396 0.0000
# 6 0.0000 0.0000 0.0000 2.7817 0.0000 31.4146
#
#
#
# Elastic Compliance Matrix: (Units=1/GPa)
#
#
# Indices 1 2 3 4 5 6 
#
# 1 0.008247 -0.003418 -0.002797 -0.000001 -0.002658 0.000000
# 2 -0.003418 0.022547 -0.007991 0.000003 0.006619 0.000000
# 3 -0.002797 -0.007991 0.018162 -0.000005 -0.006391 0.000000
# 4 -0.000001 0.000003 -0.000005 8.474464 0.000006 -0.750407
# 5 -0.002658 0.006619 -0.006391 0.000006 0.028013 -0.000001
# 6 0.000000 0.000000 0.000000 -0.750407 -0.000001 0.098280
#
#
# Mechanical properties :
#
#
# Convention : Reuss Voigt Hill
#
# Bulk Modulus (GPa) = 48.67627 58.05390 53.36509
# Shear Modulus (GPa) = 0.57571 27.27662 13.92617
#
# Velocity S-wave (km/s) = 0.53817 3.70433 2.64686
# Velocity P-wave (km/s) = 4.98736 6.89212 6.01561
#
# Compressibility (1/GPa) = 0.02054389
#
# Stress axis : x y z
#
# Youngs Moduli (GPa) = 121.26325 44.35125 55.06130
#
# Poissons Ratio (x) = 0.15161 0.15400
# Poissons Ratio (y) = 0.41453 0.43997
# Poissons Ratio (z) = 0.33915 0.35439
#
# Static dielectric constant tensor:
#      x y z
#    x 1.624830 0.000000 0.045490 
#    y 0.000000 1.685880 0.000000 
#    z 0.045490 0.000000 1.684960 
# 
# From -- ./inp_files/134714.got.cif
#   From: 2010.05.17/outbox.cif.g08.bks.cpg/sg15_68_cif.got.tgz:134714.got - 2010.06.03 18:47:42.
