data_PCOD9287044
_publ_section_title
;
Structure prediction by ZEFSAII (Michael W. Deem and Ramdas Pophale) SiO2 
 PCOD9287044
Probable space group: C 2/C
;
_chemical_formula_sum "Si O2"
_cell_formula_units_Z 44
_cell_length_a 15.073197
_cell_length_b 9.361734
_cell_length_c 20.452542
_cell_angle_alpha 90.000000
_cell_angle_beta 51.933274
_cell_angle_gamma 90.000000
_cell_volume 2272.194378
_symmetry_space_group_name_H-M "C 2/C"
_symmetry_group_IT_number 15
_symmetry_cell_setting 'monoclinic'
loop_
_space_group_symop_operation_xyz
x,y,z
-x,y,1/2-z
-x,-y,-z
x,-y,1/2+z
1/2+x,1/2+y,z
1/2-x,1/2+y,1/2-z
1/2-x,1/2-y,-z
1/2+x,1/2-y,1/2+z
loop_
_atom_site_type_symbol
_atom_site_label
_atom_site_fract_x
_atom_site_fract_y
_atom_site_fract_z
Si Si1 0.500000 0.362884 0.250000
Si Si2 0.534078 0.832492 0.486075
Si Si3 0.214212 0.068643 0.829032
Si Si4 0.965807 0.912710 0.414090
Si Si5 0.732403 0.250558 0.189696
Si Si6 0.677913 0.330958 0.478646
O O1 0.486632 0.434474 0.327330
O O2 0.618239 0.282187 0.202757
O O3 0.540255 0.749400 0.554015
O O4 0.656060 0.802615 0.398847
O O5 0.435169 0.755603 0.489278
O O6 0.500000 0.000000 0.500000
O O7 0.229788 0.166698 0.759406
O O8 0.080776 0.033723 0.895659
O O9 0.269994 0.916954 0.795792
O O10 0.247092 0.149219 0.880168
O O11 0.861288 0.011063 0.481304
O O12 0.750000 0.250000 0.500000
#
# Coordination Sequence:
#
# PCOD9287044 Si02
#       6
#     4   8   8   8   8   8
#     4  10  26  36  66  94 124 166 208 262 322 374
#     4  11  24  41  69  94 124 173 214 266 326 391
#     4  10  22  42  64  88 128 173 206 267 321 386
#     4  10  21  46  62  88 134 169 207 262 332 377
#     4  11  23  43  64  92 130 166 217 260 325 382
#     4  11  23  42  65  93 126 169 216 259 327 383
#
# _framework density 19.364540999999999
#
# number of rings (size 3 to 8) (size 9 to 14) (size 15 to 20)
#    0.000    1.455    3.636    1.091   10.182    3.636 
#    0.000    0.000    0.000    0.000    0.000    0.000 
#    0.000    0.000    0.000    0.000    0.000    0.000 
#
# Total GULP energy -122617.505592 kJ/mol
# GULP energy per Si atom -5573.522981 kJ/mol
# Density = 1.932047 g / cm^3
# Si number density = 19.364541 Si / 1000 Ang^3
#
#
#
# Elastic Constant Matrix: (Units=GPa)
#
#
# Indices 1 2 3 4 5 6 
#
# 1 91.1259 38.5096 34.4382 0.0000 12.8868 0.0000
# 2 38.5096 98.1784 19.4656 0.0000 6.9989 0.0000
# 3 34.4382 19.4656 77.9354 0.0000 11.2968 0.0000
# 4 0.0000 0.0000 0.0000 26.6256 0.0000 -6.2383
# 5 12.8868 6.9989 11.2968 0.0000 33.7704 0.0000
# 6 0.0000 0.0000 0.0000 -6.2383 0.0000 20.3810
#
#
#
# Elastic Compliance Matrix: (Units=1/GPa)
#
#
# Indices 1 2 3 4 5 6 
#
# 1 0.015390 -0.004791 -0.005146 0.000000 -0.003158 0.000000
# 2 -0.004791 0.012270 -0.000887 0.000000 -0.000418 0.000000
# 3 -0.005146 -0.000887 0.015781 0.000000 -0.003131 0.000000
# 4 0.000000 0.000000 0.000000 0.040459 0.000000 0.012384
# 5 -0.003158 -0.000418 -0.003131 0.000000 0.031951 0.000000
# 6 0.000000 0.000000 0.000000 0.012384 0.000000 0.052856
#
#
# Mechanical properties :
#
#
# Convention : Reuss Voigt Hill
#
# Bulk Modulus (GPa) = 45.88732 50.22961 48.05846
# Shear Modulus (GPa) = 25.30109 27.81050 26.55579
#
# Velocity S-wave (km/s) = 3.61857 3.79378 3.70721
# Velocity P-wave (km/s) = 6.41925 6.72202 6.57238
#
# Compressibility (1/GPa) = 0.02179251
#
# Stress axis : x y z
#
# Youngs Moduli (GPa) = 64.97716 81.49637 63.36922
#
# Poissons Ratio (x) = 0.39046 0.32610
# Poissons Ratio (y) = 0.31131 0.05621
# Poissons Ratio (z) = 0.33438 0.07229
#
# Static dielectric constant tensor:
#      x y z
#    x 1.715680 0.000000 0.006620 
#    y 0.000000 1.694260 0.000000 
#    z 0.006620 0.000000 1.709280 
# 
# From -- ./inp_files/202609.got.cif
#   From: 2010.05.17/outbox.cif.g08.bks.cpg/sg15_102_cif.got.tgz:202609.got - 2010.06.03 18:47:42.
