data_PCOD9287515
_publ_section_title
;
Structure prediction by ZEFSAII (Michael W. Deem and Ramdas Pophale) SiO2 
 PCOD9287515
Probable space group: C 2/C
;
_chemical_formula_sum "Si O2"
_cell_formula_units_Z 48
_cell_length_a 8.232509
_cell_length_b 20.807497
_cell_length_c 21.537478
_cell_angle_alpha 90.000000
_cell_angle_beta 139.909944
_cell_angle_gamma 90.000000
_cell_volume 2375.891522
_symmetry_space_group_name_H-M "C 2/C"
_symmetry_group_IT_number 15
_symmetry_cell_setting 'monoclinic'
loop_
_space_group_symop_operation_xyz
x,y,z
-x,y,1/2-z
-x,-y,-z
x,-y,1/2+z
1/2+x,1/2+y,z
1/2-x,1/2+y,1/2-z
1/2-x,1/2-y,-z
1/2+x,1/2-y,1/2+z
loop_
_atom_site_type_symbol
_atom_site_label
_atom_site_fract_x
_atom_site_fract_y
_atom_site_fract_z
Si Si1 0.259331 0.620937 0.708363
Si Si2 0.477887 0.748648 0.835275
Si Si3 0.500000 0.940031 0.250000
Si Si4 0.078204 0.242220 0.536392
Si Si5 0.778640 0.642622 0.500029
Si Si6 0.097721 0.962160 0.589903
Si Si7 0.500000 0.140610 0.250000
O O1 0.500000 0.583304 0.750000
O O2 0.375422 0.686188 0.770333
O O3 0.076338 0.595674 0.709341
O O4 0.071580 0.630627 0.596516
O O5 0.391836 0.743587 0.881225
O O6 0.389436 0.810441 0.769427
O O7 0.783513 0.751559 0.930575
O O8 0.750193 0.982578 0.331222
O O9 0.236920 0.301929 0.555770
O O10 0.172027 0.177278 0.530936
O O11 0.636654 0.575699 0.448721
O O12 0.307910 0.904556 0.654853
O O13 0.000000 0.000000 0.500000
#
# Coordination Sequence:
#
# PCOD9287515 Si02
#       7
#     8   8   4   8   8   8   4
#     4  12  23  41  68 100 137 173 227 287 348 410
#     4  11  21  39  62 104 134 173 213 289 362 405
#     4  11  26  46  70  98 134 187 234 280 338 423
#     4  10  22  36  66  98 138 171 217 287 349 405
#     4  11  21  43  62  97 135 177 227 280 338 414
#     4  11  24  44  69  92 131 192 231 274 339 411
#     4  11  22  42  66  98 136 165 234 286 338 419
#
# _framework density 20.202942
#
# number of rings (size 3 to 8) (size 9 to 14) (size 15 to 20)
#    0.000    1.000    5.833    1.000    2.333    0.000 
#    0.000    4.167    0.000    0.000    0.000    0.000 
#    0.000    0.000    0.000    0.000    0.000    0.000 
#
# Total GULP energy -133650.020047 kJ/mol
# GULP energy per Si atom -5568.750835 kJ/mol
# Density = 2.015696 g / cm^3
# Si number density = 20.202942 Si / 1000 Ang^3
#
#
#
# Elastic Constant Matrix: (Units=GPa)
#
#
# Indices 1 2 3 4 5 6 
#
# 1 92.4719 24.9125 17.3333 -0.0006 -2.5106 -0.0006
# 2 24.9125 71.1013 30.7208 -0.0002 -2.4369 -0.0003
# 3 17.3333 30.7208 92.6045 0.0000 8.7123 -0.0002
# 4 -0.0006 -0.0002 0.0000 59.7698 -0.0001 40.5404
# 5 -2.5106 -2.4369 8.7123 -0.0001 32.5385 -0.0003
# 6 -0.0006 -0.0003 -0.0002 40.5404 -0.0003 57.2864
#
#
#
# Elastic Compliance Matrix: (Units=1/GPa)
#
#
# Indices 1 2 3 4 5 6 
#
# 1 0.012048 -0.003707 -0.001115 0.000000 0.000950 0.000000
# 2 -0.003707 0.017803 -0.005448 0.000000 0.002506 0.000000
# 3 -0.001115 -0.005448 0.013193 0.000000 -0.004027 0.000000
# 4 0.000000 0.000000 0.000000 0.032175 0.000000 -0.022769
# 5 0.000950 0.002506 -0.004027 0.000000 0.032072 0.000000
# 6 0.000000 0.000000 0.000000 -0.022769 0.000000 0.033570
#
#
# Mechanical properties :
#
#
# Convention : Reuss Voigt Hill
#
# Bulk Modulus (GPa) = 44.43498 44.67897 44.55698
# Shear Modulus (GPa) = 29.60310 42.13304 35.86807
#
# Velocity S-wave (km/s) = 3.83206 4.57167 4.21811
# Velocity P-wave (km/s) = 6.45148 7.07319 6.76948
#
# Compressibility (1/GPa) = 0.02250479
#
# Stress axis : x y z
#
# Youngs Moduli (GPa) = 83.00456 56.17002 75.79557
#
# Poissons Ratio (x) = 0.20822 0.08448
# Poissons Ratio (y) = 0.30770 0.41293
# Poissons Ratio (z) = 0.09252 0.30601
#
# Static dielectric constant tensor:
#      x y z
#    x 2.042280 0.000000 -0.084850 
#    y 0.000000 1.715990 0.000000 
#    z -0.084850 0.000000 1.800600 
# 
# From -- ./inp_files/135538.got.cif
#   From: 2010.05.17/outbox.cif.g08.bks.cpg/sg15_68_cif.got.tgz:135538.got - 2010.06.03 18:47:42.
