data_PCOD9287855
_publ_section_title
;
Structure prediction by ZEFSAII (Michael W. Deem and Ramdas Pophale) SiO2 
 PCOD9287855
Probable space group: C 2/C
;
_chemical_formula_sum "Si O2"
_cell_formula_units_Z 60
_cell_length_a 19.917800
_cell_length_b 29.245887
_cell_length_c 14.246137
_cell_angle_alpha 90.000000
_cell_angle_beta 158.425908
_cell_angle_gamma 90.000000
_cell_volume 3051.418258
_symmetry_space_group_name_H-M "C 2/C"
_symmetry_group_IT_number 15
_symmetry_cell_setting 'monoclinic'
loop_
_space_group_symop_operation_xyz
x,y,z
-x,y,1/2-z
-x,-y,-z
x,-y,1/2+z
1/2+x,1/2+y,z
1/2-x,1/2+y,1/2-z
1/2-x,1/2-y,-z
1/2+x,1/2-y,1/2+z
loop_
_atom_site_type_symbol
_atom_site_label
_atom_site_fract_x
_atom_site_fract_y
_atom_site_fract_z
Si Si1 0.600730 0.548911 0.133636
Si Si2 0.688050 0.698143 0.938047
Si Si3 0.691530 0.315952 0.861553
Si Si4 0.202241 0.909212 0.966377
Si Si5 0.512031 0.124908 0.150892
Si Si6 0.114014 0.138353 0.659254
Si Si7 0.538675 0.052268 0.026148
Si Si8 0.500000 0.754336 0.250000
O O1 0.669196 0.561853 0.327781
O O2 0.777776 0.553223 0.297620
O O3 0.500000 0.500000 0.000000
O O4 0.452717 0.586878 0.908603
O O5 0.500000 0.698776 0.750000
O O6 0.645416 0.670301 0.788522
O O7 0.750000 0.750000 0.000000
O O8 0.852594 0.667214 0.193445
O O9 0.762590 0.357701 0.017436
O O10 0.546847 0.339407 0.607559
O O11 0.588583 0.278491 0.789449
O O12 0.848316 0.288485 0.012162
O O13 0.000000 0.906710 0.750000
O O14 0.361226 0.929747 0.238035
O O15 0.500000 0.116618 0.250000
O O16 0.565808 0.081998 0.156450
O O17 0.305174 0.136916 0.853829
O O18 0.500000 0.000000 0.000000
#
# Coordination Sequence:
#
# PCOD9287855 Si02
#       8
#     8   8   8   8   8   8   8   4
#     4  11  24  43  67  98 129 167 215 264 324 391
#     4  11  23  42  63  93 128 170 221 269 321 382
#     4  10  22  39  60  91 127 163 208 256 317 368
#     4  11  23  42  66  92 134 167 209 268 317 382
#     4  10  23  43  67  93 129 170 216 272 321 387
#     4  10  22  41  64  91 127 168 210 267 322 377
#     4  12  25  42  67  98 126 171 214 260 331 387
#     4  10  22  38  58  90 126 164 210 254 302 384
#
# _framework density 19.662989
#
# number of rings (size 3 to 8) (size 9 to 14) (size 15 to 20)
#    0.000    1.333    0.667    5.600    3.733    5.333 
#    2.400    4.000    0.000    0.000    0.000    0.000 
#    0.000    0.000    0.000    0.000    0.000    0.000 
#
# Total GULP energy -167459.390136 kJ/mol
# GULP energy per Si atom -5581.979671 kJ/mol
# Density = 1.961823 g / cm^3
# Si number density = 19.662989 Si / 1000 Ang^3
#
#
#
# Elastic Constant Matrix: (Units=GPa)
#
#
# Indices 1 2 3 4 5 6 
#
# 1 69.8238 57.5581 7.2578 -0.0001 8.6326 0.0000
# 2 57.5581 200.6752 75.8984 0.0000 6.3347 0.0000
# 3 7.2578 75.8984 82.5940 -0.0002 6.0653 0.0000
# 4 -0.0001 0.0000 -0.0002 41.3232 -0.0001 2.4687
# 5 8.6326 6.3347 6.0653 -0.0001 25.5998 0.0000
# 6 0.0000 0.0000 0.0000 2.4687 0.0000 25.0536
#
#
#
# Elastic Compliance Matrix: (Units=1/GPa)
#
#
# Indices 1 2 3 4 5 6 
#
# 1 0.021283 -0.008234 0.006181 0.000000 -0.006604 0.000000
# 2 -0.008234 0.010824 -0.009394 0.000000 0.002324 0.000000
# 3 0.006181 -0.009394 0.020536 0.000000 -0.004625 0.000000
# 4 0.000000 0.000000 0.000000 0.024343 0.000000 -0.002399
# 5 -0.006604 0.002324 -0.004625 0.000000 0.041811 0.000000
# 6 0.000000 0.000000 0.000000 -0.002399 0.000000 0.040151
#
#
# Mechanical properties :
#
#
# Convention : Reuss Voigt Hill
#
# Bulk Modulus (GPa) = 33.61298 70.50240 52.05769
# Shear Modulus (GPa) = 26.07448 32.55392 29.31420
#
# Velocity S-wave (km/s) = 3.64547 4.07331 3.86532
# Velocity P-wave (km/s) = 5.90347 7.61943 6.81567
#
# Compressibility (1/GPa) = 0.02975041
#
# Stress axis : x y z
#
# Youngs Moduli (GPa) = 46.98562 92.38378 48.69395
#
# Poissons Ratio (x) = 0.76066 -0.30098
# Poissons Ratio (y) = 0.38687 0.45743
# Poissons Ratio (z) = -0.29042 0.86786
#
# Static dielectric constant tensor:
#      x y z
#    x 1.725930 0.000000 0.004710 
#    y 0.000000 1.676610 0.000000 
#    z 0.004710 0.000000 1.721170 
# 
# From -- ./inp_files/169958.got.cif
#   From: 2010.05.17/outbox.cif.g08.bks.cpg/sg15_85_cif.got.tgz:169958.got - 2010.06.03 18:47:42.
