data_PCOD9287559
_publ_section_title
;
Structure prediction by ZEFSAII (Michael W. Deem and Ramdas Pophale) SiO2 
 PCOD9287559
Probable space group: C 2/C
;
_chemical_formula_sum "Si O2"
_cell_formula_units_Z 60
_cell_length_a 28.524316
_cell_length_b 19.576762
_cell_length_c 5.250685
_cell_angle_alpha 90.000000
_cell_angle_beta 108.179743
_cell_angle_gamma 90.000000
_cell_volume 2785.693599
_symmetry_space_group_name_H-M "C 2/C"
_symmetry_group_IT_number 15
_symmetry_cell_setting 'monoclinic'
loop_
_space_group_symop_operation_xyz
x,y,z
-x,y,1/2-z
-x,-y,-z
x,-y,1/2+z
1/2+x,1/2+y,z
1/2-x,1/2+y,1/2-z
1/2-x,1/2-y,-z
1/2+x,1/2-y,1/2+z
loop_
_atom_site_type_symbol
_atom_site_label
_atom_site_fract_x
_atom_site_fract_y
_atom_site_fract_z
Si Si1 0.558691 0.955121 0.862318
Si Si2 0.165086 0.178441 0.270332
Si Si3 0.855160 0.034994 0.063254
Si Si4 0.500000 0.207540 0.750000
Si Si5 0.904833 0.678040 0.314357
Si Si6 0.466418 0.566995 0.396589
Si Si7 0.939940 0.796763 0.025805
Si Si8 0.805896 0.754166 0.191466
O O1 0.500000 0.938706 0.750000
O O2 0.588490 0.885178 0.867155
O O3 0.569030 0.006570 0.644610
O O4 0.170019 0.100700 0.358932
O O5 0.108384 0.198938 0.234886
O O6 0.196398 0.221044 0.522506
O O7 0.173204 0.193355 0.988014
O O8 0.914477 0.044064 0.189835
O O9 0.843106 0.976324 0.248633
O O10 0.449879 0.165783 0.593767
O O11 0.481572 0.255209 0.949112
O O12 0.846606 0.692160 0.267289
O O13 0.922262 0.749985 0.224929
O O14 0.500000 0.606866 0.250000
O O15 0.500000 0.500000 0.500000
O O16 0.452326 0.623012 0.587181
O O17 0.750000 0.750000 0.000000
#
# Coordination Sequence:
#
# PCOD9287559 Si02
#       8
#     8   8   8   4   8   8   8   8
#     4  10  23  40  64  96 137 175 210 255 328 428
#     4  10  22  41  62  94 124 160 222 274 331 378
#     4  11  22  37  57  81 119 170 214 268 316 369
#     4  12  20  36  58  90 134 162 212 258 328 390
#     4  11  25  40  64  97 132 173 218 268 343 401
#     4  11  21  35  49  76 121 175 234 272 310 363
#     4  10  22  37  56  86 129 175 213 276 320 387
#     4  11  23  44  71  97 126 167 217 283 334 390
#
# _framework density 21.538623000000001
#
# number of rings (size 3 to 8) (size 9 to 14) (size 15 to 20)
#    0.000    1.333    3.333    2.400    4.667    1.067 
#    2.400    0.000    0.000    4.800    0.000    0.000 
#    0.000    0.000    0.000    0.000    0.000    0.000 
#
# Total GULP energy -167184.267593 kJ/mol
# GULP energy per Si atom -5572.808920 kJ/mol
# Density = 2.148960 g / cm^3
# Si number density = 21.538623 Si / 1000 Ang^3
#
#
#
# Elastic Constant Matrix: (Units=GPa)
#
#
# Indices 1 2 3 4 5 6 
#
# 1 78.0496 30.8493 11.3952 0.0000 12.9025 0.0000
# 2 30.8493 76.9803 8.5004 0.0000 -1.1941 0.0000
# 3 11.3952 8.5004 65.0575 0.0000 3.3659 0.0000
# 4 0.0000 0.0000 0.0000 22.1533 0.0000 -8.9570
# 5 12.9025 -1.1941 3.3659 0.0000 45.5883 0.0000
# 6 0.0000 0.0000 0.0000 -8.9570 0.0000 11.0673
#
#
#
# Elastic Compliance Matrix: (Units=1/GPa)
#
#
# Indices 1 2 3 4 5 6 
#
# 1 0.016394 -0.006445 -0.001787 0.000000 -0.004677 0.000000
# 2 -0.006445 0.015724 -0.001045 0.000000 0.002313 0.000000
# 3 -0.001787 -0.001045 0.015856 0.000000 -0.000692 0.000000
# 4 0.000000 0.000000 0.000000 0.067095 0.000000 0.054302
# 5 -0.004677 0.002313 -0.000692 0.000000 0.023371 0.000000
# 6 0.000000 0.000000 0.000000 0.054302 0.000000 0.134304
#
#
# Mechanical properties :
#
#
# Convention : Reuss Voigt Hill
#
# Bulk Modulus (GPa) = 33.99124 35.73081 34.86102
# Shear Modulus (GPa) = 16.60541 27.05127 21.82834
#
# Velocity S-wave (km/s) = 2.77963 3.54777 3.18693
# Velocity P-wave (km/s) = 5.11053 5.77992 5.45550
#
# Compressibility (1/GPa) = 0.02941935
#
# Stress axis : x y z
#
# Youngs Moduli (GPa) = 60.99875 63.59547 63.06563
#
# Poissons Ratio (x) = 0.40986 0.11273
# Poissons Ratio (y) = 0.39313 0.06593
# Poissons Ratio (z) = 0.10903 0.06648
#
# Static dielectric constant tensor:
#      x y z
#    x 1.836810 0.000000 -0.010770 
#    y 0.000000 1.832260 0.000000 
#    z -0.010770 0.000000 1.952080 
# 
# From -- ./inp_files/18475.got.cif
#   From: 2010.05.17/outbox.cif.g08.bks.cpg/sg15_10_cif.got.tgz:18475.got - 2010.06.03 18:47:42.
