data_PCOD9287029
_publ_section_title
;
Structure prediction by ZEFSAII (Michael W. Deem and Ramdas Pophale) SiO2 
 PCOD9287029
Probable space group: C 2/C
;
_chemical_formula_sum "Si O2"
_cell_formula_units_Z 56
_cell_length_a 11.540014
_cell_length_b 9.426697
_cell_length_c 27.463692
_cell_angle_alpha 90.000000
_cell_angle_beta 119.747039
_cell_angle_gamma 90.000000
_cell_volume 2593.921441
_symmetry_space_group_name_H-M "C 2/C"
_symmetry_group_IT_number 15
_symmetry_cell_setting 'monoclinic'
loop_
_space_group_symop_operation_xyz
x,y,z
-x,y,1/2-z
-x,-y,-z
x,-y,1/2+z
1/2+x,1/2+y,z
1/2-x,1/2+y,1/2-z
1/2-x,1/2-y,-z
1/2+x,1/2-y,1/2+z
loop_
_atom_site_type_symbol
_atom_site_label
_atom_site_fract_x
_atom_site_fract_y
_atom_site_fract_z
Si Si1 0.377977 0.716001 0.187990
Si Si2 0.851568 0.068813 0.831053
Si Si3 0.830402 0.344692 0.656219
Si Si4 0.896990 0.554666 0.019143
Si Si5 0.133406 0.165890 0.928944
Si Si6 0.512506 0.919149 0.362230
Si Si7 0.695507 0.420996 0.291567
O O1 0.500000 0.750374 0.250000
O O2 0.245246 0.797032 0.178155
O O3 0.421010 0.778172 0.145292
O O4 0.351938 0.549929 0.184896
O O5 0.841235 0.042365 0.771371
O O6 0.999699 0.101205 0.879119
O O7 0.789324 0.939223 0.848204
O O8 0.799474 0.259260 0.600257
O O9 0.863242 0.226858 0.702752
O O10 0.947314 0.454253 0.666766
O O11 0.910113 0.720281 0.038643
O O12 0.927525 0.463899 0.073665
O O13 0.743053 0.553881 0.969787
O O14 0.000000 0.500000 0.000000
O O15 0.354395 0.906939 0.330119
#
# Coordination Sequence:
#
# PCOD9287029 Si02
#       7
#     8   8   8   8   8   8   8
#     4  11  23  42  62  99 139 175 218 271 331 408
#     4  11  24  42  66 100 138 181 222 273 338 401
#     4  10  24  41  65  95 132 179 221 273 338 397
#     4  10  21  45  73  95 129 179 226 284 336 391
#     4  10  23  43  68  98 130 169 231 283 333 394
#     4  10  23  45  66  94 136 174 218 276 336 389
#     4  12  24  40  66  99 135 177 223 266 331 408
#
# _framework density 21.588936
#
# number of rings (size 3 to 8) (size 9 to 14) (size 15 to 20)
#    0.000    1.429    1.429    3.429    2.000    1.143 
#    0.000   12.857    0.000   18.000    0.000    0.000 
#    0.000    0.000    0.000    0.000    0.000    0.000 
#
# Total GULP energy -156714.912020 kJ/mol
# GULP energy per Si atom -5596.961144 kJ/mol
# Density = 2.153980 g / cm^3
# Si number density = 21.588936 Si / 1000 Ang^3
#
#
#
# Elastic Constant Matrix: (Units=GPa)
#
#
# Indices 1 2 3 4 5 6 
#
# 1 127.3732 68.0656 71.2075 0.0000 -3.4041 0.0000
# 2 68.0656 98.0246 39.2119 0.0000 -2.9533 0.0000
# 3 71.2075 39.2119 93.8649 0.0000 14.9313 0.0000
# 4 0.0000 0.0000 0.0000 28.2054 0.0000 -2.9776
# 5 -3.4041 -2.9533 14.9313 0.0000 36.8913 0.0000
# 6 0.0000 0.0000 0.0000 -2.9776 0.0000 20.8046
#
#
#
# Elastic Compliance Matrix: (Units=1/GPa)
#
#
# Indices 1 2 3 4 5 6 
#
# 1 0.019184 -0.008332 -0.012022 0.000000 0.005969 0.000000
# 2 -0.008332 0.016245 -0.000588 0.000000 0.000770 0.000000
# 3 -0.012022 -0.000588 0.021594 0.000000 -0.009896 0.000000
# 4 0.000000 0.000000 0.000000 0.035998 0.000000 0.005152
# 5 0.005969 0.000770 -0.009896 0.000000 0.031724 0.000000
# 6 0.000000 0.000000 0.000000 0.005152 0.000000 0.048804
#
#
# Mechanical properties :
#
#
# Convention : Reuss Voigt Hill
#
# Bulk Modulus (GPa) = 66.05625 75.13697 70.59661
# Shear Modulus (GPa) = 22.67793 26.56543 24.62168
#
# Velocity S-wave (km/s) = 3.24457 3.51167 3.38076
# Velocity P-wave (km/s) = 6.68581 7.16390 6.92898
#
# Compressibility (1/GPa) = 0.01513861
#
# Stress axis : x y z
#
# Youngs Moduli (GPa) = 52.12812 61.55601 46.31004
#
# Poissons Ratio (x) = 0.51286 0.55673
# Poissons Ratio (y) = 0.43431 0.02725
# Poissons Ratio (z) = 0.62668 0.03622
#
# Static dielectric constant tensor:
#      x y z
#    x 1.782580 0.000000 -0.017900 
#    y 0.000000 1.790810 0.000000 
#    z -0.017900 0.000000 1.778430 
# 
# From -- ./inp_files/310394.got.cif
#   From: 2010.05.17/outbox.cif.g08.bks.cpg/sg15_156_cif.got.tgz:310394.got - 2010.06.03 18:47:42.
