data_PCOD9287088
_publ_section_title
;
Structure prediction by ZEFSAII (Michael W. Deem and Ramdas Pophale) SiO2 
 PCOD9287088
Probable space group: C 2/C
;
_chemical_formula_sum "Si O2"
_cell_formula_units_Z 56
_cell_length_a 13.006220
_cell_length_b 22.382935
_cell_length_c 8.513101
_cell_angle_alpha 90.000000
_cell_angle_beta 115.383151
_cell_angle_gamma 90.000000
_cell_volume 2239.058874
_symmetry_space_group_name_H-M "C 2/C"
_symmetry_group_IT_number 15
_symmetry_cell_setting 'monoclinic'
loop_
_space_group_symop_operation_xyz
x,y,z
-x,y,1/2-z
-x,-y,-z
x,-y,1/2+z
1/2+x,1/2+y,z
1/2-x,1/2+y,1/2-z
1/2-x,1/2-y,-z
1/2+x,1/2-y,1/2+z
loop_
_atom_site_type_symbol
_atom_site_label
_atom_site_fract_x
_atom_site_fract_y
_atom_site_fract_z
Si Si1 0.142089 0.783273 0.507033
Si Si2 0.565887 0.552346 0.451253
Si Si3 0.290090 0.866107 0.786461
Si Si4 0.323590 0.630793 0.740687
Si Si5 0.275318 0.029792 0.042964
Si Si6 0.000000 0.533700 0.750000
Si Si7 0.881385 0.352661 0.197367
Si Si8 0.500000 0.805941 0.750000
O O1 0.250000 0.750000 0.500000
O O2 0.187406 0.819138 0.687786
O O3 0.121629 0.833904 0.364202
O O4 0.041142 0.735839 0.422021
O O5 0.500000 0.566309 0.250000
O O6 0.500000 0.500000 0.500000
O O7 0.586593 0.609404 0.572598
O O8 0.689901 0.525478 0.496707
O O9 0.264323 0.931071 0.696322
O O10 0.395715 0.844436 0.746341
O O11 0.329050 0.864307 0.991245
O O12 0.269820 0.572365 0.623701
O O13 0.220621 0.666910 0.757337
O O14 0.404225 0.006851 0.108862
O O15 0.428162 0.916171 0.298487
O O16 0.000000 0.317312 0.250000
#
# Coordination Sequence:
#
# PCOD9287088 Si02
#       8
#     8   8   8   8   8   4   8   4
#     4   9  22  43  72  88 119 166 222 287 340 404
#     4  12  25  42  64  95 146 196 234 274 323 411
#     4  10  23  39  67  96 125 170 219 283 335 409
#     4  11  24  44  61  97 136 175 235 281 334 410
#     4  11  24  40  64  97 137 185 235 265 329 405
#     4  10  23  34  60  90 134 184 208 267 316 388
#     4  10  24  36  60  94 138 170 211 274 343 395
#     4  10  21  46  72  94 116 164 230 289 350 410
#
# _framework density 25.010508000000002
#
# number of rings (size 3 to 8) (size 9 to 14) (size 15 to 20)
#    0.429    1.143    2.857    0.429   12.000    3.429 
#    0.000    2.857    0.000    0.000    0.000    0.000 
#    0.000    0.000    0.000    0.000    0.000    0.000 
#
# Total GULP energy -156610.628178 kJ/mol
# GULP energy per Si atom -5593.236721 kJ/mol
# Density = 2.495358 g / cm^3
# Si number density = 25.010508 Si / 1000 Ang^3
#
#
#
# Elastic Constant Matrix: (Units=GPa)
#
#
# Indices 1 2 3 4 5 6 
#
# 1 81.0775 14.6088 35.0856 0.0000 9.7230 0.0000
# 2 14.6088 56.1558 22.6658 0.0000 13.7275 0.0000
# 3 35.0856 22.6658 154.1943 0.0000 19.5955 0.0000
# 4 0.0000 0.0000 0.0000 28.8584 0.0000 8.9919
# 5 9.7230 13.7275 19.5955 0.0000 41.4375 0.0000
# 6 0.0000 0.0000 0.0000 8.9919 0.0000 14.5020
#
#
#
# Elastic Compliance Matrix: (Units=1/GPa)
#
#
# Indices 1 2 3 4 5 6 
#
# 1 0.014064 -0.002255 -0.002707 0.000000 -0.001273 0.000000
# 2 -0.002255 0.020441 -0.001807 0.000000 -0.005388 0.000000
# 3 -0.002707 -0.001807 0.007671 0.000000 -0.002394 0.000000
# 4 0.000000 0.000000 0.000000 0.042950 0.000000 -0.026631
# 5 -0.001273 -0.005388 -0.002394 0.000000 0.027348 0.000000
# 6 0.000000 0.000000 0.000000 -0.026631 0.000000 0.085468
#
#
# Mechanical properties :
#
#
# Convention : Reuss Voigt Hill
#
# Bulk Modulus (GPa) = 34.91819 48.46089 41.68954
# Shear Modulus (GPa) = 22.62174 31.56407 27.09290
#
# Velocity S-wave (km/s) = 3.01074 3.55636 3.29486
# Velocity P-wave (km/s) = 5.10664 6.02345 5.58389
#
# Compressibility (1/GPa) = 0.02863837
#
# Stress axis : x y z
#
# Youngs Moduli (GPa) = 71.10217 48.92215 130.35959
#
# Poissons Ratio (x) = 0.11032 0.35288
# Poissons Ratio (y) = 0.16034 0.23554
# Poissons Ratio (z) = 0.19247 0.08839
#
# Static dielectric constant tensor:
#      x y z
#    x 2.063530 0.000000 0.024030 
#    y 0.000000 2.018280 0.000000 
#    z 0.024030 0.000000 1.968320 
# 
# From -- ./inp_files/42781.got.cif
#   From: 2010.05.17/outbox.cif.g08.bks.cpg/sg15_22_cif.got.tgz:42781.got - 2010.06.03 18:47:42.
