data_PCOD9287655
_publ_section_title
;
Structure prediction by ZEFSAII (Michael W. Deem and Ramdas Pophale) SiO2 
 PCOD9287655
Probable space group: C 2/C
;
_chemical_formula_sum "Si O2"
_cell_formula_units_Z 48
_cell_length_a 11.680731
_cell_length_b 29.298563
_cell_length_c 5.730974
_cell_angle_alpha 90.000000
_cell_angle_beta 109.336816
_cell_angle_gamma 90.000000
_cell_volume 1850.663099
_symmetry_space_group_name_H-M "C 2/C"
_symmetry_group_IT_number 15
_symmetry_cell_setting 'monoclinic'
loop_
_space_group_symop_operation_xyz
x,y,z
-x,y,1/2-z
-x,-y,-z
x,-y,1/2+z
1/2+x,1/2+y,z
1/2-x,1/2+y,1/2-z
1/2-x,1/2-y,-z
1/2+x,1/2-y,1/2+z
loop_
_atom_site_type_symbol
_atom_site_label
_atom_site_fract_x
_atom_site_fract_y
_atom_site_fract_z
Si Si1 0.068246 0.839807 0.040422
Si Si2 0.221998 0.900271 0.409184
Si Si3 0.131014 0.444840 0.348749
Si Si4 0.862090 0.745553 0.265066
Si Si5 0.636646 0.489760 0.470045
Si Si6 0.617935 0.146234 0.162751
O O1 0.154629 0.883033 0.134533
O O2 0.138082 0.791747 0.085801
O O3 0.000000 0.841515 0.250000
O O4 0.000000 0.843780 0.750000
O O5 0.152218 0.935829 0.521200
O O6 0.265974 0.858755 0.590898
O O7 0.336941 0.927106 0.387999
O O8 0.238214 0.480081 0.483328
O O9 0.119044 0.398341 0.497590
O O10 0.000000 0.467692 0.250000
O O11 0.866400 0.698113 0.414767
O O12 0.000000 0.745771 0.250000
O O13 0.750000 0.750000 0.000000
O O14 0.588172 0.510482 0.674619
O O15 0.500000 0.144974 0.250000
#
# Coordination Sequence:
#
# PCOD9287655 Si02
#       6
#     8   8   8   8   8   8
#     4  11  27  49  73 101 134 184 238 294 356 416
#     4  11  23  41  67  94 136 180 231 284 342 414
#     4  11  23  36  60 100 140 185 219 277 350 430
#     4  10  22  42  69 104 143 185 236 292 353 422
#     4  10  22  37  61  93 132 178 225 275 339 414
#     4  11  21  39  63  99 142 180 233 279 348 417
#
# _framework density 25.936651000000001
#
# number of rings (size 3 to 8) (size 9 to 14) (size 15 to 20)
#    0.000    1.333    5.000    0.000    2.333    4.000 
#    3.000    4.167    0.000   12.000    0.000    0.000 
#    0.000    0.000    0.000    0.000    0.000    0.000 
#
# Total GULP energy -133940.965561 kJ/mol
# GULP energy per Si atom -5580.873565 kJ/mol
# Density = 2.587762 g / cm^3
# Si number density = 25.936651 Si / 1000 Ang^3
#
#
#
# Elastic Constant Matrix: (Units=GPa)
#
#
# Indices 1 2 3 4 5 6 
#
# 1 101.7650 21.7808 47.7933 0.0000 -12.4887 0.0000
# 2 21.7808 144.2878 26.8181 0.0000 -7.2923 0.0000
# 3 47.7933 26.8181 117.9340 0.0000 17.1834 0.0000
# 4 0.0000 0.0000 0.0000 42.9709 0.0000 15.9383
# 5 -12.4887 -7.2923 17.1834 0.0000 38.5602 0.0000
# 6 0.0000 0.0000 0.0000 15.9383 0.0000 25.1919
#
#
#
# Elastic Compliance Matrix: (Units=1/GPa)
#
#
# Indices 1 2 3 4 5 6 
#
# 1 0.013942 -0.000504 -0.006609 0.000000 0.007365 0.000000
# 2 -0.000504 0.007442 -0.001785 0.000000 0.002040 0.000000
# 3 -0.006609 -0.001785 0.012752 0.000000 -0.008161 0.000000
# 4 0.000000 0.000000 0.000000 0.030407 0.000000 -0.019238
# 5 0.007365 0.002040 -0.008161 0.000000 0.032341 0.000000
# 6 0.000000 0.000000 0.000000 -0.019238 0.000000 0.051867
#
#
# Mechanical properties :
#
#
# Convention : Reuss Voigt Hill
#
# Bulk Modulus (GPa) = 61.19743 61.86345 61.53044
# Shear Modulus (GPa) = 29.07097 39.18424 34.12760
#
# Velocity S-wave (km/s) = 3.35153 3.89108 3.63134
# Velocity P-wave (km/s) = 6.21476 6.64009 6.43094
#
# Compressibility (1/GPa) = 0.01634056
#
# Stress axis : x y z
#
# Youngs Moduli (GPa) = 71.72594 134.38067 78.41639
#
# Poissons Ratio (x) = 0.06774 0.51822
# Poissons Ratio (y) = 0.03615 0.13998
# Poissons Ratio (z) = 0.47400 0.23988
#
# Static dielectric constant tensor:
#      x y z
#    x 2.319870 0.000000 0.047460 
#    y 0.000000 1.985410 0.000000 
#    z 0.047460 0.000000 2.065440 
# 
# From -- ./inp_files/8937.got.cif
#   From: 2010.05.17/outbox.cif.g08.bks.cpg/sg15_5_cif.got.tgz:8937.got - 2010.06.03 18:47:42.
