data_PCOD9287443
_publ_section_title
;
Structure prediction by ZEFSAII (Michael W. Deem and Ramdas Pophale) SiO2 
 PCOD9287443
Probable space group: C 2/C
;
_chemical_formula_sum "Si O2"
_cell_formula_units_Z 44
_cell_length_a 7.117639
_cell_length_b 16.225956
_cell_length_c 19.275840
_cell_angle_alpha 90.000000
_cell_angle_beta 116.323126
_cell_angle_gamma 90.000000
_cell_volume 1995.338606
_symmetry_space_group_name_H-M "C 2/C"
_symmetry_group_IT_number 15
_symmetry_cell_setting 'monoclinic'
loop_
_space_group_symop_operation_xyz
x,y,z
-x,y,1/2-z
-x,-y,-z
x,-y,1/2+z
1/2+x,1/2+y,z
1/2-x,1/2+y,1/2-z
1/2-x,1/2-y,-z
1/2+x,1/2-y,1/2+z
loop_
_atom_site_type_symbol
_atom_site_label
_atom_site_fract_x
_atom_site_fract_y
_atom_site_fract_z
Si Si1 0.308536 0.798448 0.910971
Si Si2 0.051718 0.858612 0.001874
Si Si3 0.241921 0.071617 0.765354
Si Si4 0.623632 0.488669 0.611878
Si Si5 0.356095 0.976843 0.912627
Si Si6 0.500000 0.780338 0.250000
O O1 0.211702 0.828698 0.968603
O O2 0.398309 0.883345 0.896506
O O3 0.122251 0.769931 0.829293
O O4 0.464788 0.722327 0.952320
O O5 0.139015 0.932728 0.063688
O O6 0.862408 0.903941 0.929636
O O7 0.251472 0.008887 0.701858
O O8 0.329793 0.159236 0.756660
O O9 0.000000 0.077924 0.750000
O O10 0.374761 0.037037 0.850869
O O11 0.383291 0.485726 0.600260
O O12 0.500000 0.000000 0.000000
#
# Coordination Sequence:
#
# PCOD9287443 Si02
#       6
#     8   8   8   8   8   4
#     4  10  22  36  61  97 122 165 218 261 322 378
#     4   9  18  34  60  87 123 153 218 256 310 383
#     4  10  23  41  62  92 128 171 215 262 326 390
#     4   9  18  37  59  87 124 168 207 262 325 379
#     4  10  23  39  61  86 132 173 217 262 322 384
#     4  12  24  40  72  90 130 170 216 268 328 386
#
# _framework density 22.051396
#
# number of rings (size 3 to 8) (size 9 to 14) (size 15 to 20)
#    0.000    2.182    1.818    0.000   14.000    0.000 
#    0.000    2.727    2.000    0.000    0.000    0.000 
#    0.000    0.000    0.000    0.000    0.000    0.000 
#
# Total GULP energy -122770.919864 kJ/mol
# GULP energy per Si atom -5580.496357 kJ/mol
# Density = 2.200121 g / cm^3
# Si number density = 22.051396 Si / 1000 Ang^3
#
#
#
# Elastic Constant Matrix: (Units=GPa)
#
#
# Indices 1 2 3 4 5 6 
#
# 1 77.2732 27.5306 31.4471 0.0000 3.0793 0.0000
# 2 27.5306 120.9575 33.9829 0.0000 8.3322 0.0000
# 3 31.4471 33.9829 134.6893 0.0000 8.3225 0.0000
# 4 0.0000 0.0000 0.0000 23.3856 0.0000 -7.2412
# 5 3.0793 8.3322 8.3225 0.0000 26.2651 0.0000
# 6 0.0000 0.0000 0.0000 -7.2412 0.0000 62.3420
#
#
#
# Elastic Compliance Matrix: (Units=1/GPa)
#
#
# Indices 1 2 3 4 5 6 
#
# 1 0.015034 -0.002620 -0.002847 0.000000 -0.000029 0.000000
# 2 -0.002620 0.009476 -0.001645 0.000000 -0.002178 0.000000
# 3 -0.002847 -0.001645 0.008620 0.000000 -0.001876 0.000000
# 4 0.000000 0.000000 0.000000 0.044357 0.000000 0.005152
# 5 -0.000029 -0.002178 -0.001876 0.000000 0.039362 0.000000
# 6 0.000000 0.000000 0.000000 0.005152 0.000000 0.016639
#
#
# Mechanical properties :
#
#
# Convention : Reuss Voigt Hill
#
# Bulk Modulus (GPa) = 52.89151 57.64902 55.27027
# Shear Modulus (GPa) = 32.46460 38.39584 35.43022
#
# Velocity S-wave (km/s) = 3.84112 4.17729 4.01273
# Velocity P-wave (km/s) = 6.61135 7.03322 6.82554
#
# Compressibility (1/GPa) = 0.01890662
#
# Stress axis : x y z
#
# Youngs Moduli (GPa) = 66.51384 105.53288 116.00745
#
# Poissons Ratio (x) = 0.27649 0.33032
# Poissons Ratio (y) = 0.17426 0.19078
# Poissons Ratio (z) = 0.18939 0.17355
#
# Static dielectric constant tensor:
#      x y z
#    x 1.884810 0.000000 -0.023150 
#    y 0.000000 1.836320 0.000000 
#    z -0.023150 0.000000 1.847360 
# 
# From -- ./inp_files/188898.got.cif
#   From: 2010.05.17/outbox.cif.g08.bks.cpg/sg15_95_cif.got.tgz:188898.got - 2010.06.03 18:47:42.
