data_PCOD9287065
_publ_section_title
;
Structure prediction by ZEFSAII (Michael W. Deem and Ramdas Pophale) SiO2 
 PCOD9287065
Probable space group: C 2/C
;
_chemical_formula_sum "Si O2"
_cell_formula_units_Z 48
_cell_length_a 14.323278
_cell_length_b 9.050901
_cell_length_c 25.441169
_cell_angle_alpha 90.000000
_cell_angle_beta 138.913283
_cell_angle_gamma 90.000000
_cell_volume 2167.550389
_symmetry_space_group_name_H-M "C 2/C"
_symmetry_group_IT_number 15
_symmetry_cell_setting 'monoclinic'
loop_
_space_group_symop_operation_xyz
x,y,z
-x,y,1/2-z
-x,-y,-z
x,-y,1/2+z
1/2+x,1/2+y,z
1/2-x,1/2+y,1/2-z
1/2-x,1/2-y,-z
1/2+x,1/2-y,1/2+z
loop_
_atom_site_type_symbol
_atom_site_label
_atom_site_fract_x
_atom_site_fract_y
_atom_site_fract_z
Si Si1 0.305076 0.137031 0.479980
Si Si2 0.792257 0.479763 0.732547
Si Si3 0.854623 0.907114 0.431215
Si Si4 0.896629 0.447953 0.606927
Si Si5 0.791266 0.151982 0.705441
Si Si6 0.376406 0.628249 0.628568
O O1 0.250000 0.250000 0.500000
O O2 0.361878 0.238338 0.456337
O O3 0.410211 0.029154 0.556607
O O4 0.172312 0.029964 0.412129
O O5 0.706258 0.579100 0.654164
O O6 0.741797 0.312313 0.703549
O O7 0.772936 0.531075 0.783819
O O8 0.962726 0.475254 0.798433
O O9 0.735266 0.986542 0.416586
O O10 0.000000 0.000000 0.500000
O O11 0.869781 0.273309 0.589640
O O12 0.775397 0.149991 0.636366
O O13 0.959452 0.129781 0.785872
#
# Coordination Sequence:
#
# PCOD9287065 Si02
#       6
#     8   8   8   8   8   8
#     4  10  24  41  65 102 132 179 226 279 346 403
#     4  11  24  43  69  98 137 178 231 282 349 407
#     4  11  25  43  69  98 144 179 228 286 345 412
#     4  10  22  45  71  94 135 184 229 285 348 414
#     4  10  24  40  72 100 132 182 228 284 347 407
#     4  10  21  46  68  99 136 180 231 284 349 409
#
# _framework density 22.144815000000001
#
# number of rings (size 3 to 8) (size 9 to 14) (size 15 to 20)
#    0.000    1.667    1.667    1.000    9.333    1.333 
#    6.000    1.667    0.000    0.000    0.000    0.000 
#    0.000    0.000    0.000    0.000    0.000    0.000 
#
# Total GULP energy -133893.419648 kJ/mol
# GULP energy per Si atom -5578.892485 kJ/mol
# Density = 2.209441 g / cm^3
# Si number density = 22.144815 Si / 1000 Ang^3
#
#
#
# Elastic Constant Matrix: (Units=GPa)
#
#
# Indices 1 2 3 4 5 6 
#
# 1 52.2309 30.8145 7.6475 0.0000 4.9622 0.0000
# 2 30.8145 147.9960 29.3868 0.0000 -20.2149 0.0000
# 3 7.6475 29.3868 85.5340 0.0000 -1.2712 0.0000
# 4 0.0000 0.0000 0.0000 30.1357 0.0000 -8.9128
# 5 4.9622 -20.2149 -1.2712 0.0000 22.3950 0.0000
# 6 0.0000 0.0000 0.0000 -8.9128 0.0000 28.6919
#
#
#
# Elastic Compliance Matrix: (Units=1/GPa)
#
#
# Indices 1 2 3 4 5 6 
#
# 1 0.024079 -0.006533 -0.000075 0.000000 -0.011237 0.000000
# 2 -0.006533 0.010077 -0.002724 0.000000 0.010389 0.000000
# 3 -0.000075 -0.002724 0.012608 0.000000 -0.001726 0.000000
# 4 0.000000 0.000000 0.000000 0.036540 0.000000 0.011351
# 5 -0.011237 0.010389 -0.001726 0.000000 0.056423 0.000000
# 6 0.000000 0.000000 0.000000 0.011351 0.000000 0.038379
#
#
# Mechanical properties :
#
#
# Convention : Reuss Voigt Hill
#
# Bulk Modulus (GPa) = 35.58773 46.82872 41.20823
# Shear Modulus (GPa) = 24.25570 30.77200 27.51385
#
# Velocity S-wave (km/s) = 3.31316 3.73175 3.52867
# Velocity P-wave (km/s) = 5.54449 6.30559 5.93725
#
# Compressibility (1/GPa) = 0.02809957
#
# Stress axis : x y z
#
# Youngs Moduli (GPa) = 41.53024 99.23411 79.31417
#
# Poissons Ratio (x) = 0.64834 0.00596
# Poissons Ratio (y) = 0.27134 0.21602
# Poissons Ratio (z) = 0.00312 0.27028
#
# Static dielectric constant tensor:
#      x y z
#    x 1.822990 0.000000 -0.018870 
#    y 0.000000 1.817970 0.000000 
#    z -0.018870 0.000000 1.705610 
# 
# From -- ./inp_files/295452.got.cif
#   From: 2010.05.17/outbox.cif.g08.bks.cpg/sg15_148_cif.got.tgz:295452.got - 2010.06.03 18:47:42.
