data_PCOD9287685
_publ_section_title
;
Structure prediction by ZEFSAII (Michael W. Deem and Ramdas Pophale) SiO2 
 PCOD9287685
Probable space group: C 2/C
;
_chemical_formula_sum "Si O2"
_cell_formula_units_Z 56
_cell_length_a 24.758202
_cell_length_b 17.642951
_cell_length_c 9.713241
_cell_angle_alpha 90.000000
_cell_angle_beta 133.226043
_cell_angle_gamma 90.000000
_cell_volume 3091.561388
_symmetry_space_group_name_H-M "C 2/C"
_symmetry_group_IT_number 15
_symmetry_cell_setting 'monoclinic'
loop_
_space_group_symop_operation_xyz
x,y,z
-x,y,1/2-z
-x,-y,-z
x,-y,1/2+z
1/2+x,1/2+y,z
1/2-x,1/2+y,1/2-z
1/2-x,1/2-y,-z
1/2+x,1/2-y,1/2+z
loop_
_atom_site_type_symbol
_atom_site_label
_atom_site_fract_x
_atom_site_fract_y
_atom_site_fract_z
Si Si1 0.142087 0.042261 0.942248
Si Si2 0.000000 0.688730 0.750000
Si Si3 0.906272 0.815821 0.456818
Si Si4 0.500000 0.444437 0.750000
Si Si5 0.993301 0.410803 0.513312
Si Si6 0.414503 0.294491 0.147250
Si Si7 0.119929 0.369666 0.952513
Si Si8 0.716533 0.428268 0.277244
O O1 0.120958 0.125871 0.958805
O O2 0.181334 0.051819 0.863853
O O3 0.064730 0.995797 0.798960
O O4 0.194541 0.995228 0.135327
O O5 0.011432 0.636511 0.636125
O O6 0.932552 0.746570 0.597593
O O7 0.911611 0.792506 0.307779
O O8 0.826179 0.851802 0.345955
O O9 0.961653 0.887230 0.575580
O O10 0.921925 0.396941 0.483926
O O11 0.000000 0.500000 0.500000
O O12 0.063747 0.384308 0.727378
O O13 0.500000 0.289619 0.250000
O O14 0.371623 0.220831 0.020333
O O15 0.196923 0.411747 0.064429
#
# Coordination Sequence:
#
# PCOD9287685 Si02
#       8
#     8   4   8   4   8   8   8   8
#     4  10  22  37  63  90 125 168 203 245 307 366
#     4  11  18  42  66  89 116 152 218 243 306 366
#     4   9  20  34  60  91 125 160 191 252 305 364
#     4   9  18  34  58  93 128 154 206 253 284 366
#     4  11  24  42  65  89 110 165 211 264 301 353
#     4  11  19  36  62  92 117 162 207 251 300 362
#     4  11  23  44  60  87 131 152 210 260 306 365
#     4  10  24  41  57  93 131 163 195 251 314 367
#
# _framework density 18.113824000000001
#
# number of rings (size 3 to 8) (size 9 to 14) (size 15 to 20)
#    0.000    1.714    3.571    0.857    4.000    4.000 
#    2.571    0.714    0.000    0.000    0.000    0.000 
#    0.000    0.000    0.000    0.000    0.000    0.000 
#
# Total GULP energy -156275.384665 kJ/mol
# GULP energy per Si atom -5581.263738 kJ/mol
# Density = 1.807260 g / cm^3
# Si number density = 18.113824 Si / 1000 Ang^3
#
#
#
# Elastic Constant Matrix: (Units=GPa)
#
#
# Indices 1 2 3 4 5 6 
#
# 1 115.5581 62.1207 66.4564 0.0000 10.2995 0.0000
# 2 62.1207 145.5823 44.9410 0.0000 -4.9907 0.0000
# 3 66.4564 44.9410 57.4026 0.0000 1.3766 0.0000
# 4 0.0000 0.0000 0.0000 20.4066 0.0000 -7.1052
# 5 10.2995 -4.9907 1.3766 0.0000 28.6252 0.0000
# 6 0.0000 0.0000 0.0000 -7.1052 0.0000 17.5448
#
#
#
# Elastic Compliance Matrix: (Units=1/GPa)
#
#
# Indices 1 2 3 4 5 6 
#
# 1 0.028849 -0.003157 -0.030701 0.000000 -0.009454 0.000000
# 2 -0.003157 0.009511 -0.003863 0.000000 0.002980 0.000000
# 3 -0.030701 -0.003863 0.055804 0.000000 0.007690 0.000000
# 4 0.000000 0.000000 0.000000 0.057048 0.000000 0.023103
# 5 -0.009454 0.002980 0.007690 0.000000 0.038486 0.000000
# 6 0.000000 0.000000 0.000000 0.023103 0.000000 0.066353
#
#
# Mechanical properties :
#
#
# Convention : Reuss Voigt Hill
#
# Bulk Modulus (GPa) = 53.41174 73.95322 63.68248
# Shear Modulus (GPa) = 14.80458 22.98363 18.89411
#
# Velocity S-wave (km/s) = 2.86196 3.56595 3.23317
# Velocity P-wave (km/s) = 6.36175 7.60725 7.01221
#
# Compressibility (1/GPa) = 0.01872248
#
# Stress axis : x y z
#
# Youngs Moduli (GPa) = 34.66273 105.14667 17.91978
#
# Poissons Ratio (x) = 0.33193 0.55016
# Poissons Ratio (y) = 0.10942 0.06922
# Poissons Ratio (z) = 1.06420 0.40614
#
# Static dielectric constant tensor:
#      x y z
#    x 1.600040 0.000000 0.001080 
#    y 0.000000 1.638850 0.000000 
#    z 0.001080 0.000000 1.627460 
# 
# From -- ./inp_files/62800.got.cif
#   From: 2010.05.17/outbox.cif.g08.bks.cpg/sg15_32_cif.got.tgz:62800.got - 2010.06.03 18:47:42.
