data_PCOD9287772
_publ_section_title
;
Structure prediction by ZEFSAII (Michael W. Deem and Ramdas Pophale) SiO2 
 PCOD9287772
Probable space group: C 2/C
;
_chemical_formula_sum "Si O2"
_cell_formula_units_Z 44
_cell_length_a 21.358646
_cell_length_b 17.062478
_cell_length_c 5.540208
_cell_angle_alpha 90.000000
_cell_angle_beta 79.847777
_cell_angle_gamma 90.000000
_cell_volume 1987.413881
_symmetry_space_group_name_H-M "C 2/C"
_symmetry_group_IT_number 15
_symmetry_cell_setting 'monoclinic'
loop_
_space_group_symop_operation_xyz
x,y,z
-x,y,1/2-z
-x,-y,-z
x,-y,1/2+z
1/2+x,1/2+y,z
1/2-x,1/2+y,1/2-z
1/2-x,1/2-y,-z
1/2+x,1/2-y,1/2+z
loop_
_atom_site_type_symbol
_atom_site_label
_atom_site_fract_x
_atom_site_fract_y
_atom_site_fract_z
Si Si1 0.281700 0.688105 0.799117
Si Si2 0.183905 0.037156 0.488030
Si Si3 0.876424 0.696258 0.104566
Si Si4 0.500000 0.806097 0.750000
Si Si5 0.182810 0.576053 0.965798
Si Si6 0.561680 0.921501 0.318524
O O1 0.324077 0.627848 0.930383
O O2 0.324702 0.736524 0.584831
O O3 0.225135 0.630392 0.752402
O O4 0.250000 0.750000 0.000000
O O5 0.161378 0.012512 0.237660
O O6 0.261660 0.029140 0.435986
O O7 0.939587 0.736661 0.175858
O O8 0.845710 0.638934 0.325695
O O9 0.903235 0.638912 0.883878
O O10 0.529306 0.863609 0.531121
O O11 0.120931 0.533456 0.899152
O O12 0.500000 0.965152 0.250000
#
# Coordination Sequence:
#
# PCOD9287772 Si02
#       6
#     8   8   8   4   8   8
#     4   8  17  33  51  81 106 133 182 222 269 316
#     4  10  22  38  53  77 115 151 178 218 276 329
#     4   9  15  29  48  77 103 134 174 221 269 313
#     4   8  16  28  40  74 106 132 166 218 280 312
#     4   8  18  29  48  73 102 137 173 218 262 318
#     4   9  16  27  47  70 104 136 171 224 273 313
#
# _framework density 22.139323999999998
#
# number of rings (size 3 to 8) (size 9 to 14) (size 15 to 20)
#    1.091    2.182    0.000    0.000    2.545    0.727 
#    9.818    0.000    0.000    1.091    0.000    1.273 
#    0.000    0.000    0.000    0.000    0.000    0.000 
#
# Total GULP energy -122471.635195 kJ/mol
# GULP energy per Si atom -5566.892509 kJ/mol
# Density = 2.208893 g / cm^3
# Si number density = 22.139324 Si / 1000 Ang^3
#
#
#
# Elastic Constant Matrix: (Units=GPa)
#
#
# Indices 1 2 3 4 5 6 
#
# 1 79.6519 16.7098 26.6116 0.0000 -7.8257 0.0000
# 2 16.7098 83.5316 18.2138 0.0000 -17.6637 0.0000
# 3 26.6116 18.2138 77.2763 0.0000 -23.1778 0.0000
# 4 0.0000 0.0000 0.0000 27.9795 0.0000 3.5168
# 5 -7.8257 -17.6637 -23.1778 0.0000 22.4123 0.0000
# 6 0.0000 0.0000 0.0000 3.5168 0.0000 14.2798
#
#
#
# Elastic Compliance Matrix: (Units=1/GPa)
#
#
# Indices 1 2 3 4 5 6 
#
# 1 0.014517 -0.002202 -0.005045 0.000000 -0.001885 0.000000
# 2 -0.002202 0.014700 0.000780 0.000000 0.011623 0.000000
# 3 -0.005045 0.000780 0.020513 0.000000 0.020066 0.000000
# 4 0.000000 0.000000 0.000000 0.036882 0.000000 -0.009083
# 5 -0.001885 0.011623 0.020066 0.000000 0.073872 0.000000
# 6 0.000000 0.000000 0.000000 -0.009083 0.000000 0.072266
#
#
# Mechanical properties :
#
#
# Convention : Reuss Voigt Hill
#
# Bulk Modulus (GPa) = 27.17856 40.39225 33.78541
# Shear Modulus (GPa) = 19.38358 24.86264 22.12311
#
# Velocity S-wave (km/s) = 2.96214 3.35477 3.16455
# Velocity P-wave (km/s) = 4.89917 5.76976 5.35219
#
# Compressibility (1/GPa) = 0.03679371
#
# Stress axis : x y z
#
# Youngs Moduli (GPa) = 68.88392 68.02816 48.74992
#
# Poissons Ratio (x) = 0.14983 0.24596
# Poissons Ratio (y) = 0.15171 -0.03801
# Poissons Ratio (z) = 0.34755 -0.05305
#
# Static dielectric constant tensor:
#      x y z
#    x 1.911910 0.000000 0.072420 
#    y 0.000000 1.808800 0.000000 
#    z 0.072420 0.000000 1.944700 
# 
# From -- ./inp_files/15501.got.cif
#   From: 2010.05.17/outbox.cif.g08.bks.cpg/sg15_8_cif.got.tgz:15501.got - 2010.06.03 18:47:42.
