data_PCOD9287621
_publ_section_title
;
Structure prediction by ZEFSAII (Michael W. Deem and Ramdas Pophale) SiO2 
 PCOD9287621
Probable space group: C 2/C
;
_chemical_formula_sum "Si O2"
_cell_formula_units_Z 56
_cell_length_a 10.835818
_cell_length_b 9.798670
_cell_length_c 26.548927
_cell_angle_alpha 90.000000
_cell_angle_beta 69.188987
_cell_angle_gamma 90.000000
_cell_volume 2634.964208
_symmetry_space_group_name_H-M "C 2/C"
_symmetry_group_IT_number 15
_symmetry_cell_setting 'monoclinic'
loop_
_space_group_symop_operation_xyz
x,y,z
-x,y,1/2-z
-x,-y,-z
x,-y,1/2+z
1/2+x,1/2+y,z
1/2-x,1/2+y,1/2-z
1/2-x,1/2-y,-z
1/2+x,1/2-y,1/2+z
loop_
_atom_site_type_symbol
_atom_site_label
_atom_site_fract_x
_atom_site_fract_y
_atom_site_fract_z
Si Si1 0.858702 0.385072 0.205009
Si Si2 0.611409 0.504002 0.198029
Si Si3 0.340244 0.363311 0.414783
Si Si4 0.133726 0.692277 0.681803
Si Si5 0.132051 0.813961 0.890583
Si Si6 0.621240 0.620258 0.910241
Si Si7 0.851722 0.871636 0.977761
O O1 0.754865 0.500312 0.203749
O O2 0.825161 0.341969 0.267009
O O3 0.842700 0.269791 0.164140
O O4 0.016773 0.411264 0.182798
O O5 0.500000 0.441413 0.250000
O O6 0.623316 0.424422 0.144692
O O7 0.570117 0.658031 0.192401
O O8 0.228019 0.251451 0.419522
O O9 0.480733 0.314638 0.416525
O O10 0.302092 0.494428 0.454806
O O11 0.254030 0.705506 0.625914
O O12 0.980779 0.810775 0.931451
O O13 0.149999 0.974928 0.879394
O O14 0.616442 0.587295 0.969689
O O15 0.750000 0.750000 0.000000
#
# Coordination Sequence:
#
# PCOD9287621 Si02
#       7
#     8   8   8   8   8   8   8
#     4  10  22  37  60  89 114 163 201 246 312 366
#     4  11  21  38  62  86 120 161 201 253 311 370
#     4  10  22  39  61  89 118 165 202 251 318 365
#     4  11  22  38  61  87 124 161 201 256 308 363
#     4  10  22  40  61  87 126 154 208 257 305 375
#     4  11  23  38  62  89 121 160 203 254 307 370
#     4  11  23  39  62  89 120 160 207 252 310 376
#
# _framework density 21.252661
#
# number of rings (size 3 to 8) (size 9 to 14) (size 15 to 20)
#    0.000    1.429    1.429    6.000    2.000    4.000 
#    0.000    0.000    0.000    0.000    0.000    0.000 
#    0.000    0.000    0.000    0.000    0.000    0.000 
#
# Total GULP energy -156236.141063 kJ/mol
# GULP energy per Si atom -5579.862181 kJ/mol
# Density = 2.120429 g / cm^3
# Si number density = 21.252661 Si / 1000 Ang^3
#
#
#
# Elastic Constant Matrix: (Units=GPa)
#
#
# Indices 1 2 3 4 5 6 
#
# 1 93.3665 22.9567 4.4187 0.0000 8.6627 0.0000
# 2 22.9567 18.8023 -3.3351 0.0000 -6.9623 0.0000
# 3 4.4187 -3.3351 77.6126 0.0000 9.5711 0.0000
# 4 0.0000 0.0000 0.0000 22.2295 0.0000 7.5046
# 5 8.6627 -6.9623 9.5711 0.0000 33.9245 0.0000
# 6 0.0000 0.0000 0.0000 7.5046 0.0000 32.3309
#
#
#
# Elastic Compliance Matrix: (Units=1/GPa)
#
#
# Indices 1 2 3 4 5 6 
#
# 1 0.017942 -0.025619 -0.000942 0.000000 -0.009574 0.000000
# 2 -0.025619 0.094222 0.002399 0.000000 0.025202 0.000000
# 3 -0.000942 0.002399 0.013418 0.000000 -0.003053 0.000000
# 4 0.000000 0.000000 0.000000 0.048810 0.000000 -0.011330
# 5 -0.009574 0.025202 -0.003053 0.000000 0.037955 0.000000
# 6 0.000000 0.000000 0.000000 -0.011330 0.000000 0.033560
#
#
# Mechanical properties :
#
#
# Convention : Reuss Voigt Hill
#
# Bulk Modulus (GPa) = 12.94337 26.42913 19.68625
# Shear Modulus (GPa) = 15.62585 28.74639 22.18612
#
# Velocity S-wave (km/s) = 2.71448 3.68176 3.23448
# Velocity P-wave (km/s) = 3.99099 5.52599 4.81998
#
# Compressibility (1/GPa) = 0.07725962
#
# Stress axis : x y z
#
# Youngs Moduli (GPa) = 55.73392 10.61326 74.52858
#
# Poissons Ratio (x) = 0.27190 0.07019
# Poissons Ratio (y) = 1.42784 -0.17883
# Poissons Ratio (z) = 0.05249 -0.02547
#
# Static dielectric constant tensor:
#      x y z
#    x 1.866430 0.000000 0.004820 
#    y 0.000000 1.772840 0.000000 
#    z 0.004820 0.000000 1.792740 
# 
# From -- ./inp_files/287969.got.cif
#   From: 2010.05.17/outbox.cif.g08.bks.cpg/sg15_144_cif.got.tgz:287969.got - 2010.06.03 18:47:42.
