data_PCOD9287972
_publ_section_title
;
Structure prediction by ZEFSAII (Michael W. Deem and Ramdas Pophale) SiO2 
 PCOD9287972
Probable space group: C 2/C
;
_chemical_formula_sum "Si O2"
_cell_formula_units_Z 40
_cell_length_a 14.308746
_cell_length_b 23.007268
_cell_length_c 5.656382
_cell_angle_alpha 90.000000
_cell_angle_beta 55.757664
_cell_angle_gamma 90.000000
_cell_volume 1539.341296
_symmetry_space_group_name_H-M "C 2/C"
_symmetry_group_IT_number 15
_symmetry_cell_setting 'monoclinic'
loop_
_space_group_symop_operation_xyz
x,y,z
-x,y,1/2-z
-x,-y,-z
x,-y,1/2+z
1/2+x,1/2+y,z
1/2-x,1/2+y,1/2-z
1/2-x,1/2-y,-z
1/2+x,1/2-y,1/2+z
loop_
_atom_site_type_symbol
_atom_site_label
_atom_site_fract_x
_atom_site_fract_y
_atom_site_fract_z
Si Si1 0.936567 0.801627 0.601795
Si Si2 0.111041 0.323542 0.431986
Si Si3 0.264756 0.366817 0.562123
Si Si4 0.624628 0.061660 0.597349
Si Si5 0.848732 0.016815 0.825179
O O1 0.899108 0.735087 0.703448
O O2 0.829661 0.841590 0.693966
O O3 0.000000 0.821110 0.750000
O O4 0.000000 0.802632 0.250000
O O5 0.218805 0.319041 0.450692
O O6 0.117549 0.384868 0.290410
O O7 0.000000 0.324310 0.750000
O O8 0.338493 0.414011 0.319167
O O9 0.160809 0.404965 0.807291
O O10 0.500000 0.034685 0.750000
O O11 0.726524 0.017739 0.512226
O O12 0.898673 0.006963 0.013056
#
# Coordination Sequence:
#
# PCOD9287972 Si02
#       5
#     8   8   8   8   8
#     4  11  28  47  69  96 132 177 234 286 325 377
#     4  11  22  41  65 103 135 175 216 270 334 414
#     4  11  24  42  68  96 135 182 221 269 336 397
#     4  11  22  37  65  99 145 171 211 265 340 413
#     4  10  22  38  60  95 133 173 212 259 321 398
#
# _framework density 25.985140999999999
#
# number of rings (size 3 to 8) (size 9 to 14) (size 15 to 20)
#    0.000    1.200    4.000    1.200    5.600    4.800 
#    0.000    0.000    0.000   14.400    0.000    0.000 
#    0.000    0.000    0.000    0.000    0.000    0.000 
#
# Total GULP energy -111916.676512 kJ/mol
# GULP energy per Si atom -5595.833826 kJ/mol
# Density = 2.592600 g / cm^3
# Si number density = 25.985141 Si / 1000 Ang^3
#
#
#
# Elastic Constant Matrix: (Units=GPa)
#
#
# Indices 1 2 3 4 5 6 
#
# 1 121.7515 30.2101 34.6259 0.0000 18.3576 0.0000
# 2 30.2101 96.3950 20.0458 0.0000 -7.9019 0.0000
# 3 34.6259 20.0458 108.4246 0.0000 6.8097 0.0000
# 4 0.0000 0.0000 0.0000 36.8476 0.0000 30.3452
# 5 18.3576 -7.9019 6.8097 0.0000 32.1662 0.0000
# 6 0.0000 0.0000 0.0000 30.3452 0.0000 192.0052
#
#
#
# Elastic Compliance Matrix: (Units=1/GPa)
#
#
# Indices 1 2 3 4 5 6 
#
# 1 0.010703 -0.003385 -0.002388 0.000000 -0.006434 0.000000
# 2 -0.003385 0.012176 -0.001499 0.000000 0.005240 0.000000
# 3 -0.002388 -0.001499 0.010338 0.000000 -0.001194 0.000000
# 4 0.000000 0.000000 0.000000 0.031200 0.000000 -0.004931
# 5 -0.006434 0.005240 -0.001194 0.000000 0.036301 0.000000
# 6 0.000000 0.000000 0.000000 -0.004931 0.000000 0.005987
#
#
# Mechanical properties :
#
#
# Convention : Reuss Voigt Hill
#
# Bulk Modulus (GPa) = 53.55603 55.14829 54.35216
# Shear Modulus (GPa) = 39.22398 68.31642 53.77020
#
# Velocity S-wave (km/s) = 3.88941 5.13300 4.55385
# Velocity P-wave (km/s) = 6.38945 7.50995 6.97224
#
# Compressibility (1/GPa) = 0.01867204
#
# Stress axis : x y z
#
# Youngs Moduli (GPa) = 93.43482 82.12736 96.73240
#
# Poissons Ratio (x) = 0.27800 0.23100
# Poissons Ratio (y) = 0.31628 0.14503
# Poissons Ratio (z) = 0.22312 0.12313
#
# Static dielectric constant tensor:
#      x y z
#    x 2.101100 0.000000 -0.034190 
#    y 0.000000 1.968370 0.000000 
#    z -0.034190 0.000000 2.108450 
# 
# From -- ./inp_files/5072.got.cif
#   From: 2010.05.17/outbox.cif.g08.bks.cpg/sg15_3_cif.got.tgz:5072.got - 2010.06.03 18:47:42.
