data_PCOD9287899
_publ_section_title
;
Structure prediction by ZEFSAII (Michael W. Deem and Ramdas Pophale) SiO2 
 PCOD9287899
Probable space group: C 2/C
;
_chemical_formula_sum "Si O2"
_cell_formula_units_Z 24
_cell_length_a 15.476172
_cell_length_b 7.598351
_cell_length_c 15.204879
_cell_angle_alpha 90.000000
_cell_angle_beta 27.922275
_cell_angle_gamma 90.000000
_cell_volume 837.269597
_symmetry_space_group_name_H-M "C 2/C"
_symmetry_group_IT_number 15
_symmetry_cell_setting 'monoclinic'
loop_
_space_group_symop_operation_xyz
x,y,z
-x,y,1/2-z
-x,-y,-z
x,-y,1/2+z
1/2+x,1/2+y,z
1/2-x,1/2+y,1/2-z
1/2-x,1/2-y,-z
1/2+x,1/2-y,1/2+z
loop_
_atom_site_type_symbol
_atom_site_label
_atom_site_fract_x
_atom_site_fract_y
_atom_site_fract_z
Si Si1 0.665509 0.034334 0.544397
Si Si2 0.216618 0.450795 0.818951
Si Si3 0.914042 0.855397 0.460621
O O1 0.500000 0.110089 0.750000
O O2 0.704386 0.151683 0.423172
O O3 0.828700 0.979635 0.462412
O O4 0.595421 0.841830 0.570498
O O5 0.300573 0.379041 0.653191
O O6 0.381094 0.583910 0.699346
O O7 0.000000 0.500000 0.000000
#
# Coordination Sequence:
#
# PCOD9287899 Si02
#       3
#     8   8   8
#     4  11  20  39  65  92 122 159 210 258 309 361
#     4  11  22  36  56  93 128 158 202 257 316 361
#     4  10  22  38  59  91 125 162 204 260 304 367
#
# _framework density 28.664601999999999
#
# number of rings (size 3 to 8) (size 9 to 14) (size 15 to 20)
#    0.000    1.333    3.333    5.000    0.000    0.000 
#    0.000    0.000    0.000    2.000   17.333    0.000 
#    0.000    0.000    0.000    0.000    0.000    0.000 
#
# Total GULP energy -67124.712645 kJ/mol
# GULP energy per Si atom -5593.726054 kJ/mol
# Density = 2.859936 g / cm^3
# Si number density = 28.664602 Si / 1000 Ang^3
#
#
#
# Elastic Constant Matrix: (Units=GPa)
#
#
# Indices 1 2 3 4 5 6 
#
# 1 255.0057 69.2298 97.3296 -0.0001 -6.0635 0.0000
# 2 69.2298 77.9327 22.4378 -0.0001 -22.6055 0.0000
# 3 97.3296 22.4378 248.8007 -0.0003 12.6514 0.0001
# 4 -0.0001 -0.0001 -0.0003 17.0290 0.0002 -13.8680
# 5 -6.0635 -22.6055 12.6514 0.0002 97.5489 0.0000
# 6 0.0000 0.0000 0.0001 -13.8680 0.0000 47.5793
#
#
#
# Elastic Compliance Matrix: (Units=1/GPa)
#
#
# Indices 1 2 3 4 5 6 
#
# 1 0.005949 -0.004902 -0.001858 0.000000 -0.000525 0.000000
# 2 -0.004902 0.018307 0.000067 0.000000 0.003929 0.000000
# 3 -0.001858 0.000067 0.004777 0.000000 -0.000720 0.000000
# 4 0.000000 0.000000 0.000000 0.077001 0.000000 0.022444
# 5 -0.000525 0.003929 -0.000720 0.000000 0.011222 0.000000
# 6 0.000000 0.000000 0.000000 0.022444 0.000000 0.027559
#
#
# Mechanical properties :
#
#
# Convention : Reuss Voigt Hill
#
# Bulk Modulus (GPa) = 63.91675 106.63707 85.27691
# Shear Modulus (GPa) = 30.59653 58.61425 44.60539
#
# Velocity S-wave (km/s) = 3.27065 4.52689 3.94904
# Velocity P-wave (km/s) = 6.05057 8.03779 7.11391
#
# Compressibility (1/GPa) = 0.01564535
#
# Stress axis : x y z
#
# Youngs Moduli (GPa) = 168.09082 54.62517 209.34216
#
# Poissons Ratio (x) = 0.26778 0.38906
# Poissons Ratio (y) = 0.82399 -0.01401
# Poissons Ratio (z) = 0.31240 -0.00366
#
# Static dielectric constant tensor:
#      x y z
#    x 2.272400 0.000000 0.123800 
#    y 0.000000 2.426020 0.000000 
#    z 0.123800 0.000000 2.310130 
# 
# From -- ./inp_files/151615.got.cif
#   From: 2010.05.17/outbox.cif.g08.bks.cpg/sg15_76_cif.got.tgz:151615.got - 2010.06.03 18:47:42.
