data_PCOD9287586
_publ_section_title
;
Structure prediction by ZEFSAII (Michael W. Deem and Ramdas Pophale) SiO2 
 PCOD9287586
Probable space group: C 2/C
;
_chemical_formula_sum "Si O2"
_cell_formula_units_Z 48
_cell_length_a 13.681038
_cell_length_b 26.648347
_cell_length_c 8.747687
_cell_angle_alpha 90.000000
_cell_angle_beta 131.865440
_cell_angle_gamma 90.000000
_cell_volume 2375.047043
_symmetry_space_group_name_H-M "C 2/C"
_symmetry_group_IT_number 15
_symmetry_cell_setting 'monoclinic'
loop_
_space_group_symop_operation_xyz
x,y,z
-x,y,1/2-z
-x,-y,-z
x,-y,1/2+z
1/2+x,1/2+y,z
1/2-x,1/2+y,1/2-z
1/2-x,1/2-y,-z
1/2+x,1/2-y,1/2+z
loop_
_atom_site_type_symbol
_atom_site_label
_atom_site_fract_x
_atom_site_fract_y
_atom_site_fract_z
Si Si1 0.358123 0.210536 0.174579
Si Si2 0.778923 0.749561 0.706481
Si Si3 0.745696 0.354003 0.322642
Si Si4 0.324347 0.541999 0.715690
Si Si5 0.368892 0.441360 0.903866
Si Si6 0.537824 0.659326 0.108748
O O1 0.500000 0.218031 0.250000
O O2 0.344065 0.223600 0.336573
O O3 0.250000 0.250000 0.000000
O O4 0.301115 0.158456 0.048931
O O5 0.750000 0.750000 0.500000
O O6 0.803185 0.692056 0.783392
O O7 0.897435 0.787560 0.858273
O O8 0.763324 0.412858 0.306558
O O9 0.590011 0.345805 0.132942
O O10 0.297046 0.484613 0.731463
O O11 0.329128 0.551600 0.538981
O O12 0.472876 0.549755 0.933148
O O13 0.362135 0.385674 0.827642
O O14 0.500000 0.656070 0.250000
#
# Coordination Sequence:
#
# PCOD9287586 Si02
#       6
#     8   8   8   8   8   8
#     4  10  24  40  61  86 121 166 211 259 315 379
#     4  11  23  36  57  86 123 168 210 259 311 376
#     4  10  22  37  58  83 127 161 211 250 318 373
#     4   9  18  33  50  85 112 163 196 255 308 386
#     4   9  19  30  54  77 122 154 202 247 323 365
#     4  11  22  36  57  89 130 169 208 264 319 372
#
# _framework density 20.210125999999999
#
# number of rings (size 3 to 8) (size 9 to 14) (size 15 to 20)
#    0.000    2.000    1.667    1.000   16.333    1.333 
#    3.000    0.000    0.000    0.000    0.000    4.667 
#    0.000    0.000    0.000    0.000    0.000    0.000 
#
# Total GULP energy -133649.183275 kJ/mol
# GULP energy per Si atom -5568.715970 kJ/mol
# Density = 2.016413 g / cm^3
# Si number density = 20.210126 Si / 1000 Ang^3
#
#
#
# Elastic Constant Matrix: (Units=GPa)
#
#
# Indices 1 2 3 4 5 6 
#
# 1 78.4946 40.0196 44.7375 0.0000 -12.1479 0.0000
# 2 40.0196 175.6270 38.3984 0.0000 -7.5922 0.0000
# 3 44.7375 38.3984 46.6017 0.0000 -4.1942 0.0000
# 4 0.0000 0.0000 0.0000 27.7371 0.0000 0.5226
# 5 -12.1479 -7.5922 -4.1942 0.0000 27.0731 0.0000
# 6 0.0000 0.0000 0.0000 0.5226 0.0000 28.4903
#
#
#
# Elastic Compliance Matrix: (Units=1/GPa)
#
#
# Indices 1 2 3 4 5 6 
#
# 1 0.030256 -0.000401 -0.027893 0.000000 0.009143 0.000000
# 2 -0.000401 0.006981 -0.005281 0.000000 0.000960 0.000000
# 3 -0.027893 -0.005281 0.052053 0.000000 -0.005933 0.000000
# 4 0.000000 0.000000 0.000000 0.036065 0.000000 -0.000662
# 5 0.009143 0.000960 -0.005933 0.000000 0.040389 0.000000
# 6 0.000000 0.000000 0.000000 -0.000662 0.000000 0.035112
#
#
# Mechanical properties :
#
#
# Convention : Reuss Voigt Hill
#
# Bulk Modulus (GPa) = 45.16522 60.78158 52.97340
# Shear Modulus (GPa) = 18.15618 28.49795 23.32706
#
# Velocity S-wave (km/s) = 3.00053 3.75918 3.40108
# Velocity P-wave (km/s) = 5.86520 6.99872 6.45688
#
# Compressibility (1/GPa) = 0.02214093
#
# Stress axis : x y z
#
# Youngs Moduli (GPa) = 33.05078 143.23804 19.21107
#
# Poissons Ratio (x) = 0.05741 0.53586
# Poissons Ratio (y) = 0.01325 0.10146
# Poissons Ratio (z) = 0.92189 0.75648
#
# Static dielectric constant tensor:
#      x y z
#    x 1.798600 0.000000 -0.063490 
#    y 0.000000 1.784420 0.000000 
#    z -0.063490 0.000000 1.808180 
# 
# From -- ./inp_files/33811.got.cif
#   From: 2010.05.17/outbox.cif.g08.bks.cpg/sg15_17_cif.got.tgz:33811.got - 2010.06.03 18:47:42.
