data_PCOD9287849
_publ_section_title
;
Structure prediction by ZEFSAII (Michael W. Deem and Ramdas Pophale) SiO2 
 PCOD9287849
Probable space group: C 2/C
;
_chemical_formula_sum "Si O2"
_cell_formula_units_Z 64
_cell_length_a 9.744219
_cell_length_b 27.149345
_cell_length_c 13.576637
_cell_angle_alpha 90.000000
_cell_angle_beta 102.583357
_cell_angle_gamma 90.000000
_cell_volume 3505.415924
_symmetry_space_group_name_H-M "C 2/C"
_symmetry_group_IT_number 15
_symmetry_cell_setting 'monoclinic'
loop_
_space_group_symop_operation_xyz
x,y,z
-x,y,1/2-z
-x,-y,-z
x,-y,1/2+z
1/2+x,1/2+y,z
1/2-x,1/2+y,1/2-z
1/2-x,1/2-y,-z
1/2+x,1/2-y,1/2+z
loop_
_atom_site_type_symbol
_atom_site_label
_atom_site_fract_x
_atom_site_fract_y
_atom_site_fract_z
Si Si1 0.154200 0.616116 0.377359
Si Si2 0.152158 0.861717 0.303295
Si Si3 0.665805 0.880711 0.650477
Si Si4 0.851501 0.297311 0.013260
Si Si5 0.383097 0.560596 0.527132
Si Si6 0.811576 0.052467 0.019203
Si Si7 0.145843 0.389159 0.335696
Si Si8 0.169107 0.294872 0.032925
O O1 0.185356 0.628482 0.269034
O O2 0.269410 0.577652 0.429698
O O3 0.165593 0.663552 0.448320
O O4 0.994758 0.598581 0.374486
O O5 0.130710 0.903561 0.382123
O O6 0.230830 0.885996 0.224332
O O7 0.250671 0.819407 0.363203
O O8 0.000000 0.841813 0.250000
O O9 0.673485 0.830508 0.588354
O O10 0.770262 0.918190 0.611850
O O11 0.750000 0.250000 0.000000
O O12 0.847120 0.337839 0.100988
O O13 0.012062 0.279779 0.035777
O O14 0.539132 0.566881 0.506893
O O15 0.338550 0.504893 0.545118
O O16 0.688503 0.068327 0.921649
O O17 0.000000 0.394533 0.250000
O O18 0.250000 0.250000 0.000000
#
# Coordination Sequence:
#
# PCOD9287849 Si02
#       8
#     8   8   8   8   8   8   8   8
#     4   9  20  40  59  81 119 154 195 240 287 352
#     4  11  22  40  62  88 122 161 197 245 299 355
#     4   9  20  40  59  83 115 158 193 237 296 343
#     4  10  22  38  60  86 121 154 195 247 293 351
#     4  10  22  39  59  89 121 152 198 244 293 353
#     4  10  22  39  60  88 120 155 194 246 296 346
#     4  11  22  42  62  87 123 159 198 245 298 355
#     4  10  22  38  58  89 119 153 198 244 292 353
#
# _framework density 18.257462
#
# number of rings (size 3 to 8) (size 9 to 14) (size 15 to 20)
#    0.000    2.000    2.500    0.000    3.500    4.000 
#    4.500    0.000    0.000    0.000    0.000    0.000 
#    0.000    0.000    0.000    0.000    0.000    0.000 
#
# Total GULP energy -178338.108896 kJ/mol
# GULP energy per Si atom -5573.065903 kJ/mol
# Density = 1.821591 g / cm^3
# Si number density = 18.257462 Si / 1000 Ang^3
#
#
#
# Elastic Constant Matrix: (Units=GPa)
#
#
# Indices 1 2 3 4 5 6 
#
# 1 107.1045 41.7096 32.1873 0.0000 6.1205 0.0000
# 2 41.7096 54.0656 5.2201 0.0000 7.7198 0.0000
# 3 32.1873 5.2201 71.0488 0.0000 0.5974 0.0000
# 4 0.0000 0.0000 0.0000 8.3035 0.0000 1.3744
# 5 6.1205 7.7198 0.5974 0.0000 30.3452 0.0000
# 6 0.0000 0.0000 0.0000 1.3744 0.0000 29.2290
#
#
#
# Elastic Compliance Matrix: (Units=1/GPa)
#
#
# Indices 1 2 3 4 5 6 
#
# 1 0.015702 -0.011491 -0.006268 0.000000 -0.000120 0.000000
# 2 -0.011491 0.027737 0.003208 0.000000 -0.004802 0.000000
# 3 -0.006268 0.003208 0.016678 0.000000 0.000120 0.000000
# 4 0.000000 0.000000 0.000000 0.121376 0.000000 -0.005708
# 5 -0.000120 -0.004802 0.000120 0.000000 0.034198 0.000000
# 6 0.000000 0.000000 0.000000 -0.005708 0.000000 0.034481
#
#
# Mechanical properties :
#
#
# Convention : Reuss Voigt Hill
#
# Bulk Modulus (GPa) = 32.24280 43.38366 37.81323
# Shear Modulus (GPa) = 17.26442 23.78233 20.52338
#
# Velocity S-wave (km/s) = 3.07841 3.61308 3.35641
# Velocity P-wave (km/s) = 5.50762 6.42025 5.98137
#
# Compressibility (1/GPa) = 0.03101467
#
# Stress axis : x y z
#
# Youngs Moduli (GPa) = 63.68432 36.05275 59.95972
#
# Poissons Ratio (x) = 0.41430 0.37585
# Poissons Ratio (y) = 0.73183 -0.19238
# Poissons Ratio (z) = 0.39920 -0.11567
#
# Static dielectric constant tensor:
#      x y z
#    x 1.616150 0.000000 0.017730 
#    y 0.000000 1.602740 0.000000 
#    z 0.017730 0.000000 1.649570 
# 
# From -- ./inp_files/138666.got.cif
#   From: 2010.05.17/outbox.cif.g08.bks.cpg/sg15_70_cif.got.tgz:138666.got - 2010.06.03 18:47:42.
