data_PCOD9287887
_publ_section_title
;
Structure prediction by ZEFSAII (Michael W. Deem and Ramdas Pophale) SiO2 
 PCOD9287887
Probable space group: C 2/C
;
_chemical_formula_sum "Si O2"
_cell_formula_units_Z 40
_cell_length_a 13.777374
_cell_length_b 13.227906
_cell_length_c 12.218317
_cell_angle_alpha 90.000000
_cell_angle_beta 123.251606
_cell_angle_gamma 90.000000
_cell_volume 1862.155150
_symmetry_space_group_name_H-M "C 2/C"
_symmetry_group_IT_number 15
_symmetry_cell_setting 'monoclinic'
loop_
_space_group_symop_operation_xyz
x,y,z
-x,y,1/2-z
-x,-y,-z
x,-y,1/2+z
1/2+x,1/2+y,z
1/2-x,1/2+y,1/2-z
1/2-x,1/2-y,-z
1/2+x,1/2-y,1/2+z
loop_
_atom_site_type_symbol
_atom_site_label
_atom_site_fract_x
_atom_site_fract_y
_atom_site_fract_z
Si Si1 0.272555 0.637571 0.716943
Si Si2 0.302020 0.446551 0.601453
Si Si3 0.279425 0.361474 0.827850
Si Si4 0.865213 0.556401 0.687365
Si Si5 0.520928 0.413422 0.384809
O O1 0.256404 0.559242 0.608048
O O2 0.282688 0.754226 0.696469
O O3 0.163542 0.628465 0.729164
O O4 0.389287 0.592251 0.846412
O O5 0.310577 0.384795 0.719630
O O6 0.206776 0.403118 0.461090
O O7 0.420037 0.478425 0.610444
O O8 0.193666 0.450392 0.814081
O O9 0.392064 0.363853 0.976003
O O10 0.000000 0.546599 0.750000
O O11 0.500000 0.365941 0.250000
#
# Coordination Sequence:
#
# PCOD9287887 Si02
#       5
#     8   8   8   8   8
#     4  10  22  38  59  88 115 147 196 241 282 339
#     4   9  21  38  58  84 117 152 190 237 289 337
#     4  10  22  39  61  87 116 153 193 236 287 341
#     4  10  23  40  58  84 120 155 189 234 290 344
#     4   9  20  37  59  84 115 147 191 239 282 334
#
# _framework density 21.480487
#
# number of rings (size 3 to 8) (size 9 to 14) (size 15 to 20)
#    0.000    2.400    0.000    0.000    0.000   31.200 
#    0.000    5.000    0.000    0.000    0.000    0.000 
#    0.000    0.000    0.000    0.000    0.000    0.000 
#
# Total GULP energy -111460.883380 kJ/mol
# GULP energy per Si atom -5573.044169 kJ/mol
# Density = 2.143160 g / cm^3
# Si number density = 21.480487 Si / 1000 Ang^3
#
#
#
# Elastic Constant Matrix: (Units=GPa)
#
#
# Indices 1 2 3 4 5 6 
#
# 1 100.4997 -2.9587 7.0225 0.0000 19.3171 0.0000
# 2 -2.9587 38.8671 -9.0895 0.0000 -8.3970 0.0000
# 3 7.0225 -9.0895 40.5118 0.0000 -4.7628 0.0000
# 4 0.0000 0.0000 0.0000 5.6010 0.0000 0.7901
# 5 19.3171 -8.3970 -4.7628 0.0000 39.6815 0.0000
# 6 0.0000 0.0000 0.0000 0.7901 0.0000 8.9815
#
#
#
# Elastic Compliance Matrix: (Units=1/GPa)
#
#
# Indices 1 2 3 4 5 6 
#
# 1 0.011292 -0.001141 -0.002929 0.000000 -0.006090 0.000000
# 2 -0.001141 0.029069 0.007616 0.000000 0.007621 0.000000
# 3 -0.002929 0.007616 0.027648 0.000000 0.006356 0.000000
# 4 0.000000 0.000000 0.000000 0.180784 0.000000 -0.015904
# 5 -0.006090 0.007621 0.006356 0.000000 0.030541 0.000000
# 6 0.000000 0.000000 0.000000 -0.015904 0.000000 0.112739
#
#
# Mechanical properties :
#
#
# Convention : Reuss Voigt Hill
#
# Bulk Modulus (GPa) = 13.31554 18.86967 16.09260
# Shear Modulus (GPa) = 12.19466 23.17976 17.68721
#
# Velocity S-wave (km/s) = 2.38525 3.28854 2.87262
# Velocity P-wave (km/s) = 3.71460 4.81902 4.30240
#
# Compressibility (1/GPa) = 0.07510025
#
# Stress axis : x y z
#
# Youngs Moduli (GPa) = 88.55869 34.40037 36.16893
#
# Poissons Ratio (x) = 0.03926 0.10595
# Poissons Ratio (y) = 0.10106 -0.27546
# Poissons Ratio (z) = 0.25943 -0.26200
#
# Static dielectric constant tensor:
#      x y z
#    x 1.866150 0.000000 -0.030230 
#    y 0.000000 1.755200 0.000000 
#    z -0.030230 0.000000 1.804920 
# 
# From -- ./inp_files/96673.got.cif
#   From: 2010.05.17/outbox.cif.g08.bks.cpg/sg15_49_cif.got.tgz:96673.got - 2010.06.03 18:47:42.
