data_PCOD9287180
_publ_section_title
;
Structure prediction by ZEFSAII (Michael W. Deem and Ramdas Pophale) SiO2 
 PCOD9287180
Probable space group: C 2/C
;
_chemical_formula_sum "Si O2"
_cell_formula_units_Z 60
_cell_length_a 17.290708
_cell_length_b 28.956610
_cell_length_c 7.749413
_cell_angle_alpha 90.000000
_cell_angle_beta 120.584482
_cell_angle_gamma 90.000000
_cell_volume 3340.195222
_symmetry_space_group_name_H-M "C 2/C"
_symmetry_group_IT_number 15
_symmetry_cell_setting 'monoclinic'
loop_
_space_group_symop_operation_xyz
x,y,z
-x,y,1/2-z
-x,-y,-z
x,-y,1/2+z
1/2+x,1/2+y,z
1/2-x,1/2+y,1/2-z
1/2-x,1/2-y,-z
1/2+x,1/2-y,1/2+z
loop_
_atom_site_type_symbol
_atom_site_label
_atom_site_fract_x
_atom_site_fract_y
_atom_site_fract_z
Si Si1 0.399663 0.968351 0.055640
Si Si2 0.514139 0.883655 0.475156
Si Si3 0.836057 0.435523 0.333153
Si Si4 0.806783 0.296396 0.043067
Si Si5 0.932349 0.791861 0.326997
Si Si6 0.357567 0.189891 0.229529
Si Si7 0.238874 0.851536 0.291584
Si Si8 0.000000 0.748510 0.750000
O O1 0.500000 0.977235 0.250000
O O2 0.418517 0.927845 0.938830
O O3 0.336950 0.946881 0.131185
O O4 0.359393 0.015892 0.945578
O O5 0.500000 0.876738 0.250000
O O6 0.421453 0.901199 0.449612
O O7 0.555071 0.840060 0.618385
O O8 0.751619 0.406625 0.302160
O O9 0.773362 0.332393 0.146092
O O10 0.911210 0.282091 0.182221
O O11 0.750000 0.250000 0.000000
O O12 0.798336 0.312861 0.836774
O O13 0.882854 0.743180 0.226000
O O14 0.858684 0.830886 0.280015
O O15 0.982432 0.779347 0.561945
O O16 0.000000 0.803284 0.250000
O O17 0.304343 0.169570 0.010154
#
# Coordination Sequence:
#
# PCOD9287180 Si02
#       8
#     8   8   8   8   8   8   8   4
#     4   9  18  36  53  79 120 153 189 230 292 353
#     4   9  19  35  53  85 118 161 197 228 275 360
#     4  10  22  33  58  79 120 145 197 235 286 351
#     4  11  22  40  58  82 120 158 206 241 287 344
#     4  11  25  40  57  83 115 156 205 243 293 348
#     4  11  24  35  60  82 122 159 197 236 293 329
#     4  12  25  39  56  90 115 153 202 253 284 352
#     4  10  22  38  64  74 114 174 186 242 304 324
#
# _framework density 17.963023
#
# number of rings (size 3 to 8) (size 9 to 14) (size 15 to 20)
#    0.000    1.867    2.667    4.400   14.933    0.000 
#    0.000    0.000    0.000    0.000    0.000    0.933 
#    0.000    0.000    0.000    0.000    0.000    0.000 
#
# Total GULP energy -167586.364971 kJ/mol
# GULP energy per Si atom -5586.212166 kJ/mol
# Density = 1.792214 g / cm^3
# Si number density = 17.963023 Si / 1000 Ang^3
#
#
#
# Elastic Constant Matrix: (Units=GPa)
#
#
# Indices 1 2 3 4 5 6 
#
# 1 108.4977 41.1000 20.2273 0.0000 -7.3545 0.0000
# 2 41.1000 93.6491 10.4771 0.0000 4.8256 0.0000
# 3 20.2273 10.4771 19.2447 0.0000 -5.6739 0.0000
# 4 0.0000 0.0000 0.0000 20.9800 0.0000 7.3711
# 5 -7.3545 4.8256 -5.6739 0.0000 17.5284 0.0000
# 6 0.0000 0.0000 0.0000 7.3711 0.0000 26.9280
#
#
#
# Elastic Compliance Matrix: (Units=1/GPa)
#
#
# Indices 1 2 3 4 5 6 
#
# 1 0.013187 -0.004833 -0.010177 0.000000 0.003569 0.000000
# 2 -0.004833 0.013677 -0.004504 0.000000 -0.007251 0.000000
# 3 -0.010177 -0.004504 0.070993 0.000000 0.019950 0.000000
# 4 0.000000 0.000000 0.000000 0.052736 0.000000 -0.014436
# 5 0.003569 -0.007251 0.019950 0.000000 0.067002 0.000000
# 6 0.000000 0.000000 0.000000 -0.014436 0.000000 0.041088
#
#
# Mechanical properties :
#
#
# Convention : Reuss Voigt Hill
#
# Bulk Modulus (GPa) = 16.99840 40.55557 28.77699
# Shear Modulus (GPa) = 15.75707 23.05976 19.40842
#
# Velocity S-wave (km/s) = 2.96496 3.58681 3.29061
# Velocity P-wave (km/s) = 4.60487 6.30713 5.52199
#
# Compressibility (1/GPa) = 0.05882905
#
# Stress axis : x y z
#
# Youngs Moduli (GPa) = 75.83459 73.11767 14.08595
#
# Poissons Ratio (x) = 0.35335 0.14335
# Poissons Ratio (y) = 0.36648 0.06344
# Poissons Ratio (z) = 0.77174 0.32933
#
# Static dielectric constant tensor:
#      x y z
#    x 1.661200 0.000000 -0.020350 
#    y 0.000000 1.645800 0.000000 
#    z -0.020350 0.000000 1.648610 
# 
# From -- ./inp_files/52563.got.cif
#   From: 2010.05.17/outbox.cif.g08.bks.cpg/sg15_27_cif.got.tgz:52563.got - 2010.06.03 18:47:42.
