data_PCOD9287196
_publ_section_title
;
Structure prediction by ZEFSAII (Michael W. Deem and Ramdas Pophale) SiO2 
 PCOD9287196
Probable space group: C 2/C
;
_chemical_formula_sum "Si O2"
_cell_formula_units_Z 56
_cell_length_a 13.327387
_cell_length_b 21.058219
_cell_length_c 16.764995
_cell_angle_alpha 90.000000
_cell_angle_beta 36.543499
_cell_angle_gamma 90.000000
_cell_volume 2801.579207
_symmetry_space_group_name_H-M "C 2/C"
_symmetry_group_IT_number 15
_symmetry_cell_setting 'monoclinic'
loop_
_space_group_symop_operation_xyz
x,y,z
-x,y,1/2-z
-x,-y,-z
x,-y,1/2+z
1/2+x,1/2+y,z
1/2-x,1/2+y,1/2-z
1/2-x,1/2-y,-z
1/2+x,1/2-y,1/2+z
loop_
_atom_site_type_symbol
_atom_site_label
_atom_site_fract_x
_atom_site_fract_y
_atom_site_fract_z
Si Si1 0.814865 0.016650 0.849134
Si Si2 0.845390 0.313674 0.911578
Si Si3 0.006485 0.306893 0.513268
Si Si4 0.263834 0.401070 0.772935
Si Si5 0.696440 0.895483 0.282474
Si Si6 0.495958 0.010118 0.160814
Si Si7 0.954845 0.845062 0.504069
O O1 0.836527 0.948803 0.791983
O O2 0.000000 0.042103 0.750000
O O3 0.727051 0.062010 0.841121
O O4 0.683337 0.010713 0.004990
O O5 0.700529 0.353202 0.959224
O O6 0.000000 0.303768 0.750000
O O7 0.750000 0.250000 0.000000
O O8 0.916485 0.333470 0.951994
O O9 0.109965 0.332264 0.371704
O O10 0.010383 0.230774 0.513311
O O11 0.827244 0.341553 0.627374
O O12 0.127937 0.444104 0.810589
O O13 0.394053 0.373844 0.626092
O O14 0.581084 0.939283 0.300063
O O15 0.876475 0.879384 0.131059
O O16 0.500000 0.030127 0.250000
#
# Coordination Sequence:
#
# PCOD9287196 Si02
#       7
#     8   8   8   8   8   8   8
#     4  11  25  43  66  91 120 163 208 260 308 357
#     4  10  22  34  51  86 126 166 202 235 292 362
#     4  11  21  41  62  87 133 167 201 245 310 368
#     4  11  22  42  65  90 127 163 205 250 311 363
#     4  11  24  42  63  94 125 161 209 251 307 370
#     4  11  25  43  67  89 122 163 206 262 309 354
#     4  11  25  35  63  96 125 167 202 251 302 375
#
# _framework density 19.988726
#
# number of rings (size 3 to 8) (size 9 to 14) (size 15 to 20)
#    0.000    1.143    4.286    1.714   14.000    1.143 
#    0.000    0.000    0.000    5.143    0.000    0.000 
#    0.000    0.000    0.000    0.000    0.000    0.000 
#
# Total GULP energy -156373.033666 kJ/mol
# GULP energy per Si atom -5584.751202 kJ/mol
# Density = 1.994323 g / cm^3
# Si number density = 19.988726 Si / 1000 Ang^3
#
#
#
# Elastic Constant Matrix: (Units=GPa)
#
#
# Indices 1 2 3 4 5 6 
#
# 1 31.4946 2.2271 12.9428 -0.0016 2.7759 0.0034
# 2 2.2271 71.8987 16.5411 -0.0024 3.6627 0.0057
# 3 12.9428 16.5411 163.9819 -0.0010 3.7398 0.0053
# 4 -0.0016 -0.0024 -0.0010 36.1708 0.0014 -10.6735
# 5 2.7759 3.6627 3.7398 0.0014 20.6232 -0.0044
# 6 0.0034 0.0057 0.0053 -10.6735 -0.0044 37.7869
#
#
#
# Elastic Compliance Matrix: (Units=1/GPa)
#
#
# Indices 1 2 3 4 5 6 
#
# 1 0.033146 -0.000249 -0.002501 0.000001 -0.003964 -0.000003
# 2 -0.000249 0.014348 -0.001376 0.000000 -0.002265 -0.000002
# 3 -0.002501 -0.001376 0.006448 0.000000 -0.000588 -0.000001
# 4 0.000001 0.000000 0.000000 0.030161 0.000000 0.008519
# 5 -0.003964 -0.002265 -0.000588 0.000000 0.049531 0.000006
# 6 -0.000003 -0.000002 -0.000001 0.008519 0.000006 0.028871
#
#
# Mechanical properties :
#
#
# Convention : Reuss Voigt Hill
#
# Bulk Modulus (GPa) = 21.88665 36.75524 29.32094
# Shear Modulus (GPa) = 26.88362 34.62713 30.75537
#
# Velocity S-wave (km/s) = 3.67132 4.16665 3.92680
# Velocity P-wave (km/s) = 5.38003 6.44793 5.93804
#
# Compressibility (1/GPa) = 0.04568995
#
# Stress axis : x y z
#
# Youngs Moduli (GPa) = 30.16941 69.69554 155.09125
#
# Poissons Ratio (x) = 0.01739 0.38782
# Poissons Ratio (y) = 0.00753 0.21340
# Poissons Ratio (z) = 0.07544 0.09590
#
# Static dielectric constant tensor:
#      x y z
#    x 1.759760 0.000010 -0.040090 
#    y 0.000010 1.770420 0.000000 
#    z -0.040090 0.000000 1.716000 
# 
# From -- ./inp_files/41258.got.cif
#   From: 2010.05.17/outbox.cif.g08.bks.cpg/sg15_21_cif.got.tgz:41258.got - 2010.06.03 18:47:42.
