data_PCOD9287543
_publ_section_title
;
Structure prediction by ZEFSAII (Michael W. Deem and Ramdas Pophale) SiO2 
 PCOD9287543
Probable space group: C 2/C
;
_chemical_formula_sum "Si O2"
_cell_formula_units_Z 48
_cell_length_a 12.456843
_cell_length_b 22.721284
_cell_length_c 9.327368
_cell_angle_alpha 90.000000
_cell_angle_beta 115.274007
_cell_angle_gamma 90.000000
_cell_volume 2387.267784
_symmetry_space_group_name_H-M "C 2/C"
_symmetry_group_IT_number 15
_symmetry_cell_setting 'monoclinic'
loop_
_space_group_symop_operation_xyz
x,y,z
-x,y,1/2-z
-x,-y,-z
x,-y,1/2+z
1/2+x,1/2+y,z
1/2-x,1/2+y,1/2-z
1/2-x,1/2-y,-z
1/2+x,1/2-y,1/2+z
loop_
_atom_site_type_symbol
_atom_site_label
_atom_site_fract_x
_atom_site_fract_y
_atom_site_fract_z
Si Si1 0.697072 0.083595 0.562076
Si Si2 0.210680 0.362546 0.385546
Si Si3 0.523516 0.661705 0.417568
Si Si4 0.500000 0.772652 0.250000
Si Si5 0.321313 0.955331 0.876912
Si Si6 0.500000 0.100272 0.250000
Si Si7 0.402022 0.447550 0.961419
O O1 0.712188 0.111873 0.726049
O O2 0.607678 0.123828 0.415033
O O3 0.818598 0.062518 0.553255
O O4 0.639412 0.019817 0.553869
O O5 0.337315 0.333116 0.483501
O O6 0.190904 0.413762 0.491336
O O7 0.109135 0.314390 0.345098
O O8 0.500000 0.631845 0.250000
O O9 0.471958 0.726975 0.363904
O O10 0.468134 0.615195 0.491800
O O11 0.415666 0.931467 0.816935
O O12 0.195038 0.956560 0.720746
O O13 0.500000 0.500000 0.000000
#
# Coordination Sequence:
#
# PCOD9287543 Si02
#       7
#     8   8   8   4   8   4   8
#     4  11  24  37  61  95 131 168 209 264 322 386
#     4  12  22  41  68  98 123 171 222 262 316 382
#     4  10  22  41  65  92 126 160 211 266 315 370
#     4  10  24  41  66  92 122 175 222 264 312 374
#     4  11  21  38  60  92 132 169 210 260 316 383
#     4  10  22  37  52  82 132 171 202 246 310 370
#     4  11  23  40  63  94 130 169 203 261 336 387
#
# _framework density 20.106667000000002
#
# number of rings (size 3 to 8) (size 9 to 14) (size 15 to 20)
#    0.500    0.667    1.667    6.000    0.000    3.333 
#    0.000    1.667    0.000    6.000    0.000    0.000 
#    0.000    0.000    0.000    0.000    0.000    0.000 
#
# Total GULP energy -133655.797175 kJ/mol
# GULP energy per Si atom -5568.991549 kJ/mol
# Density = 2.006090 g / cm^3
# Si number density = 20.106667 Si / 1000 Ang^3
#
#
#
# Elastic Constant Matrix: (Units=GPa)
#
#
# Indices 1 2 3 4 5 6 
#
# 1 93.8289 5.9041 48.5398 0.0000 12.3563 0.0000
# 2 5.9041 67.8386 29.9332 0.0000 8.2202 0.0000
# 3 48.5398 29.9332 109.0260 0.0000 0.4323 0.0000
# 4 0.0000 0.0000 0.0000 2.0171 0.0000 0.4194
# 5 12.3563 8.2202 0.4323 0.0000 41.1961 0.0000
# 6 0.0000 0.0000 0.0000 0.4194 0.0000 23.8982
#
#
#
# Elastic Compliance Matrix: (Units=1/GPa)
#
#
# Indices 1 2 3 4 5 6 
#
# 1 0.014933 0.002526 -0.007322 0.000000 -0.004906 0.000000
# 2 0.002526 0.017661 -0.005956 0.000000 -0.004219 0.000000
# 3 -0.007322 -0.005956 0.014055 0.000000 0.003237 0.000000
# 4 0.000000 0.000000 0.000000 0.497586 0.000000 -0.008733
# 5 -0.004906 -0.004219 0.003237 0.000000 0.026554 0.000000
# 6 0.000000 0.000000 0.000000 -0.008733 0.000000 0.041997
#
#
# Mechanical properties :
#
#
# Convention : Reuss Voigt Hill
#
# Bulk Modulus (GPa) = 39.77417 48.82752 44.30085
# Shear Modulus (GPa) = 7.78002 25.84337 16.81169
#
# Velocity S-wave (km/s) = 1.96921 3.58902 2.89472
# Velocity P-wave (km/s) = 4.99949 6.44296 5.76657
#
# Compressibility (1/GPa) = 0.02514194
#
# Stress axis : x y z
#
# Youngs Moduli (GPa) = 66.96658 56.62346 71.15096
#
# Poissons Ratio (x) = -0.14302 0.52099
# Poissons Ratio (y) = -0.16914 0.42381
# Poissons Ratio (z) = 0.49035 0.33728
#
# Static dielectric constant tensor:
#      x y z
#    x 1.841550 0.000000 -0.067810 
#    y 0.000000 1.706070 0.000000 
#    z -0.067810 0.000000 1.819850 
# 
# From -- ./inp_files/32701.got.cif
#   From: 2010.05.17/outbox.cif.g08.bks.cpg/sg15_17_cif.got.tgz:32701.got - 2010.06.03 18:47:42.
