data_PCOD9287110
_publ_section_title
;
Structure prediction by ZEFSAII (Michael W. Deem and Ramdas Pophale) SiO2 
 PCOD9287110
Probable space group: C 2/C
;
_chemical_formula_sum "Si O2"
_cell_formula_units_Z 60
_cell_length_a 14.904599
_cell_length_b 12.073241
_cell_length_c 14.520878
_cell_angle_alpha 90.000000
_cell_angle_beta 114.033317
_cell_angle_gamma 90.000000
_cell_volume 2386.462859
_symmetry_space_group_name_H-M "C 2/C"
_symmetry_group_IT_number 15
_symmetry_cell_setting 'monoclinic'
loop_
_space_group_symop_operation_xyz
x,y,z
-x,y,1/2-z
-x,-y,-z
x,-y,1/2+z
1/2+x,1/2+y,z
1/2-x,1/2+y,1/2-z
1/2-x,1/2-y,-z
1/2+x,1/2-y,1/2+z
loop_
_atom_site_type_symbol
_atom_site_label
_atom_site_fract_x
_atom_site_fract_y
_atom_site_fract_z
Si Si1 0.000000 0.703208 0.250000
Si Si2 0.897460 0.048402 0.502933
Si Si3 0.652565 0.680815 0.482308
Si Si4 0.368619 0.609402 0.707661
Si Si5 0.564218 0.067496 0.430247
Si Si6 0.640333 0.635633 0.278101
Si Si7 0.157457 0.726598 0.617670
Si Si8 0.868877 0.381497 0.925349
O O1 0.067073 0.791128 0.223905
O O2 0.075199 0.629109 0.339023
O O3 0.895019 0.086164 0.610276
O O4 0.847709 0.151577 0.430752
O O5 0.829300 0.939689 0.470405
O O6 0.000000 0.000000 0.500000
O O7 0.750000 0.750000 0.500000
O O8 0.599062 0.660935 0.362707
O O9 0.599196 0.758493 0.532417
O O10 0.387344 0.489820 0.761543
O O11 0.259354 0.659064 0.666149
O O12 0.595070 0.149801 0.524507
O O13 0.445919 0.060431 0.389687
O O14 0.619049 0.955018 0.476753
O O15 0.622586 0.738929 0.204617
O O16 0.759047 0.622294 0.341363
#
# Coordination Sequence:
#
# PCOD9287110 Si02
#       8
#     4   8   8   8   8   8   8   8
#     4  12  26  42  68  98 146 186 248 292 372 416
#     4  11  24  42  70 104 140 188 236 293 364 425
#     4   9  21  41  66  94 133 180 229 282 346 427
#     4  11  25  45  67 102 148 188 241 308 354 440
#     4  11  24  43  69 100 138 188 236 300 355 432
#     4  10  23  42  69 103 138 186 238 296 369 426
#     4  12  24  43  73 106 144 186 244 298 368 434
#     4  10  21  47  67  94 143 180 240 294 359 431
#
# _framework density 25.141812000000002
#
# number of rings (size 3 to 8) (size 9 to 14) (size 15 to 20)
#    0.000    1.333    2.667    2.000    1.867    2.133 
#    4.800    0.000    0.000    0.000    0.000    0.000 
#    0.000    0.000    0.000    0.000    0.000    0.000 
#
# Total GULP energy -167508.475852 kJ/mol
# GULP energy per Si atom -5583.615862 kJ/mol
# Density = 2.508459 g / cm^3
# Si number density = 25.141812 Si / 1000 Ang^3
#
#
#
# Elastic Constant Matrix: (Units=GPa)
#
#
# Indices 1 2 3 4 5 6 
#
# 1 85.0553 -3.5845 -6.0824 0.0000 0.5543 0.0000
# 2 -3.5845 139.3084 28.6850 0.0000 -10.8534 0.0000
# 3 -6.0824 28.6850 69.2468 0.0000 -11.0816 0.0000
# 4 0.0000 0.0000 0.0000 27.8237 0.0000 -3.9485
# 5 0.5543 -10.8534 -11.0816 0.0000 31.4577 0.0000
# 6 0.0000 0.0000 0.0000 -3.9485 0.0000 34.5938
#
#
#
# Elastic Compliance Matrix: (Units=1/GPa)
#
#
# Indices 1 2 3 4 5 6 
#
# 1 0.011834 0.000108 0.001025 0.000000 0.000190 0.000000
# 2 0.000108 0.007931 -0.003008 0.000000 0.001675 0.000000
# 3 0.001025 -0.003008 0.016541 0.000000 0.004771 0.000000
# 4 0.000000 0.000000 0.000000 0.036532 0.000000 0.004170
# 5 0.000190 0.001675 0.004771 0.000000 0.034044 0.000000
# 6 0.000000 0.000000 0.000000 0.004170 0.000000 0.029383
#
#
# Mechanical properties :
#
#
# Convention : Reuss Voigt Hill
#
# Bulk Modulus (GPa) = 30.71626 36.84961 33.78294
# Shear Modulus (GPa) = 33.14212 37.08119 35.11166
#
# Velocity S-wave (km/s) = 3.63465 3.84458 3.74109
# Velocity P-wave (km/s) = 5.46425 5.86484 5.66808
#
# Compressibility (1/GPa) = 0.03255604
#
# Stress axis : x y z
#
# Youngs Moduli (GPa) = 84.50458 126.08870 60.45731
#
# Poissons Ratio (x) = -0.01365 -0.06197
# Poissons Ratio (y) = -0.00915 0.18184
# Poissons Ratio (z) = -0.08662 0.37925
#
# Static dielectric constant tensor:
#      x y z
#    x 2.192030 0.000000 0.029670 
#    y 0.000000 2.009670 0.000000 
#    z 0.029670 0.000000 2.125280 
# 
# From -- ./inp_files/161376.got.cif
#   From: 2010.05.17/outbox.cif.g08.bks.cpg/sg15_81_cif.got.tgz:161376.got - 2010.06.03 18:47:42.
