data_PCOD9287466
_publ_section_title
;
Structure prediction by ZEFSAII (Michael W. Deem and Ramdas Pophale) SiO2 
 PCOD9287466
Probable space group: C 2/C
;
_chemical_formula_sum "Si O2"
_cell_formula_units_Z 56
_cell_length_a 25.778189
_cell_length_b 11.821923
_cell_length_c 18.721480
_cell_angle_alpha 90.000000
_cell_angle_beta 27.133406
_cell_angle_gamma 90.000000
_cell_volume 2601.994476
_symmetry_space_group_name_H-M "C 2/C"
_symmetry_group_IT_number 15
_symmetry_cell_setting 'monoclinic'
loop_
_space_group_symop_operation_xyz
x,y,z
-x,y,1/2-z
-x,-y,-z
x,-y,1/2+z
1/2+x,1/2+y,z
1/2-x,1/2+y,1/2-z
1/2-x,1/2-y,-z
1/2+x,1/2-y,1/2+z
loop_
_atom_site_type_symbol
_atom_site_label
_atom_site_fract_x
_atom_site_fract_y
_atom_site_fract_z
Si Si1 0.296970 0.538549 0.079398
Si Si2 0.406959 0.150303 0.807158
Si Si3 0.885992 0.693735 0.173023
Si Si4 0.111951 0.642587 0.834348
Si Si5 0.786082 0.132513 0.231780
Si Si6 0.100705 0.959542 0.324356
Si Si7 0.854476 0.085582 0.371987
O O1 0.202505 0.628429 0.167699
O O2 0.216919 0.442627 0.213877
O O3 0.355736 0.603642 0.072954
O O4 0.365668 0.480680 0.932951
O O5 0.500000 0.110144 0.750000
O O6 0.430398 0.127498 0.694912
O O7 0.398207 0.286608 0.824222
O O8 0.281627 0.099598 0.974372
O O9 0.829104 0.677228 0.163695
O O10 0.892275 0.825020 0.182882
O O11 0.008301 0.634714 0.016673
O O12 0.159938 0.769018 0.787042
O O13 0.788317 0.019945 0.276001
O O14 0.091300 0.015958 0.258632
O O15 0.000000 0.000000 0.500000
#
# Coordination Sequence:
#
# PCOD9287466 Si02
#       7
#     8   8   8   8   8   8   8
#     4   9  23  38  62  92 123 170 205 259 318 366
#     4  10  22  36  63  93 123 169 205 263 328 357
#     4  10  23  37  64  88 124 169 206 258 312 376
#     4  11  19  41  62  93 126 157 222 259 306 380
#     4  10  22  38  62  94 117 168 206 259 313 365
#     4  12  22  41  65  92 123 166 212 261 317 371
#     4  10  22  41  60  91 135 156 211 269 307 384
#
# _framework density 21.521951000000001
#
# number of rings (size 3 to 8) (size 9 to 14) (size 15 to 20)
#    0.857    0.857    2.857    1.286    2.000    2.857 
#    0.000    0.000    0.000    0.000    0.000    0.000 
#    0.000    0.000    0.000    0.000    0.000    0.000 
#
# Total GULP energy -156166.165580 kJ/mol
# GULP energy per Si atom -5577.363056 kJ/mol
# Density = 2.147297 g / cm^3
# Si number density = 21.521951 Si / 1000 Ang^3
#
#
#
# Elastic Constant Matrix: (Units=GPa)
#
#
# Indices 1 2 3 4 5 6 
#
# 1 93.5695 12.0845 9.4547 0.0000 1.5946 0.0000
# 2 12.0845 113.5341 18.1364 0.0000 13.7589 0.0000
# 3 9.4547 18.1364 48.4513 0.0000 6.8707 0.0000
# 4 0.0000 0.0000 0.0000 19.6674 0.0000 7.1896
# 5 1.5946 13.7589 6.8707 0.0000 30.7025 0.0000
# 6 0.0000 0.0000 0.0000 7.1896 0.0000 29.2578
#
#
#
# Elastic Compliance Matrix: (Units=1/GPa)
#
#
# Indices 1 2 3 4 5 6 
#
# 1 0.010986 -0.000905 -0.001840 0.000000 0.000247 0.000000
# 2 -0.000905 0.009827 -0.002979 0.000000 -0.003690 0.000000
# 3 -0.001840 -0.002979 0.022629 0.000000 -0.003633 0.000000
# 4 0.000000 0.000000 0.000000 0.055864 0.000000 -0.013728
# 5 0.000247 -0.003690 -0.003633 0.000000 0.035025 0.000000
# 6 0.000000 0.000000 0.000000 -0.013728 0.000000 0.037552
#
#
# Mechanical properties :
#
#
# Convention : Reuss Voigt Hill
#
# Bulk Modulus (GPa) = 31.25582 37.21182 34.23382
# Shear Modulus (GPa) = 25.77390 30.31749 28.04570
#
# Velocity S-wave (km/s) = 3.46434 3.75731 3.61379
# Velocity P-wave (km/s) = 5.52779 6.01256 5.77526
#
# Compressibility (1/GPa) = 0.03199404
#
# Stress axis : x y z
#
# Youngs Moduli (GPa) = 91.02603 101.75698 44.19204
#
# Poissons Ratio (x) = 0.09212 0.08131
# Poissons Ratio (y) = 0.08241 0.13163
# Poissons Ratio (z) = 0.16748 0.30309
#
# Static dielectric constant tensor:
#      x y z
#    x 1.823820 0.000000 -0.065100 
#    y 0.000000 1.785190 0.000000 
#    z -0.065100 0.000000 1.831550 
# 
# From -- ./inp_files/257392.got.cif
#   From: 2010.05.17/outbox.cif.g08.bks.cpg/sg15_129_cif.got.tgz:257392.got - 2010.06.03 18:47:42.
