data_PCOD9287971
_publ_section_title
;
Structure prediction by ZEFSAII (Michael W. Deem and Ramdas Pophale) SiO2 
 PCOD9287971
Probable space group: C 2/C
;
_chemical_formula_sum "Si O2"
_cell_formula_units_Z 52
_cell_length_a 7.285099
_cell_length_b 11.903843
_cell_length_c 26.575229
_cell_angle_alpha 90.000000
_cell_angle_beta 64.901522
_cell_angle_gamma 90.000000
_cell_volume 2087.019555
_symmetry_space_group_name_H-M "C 2/C"
_symmetry_group_IT_number 15
_symmetry_cell_setting 'monoclinic'
loop_
_space_group_symop_operation_xyz
x,y,z
-x,y,1/2-z
-x,-y,-z
x,-y,1/2+z
1/2+x,1/2+y,z
1/2-x,1/2+y,1/2-z
1/2-x,1/2-y,-z
1/2+x,1/2-y,1/2+z
loop_
_atom_site_type_symbol
_atom_site_label
_atom_site_fract_x
_atom_site_fract_y
_atom_site_fract_z
Si Si1 0.000000 0.063768 0.750000
Si Si2 0.596328 0.240076 0.306486
Si Si3 0.307691 0.190310 0.088918
Si Si4 0.453757 0.006093 0.181190
Si Si5 0.701881 0.072441 0.567145
Si Si6 0.750000 0.250000 0.000000
Si Si7 0.500000 0.180130 0.750000
Si Si8 0.642487 0.516434 0.556457
O O1 0.004901 0.146256 0.700558
O O2 0.785461 0.001102 0.778322
O O3 0.662443 0.222410 0.356348
O O4 0.812702 0.248168 0.253260
O O5 0.471984 0.128067 0.310334
O O6 0.191830 0.293953 0.075368
O O7 0.189573 0.074035 0.093764
O O8 0.531022 0.194835 0.038945
O O9 0.513805 0.984525 0.116665
O O10 0.560315 0.906318 0.199195
O O11 0.744884 0.039131 0.505076
O O12 0.902730 0.024055 0.572059
O O13 0.790957 0.146478 0.952776
#
# Coordination Sequence:
#
# PCOD9287971 Si02
#       8
#     4   8   8   8   8   4   4   8
#     4  10  26  42  64  96 130 170 228 282 344 410
#     4  11  23  42  64  95 125 169 220 276 336 402
#     4  11  22  39  63  94 132 174 224 277 339 405
#     4  11  22  42  66  93 127 177 219 280 337 408
#     4  10  22  40  62  94 133 176 224 272 344 406
#     4  10  22  38  60  94 134 170 220 276 324 418
#     4  10  22  44  62  88 132 162 224 276 334 392
#     4  10  22  40  63  96 134 181 221 279 338 415
#
# _framework density 24.915914000000001
#
# number of rings (size 3 to 8) (size 9 to 14) (size 15 to 20)
#    0.000    1.538    1.538    2.769    0.000    4.923 
#    2.769    0.000    0.000    0.000    0.000    0.000 
#    0.000    0.000    0.000    0.000    0.000    0.000 
#
# Total GULP energy -144754.017597 kJ/mol
# GULP energy per Si atom -5567.462215 kJ/mol
# Density = 2.485920 g / cm^3
# Si number density = 24.915914 Si / 1000 Ang^3
#
#
#
# Elastic Constant Matrix: (Units=GPa)
#
#
# Indices 1 2 3 4 5 6 
#
# 1 44.6264 18.3157 3.2672 0.0000 4.0503 0.0000
# 2 18.3157 137.9764 5.4671 0.0000 4.7203 0.0000
# 3 3.2672 5.4671 52.2898 0.0000 -5.0572 0.0000
# 4 0.0000 0.0000 0.0000 22.2903 0.0000 9.7468
# 5 4.0503 4.7203 -5.0572 0.0000 33.2451 0.0000
# 6 0.0000 0.0000 0.0000 9.7468 0.0000 28.9704
#
#
#
# Elastic Compliance Matrix: (Units=1/GPa)
#
#
# Indices 1 2 3 4 5 6 
#
# 1 0.024007 -0.003037 -0.001445 0.000000 -0.002713 0.000000
# 2 -0.003037 0.007707 -0.000696 0.000000 -0.000830 0.000000
# 3 -0.001445 -0.000696 0.019602 0.000000 0.003257 0.000000
# 4 0.000000 0.000000 0.000000 0.052601 0.000000 -0.017697
# 5 -0.002713 -0.000830 0.003257 0.000000 0.031024 0.000000
# 6 0.000000 0.000000 0.000000 -0.017697 0.000000 0.040472
#
#
# Mechanical properties :
#
#
# Convention : Reuss Voigt Hill
#
# Bulk Modulus (GPa) = 24.41424 32.11030 28.26227
# Shear Modulus (GPa) = 25.07257 30.75734 27.91495
#
# Velocity S-wave (km/s) = 3.17564 3.51728 3.35082
# Velocity P-wave (km/s) = 4.82351 5.42314 5.13209
#
# Compressibility (1/GPa) = 0.04095970
#
# Stress axis : x y z
#
# Youngs Moduli (GPa) = 41.65519 129.75702 51.01458
#
# Poissons Ratio (x) = 0.39403 0.07371
# Poissons Ratio (y) = 0.12649 0.03552
# Poissons Ratio (z) = 0.06019 0.09035
#
# Static dielectric constant tensor:
#      x y z
#    x 1.980990 0.000000 0.067620 
#    y 0.000000 1.981130 0.000000 
#    z 0.067620 0.000000 1.993510 
# 
# From -- ./inp_files/287764.got.cif
#   From: 2010.05.17/outbox.cif.g08.bks.cpg/sg15_144_cif.got.tgz:287764.got - 2010.06.03 18:47:42.
