data_PCOD9287056
_publ_section_title
;
Structure prediction by ZEFSAII (Michael W. Deem and Ramdas Pophale) SiO2 
 PCOD9287056
Probable space group: C 2/C
;
_chemical_formula_sum "Si O2"
_cell_formula_units_Z 40
_cell_length_a 23.342815
_cell_length_b 5.646354
_cell_length_c 13.563396
_cell_angle_alpha 90.000000
_cell_angle_beta 76.344475
_cell_angle_gamma 90.000000
_cell_volume 1737.147024
_symmetry_space_group_name_H-M "C 2/C"
_symmetry_group_IT_number 15
_symmetry_cell_setting 'monoclinic'
loop_
_space_group_symop_operation_xyz
x,y,z
-x,y,1/2-z
-x,-y,-z
x,-y,1/2+z
1/2+x,1/2+y,z
1/2-x,1/2+y,1/2-z
1/2-x,1/2-y,-z
1/2+x,1/2-y,1/2+z
loop_
_atom_site_type_symbol
_atom_site_label
_atom_site_fract_x
_atom_site_fract_y
_atom_site_fract_z
Si Si1 0.255119 0.998085 0.557132
Si Si2 0.067038 0.982662 0.085716
Si Si3 0.552377 0.773888 0.889832
Si Si4 0.640245 0.512895 0.233936
Si Si5 0.873620 0.345190 0.078428
O O1 0.250000 0.250000 0.500000
O O2 0.203221 0.015205 0.658432
O O3 0.319947 0.981809 0.578940
O O4 0.250000 0.750000 0.500000
O O5 0.095039 0.108815 0.168496
O O6 0.007332 0.835911 0.128318
O O7 0.114326 0.792497 0.027461
O O8 0.059347 0.148229 0.993619
O O9 0.605117 0.711476 0.792784
O O10 0.563890 0.045974 0.911582
O O11 0.646303 0.677874 0.325778
#
# Coordination Sequence:
#
# PCOD9287056 Si02
#       5
#     8   8   8   8   8
#     4  12  28  48  76 105 148 199 247 309 373 441
#     4  10  21  46  67 101 144 184 238 300 374 437
#     4  10  23  41  71 102 139 187 240 303 362 453
#     4  11  25  42  69 104 143 187 243 305 370 436
#     4  11  25  42  72 106 142 191 246 304 372 447
#
# _framework density 23.026263
#
# number of rings (size 3 to 8) (size 9 to 14) (size 15 to 20)
#    0.000    1.200    2.000    2.400    8.400    1.600 
#    0.000    8.000    0.000    0.000    0.000    0.000 
#    0.000    0.000    0.000    0.000    0.000    0.000 
#
# Total GULP energy -111677.040160 kJ/mol
# GULP energy per Si atom -5583.852008 kJ/mol
# Density = 2.297385 g / cm^3
# Si number density = 23.026263 Si / 1000 Ang^3
#
#
#
# Elastic Constant Matrix: (Units=GPa)
#
#
# Indices 1 2 3 4 5 6 
#
# 1 108.2208 12.6752 28.0489 0.0000 -15.0664 0.0000
# 2 12.6752 59.4950 20.0627 0.0000 -18.2873 0.0000
# 3 28.0489 20.0627 88.3035 0.0000 -18.3126 0.0000
# 4 0.0000 0.0000 0.0000 8.5130 0.0000 3.3299
# 5 -15.0664 -18.2873 -18.3126 0.0000 46.4962 0.0000
# 6 0.0000 0.0000 0.0000 3.3299 0.0000 38.1261
#
#
#
# Elastic Compliance Matrix: (Units=1/GPa)
#
#
# Indices 1 2 3 4 5 6 
#
# 1 0.010299 -0.000664 -0.002703 0.000000 0.002011 0.000000
# 2 -0.000664 0.019938 -0.002981 0.000000 0.006453 0.000000
# 3 -0.002703 -0.002981 0.013542 0.000000 0.003285 0.000000
# 4 0.000000 0.000000 0.000000 0.121623 0.000000 -0.010622
# 5 0.002011 0.006453 0.003285 0.000000 0.025991 0.000000
# 6 0.000000 0.000000 0.000000 -0.010622 0.000000 0.027156
#
#
# Mechanical properties :
#
#
# Convention : Reuss Voigt Hill
#
# Bulk Modulus (GPa) = 32.17306 41.95475 37.06391
# Shear Modulus (GPa) = 20.69483 31.64257 26.16870
#
# Velocity S-wave (km/s) = 3.00117 3.71103 3.37482
# Velocity P-wave (km/s) = 5.10020 6.05164 5.59617
#
# Compressibility (1/GPa) = 0.03108190
#
# Stress axis : x y z
#
# Youngs Moduli (GPa) = 97.09848 50.15494 73.84545
#
# Poissons Ratio (x) = 0.03332 0.19963
# Poissons Ratio (y) = 0.06451 0.22012
# Poissons Ratio (z) = 0.26249 0.14950
#
# Static dielectric constant tensor:
#      x y z
#    x 1.884630 0.000000 0.015110 
#    y 0.000000 1.920080 0.000000 
#    z 0.015110 0.000000 1.836160 
# 
# From -- ./inp_files/120705.got.cif
#   From: 2010.05.17/outbox.cif.g08.bks.cpg/sg15_61_cif.got.tgz:120705.got - 2010.06.03 18:47:42.
