data_PCOD9287160
_publ_section_title
;
Structure prediction by ZEFSAII (Michael W. Deem and Ramdas Pophale) SiO2 
 PCOD9287160
Probable space group: C 2/C
;
_chemical_formula_sum "Si O2"
_cell_formula_units_Z 52
_cell_length_a 18.304943
_cell_length_b 17.679248
_cell_length_c 8.861726
_cell_angle_alpha 90.000000
_cell_angle_beta 90.268794
_cell_angle_gamma 90.000000
_cell_volume 2867.779180
_symmetry_space_group_name_H-M "C 2/C"
_symmetry_group_IT_number 15
_symmetry_cell_setting 'monoclinic'
loop_
_space_group_symop_operation_xyz
x,y,z
-x,y,1/2-z
-x,-y,-z
x,-y,1/2+z
1/2+x,1/2+y,z
1/2-x,1/2+y,1/2-z
1/2-x,1/2-y,-z
1/2+x,1/2-y,1/2+z
loop_
_atom_site_type_symbol
_atom_site_label
_atom_site_fract_x
_atom_site_fract_y
_atom_site_fract_z
Si Si1 0.802934 0.176144 0.652945
Si Si2 0.399773 0.549102 0.502045
Si Si3 0.841903 0.663971 0.041579
Si Si4 0.693911 0.958897 0.704858
Si Si5 0.549935 0.947990 0.108515
Si Si6 0.216039 0.072696 0.589300
Si Si7 0.000000 0.024464 0.250000
O O1 0.845044 0.112540 0.557522
O O2 0.843743 0.254797 0.622037
O O3 0.720297 0.175541 0.587183
O O4 0.801477 0.150710 0.827185
O O5 0.355555 0.473076 0.460924
O O6 0.445110 0.571350 0.354165
O O7 0.454347 0.527959 0.636616
O O8 0.816219 0.604116 0.167618
O O9 0.913810 0.625110 0.971296
O O10 0.731043 0.925969 0.554526
O O11 0.618216 0.000058 0.662327
O O12 0.745763 0.021814 0.780822
O O13 0.500000 0.926367 0.250000
O O14 0.500000 0.000000 0.000000
#
# Coordination Sequence:
#
# PCOD9287160 Si02
#       7
#     8   8   8   8   8   8   4
#     4  11  23  40  63  89 128 157 203 271 319 347
#     4  11  19  37  58  88 113 159 196 249 297 371
#     4  11  24  41  60  94 125 160 205 269 315 361
#     4  12  20  37  64  95 116 152 218 256 297 382
#     4  12  22  38  66  91 122 170 207 252 309 385
#     4  12  19  36  68  89 114 160 213 258 304 367
#     4  10  22  32  60  86 114 144 206 232 296 372
#
# _framework density 18.132497999999998
#
# number of rings (size 3 to 8) (size 9 to 14) (size 15 to 20)
#    0.000    0.615    9.231    0.000    0.000    0.615 
#    1.385    1.538    0.000    0.000    0.000    0.000 
#    0.000    0.000    0.000    0.000    0.000    0.000 
#
# Total GULP energy -145147.081272 kJ/mol
# GULP energy per Si atom -5582.580049 kJ/mol
# Density = 1.809123 g / cm^3
# Si number density = 18.132498 Si / 1000 Ang^3
#
#
#
# Elastic Constant Matrix: (Units=GPa)
#
#
# Indices 1 2 3 4 5 6 
#
# 1 94.1190 30.3411 43.7476 0.0000 -9.3674 0.0000
# 2 30.3411 89.1575 36.7398 0.0000 -7.7412 0.0000
# 3 43.7476 36.7398 90.0703 0.0000 -25.9213 0.0000
# 4 0.0000 0.0000 0.0000 30.1474 0.0000 -7.0047
# 5 -9.3674 -7.7412 -25.9213 0.0000 54.3704 0.0000
# 6 0.0000 0.0000 0.0000 -7.0047 0.0000 21.6001
#
#
#
# Elastic Compliance Matrix: (Units=1/GPa)
#
#
# Indices 1 2 3 4 5 6 
#
# 1 0.014163 -0.002355 -0.006158 0.000000 -0.000831 0.000000
# 2 -0.002355 0.013905 -0.004723 0.000000 -0.000678 0.000000
# 3 -0.006158 -0.004723 0.017989 0.000000 0.006843 0.000000
# 4 0.000000 0.000000 0.000000 0.035873 0.000000 0.011633
# 5 -0.000831 -0.000678 0.006843 0.000000 0.021415 0.000000
# 6 0.000000 0.000000 0.000000 0.011633 0.000000 0.050069
#
#
# Mechanical properties :
#
#
# Convention : Reuss Voigt Hill
#
# Bulk Modulus (GPa) = 51.05630 55.00041 53.02836
# Shear Modulus (GPa) = 26.82185 32.05813 29.43999
#
# Velocity S-wave (km/s) = 3.85023 4.20931 4.03377
# Velocity P-wave (km/s) = 6.92706 7.35002 7.14167
#
# Compressibility (1/GPa) = 0.01958622
#
# Stress axis : x y z
#
# Youngs Moduli (GPa) = 70.60418 71.91715 55.58838
#
# Poissons Ratio (x) = 0.16933 0.34231
# Poissons Ratio (y) = 0.16624 0.26256
# Poissons Ratio (z) = 0.43478 0.33968
#
# Static dielectric constant tensor:
#      x y z
#    x 1.641010 0.000000 -0.012920 
#    y 0.000000 1.618380 0.000000 
#    z -0.012920 0.000000 1.641620 
# 
# From -- ./inp_files/48558.got.cif
#   From: 2010.05.17/outbox.cif.g08.bks.cpg/sg15_25_cif.got.tgz:48558.got - 2010.06.03 18:47:42.
