data_PCOD9287015
_publ_section_title
;
Structure prediction by ZEFSAII (Michael W. Deem and Ramdas Pophale) SiO2 
 PCOD9287015
Probable space group: C 2/C
;
_chemical_formula_sum "Si O2"
_cell_formula_units_Z 36
_cell_length_a 16.741826
_cell_length_b 9.897513
_cell_length_c 23.497451
_cell_angle_alpha 90.000000
_cell_angle_beta 18.804962
_cell_angle_gamma 90.000000
_cell_volume 1255.088072
_symmetry_space_group_name_H-M "C 2/C"
_symmetry_group_IT_number 15
_symmetry_cell_setting 'monoclinic'
loop_
_space_group_symop_operation_xyz
x,y,z
-x,y,1/2-z
-x,-y,-z
x,-y,1/2+z
1/2+x,1/2+y,z
1/2-x,1/2+y,1/2-z
1/2-x,1/2-y,-z
1/2+x,1/2-y,1/2+z
loop_
_atom_site_type_symbol
_atom_site_label
_atom_site_fract_x
_atom_site_fract_y
_atom_site_fract_z
Si Si1 0.015090 0.636878 0.064827
Si Si2 0.000000 0.779462 0.750000
Si Si3 0.250000 0.250000 0.000000
Si Si4 0.825230 0.530101 0.787730
Si Si5 0.500000 0.788596 0.750000
Si Si6 0.028970 0.743158 0.934950
O O1 0.912661 0.503048 0.164740
O O2 0.792866 0.739867 0.229007
O O3 0.269098 0.692415 0.920559
O O4 0.041976 0.644396 0.979171
O O5 0.026542 0.865407 0.671546
O O6 0.975124 0.641301 0.821916
O O7 0.318153 0.231102 0.028210
O O8 0.426815 0.387422 0.029559
O O9 0.885576 0.392482 0.780795
#
# Coordination Sequence:
#
# PCOD9287015 Si02
#       6
#     8   4   4   8   4   8
#     4  12  26  46  76 117 154 204 267 323 402 467
#     4  10  21  45  72 106 148 189 257 316 376 458
#     4  10  22  44  76 108 140 196 258 310 384 450
#     4  11  24  48  79 108 157 207 262 323 391 471
#     4  12  27  49  80 108 160 213 257 328 402 470
#     4  11  24  47  78 110 151 202 262 324 390 463
#
# _framework density 28.683246
#
# number of rings (size 3 to 8) (size 9 to 14) (size 15 to 20)
#    0.000    0.889    2.222    6.667    0.000    0.889 
#    0.000    2.222    0.000    0.000    0.000    0.000 
#    0.000    0.000    0.000    0.000    0.000    0.000 
#
# Total GULP energy -100397.154127 kJ/mol
# GULP energy per Si atom -5577.619674 kJ/mol
# Density = 2.861796 g / cm^3
# Si number density = 28.683246 Si / 1000 Ang^3
#
#
#
# Elastic Constant Matrix: (Units=GPa)
#
#
# Indices 1 2 3 4 5 6 
#
# 1 190.9664 6.4711 57.3137 0.0403 42.4318 0.0126
# 2 6.4711 108.6450 14.6478 0.0454 -1.8028 0.0171
# 3 57.3137 14.6478 250.9368 0.0045 31.8588 0.0252
# 4 0.0403 0.0454 0.0045 48.4222 0.0052 7.1676
# 5 42.4318 -1.8028 31.8588 0.0052 89.6832 -0.0029
# 6 0.0126 0.0171 0.0252 7.1676 -0.0029 44.4720
#
#
#
# Elastic Compliance Matrix: (Units=1/GPa)
#
#
# Indices 1 2 3 4 5 6 
#
# 1 0.006126 -0.000263 -0.001063 -0.000004 -0.002526 0.000000
# 2 -0.000263 0.009302 -0.000547 -0.000008 0.000506 -0.000002
# 3 -0.001063 -0.000547 0.004396 0.000001 -0.001070 -0.000002
# 4 -0.000004 -0.000008 0.000001 0.021156 0.000000 -0.003410
# 5 -0.002526 0.000506 -0.001070 0.000000 0.012736 0.000002
# 6 0.000000 -0.000002 -0.000002 -0.003410 0.000002 0.023036
#
#
# Mechanical properties :
#
#
# Convention : Reuss Voigt Hill
#
# Bulk Modulus (GPa) = 62.20310 78.60148 70.40229
# Shear Modulus (GPa) = 58.23637 67.98985 63.11311
#
# Velocity S-wave (km/s) = 4.51080 4.87392 4.69587
# Velocity P-wave (km/s) = 6.99021 7.69001 7.34845
#
# Compressibility (1/GPa) = 0.01607637
#
# Stress axis : x y z
#
# Youngs Moduli (GPa) = 163.24535 107.50219 227.50115
#
# Poissons Ratio (x) = 0.02832 0.24184
# Poissons Ratio (y) = 0.04301 0.12446
# Poissons Ratio (z) = 0.17354 0.05881
#
# Static dielectric constant tensor:
#      x y z
#    x 2.355930 0.000010 0.015700 
#    y 0.000010 2.338890 0.000060 
#    z 0.015700 0.000060 2.323340 
# 
# From -- ./inp_files/37683.got.cif
#   From: 2010.05.17/outbox.cif.g08.bks.cpg/sg15_19_cif.got.tgz:37683.got - 2010.06.03 18:47:42.
