data_PCOD9287008
_publ_section_title
;
Structure prediction by ZEFSAII (Michael W. Deem and Ramdas Pophale) SiO2 
 PCOD9287008
Probable space group: C 2/C
;
_chemical_formula_sum "Si O2"
_cell_formula_units_Z 36
_cell_length_a 16.245841
_cell_length_b 11.730810
_cell_length_c 10.512647
_cell_angle_alpha 90.000000
_cell_angle_beta 131.478383
_cell_angle_gamma 90.000000
_cell_volume 1501.009130
_symmetry_space_group_name_H-M "C 2/C"
_symmetry_group_IT_number 15
_symmetry_cell_setting 'monoclinic'
loop_
_space_group_symop_operation_xyz
x,y,z
-x,y,1/2-z
-x,-y,-z
x,-y,1/2+z
1/2+x,1/2+y,z
1/2-x,1/2+y,1/2-z
1/2-x,1/2-y,-z
1/2+x,1/2-y,1/2+z
loop_
_atom_site_type_symbol
_atom_site_label
_atom_site_fract_x
_atom_site_fract_y
_atom_site_fract_z
Si Si1 0.837835 0.579374 0.913503
Si Si2 0.000000 0.159000 0.250000
Si Si3 0.602823 0.475362 0.195963
Si Si4 0.945027 0.355935 0.009372
Si Si5 0.882988 0.725340 0.183369
O O1 0.718960 0.538036 0.743990
O O2 0.928718 0.621606 0.905918
O O3 0.894959 0.465337 0.028200
O O4 0.812051 0.678201 0.992026
O O5 0.052890 0.241995 0.407875
O O6 0.093540 0.078983 0.285255
O O7 0.593495 0.356940 0.261735
O O8 0.500000 0.500000 0.000000
O O9 0.872277 0.336423 0.808070
O O10 0.000000 0.681197 0.250000
#
# Coordination Sequence:
#
# PCOD9287008 Si02
#       5
#     8   4   8   8   8
#     4  10  25  44  77  99 140 190 247 299 358 443
#     4  12  26  44  70 106 154 176 240 308 370 434
#     4  12  25  46  67 107 147 192 234 298 374 444
#     4  10  24  46  69 107 138 183 246 304 360 428
#     4  10  21  45  71  99 138 189 244 291 358 436
#
# _framework density 23.983865000000002
#
# number of rings (size 3 to 8) (size 9 to 14) (size 15 to 20)
#    0.000    1.333    3.333    0.667    7.778    4.444 
#    0.000    0.000    0.000    0.000    0.000    0.000 
#    0.000    0.000    0.000    0.000    0.000    0.000 
#
# Total GULP energy -100487.584367 kJ/mol
# GULP energy per Si atom -5582.643576 kJ/mol
# Density = 2.392928 g / cm^3
# Si number density = 23.983865 Si / 1000 Ang^3
#
#
#
# Elastic Constant Matrix: (Units=GPa)
#
#
# Indices 1 2 3 4 5 6 
#
# 1 74.5009 48.1708 49.1398 0.0000 13.1356 0.0000
# 2 48.1708 180.0955 45.8601 0.0000 -4.6988 0.0000
# 3 49.1398 45.8601 120.1516 0.0000 17.8035 0.0000
# 4 0.0000 0.0000 0.0000 11.4246 0.0000 -41.1666
# 5 13.1356 -4.6988 17.8035 0.0000 30.0483 0.0000
# 6 0.0000 0.0000 0.0000 -41.1666 0.0000 -20.6745
#
#
#
# Elastic Compliance Matrix: (Units=1/GPa)
#
#
# Indices 1 2 3 4 5 6 
#
# 1 0.021406 -0.004324 -0.006158 0.000000 -0.006385 0.000000
# 2 -0.004324 0.007212 -0.001569 0.000000 0.003948 0.000000
# 3 -0.006158 -0.001569 0.012144 0.000000 -0.004749 0.000000
# 4 0.000000 0.000000 0.000000 0.010707 0.000000 -0.021320
# 5 -0.006385 0.003948 -0.004749 0.000000 0.039502 0.000000
# 6 0.000000 0.000000 0.000000 -0.021320 0.000000 -0.005917
#
#
# Mechanical properties :
#
#
# Convention : Reuss Voigt Hill
#
# Bulk Modulus (GPa) = 60.02700 73.45437 66.74069
# Shear Modulus (GPa) = 43.58827 19.59818 31.59322
#
# Velocity S-wave (km/s) = 4.26772 2.86167 3.63336
# Velocity P-wave (km/s) = 7.02617 6.45073 6.74459
#
# Compressibility (1/GPa) = 0.01665917
#
# Stress axis : x y z
#
# Youngs Moduli (GPa) = 46.71560 138.66296 82.34571
#
# Poissons Ratio (x) = 0.59958 0.50710
# Poissons Ratio (y) = 0.20200 0.12921
# Poissons Ratio (z) = 0.28768 0.21758
#
# Static dielectric constant tensor:
#      x y z
#    x 1.989710 0.000000 0.108780 
#    y 0.000000 1.955650 0.000000 
#    z 0.108780 0.000000 2.219860 
# 
# From -- ./inp_files/103990.got.cif
#   From: 2010.05.17/outbox.cif.g08.bks.cpg/sg15_52_cif.got.tgz:103990.got - 2010.06.03 18:47:42.
