data_PCOD9287940
_publ_section_title
;
Structure prediction by ZEFSAII (Michael W. Deem and Ramdas Pophale) SiO2 
 PCOD9287940
Probable space group: C 2/C
;
_chemical_formula_sum "Si O2"
_cell_formula_units_Z 44
_cell_length_a 10.412632
_cell_length_b 8.763487
_cell_length_c 24.765377
_cell_angle_alpha 90.000000
_cell_angle_beta 65.086393
_cell_angle_gamma 90.000000
_cell_volume 2049.570594
_symmetry_space_group_name_H-M "C 2/C"
_symmetry_group_IT_number 15
_symmetry_cell_setting 'monoclinic'
loop_
_space_group_symop_operation_xyz
x,y,z
-x,y,1/2-z
-x,-y,-z
x,-y,1/2+z
1/2+x,1/2+y,z
1/2-x,1/2+y,1/2-z
1/2-x,1/2-y,-z
1/2+x,1/2-y,1/2+z
loop_
_atom_site_type_symbol
_atom_site_label
_atom_site_fract_x
_atom_site_fract_y
_atom_site_fract_z
Si Si1 0.500000 0.149642 0.750000
Si Si2 0.844172 0.419291 0.839076
Si Si3 0.345399 0.569883 0.536382
Si Si4 0.137528 0.072069 0.660287
Si Si5 0.845421 0.429257 0.537356
Si Si6 0.845100 0.923385 0.731965
O O1 0.372634 0.263022 0.757083
O O2 0.463760 0.045308 0.807713
O O3 0.734928 0.479541 0.902408
O O4 0.894732 0.249678 0.843425
O O5 0.769034 0.412990 0.794031
O O6 0.500000 0.500000 0.500000
O O7 0.250419 0.555822 0.499348
O O8 0.357490 0.749292 0.547850
O O9 0.261636 0.015101 0.599637
O O10 0.179853 0.041917 0.715072
O O11 0.994387 0.973886 0.678414
O O12 0.000000 0.500000 0.500000
#
# Coordination Sequence:
#
# PCOD9287940 Si02
#       6
#     4   8   8   8   8   8
#     4  10  22  38  60  90 120 158 200 244 304 364
#     4  12  23  38  64  91 120 158 202 250 304 362
#     4  11  25  43  65  92 123 164 210 254 305 367
#     4  10  22  40  62  90 122 159 203 249 303 363
#     4  11  25  44  64  90 126 165 206 255 308 364
#     4  10  22  41  61  87 125 159 196 251 304 360
#
# _framework density 21.467911000000001
#
# number of rings (size 3 to 8) (size 9 to 14) (size 15 to 20)
#    0.000    1.455    0.000    6.545    0.000   10.182 
#    0.000    0.000    0.000    0.000    0.000    0.000 
#    0.000    0.000    0.000    0.000    0.000    0.000 
#
# Total GULP energy -123092.256789 kJ/mol
# GULP energy per Si atom -5595.102581 kJ/mol
# Density = 2.141905 g / cm^3
# Si number density = 21.467911 Si / 1000 Ang^3
#
#
#
# Elastic Constant Matrix: (Units=GPa)
#
#
# Indices 1 2 3 4 5 6 
#
# 1 51.3667 10.0055 -6.8574 0.0000 -6.9181 0.0000
# 2 10.0055 142.9577 40.9694 0.0000 -14.9433 0.0000
# 3 -6.8574 40.9694 123.3355 0.0000 -25.1222 0.0000
# 4 0.0000 0.0000 0.0000 41.8256 0.0000 -5.8513
# 5 -6.9181 -14.9433 -25.1222 0.0000 26.8587 0.0000
# 6 0.0000 0.0000 0.0000 -5.8513 0.0000 26.1390
#
#
#
# Elastic Compliance Matrix: (Units=1/GPa)
#
#
# Indices 1 2 3 4 5 6 
#
# 1 0.021251 -0.001629 0.003277 0.000000 0.007633 0.000000
# 2 -0.001629 0.007977 -0.002374 0.000000 0.001798 0.000000
# 3 0.003277 -0.002374 0.011096 0.000000 0.009901 0.000000
# 4 0.000000 0.000000 0.000000 0.024682 0.000000 0.005525
# 5 0.007633 0.001798 0.009901 0.000000 0.049460 0.000000
# 6 0.000000 0.000000 0.000000 0.005525 0.000000 0.039494
#
#
# Mechanical properties :
#
#
# Convention : Reuss Voigt Hill
#
# Bulk Modulus (GPa) = 25.72515 45.09942 35.41229
# Shear Modulus (GPa) = 29.69693 37.20084 33.44888
#
# Velocity S-wave (km/s) = 3.72333 4.16728 3.95154
# Velocity P-wave (km/s) = 5.52208 6.64894 6.11154
#
# Compressibility (1/GPa) = 0.03887247
#
# Stress axis : x y z
#
# Youngs Moduli (GPa) = 47.05752 125.35353 90.12514
#
# Poissons Ratio (x) = 0.20416 -0.29536
# Poissons Ratio (y) = 0.07664 0.21398
# Poissons Ratio (z) = -0.15422 0.29762
#
# Static dielectric constant tensor:
#      x y z
#    x 1.813190 0.000000 -0.010300 
#    y 0.000000 1.791630 0.000000 
#    z -0.010300 0.000000 1.740180 
# 
# From -- ./inp_files/291428.got.cif
#   From: 2010.05.17/outbox.cif.g08.bks.cpg/sg15_146_cif.got.tgz:291428.got - 2010.06.03 18:47:42.
