data_PCOD9287834
_publ_section_title
;
Structure prediction by ZEFSAII (Michael W. Deem and Ramdas Pophale) SiO2 
 PCOD9287834
Probable space group: C 2/C
;
_chemical_formula_sum "Si O2"
_cell_formula_units_Z 48
_cell_length_a 13.763577
_cell_length_b 23.624397
_cell_length_c 8.614168
_cell_angle_alpha 90.000000
_cell_angle_beta 69.178835
_cell_angle_gamma 90.000000
_cell_volume 2618.032564
_symmetry_space_group_name_H-M "C 2/C"
_symmetry_group_IT_number 15
_symmetry_cell_setting 'monoclinic'
loop_
_space_group_symop_operation_xyz
x,y,z
-x,y,1/2-z
-x,-y,-z
x,-y,1/2+z
1/2+x,1/2+y,z
1/2-x,1/2+y,1/2-z
1/2-x,1/2-y,-z
1/2+x,1/2-y,1/2+z
loop_
_atom_site_type_symbol
_atom_site_label
_atom_site_fract_x
_atom_site_fract_y
_atom_site_fract_z
Si Si1 0.918568 0.740084 0.174671
Si Si2 0.223076 0.825507 0.791859
Si Si3 0.770484 0.169738 0.585670
Si Si4 0.426508 0.772865 0.153917
Si Si5 0.623067 0.560072 0.857970
Si Si6 0.880044 0.064615 0.011625
O O1 0.831415 0.698857 0.294919
O O2 0.855145 0.787964 0.116289
O O3 0.000000 0.765625 0.250000
O O4 0.992379 0.704374 0.017415
O O5 0.232186 0.822980 0.598590
O O6 0.134781 0.779992 0.882972
O O7 0.187776 0.885960 0.873563
O O8 0.660358 0.186305 0.724951
O O9 0.803899 0.106505 0.606363
O O10 0.500000 0.751261 0.250000
O O11 0.503301 0.573931 0.970959
O O12 0.633010 0.563463 0.666541
O O13 0.645245 0.496745 0.903404
#
# Coordination Sequence:
#
# PCOD9287834 Si02
#       6
#     8   8   8   8   8   8
#     4  11  24  36  56  87 120 152 191 234 282 334
#     4  11  22  37  59  86 114 156 191 232 282 342
#     4  11  22  36  60  85 116 154 193 229 286 338
#     4  11  20  38  57  83 119 156 189 227 281 343
#     4  10  22  38  58  86 112 151 185 238 288 338
#     4  10  22  38  59  84 117 145 191 235 289 336
#
# _framework density 18.334378999999998
#
# number of rings (size 3 to 8) (size 9 to 14) (size 15 to 20)
#    0.000    1.333    3.333    3.000    7.000    2.667 
#    0.000    0.000    0.000    2.000    0.000    0.000 
#    0.000    0.000    0.000    0.000    0.000    0.000 
#
# Total GULP energy -134034.858529 kJ/mol
# GULP energy per Si atom -5584.785772 kJ/mol
# Density = 1.829265 g / cm^3
# Si number density = 18.334379 Si / 1000 Ang^3
#
#
#
# Elastic Constant Matrix: (Units=GPa)
#
#
# Indices 1 2 3 4 5 6 
#
# 1 98.6503 37.6533 28.7547 0.0000 -15.3983 0.0000
# 2 37.6533 103.7508 24.9625 0.0000 -22.3152 0.0000
# 3 28.7547 24.9625 57.2075 0.0000 -18.5179 0.0000
# 4 0.0000 0.0000 0.0000 33.9999 0.0000 1.2776
# 5 -15.3983 -22.3152 -18.5179 0.0000 25.9470 0.0000
# 6 0.0000 0.0000 0.0000 1.2776 0.0000 18.3316
#
#
#
# Elastic Compliance Matrix: (Units=1/GPa)
#
#
# Indices 1 2 3 4 5 6 
#
# 1 0.012966 -0.003255 -0.004567 0.000000 0.001636 0.000000
# 2 -0.003255 0.012909 -0.001337 0.000000 0.008216 0.000000
# 3 -0.004567 -0.001337 0.024851 0.000000 0.013875 0.000000
# 4 0.000000 0.000000 0.000000 0.029489 0.000000 -0.002055
# 5 0.001636 0.008216 0.013875 0.000000 0.056479 0.000000
# 6 0.000000 0.000000 0.000000 -0.002055 0.000000 0.054694
#
#
# Mechanical properties :
#
#
# Convention : Reuss Voigt Hill
#
# Bulk Modulus (GPa) = 30.85833 49.14998 40.00416
# Shear Modulus (GPa) = 22.67496 26.87158 24.77327
#
# Velocity S-wave (km/s) = 3.52055 3.83252 3.67984
# Velocity P-wave (km/s) = 5.77868 6.81543 6.31835
#
# Compressibility (1/GPa) = 0.03240616
#
# Stress axis : x y z
#
# Youngs Moduli (GPa) = 77.12626 77.46808 40.24024
#
# Poissons Ratio (x) = 0.25214 0.18379
# Poissons Ratio (y) = 0.25103 0.05381
# Poissons Ratio (z) = 0.35227 0.10359
#
# Static dielectric constant tensor:
#      x y z
#    x 1.633060 0.000000 0.021180 
#    y 0.000000 1.594730 0.000000 
#    z 0.021180 0.000000 1.680230 
# 
# From -- ./inp_files/32549.got.cif
#   From: 2010.05.17/outbox.cif.g08.bks.cpg/sg15_17_cif.got.tgz:32549.got - 2010.06.03 18:47:42.
