data_PCOD9287973
_publ_section_title
;
Structure prediction by ZEFSAII (Michael W. Deem and Ramdas Pophale) SiO2 
 PCOD9287973
Probable space group: C 2/C
;
_chemical_formula_sum "Si O2"
_cell_formula_units_Z 32
_cell_length_a 10.402001
_cell_length_b 7.359153
_cell_length_c 14.510637
_cell_angle_alpha 90.000000
_cell_angle_beta 90.603495
_cell_angle_gamma 90.000000
_cell_volume 1110.726439
_symmetry_space_group_name_H-M "C 2/C"
_symmetry_group_IT_number 15
_symmetry_cell_setting 'monoclinic'
loop_
_space_group_symop_operation_xyz
x,y,z
-x,y,1/2-z
-x,-y,-z
x,-y,1/2+z
1/2+x,1/2+y,z
1/2-x,1/2+y,1/2-z
1/2-x,1/2-y,-z
1/2+x,1/2-y,1/2+z
loop_
_atom_site_type_symbol
_atom_site_label
_atom_site_fract_x
_atom_site_fract_y
_atom_site_fract_z
Si Si1 0.250000 0.750000 0.500000
Si Si2 0.044921 0.783107 0.948268
Si Si3 0.763918 0.558960 0.813815
Si Si4 0.500000 0.306404 0.750000
Si Si5 0.296607 0.347526 0.378826
O O1 0.404137 0.780889 0.473010
O O2 0.290287 0.681412 0.604593
O O3 0.154783 0.631008 0.924024
O O4 0.040560 0.886673 0.849753
O O5 0.111304 0.888184 0.034162
O O6 0.885815 0.668009 0.776020
O O7 0.685094 0.544623 0.715990
O O8 0.808469 0.363644 0.852001
#
# Coordination Sequence:
#
# PCOD9287973 Si02
#       5
#     4   8   8   4   8
#     4  10  22  38  60  96 132 166 212 268 324 382
#     4   9  20  40  63  91 128 167 208 261 324 381
#     4  10  22  38  62  92 127 166 214 266 316 379
#     4   8  18  38  60  86 126 166 204 252 316 392
#     4  10  22  41  65  92 126 170 214 262 320 383
#
# _framework density 28.809975000000001
#
# number of rings (size 3 to 8) (size 9 to 14) (size 15 to 20)
#    0.000    2.500    0.000    0.000    0.000   14.000 
#    0.000   12.500    0.000    0.000    0.000    0.000 
#    0.000    0.000    0.000    0.000    0.000    0.000 
#
# Total GULP energy -89128.753611 kJ/mol
# GULP energy per Si atom -5570.547101 kJ/mol
# Density = 2.874440 g / cm^3
# Si number density = 28.809975 Si / 1000 Ang^3
#
#
#
# Elastic Constant Matrix: (Units=GPa)
#
#
# Indices 1 2 3 4 5 6 
#
# 1 196.6257 -0.0216 101.7488 0.0000 7.0685 0.0000
# 2 -0.0216 106.3732 89.4864 0.0000 -14.1368 0.0000
# 3 101.7488 89.4864 357.5698 0.0000 4.8916 0.0000
# 4 0.0000 0.0000 0.0000 72.4415 0.0000 -1.8411
# 5 7.0685 -14.1368 4.8916 0.0000 79.7404 0.0000
# 6 0.0000 0.0000 0.0000 -1.8411 0.0000 10.3361
#
#
#
# Elastic Compliance Matrix: (Units=1/GPa)
#
#
# Indices 1 2 3 4 5 6 
#
# 1 0.006253 0.001883 -0.002249 0.000000 -0.000083 0.000000
# 2 0.001883 0.012910 -0.003799 0.000000 0.002355 0.000000
# 3 -0.002249 -0.003799 0.004398 0.000000 -0.000744 0.000000
# 4 0.000000 0.000000 0.000000 0.013867 0.000000 0.002470
# 5 -0.000083 0.002355 -0.000744 0.000000 0.013011 0.000000
# 6 0.000000 0.000000 0.000000 0.002470 0.000000 0.097188
#
#
# Mechanical properties :
#
#
# Convention : Reuss Voigt Hill
#
# Bulk Modulus (GPa) = 65.66276 115.88843 90.77559
# Shear Modulus (GPa) = 31.04924 63.79394 47.42159
#
# Velocity S-wave (km/s) = 3.28643 4.71074 4.06151
# Velocity P-wave (km/s) = 6.10262 8.36065 7.31924
#
# Compressibility (1/GPa) = 0.01522933
#
# Stress axis : x y z
#
# Youngs Moduli (GPa) = 159.92474 77.45981 227.39779
#
# Poissons Ratio (x) = -0.14582 0.51149
# Poissons Ratio (y) = -0.30106 0.86383
# Poissons Ratio (z) = 0.35972 0.29425
#
# Static dielectric constant tensor:
#      x y z
#    x 2.442720 0.000000 0.137650 
#    y 0.000000 2.383440 0.000000 
#    z 0.137650 0.000000 2.252820 
# 
# From -- ./inp_files/84080.got.cif
#   From: 2010.05.17/outbox.cif.g08.bks.cpg/sg15_43_cif.got.tgz:84080.got - 2010.06.03 18:47:42.
