data_PCOD9287579
_publ_section_title
;
Structure prediction by ZEFSAII (Michael W. Deem and Ramdas Pophale) SiO2 
 PCOD9287579
Probable space group: C 2/C
;
_chemical_formula_sum "Si O2"
_cell_formula_units_Z 60
_cell_length_a 30.099524
_cell_length_b 5.257040
_cell_length_c 14.707679
_cell_angle_alpha 90.000000
_cell_angle_beta 86.615624
_cell_angle_gamma 90.000000
_cell_volume 2323.201957
_symmetry_space_group_name_H-M "C 2/C"
_symmetry_group_IT_number 15
_symmetry_cell_setting 'monoclinic'
loop_
_space_group_symop_operation_xyz
x,y,z
-x,y,1/2-z
-x,-y,-z
x,-y,1/2+z
1/2+x,1/2+y,z
1/2-x,1/2+y,1/2-z
1/2-x,1/2-y,-z
1/2+x,1/2-y,1/2+z
loop_
_atom_site_type_symbol
_atom_site_label
_atom_site_fract_x
_atom_site_fract_y
_atom_site_fract_z
Si Si1 0.639490 0.383075 0.112860
Si Si2 0.362912 0.590266 0.580128
Si Si3 0.548651 0.069650 0.080341
Si Si4 0.000000 0.188838 0.750000
Si Si5 0.424913 0.696185 0.286753
Si Si6 0.267770 0.133130 0.358546
Si Si7 0.581124 0.081016 0.890965
Si Si8 0.773132 0.359143 0.643074
O O1 0.595946 0.210090 0.098091
O O2 0.623271 0.575756 0.192776
O O3 0.682178 0.221520 0.131675
O O4 0.649868 0.543691 0.022410
O O5 0.383883 0.318460 0.606983
O O6 0.320642 0.719490 0.633372
O O7 0.399023 0.812104 0.582977
O O8 0.511741 0.173776 0.153932
O O9 0.557165 0.784845 0.117032
O O10 0.543933 0.124237 0.973666
O O11 0.042076 0.006738 0.759993
O O12 0.427951 0.925447 0.215351
O O13 0.258943 0.852406 0.396778
O O14 0.261366 0.106581 0.250674
O O15 0.234327 0.357863 0.395806
#
# Coordination Sequence:
#
# PCOD9287579 Si02
#       8
#     8   8   8   4   8   8   8   8
#     4  10  23  39  66  90 133 170 229 272 339 384
#     4  11  23  43  62  99 131 173 224 286 316 405
#     4  10  23  45  65 101 135 168 221 279 320 410
#     4  10  24  44  68 100 138 170 218 270 336 402
#     4  11  23  43  70  98 129 184 214 277 337 398
#     4  10  22  37  57  91 124 179 217 277 326 395
#     4  11  25  41  72  98 136 174 227 268 335 386
#     4  10  22  37  57  88 134 166 228 271 331 385
#
# _framework density 25.826421
#
# number of rings (size 3 to 8) (size 9 to 14) (size 15 to 20)
#    0.000    1.600    1.333    2.000    7.467    2.667 
#    0.000    2.667    0.000    0.000    0.000    0.000 
#    0.000    0.000    0.000    0.000    0.000    0.000 
#
# Total GULP energy -167863.282201 kJ/mol
# GULP energy per Si atom -5595.442740 kJ/mol
# Density = 2.576764 g / cm^3
# Si number density = 25.826421 Si / 1000 Ang^3
#
#
#
# Elastic Constant Matrix: (Units=GPa)
#
#
# Indices 1 2 3 4 5 6 
#
# 1 24.5394 9.6327 13.1819 0.0000 -11.0868 0.0000
# 2 9.6327 95.2830 22.7831 0.0000 7.2047 0.0000
# 3 13.1819 22.7831 112.0709 0.0000 0.0994 0.0000
# 4 0.0000 0.0000 0.0000 31.2748 0.0000 -2.7695
# 5 -11.0868 7.2047 0.0994 0.0000 30.5406 0.0000
# 6 0.0000 0.0000 0.0000 -2.7695 0.0000 37.2292
#
#
#
# Elastic Compliance Matrix: (Units=1/GPa)
#
#
# Indices 1 2 3 4 5 6 
#
# 1 0.055780 -0.005997 -0.005361 0.000000 0.021681 0.000000
# 2 -0.005997 0.011886 -0.001706 0.000000 -0.004975 0.000000
# 3 -0.005361 -0.001706 0.009902 0.000000 -0.001576 0.000000
# 4 0.000000 0.000000 0.000000 0.032187 0.000000 0.002394
# 5 0.021681 -0.004975 -0.001576 0.000000 0.041793 0.000000
# 6 0.000000 0.000000 0.000000 0.002394 0.000000 0.027039
#
#
# Mechanical properties :
#
#
# Convention : Reuss Voigt Hill
#
# Bulk Modulus (GPa) = 19.44052 35.89874 27.66963
# Shear Modulus (GPa) = 22.53673 32.22863 27.38268
#
# Velocity S-wave (km/s) = 2.95722 3.53639 3.25969
# Velocity P-wave (km/s) = 4.38223 5.53217 4.99043
#
# Compressibility (1/GPa) = 0.05143896
#
# Stress axis : x y z
#
# Youngs Moduli (GPa) = 17.92758 84.13605 100.99168
#
# Poissons Ratio (x) = 0.50453 0.54142
# Poissons Ratio (y) = 0.10751 0.17234
# Poissons Ratio (z) = 0.09611 0.14358
#
# Static dielectric constant tensor:
#      x y z
#    x 2.043520 0.000000 0.020690 
#    y 0.000000 2.030980 0.000000 
#    z 0.020690 0.000000 2.052840 
# 
# From -- ./inp_files/223642.got.cif
#   From: 2010.05.17/outbox.cif.g08.bks.cpg/sg15_112_cif.got.tgz:223642.got - 2010.06.03 18:47:42.
