data_PCOD9287522
_publ_section_title
;
Structure prediction by ZEFSAII (Michael W. Deem and Ramdas Pophale) SiO2 
 PCOD9287522
Probable space group: C 2/C
;
_chemical_formula_sum "Si O2"
_cell_formula_units_Z 52
_cell_length_a 17.067636
_cell_length_b 16.726564
_cell_length_c 7.375934
_cell_angle_alpha 90.000000
_cell_angle_beta 77.218042
_cell_angle_gamma 90.000000
_cell_volume 2053.521791
_symmetry_space_group_name_H-M "C 2/C"
_symmetry_group_IT_number 15
_symmetry_cell_setting 'monoclinic'
loop_
_space_group_symop_operation_xyz
x,y,z
-x,y,1/2-z
-x,-y,-z
x,-y,1/2+z
1/2+x,1/2+y,z
1/2-x,1/2+y,1/2-z
1/2-x,1/2-y,-z
1/2+x,1/2-y,1/2+z
loop_
_atom_site_type_symbol
_atom_site_label
_atom_site_fract_x
_atom_site_fract_y
_atom_site_fract_z
Si Si1 0.577121 0.890228 0.007415
Si Si2 0.028039 0.739917 0.033113
Si Si3 0.000000 0.489864 0.750000
Si Si4 0.207473 0.682634 0.901169
Si Si5 0.800167 0.104736 0.553602
Si Si6 0.239212 0.568837 0.209233
Si Si7 0.483999 0.407264 0.968684
O O1 0.544871 0.800465 0.046581
O O2 0.746388 0.829017 0.183084
O O3 0.573644 0.948290 0.182796
O O4 0.510000 0.931730 0.913817
O O5 0.035669 0.835815 0.026158
O O6 0.000000 0.720927 0.250000
O O7 0.113434 0.701998 0.940639
O O8 0.157411 0.407482 0.857255
O O9 0.250000 0.750000 0.000000
O O10 0.227015 0.606909 0.017925
O O11 0.799576 0.102534 0.333872
O O12 0.765393 0.020828 0.647293
O O13 0.892109 0.111255 0.566344
O O14 0.500000 0.602667 0.250000
O O15 0.500000 0.500000 0.000000
#
# Coordination Sequence:
#
# PCOD9287522 Si02
#       7
#     8   8   4   8   8   8   8
#     4  11  23  41  66 109 149 203 246 303 372 468
#     4  12  26  50  76 111 157 204 260 319 394 459
#     4  10  22  36  68  94 154 198 250 286 368 450
#     4  12  29  49  77 114 162 205 254 337 395 464
#     4  12  28  49  83 116 156 207 266 326 394 475
#     4  12  25  46  78 113 158 203 263 318 402 466
#     4  12  30  54  84 111 148 205 269 330 393 469
#
# _framework density 25.322351999999999
#
# number of rings (size 3 to 8) (size 9 to 14) (size 15 to 20)
#    0.000    0.308    3.846    3.231   11.846    0.615 
#    0.000    0.000    0.000    0.000    0.000    0.000 
#    0.000    0.000    0.000    0.000    0.000    0.000 
#
# Total GULP energy -145401.444226 kJ/mol
# GULP energy per Si atom -5592.363239 kJ/mol
# Density = 2.526472 g / cm^3
# Si number density = 25.322352 Si / 1000 Ang^3
#
#
#
# Elastic Constant Matrix: (Units=GPa)
#
#
# Indices 1 2 3 4 5 6 
#
# 1 86.5945 20.3960 18.7660 0.0000 -16.7164 0.0000
# 2 20.3960 117.5946 17.3616 0.0000 -2.3349 0.0000
# 3 18.7660 17.3616 107.0319 0.0000 -3.5403 0.0000
# 4 0.0000 0.0000 0.0000 27.4200 0.0000 8.1230
# 5 -16.7164 -2.3349 -3.5403 0.0000 43.1228 0.0000
# 6 0.0000 0.0000 0.0000 8.1230 0.0000 31.9785
#
#
#
# Elastic Compliance Matrix: (Units=1/GPa)
#
#
# Indices 1 2 3 4 5 6 
#
# 1 0.013360 -0.001944 -0.001864 0.000000 0.004921 0.000000
# 2 -0.001944 0.009001 -0.001131 0.000000 -0.000359 0.000000
# 3 -0.001864 -0.001131 0.009854 0.000000 0.000025 0.000000
# 4 0.000000 0.000000 0.000000 0.039437 0.000000 -0.010018
# 5 0.004921 -0.000359 0.000025 0.000000 0.025080 0.000000
# 6 0.000000 0.000000 0.000000 -0.010018 0.000000 0.033816
#
#
# Mechanical properties :
#
#
# Convention : Reuss Voigt Hill
#
# Bulk Modulus (GPa) = 44.77103 47.14090 45.95596
# Shear Modulus (GPa) = 33.81306 37.48411 35.64858
#
# Velocity S-wave (km/s) = 3.65815 3.85161 3.75612
# Velocity P-wave (km/s) = 5.96335 6.19973 6.08269
#
# Compressibility (1/GPa) = 0.02233587
#
# Stress axis : x y z
#
# Youngs Moduli (GPa) = 74.85078 111.10049 101.47997
#
# Poissons Ratio (x) = 0.21601 0.18919
# Poissons Ratio (y) = 0.14553 0.11478
# Poissons Ratio (z) = 0.13954 0.12566
#
# Static dielectric constant tensor:
#      x y z
#    x 2.149470 0.000000 0.149930 
#    y 0.000000 -2.036220 0.000000 
#    z 0.149930 0.000000 2.095820 
# 
# From -- ./inp_files/96973.got.cif
#   From: 2010.05.17/outbox.cif.g08.bks.cpg/sg15_49_cif.got.tgz:96973.got - 2010.06.03 18:47:42.
