data_PCOD9287660
_publ_section_title
;
Structure prediction by ZEFSAII (Michael W. Deem and Ramdas Pophale) SiO2 
 PCOD9287660
Probable space group: C 2/C
;
_chemical_formula_sum "Si O2"
_cell_formula_units_Z 56
_cell_length_a 12.716946
_cell_length_b 26.904312
_cell_length_c 9.593868
_cell_angle_alpha 90.000000
_cell_angle_beta 119.876503
_cell_angle_gamma 90.000000
_cell_volume 2846.218235
_symmetry_space_group_name_H-M "C 2/C"
_symmetry_group_IT_number 15
_symmetry_cell_setting 'monoclinic'
loop_
_space_group_symop_operation_xyz
x,y,z
-x,y,1/2-z
-x,-y,-z
x,-y,1/2+z
1/2+x,1/2+y,z
1/2-x,1/2+y,1/2-z
1/2-x,1/2-y,-z
1/2+x,1/2-y,1/2+z
loop_
_atom_site_type_symbol
_atom_site_label
_atom_site_fract_x
_atom_site_fract_y
_atom_site_fract_z
Si Si1 0.478402 0.803632 0.579020
Si Si2 0.402312 0.627271 0.295287
Si Si3 0.296268 0.804273 0.981396
Si Si4 0.979271 0.191722 0.886162
Si Si5 0.223462 0.343303 0.246038
Si Si6 0.858524 0.955670 0.974592
Si Si7 0.651367 0.448679 0.207565
O O1 0.500000 0.821085 0.750000
O O2 0.597476 0.804781 0.561454
O O3 0.452121 0.744297 0.570779
O O4 0.370497 0.834167 0.438647
O O5 0.500000 0.604255 0.250000
O O6 0.314347 0.663371 0.151966
O O7 0.474257 0.660932 0.453183
O O8 0.331439 0.587839 0.344709
O O9 0.250000 0.750000 0.000000
O O10 0.340121 0.830901 0.151015
O O11 0.834763 0.195410 0.802077
O O12 0.000000 0.165862 0.750000
O O13 0.287107 0.396870 0.293416
O O14 0.813949 0.005795 0.870017
O O15 0.816999 0.954786 0.107721
O O16 0.005254 0.949767 0.089258
#
# Coordination Sequence:
#
# PCOD9287660 Si02
#       7
#     8   8   8   8   8   8   8
#     4  11  27  42  63  94 129 176 222 270 319 395
#     4  12  22  37  64  96 131 169 219 266 336 396
#     4  12  24  43  65  95 133 179 221 269 321 392
#     4  11  23  38  61  93 132 171 211 270 329 384
#     4  12  23  43  65  91 135 169 223 261 337 390
#     4  10  22  37  61  96 136 159 214 266 342 388
#     4  10  22  38  62  96 129 171 203 275 332 395
#
# _framework density 19.675229999999999
#
# number of rings (size 3 to 8) (size 9 to 14) (size 15 to 20)
#    0.000    0.857    4.286    2.143   10.000    1.143 
#    0.000    0.000    0.000    0.857    0.000    0.000 
#    0.000    0.000    0.000    0.000    0.000    0.000 
#
# Total GULP energy -156304.521284 kJ/mol
# GULP energy per Si atom -5582.304332 kJ/mol
# Density = 1.963045 g / cm^3
# Si number density = 19.675230 Si / 1000 Ang^3
#
#
#
# Elastic Constant Matrix: (Units=GPa)
#
#
# Indices 1 2 3 4 5 6 
#
# 1 38.3150 16.4574 24.1169 0.0000 -7.3806 0.0000
# 2 16.4574 101.6129 54.1481 0.0000 -0.1766 0.0000
# 3 24.1169 54.1481 144.7390 0.0000 -16.6994 0.0000
# 4 0.0000 0.0000 0.0000 36.8902 0.0000 -3.4028
# 5 -7.3806 -0.1766 -16.6994 0.0000 37.0299 0.0000
# 6 0.0000 0.0000 0.0000 -3.4028 0.0000 17.9923
#
#
#
# Elastic Compliance Matrix: (Units=1/GPa)
#
#
# Indices 1 2 3 4 5 6 
#
# 1 0.030441 -0.003120 -0.003383 0.000000 0.004527 0.000000
# 2 -0.003120 0.012772 -0.004560 0.000000 -0.002617 0.000000
# 3 -0.003383 -0.004560 0.009598 0.000000 0.003632 0.000000
# 4 0.000000 0.000000 0.000000 0.027589 0.000000 0.005218
# 5 0.004527 -0.002617 0.003632 0.000000 0.029533 0.000000
# 6 0.000000 0.000000 0.000000 0.005218 0.000000 0.056566
#
#
# Mechanical properties :
#
#
# Convention : Reuss Voigt Hill
#
# Bulk Modulus (GPa) = 32.58922 52.67907 42.63415
# Shear Modulus (GPa) = 25.14426 31.04545 28.09485
#
# Velocity S-wave (km/s) = 3.57874 3.97658 3.78290
# Velocity P-wave (km/s) = 5.80311 6.92219 6.38720
#
# Compressibility (1/GPa) = 0.03068500
#
# Stress axis : x y z
#
# Youngs Moduli (GPa) = 32.85078 78.29545 104.19091
#
# Poissons Ratio (x) = 0.24426 0.35245
# Poissons Ratio (y) = 0.10249 0.47515
# Poissons Ratio (z) = 0.11112 0.35705
#
# Static dielectric constant tensor:
#      x y z
#    x 1.715170 0.000000 -0.046840 
#    y 0.000000 1.731440 0.000000 
#    z -0.046840 0.000000 1.705550 
# 
# From -- ./inp_files/43611.got.cif
#   From: 2010.05.17/outbox.cif.g08.bks.cpg/sg15_22_cif.got.tgz:43611.got - 2010.06.03 18:47:42.
