data_PCOD9287336
_publ_section_title
;
Structure prediction by ZEFSAII (Michael W. Deem and Ramdas Pophale) SiO2 
 PCOD9287336
Probable space group: C 2/C
;
_chemical_formula_sum "Si O2"
_cell_formula_units_Z 40
_cell_length_a 13.307836
_cell_length_b 25.220532
_cell_length_c 5.322723
_cell_angle_alpha 90.000000
_cell_angle_beta 100.589673
_cell_angle_gamma 90.000000
_cell_volume 1756.042994
_symmetry_space_group_name_H-M "C 2/C"
_symmetry_group_IT_number 15
_symmetry_cell_setting 'monoclinic'
loop_
_space_group_symop_operation_xyz
x,y,z
-x,y,1/2-z
-x,-y,-z
x,-y,1/2+z
1/2+x,1/2+y,z
1/2-x,1/2+y,1/2-z
1/2-x,1/2-y,-z
1/2+x,1/2-y,1/2+z
loop_
_atom_site_type_symbol
_atom_site_label
_atom_site_fract_x
_atom_site_fract_y
_atom_site_fract_z
Si Si1 0.954873 0.059204 0.984736
Si Si2 0.379510 0.297384 0.224199
Si Si3 0.254447 0.394448 0.395171
Si Si4 0.203189 0.691633 0.271264
Si Si5 0.935007 0.375892 0.475135
O O1 0.000000 0.087776 0.250000
O O2 0.833278 0.057951 0.966704
O O3 0.000000 0.082878 0.750000
O O4 0.000000 0.000000 0.000000
O O5 0.500000 0.297195 0.250000
O O6 0.332182 0.349969 0.323766
O O7 0.343582 0.245228 0.362149
O O8 0.314276 0.295904 0.935330
O O9 0.209000 0.361755 0.608956
O O10 0.162976 0.409470 0.165492
O O11 0.122351 0.677139 0.455706
O O12 0.000000 0.368175 0.250000
O O13 0.000000 0.394302 0.750000
#
# Coordination Sequence:
#
# PCOD9287336 Si02
#       5
#     8   8   8   8   8
#     4  10  24  44  70 102 135 169 206 272 356 413
#     4  10  22  36  55  88 134 185 228 278 331 380
#     4  11  23  37  66  93 133 169 238 270 331 409
#     4  10  22  39  55  93 128 185 231 280 319 394
#     4  11  22  39  62  89 127 178 223 277 324 377
#
# _framework density 22.778486000000001
#
# number of rings (size 3 to 8) (size 9 to 14) (size 15 to 20)
#    0.000    1.600    2.000    1.800    8.400    0.000 
#    0.000    0.000    0.000    0.000    0.000   16.800 
#    0.000    0.000    0.000    0.000    0.000    0.000 
#
# Total GULP energy -111446.687973 kJ/mol
# GULP energy per Si atom -5572.334399 kJ/mol
# Density = 2.272664 g / cm^3
# Si number density = 22.778486 Si / 1000 Ang^3
#
#
#
# Elastic Constant Matrix: (Units=GPa)
#
#
# Indices 1 2 3 4 5 6 
#
# 1 189.9942 28.2129 75.7514 0.0000 22.6399 0.0000
# 2 28.2129 47.5485 4.4892 0.0000 1.7332 0.0000
# 3 75.7514 4.4892 148.3819 0.0000 6.5780 0.0000
# 4 0.0000 0.0000 0.0000 -60.8053 0.0000 54.3690
# 5 22.6399 1.7332 6.5780 0.0000 48.0006 0.0000
# 6 0.0000 0.0000 0.0000 54.3690 0.0000 -4.7914
#
#
#
# Elastic Compliance Matrix: (Units=1/GPa)
#
#
# Indices 1 2 3 4 5 6 
#
# 1 0.007692 -0.004109 -0.003670 0.000000 -0.002976 0.000000
# 2 -0.004109 0.023308 0.001352 0.000000 0.000911 0.000000
# 3 -0.003670 0.001352 0.008550 0.000000 0.000511 0.000000
# 4 0.000000 0.000000 0.000000 0.001798 0.000000 0.020404
# 5 -0.002976 0.000911 0.000511 0.000000 0.022134 0.000000
# 6 0.000000 0.000000 0.000000 0.020404 0.000000 0.022819
#
#
# Mechanical properties :
#
#
# Convention : Reuss Voigt Hill
#
# Bulk Modulus (GPa) = 37.45999 66.98130 52.22064
# Shear Modulus (GPa) = 46.27345 14.97887 30.62616
#
# Velocity S-wave (km/s) = 4.51206 2.56713 3.67075
# Velocity P-wave (km/s) = 6.60499 6.18516 6.39852
#
# Compressibility (1/GPa) = 0.02669515
#
# Stress axis : x y z
#
# Youngs Moduli (GPa) = 130.01346 42.90328 116.96428
#
# Poissons Ratio (x) = 0.17628 0.42930
# Poissons Ratio (y) = 0.53419 -0.15814
# Poissons Ratio (z) = 0.47720 -0.05801
#
# Static dielectric constant tensor:
#      x y z
#    x 1.885540 0.000000 0.028040 
#    y 0.000000 1.844910 0.000000 
#    z 0.028040 0.000000 2.010630 
# 
# From -- ./inp_files/5069.got.cif
#   From: 2010.05.17/outbox.cif.g08.bks.cpg/sg15_3_cif.got.tgz:5069.got - 2010.06.03 18:47:42.
