data_PCOD9287981
_publ_section_title
;
Structure prediction by ZEFSAII (Michael W. Deem and Ramdas Pophale) SiO2 
 PCOD9287981
Probable space group: C 2/C
;
_chemical_formula_sum "Si O2"
_cell_formula_units_Z 52
_cell_length_a 14.071469
_cell_length_b 24.849250
_cell_length_c 8.536146
_cell_angle_alpha 90.000000
_cell_angle_beta 114.458251
_cell_angle_gamma 90.000000
_cell_volume 2716.949355
_symmetry_space_group_name_H-M "C 2/C"
_symmetry_group_IT_number 15
_symmetry_cell_setting 'monoclinic'
loop_
_space_group_symop_operation_xyz
x,y,z
-x,y,1/2-z
-x,-y,-z
x,-y,1/2+z
1/2+x,1/2+y,z
1/2-x,1/2+y,1/2-z
1/2-x,1/2-y,-z
1/2+x,1/2-y,1/2+z
loop_
_atom_site_type_symbol
_atom_site_label
_atom_site_fract_x
_atom_site_fract_y
_atom_site_fract_z
Si Si1 0.122068 0.562027 0.671888
Si Si2 0.788226 0.350912 0.683442
Si Si3 0.731738 0.659716 0.811273
Si Si4 0.660799 0.735223 0.262099
Si Si5 0.884898 0.440778 0.957502
Si Si6 0.000000 0.303663 0.750000
Si Si7 0.059594 0.220500 0.519584
O O1 0.210464 0.603974 0.684049
O O2 0.130546 0.501596 0.612051
O O3 0.006370 0.578502 0.530054
O O4 0.129572 0.560580 0.865472
O O5 0.710935 0.343075 0.483186
O O6 0.751365 0.306348 0.781378
O O7 0.810354 0.403780 0.800550
O O8 0.897046 0.339130 0.668617
O O9 0.806722 0.709205 0.802686
O O10 0.625105 0.673221 0.646490
O O11 0.630972 0.741519 0.423816
O O12 0.554439 0.708292 0.124899
O O13 0.968925 0.265629 0.872693
#
# Coordination Sequence:
#
# PCOD9287981 Si02
#       7
#     8   8   8   8   8   4   8
#     4  10  22  38  61  89 120 163 203 259 311 363
#     4  12  23  38  60  89 125 166 206 252 310 368
#     4  12  22  37  61  87 121 164 204 252 309 367
#     4  11  24  40  58  89 125 167 205 255 309 373
#     4  10  22  39  60  88 124 158 209 255 309 371
#     4  12  22  36  58  86 122 162 200 252 302 368
#     4  11  24  38  58  85 127 158 211 251 305 372
#
# _framework density 19.139112999999998
#
# number of rings (size 3 to 8) (size 9 to 14) (size 15 to 20)
#    0.000    0.923    3.077    4.615    2.154    3.692 
#    0.000    0.000    0.000    0.923    0.000    2.154 
#    0.000    0.000    0.000    0.000    0.000    0.000 
#
# Total GULP energy -144929.404524 kJ/mol
# GULP energy per Si atom -5574.207866 kJ/mol
# Density = 1.909555 g / cm^3
# Si number density = 19.139113 Si / 1000 Ang^3
#
#
#
# Elastic Constant Matrix: (Units=GPa)
#
#
# Indices 1 2 3 4 5 6 
#
# 1 88.7198 31.9611 31.5344 0.0000 -8.9377 0.0000
# 2 31.9611 77.0162 45.7779 0.0000 -2.9278 0.0000
# 3 31.5344 45.7779 128.1259 0.0000 -6.0883 0.0000
# 4 0.0000 0.0000 0.0000 35.9623 0.0000 -3.5203
# 5 -8.9377 -2.9278 -6.0883 0.0000 37.5308 0.0000
# 6 0.0000 0.0000 0.0000 -3.5203 0.0000 28.2041
#
#
#
# Elastic Compliance Matrix: (Units=1/GPa)
#
#
# Indices 1 2 3 4 5 6 
#
# 1 0.013791 -0.004672 -0.001599 0.000000 0.002660 0.000000
# 2 -0.004672 0.018072 -0.005334 0.000000 -0.000568 0.000000
# 3 -0.001599 -0.005334 0.010144 0.000000 0.000849 0.000000
# 4 0.000000 0.000000 0.000000 0.028151 0.000000 0.003514
# 5 0.002660 -0.000568 0.000849 0.000000 0.027372 0.000000
# 6 0.000000 0.000000 0.000000 0.003514 0.000000 0.035894
#
#
# Mechanical properties :
#
#
# Convention : Reuss Voigt Hill
#
# Bulk Modulus (GPa) = 53.19643 56.93428 55.06535
# Shear Modulus (GPa) = 30.69394 32.64536 31.66965
#
# Velocity S-wave (km/s) = 4.00900 4.13448 4.07222
# Velocity P-wave (km/s) = 7.02029 7.25287 7.13752
#
# Compressibility (1/GPa) = 0.01879826
#
# Stress axis : x y z
#
# Youngs Moduli (GPa) = 72.51323 55.33444 98.57645
#
# Poissons Ratio (x) = 0.25850 0.15758
# Poissons Ratio (y) = 0.33876 0.52582
# Poissons Ratio (z) = 0.11592 0.29516
#
# Static dielectric constant tensor:
#      x y z
#    x 1.678460 0.000000 0.014560 
#    y 0.000000 1.638210 0.000000 
#    z 0.014560 0.000000 1.819540 
# 
# From -- ./inp_files/42324.got.cif
#   From: 2010.05.17/outbox.cif.g08.bks.cpg/sg15_22_cif.got.tgz:42324.got - 2010.06.03 18:47:42.
