data_PCOD9287808
_publ_section_title
;
Structure prediction by ZEFSAII (Michael W. Deem and Ramdas Pophale) SiO2 
 PCOD9287808
Probable space group: C 2/C
;
_chemical_formula_sum "Si O2"
_cell_formula_units_Z 64
_cell_length_a 25.773052
_cell_length_b 9.047283
_cell_length_c 32.494241
_cell_angle_alpha 90.000000
_cell_angle_beta 152.873866
_cell_angle_gamma 90.000000
_cell_volume 3454.685419
_symmetry_space_group_name_H-M "C 2/C"
_symmetry_group_IT_number 15
_symmetry_cell_setting 'monoclinic'
loop_
_space_group_symop_operation_xyz
x,y,z
-x,y,1/2-z
-x,-y,-z
x,-y,1/2+z
1/2+x,1/2+y,z
1/2-x,1/2+y,1/2-z
1/2-x,1/2-y,-z
1/2+x,1/2-y,1/2+z
loop_
_atom_site_type_symbol
_atom_site_label
_atom_site_fract_x
_atom_site_fract_y
_atom_site_fract_z
Si Si1 0.072467 0.642374 0.564809
Si Si2 0.593380 0.434459 0.681505
Si Si3 0.181074 0.687273 0.799158
Si Si4 0.198578 0.498060 0.729511
Si Si5 0.671726 0.303651 0.561222
Si Si6 0.516852 0.767620 0.636306
Si Si7 0.087295 0.133703 0.506699
Si Si8 0.430059 0.086266 0.242259
O O1 0.138180 0.598831 0.652565
O O2 0.157829 0.693098 0.589532
O O3 0.000000 0.500000 0.500000
O O4 0.987680 0.778594 0.513274
O O5 0.638480 0.340630 0.751252
O O6 0.686739 0.440027 0.710732
O O7 0.563111 0.601397 0.671038
O O8 0.481424 0.356394 0.584186
O O9 0.219328 0.591764 0.785627
O O10 0.289304 0.706381 0.904668
O O11 0.091189 0.583140 0.758632
O O12 0.111084 0.367289 0.679235
O O13 0.599939 0.238532 0.472282
O O14 0.609595 0.459311 0.528707
O O15 0.803446 0.343709 0.647399
O O16 0.509083 0.833941 0.676398
O O17 0.500000 0.096880 0.250000
#
# Coordination Sequence:
#
# PCOD9287808 Si02
#       8
#     8   8   8   8   8   8   8   8
#     4  12  21  33  53  86 126 159 190 225 270 351
#     4  11  21  35  56  83 123 156 189 227 285 352
#     4  10  22  38  57  82 114 155 198 236 286 349
#     4  11  21  33  52  86 125 162 188 223 276 347
#     4  10  22  38  59  84 119 156 194 236 290 351
#     4  10  22  38  57  87 118 152 195 237 288 347
#     4  10  23  34  53  81 121 158 191 226 285 342
#     4  10  23  43  64  82 108 149 202 255 299 335
#
# _framework density 18.525563999999999
#
# number of rings (size 3 to 8) (size 9 to 14) (size 15 to 20)
#    0.000    1.500    2.500    2.625    8.750    0.500 
#    0.000    0.625    0.000    6.750    0.000    0.000 
#    0.000    0.000    0.000    0.000    0.000    0.000 
#
# Total GULP energy -178764.457794 kJ/mol
# GULP energy per Si atom -5586.389306 kJ/mol
# Density = 1.848340 g / cm^3
# Si number density = 18.525564 Si / 1000 Ang^3
#
#
#
# Elastic Constant Matrix: (Units=GPa)
#
#
# Indices 1 2 3 4 5 6 
#
# 1 114.4400 44.9892 30.4529 0.0000 -4.3270 -0.0002
# 2 44.9892 62.3250 33.2842 0.0002 0.4791 -0.0002
# 3 30.4529 33.2842 84.0279 0.0003 -11.8869 0.0000
# 4 0.0000 0.0002 0.0003 23.5677 0.0000 0.3467
# 5 -4.3270 0.4791 -11.8869 0.0000 17.5809 -0.0001
# 6 -0.0002 -0.0002 0.0000 0.3467 -0.0001 1.5442
#
#
#
# Elastic Compliance Matrix: (Units=1/GPa)
#
#
# Indices 1 2 3 4 5 6 
#
# 1 0.012415 -0.008617 -0.000686 0.000000 0.002826 0.000000
# 2 -0.008617 0.027057 -0.008845 0.000000 -0.008838 0.000001
# 3 -0.000686 -0.008845 0.017320 0.000000 0.011783 0.000000
# 4 0.000000 0.000000 0.000000 0.042572 0.000000 -0.009558
# 5 0.002826 -0.008838 0.011783 0.000000 0.065783 0.000002
# 6 0.000000 0.000001 0.000000 -0.009558 0.000002 0.649713
#
#
# Mechanical properties :
#
#
# Convention : Reuss Voigt Hill
#
# Bulk Modulus (GPa) = 48.79144 53.13837 50.96491
# Shear Modulus (GPa) = 5.82759 18.67633 12.25196
#
# Velocity S-wave (km/s) = 1.77554 3.17856 2.57447
# Velocity P-wave (km/s) = 5.53154 6.49747 6.03386
#
# Compressibility (1/GPa) = 0.02049540
#
# Stress axis : x y z
#
# Youngs Moduli (GPa) = 80.54557 36.95952 57.73737
#
# Poissons Ratio (x) = 0.31849 0.03962
# Poissons Ratio (y) = 0.69408 0.51067
# Poissons Ratio (z) = 0.05528 0.32690
#
# Static dielectric constant tensor:
#      x y z
#    x 1.596010 0.000000 -0.006710 
#    y 0.000000 1.660370 0.000000 
#    z -0.006710 0.000000 1.673910 
# 
# From -- ./inp_files/318634.got.cif
#   From: 2010.05.17/outbox.cif.g08.bks.cpg/sg15_160_cif.got.tgz:318634.got - 2010.06.03 18:47:42.
