data_PCOD9287565
_publ_section_title
;
Structure prediction by ZEFSAII (Michael W. Deem and Ramdas Pophale) SiO2 
 PCOD9287565
Probable space group: C 2/C
;
_chemical_formula_sum "Si O2"
_cell_formula_units_Z 56
_cell_length_a 5.205367
_cell_length_b 30.822221
_cell_length_c 18.002297
_cell_angle_alpha 90.000000
_cell_angle_beta 119.531923
_cell_angle_gamma 90.000000
_cell_volume 2513.060781
_symmetry_space_group_name_H-M "C 2/C"
_symmetry_group_IT_number 15
_symmetry_cell_setting 'monoclinic'
loop_
_space_group_symop_operation_xyz
x,y,z
-x,y,1/2-z
-x,-y,-z
x,-y,1/2+z
1/2+x,1/2+y,z
1/2-x,1/2+y,1/2-z
1/2-x,1/2-y,-z
1/2+x,1/2-y,1/2+z
loop_
_atom_site_type_symbol
_atom_site_label
_atom_site_fract_x
_atom_site_fract_y
_atom_site_fract_z
Si Si1 0.587211 0.390652 0.682799
Si Si2 0.000000 0.309511 0.750000
Si Si3 0.212193 0.470805 0.870185
Si Si4 0.348500 0.458599 0.058145
Si Si5 0.534966 0.091719 0.882418
Si Si6 0.244707 0.210614 0.058107
Si Si7 0.330058 0.157961 0.483041
Si Si8 0.500000 0.955270 0.250000
O O1 0.500000 0.409742 0.750000
O O2 0.788797 0.423984 0.666184
O O3 0.329965 0.379450 0.587929
O O4 0.734393 0.344091 0.721673
O O5 0.076092 0.284393 0.837687
O O6 0.515949 0.496496 0.892253
O O7 0.980348 0.506121 0.810131
O O8 0.223057 0.466362 0.959237
O O9 0.640886 0.427720 0.093387
O O10 0.107423 0.436377 0.073067
O O11 0.349919 0.081522 0.782234
O O12 0.566222 0.138651 0.923467
O O13 0.409579 0.173694 0.033534
O O14 0.917165 0.194677 0.034789
O O15 0.250000 0.250000 0.000000
#
# Coordination Sequence:
#
# PCOD9287565 Si02
#       8
#     8   4   8   8   8   8   8   4
#     4  11  21  36  62  96 127 165 204 274 314 373
#     4  10  23  40  64  98 134 156 204 256 324 380
#     4  10  22  37  56  92 121 177 219 277 317 364
#     4  10  23  40  59  84 123 173 219 263 321 365
#     4  11  23  43  61  86 124 172 212 266 308 376
#     4  11  24  45  71 101 129 160 196 255 322 402
#     4  11  23  42  66  96 128 167 202 251 320 384
#     4  10  25  38  58  84 128 174 230 272 302 354
#
# _framework density 22.283581999999999
#
# number of rings (size 3 to 8) (size 9 to 14) (size 15 to 20)
#    0.000    1.429    2.857    1.714    4.000    8.000 
#    0.000    1.429    0.000    0.000    0.000    0.000 
#    0.000    0.000    0.000    0.000    0.000    0.000 
#
# Total GULP energy -155878.880777 kJ/mol
# GULP energy per Si atom -5567.102885 kJ/mol
# Density = 2.223286 g / cm^3
# Si number density = 22.283582 Si / 1000 Ang^3
#
#
#
# Elastic Constant Matrix: (Units=GPa)
#
#
# Indices 1 2 3 4 5 6 
#
# 1 56.4694 -0.4855 24.6709 0.0000 -7.2649 0.0000
# 2 -0.4855 51.8790 38.7568 0.0000 -4.8021 0.0000
# 3 24.6709 38.7568 101.1313 0.0000 -24.1205 0.0000
# 4 0.0000 0.0000 0.0000 40.0397 0.0000 -9.7366
# 5 -7.2649 -4.8021 -24.1205 0.0000 17.4955 0.0000
# 6 0.0000 0.0000 0.0000 -9.7366 0.0000 16.0802
#
#
#
# Elastic Compliance Matrix: (Units=1/GPa)
#
#
# Indices 1 2 3 4 5 6 
#
# 1 0.020930 0.005577 -0.007159 0.000000 0.000351 0.000000
# 2 0.005577 0.029778 -0.015302 0.000000 -0.010608 0.000000
# 3 -0.007159 -0.015302 0.023523 0.000000 0.025257 0.000000
# 4 0.000000 0.000000 0.000000 0.029288 0.000000 0.017734
# 5 0.000351 -0.010608 0.025257 0.000000 0.089214 0.000000
# 6 0.000000 0.000000 0.000000 0.017734 0.000000 0.072926
#
#
# Mechanical properties :
#
#
# Convention : Reuss Voigt Hill
#
# Bulk Modulus (GPa) = 24.71515 37.26267 30.98891
# Shear Modulus (GPa) = 15.97885 24.49224 20.23555
#
# Velocity S-wave (km/s) = 2.68072 3.31889 3.01673
# Velocity P-wave (km/s) = 4.54939 5.60759 5.10598
#
# Compressibility (1/GPa) = 0.04046101
#
# Stress axis : x y z
#
# Youngs Moduli (GPa) = 47.77919 33.58236 42.51168
#
# Poissons Ratio (x) = -0.18728 0.30435
# Poissons Ratio (y) = -0.26645 0.65052
# Poissons Ratio (z) = 0.34206 0.51388
#
# Static dielectric constant tensor:
#      x y z
#    x 2.011070 0.000000 0.405830 
#    y 0.000000 1.850280 0.000000 
#    z 0.405830 0.000000 2.862920 
# 
# From -- ./inp_files/186595.got.cif
#   From: 2010.05.17/outbox.cif.g08.bks.cpg/sg15_94_cif.got.tgz:186595.got - 2010.06.03 18:47:42.
