data_PCOD9287975
_publ_section_title
;
Structure prediction by ZEFSAII (Michael W. Deem and Ramdas Pophale) SiO2 
 PCOD9287975
Probable space group: C 2/C
;
_chemical_formula_sum "Si O2"
_cell_formula_units_Z 44
_cell_length_a 16.509797
_cell_length_b 14.855155
_cell_length_c 8.600594
_cell_angle_alpha 90.000000
_cell_angle_beta 54.912212
_cell_angle_gamma 90.000000
_cell_volume 1726.017496
_symmetry_space_group_name_H-M "C 2/C"
_symmetry_group_IT_number 15
_symmetry_cell_setting 'monoclinic'
loop_
_space_group_symop_operation_xyz
x,y,z
-x,y,1/2-z
-x,-y,-z
x,-y,1/2+z
1/2+x,1/2+y,z
1/2-x,1/2+y,1/2-z
1/2-x,1/2-y,-z
1/2+x,1/2-y,1/2+z
loop_
_atom_site_type_symbol
_atom_site_label
_atom_site_fract_x
_atom_site_fract_y
_atom_site_fract_z
Si Si1 0.402889 0.400664 0.156534
Si Si2 0.500000 0.747879 0.750000
Si Si3 0.276478 0.959940 0.360097
Si Si4 0.000000 0.969220 0.750000
Si Si5 0.309757 0.867510 0.641112
Si Si6 0.643709 0.213901 0.833477
Si Si7 0.500000 0.800274 0.250000
O O1 0.437438 0.308244 0.191846
O O2 0.304889 0.419777 0.169338
O O3 0.410649 0.463757 0.301434
O O4 0.480043 0.422748 0.934126
O O5 0.587449 0.790959 0.556926
O O6 0.262464 0.926545 0.552030
O O7 0.361500 0.889886 0.216634
O O8 0.300462 0.063677 0.296926
O O9 0.242446 0.776643 0.732895
O O10 0.422276 0.846905 0.459482
O O11 0.577945 0.256358 0.767047
#
# Coordination Sequence:
#
# PCOD9287975 Si02
#       7
#     8   4   8   4   8   8   4
#     4  10  22  38  61 101 134 190 225 301 347 426
#     4  11  28  39  67 104 141 192 240 288 375 402
#     4  11  25  45  72 105 146 186 242 296 357 426
#     4   9  20  37  60  93 143 176 238 276 362 421
#     4  11  27  47  77 109 140 194 243 292 367 426
#     4  11  28  49  70 110 142 196 241 296 361 431
#     4  10  24  52  77  99 148 196 240 294 355 437
#
# _framework density 25.492208999999999
#
# number of rings (size 3 to 8) (size 9 to 14) (size 15 to 20)
#    0.000    1.455    0.000    3.273   17.818    5.818 
#    0.000    0.000    0.000    0.000    0.000    0.000 
#    0.000    0.000    0.000    0.000    0.000    0.000 
#
# Total GULP energy -122526.174923 kJ/mol
# GULP energy per Si atom -5569.371587 kJ/mol
# Density = 2.543419 g / cm^3
# Si number density = 25.492209 Si / 1000 Ang^3
#
#
#
# Elastic Constant Matrix: (Units=GPa)
#
#
# Indices 1 2 3 4 5 6 
#
# 1 100.0033 -2.8490 -13.2571 0.0000 -5.8850 0.0000
# 2 -2.8490 77.2303 18.0954 0.0000 -4.0914 0.0000
# 3 -13.2571 18.0954 83.6303 0.0000 -0.2053 0.0000
# 4 0.0000 0.0000 0.0000 52.7048 0.0000 11.5886
# 5 -5.8850 -4.0914 -0.2053 0.0000 49.6718 0.0000
# 6 0.0000 0.0000 0.0000 11.5886 0.0000 31.2521
#
#
#
# Elastic Compliance Matrix: (Units=1/GPa)
#
#
# Indices 1 2 3 4 5 6 
#
# 1 0.010289 0.000065 0.001620 0.000000 0.001231 0.000000
# 2 0.000065 0.013702 -0.002952 0.000000 0.001124 0.000000
# 3 0.001620 -0.002952 0.012853 0.000000 0.000002 0.000000
# 4 0.000000 0.000000 0.000000 0.020658 0.000000 -0.007660
# 5 0.001231 0.001124 0.000002 0.000000 0.020371 0.000000
# 6 0.000000 0.000000 0.000000 -0.007660 0.000000 0.034838
#
#
# Mechanical properties :
#
#
# Convention : Reuss Voigt Hill
#
# Bulk Modulus (GPa) = 29.14573 29.42693 29.28633
# Shear Modulus (GPa) = 39.46954 43.98405 41.72679
#
# Velocity S-wave (km/s) = 3.93911 4.15829 4.05018
# Velocity P-wave (km/s) = 5.66981 5.88419 5.77800
#
# Compressibility (1/GPa) = 0.03431035
#
# Stress axis : x y z
#
# Youngs Moduli (GPa) = 97.19387 72.98299 77.80395
#
# Poissons Ratio (x) = -0.00476 -0.12603
# Poissons Ratio (y) = -0.00634 0.22965
# Poissons Ratio (z) = -0.15744 0.21542
#
# Static dielectric constant tensor:
#      x y z
#    x 10.738450 0.000000 -2.269260 
#    y 0.000000 2.195020 0.000000 
#    z -2.269260 0.000000 2.652140 
# 
# From -- ./inp_files/47427.got.cif
#   From: 2010.05.17/outbox.cif.g08.bks.cpg/sg15_24_cif.got.tgz:47427.got - 2010.06.03 18:47:42.
