data_PCOD9287230
_publ_section_title
;
Structure prediction by ZEFSAII (Michael W. Deem and Ramdas Pophale) SiO2 
 PCOD9287230
Probable space group: C 2/C
;
_chemical_formula_sum "Si O2"
_cell_formula_units_Z 48
_cell_length_a 18.056029
_cell_length_b 5.400283
_cell_length_c 27.975133
_cell_angle_alpha 90.000000
_cell_angle_beta 122.765492
_cell_angle_gamma 90.000000
_cell_volume 2293.778673
_symmetry_space_group_name_H-M "C 2/C"
_symmetry_group_IT_number 15
_symmetry_cell_setting 'monoclinic'
loop_
_space_group_symop_operation_xyz
x,y,z
-x,y,1/2-z
-x,-y,-z
x,-y,1/2+z
1/2+x,1/2+y,z
1/2-x,1/2+y,1/2-z
1/2-x,1/2-y,-z
1/2+x,1/2-y,1/2+z
loop_
_atom_site_type_symbol
_atom_site_label
_atom_site_fract_x
_atom_site_fract_y
_atom_site_fract_z
Si Si1 0.006070 0.083257 0.081238
Si Si2 0.141432 0.149519 0.801085
Si Si3 0.078709 0.697527 0.029011
Si Si4 0.336506 0.974114 0.357523
Si Si5 0.459323 0.780251 0.829002
Si Si6 0.573670 0.854530 0.316881
O O1 0.087684 0.266660 0.118299
O O2 0.045145 0.903234 0.054158
O O3 0.988356 0.920138 0.121548
O O4 0.921394 0.204016 0.025269
O O5 0.238365 0.110804 0.813824
O O6 0.072073 0.172740 0.732841
O O7 0.137590 0.415442 0.825884
O O8 0.118923 0.913379 0.826939
O O9 0.158865 0.578404 0.086296
O O10 0.000000 0.500000 0.000000
O O11 0.372366 0.162276 0.329941
O O12 0.518370 0.027249 0.841655
O O13 0.500000 0.845630 0.250000
#
# Coordination Sequence:
#
# PCOD9287230 Si02
#       6
#     8   8   8   8   8   8
#     4   9  18  33  61  88 119 153 206 257 306 365
#     4  11  25  38  59  87 129 163 200 255 314 367
#     4   8  16  35  55  89 118 157 195 255 313 369
#     4  10  22  34  61  93 123 152 204 266 313 362
#     4  10  23  36  61  87 119 165 211 255 299 379
#     4  10  23  42  57  79 122 175 207 239 303 380
#
# _framework density 20.926168000000001
#
# number of rings (size 3 to 8) (size 9 to 14) (size 15 to 20)
#    0.000    2.333    0.000    1.500   14.000    0.000 
#    0.000    0.000    0.000    2.000    0.000    0.000 
#    0.000    0.000    0.000    0.000    0.000    0.000 
#
# Total GULP energy -133622.974883 kJ/mol
# GULP energy per Si atom -5567.623953 kJ/mol
# Density = 2.087854 g / cm^3
# Si number density = 20.926168 Si / 1000 Ang^3
#
#
#
# Elastic Constant Matrix: (Units=GPa)
#
#
# Indices 1 2 3 4 5 6 
#
# 1 81.7227 28.1680 23.4061 -0.0002 -13.8419 -0.0003
# 2 28.1680 109.6534 32.6051 0.0000 -7.0751 -0.0008
# 3 23.4061 32.6051 76.9264 -0.0001 -12.2557 0.0001
# 4 -0.0002 0.0000 -0.0001 31.6880 0.0001 -2.2510
# 5 -13.8419 -7.0751 -12.2557 0.0001 10.9672 -0.0001
# 6 -0.0003 -0.0008 0.0001 -2.2510 -0.0001 15.5709
#
#
#
# Elastic Compliance Matrix: (Units=1/GPa)
#
#
# Indices 1 2 3 4 5 6 
#
# 1 0.016521 -0.002794 -0.000983 0.000000 0.017951 0.000000
# 2 -0.002794 0.010950 -0.003926 0.000000 -0.000850 0.000001
# 3 -0.000983 -0.003926 0.017472 0.000000 0.015751 0.000000
# 4 0.000000 0.000000 0.000000 0.031885 0.000000 0.004609
# 5 0.017951 -0.000850 0.015751 0.000000 0.130891 0.000001
# 6 0.000000 0.000001 0.000000 0.004609 0.000001 0.064889
#
#
# Mechanical properties :
#
#
# Convention : Reuss Voigt Hill
#
# Bulk Modulus (GPa) = 33.85503 48.51786 41.18644
# Shear Modulus (GPa) = 16.78639 23.92012 20.35326
#
# Velocity S-wave (km/s) = 2.83534 3.38460 3.12207
# Velocity P-wave (km/s) = 5.18963 6.20561 5.72022
#
# Compressibility (1/GPa) = 0.02953771
#
# Stress axis : x y z
#
# Youngs Moduli (GPa) = 60.52754 91.32452 57.23380
#
# Poissons Ratio (x) = 0.25512 0.05626
# Poissons Ratio (y) = 0.16908 0.22473
# Poissons Ratio (z) = 0.05949 0.35858
#
# Static dielectric constant tensor:
#      x y z
#    x 1.789920 0.000000 -0.105460 
#    y 0.000000 1.896440 0.000000 
#    z -0.105460 0.000000 1.823510 
# 
# From -- ./inp_files/297541.got.cif
#   From: 2010.05.17/outbox.cif.g08.bks.cpg/sg15_149_cif.got.tgz:297541.got - 2010.06.03 18:47:42.
