data_PCOD9287780
_publ_section_title
;
Structure prediction by ZEFSAII (Michael W. Deem and Ramdas Pophale) SiO2 
 PCOD9287780
Probable space group: C 2/C
;
_chemical_formula_sum "Si O2"
_cell_formula_units_Z 44
_cell_length_a 30.068896
_cell_length_b 4.905410
_cell_length_c 10.306830
_cell_angle_alpha 90.000000
_cell_angle_beta 97.905199
_cell_angle_gamma 90.000000
_cell_volume 1505.813086
_symmetry_space_group_name_H-M "C 2/C"
_symmetry_group_IT_number 15
_symmetry_cell_setting 'monoclinic'
loop_
_space_group_symop_operation_xyz
x,y,z
-x,y,1/2-z
-x,-y,-z
x,-y,1/2+z
1/2+x,1/2+y,z
1/2-x,1/2+y,1/2-z
1/2-x,1/2-y,-z
1/2+x,1/2-y,1/2+z
loop_
_atom_site_type_symbol
_atom_site_label
_atom_site_fract_x
_atom_site_fract_y
_atom_site_fract_z
Si Si1 0.922665 0.547842 0.068065
Si Si2 0.259260 0.561175 0.661607
Si Si3 0.060314 0.953005 0.099223
Si Si4 0.500000 0.215689 0.750000
Si Si5 0.348328 0.573181 0.279821
Si Si6 0.169693 0.425374 0.545641
O O1 0.958550 0.473573 0.191233
O O2 0.925866 0.849476 0.013673
O O3 0.870616 0.469328 0.072335
O O4 0.938425 0.348998 0.955951
O O5 0.254014 0.850949 0.727836
O O6 0.310940 0.483829 0.655459
O O7 0.221063 0.510023 0.538168
O O8 0.016272 0.082558 0.143115
O O9 0.100268 0.991750 0.220861
O O10 0.333911 0.368047 0.390483
O O11 0.343707 0.868286 0.341919
#
# Coordination Sequence:
#
# PCOD9287780 Si02
#       6
#     8   8   8   4   8   8
#     4  10  22  38  55  79 108 137 175 220 262 310
#     4   8  12  20  40  67  92 125 162 194 242 301
#     4  10  22  38  55  79 108 137 175 220 262 310
#     4  12  24  38  60  78 104 142 180 218 268 314
#     4   8  14  26  44  68  98 128 162 204 248 299
#     4   8  14  26  44  68  98 128 162 204 248 299
#
# _framework density 29.220094
#
# number of rings (size 3 to 8) (size 9 to 14) (size 15 to 20)
#    0.000    2.909    0.000    1.091    0.000    2.909 
#    0.000    0.000    0.000    1.091    0.000    0.000 
#    0.000   43.636    0.000    0.000    0.000    5.818 
#
# Total GULP energy -123512.540328 kJ/mol
# GULP energy per Si atom -5614.206379 kJ/mol
# Density = 2.915359 g / cm^3
# Si number density = 29.220094 Si / 1000 Ang^3
#
#
#
# Elastic Constant Matrix: (Units=GPa)
#
#
# Indices 1 2 3 4 5 6 
#
# 1 162.5588 3.5802 58.8177 0.0000 54.5409 0.0000
# 2 3.5802 123.4894 41.6994 0.0000 -5.4572 0.0000
# 3 58.8177 41.6994 128.8196 0.0000 18.6209 0.0000
# 4 0.0000 0.0000 0.0000 26.1493 0.0000 14.9940
# 5 54.5409 -5.4572 18.6209 0.0000 72.9817 0.0000
# 6 0.0000 0.0000 0.0000 14.9940 0.0000 47.6661
#
#
#
# Elastic Compliance Matrix: (Units=1/GPa)
#
#
# Indices 1 2 3 4 5 6 
#
# 1 0.009527 0.000699 -0.003691 0.000000 -0.006126 0.000000
# 2 0.000699 0.009301 -0.003483 0.000000 0.001062 0.000000
# 3 -0.003691 -0.003483 0.010606 0.000000 -0.000208 0.000000
# 4 0.000000 0.000000 0.000000 0.046658 0.000000 -0.014677
# 5 -0.006126 0.001062 -0.000208 0.000000 0.018412 0.000000
# 6 0.000000 0.000000 0.000000 -0.014677 0.000000 0.025596
#
#
# Mechanical properties :
#
#
# Convention : Reuss Voigt Hill
#
# Bulk Modulus (GPa) = 60.66647 69.22915 64.94781
# Shear Modulus (GPa) = 36.08967 50.07744 43.08356
#
# Velocity S-wave (km/s) = 3.51821 4.14430 3.84402
# Velocity P-wave (km/s) = 6.10825 6.82964 6.47899
#
# Compressibility (1/GPa) = 0.01648357
#
# Stress axis : x y z
#
# Youngs Moduli (GPa) = 104.96596 107.51778 94.28885
#
# Poissons Ratio (x) = -0.07520 0.34800
# Poissons Ratio (y) = -0.07341 0.32845
# Poissons Ratio (z) = 0.38741 0.37454
#
# Static dielectric constant tensor:
#      x y z
#    x 2.299700 0.000000 0.155270 
#    y 0.000000 2.158870 0.000000 
#    z 0.155270 0.000000 2.246580 
# 
# From -- ./inp_files/125040.got.cif
#   From: 2010.05.17/outbox.cif.g08.bks.cpg/sg15_63_cif.got.tgz:125040.got - 2010.06.03 18:47:42.
