data_PCOD9287607
_publ_section_title
;
Structure prediction by ZEFSAII (Michael W. Deem and Ramdas Pophale) SiO2 
 PCOD9287607
Probable space group: C 2/C
;
_chemical_formula_sum "Si O2"
_cell_formula_units_Z 64
_cell_length_a 13.450972
_cell_length_b 13.716088
_cell_length_c 25.082730
_cell_angle_alpha 90.000000
_cell_angle_beta 133.291977
_cell_angle_gamma 90.000000
_cell_volume 3368.308250
_symmetry_space_group_name_H-M "C 2/C"
_symmetry_group_IT_number 15
_symmetry_cell_setting 'monoclinic'
loop_
_space_group_symop_operation_xyz
x,y,z
-x,y,1/2-z
-x,-y,-z
x,-y,1/2+z
1/2+x,1/2+y,z
1/2-x,1/2+y,1/2-z
1/2-x,1/2-y,-z
1/2+x,1/2-y,1/2+z
loop_
_atom_site_type_symbol
_atom_site_label
_atom_site_fract_x
_atom_site_fract_y
_atom_site_fract_z
Si Si1 0.648152 0.849929 0.022694
Si Si2 0.130327 0.518035 0.940017
Si Si3 0.552935 0.303901 0.400083
Si Si4 0.640287 0.946155 0.826292
Si Si5 0.094892 0.070264 0.571073
Si Si6 0.645962 0.330655 0.984464
Si Si7 0.424110 0.812023 0.383162
Si Si8 0.377877 0.738572 0.738985
O O1 0.812624 0.839494 0.081887
O O2 0.588149 0.834027 0.058571
O O3 0.599078 0.767377 0.964040
O O4 0.603650 0.951749 0.980922
O O5 0.132825 0.451201 0.887915
O O6 0.278569 0.568572 0.002148
O O7 0.019261 0.604075 0.892930
O O8 0.480967 0.391558 0.404912
O O9 0.448684 0.249963 0.322238
O O10 0.500000 0.986711 0.750000
O O11 0.651966 0.838469 0.804955
O O12 0.771086 0.011598 0.862509
O O13 0.133853 0.157786 0.544235
O O14 0.000000 0.000000 0.500000
O O15 0.750000 0.250000 0.000000
O O16 0.501382 0.292919 0.908491
O O17 0.268344 0.810884 0.306674
O O18 0.500000 0.687663 0.750000
#
# Coordination Sequence:
#
# PCOD9287607 Si02
#       8
#     8   8   8   8   8   8   8   8
#     4  11  21  37  60  87 118 155 202 251 303 352
#     4  10  22  37  61  91 114 155 207 250 295 358
#     4  11  23  36  62  90 122 158 203 255 303 364
#     4  10  22  37  59  85 122 155 199 246 299 357
#     4  11  21  37  63  93 115 153 210 253 296 360
#     4   9  19  37  58  86 117 151 193 249 298 351
#     4  11  21  37  62  86 122 158 196 250 312 360
#     4  11  22  39  56  86 125 163 193 245 308 359
#
# _framework density 19.000637000000001
#
# number of rings (size 3 to 8) (size 9 to 14) (size 15 to 20)
#    0.000    1.500    2.500    4.125    3.500    0.000 
#    0.000    0.000    0.000    0.000    0.000    0.875 
#    0.000    0.000    0.000    0.000    0.000    0.000 
#
# Total GULP energy -178412.912767 kJ/mol
# GULP energy per Si atom -5575.403524 kJ/mol
# Density = 1.895739 g / cm^3
# Si number density = 19.000637 Si / 1000 Ang^3
#
#
#
# Elastic Constant Matrix: (Units=GPa)
#
#
# Indices 1 2 3 4 5 6 
#
# 1 78.3728 22.9929 20.3505 0.0000 10.1313 0.0000
# 2 22.9929 57.8403 31.1698 0.0000 8.1192 0.0000
# 3 20.3505 31.1698 89.0860 0.0000 16.4254 0.0000
# 4 0.0000 0.0000 0.0000 26.8139 0.0000 -1.6763
# 5 10.1313 8.1192 16.4254 0.0000 40.8989 0.0000
# 6 0.0000 0.0000 0.0000 -1.6763 0.0000 28.4175
#
#
#
# Elastic Compliance Matrix: (Units=1/GPa)
#
#
# Indices 1 2 3 4 5 6 
#
# 1 0.014808 -0.004897 -0.001266 0.000000 -0.002188 0.000000
# 2 -0.004897 0.022994 -0.006813 0.000000 -0.000615 0.000000
# 3 -0.001266 -0.006813 0.014678 0.000000 -0.004229 0.000000
# 4 0.000000 0.000000 0.000000 0.037432 0.000000 0.002208
# 5 -0.002188 -0.000615 -0.004229 0.000000 0.026813 0.000000
# 6 0.000000 0.000000 0.000000 0.002208 0.000000 0.035320
#
#
# Mechanical properties :
#
#
# Convention : Reuss Voigt Hill
#
# Bulk Modulus (GPa) = 37.69739 41.59173 39.64456
# Shear Modulus (GPa) = 26.76115 29.27846 28.01980
#
# Velocity S-wave (km/s) = 3.75698 3.92971 3.84432
# Velocity P-wave (km/s) = 6.22118 6.52130 6.37301
#
# Compressibility (1/GPa) = 0.02652703
#
# Stress axis : x y z
#
# Youngs Moduli (GPa) = 67.53230 43.49044 68.13070
#
# Poissons Ratio (x) = 0.21298 0.08624
# Poissons Ratio (y) = 0.33072 0.46417
# Poissons Ratio (z) = 0.08549 0.29630
#
# Static dielectric constant tensor:
#      x y z
#    x 1.693040 0.000000 0.024600 
#    y 0.000000 1.691980 0.000000 
#    z 0.024600 0.000000 1.659110 
# 
# From -- ./inp_files/296426.got.cif
#   From: 2010.05.17/outbox.cif.g08.bks.cpg/sg15_149_cif.got.tgz:296426.got - 2010.06.03 18:47:42.
