data_PCOD9287580
_publ_section_title
;
Structure prediction by ZEFSAII (Michael W. Deem and Ramdas Pophale) SiO2 
 PCOD9287580
Probable space group: C 2/C
;
_chemical_formula_sum "Si O2"
_cell_formula_units_Z 40
_cell_length_a 9.848310
_cell_length_b 29.590899
_cell_length_c 7.749664
_cell_angle_alpha 90.000000
_cell_angle_beta 58.423677
_cell_angle_gamma 90.000000
_cell_volume 1924.037284
_symmetry_space_group_name_H-M "C 2/C"
_symmetry_group_IT_number 15
_symmetry_cell_setting 'monoclinic'
loop_
_space_group_symop_operation_xyz
x,y,z
-x,y,1/2-z
-x,-y,-z
x,-y,1/2+z
1/2+x,1/2+y,z
1/2-x,1/2+y,1/2-z
1/2-x,1/2-y,-z
1/2+x,1/2-y,1/2+z
loop_
_atom_site_type_symbol
_atom_site_label
_atom_site_fract_x
_atom_site_fract_y
_atom_site_fract_z
Si Si1 0.950282 0.949771 0.087495
Si Si2 0.256597 0.189879 0.162876
Si Si3 0.000000 0.491996 0.250000
Si Si4 0.500000 0.382787 0.750000
Si Si5 0.000000 0.354471 0.750000
Si Si6 0.382958 0.936891 0.042294
Si Si7 0.000000 0.739616 0.750000
O O1 0.761636 0.942544 0.230114
O O2 0.000000 0.940185 0.250000
O O3 0.013586 0.914306 0.907777
O O4 0.000000 0.000000 0.000000
O O5 0.156721 0.148687 0.146510
O O6 0.356310 0.173909 0.262419
O O7 0.120461 0.228192 0.278454
O O8 0.387237 0.209814 0.945372
O O9 0.983186 0.459603 0.426766
O O10 0.863831 0.529764 0.388960
O O11 0.073242 0.387987 0.555789
#
# Coordination Sequence:
#
# PCOD9287580 Si02
#       7
#     8   8   4   4   4   8   4
#     4  12  24  40  61  90 135 191 234 279 330 389
#     4  10  23  45  70 104 129 175 215 287 342 436
#     4   9  20  37  58  79 124 174 227 268 325 372
#     4  11  26  42  68 101 143 181 239 276 344 407
#     4  11  24  38  68 103 137 161 231 278 346 414
#     4  10  22  37  57  89 124 176 223 280 320 386
#     4   9  22  47  76  93 134 170 217 270 375 421
#
# _framework density 20.789618000000001
#
# number of rings (size 3 to 8) (size 9 to 14) (size 15 to 20)
#    0.000    1.600    1.000    2.400    5.600    2.400 
#    0.000    0.000    4.400    0.000    0.000    0.000 
#    0.000    0.000    0.000    0.000    0.000    0.000 
#
# Total GULP energy -111483.060418 kJ/mol
# GULP energy per Si atom -5574.153021 kJ/mol
# Density = 2.074230 g / cm^3
# Si number density = 20.789618 Si / 1000 Ang^3
#
#
#
# Elastic Constant Matrix: (Units=GPa)
#
#
# Indices 1 2 3 4 5 6 
#
# 1 117.9067 67.4321 31.3670 0.0000 7.9848 0.0000
# 2 67.4321 137.5837 70.0105 0.0000 0.9544 0.0000
# 3 31.3670 70.0105 107.2435 0.0000 -2.6436 0.0000
# 4 0.0000 0.0000 0.0000 29.2485 0.0000 5.1044
# 5 7.9848 0.9544 -2.6436 0.0000 42.5826 0.0000
# 6 0.0000 0.0000 0.0000 5.1044 0.0000 25.5860
#
#
#
# Elastic Compliance Matrix: (Units=1/GPa)
#
#
# Indices 1 2 3 4 5 6 
#
# 1 0.011983 -0.006063 0.000402 0.000000 -0.002086 0.000000
# 2 -0.006063 0.013972 -0.007339 0.000000 0.000368 0.000000
# 3 0.000402 -0.007339 0.014021 0.000000 0.000960 0.000000
# 4 0.000000 0.000000 0.000000 0.035423 0.000000 -0.007067
# 5 -0.002086 0.000368 0.000960 0.000000 0.023926 0.000000
# 6 0.000000 0.000000 0.000000 -0.007067 0.000000 0.040494
#
#
# Mechanical properties :
#
#
# Convention : Reuss Voigt Hill
#
# Bulk Modulus (GPa) = 71.54809 77.81699 74.68254
# Shear Modulus (GPa) = 29.32929 32.41172 30.87050
#
# Velocity S-wave (km/s) = 3.76009 3.95274 3.85762
# Velocity P-wave (km/s) = 7.30350 7.63834 7.47279
#
# Compressibility (1/GPa) = 0.01397661
#
# Stress axis : x y z
#
# Youngs Moduli (GPa) = 83.44964 71.57328 71.31948
#
# Poissons Ratio (x) = 0.43396 -0.02866
# Poissons Ratio (y) = 0.50597 0.52338
# Poissons Ratio (z) = -0.03353 0.52524
#
# Static dielectric constant tensor:
#      x y z
#    x 2.170470 0.000000 -0.078860 
#    y 0.000000 1.740840 0.000000 
#    z -0.078860 0.000000 1.767090 
# 
# From -- ./inp_files/33358.got.cif
#   From: 2010.05.17/outbox.cif.g08.bks.cpg/sg15_17_cif.got.tgz:33358.got - 2010.06.03 18:47:42.
