data_PCOD9287013
_publ_section_title
;
Structure prediction by ZEFSAII (Michael W. Deem and Ramdas Pophale) SiO2 
 PCOD9287013
Probable space group: C 2/C
;
_chemical_formula_sum "Si O2"
_cell_formula_units_Z 40
_cell_length_a 17.977478
_cell_length_b 6.499529
_cell_length_c 14.216939
_cell_angle_alpha 90.000000
_cell_angle_beta 67.505415
_cell_angle_gamma 90.000000
_cell_volume 1534.790481
_symmetry_space_group_name_H-M "C 2/C"
_symmetry_group_IT_number 15
_symmetry_cell_setting 'monoclinic'
loop_
_space_group_symop_operation_xyz
x,y,z
-x,y,1/2-z
-x,-y,-z
x,-y,1/2+z
1/2+x,1/2+y,z
1/2-x,1/2+y,1/2-z
1/2-x,1/2-y,-z
1/2+x,1/2-y,1/2+z
loop_
_atom_site_type_symbol
_atom_site_label
_atom_site_fract_x
_atom_site_fract_y
_atom_site_fract_z
Si Si1 0.003626 0.636507 0.404093
Si Si2 0.612957 0.980917 0.181922
Si Si3 0.319355 0.599566 0.430870
Si Si4 0.744040 0.733425 0.684517
Si Si5 0.128800 0.029160 0.887598
O O1 0.059243 0.530392 0.297908
O O2 0.044109 0.860547 0.402501
O O3 0.000000 0.500000 0.500000
O O4 0.918871 0.615504 0.391202
O O5 0.616737 0.742654 0.154327
O O6 0.700456 0.067717 0.162604
O O7 0.250000 0.750000 0.500000
O O8 0.276170 0.440779 0.381863
O O9 0.362198 0.525378 0.504812
O O10 0.692035 0.677276 0.801467
O O11 0.835991 0.802560 0.657361
#
# Coordination Sequence:
#
# PCOD9287013 Si02
#       5
#     8   8   8   8   8
#     4  10  21  45  72 104 149 191 249 306 377 452
#     4  10  23  43  72 104 146 192 236 315 371 449
#     4  12  23  43  71 107 143 187 242 310 381 432
#     4  11  25  45  68 108 147 185 253 304 375 450
#     4  11  23  42  73 104 143 199 242 312 375 448
#
# _framework density 26.062190999999999
#
# number of rings (size 3 to 8) (size 9 to 14) (size 15 to 20)
#    0.000    1.200    4.000    1.800    0.000    0.000 
#    3.600    9.000    0.000    0.000    0.000    0.000 
#    0.000    0.000    0.000    0.000    0.000    0.000 
#
# Total GULP energy -111854.271578 kJ/mol
# GULP energy per Si atom -5592.713579 kJ/mol
# Density = 2.600287 g / cm^3
# Si number density = 26.062191 Si / 1000 Ang^3
#
#
#
# Elastic Constant Matrix: (Units=GPa)
#
#
# Indices 1 2 3 4 5 6 
#
# 1 128.7015 41.0582 32.2588 0.0000 25.4077 -0.0001
# 2 41.0582 99.6070 56.1201 -0.0001 1.4353 -0.0004
# 3 32.2588 56.1201 161.7286 0.0000 23.4777 -0.0001
# 4 0.0000 -0.0001 0.0000 53.8745 0.0000 0.0489
# 5 25.4077 1.4353 23.4777 0.0000 30.3501 0.0000
# 6 -0.0001 -0.0004 -0.0001 0.0489 0.0000 60.9441
#
#
#
# Elastic Compliance Matrix: (Units=1/GPa)
#
#
# Indices 1 2 3 4 5 6 
#
# 1 0.011027 -0.004923 0.000918 0.000000 -0.009709 0.000000
# 2 -0.004923 0.014943 -0.005293 0.000000 0.007509 0.000000
# 3 0.000918 -0.005293 0.008913 0.000000 -0.007413 0.000000
# 4 0.000000 0.000000 0.000000 0.018562 0.000000 -0.000015
# 5 -0.009709 0.007509 -0.007413 0.000000 0.046456 0.000000
# 6 0.000000 0.000000 0.000000 -0.000015 0.000000 0.016408
#
#
# Mechanical properties :
#
#
# Convention : Reuss Voigt Hill
#
# Bulk Modulus (GPa) = 61.39957 72.10125 66.75041
# Shear Modulus (GPa) = 35.62952 46.40709 41.01830
#
# Velocity S-wave (km/s) = 3.70144 4.22433 3.97150
# Velocity P-wave (km/s) = 6.47129 7.17763 6.83359
#
# Compressibility (1/GPa) = 0.01628676
#
# Stress axis : x y z
#
# Youngs Moduli (GPa) = 90.68778 66.92215 112.19570
#
# Poissons Ratio (x) = 0.32943 -0.10301
# Poissons Ratio (y) = 0.44642 0.59389
# Poissons Ratio (z) = -0.08326 0.35424
#
# Static dielectric constant tensor:
#      x y z
#    x 2.127700 0.000000 -0.046270 
#    y 0.000000 2.097350 0.000000 
#    z -0.046270 0.000000 2.052400 
# 
# From -- ./inp_files/158765.got.cif
#   From: 2010.05.17/outbox.cif.g08.bks.cpg/sg15_80_cif.got.tgz:158765.got - 2010.06.03 18:47:42.
