data_PCOD9287319
_publ_section_title
;
Structure prediction by ZEFSAII (Michael W. Deem and Ramdas Pophale) SiO2 
 PCOD9287319
Probable space group: C 2/C
;
_chemical_formula_sum "Si O2"
_cell_formula_units_Z 64
_cell_length_a 24.181208
_cell_length_b 17.833756
_cell_length_c 24.784690
_cell_angle_alpha 90.000000
_cell_angle_beta 20.753251
_cell_angle_gamma 90.000000
_cell_volume 3787.298252
_symmetry_space_group_name_H-M "C 2/C"
_symmetry_group_IT_number 15
_symmetry_cell_setting 'monoclinic'
loop_
_space_group_symop_operation_xyz
x,y,z
-x,y,1/2-z
-x,-y,-z
x,-y,1/2+z
1/2+x,1/2+y,z
1/2-x,1/2+y,1/2-z
1/2-x,1/2-y,-z
1/2+x,1/2-y,1/2+z
loop_
_atom_site_type_symbol
_atom_site_label
_atom_site_fract_x
_atom_site_fract_y
_atom_site_fract_z
Si Si1 0.458616 0.728122 0.002877
Si Si2 0.349729 0.884795 0.922308
Si Si3 0.001935 0.259763 0.657958
Si Si4 0.548670 0.983124 0.394249
Si Si5 0.729447 0.119931 0.174359
Si Si6 0.050696 0.908468 0.122541
Si Si7 0.780119 0.638880 0.706508
Si Si8 0.734305 0.959984 0.391069
O O1 0.317725 0.669166 0.138699
O O2 0.421000 0.802134 0.070437
O O3 0.443973 0.753606 0.953521
O O4 0.621944 0.685751 0.860145
O O5 0.500000 0.909494 0.750000
O O6 0.378106 0.796995 0.909898
O O7 0.189488 0.907110 0.039204
O O8 0.346181 0.920222 0.984698
O O9 0.968563 0.173782 0.703293
O O10 0.863898 0.320647 0.778302
O O11 0.672654 0.916771 0.288413
O O12 0.500000 0.000000 0.500000
O O13 0.627714 0.055453 0.294339
O O14 0.381961 0.971979 0.517047
O O15 0.862237 0.087197 0.014316
O O16 0.913051 0.968967 0.246723
O O17 0.761105 0.592561 0.667231
#
# Coordination Sequence:
#
# PCOD9287319 Si02
#       8
#     8   8   8   8   8   8   8   8
#     4  11  20  33  55  72 102 135 175 224 260 308
#     4  12  22  32  47  69 101 146 178 222 250 293
#     4  11  19  31  47  65 103 137 181 215 248 278
#     4  10  22  36  53  71  95 136 181 216 266 311
#     4  11  19  36  52  67 104 139 178 214 259 302
#     4  11  23  32  48  74  97 139 184 223 250 293
#     4  11  21  36  54  75  96 136 178 215 272 311
#     4  11  20  37  48  68 103 135 180 224 253 297
#
# _framework density 16.898589999999999
#
# number of rings (size 3 to 8) (size 9 to 14) (size 15 to 20)
#    0.000    1.000    7.500    1.500    1.750    1.500 
#    0.000    0.000    0.000    0.000    0.000    0.000 
#    0.000    0.000    0.000   21.375    1.500    0.000 
#
# Total GULP energy -178288.380366 kJ/mol
# GULP energy per Si atom -5571.511886 kJ/mol
# Density = 1.686013 g / cm^3
# Si number density = 16.898590 Si / 1000 Ang^3
#
#
#
# Elastic Constant Matrix: (Units=GPa)
#
#
# Indices 1 2 3 4 5 6 
#
# 1 69.0912 29.9120 35.0694 0.0028 -23.9904 -0.0023
# 2 29.9120 35.6908 24.2886 0.0096 -14.1537 -0.0101
# 3 35.0694 24.2886 86.4684 0.0059 -21.2885 -0.0038
# 4 0.0028 0.0096 0.0059 14.2550 0.0012 -8.0661
# 5 -23.9904 -14.1537 -21.2885 0.0012 29.1905 0.0006
# 6 -0.0023 -0.0101 -0.0038 -8.0661 0.0006 29.0645
#
#
#
# Elastic Compliance Matrix: (Units=1/GPa)
#
#
# Indices 1 2 3 4 5 6 
#
# 1 0.027323 -0.015527 -0.003711 0.000004 0.012220 -0.000003
# 2 -0.015527 0.047170 -0.005440 -0.000022 0.006143 0.000008
# 3 -0.003711 -0.005440 0.016086 -0.000003 0.006044 -0.000001
# 4 0.000004 -0.000022 -0.000003 0.083219 -0.000014 0.023095
# 5 0.012220 0.006143 0.006044 -0.000014 0.051687 -0.000001
# 6 -0.000003 0.000008 -0.000001 0.023095 -0.000001 0.040816
#
#
# Mechanical properties :
#
#
# Convention : Reuss Voigt Hill
#
# Bulk Modulus (GPa) = 24.25905 41.08782 32.67344
# Shear Modulus (GPa) = 15.17920 21.30068 18.23994
#
# Velocity S-wave (km/s) = 3.00034 3.55420 3.28895
# Velocity P-wave (km/s) = 5.13707 6.41952 5.81377
#
# Compressibility (1/GPa) = 0.04122172
#
# Stress axis : x y z
#
# Youngs Moduli (GPa) = 36.59948 21.20004 62.16521
#
# Poissons Ratio (x) = 0.32918 0.23072
# Poissons Ratio (y) = 0.56829 0.33818
# Poissons Ratio (z) = 0.13583 0.11533
#
# Static dielectric constant tensor:
#      x y z
#    x 1.608090 0.000000 -0.037270 
#    y 0.000000 1.584380 0.000000 
#    z -0.037270 0.000000 1.669750 
# 
# From -- ./inp_files/282230.got.cif
#   From: 2010.05.17/outbox.cif.g08.bks.cpg/sg15_142_cif.got.tgz:282230.got - 2010.06.03 18:47:42.
