data_PCOD9287982
_publ_section_title
;
Structure prediction by ZEFSAII (Michael W. Deem and Ramdas Pophale) SiO2 
 PCOD9287982
Probable space group: C 2/C
;
_chemical_formula_sum "Si O2"
_cell_formula_units_Z 56
_cell_length_a 11.625928
_cell_length_b 10.544272
_cell_length_c 27.226834
_cell_angle_alpha 90.000000
_cell_angle_beta 52.269748
_cell_angle_gamma 90.000000
_cell_volume 2639.752708
_symmetry_space_group_name_H-M "C 2/C"
_symmetry_group_IT_number 15
_symmetry_cell_setting 'monoclinic'
loop_
_space_group_symop_operation_xyz
x,y,z
-x,y,1/2-z
-x,-y,-z
x,-y,1/2+z
1/2+x,1/2+y,z
1/2-x,1/2+y,1/2-z
1/2-x,1/2-y,-z
1/2+x,1/2-y,1/2+z
loop_
_atom_site_type_symbol
_atom_site_label
_atom_site_fract_x
_atom_site_fract_y
_atom_site_fract_z
Si Si1 0.875427 0.779457 0.175955
Si Si2 0.394432 0.931002 0.598177
Si Si3 0.594641 0.449793 0.179281
Si Si4 0.852121 0.064892 0.492253
Si Si5 0.329111 0.188904 0.292732
Si Si6 0.663040 0.530760 0.891940
Si Si7 0.929095 0.355375 0.482592
O O1 0.937703 0.654179 0.133157
O O2 0.794867 0.725294 0.245166
O O3 0.793520 0.848686 0.152508
O O4 0.984935 0.889622 0.167502
O O5 0.461413 0.869297 0.531615
O O6 0.220847 0.949132 0.636621
O O7 0.458242 0.072198 0.581072
O O8 0.500000 0.498097 0.250000
O O9 0.669704 0.321004 0.178923
O O10 0.791891 0.036853 0.562722
O O11 0.913062 0.208200 0.476070
O O12 0.720582 0.069711 0.488937
O O13 0.987124 0.976285 0.443403
O O14 0.500000 0.145678 0.250000
O O15 0.227428 0.088824 0.346108
#
# Coordination Sequence:
#
# PCOD9287982 Si02
#       7
#     8   8   8   8   8   8   8
#     4  10  22  38  61  90 120 156 207 252 301 384
#     4  11  21  39  63  86 122 159 197 260 309 365
#     4   9  21  40  59  87 118 156 204 251 308 369
#     4  10  22  39  62  84 125 159 197 262 297 368
#     4   9  22  39  60  86 118 157 203 254 304 368
#     4  11  21  40  61  89 118 163 205 244 319 364
#     4  10  22  39  56  91 118 153 204 250 305 363
#
# _framework density 21.214106000000001
#
# number of rings (size 3 to 8) (size 9 to 14) (size 15 to 20)
#    0.000    2.286    1.429    1.714    8.000    0.000 
#    0.000    2.857    0.000    0.000    0.000    0.000 
#    0.000    0.000    0.000    0.000    0.000    0.000 
#
# Total GULP energy -156007.525665 kJ/mol
# GULP energy per Si atom -5571.697345 kJ/mol
# Density = 2.116582 g / cm^3
# Si number density = 21.214106 Si / 1000 Ang^3
#
#
#
# Elastic Constant Matrix: (Units=GPa)
#
#
# Indices 1 2 3 4 5 6 
#
# 1 29.7968 2.3448 26.1211 0.0000 4.2037 0.0000
# 2 2.3448 19.6432 20.3135 0.0000 3.0189 0.0000
# 3 26.1211 20.3135 73.9959 0.0000 21.0494 0.0000
# 4 0.0000 0.0000 0.0000 29.5105 0.0000 3.8447
# 5 4.2037 3.0189 21.0494 0.0000 37.2284 0.0000
# 6 0.0000 0.0000 0.0000 3.8447 0.0000 13.4591
#
#
#
# Elastic Compliance Matrix: (Units=1/GPa)
#
#
# Indices 1 2 3 4 5 6 
#
# 1 0.054488 0.020147 -0.026873 0.000000 0.007408 0.000000
# 2 0.020147 0.079793 -0.031614 0.000000 0.009129 0.000000
# 3 -0.026873 -0.031614 0.035854 0.000000 -0.014674 0.000000
# 4 0.000000 0.000000 0.000000 0.035196 0.000000 -0.010054
# 5 0.007408 0.009129 -0.014674 0.000000 0.033581 0.000000
# 6 0.000000 0.000000 0.000000 -0.010054 0.000000 0.077171
#
#
# Mechanical properties :
#
#
# Convention : Reuss Voigt Hill
#
# Bulk Modulus (GPa) = 10.70039 24.55497 17.62768
# Shear Modulus (GPa) = 11.79486 21.01670 16.40578
#
# Velocity S-wave (km/s) = 2.36050 3.15094 2.78392
# Velocity P-wave (km/s) = 3.53331 4.98376 4.31985
#
# Compressibility (1/GPa) = 0.09345455
#
# Stress axis : x y z
#
# Youngs Moduli (GPa) = 18.35275 12.53248 27.89126
#
# Poissons Ratio (x) = -0.25249 0.74951
# Poissons Ratio (y) = -0.36975 0.88175
# Poissons Ratio (z) = 0.49319 0.39620
#
# Static dielectric constant tensor:
#      x y z
#    x 1.822340 0.000000 -0.008840 
#    y 0.000000 1.777480 0.000000 
#    z -0.008840 0.000000 1.775880 
# 
# From -- ./inp_files/268724.got.cif
#   From: 2010.05.17/outbox.cif.g08.bks.cpg/sg15_135_cif.got.tgz:268724.got - 2010.06.03 18:47:42.
