data_PCOD9287765
_publ_section_title
;
Structure prediction by ZEFSAII (Michael W. Deem and Ramdas Pophale) SiO2 
 PCOD9287765
Probable space group: C 2/C
;
_chemical_formula_sum "Si O2"
_cell_formula_units_Z 56
_cell_length_a 16.491059
_cell_length_b 8.964515
_cell_length_c 28.267383
_cell_angle_alpha 90.000000
_cell_angle_beta 37.423597
_cell_angle_gamma 90.000000
_cell_volume 2539.523884
_symmetry_space_group_name_H-M "C 2/C"
_symmetry_group_IT_number 15
_symmetry_cell_setting 'monoclinic'
loop_
_space_group_symop_operation_xyz
x,y,z
-x,y,1/2-z
-x,-y,-z
x,-y,1/2+z
1/2+x,1/2+y,z
1/2-x,1/2+y,1/2-z
1/2-x,1/2-y,-z
1/2+x,1/2-y,1/2+z
loop_
_atom_site_type_symbol
_atom_site_label
_atom_site_fract_x
_atom_site_fract_y
_atom_site_fract_z
Si Si1 0.077902 0.731770 0.357191
Si Si2 0.072636 0.158928 0.964006
Si Si3 0.211103 0.003644 0.031150
Si Si4 0.461279 0.774918 0.418591
Si Si5 0.172741 0.289351 0.594377
Si Si6 0.150256 0.476294 0.183386
Si Si7 0.291172 0.047286 0.734796
O O1 0.043478 0.764490 0.427403
O O2 0.148951 0.874446 0.301036
O O3 0.184480 0.597872 0.307576
O O4 0.957244 0.689781 0.378678
O O5 0.232861 0.128551 0.891797
O O6 0.024403 0.247386 0.032129
O O7 0.000000 0.000000 0.000000
O O8 0.092452 0.121667 0.079805
O O9 0.204221 0.886555 0.077656
O O10 0.344500 0.102286 0.967739
O O11 0.217604 0.889840 0.983736
O O12 0.595200 0.835691 0.333372
O O13 0.152302 0.368614 0.653692
O O14 0.185254 0.498357 0.221713
O O15 0.000000 0.414038 0.250000
#
# Coordination Sequence:
#
# PCOD9287765 Si02
#       7
#     8   8   8   8   8   8   8
#     4  11  25  45  63 103 136 188 222 281 360 416
#     4  11  26  42  70 101 138 183 235 284 356 419
#     4  10  22  37  70  99 127 167 226 298 327 393
#     4  11  22  44  68 101 133 179 231 286 350 401
#     4  11  21  43  69  97 132 174 236 278 343 418
#     4  11  22  43  68  96 133 188 230 279 348 421
#     4  11  26  43  68  97 146 183 225 291 355 426
#
# _framework density 22.051376999999999
#
# number of rings (size 3 to 8) (size 9 to 14) (size 15 to 20)
#    0.000    1.143    4.286    0.857   10.000    0.571 
#    2.571    0.000    0.000    0.000    0.000    0.000 
#    0.000    0.000    0.000    0.000    0.000    0.000 
#
# Total GULP energy -156595.787532 kJ/mol
# GULP energy per Si atom -5592.706698 kJ/mol
# Density = 2.200119 g / cm^3
# Si number density = 22.051377 Si / 1000 Ang^3
#
#
#
# Elastic Constant Matrix: (Units=GPa)
#
#
# Indices 1 2 3 4 5 6 
#
# 1 65.4656 35.2334 37.9702 0.0000 4.9311 0.0002
# 2 35.2334 116.0084 40.6196 0.0002 14.3712 0.0002
# 3 37.9702 40.6196 97.1787 0.0000 25.9778 0.0001
# 4 0.0000 0.0002 0.0000 40.6965 0.0000 6.2066
# 5 4.9311 14.3712 25.9778 0.0000 32.8919 0.0001
# 6 0.0002 0.0002 0.0001 6.2066 0.0001 33.2490
#
#
#
# Elastic Compliance Matrix: (Units=1/GPa)
#
#
# Indices 1 2 3 4 5 6 
#
# 1 0.021981 -0.004476 -0.008062 0.000000 0.005027 0.000000
# 2 -0.004476 0.011058 -0.002232 0.000000 -0.002397 0.000000
# 3 -0.008062 -0.002232 0.017480 0.000000 -0.011622 0.000000
# 4 0.000000 0.000000 0.000000 0.025292 0.000000 -0.004721
# 5 0.005027 -0.002397 -0.011622 0.000000 0.039875 0.000000
# 6 0.000000 0.000000 0.000000 -0.004721 0.000000 0.030957
#
#
# Mechanical properties :
#
#
# Convention : Reuss Voigt Hill
#
# Bulk Modulus (GPa) = 47.66607 56.25545 51.96076
# Shear Modulus (GPa) = 27.29595 32.35612 29.82603
#
# Velocity S-wave (km/s) = 3.52210 3.83470 3.68172
# Velocity P-wave (km/s) = 6.18087 6.72109 6.45663
#
# Compressibility (1/GPa) = 0.02097928
#
# Stress axis : x y z
#
# Youngs Moduli (GPa) = 45.49327 90.43085 57.20831
#
# Poissons Ratio (x) = 0.40478 0.46119
# Poissons Ratio (y) = 0.20363 0.12771
# Poissons Ratio (z) = 0.36675 0.20188
#
# Static dielectric constant tensor:
#      x y z
#    x 1.819430 0.000000 -0.037510 
#    y 0.000000 1.839800 0.000000 
#    z -0.037510 0.000000 1.852540 
# 
# From -- ./inp_files/298508.got.cif
#   From: 2010.05.17/outbox.cif.g08.bks.cpg/sg15_150_cif.got.tgz:298508.got - 2010.06.03 18:47:42.
