data_PCOD9287639
_publ_section_title
;
Structure prediction by ZEFSAII (Michael W. Deem and Ramdas Pophale) SiO2 
 PCOD9287639
Probable space group: C 2/C
;
_chemical_formula_sum "Si O2"
_cell_formula_units_Z 64
_cell_length_a 11.343228
_cell_length_b 21.244002
_cell_length_c 26.837231
_cell_angle_alpha 90.000000
_cell_angle_beta 147.568527
_cell_angle_gamma 90.000000
_cell_volume 3468.253325
_symmetry_space_group_name_H-M "C 2/C"
_symmetry_group_IT_number 15
_symmetry_cell_setting 'monoclinic'
loop_
_space_group_symop_operation_xyz
x,y,z
-x,y,1/2-z
-x,-y,-z
x,-y,1/2+z
1/2+x,1/2+y,z
1/2-x,1/2+y,1/2-z
1/2-x,1/2-y,-z
1/2+x,1/2-y,1/2+z
loop_
_atom_site_type_symbol
_atom_site_label
_atom_site_fract_x
_atom_site_fract_y
_atom_site_fract_z
Si Si1 0.851865 0.434734 0.274719
Si Si2 0.341652 0.583456 0.952240
Si Si3 0.527282 0.775021 0.947095
Si Si4 0.259649 0.969913 0.352450
Si Si5 0.728293 0.272568 0.048861
Si Si6 0.355075 0.796720 0.245444
Si Si7 0.440336 0.080330 0.014927
Si Si8 0.965103 0.027178 0.569036
O O1 0.859788 0.455480 0.334561
O O2 0.780131 0.361235 0.244858
O O3 0.673448 0.473315 0.180007
O O4 0.104160 0.440369 0.347984
O O5 0.305695 0.652274 0.961115
O O6 0.494524 0.581118 0.958214
O O7 0.434075 0.536360 0.026653
O O8 0.456562 0.753594 0.978451
O O9 0.335808 0.746641 0.843782
O O10 0.533364 0.850385 0.953721
O O11 0.750000 0.750000 0.000000
O O12 0.353985 0.921462 0.427179
O O13 0.000000 0.966638 0.250000
O O14 0.341389 0.037978 0.401231
O O15 0.968603 0.260072 0.158396
O O16 0.750000 0.250000 0.000000
O O17 0.500000 0.819025 0.250000
O O18 0.250049 0.043716 0.976860
#
# Coordination Sequence:
#
# PCOD9287639 Si02
#       8
#     8   8   8   8   8   8   8   8
#     4  11  19  37  62  86 118 153 202 242 296 359
#     4  10  22  37  61  88 120 148 202 244 297 358
#     4  11  23  40  64  90 123 164 199 254 300 366
#     4  11  24  39  59  89 122 163 199 252 301 360
#     4  10  22  40  62  87 117 161 203 247 295 358
#     4   9  20  39  61  86 116 158 207 239 293 371
#     4  11  24  40  60  90 126 155 206 246 309 359
#     4  11  20  37  61  90 115 154 189 252 301 354
#
# _framework density 18.453092000000002
#
# number of rings (size 3 to 8) (size 9 to 14) (size 15 to 20)
#    0.000    1.500    2.500    4.125    3.500    1.500 
#    2.250    0.625    0.000    0.000    0.000    0.000 
#    0.000    0.000    0.000    0.000    0.000    0.000 
#
# Total GULP energy -178467.364084 kJ/mol
# GULP energy per Si atom -5577.105128 kJ/mol
# Density = 1.841109 g / cm^3
# Si number density = 18.453092 Si / 1000 Ang^3
#
#
#
# Elastic Constant Matrix: (Units=GPa)
#
#
# Indices 1 2 3 4 5 6 
#
# 1 83.0999 13.2386 39.4070 0.0001 -15.0693 0.0001
# 2 13.2386 72.1832 38.4437 0.0010 -5.4742 0.0004
# 3 39.4070 38.4437 112.0965 0.0031 -14.0986 0.0011
# 4 0.0001 0.0010 0.0031 19.5398 0.0014 -0.6299
# 5 -15.0693 -5.4742 -14.0986 0.0014 32.7627 0.0004
# 6 0.0001 0.0004 0.0011 -0.6299 0.0004 24.2350
#
#
#
# Elastic Compliance Matrix: (Units=1/GPa)
#
#
# Indices 1 2 3 4 5 6 
#
# 1 0.015165 0.000125 -0.004751 0.000000 0.004951 0.000000
# 2 0.000125 0.016954 -0.005809 0.000000 0.000390 0.000000
# 3 -0.004751 -0.005809 0.012884 -0.000002 0.002388 -0.000001
# 4 0.000000 0.000000 -0.000002 0.051221 -0.000003 0.001331
# 5 0.004951 0.000390 0.002388 -0.000003 0.033893 -0.000001
# 6 0.000000 0.000000 -0.000001 0.001331 -0.000001 0.041297
#
#
# Mechanical properties :
#
#
# Convention : Reuss Voigt Hill
#
# Bulk Modulus (GPa) = 41.43974 49.95090 45.69532
# Shear Modulus (GPa) = 24.95899 27.06019 26.00959
#
# Velocity S-wave (km/s) = 3.68171 3.83356 3.75840
# Velocity P-wave (km/s) = 6.37016 6.83540 6.60688
#
# Compressibility (1/GPa) = 0.02413142
#
# Stress axis : x y z
#
# Youngs Moduli (GPa) = 65.94228 58.98214 77.61705
#
# Poissons Ratio (x) = -0.00735 0.36877
# Poissons Ratio (y) = -0.00822 0.45089
# Poissons Ratio (z) = 0.31330 0.34264
#
# Static dielectric constant tensor:
#      x y z
#    x 1.688770 0.000000 0.004720 
#    y 0.000000 1.629540 0.000000 
#    z 0.004720 0.000000 1.663960 
# 
# From -- ./inp_files/293780.got.cif
#   From: 2010.05.17/outbox.cif.g08.bks.cpg/sg15_147_cif.got.tgz:293780.got - 2010.06.03 18:47:42.
