data_PCOD9287803
_publ_section_title
;
Structure prediction by ZEFSAII (Michael W. Deem and Ramdas Pophale) SiO2 
 PCOD9287803
Probable space group: C 2/C
;
_chemical_formula_sum "Si O2"
_cell_formula_units_Z 44
_cell_length_a 16.805138
_cell_length_b 8.911233
_cell_length_c 11.415429
_cell_angle_alpha 90.000000
_cell_angle_beta 84.701832
_cell_angle_gamma 90.000000
_cell_volume 1702.208235
_symmetry_space_group_name_H-M "C 2/C"
_symmetry_group_IT_number 15
_symmetry_cell_setting 'monoclinic'
loop_
_space_group_symop_operation_xyz
x,y,z
-x,y,1/2-z
-x,-y,-z
x,-y,1/2+z
1/2+x,1/2+y,z
1/2-x,1/2+y,1/2-z
1/2-x,1/2-y,-z
1/2+x,1/2-y,1/2+z
loop_
_atom_site_type_symbol
_atom_site_label
_atom_site_fract_x
_atom_site_fract_y
_atom_site_fract_z
Si Si1 0.695758 0.512071 0.454912
Si Si2 0.924256 0.768816 0.423372
Si Si3 0.679573 0.236756 0.294548
Si Si4 0.854064 0.805810 0.819516
Si Si5 0.373444 0.030749 0.981381
Si Si6 0.000000 0.985739 0.250000
O O1 0.631933 0.641759 0.480399
O O2 0.686940 0.402971 0.346487
O O3 0.675832 0.397700 0.563832
O O4 0.787894 0.549767 0.466704
O O5 0.876092 0.742892 0.309452
O O6 0.937574 0.603921 0.473246
O O7 0.993792 0.879071 0.366579
O O8 0.773036 0.203311 0.254380
O O9 0.642103 0.123660 0.396691
O O10 0.882367 0.647393 0.871675
O O11 0.925714 0.901962 0.759589
#
# Coordination Sequence:
#
# PCOD9287803 Si02
#       6
#     8   8   8   8   8   4
#     4   8  17  35  57  86 119 149 200 258 291 344
#     4  11  21  36  61  91 122 158 199 252 304 353
#     4   9  19  38  62  88 117 162 208 241 295 361
#     4   8  17  35  56  81 120 159 193 245 300 356
#     4   9  18  34  56  85 117 152 205 256 285 345
#     4  10  22  38  56  88 128 160 196 246 310 362
#
# _framework density 25.848776999999998
#
# number of rings (size 3 to 8) (size 9 to 14) (size 15 to 20)
#    0.000    2.909    0.000    2.727    0.000    9.455 
#    0.000   14.545    0.000    0.000    0.000    3.818 
#    0.000    0.000    0.000    0.000    0.000    0.000 
#
# Total GULP energy -123156.421715 kJ/mol
# GULP energy per Si atom -5598.019169 kJ/mol
# Density = 2.578994 g / cm^3
# Si number density = 25.848777 Si / 1000 Ang^3
#
#
#
# Elastic Constant Matrix: (Units=GPa)
#
#
# Indices 1 2 3 4 5 6 
#
# 1 67.7815 33.8294 36.6003 0.0000 -27.0223 0.0000
# 2 33.8294 152.3708 42.3483 0.0000 -39.6016 0.0000
# 3 36.6003 42.3483 91.1289 0.0000 -20.3053 0.0000
# 4 0.0000 0.0000 0.0000 48.3079 0.0000 -15.3116
# 5 -27.0223 -39.6016 -20.3053 0.0000 41.5790 0.0000
# 6 0.0000 0.0000 0.0000 -15.3116 0.0000 37.1485
#
#
#
# Elastic Compliance Matrix: (Units=1/GPa)
#
#
# Indices 1 2 3 4 5 6 
#
# 1 0.023012 -0.000311 -0.006543 0.000000 0.011464 0.000000
# 2 -0.000311 0.009252 -0.002532 0.000000 0.007374 0.000000
# 3 -0.006543 -0.002532 0.014916 0.000000 0.000621 0.000000
# 4 0.000000 0.000000 0.000000 0.023811 0.000000 0.009814
# 5 0.011464 0.007374 0.000621 0.000000 0.038827 0.000000
# 6 0.000000 0.000000 0.000000 0.009814 0.000000 0.030964
#
#
# Mechanical properties :
#
#
# Convention : Reuss Voigt Hill
#
# Bulk Modulus (GPa) = 35.20114 59.64855 47.42485
# Shear Modulus (GPa) = 29.58152 38.64064 34.11108
#
# Velocity S-wave (km/s) = 3.38658 3.87055 3.63663
# Velocity P-wave (km/s) = 5.37955 6.56513 6.00169
#
# Compressibility (1/GPa) = 0.02840817
#
# Stress axis : x y z
#
# Youngs Moduli (GPa) = 43.45540 108.08475 67.04093
#
# Poissons Ratio (x) = 0.03362 0.43868
# Poissons Ratio (y) = 0.01352 0.16972
# Poissons Ratio (z) = 0.28435 0.27363
#
# Static dielectric constant tensor:
#      x y z
#    x 2.081080 0.000000 -0.010980 
#    y 0.000000 2.066240 0.000000 
#    z -0.010980 0.000000 2.040880 
# 
# From -- ./inp_files/159210.got.cif
#   From: 2010.05.17/outbox.cif.g08.bks.cpg/sg15_80_cif.got.tgz:159210.got - 2010.06.03 18:47:42.
