data_PCOD9287998
_publ_section_title
;
Structure prediction by ZEFSAII (Michael W. Deem and Ramdas Pophale) SiO2 
 PCOD9287998
Probable space group: C 2/C
;
_chemical_formula_sum "Si O2"
_cell_formula_units_Z 56
_cell_length_a 12.685418
_cell_length_b 23.990863
_cell_length_c 8.472691
_cell_angle_alpha 90.000000
_cell_angle_beta 129.602129
_cell_angle_gamma 90.000000
_cell_volume 1986.729670
_symmetry_space_group_name_H-M "C 2/C"
_symmetry_group_IT_number 15
_symmetry_cell_setting 'monoclinic'
loop_
_space_group_symop_operation_xyz
x,y,z
-x,y,1/2-z
-x,-y,-z
x,-y,1/2+z
1/2+x,1/2+y,z
1/2-x,1/2+y,1/2-z
1/2-x,1/2-y,-z
1/2+x,1/2-y,1/2+z
loop_
_atom_site_type_symbol
_atom_site_label
_atom_site_fract_x
_atom_site_fract_y
_atom_site_fract_z
Si Si1 0.341276 0.428386 0.542706
Si Si2 0.065270 0.573635 0.945192
Si Si3 0.551352 0.162960 0.471792
Si Si4 0.414310 0.687586 0.988298
Si Si5 0.687000 0.359632 0.425763
Si Si6 0.763489 0.961396 0.818493
Si Si7 0.301490 0.274301 0.780894
O O1 0.093349 0.431964 0.278318
O O2 0.333714 0.365007 0.480922
O O3 0.262901 0.439240 0.635613
O O4 0.326897 0.479191 0.406248
O O5 0.000000 0.933871 0.750000
O O6 0.054994 0.636175 0.008235
O O7 0.098028 0.541815 0.145486
O O8 0.500000 0.177846 0.250000
O O9 0.677386 0.122979 0.543046
O O10 0.620793 0.217682 0.602646
O O11 0.412747 0.667653 0.799911
O O12 0.334475 0.746655 0.922890
O O13 0.425532 0.693048 0.313250
O O14 0.661582 0.416149 0.501201
O O15 0.722630 0.311619 0.587082
#
# Coordination Sequence:
#
# PCOD9287998 Si02
#       7
#     8   8   8   8   8   8   8
#     4  10  23  45  66 101 143 190 244 310 367 441
#     4  10  22  38  61  95 144 182 241 288 372 424
#     4  11  18  37  64  97 142 185 234 291 354 426
#     4  11  23  43  75 106 152 186 251 295 370 430
#     4  11  21  40  66 102 140 186 240 292 351 428
#     4  10  23  43  68  96 147 185 245 301 374 424
#     4  11  24  41  74 111 143 198 240 306 356 439
#
# _framework density 28.187025999999999
#
# number of rings (size 3 to 8) (size 9 to 14) (size 15 to 20)
#    0.857    0.571    1.429    6.429    0.000    0.571 
#    2.571    7.143    0.000    0.000    0.000    0.000 
#    0.000    0.000    0.000    0.000    0.000    0.000 
#
# Total GULP energy -156016.131795 kJ/mol
# GULP energy per Si atom -5572.004707 kJ/mol
# Density = 2.812287 g / cm^3
# Si number density = 28.187026 Si / 1000 Ang^3
#
#
#
# Elastic Constant Matrix: (Units=GPa)
#
#
# Indices 1 2 3 4 5 6 
#
# 1 95.4097 51.8216 18.4266 0.0000 -10.6109 0.0000
# 2 51.8216 167.0290 66.1171 0.0000 -7.9120 0.0000
# 3 18.4266 66.1171 98.8094 0.0000 7.7445 0.0000
# 4 0.0000 0.0000 0.0000 53.5947 0.0000 4.7588
# 5 -10.6109 -7.9120 7.7445 0.0000 37.2557 0.0000
# 6 0.0000 0.0000 0.0000 4.7588 0.0000 27.6464
#
#
#
# Elastic Compliance Matrix: (Units=1/GPa)
#
#
# Indices 1 2 3 4 5 6 
#
# 1 0.012899 -0.003843 -0.000059 0.000000 0.002870 0.000000
# 2 -0.003843 0.009611 -0.005885 0.000000 0.002170 0.000000
# 3 -0.000059 -0.005885 0.014403 0.000000 -0.004261 0.000000
# 4 0.000000 0.000000 0.000000 0.018948 0.000000 -0.003262
# 5 0.002870 0.002170 -0.004261 0.000000 0.029005 0.000000
# 6 0.000000 0.000000 0.000000 -0.003262 0.000000 0.036732
#
#
# Mechanical properties :
#
#
# Convention : Reuss Voigt Hill
#
# Bulk Modulus (GPa) = 57.66927 70.44208 64.05567
# Shear Modulus (GPa) = 34.02450 38.69156 36.35803
#
# Velocity S-wave (km/s) = 3.47810 3.70898 3.59539
# Velocity P-wave (km/s) = 6.05256 6.58690 6.32538
#
# Compressibility (1/GPa) = 0.01734026
#
# Stress axis : x y z
#
# Youngs Moduli (GPa) = 77.52664 104.04292 69.42866
#
# Poissons Ratio (x) = 0.39979 0.00411
# Poissons Ratio (y) = 0.29790 0.40858
# Poissons Ratio (z) = 0.00459 0.61228
#
# Static dielectric constant tensor:
#      x y z
#    x 2.672830 0.000000 0.081830 
#    y 0.000000 2.109790 0.000000 
#    z 0.081830 0.000000 2.177170 
# 
# From -- ./inp_files/51308.got.cif
#   From: 2010.05.17/outbox.cif.g08.bks.cpg/sg15_26_cif.got.tgz:51308.got - 2010.06.03 18:47:42.
