data_PCOD9287023
_publ_section_title
;
Structure prediction by ZEFSAII (Michael W. Deem and Ramdas Pophale) SiO2 
 PCOD9287023
Probable space group: C 2/C
;
_chemical_formula_sum "Si O2"
_cell_formula_units_Z 44
_cell_length_a 27.862142
_cell_length_b 8.971696
_cell_length_c 9.646336
_cell_angle_alpha 90.000000
_cell_angle_beta 139.344076
_cell_angle_gamma 90.000000
_cell_volume 1570.998805
_symmetry_space_group_name_H-M "C 2/C"
_symmetry_group_IT_number 15
_symmetry_cell_setting 'monoclinic'
loop_
_space_group_symop_operation_xyz
x,y,z
-x,y,1/2-z
-x,-y,-z
x,-y,1/2+z
1/2+x,1/2+y,z
1/2-x,1/2+y,1/2-z
1/2-x,1/2-y,-z
1/2+x,1/2-y,1/2+z
loop_
_atom_site_type_symbol
_atom_site_label
_atom_site_fract_x
_atom_site_fract_y
_atom_site_fract_z
Si Si1 0.000000 0.500000 0.500000
Si Si2 0.660073 0.003463 0.241918
Si Si3 0.603441 0.466775 0.598928
Si Si4 0.250640 0.096209 0.826871
Si Si5 0.500000 0.217511 0.250000
Si Si6 0.136432 0.241927 0.393916
Si Si7 0.500000 0.723443 0.250000
O O1 0.925738 0.536507 0.435868
O O2 0.974915 0.624582 0.327672
O O3 0.694649 0.966418 0.170098
O O4 0.666096 0.849125 0.341798
O O5 0.703868 0.120196 0.433541
O O6 0.685756 0.482707 0.725375
O O7 0.563834 0.328132 0.441249
O O8 0.613200 0.419041 0.780837
O O9 0.554671 0.612936 0.457081
O O10 0.199401 0.221868 0.644786
O O11 0.056599 0.306321 0.268716
#
# Coordination Sequence:
#
# PCOD9287023 Si02
#       7
#     4   8   8   8   4   8   4
#     4  12  26  46  72 100 144 182 238 282 356 422
#     4  12  26  45  70  98 144 185 234 287 358 422
#     4  10  21  45  73 102 141 181 235 288 352 407
#     4  11  25  44  74 103 137 187 235 294 349 416
#     4  11  24  47  72 104 138 191 226 291 346 426
#     4  11  22  45  73 100 146 186 226 294 355 409
#     4   9  22  37  74 110 136 179 240 285 346 420
#
# _framework density 28.007656999999998
#
# number of rings (size 3 to 8) (size 9 to 14) (size 15 to 20)
#    0.000    1.091    3.636    2.182    0.000    2.182 
#    0.000    1.818    0.000    0.000    0.000    0.000 
#    0.000    0.000    0.000    0.000    0.000    0.000 
#
# Total GULP energy -123050.952686 kJ/mol
# GULP energy per Si atom -5593.225122 kJ/mol
# Density = 2.794391 g / cm^3
# Si number density = 28.007657 Si / 1000 Ang^3
#
#
#
# Elastic Constant Matrix: (Units=GPa)
#
#
# Indices 1 2 3 4 5 6 
#
# 1 220.3572 25.4092 36.3984 0.0000 17.7388 0.0000
# 2 25.4092 64.9793 1.5155 0.0000 4.8190 0.0000
# 3 36.3984 1.5155 138.9083 0.0000 12.4486 0.0000
# 4 0.0000 0.0000 0.0000 36.7404 0.0000 -6.3322
# 5 17.7388 4.8190 12.4486 0.0000 63.8179 0.0000
# 6 0.0000 0.0000 0.0000 -6.3322 0.0000 53.5090
#
#
#
# Elastic Compliance Matrix: (Units=1/GPa)
#
#
# Indices 1 2 3 4 5 6 
#
# 1 0.005035 -0.001865 -0.001207 0.000000 -0.001023 0.000000
# 2 -0.001865 0.016167 0.000382 0.000000 -0.000777 0.000000
# 3 -0.001207 0.000382 0.007617 0.000000 -0.001179 0.000000
# 4 0.000000 0.000000 0.000000 0.027785 0.000000 0.003288
# 5 -0.001023 -0.000777 -0.001179 0.000000 0.016243 0.000000
# 6 0.000000 0.000000 0.000000 0.003288 0.000000 0.019078
#
#
# Mechanical properties :
#
#
# Convention : Reuss Voigt Hill
#
# Bulk Modulus (GPa) = 42.66426 61.21010 51.93718
# Shear Modulus (GPa) = 47.56591 54.87492 51.22042
#
# Velocity S-wave (km/s) = 4.12554 4.43118 4.28109
# Velocity P-wave (km/s) = 6.16113 6.93417 6.55905
#
# Compressibility (1/GPa) = 0.02343882
#
# Stress axis : x y z
#
# Youngs Moduli (GPa) = 198.61400 61.85274 131.28820
#
# Poissons Ratio (x) = 0.11534 0.15850
# Poissons Ratio (y) = 0.37037 -0.05014
# Poissons Ratio (z) = 0.23978 -0.02362
#
# Static dielectric constant tensor:
#      x y z
#    x 2.109040 0.000000 -0.037320 
#    y 0.000000 11.039150 0.000000 
#    z -0.037320 0.000000 2.026090 
# 
# From -- ./inp_files/65665.got.cif
#   From: 2010.05.17/outbox.cif.g08.bks.cpg/sg15_33_cif.got.tgz:65665.got - 2010.06.03 18:47:42.
