data_PCOD9287072
_publ_section_title
;
Structure prediction by ZEFSAII (Michael W. Deem and Ramdas Pophale) SiO2 
 PCOD9287072
Probable space group: C 2/C
;
_chemical_formula_sum "Si O2"
_cell_formula_units_Z 60
_cell_length_a 18.195105
_cell_length_b 19.283097
_cell_length_c 16.747415
_cell_angle_alpha 90.000000
_cell_angle_beta 27.899446
_cell_angle_gamma 90.000000
_cell_volume 2749.488582
_symmetry_space_group_name_H-M "C 2/C"
_symmetry_group_IT_number 15
_symmetry_cell_setting 'monoclinic'
loop_
_space_group_symop_operation_xyz
x,y,z
-x,y,1/2-z
-x,-y,-z
x,-y,1/2+z
1/2+x,1/2+y,z
1/2-x,1/2+y,1/2-z
1/2-x,1/2-y,-z
1/2+x,1/2-y,1/2+z
loop_
_atom_site_type_symbol
_atom_site_label
_atom_site_fract_x
_atom_site_fract_y
_atom_site_fract_z
Si Si1 0.337656 0.598350 0.620438
Si Si2 0.190613 0.536248 0.209214
Si Si3 0.500000 0.918775 0.750000
Si Si4 0.308155 0.146914 0.150424
Si Si5 0.905175 0.922264 0.762899
Si Si6 0.255907 0.187804 0.557116
Si Si7 0.364642 0.221649 0.631686
Si Si8 0.963850 0.925928 0.174659
O O1 0.208237 0.541868 0.721398
O O2 0.473319 0.589458 0.425931
O O3 0.262265 0.673260 0.701843
O O4 0.403058 0.575434 0.642759
O O5 0.056851 0.539895 0.272022
O O6 0.170847 0.586162 0.304332
O O7 0.350786 0.561517 0.011170
O O8 0.635282 0.869122 0.587799
O O9 0.251542 0.115278 0.119745
O O10 0.171261 0.199325 0.311776
O O11 0.467122 0.192078 0.003236
O O12 0.000000 0.897061 0.750000
O O13 0.886634 0.005721 0.788845
O O14 0.250000 0.250000 0.500000
O O15 0.333183 0.211591 0.567084
O O16 0.095213 0.146619 0.732204
#
# Coordination Sequence:
#
# PCOD9287072 Si02
#       8
#     8   8   4   8   8   8   8   8
#     4  10  21  46  70 100 132 180 235 282 345 415
#     4  11  22  42  70  95 139 184 232 285 335 410
#     4  12  26  40  56 104 144 174 226 286 334 396
#     4  12  23  45  68  97 132 183 230 279 348 414
#     4  11  23  43  72 104 127 169 237 299 342 398
#     4  11  26  42  62 100 144 183 226 278 339 409
#     4  11  26  44  69  96 136 187 230 272 347 426
#     4  10  22  43  72  97 132 188 232 272 346 425
#
# _framework density 21.822240000000001
#
# number of rings (size 3 to 8) (size 9 to 14) (size 15 to 20)
#    0.000    1.067    4.000    2.400    5.600    2.667 
#    0.000    2.667    0.000    0.000    0.000    0.000 
#    0.000    0.000    0.000    0.000    0.000    0.000 
#
# Total GULP energy -167811.362774 kJ/mol
# GULP energy per Si atom -5593.712092 kJ/mol
# Density = 2.177257 g / cm^3
# Si number density = 21.822240 Si / 1000 Ang^3
#
#
#
# Elastic Constant Matrix: (Units=GPa)
#
#
# Indices 1 2 3 4 5 6 
#
# 1 173.7285 53.8956 9.2181 0.0067 -17.0790 -0.0057
# 2 53.8956 94.5466 0.7820 0.0056 0.6811 -0.0045
# 3 9.2181 0.7820 27.1650 0.0079 -1.5645 -0.0091
# 4 0.0067 0.0056 0.0079 28.4169 -0.0016 -8.5307
# 5 -17.0790 0.6811 -1.5645 -0.0016 28.7042 0.0022
# 6 -0.0057 -0.0045 -0.0091 -8.5307 0.0022 19.3116
#
#
#
# Elastic Compliance Matrix: (Units=1/GPa)
#
#
# Indices 1 2 3 4 5 6 
#
# 1 0.007685 -0.004395 -0.002219 0.000000 0.004556 0.000000
# 2 -0.004395 0.013095 0.000949 -0.000001 -0.002874 0.000002
# 3 -0.002219 0.000949 0.037578 -0.000006 0.000705 0.000015
# 4 0.000000 -0.000001 -0.000006 0.040570 0.000001 0.017922
# 5 0.004556 -0.002874 0.000705 0.000001 0.037656 -0.000003
# 6 0.000000 0.000002 0.000015 0.017922 -0.000003 0.059699
#
#
# Mechanical properties :
#
#
# Convention : Reuss Voigt Hill
#
# Bulk Modulus (GPa) = 21.26385 47.02572 34.14478
# Shear Modulus (GPa) = 22.39231 30.72282 26.55757
#
# Velocity S-wave (km/s) = 3.20679 3.75623 3.49233
# Velocity P-wave (km/s) = 4.84527 6.35677 5.65178
#
# Compressibility (1/GPa) = 0.04702817
#
# Stress axis : x y z
#
# Youngs Moduli (GPa) = 130.11766 76.36356 26.61102
#
# Poissons Ratio (x) = 0.33565 0.05905
# Poissons Ratio (y) = 0.57193 -0.02525
# Poissons Ratio (z) = 0.28873 -0.07247
#
# Static dielectric constant tensor:
#      x y z
#    x 1.796990 0.000220 -0.044470 
#    y 0.000220 2.086790 0.000300 
#    z -0.044470 0.000300 1.857940 
# 
# From -- ./inp_files/211743.got.cif
#   From: 2010.05.17/outbox.cif.g08.bks.cpg/sg15_106_cif.got.tgz:211743.got - 2010.06.03 18:47:42.
