data_PCOD9287080
_publ_section_title
;
Structure prediction by ZEFSAII (Michael W. Deem and Ramdas Pophale) SiO2 
 PCOD9287080
Probable space group: C 2/C
;
_chemical_formula_sum "Si O2"
_cell_formula_units_Z 48
_cell_length_a 26.680255
_cell_length_b 10.082393
_cell_length_c 14.380872
_cell_angle_alpha 90.000000
_cell_angle_beta 36.046336
_cell_angle_gamma 90.000000
_cell_volume 2276.357701
_symmetry_space_group_name_H-M "C 2/C"
_symmetry_group_IT_number 15
_symmetry_cell_setting 'monoclinic'
loop_
_space_group_symop_operation_xyz
x,y,z
-x,y,1/2-z
-x,-y,-z
x,-y,1/2+z
1/2+x,1/2+y,z
1/2-x,1/2+y,1/2-z
1/2-x,1/2-y,-z
1/2+x,1/2-y,1/2+z
loop_
_atom_site_type_symbol
_atom_site_label
_atom_site_fract_x
_atom_site_fract_y
_atom_site_fract_z
Si Si1 0.721308 0.363083 0.670764
Si Si2 0.434224 0.750146 0.978554
Si Si3 0.000000 0.500000 0.000000
Si Si4 0.312938 0.108731 0.303016
Si Si5 0.174703 0.112352 0.023584
Si Si6 0.000000 0.966283 0.250000
Si Si7 0.799026 0.640006 0.546195
O O1 0.642166 0.317488 0.849921
O O2 0.795604 0.253093 0.560588
O O3 0.686339 0.375198 0.617549
O O4 0.761392 0.502386 0.638185
O O5 0.386308 0.819756 0.964261
O O6 0.478348 0.861017 0.974950
O O7 0.492503 0.632674 0.849617
O O8 0.901576 0.554926 0.131926
O O9 0.272412 0.247093 0.331149
O O10 0.317601 0.123069 0.408540
O O11 0.242416 0.997000 0.390364
O O12 0.082556 0.058558 0.135253
#
# Coordination Sequence:
#
# PCOD9287080 Si02
#       7
#     8   8   4   8   8   4   8
#     4  10  24  44  71  99 141 184 234 295 365 412
#     4  12  26  44  68 108 140 188 239 296 348 445
#     4  12  26  40  70 104 142 182 236 298 356 422
#     4  10  21  46  70  98 140 185 231 297 354 427
#     4  10  22  49  68  99 141 183 231 300 350 428
#     4  12  26  46  78 104 142 188 252 286 360 440
#     4  10  23  43  74  96 139 192 235 288 365 423
#
# _framework density 21.086316
#
# number of rings (size 3 to 8) (size 9 to 14) (size 15 to 20)
#    0.000    1.333    3.333    1.000    9.333    0.667 
#    3.000    0.000    0.000    0.000    0.000    0.000 
#    0.000    0.000    0.000    0.000    0.000    0.000 
#
# Total GULP energy -133729.828194 kJ/mol
# GULP energy per Si atom -5572.076175 kJ/mol
# Density = 2.103832 g / cm^3
# Si number density = 21.086316 Si / 1000 Ang^3
#
#
#
# Elastic Constant Matrix: (Units=GPa)
#
#
# Indices 1 2 3 4 5 6 
#
# 1 75.7045 55.4721 37.5766 -0.0002 -27.7247 0.0002
# 2 55.4721 176.1458 48.6048 -0.0003 -22.1478 0.0004
# 3 37.5766 48.6048 65.1286 -0.0001 -18.9196 0.0001
# 4 -0.0002 -0.0003 -0.0001 9.2719 0.0001 -13.3443
# 5 -27.7247 -22.1478 -18.9196 0.0001 44.6177 -0.0001
# 6 0.0002 0.0004 0.0001 -13.3443 -0.0001 6.9395
#
#
#
# Elastic Compliance Matrix: (Units=1/GPa)
#
#
# Indices 1 2 3 4 5 6 
#
# 1 0.023451 -0.004068 -0.007810 0.000000 0.009241 0.000000
# 2 -0.004068 0.007940 -0.003613 0.000000 -0.000119 0.000000
# 3 -0.007810 -0.003613 0.023523 0.000000 0.003329 0.000000
# 4 0.000000 0.000000 0.000000 -0.061019 0.000000 -0.117335
# 5 0.009241 -0.000119 0.003329 0.000000 0.029507 0.000000
# 6 0.000000 0.000000 0.000000 -0.117335 0.000000 -0.081527
#
#
# Mechanical properties :
#
#
# Convention : Reuss Voigt Hill
#
# Bulk Modulus (GPa) = 41.78370 66.69843 54.24106
# Shear Modulus (GPa) = -260.90908 23.85418 -118.52745
#
# Velocity S-wave (km/s) = -11.13564 3.36708 -7.50551
# Velocity P-wave (km/s) = 12.06143 6.84223 7.02360
#
# Compressibility (1/GPa) = 0.02393278
#
# Stress axis : x y z
#
# Youngs Moduli (GPa) = 42.64216 125.93872 42.51088
#
# Poissons Ratio (x) = 0.51236 0.33200
# Poissons Ratio (y) = 0.17348 0.15359
# Poissons Ratio (z) = 0.33302 0.45502
#
# Static dielectric constant tensor:
#      x y z
#    x 1.828750 0.000000 0.038830 
#    y 0.000000 1.740770 0.000000 
#    z 0.038830 0.000000 1.764940 
# 
# From -- ./inp_files/180737.got.cif
#   From: 2010.05.17/outbox.cif.g08.bks.cpg/sg15_91_cif.got.tgz:180737.got - 2010.06.03 18:47:42.
