data_PCOD9287422
_publ_section_title
;
Structure prediction by ZEFSAII (Michael W. Deem and Ramdas Pophale) SiO2 
 PCOD9287422
Probable space group: C 2/C
;
_chemical_formula_sum "Si O2"
_cell_formula_units_Z 56
_cell_length_a 12.705530
_cell_length_b 25.369778
_cell_length_c 11.772050
_cell_angle_alpha 90.000000
_cell_angle_beta 45.297325
_cell_angle_gamma 90.000000
_cell_volume 2697.047422
_symmetry_space_group_name_H-M "C 2/C"
_symmetry_group_IT_number 15
_symmetry_cell_setting 'monoclinic'
loop_
_space_group_symop_operation_xyz
x,y,z
-x,y,1/2-z
-x,-y,-z
x,-y,1/2+z
1/2+x,1/2+y,z
1/2-x,1/2+y,1/2-z
1/2-x,1/2-y,-z
1/2+x,1/2-y,1/2+z
loop_
_atom_site_type_symbol
_atom_site_label
_atom_site_fract_x
_atom_site_fract_y
_atom_site_fract_z
Si Si1 0.127439 0.956343 0.083966
Si Si2 0.873169 0.233994 0.580802
Si Si3 0.330272 0.210814 0.350250
Si Si4 0.428281 0.178117 0.691509
Si Si5 0.114471 0.489690 0.760996
Si Si6 0.556350 0.651734 0.581765
Si Si7 0.392519 0.919253 0.047687
O O1 0.032994 0.910104 0.095528
O O2 0.251248 0.929110 0.072847
O O3 0.000000 0.987109 0.250000
O O4 0.225503 0.984846 0.916749
O O5 0.822913 0.265437 0.731212
O O6 0.725250 0.205065 0.652037
O O7 0.963488 0.275062 0.435208
O O8 0.979453 0.187905 0.547395
O O9 0.500000 0.202029 0.250000
O O10 0.250000 0.250000 0.500000
O O11 0.230762 0.159747 0.435678
O O12 0.500000 0.152782 0.750000
O O13 0.399985 0.136464 0.609515
O O14 0.118556 0.534372 0.851907
O O15 0.000000 0.506021 0.750000
O O16 0.042820 0.435356 0.865356
O O17 0.500000 0.669327 0.750000
#
# Coordination Sequence:
#
# PCOD9287422 Si02
#       7
#     8   8   8   8   8   8   8
#     4  10  22  36  60  96 126 150 191 244 305 365
#     4  12  23  39  57  82 121 160 199 246 299 343
#     4  12  20  31  53  84 116 155 186 233 290 354
#     4  12  26  42  60  83 114 163 211 252 292 357
#     4   9  20  41  64  92 119 151 198 249 294 362
#     4  11  21  35  54  88 126 153 187 240 295 365
#     4  10  22  40  65  87 118 160 199 246 303 348
#
# _framework density 20.763445999999998
#
# number of rings (size 3 to 8) (size 9 to 14) (size 15 to 20)
#    0.000    1.143    4.286    2.571    4.000    1.143 
#    0.000    0.000    0.000    2.571    0.000    0.000 
#    0.000    0.000    0.000    0.000    0.000    0.000 
#
# Total GULP energy -156281.111217 kJ/mol
# GULP energy per Si atom -5581.468258 kJ/mol
# Density = 2.071619 g / cm^3
# Si number density = 20.763446 Si / 1000 Ang^3
#
#
#
# Elastic Constant Matrix: (Units=GPa)
#
#
# Indices 1 2 3 4 5 6 
#
# 1 63.5942 15.0725 26.3201 0.0000 -0.4135 0.0000
# 2 15.0725 54.8013 25.0639 0.0000 -4.2442 0.0000
# 3 26.3201 25.0639 133.7992 0.0000 -32.2106 0.0000
# 4 0.0000 0.0000 0.0000 23.6315 0.0000 8.3385
# 5 -0.4135 -4.2442 -32.2106 0.0000 37.2662 0.0000
# 6 0.0000 0.0000 0.0000 8.3385 0.0000 18.3144
#
#
#
# Elastic Compliance Matrix: (Units=1/GPa)
#
#
# Indices 1 2 3 4 5 6 
#
# 1 0.018079 -0.003537 -0.003715 0.000000 -0.003414 0.000000
# 2 -0.003537 0.020693 -0.003312 0.000000 -0.000545 0.000000
# 3 -0.003715 -0.003312 0.011017 0.000000 0.009104 0.000000
# 4 0.000000 0.000000 0.000000 0.050416 0.000000 -0.022954
# 5 -0.003414 -0.000545 0.009104 0.000000 0.034603 0.000000
# 6 0.000000 0.000000 0.000000 -0.022954 0.000000 0.065053
#
#
# Mechanical properties :
#
#
# Convention : Reuss Voigt Hill
#
# Bulk Modulus (GPa) = 34.89253 42.78972 38.84113
# Shear Modulus (GPa) = 21.68800 28.22497 24.95648
#
# Velocity S-wave (km/s) = 3.23542 3.69095 3.47067
# Velocity P-wave (km/s) = 5.54964 6.23033 5.89981
#
# Compressibility (1/GPa) = 0.02865943
#
# Stress axis : x y z
#
# Youngs Moduli (GPa) = 55.31387 48.32535 90.77070
#
# Poissons Ratio (x) = 0.17095 0.33726
# Poissons Ratio (y) = 0.19567 0.30060
# Poissons Ratio (z) = 0.20552 0.16004
#
# Static dielectric constant tensor:
#      x y z
#    x 1.803420 0.000000 -0.020660 
#    y 0.000000 1.787970 0.000000 
#    z -0.020660 0.000000 1.574230 
# 
# From -- ./inp_files/91988.got.cif
#   From: 2010.05.17/outbox.cif.g08.bks.cpg/sg15_46_cif.got.tgz:91988.got - 2010.06.03 18:47:42.
