data_PCOD9287832
_publ_section_title
;
Structure prediction by ZEFSAII (Michael W. Deem and Ramdas Pophale) SiO2 
 PCOD9287832
Probable space group: C 2/C
;
_chemical_formula_sum "Si O2"
_cell_formula_units_Z 56
_cell_length_a 24.992174
_cell_length_b 14.124791
_cell_length_c 24.587970
_cell_angle_alpha 90.000000
_cell_angle_beta 159.597768
_cell_angle_gamma 90.000000
_cell_volume 3025.845765
_symmetry_space_group_name_H-M "C 2/C"
_symmetry_group_IT_number 15
_symmetry_cell_setting 'monoclinic'
loop_
_space_group_symop_operation_xyz
x,y,z
-x,y,1/2-z
-x,-y,-z
x,-y,1/2+z
1/2+x,1/2+y,z
1/2-x,1/2+y,1/2-z
1/2-x,1/2-y,-z
1/2+x,1/2-y,1/2+z
loop_
_atom_site_type_symbol
_atom_site_label
_atom_site_fract_x
_atom_site_fract_y
_atom_site_fract_z
Si Si1 0.630217 0.095172 0.070458
Si Si2 0.138158 0.916552 0.504311
Si Si3 0.089868 0.783348 0.082680
Si Si4 0.777759 0.471664 0.238694
Si Si5 0.683636 0.355749 0.432132
Si Si6 0.811029 0.262289 0.379223
Si Si7 0.225570 0.056003 0.857336
O O1 0.642052 0.207556 0.088111
O O2 0.707713 0.045387 0.197392
O O3 0.711365 0.046949 0.096619
O O4 0.449568 0.069517 0.897172
O O5 0.206343 0.916812 0.508620
O O6 0.159391 0.808678 0.544124
O O7 0.956358 0.938997 0.329216
O O8 0.221055 0.978439 0.629453
O O9 0.157869 0.886976 0.137811
O O10 0.142518 0.751281 0.193480
O O11 0.910498 0.768959 0.921798
O O12 0.500000 0.346574 0.250000
O O13 0.750000 0.250000 0.500000
O O14 0.745820 0.408064 0.437896
O O15 0.817461 0.369908 0.405981
#
# Coordination Sequence:
#
# PCOD9287832 Si02
#       7
#     8   8   8   8   8   8   8
#     4  11  22  37  56  83 116 151 189 235 282 343
#     4  11  23  36  57  84 117 154 190 234 281 341
#     4  12  23  36  53  86 118 150 189 229 283 342
#     4  11  23  37  57  83 115 153 190 232 289 339
#     4  10  22  38  58  85 115 152 193 234 285 335
#     4  12  20  33  56  83 118 150 186 230 278 340
#     4  11  23  37  56  85 117 153 192 233 283 335
#
# _framework density 18.507221999999999
#
# number of rings (size 3 to 8) (size 9 to 14) (size 15 to 20)
#    0.000    0.857    7.143    0.857    2.000    2.286 
#    0.000    0.000    0.000    0.857    0.000    0.000 
#    0.000    0.000    0.000    0.000    0.000    0.000 
#
# Total GULP energy -156246.771764 kJ/mol
# GULP energy per Si atom -5580.241849 kJ/mol
# Density = 1.846510 g / cm^3
# Si number density = 18.507222 Si / 1000 Ang^3
#
#
#
# Elastic Constant Matrix: (Units=GPa)
#
#
# Indices 1 2 3 4 5 6 
#
# 1 103.8256 37.9462 34.2131 0.0020 -13.5470 0.0006
# 2 37.9462 70.2141 23.1510 0.0173 -4.5456 0.0092
# 3 34.2131 23.1510 52.0981 0.0140 -8.5877 0.0067
# 4 0.0020 0.0173 0.0140 26.4495 0.0034 -1.7655
# 5 -13.5470 -4.5456 -8.5877 0.0034 20.7455 0.0010
# 6 0.0006 0.0092 0.0067 -1.7655 0.0010 32.3476
#
#
#
# Elastic Compliance Matrix: (Units=1/GPa)
#
#
# Indices 1 2 3 4 5 6 
#
# 1 0.014345 -0.005375 -0.006098 0.000005 0.005665 0.000003
# 2 -0.005375 0.018709 -0.005030 -0.000009 -0.001493 -0.000005
# 3 -0.006098 -0.005030 0.026397 -0.000011 0.005843 -0.000005
# 4 0.000005 -0.000009 -0.000011 0.037946 -0.000010 0.002071
# 5 0.005665 -0.001493 0.005843 -0.000010 0.053994 -0.000003
# 6 0.000003 -0.000005 -0.000005 0.002071 -0.000003 0.031027
#
#
# Mechanical properties :
#
#
# Convention : Reuss Voigt Hill
#
# Bulk Modulus (GPa) = 37.81402 46.30652 42.06027
# Shear Modulus (GPa) = 22.29759 24.63033 23.46396
#
# Velocity S-wave (km/s) = 3.47480 3.65204 3.56452
# Velocity P-wave (km/s) = 6.04775 6.54662 6.30213
#
# Compressibility (1/GPa) = 0.02644522
#
# Stress axis : x y z
#
# Youngs Moduli (GPa) = 69.71286 53.45068 37.88250
#
# Poissons Ratio (x) = 0.28730 0.23100
# Poissons Ratio (y) = 0.37471 0.19055
# Poissons Ratio (z) = 0.42510 0.26886
#
# Static dielectric constant tensor:
#      x y z
#    x 1.645240 0.000000 0.004150 
#    y 0.000000 1.640220 0.000000 
#    z 0.004150 0.000000 1.650960 
# 
# From -- ./inp_files/61609.got.cif
#   From: 2010.05.17/outbox.cif.g08.bks.cpg/sg15_31_cif.got.tgz:61609.got - 2010.06.03 18:47:42.
