data_PCOD9287217
_publ_section_title
;
Structure prediction by ZEFSAII (Michael W. Deem and Ramdas Pophale) SiO2 
 PCOD9287217
Probable space group: C 2/C
;
_chemical_formula_sum "Si O2"
_cell_formula_units_Z 56
_cell_length_a 11.485832
_cell_length_b 24.816140
_cell_length_c 10.032536
_cell_angle_alpha 90.000000
_cell_angle_beta 112.254647
_cell_angle_gamma 90.000000
_cell_volume 2646.600769
_symmetry_space_group_name_H-M "C 2/C"
_symmetry_group_IT_number 15
_symmetry_cell_setting 'monoclinic'
loop_
_space_group_symop_operation_xyz
x,y,z
-x,y,1/2-z
-x,-y,-z
x,-y,1/2+z
1/2+x,1/2+y,z
1/2-x,1/2+y,1/2-z
1/2-x,1/2-y,-z
1/2+x,1/2-y,1/2+z
loop_
_atom_site_type_symbol
_atom_site_label
_atom_site_fract_x
_atom_site_fract_y
_atom_site_fract_z
Si Si1 0.849515 0.479900 0.348407
Si Si2 0.891491 0.667766 0.510740
Si Si3 0.519132 0.284445 0.902795
Si Si4 0.878776 0.811551 0.278157
Si Si5 0.641079 0.948114 0.426782
Si Si6 0.764574 0.697781 0.194981
Si Si7 0.662958 0.132063 0.527353
O O1 0.794391 0.471751 0.176894
O O2 0.807740 0.533498 0.407067
O O3 0.824513 0.431283 0.440436
O O4 0.998921 0.471986 0.381553
O O5 0.864751 0.616226 0.590170
O O6 0.785229 0.675760 0.352994
O O7 0.917489 0.725540 0.588822
O O8 0.020734 0.650982 0.492442
O O9 0.500000 0.310316 0.750000
O O10 0.375763 0.280571 0.893001
O O11 0.596693 0.313284 0.053062
O O12 0.856892 0.749000 0.229747
O O13 0.755242 0.841176 0.174909
O O14 0.000000 0.831886 0.250000
O O15 0.797957 0.653427 0.100126
#
# Coordination Sequence:
#
# PCOD9287217 Si02
#       7
#     8   8   8   8   8   8   8
#     4   9  20  33  57  81 113 152 183 241 295 353
#     4  10  22  34  58  83 120 158 193 239 297 348
#     4  11  24  37  55  82 119 165 200 237 287 345
#     4  11  21  37  57  80 116 158 198 245 281 352
#     4   9  19  36  52  83 119 145 190 236 295 356
#     4  11  21  36  55  84 120 158 201 240 286 350
#     4  11  20  35  59  85 114 155 201 238 297 349
#
# _framework density 21.159217000000002
#
# number of rings (size 3 to 8) (size 9 to 14) (size 15 to 20)
#    0.000    1.714    2.857    2.571    6.000    3.429 
#    0.000    0.000    0.000    0.000    0.000    5.000 
#    0.000    0.000    0.000    0.000    0.000    0.000 
#
# Total GULP energy -156302.885025 kJ/mol
# GULP energy per Si atom -5582.245894 kJ/mol
# Density = 2.111106 g / cm^3
# Si number density = 21.159217 Si / 1000 Ang^3
#
#
#
# Elastic Constant Matrix: (Units=GPa)
#
#
# Indices 1 2 3 4 5 6 
#
# 1 41.2314 8.1597 18.4168 0.0000 4.9207 0.0000
# 2 8.1597 37.6782 11.6582 0.0000 -5.0804 0.0000
# 3 18.4168 11.6582 131.9342 0.0000 -4.6555 0.0000
# 4 0.0000 0.0000 0.0000 16.5917 0.0000 -0.1231
# 5 4.9207 -5.0804 -4.6555 0.0000 32.0055 0.0000
# 6 0.0000 0.0000 0.0000 -0.1231 0.0000 9.4725
#
#
#
# Elastic Compliance Matrix: (Units=1/GPa)
#
#
# Indices 1 2 3 4 5 6 
#
# 1 0.027636 -0.005648 -0.003559 0.000000 -0.005663 0.000000
# 2 -0.005648 0.028960 -0.001586 0.000000 0.005235 0.000000
# 3 -0.003559 -0.001586 0.008269 0.000000 0.001498 0.000000
# 4 0.000000 0.000000 0.000000 0.060277 0.000000 0.000783
# 5 -0.005663 0.005235 0.001498 0.000000 0.033164 0.000000
# 6 0.000000 0.000000 0.000000 0.000783 0.000000 0.105578
#
#
# Mechanical properties :
#
#
# Convention : Reuss Voigt Hill
#
# Bulk Modulus (GPa) = 23.10446 31.92367 27.51407
# Shear Modulus (GPa) = 16.67240 23.12121 19.89681
#
# Velocity S-wave (km/s) = 2.81009 3.30923 3.06982
# Velocity P-wave (km/s) = 4.63377 5.45173 5.05931
#
# Compressibility (1/GPa) = 0.04328168
#
# Stress axis : x y z
#
# Youngs Moduli (GPa) = 36.18420 34.53023 120.92937
#
# Poissons Ratio (x) = 0.19501 0.43034
# Poissons Ratio (y) = 0.20435 0.19179
# Poissons Ratio (z) = 0.12876 0.05476
#
# Static dielectric constant tensor:
#      x y z
#    x 1.762170 0.000000 -0.029100 
#    y 0.000000 1.779780 0.000000 
#    z -0.029100 0.000000 1.895790 
# 
# From -- ./inp_files/35322.got.cif
#   From: 2010.05.17/outbox.cif.g08.bks.cpg/sg15_18_cif.got.tgz:35322.got - 2010.06.03 18:47:42.
