data_PCOD9287276
_publ_section_title
;
Structure prediction by ZEFSAII (Michael W. Deem and Ramdas Pophale) SiO2 
 PCOD9287276
Probable space group: C 2/C
;
_chemical_formula_sum "Si O2"
_cell_formula_units_Z 64
_cell_length_a 32.541350
_cell_length_b 14.418459
_cell_length_c 23.177516
_cell_angle_alpha 90.000000
_cell_angle_beta 163.105951
_cell_angle_gamma 90.000000
_cell_volume 3160.247644
_symmetry_space_group_name_H-M "C 2/C"
_symmetry_group_IT_number 15
_symmetry_cell_setting 'monoclinic'
loop_
_space_group_symop_operation_xyz
x,y,z
-x,y,1/2-z
-x,-y,-z
x,-y,1/2+z
1/2+x,1/2+y,z
1/2-x,1/2+y,1/2-z
1/2-x,1/2-y,-z
1/2+x,1/2-y,1/2+z
loop_
_atom_site_type_symbol
_atom_site_label
_atom_site_fract_x
_atom_site_fract_y
_atom_site_fract_z
Si Si1 0.528746 0.402356 0.569790
Si Si2 0.452820 0.510162 0.799866
Si Si3 0.043610 0.621973 0.092316
Si Si4 0.969114 0.698189 0.774224
Si Si5 0.144545 0.733403 0.120914
Si Si6 0.736246 0.041790 0.821014
Si Si7 0.791619 0.882370 0.511387
Si Si8 0.960449 0.802496 0.031836
O O1 0.500000 0.500000 0.500000
O O2 0.607810 0.439172 0.732801
O O3 0.404415 0.337047 0.427793
O O4 0.584096 0.340034 0.591842
O O5 0.368849 0.478471 0.631040
O O6 0.619593 0.489165 0.015258
O O7 0.452521 0.616042 0.820211
O O8 0.061934 0.663420 0.052417
O O9 0.161008 0.542967 0.253909
O O10 0.887102 0.578318 0.886454
O O11 0.050006 0.709489 0.143011
O O12 0.893287 0.798180 0.665950
O O13 0.855523 0.632272 0.653341
O O14 0.000000 0.667635 0.750000
O O15 0.096684 0.711631 0.991183
O O16 0.309123 0.719742 0.355761
O O17 0.770370 0.119239 0.914356
#
# Coordination Sequence:
#
# PCOD9287276 Si02
#       8
#     8   8   8   8   8   8   8   8
#     4   9  20  34  53  84 115 151 191 244 291 348
#     4  11  20  37  57  86 116 156 201 238 299 360
#     4  10  22  37  60  85 118 152 200 253 290 349
#     4  11  24  36  59  90 122 160 193 242 309 366
#     4  11  19  38  58  86 121 155 196 242 307 357
#     4  11  21  39  59  87 118 156 200 244 298 354
#     4  11  24  38  59  87 121 156 199 241 298 368
#     4  10  22  35  59  85 117 155 197 249 296 349
#
# _framework density 20.251577999999999
#
# number of rings (size 3 to 8) (size 9 to 14) (size 15 to 20)
#    0.000    1.500    3.750    1.875    3.500    0.000 
#    0.000    0.625    2.750    0.000    0.000    0.000 
#    0.000    0.000    0.000    0.000    0.000    0.000 
#
# Total GULP energy -178404.238393 kJ/mol
# GULP energy per Si atom -5575.132450 kJ/mol
# Density = 2.020548 g / cm^3
# Si number density = 20.251578 Si / 1000 Ang^3
#
#
#
# Elastic Constant Matrix: (Units=GPa)
#
#
# Indices 1 2 3 4 5 6 
#
# 1 39.3953 -0.4159 -1.6004 0.0001 8.1342 0.0001
# 2 -0.4159 87.0532 19.5723 0.0000 11.1333 0.0000
# 3 -1.6004 19.5723 44.1381 0.0002 -1.5842 0.0001
# 4 0.0001 0.0000 0.0002 17.4289 0.0001 -2.5370
# 5 8.1342 11.1333 -1.5842 0.0001 17.4333 0.0001
# 6 0.0001 0.0000 0.0001 -2.5370 0.0001 34.7094
#
#
#
# Elastic Compliance Matrix: (Units=1/GPa)
#
#
# Indices 1 2 3 4 5 6 
#
# 1 0.028411 0.002104 -0.000428 0.000000 -0.014639 0.000000
# 2 0.002104 0.014378 -0.006686 0.000000 -0.010772 0.000000
# 3 -0.000428 -0.006686 0.025850 0.000000 0.006819 0.000000
# 4 0.000000 0.000000 0.000000 0.057993 0.000000 0.004239
# 5 -0.014639 -0.010772 0.006819 0.000000 0.071690 0.000000
# 6 0.000000 0.000000 0.000000 0.004239 0.000000 0.029120
#
#
# Mechanical properties :
#
#
# Convention : Reuss Voigt Hill
#
# Bulk Modulus (GPa) = 17.05928 22.85541 19.95735
# Shear Modulus (GPa) = 19.45500 24.11636 21.78568
#
# Velocity S-wave (km/s) = 3.10282 3.45460 3.28342
# Velocity P-wave (km/s) = 4.61288 5.21752 4.92449
#
# Compressibility (1/GPa) = 0.05861911
#
# Stress axis : x y z
#
# Youngs Moduli (GPa) = 35.19746 69.55022 38.68451
#
# Poissons Ratio (x) = -0.14635 0.01657
# Poissons Ratio (y) = -0.07406 0.25865
# Poissons Ratio (z) = 0.01508 0.46501
#
# Static dielectric constant tensor:
#      x y z
#    x 1.781870 0.000000 0.007990 
#    y 0.000000 1.734910 0.000000 
#    z 0.007990 0.000000 1.700950 
# 
# From -- ./inp_files/259456.got.cif
#   From: 2010.05.17/outbox.cif.g08.bks.cpg/sg15_130_cif.got.tgz:259456.got - 2010.06.03 18:47:42.
