data_PCOD9287837
_publ_section_title
;
Structure prediction by ZEFSAII (Michael W. Deem and Ramdas Pophale) SiO2 
 PCOD9287837
Probable space group: C 2/C
;
_chemical_formula_sum "Si O2"
_cell_formula_units_Z 52
_cell_length_a 8.470584
_cell_length_b 15.974558
_cell_length_c 16.423367
_cell_angle_alpha 90.000000
_cell_angle_beta 82.379712
_cell_angle_gamma 90.000000
_cell_volume 2202.682786
_symmetry_space_group_name_H-M "C 2/C"
_symmetry_group_IT_number 15
_symmetry_cell_setting 'monoclinic'
loop_
_space_group_symop_operation_xyz
x,y,z
-x,y,1/2-z
-x,-y,-z
x,-y,1/2+z
1/2+x,1/2+y,z
1/2-x,1/2+y,1/2-z
1/2-x,1/2-y,-z
1/2+x,1/2-y,1/2+z
loop_
_atom_site_type_symbol
_atom_site_label
_atom_site_fract_x
_atom_site_fract_y
_atom_site_fract_z
Si Si1 0.659276 0.803087 0.280966
Si Si2 0.884434 0.888181 0.694116
Si Si3 0.500000 0.712120 0.750000
Si Si4 0.758694 0.860266 0.442997
Si Si5 0.548570 0.597061 0.011024
Si Si6 0.347940 0.960868 0.555265
Si Si7 0.083167 0.362729 0.628789
O O1 0.500000 0.838844 0.250000
O O2 0.654256 0.703187 0.265258
O O3 0.834883 0.835378 0.242456
O O4 0.666517 0.812569 0.378314
O O5 0.711400 0.915966 0.672647
O O6 0.000000 0.934123 0.750000
O O7 0.987761 0.878737 0.604948
O O8 0.545269 0.776160 0.674886
O O9 0.666771 0.849148 0.535079
O O10 0.944844 0.850183 0.454052
O O11 0.748227 0.956804 0.414123
O O12 0.739260 0.595535 0.003494
O O13 0.500000 0.500000 0.000000
O O14 0.418506 0.909658 0.624672
O O15 0.500000 0.000000 0.500000
#
# Coordination Sequence:
#
# PCOD9287837 Si02
#       7
#     8   8   4   8   8   8   8
#     4  10  22  41  61  83 125 159 200 247 296 356
#     4   9  19  34  57  83 112 153 192 235 291 349
#     4  10  22  38  58  86 118 150 206 250 286 350
#     4   9  19  40  59  83 117 158 193 240 302 358
#     4   9  18  33  58  82 110 147 190 237 286 347
#     4   9  18  34  58  85 115 143 191 247 290 351
#     4   9  19  34  59  88 112 145 197 243 294 349
#
# _framework density 23.607576000000002
#
# number of rings (size 3 to 8) (size 9 to 14) (size 15 to 20)
#    0.000    2.769    0.000    0.923    6.462    5.538 
#    6.923    0.769    6.769    0.000    0.000    0.000 
#    0.000    0.000    0.000    0.000    0.000    0.000 
#
# Total GULP energy -144824.607108 kJ/mol
# GULP energy per Si atom -5570.177196 kJ/mol
# Density = 2.355384 g / cm^3
# Si number density = 23.607576 Si / 1000 Ang^3
#
#
#
# Elastic Constant Matrix: (Units=GPa)
#
#
# Indices 1 2 3 4 5 6 
#
# 1 227.0117 19.4924 62.6671 0.0000 45.6788 0.0000
# 2 19.4924 25.8619 11.6147 0.0000 10.9070 0.0000
# 3 62.6671 11.6147 98.8775 0.0000 24.0872 0.0000
# 4 0.0000 0.0000 0.0000 -1.6663 0.0000 3.9989
# 5 45.6788 10.9070 24.0872 0.0000 42.9810 0.0000
# 6 0.0000 0.0000 0.0000 3.9989 0.0000 16.1784
#
#
#
# Elastic Compliance Matrix: (Units=1/GPa)
#
#
# Indices 1 2 3 4 5 6 
#
# 1 0.006210 -0.001505 -0.002599 0.000000 -0.004761 0.000000
# 2 -0.001505 0.044341 -0.002204 0.000000 -0.008417 0.000000
# 3 -0.002599 -0.002204 0.012983 0.000000 -0.003954 0.000000
# 4 0.000000 0.000000 0.000000 -0.376691 0.000000 0.093109
# 5 -0.004761 -0.008417 -0.003954 0.000000 0.032678 0.000000
# 6 0.000000 0.000000 0.000000 0.093109 0.000000 0.038796
#
#
# Mechanical properties :
#
#
# Convention : Reuss Voigt Hill
#
# Bulk Modulus (GPa) = 19.63968 59.92214 39.78091
# Shear Modulus (GPa) = -23.57445 28.69710 2.56132
#
# Velocity S-wave (km/s) = -3.16349 3.49031 1.04274
# Velocity P-wave (km/s) = 2.23746 6.45606 4.28220
#
# Compressibility (1/GPa) = 0.05091731
#
# Stress axis : x y z
#
# Youngs Moduli (GPa) = 161.03616 22.55240 77.02401
#
# Poissons Ratio (x) = 0.03395 0.20019
# Poissons Ratio (y) = 0.24239 0.16977
# Poissons Ratio (z) = 0.41854 0.04971
#
# Static dielectric constant tensor:
#      x y z
#    x 2.054270 0.000000 -0.002920 
#    y 0.000000 1.960580 0.000000 
#    z -0.002920 0.000000 1.940770 
# 
# From -- ./inp_files/190403.got.cif
#   From: 2010.05.17/outbox.cif.g08.bks.cpg/sg15_96_cif.got.tgz:190403.got - 2010.06.03 18:47:42.
