data_PCOD9287654
_publ_section_title
;
Structure prediction by ZEFSAII (Michael W. Deem and Ramdas Pophale) SiO2 
 PCOD9287654
Probable space group: C 2/C
;
_chemical_formula_sum "Si O2"
_cell_formula_units_Z 52
_cell_length_a 5.568057
_cell_length_b 13.073129
_cell_length_c 27.321902
_cell_angle_alpha 90.000000
_cell_angle_beta 87.892988
_cell_angle_gamma 90.000000
_cell_volume 1987.469274
_symmetry_space_group_name_H-M "C 2/C"
_symmetry_group_IT_number 15
_symmetry_cell_setting 'monoclinic'
loop_
_space_group_symop_operation_xyz
x,y,z
-x,y,1/2-z
-x,-y,-z
x,-y,1/2+z
1/2+x,1/2+y,z
1/2-x,1/2+y,1/2-z
1/2-x,1/2-y,-z
1/2+x,1/2-y,1/2+z
loop_
_atom_site_type_symbol
_atom_site_label
_atom_site_fract_x
_atom_site_fract_y
_atom_site_fract_z
Si Si1 0.247546 0.186796 0.221857
Si Si2 0.136867 0.290229 0.552184
Si Si3 0.800047 0.379475 0.327705
Si Si4 0.571945 0.489685 0.917122
Si Si5 0.814685 0.616002 0.606803
Si Si6 0.500000 0.492143 0.250000
Si Si7 0.147742 0.601069 0.514344
O O1 0.500000 0.187705 0.250000
O O2 0.273067 0.260403 0.175350
O O3 0.159832 0.070173 0.215684
O O4 0.000000 0.228962 0.250000
O O5 0.250000 0.250000 0.500000
O O6 0.299990 0.383537 0.571417
O O7 0.130189 0.205386 0.594070
O O8 0.879684 0.326978 0.532278
O O9 0.701731 0.456800 0.370003
O O10 0.686669 0.426405 0.279665
O O11 0.080618 0.377573 0.340076
O O12 0.296566 0.505561 0.904297
O O13 0.605586 0.561855 0.964985
O O14 0.015471 0.639735 0.564388
O O15 0.000000 0.500000 0.500000
#
# Coordination Sequence:
#
# PCOD9287654 Si02
#       7
#     8   8   8   8   8   4   8
#     4  10  25  47  75 106 137 184 243 291 364 449
#     4   9  19  37  61  92 134 181 235 286 342 432
#     4  11  24  46  68 102 141 177 235 302 357 441
#     4  10  22  38  62  94 134 182 224 295 355 414
#     4  10  22  37  61  93 132 176 224 289 350 411
#     4  10  26  46  74  98 136 192 232 296 374 442
#     4   8  17  36  55  83 126 169 229 274 330 410
#
# _framework density 26.163927999999999
#
# number of rings (size 3 to 8) (size 9 to 14) (size 15 to 20)
#    0.462    1.846    0.769    0.000    4.308    8.000 
#    0.000   10.769    0.000    0.000    0.000    0.000 
#    0.000    0.000    0.000    0.000    0.000    0.000 
#
# Total GULP energy -144945.867522 kJ/mol
# GULP energy per Si atom -5574.841059 kJ/mol
# Density = 2.610438 g / cm^3
# Si number density = 26.163928 Si / 1000 Ang^3
#
#
#
# Elastic Constant Matrix: (Units=GPa)
#
#
# Indices 1 2 3 4 5 6 
#
# 1 68.3333 24.7602 49.2109 0.0000 23.2649 0.0000
# 2 24.7602 111.0032 64.5873 0.0000 28.8624 0.0000
# 3 49.2109 64.5873 143.1851 0.0000 47.6959 0.0000
# 4 0.0000 0.0000 0.0000 24.9719 0.0000 11.9772
# 5 23.2649 28.8624 47.6959 0.0000 64.5504 0.0000
# 6 0.0000 0.0000 0.0000 11.9772 0.0000 26.8188
#
#
#
# Elastic Compliance Matrix: (Units=1/GPa)
#
#
# Indices 1 2 3 4 5 6 
#
# 1 0.019833 -0.000374 -0.005733 0.000000 -0.002744 0.000000
# 2 -0.000374 0.012389 -0.004854 0.000000 -0.001818 0.000000
# 3 -0.005733 -0.004854 0.012910 0.000000 -0.005303 0.000000
# 4 0.000000 0.000000 0.000000 0.050961 0.000000 -0.022759
# 5 -0.002744 -0.001818 -0.005303 0.000000 0.021212 0.000000
# 6 0.000000 0.000000 0.000000 -0.022759 0.000000 0.047451
#
#
# Mechanical properties :
#
#
# Convention : Reuss Voigt Hill
#
# Bulk Modulus (GPa) = 43.08709 66.62649 54.85679
# Shear Modulus (GPa) = 25.71787 35.53245 30.62516
#
# Velocity S-wave (km/s) = 3.13861 3.68920 3.42498
# Velocity P-wave (km/s) = 5.44411 6.60812 6.05415
#
# Compressibility (1/GPa) = 0.02320881
#
# Stress axis : x y z
#
# Youngs Moduli (GPa) = 50.42085 80.71389 77.45690
#
# Poissons Ratio (x) = 0.03022 0.44408
# Poissons Ratio (y) = 0.01888 0.37600
# Poissons Ratio (z) = 0.28908 0.39181
#
# Static dielectric constant tensor:
#      x y z
#    x 2.345210 0.000000 -0.016430 
#    y 0.000000 2.139480 0.000000 
#    z -0.016430 0.000000 2.031530 
# 
# From -- ./inp_files/305461.got.cif
#   From: 2010.05.17/outbox.cif.g08.bks.cpg/sg15_153_cif.got.tgz:305461.got - 2010.06.03 18:47:42.
