data_PCOD9287411
_publ_section_title
;
Structure prediction by ZEFSAII (Michael W. Deem and Ramdas Pophale) SiO2 
 PCOD9287411
Probable space group: C 2/C
;
_chemical_formula_sum "Si O2"
_cell_formula_units_Z 44
_cell_length_a 11.008166
_cell_length_b 21.683182
_cell_length_c 14.693898
_cell_angle_alpha 90.000000
_cell_angle_beta 41.595469
_cell_angle_gamma 90.000000
_cell_volume 2328.392198
_symmetry_space_group_name_H-M "C 2/C"
_symmetry_group_IT_number 15
_symmetry_cell_setting 'monoclinic'
loop_
_space_group_symop_operation_xyz
x,y,z
-x,y,1/2-z
-x,-y,-z
x,-y,1/2+z
1/2+x,1/2+y,z
1/2-x,1/2+y,1/2-z
1/2-x,1/2-y,-z
1/2+x,1/2-y,1/2+z
loop_
_atom_site_type_symbol
_atom_site_label
_atom_site_fract_x
_atom_site_fract_y
_atom_site_fract_z
Si Si1 0.000000 0.518109 0.250000
Si Si2 0.442487 0.084047 0.100323
Si Si3 0.576625 0.680115 0.054746
Si Si4 0.650920 0.447233 0.417674
Si Si5 0.220795 0.703712 0.373717
Si Si6 0.199876 0.973654 0.183307
O O1 0.929153 0.562776 0.211397
O O2 0.830472 0.473294 0.368505
O O3 0.418729 0.154897 0.090023
O O4 0.280304 0.043364 0.145228
O O5 0.642294 0.061609 0.959047
O O6 0.389872 0.702474 0.208138
O O7 0.714654 0.678986 0.063315
O O8 0.574722 0.613552 0.008614
O O9 0.643142 0.729332 0.942252
O O10 0.500000 0.500000 0.500000
O O11 0.699368 0.442099 0.283597
O O12 0.000000 0.972600 0.250000
#
# Coordination Sequence:
#
# PCOD9287411 Si02
#       6
#     4   8   8   8   8   8
#     4  10  22  38  60  94 122 160 200 258 308 370
#     4  10  22  37  62  91 122 166 200 254 311 367
#     4  10  23  39  62  90 125 161 205 254 312 362
#     4  11  23  37  62  90 124 159 201 258 308 366
#     4  10  23  39  62  88 123 162 203 256 306 372
#     4  10  22  36  60  91 126 159 206 254 306 369
#
# _framework density 18.89716
#
# number of rings (size 3 to 8) (size 9 to 14) (size 15 to 20)
#    0.000    1.818    0.000    3.273   15.273    1.455 
#    0.000    0.000    2.000    3.273    0.000    0.000 
#    0.000    0.000    0.000    0.000    0.000    0.000 
#
# Total GULP energy -122745.819342 kJ/mol
# GULP energy per Si atom -5579.355425 kJ/mol
# Density = 1.885415 g / cm^3
# Si number density = 18.897160 Si / 1000 Ang^3
#
#
#
# Elastic Constant Matrix: (Units=GPa)
#
#
# Indices 1 2 3 4 5 6 
#
# 1 77.0498 45.5395 21.4916 -0.0001 -17.0683 0.0000
# 2 45.5395 149.6139 60.4607 0.0001 0.8412 -0.0001
# 3 21.4916 60.4607 78.4978 0.0001 -5.1897 -0.0001
# 4 -0.0001 0.0001 0.0001 27.6591 0.0001 7.3205
# 5 -17.0683 0.8412 -5.1897 0.0001 26.3083 0.0000
# 6 0.0000 -0.0001 -0.0001 7.3205 0.0000 26.3311
#
#
#
# Elastic Compliance Matrix: (Units=1/GPa)
#
#
# Indices 1 2 3 4 5 6 
#
# 1 0.019315 -0.006033 0.000202 0.000000 0.012764 0.000000
# 2 -0.006033 0.011674 -0.007724 0.000000 -0.005811 0.000000
# 3 0.000202 -0.007724 0.018905 0.000000 0.004107 0.000000
# 4 0.000000 0.000000 0.000000 0.039026 0.000000 -0.010850
# 5 0.012764 -0.005811 0.004107 0.000000 0.047288 0.000000
# 6 0.000000 0.000000 0.000000 -0.010850 0.000000 0.040994
#
#
# Mechanical properties :
#
#
# Convention : Reuss Voigt Hill
#
# Bulk Modulus (GPa) = 43.88904 62.23834 53.06369
# Shear Modulus (GPa) = 23.59522 27.90435 25.74979
#
# Velocity S-wave (km/s) = 3.53740 3.84688 3.69538
# Velocity P-wave (km/s) = 6.32139 7.26210 6.80801
#
# Compressibility (1/GPa) = 0.02278473
#
# Stress axis : x y z
#
# Youngs Moduli (GPa) = 51.77232 85.65890 52.89660
#
# Poissons Ratio (x) = 0.51675 -0.01069
# Poissons Ratio (y) = 0.31232 0.40859
# Poissons Ratio (z) = -0.01046 0.66165
#
# Static dielectric constant tensor:
#      x y z
#    x 1.667860 0.000000 0.023630 
#    y 0.000000 1.632740 0.000000 
#    z 0.023630 0.000000 1.771320 
# 
# From -- ./inp_files/147017.got.cif
#   From: 2010.05.17/outbox.cif.g08.bks.cpg/sg15_74_cif.got.tgz:147017.got - 2010.06.03 18:47:42.
