data_PCOD9287986
_publ_section_title
;
Structure prediction by ZEFSAII (Michael W. Deem and Ramdas Pophale) SiO2 
 PCOD9287986
Probable space group: C 2/C
;
_chemical_formula_sum "Si O2"
_cell_formula_units_Z 44
_cell_length_a 11.828897
_cell_length_b 12.461038
_cell_length_c 13.474351
_cell_angle_alpha 90.000000
_cell_angle_beta 106.363948
_cell_angle_gamma 90.000000
_cell_volume 1905.668837
_symmetry_space_group_name_H-M "C 2/C"
_symmetry_group_IT_number 15
_symmetry_cell_setting 'monoclinic'
loop_
_space_group_symop_operation_xyz
x,y,z
-x,y,1/2-z
-x,-y,-z
x,-y,1/2+z
1/2+x,1/2+y,z
1/2-x,1/2+y,1/2-z
1/2-x,1/2-y,-z
1/2+x,1/2-y,1/2+z
loop_
_atom_site_type_symbol
_atom_site_label
_atom_site_fract_x
_atom_site_fract_y
_atom_site_fract_z
Si Si1 0.500000 0.960344 0.250000
Si Si2 0.825845 0.857428 0.521371
Si Si3 0.570250 0.900351 0.060883
Si Si4 0.746968 0.532194 0.142398
Si Si5 0.425511 0.325522 0.022347
Si Si6 0.164987 0.968542 0.327782
O O1 0.514420 0.884855 0.156679
O O2 0.382272 0.034590 0.213275
O O3 0.750000 0.750000 0.500000
O O4 0.950533 0.854164 0.497226
O O5 0.750955 0.945003 0.443656
O O6 0.849186 0.911205 0.633140
O O7 0.571544 0.802782 0.983969
O O8 0.703901 0.929301 0.115909
O O9 0.500000 0.000000 0.000000
O O10 0.680576 0.632871 0.076054
O O11 0.665548 0.483767 0.210116
O O12 0.411450 0.385375 0.124852
#
# Coordination Sequence:
#
# PCOD9287986 Si02
#       6
#     4   8   8   8   8   8
#     4  10  22  40  64  88 124 174 212 260 322 396
#     4  11  23  41  63  89 124 168 213 260 322 389
#     4  11  22  41  64  91 128 167 213 261 317 388
#     4  10  22  40  63  95 129 165 216 266 322 391
#     4  11  23  40  66  94 126 168 211 269 326 378
#     4  10  22  38  61  93 125 163 209 267 319 374
#
# _framework density 23.089006999999999
#
# number of rings (size 3 to 8) (size 9 to 14) (size 15 to 20)
#    0.000    1.455    0.000    7.091    0.000    7.273 
#    0.000    3.636    0.000    4.364    0.000    0.000 
#    0.000    0.000    0.000    0.000    0.000    0.000 
#
# Total GULP energy -122855.223635 kJ/mol
# GULP energy per Si atom -5584.328347 kJ/mol
# Density = 2.303645 g / cm^3
# Si number density = 23.089007 Si / 1000 Ang^3
#
#
#
# Elastic Constant Matrix: (Units=GPa)
#
#
# Indices 1 2 3 4 5 6 
#
# 1 138.9686 13.9824 15.4940 0.0000 -2.3423 0.0000
# 2 13.9824 116.4517 18.2721 0.0000 -3.4335 0.0000
# 3 15.4940 18.2721 91.6972 0.0000 -28.8939 0.0000
# 4 0.0000 0.0000 0.0000 8.7473 0.0000 -1.6496
# 5 -2.3423 -3.4335 -28.8939 0.0000 51.6321 0.0000
# 6 0.0000 0.0000 0.0000 -1.6496 0.0000 37.5191
#
#
#
# Elastic Compliance Matrix: (Units=1/GPa)
#
#
# Indices 1 2 3 4 5 6 
#
# 1 0.007398 -0.000706 -0.001236 0.000000 -0.000403 0.000000
# 2 -0.000706 0.008942 -0.001803 0.000000 -0.000446 0.000000
# 3 -0.001236 -0.001803 0.013863 0.000000 0.007582 0.000000
# 4 0.000000 0.000000 0.000000 0.115277 0.000000 0.005068
# 5 -0.000403 -0.000446 0.007582 0.000000 0.023563 0.000000
# 6 0.000000 0.000000 0.000000 0.005068 0.000000 0.026876
#
#
# Mechanical properties :
#
#
# Convention : Reuss Voigt Hill
#
# Bulk Modulus (GPa) = 44.03144 49.17940 46.60542
# Shear Modulus (GPa) = 23.69891 39.53761 31.61826
#
# Velocity S-wave (km/s) = 3.20725 4.14260 3.70457
# Velocity P-wave (km/s) = 5.72948 6.65039 6.20704
#
# Compressibility (1/GPa) = 0.02271104
#
# Stress axis : x y z
#
# Youngs Moduli (GPa) = 135.17212 111.83428 72.13609
#
# Poissons Ratio (x) = 0.07897 0.08919
# Poissons Ratio (y) = 0.09545 0.13007
# Poissons Ratio (z) = 0.16712 0.20166
#
# Static dielectric constant tensor:
#      x y z
#    x 1.928850 0.000000 -0.016570 
#    y 0.000000 1.910270 0.000000 
#    z -0.016570 0.000000 1.913690 
# 
# From -- ./inp_files/142242.got.cif
#   From: 2010.05.17/outbox.cif.g08.bks.cpg/sg15_72_cif.got.tgz:142242.got - 2010.06.03 18:47:42.
