data_PCOD9287800
_publ_section_title
;
Structure prediction by ZEFSAII (Michael W. Deem and Ramdas Pophale) SiO2 
 PCOD9287800
Probable space group: C 2/C
;
_chemical_formula_sum "Si O2"
_cell_formula_units_Z 48
_cell_length_a 11.873122
_cell_length_b 20.850976
_cell_length_c 7.847109
_cell_angle_alpha 90.000000
_cell_angle_beta 84.649533
_cell_angle_gamma 90.000000
_cell_volume 1934.214466
_symmetry_space_group_name_H-M "C 2/C"
_symmetry_group_IT_number 15
_symmetry_cell_setting 'monoclinic'
loop_
_space_group_symop_operation_xyz
x,y,z
-x,y,1/2-z
-x,-y,-z
x,-y,1/2+z
1/2+x,1/2+y,z
1/2-x,1/2+y,1/2-z
1/2-x,1/2-y,-z
1/2+x,1/2-y,1/2+z
loop_
_atom_site_type_symbol
_atom_site_label
_atom_site_fract_x
_atom_site_fract_y
_atom_site_fract_z
Si Si1 0.861605 0.679786 0.923901
Si Si2 0.444551 0.722102 0.003820
Si Si3 0.782507 0.723483 0.251409
Si Si4 0.106072 0.090266 0.498368
Si Si5 0.274704 0.924777 0.252583
Si Si6 0.826007 0.961677 0.873833
O O1 0.822686 0.666845 0.122680
O O2 0.753245 0.714908 0.854988
O O3 0.877363 0.618166 0.804581
O O4 0.962181 0.731067 0.931391
O O5 0.334792 0.711053 0.138131
O O6 0.481495 0.648626 0.967130
O O7 0.386607 0.757000 0.853368
O O8 0.215589 0.110240 0.599008
O O9 0.128545 0.076758 0.295434
O O10 0.089926 0.021375 0.591743
O O11 0.201929 0.931309 0.438861
O O12 0.282557 0.997510 0.182261
#
# Coordination Sequence:
#
# PCOD9287800 Si02
#       6
#     8   8   8   8   8   8
#     4  11  21  36  60  92 129 173 214 266 340 402
#     4  11  21  36  60  92 129 173 214 266 340 402
#     4  10  22  38  56  86 128 168 216 268 322 394
#     4   9  16  32  56  92 128 167 212 275 329 392
#     4   9  16  32  56  92 128 167 212 275 329 392
#     4   8  16  30  60  92 124 176 214 266 352 378
#
# _framework density 24.816275999999998
#
# number of rings (size 3 to 8) (size 9 to 14) (size 15 to 20)
#    1.000    1.333    1.667    2.000    0.000    0.000 
#    0.000    0.000    0.000    0.000    0.000  158.667 
#    0.000    0.000    0.000    0.000    0.000    0.000 
#
# Total GULP energy -133677.755437 kJ/mol
# GULP energy per Si atom -5569.906477 kJ/mol
# Density = 2.475979 g / cm^3
# Si number density = 24.816276 Si / 1000 Ang^3
#
#
#
# Elastic Constant Matrix: (Units=GPa)
#
#
# Indices 1 2 3 4 5 6 
#
# 1 117.9430 47.0262 43.8320 0.0000 15.2082 0.0000
# 2 47.0262 94.9503 26.0601 0.0000 18.2768 0.0000
# 3 43.8320 26.0601 148.9853 0.0000 15.9104 0.0000
# 4 0.0000 0.0000 0.0000 43.8146 0.0000 20.8581
# 5 15.2082 18.2768 15.9104 0.0000 35.4731 0.0000
# 6 0.0000 0.0000 0.0000 20.8581 0.0000 33.6947
#
#
#
# Elastic Compliance Matrix: (Units=1/GPa)
#
#
# Indices 1 2 3 4 5 6 
#
# 1 0.011435 -0.004741 -0.002387 0.000000 -0.001389 0.000000
# 2 -0.004741 0.013973 -0.000523 0.000000 -0.004932 0.000000
# 3 -0.002387 -0.000523 0.007738 0.000000 -0.002178 0.000000
# 4 0.000000 0.000000 0.000000 0.032360 0.000000 -0.020032
# 5 -0.001389 -0.004932 -0.002178 0.000000 0.032304 0.000000
# 6 0.000000 0.000000 0.000000 -0.020032 0.000000 0.042078
#
#
# Mechanical properties :
#
#
# Convention : Reuss Voigt Hill
#
# Bulk Modulus (GPa) = 56.03555 66.19055 61.11305
# Shear Modulus (GPa) = 31.02944 38.92717 34.97830
#
# Velocity S-wave (km/s) = 3.53989 3.96487 3.75839
# Velocity P-wave (km/s) = 6.27192 6.90582 6.59649
#
# Compressibility (1/GPa) = 0.01784581
#
# Stress axis : x y z
#
# Youngs Moduli (GPa) = 87.44997 71.56797 129.22827
#
# Poissons Ratio (x) = 0.33931 0.30841
# Poissons Ratio (y) = 0.41460 0.06752
# Poissons Ratio (z) = 0.20871 0.03740
#
# Static dielectric constant tensor:
#      x y z
#    x 2.010090 0.000000 -0.047550 
#    y 0.000000 2.086580 0.000000 
#    z -0.047550 0.000000 2.047310 
# 
# From -- ./inp_files/32018.got.cif
#   From: 2010.05.17/outbox.cif.g08.bks.cpg/sg15_17_cif.got.tgz:32018.got - 2010.06.03 18:47:42.
