data_PCOD9287922
_publ_section_title
;
Structure prediction by ZEFSAII (Michael W. Deem and Ramdas Pophale) SiO2 
 PCOD9287922
Probable space group: C 2/C
;
_chemical_formula_sum "Si O2"
_cell_formula_units_Z 56
_cell_length_a 21.434921
_cell_length_b 22.948233
_cell_length_c 7.221027
_cell_angle_alpha 90.000000
_cell_angle_beta 132.358165
_cell_angle_gamma 90.000000
_cell_volume 2624.724263
_symmetry_space_group_name_H-M "C 2/C"
_symmetry_group_IT_number 15
_symmetry_cell_setting 'monoclinic'
loop_
_space_group_symop_operation_xyz
x,y,z
-x,y,1/2-z
-x,-y,-z
x,-y,1/2+z
1/2+x,1/2+y,z
1/2-x,1/2+y,1/2-z
1/2-x,1/2-y,-z
1/2+x,1/2-y,1/2+z
loop_
_atom_site_type_symbol
_atom_site_label
_atom_site_fract_x
_atom_site_fract_y
_atom_site_fract_z
Si Si1 0.936439 0.304463 0.471882
Si Si2 0.000000 0.878245 0.250000
Si Si3 0.652534 0.959131 0.499572
Si Si4 0.155974 0.415187 0.085028
Si Si5 0.936439 0.804463 0.773874
Si Si6 0.500000 0.121755 0.750000
Si Si7 0.347466 0.540869 0.389435
Si Si8 0.844026 0.084813 0.961133
O O1 0.887862 0.353043 0.494376
O O2 0.979872 0.340283 0.391562
O O3 0.889900 0.250000 0.279799
O O4 0.000000 0.278285 0.750000
O O5 0.020128 0.840283 0.472076
O O6 0.082333 0.918554 0.375998
O O7 0.659225 0.934145 0.306708
O O8 0.582333 0.918554 0.453332
O O9 0.750000 0.959591 0.769721
O O10 0.620377 0.025873 0.423489
O O11 0.250000 0.407591 0.198060
O O12 0.112138 0.853043 0.942928
O O13 0.000000 0.778285 0.750000
O O14 0.340775 0.565855 0.169807
O O15 0.379623 0.474127 0.441983
#
# Coordination Sequence:
#
# PCOD9287922 Si02
#       8
#     8   4   8   8   8   4   8   8
#     4  11  23  39  59  81 112 154 199 238 280 338
#     4  10  22  38  60  86 116 152 190 240 292 340
#     4   9  19  35  56  86 120 146 183 236 291 347
#     4   9  20  36  57  85 116 149 184 236 292 344
#     4  11  23  39  59  81 112 154 199 238 280 338
#     4  10  22  38  60  86 116 152 190 240 292 340
#     4   9  19  35  56  86 120 146 183 236 291 347
#     4   9  20  36  57  85 116 149 184 236 292 344
#
# _framework density 21.335576
#
# number of rings (size 3 to 8) (size 9 to 14) (size 15 to 20)
#    0.000    2.286    1.429    0.000    6.000    2.857 
#    0.000    0.000    0.000    1.714    0.000    0.000 
#    0.000    0.000    0.000    0.000    0.000    0.000 
#
# Total GULP energy -155961.364280 kJ/mol
# GULP energy per Si atom -5570.048724 kJ/mol
# Density = 2.128702 g / cm^3
# Si number density = 21.335576 Si / 1000 Ang^3
#
#
#
# Elastic Constant Matrix: (Units=GPa)
#
#
# Indices 1 2 3 4 5 6 
#
# 1 38.7070 23.5134 14.4242 0.0000 1.5037 0.0000
# 2 23.5134 138.2031 25.9069 0.0000 15.8349 0.0000
# 3 14.4242 25.9069 39.2602 0.0000 2.1576 0.0000
# 4 0.0000 0.0000 0.0000 33.9340 0.0000 -7.0212
# 5 1.5037 15.8349 2.1576 0.0000 16.5816 0.0000
# 6 0.0000 0.0000 0.0000 -7.0212 0.0000 34.9955
#
#
#
# Elastic Compliance Matrix: (Units=1/GPa)
#
#
# Indices 1 2 3 4 5 6 
#
# 1 0.031517 -0.003885 -0.009128 0.000000 0.002040 0.000000
# 2 -0.003885 0.009696 -0.004514 0.000000 -0.008320 0.000000
# 3 -0.009128 -0.004514 0.031748 0.000000 0.001007 0.000000
# 4 0.000000 0.000000 0.000000 0.030745 0.000000 0.006169
# 5 0.002040 -0.008320 0.001007 0.000000 0.067937 0.000000
# 6 0.000000 0.000000 0.000000 0.006169 0.000000 0.029813
#
#
# Mechanical properties :
#
#
# Convention : Reuss Voigt Hill
#
# Bulk Modulus (GPa) = 26.37957 38.20661 32.29309
# Shear Modulus (GPa) = 20.06858 27.25727 23.66293
#
# Velocity S-wave (km/s) = 3.07027 3.57816 3.33390
# Velocity P-wave (km/s) = 4.99597 5.91754 5.47618
#
# Compressibility (1/GPa) = 0.03790813
#
# Stress axis : x y z
#
# Youngs Moduli (GPa) = 31.72847 103.13469 31.49820
#
# Poissons Ratio (x) = 0.40066 0.28752
# Poissons Ratio (y) = 0.12326 0.14217
# Poissons Ratio (z) = 0.28962 0.46552
#
# Static dielectric constant tensor:
#      x y z
#    x 1.813960 0.000000 0.004220 
#    y 0.000000 1.806570 0.000000 
#    z 0.004220 0.000000 1.814600 
# 
# From -- ./inp_files/57945.got.cif
#   From: 2010.05.17/outbox.cif.g08.bks.cpg/sg15_29_cif.got.tgz:57945.got - 2010.06.03 18:47:42.
