data_PCOD9287326
_publ_section_title
;
Structure prediction by ZEFSAII (Michael W. Deem and Ramdas Pophale) SiO2 
 PCOD9287326
Probable space group: C 2/C
;
_chemical_formula_sum "Si O2"
_cell_formula_units_Z 60
_cell_length_a 27.917413
_cell_length_b 19.590433
_cell_length_c 14.372165
_cell_angle_alpha 90.000000
_cell_angle_beta 157.367390
_cell_angle_gamma 90.000000
_cell_volume 3024.822079
_symmetry_space_group_name_H-M "C 2/C"
_symmetry_group_IT_number 15
_symmetry_cell_setting 'monoclinic'
loop_
_space_group_symop_operation_xyz
x,y,z
-x,y,1/2-z
-x,-y,-z
x,-y,1/2+z
1/2+x,1/2+y,z
1/2-x,1/2+y,1/2-z
1/2-x,1/2-y,-z
1/2+x,1/2-y,1/2+z
loop_
_atom_site_type_symbol
_atom_site_label
_atom_site_fract_x
_atom_site_fract_y
_atom_site_fract_z
Si Si1 0.472239 0.464341 0.546917
Si Si2 0.438492 0.172053 0.412380
Si Si3 0.000123 0.533325 0.601434
Si Si4 0.437952 0.674779 0.905998
Si Si5 0.151446 0.174424 0.960909
Si Si6 0.149211 0.671316 0.450823
Si Si7 0.000000 0.938723 0.250000
Si Si8 0.181441 0.527553 0.578035
O O1 0.500000 0.500000 0.500000
O O2 0.500125 0.385091 0.577334
O O3 0.544935 0.509203 0.751645
O O4 0.329016 0.472843 0.324403
O O5 0.506418 0.113841 0.592122
O O6 0.486057 0.249160 0.510456
O O7 0.430012 0.159735 0.285696
O O8 0.295197 0.169527 0.190248
O O9 0.876471 0.510410 0.436711
O O10 0.000000 0.500000 0.500000
O O11 0.113488 0.506674 0.867493
O O12 0.428647 0.662821 0.777990
O O13 0.292872 0.672925 0.675200
O O14 0.127835 0.252320 0.949711
O O15 0.112102 0.115814 0.961982
O O16 0.140194 0.607322 0.503013
#
# Coordination Sequence:
#
# PCOD9287326 Si02
#       8
#     8   8   8   8   8   8   4   8
#     4  11  22  38  57  80 112 142 182 232 271 322
#     4   9  16  32  56  76 105 144 182 214 270 328
#     4  11  21  34  55  82 115 148 173 223 273 330
#     4   8  16  33  54  75 104 144 177 223 272 313
#     4   9  17  30  51  82 106 136 179 229 273 311
#     4   8  15  31  54  78 108 134 176 233 271 314
#     4  12  22  30  52  84 106 142 180 222 278 320
#     4  10  22  36  54  84 112 144 183 218 278 326
#
# _framework density 19.835877
#
# number of rings (size 3 to 8) (size 9 to 14) (size 15 to 20)
#    0.000    2.400    2.667    2.400    0.000    2.133 
#    0.000    1.333    0.000    0.800    0.000    0.000 
#    0.000    0.000    0.000    0.000    0.000    0.000 
#
# Total GULP energy -167125.861171 kJ/mol
# GULP energy per Si atom -5570.862039 kJ/mol
# Density = 1.979073 g / cm^3
# Si number density = 19.835877 Si / 1000 Ang^3
#
#
#
# Elastic Constant Matrix: (Units=GPa)
#
#
# Indices 1 2 3 4 5 6 
#
# 1 74.2294 25.3140 -0.0633 0.0000 -5.0612 0.0000
# 2 25.3140 172.3916 10.0904 0.0000 -21.0531 0.0000
# 3 -0.0633 10.0904 21.3925 0.0000 2.6423 0.0000
# 4 0.0000 0.0000 0.0000 21.7936 0.0000 -0.6296
# 5 -5.0612 -21.0531 2.6423 0.0000 23.2469 0.0000
# 6 0.0000 0.0000 0.0000 -0.6296 0.0000 14.1814
#
#
#
# Elastic Compliance Matrix: (Units=1/GPa)
#
#
# Indices 1 2 3 4 5 6 
#
# 1 0.014234 -0.001992 0.000834 0.000000 0.001200 0.000000
# 2 -0.001992 0.007131 -0.004172 0.000000 0.006499 0.000000
# 3 0.000834 -0.004172 0.049860 0.000000 -0.009264 0.000000
# 4 0.000000 0.000000 0.000000 0.045944 0.000000 0.002040
# 5 0.001200 0.006499 -0.009264 0.000000 0.050216 0.000000
# 6 0.000000 0.000000 0.000000 0.002040 0.000000 0.070606
#
#
# Mechanical properties :
#
#
# Convention : Reuss Voigt Hill
#
# Bulk Modulus (GPa) = 16.51172 37.63287 27.07230
# Shear Modulus (GPa) = 18.59843 27.35587 22.97715
#
# Velocity S-wave (km/s) = 3.06537 3.71767 3.40717
# Velocity P-wave (km/s) = 4.56847 6.11894 5.39964
#
# Compressibility (1/GPa) = 0.06056304
#
# Stress axis : x y z
#
# Youngs Moduli (GPa) = 70.25572 140.22989 20.05617
#
# Poissons Ratio (x) = 0.27939 -0.01672
# Poissons Ratio (y) = 0.13997 0.08368
# Poissons Ratio (z) = -0.05857 0.58507
#
# Static dielectric constant tensor:
#      x y z
#    x 1.332400 0.000000 0.285880 
#    y 0.000000 1.750900 0.000000 
#    z 0.285880 0.000000 1.510660 
# 
# From -- ./inp_files/178710.got.cif
#   From: 2010.05.17/outbox.cif.g08.bks.cpg/sg15_90_cif.got.tgz:178710.got - 2010.06.03 18:47:42.
