data_PCOD9287994
_publ_section_title
;
Structure prediction by ZEFSAII (Michael W. Deem and Ramdas Pophale) SiO2 
 PCOD9287994
Probable space group: C 2/C
;
_chemical_formula_sum "Si O2"
_cell_formula_units_Z 48
_cell_length_a 25.770195
_cell_length_b 12.460508
_cell_length_c 13.865584
_cell_angle_alpha 90.000000
_cell_angle_beta 25.861973
_cell_angle_gamma 90.000000
_cell_volume 1942.146199
_symmetry_space_group_name_H-M "C 2/C"
_symmetry_group_IT_number 15
_symmetry_cell_setting 'monoclinic'
loop_
_space_group_symop_operation_xyz
x,y,z
-x,y,1/2-z
-x,-y,-z
x,-y,1/2+z
1/2+x,1/2+y,z
1/2-x,1/2+y,1/2-z
1/2-x,1/2-y,-z
1/2+x,1/2-y,1/2+z
loop_
_atom_site_type_symbol
_atom_site_label
_atom_site_fract_x
_atom_site_fract_y
_atom_site_fract_z
Si Si1 0.427870 0.520179 0.281340
Si Si2 0.253029 0.178678 0.591496
Si Si3 0.986867 0.376545 0.052820
Si Si4 0.630972 0.956637 0.079091
Si Si5 0.982898 0.148084 0.010993
Si Si6 0.249870 0.623655 0.196350
O O1 0.500000 0.571385 0.250000
O O2 0.506804 0.423420 0.102292
O O3 0.314786 0.463065 0.519914
O O4 0.406126 0.597635 0.226733
O O5 0.250000 0.250000 0.500000
O O6 0.117694 0.138720 0.829589
O O7 0.302162 0.257856 0.591874
O O8 0.332995 0.074619 0.447175
O O9 0.961419 0.273894 0.028901
O O10 0.116046 0.356677 0.882212
O O11 0.000000 0.500000 0.000000
O O12 0.886980 0.377436 0.302133
O O13 0.500000 0.963642 0.250000
O O14 0.727942 0.916621 0.840490
#
# Coordination Sequence:
#
# PCOD9287994 Si02
#       6
#     8   8   8   8   8   8
#     4  11  23  41  65  93 129 165 220 261 311 375
#     4  11  20  40  66  85 124 172 207 247 326 391
#     4  10  22  41  65  90 124 162 206 259 322 381
#     4  10  22  38  61  95 123 154 213 270 309 369
#     4  10  23  41  67  91 126 174 210 257 322 381
#     4  10  22  39  62  90 121 165 210 255 316 375
#
# _framework density 24.714928
#
# number of rings (size 3 to 8) (size 9 to 14) (size 15 to 20)
#    0.000    1.667    1.667    3.000    0.000    5.333 
#    3.000    0.833    0.000    0.000    0.000    0.000 
#    0.000    0.000    0.000    0.000    0.000    0.000 
#
# Total GULP energy -134146.683545 kJ/mol
# GULP energy per Si atom -5589.445148 kJ/mol
# Density = 2.465868 g / cm^3
# Si number density = 24.714928 Si / 1000 Ang^3
#
#
#
# Elastic Constant Matrix: (Units=GPa)
#
#
# Indices 1 2 3 4 5 6 
#
# 1 62.6640 13.6598 17.4463 0.0000 20.1676 0.0000
# 2 13.6598 108.7980 18.6886 0.0000 20.6503 0.0000
# 3 17.4463 18.6886 147.9812 0.0000 26.6477 0.0000
# 4 0.0000 0.0000 0.0000 33.9409 0.0000 4.3028
# 5 20.1676 20.6503 26.6477 0.0000 40.0235 0.0000
# 6 0.0000 0.0000 0.0000 4.3028 0.0000 32.1894
#
#
#
# Elastic Compliance Matrix: (Units=1/GPa)
#
#
# Indices 1 2 3 4 5 6 
#
# 1 0.019128 -0.000606 -0.000567 0.000000 -0.008948 0.000000
# 2 -0.000606 0.010228 -0.000369 0.000000 -0.004726 0.000000
# 3 -0.000567 -0.000369 0.007710 0.000000 -0.004657 0.000000
# 4 0.000000 0.000000 0.000000 0.029971 0.000000 -0.004006
# 5 -0.008948 -0.004726 -0.004657 0.000000 0.035033 0.000000
# 6 0.000000 0.000000 0.000000 -0.004006 0.000000 0.031602
#
#
# Mechanical properties :
#
#
# Convention : Reuss Voigt Hill
#
# Bulk Modulus (GPa) = 29.42805 46.55918 37.99362
# Shear Modulus (GPa) = 33.76494 39.20734 36.48614
#
# Velocity S-wave (km/s) = 3.70019 3.98726 3.84641
# Velocity P-wave (km/s) = 5.49437 6.33065 5.92727
#
# Compressibility (1/GPa) = 0.03398118
#
# Stress axis : x y z
#
# Youngs Moduli (GPa) = 52.27945 97.77237 129.70684
#
# Poissons Ratio (x) = 0.05922 0.07358
# Poissons Ratio (y) = 0.03167 0.04789
# Poissons Ratio (z) = 0.02966 0.03610
#
# Static dielectric constant tensor:
#      x y z
#    x 2.048980 0.000000 0.036920 
#    y 0.000000 2.019070 0.000000 
#    z 0.036920 0.000000 2.029710 
# 
# From -- ./inp_files/181698.got.cif
#   From: 2010.05.17/outbox.cif.g08.bks.cpg/sg15_91_cif.got.tgz:181698.got - 2010.06.03 18:47:42.
