data_PCOD9287151
_publ_section_title
;
Structure prediction by ZEFSAII (Michael W. Deem and Ramdas Pophale) SiO2 
 PCOD9287151
Probable space group: C 2/C
;
_chemical_formula_sum "Si O2"
_cell_formula_units_Z 60
_cell_length_a 20.213285
_cell_length_b 5.204165
_cell_length_c 21.220208
_cell_angle_alpha 90.000000
_cell_angle_beta 79.563010
_cell_angle_gamma 90.000000
_cell_volume 2195.290328
_symmetry_space_group_name_H-M "C 2/C"
_symmetry_group_IT_number 15
_symmetry_cell_setting 'monoclinic'
loop_
_space_group_symop_operation_xyz
x,y,z
-x,y,1/2-z
-x,-y,-z
x,-y,1/2+z
1/2+x,1/2+y,z
1/2-x,1/2+y,1/2-z
1/2-x,1/2-y,-z
1/2+x,1/2-y,1/2+z
loop_
_atom_site_type_symbol
_atom_site_label
_atom_site_fract_x
_atom_site_fract_y
_atom_site_fract_z
Si Si1 0.000000 0.245282 0.250000
Si Si2 0.832453 0.036829 0.203842
Si Si3 0.321152 0.146884 0.113736
Si Si4 0.788575 0.996374 0.519022
Si Si5 0.974992 0.987798 0.886065
Si Si6 0.596797 0.730739 0.433628
Si Si7 0.411221 0.003984 0.859669
Si Si8 0.294170 0.296350 0.325395
O O1 0.990325 0.073242 0.189130
O O2 0.941641 0.433494 0.285206
O O3 0.845543 0.748537 0.176171
O O4 0.840451 0.994959 0.277100
O O5 0.871722 0.204325 0.144605
O O6 0.754899 0.133877 0.211847
O O7 0.291257 0.410341 0.090982
O O8 0.382356 0.030038 0.062889
O O9 0.257740 0.963587 0.125990
O O10 0.750000 0.250000 0.500000
O O11 0.750000 0.750000 0.500000
O O12 0.867123 0.900058 0.511942
O O13 0.024809 0.888216 0.931763
O O14 0.914296 0.778238 0.893750
O O15 0.956243 0.286767 0.886575
O O16 0.340245 0.875921 0.860917
#
# Coordination Sequence:
#
# PCOD9287151 Si02
#       8
#     4   8   8   8   8   8   8   8
#     4   8  22  32  50  76 112 156 216 236 280 324
#     4  10  22  32  55  82 122 167 201 243 295 354
#     4  10  22  38  58  90 121 160 198 249 306 370
#     4  11  22  41  66  94 121 148 197 263 336 374
#     4  10  23  36  53  83 114 164 201 251 292 343
#     4  10  23  37  62  88 125 152 204 252 307 375
#     4  10  24  34  54  77 117 166 210 244 282 340
#     4  11  22  36  53  84 125 170 208 243 291 361
#
# _framework density 27.331237999999999
#
# number of rings (size 3 to 8) (size 9 to 14) (size 15 to 20)
#    0.800    1.067    2.667    0.400   11.200    0.000 
#    0.000    0.000    0.000    0.000    0.000    5.600 
#    0.000    0.000    0.000    0.000    0.000    0.000 
#
# Total GULP energy -167034.051289 kJ/mol
# GULP energy per Si atom -5567.801710 kJ/mol
# Density = 2.726903 g / cm^3
# Si number density = 27.331238 Si / 1000 Ang^3
#
#
#
# Elastic Constant Matrix: (Units=GPa)
#
#
# Indices 1 2 3 4 5 6 
#
# 1 39.4362 6.1907 15.1101 0.0000 18.6705 0.0000
# 2 6.1907 149.7789 30.0063 0.0000 1.8706 0.0000
# 3 15.1101 30.0063 82.0243 0.0000 13.5815 0.0000
# 4 0.0000 0.0000 0.0000 42.2335 0.0000 1.8417
# 5 18.6705 1.8706 13.5815 0.0000 43.4972 0.0000
# 6 0.0000 0.0000 0.0000 1.8417 0.0000 25.0320
#
#
#
# Elastic Compliance Matrix: (Units=1/GPa)
#
#
# Indices 1 2 3 4 5 6 
#
# 1 0.033015 -0.000447 -0.003770 0.000000 -0.012975 0.000000
# 2 -0.000447 0.007223 -0.002679 0.000000 0.000718 0.000000
# 3 -0.003770 -0.002679 0.014319 0.000000 -0.002738 0.000000
# 4 0.000000 0.000000 0.000000 0.023754 0.000000 -0.001748
# 5 -0.012975 0.000718 -0.002738 0.000000 0.029383 0.000000
# 6 0.000000 0.000000 0.000000 -0.001748 0.000000 0.040078
#
#
# Mechanical properties :
#
#
# Convention : Reuss Voigt Hill
#
# Bulk Modulus (GPa) = 24.53083 41.53929 33.03506
# Shear Modulus (GPa) = 28.54674 36.81470 32.68072
#
# Velocity S-wave (km/s) = 3.23534 3.67411 3.46168
# Velocity P-wave (km/s) = 4.79076 5.76457 5.30008
#
# Compressibility (1/GPa) = 0.04076503
#
# Stress axis : x y z
#
# Youngs Moduli (GPa) = 30.28943 138.45308 69.83636
#
# Poissons Ratio (x) = 0.06193 0.26327
# Poissons Ratio (y) = 0.01355 0.18707
# Poissons Ratio (z) = 0.11419 0.37087
#
# Static dielectric constant tensor:
#      x y z
#    x 2.366610 0.000000 -0.004490 
#    y 0.000000 2.337070 0.000000 
#    z -0.004490 0.000000 2.211940 
# 
# From -- ./inp_files/299968.got.cif
#   From: 2010.05.17/outbox.cif.g08.bks.cpg/sg15_150_cif.got.tgz:299968.got - 2010.06.03 18:47:42.
