data_PCOD9287390
_publ_section_title
;
Structure prediction by ZEFSAII (Michael W. Deem and Ramdas Pophale) SiO2 
 PCOD9287390
Probable space group: C 2/C
;
_chemical_formula_sum "Si O2"
_cell_formula_units_Z 32
_cell_length_a 11.436852
_cell_length_b 23.636016
_cell_length_c 11.059338
_cell_angle_alpha 90.000000
_cell_angle_beta 153.504938
_cell_angle_gamma 90.000000
_cell_volume 1333.712634
_symmetry_space_group_name_H-M "C 2/C"
_symmetry_group_IT_number 15
_symmetry_cell_setting 'monoclinic'
loop_
_space_group_symop_operation_xyz
x,y,z
-x,y,1/2-z
-x,-y,-z
x,-y,1/2+z
1/2+x,1/2+y,z
1/2-x,1/2+y,1/2-z
1/2-x,1/2-y,-z
1/2+x,1/2-y,1/2+z
loop_
_atom_site_type_symbol
_atom_site_label
_atom_site_fract_x
_atom_site_fract_y
_atom_site_fract_z
Si Si1 0.500000 0.866231 0.750000
Si Si2 0.000000 0.448141 0.250000
Si Si3 0.144695 0.787656 0.567120
Si Si4 0.346330 0.384997 0.734253
Si Si5 0.667118 0.037064 0.246060
O O1 0.259169 0.826449 0.564673
O O2 0.508475 0.910079 0.868880
O O3 0.070099 0.406689 0.424476
O O4 0.215475 0.494130 0.402768
O O5 0.145721 0.826262 0.688419
O O6 0.860756 0.761478 0.283139
O O7 0.500000 0.383953 0.750000
O O8 0.399717 0.432298 0.888047
O O9 0.500000 0.000000 0.000000
#
# Coordination Sequence:
#
# PCOD9287390 Si02
#       5
#     4   4   8   8   8
#     4   9  18  38  66  94 124 164 208 259 310 368
#     4   9  18  36  62  82 126 158 200 259 306 378
#     4  11  25  43  66  92 123 164 215 265 310 359
#     4  10  22  36  59  89 120 162 206 254 314 378
#     4   8  16  35  62  91 126 157 201 255 308 379
#
# _framework density 23.993174
#
# number of rings (size 3 to 8) (size 9 to 14) (size 15 to 20)
#    0.000    2.500    0.000    0.750    3.500    2.000 
#    0.000    0.000   49.500    0.000    0.000    0.000 
#    0.000    0.000    0.000    0.000    0.000    0.000 
#
# Total GULP energy -89112.574178 kJ/mol
# GULP energy per Si atom -5569.535886 kJ/mol
# Density = 2.393856 g / cm^3
# Si number density = 23.993174 Si / 1000 Ang^3
#
#
#
# Elastic Constant Matrix: (Units=GPa)
#
#
# Indices 1 2 3 4 5 6 
#
# 1 179.8774 64.2702 9.8765 0.0008 -4.6827 -0.0004
# 2 64.2702 121.3485 16.3103 0.0009 -21.1280 -0.0004
# 3 9.8765 16.3103 35.5656 -0.0023 -19.3963 0.0014
# 4 0.0008 0.0009 -0.0023 -1.1423 0.0000 -4.7267
# 5 -4.6827 -21.1280 -19.3963 0.0000 25.5183 0.0001
# 6 -0.0004 -0.0004 0.0014 -4.7267 0.0001 56.5136
#
#
#
# Elastic Compliance Matrix: (Units=1/GPa)
#
#
# Indices 1 2 3 4 5 6 
#
# 1 0.007039 -0.004088 -0.002086 0.000004 -0.003679 0.000000
# 2 -0.004088 0.012003 0.001096 0.000003 0.010021 0.000000
# 3 -0.002086 0.001096 0.048645 -0.000069 0.037499 -0.000007
# 4 0.000004 0.000003 -0.000069 -0.650331 -0.000048 -0.054392
# 5 -0.003679 0.010021 0.037499 -0.000048 0.075312 -0.000005
# 6 0.000000 0.000000 -0.000007 -0.054392 -0.000005 0.013146
#
#
# Mechanical properties :
#
#
# Convention : Reuss Voigt Hill
#
# Bulk Modulus (GPa) = 17.38245 57.52285 37.45265
# Shear Modulus (GPa) = -10.75608 32.60020 10.92206
#
# Velocity S-wave (km/s) = -2.11960 3.69009 2.13589
# Velocity P-wave (km/s) = 1.12703 6.49480 4.66115
#
# Compressibility (1/GPa) = 0.05752930
#
# Stress axis : x y z
#
# Youngs Moduli (GPa) = 142.06975 83.30984 20.55729
#
# Poissons Ratio (x) = 0.34058 0.04289
# Poissons Ratio (y) = 0.58079 -0.02252
# Poissons Ratio (z) = 0.29638 -0.09127
#
# Static dielectric constant tensor:
#      x y z
#    x 2.081860 0.000000 0.034140 
#    y 0.000000 1.918970 0.000000 
#    z 0.034140 0.000000 1.991400 
# 
# From -- ./inp_files/3712.got.cif
#   From: 2010.05.17/outbox.cif.g08.bks.cpg/sg15_2_cif.got.tgz:3712.got - 2010.06.03 18:47:42.
