data_PCOD9287279
_publ_section_title
;
Structure prediction by ZEFSAII (Michael W. Deem and Ramdas Pophale) SiO2 
 PCOD9287279
Probable space group: C 2/C
;
_chemical_formula_sum "Si O2"
_cell_formula_units_Z 56
_cell_length_a 11.402864
_cell_length_b 8.543394
_cell_length_c 31.596003
_cell_angle_alpha 90.000000
_cell_angle_beta 128.967597
_cell_angle_gamma 90.000000
_cell_volume 2393.193956
_symmetry_space_group_name_H-M "C 2/C"
_symmetry_group_IT_number 15
_symmetry_cell_setting 'monoclinic'
loop_
_space_group_symop_operation_xyz
x,y,z
-x,y,1/2-z
-x,-y,-z
x,-y,1/2+z
1/2+x,1/2+y,z
1/2-x,1/2+y,1/2-z
1/2-x,1/2-y,-z
1/2+x,1/2-y,1/2+z
loop_
_atom_site_type_symbol
_atom_site_label
_atom_site_fract_x
_atom_site_fract_y
_atom_site_fract_z
Si Si1 0.367728 0.552842 0.413373
Si Si2 0.993390 0.863590 0.378915
Si Si3 0.560278 0.746849 0.512965
Si Si4 0.922688 0.539830 0.109601
Si Si5 0.418053 0.056606 0.776009
Si Si6 0.797299 0.531462 0.988752
Si Si7 0.915292 0.822708 0.273420
O O1 0.369548 0.486674 0.366922
O O2 0.498084 0.672514 0.455362
O O3 0.393925 0.395839 0.447078
O O4 0.211693 0.620968 0.394018
O O5 0.959148 0.677976 0.375084
O O6 0.136423 0.895908 0.441448
O O7 0.016395 0.887623 0.334906
O O8 0.421935 0.846102 0.500608
O O9 0.688902 0.871221 0.533782
O O10 0.986620 0.418138 0.158269
O O11 0.843494 0.494537 0.047564
O O12 0.500000 0.109006 0.750000
O O13 0.410191 0.866880 0.771182
O O14 0.253236 0.123269 0.750977
O O15 0.000000 0.874474 0.250000
#
# Coordination Sequence:
#
# PCOD9287279 Si02
#       7
#     8   8   8   8   8   8   8
#     4  11  21  38  60  88 123 172 212 250 323 387
#     4  11  22  40  64  90 130 167 205 267 331 384
#     4  10  22  35  59  88 130 171 209 253 310 399
#     4  11  22  39  65  91 129 167 205 268 329 384
#     4  10  23  47  71  98 131 175 227 276 332 389
#     4  11  21  39  58  95 131 161 206 261 327 385
#     4  10  24  46  71  98 130 176 226 278 331 389
#
# _framework density 23.39969
#
# number of rings (size 3 to 8) (size 9 to 14) (size 15 to 20)
#    0.000    1.429    2.857    3.000    0.000    5.143 
#    7.714    0.000    0.000    0.000    0.000    0.000 
#    0.000    0.000    0.000    0.000    0.000    0.000 
#
# Total GULP energy -156187.486847 kJ/mol
# GULP energy per Si atom -5578.124530 kJ/mol
# Density = 2.334643 g / cm^3
# Si number density = 23.399690 Si / 1000 Ang^3
#
#
#
# Elastic Constant Matrix: (Units=GPa)
#
#
# Indices 1 2 3 4 5 6 
#
# 1 114.2592 26.8405 39.5725 0.0000 -19.9087 0.0000
# 2 26.8405 57.0254 2.5863 0.0000 -8.6415 0.0000
# 3 39.5725 2.5863 121.2274 0.0000 -18.4394 0.0000
# 4 0.0000 0.0000 0.0000 14.7384 0.0000 6.1024
# 5 -19.9087 -8.6415 -18.4394 0.0000 36.0625 0.0000
# 6 0.0000 0.0000 0.0000 6.1024 0.0000 38.2127
#
#
#
# Elastic Compliance Matrix: (Units=1/GPa)
#
#
# Indices 1 2 3 4 5 6 
#
# 1 0.011590 -0.004759 -0.003125 0.000000 0.003660 0.000000
# 2 -0.004759 0.020161 0.001582 0.000000 0.003013 0.000000
# 3 -0.003125 0.001582 0.009792 0.000000 0.003661 0.000000
# 4 0.000000 0.000000 0.000000 0.072654 0.000000 -0.011602
# 5 0.003660 0.003013 0.003661 0.000000 0.032344 0.000000
# 6 0.000000 0.000000 0.000000 -0.011602 0.000000 0.028022
#
#
# Mechanical properties :
#
#
# Convention : Reuss Voigt Hill
#
# Bulk Modulus (GPa) = 34.55644 47.83450 41.19547
# Shear Modulus (GPa) = 25.40476 32.70357 29.05417
#
# Velocity S-wave (km/s) = 3.29855 3.74251 3.52752
# Velocity P-wave (km/s) = 5.41362 6.25795 5.85103
#
# Compressibility (1/GPa) = 0.02893816
#
# Stress axis : x y z
#
# Youngs Moduli (GPa) = 86.28127 49.60156 102.12254
#
# Poissons Ratio (x) = 0.23604 0.31914
# Poissons Ratio (y) = 0.41059 -0.16151
# Poissons Ratio (z) = 0.26964 -0.07845
#
# Static dielectric constant tensor:
#      x y z
#    x 1.950480 0.000000 -0.002190 
#    y 0.000000 1.853390 0.000000 
#    z -0.002190 0.000000 1.968090 
# 
# From -- ./inp_files/310391.got.cif
#   From: 2010.05.17/outbox.cif.g08.bks.cpg/sg15_156_cif.got.tgz:310391.got - 2010.06.03 18:47:42.
