data_PCOD9287616
_publ_section_title
;
Structure prediction by ZEFSAII (Michael W. Deem and Ramdas Pophale) SiO2 
 PCOD9287616
Probable space group: C 2/C
;
_chemical_formula_sum "Si O2"
_cell_formula_units_Z 64
_cell_length_a 23.276085
_cell_length_b 22.314156
_cell_length_c 12.961344
_cell_angle_alpha 90.000000
_cell_angle_beta 30.185093
_cell_angle_gamma 90.000000
_cell_volume 3384.787774
_symmetry_space_group_name_H-M "C 2/C"
_symmetry_group_IT_number 15
_symmetry_cell_setting 'monoclinic'
loop_
_space_group_symop_operation_xyz
x,y,z
-x,y,1/2-z
-x,-y,-z
x,-y,1/2+z
1/2+x,1/2+y,z
1/2-x,1/2+y,1/2-z
1/2-x,1/2-y,-z
1/2+x,1/2-y,1/2+z
loop_
_atom_site_type_symbol
_atom_site_label
_atom_site_fract_x
_atom_site_fract_y
_atom_site_fract_z
Si Si1 0.402776 0.319727 0.097423
Si Si2 0.730839 0.474824 0.881047
Si Si3 0.839687 0.797297 0.816842
Si Si4 0.271543 0.792415 0.728342
Si Si5 0.451478 0.551609 0.440257
Si Si6 0.618015 0.645710 0.630860
Si Si7 0.801558 0.932007 0.898283
Si Si8 0.882154 0.411459 0.492814
O O1 0.314056 0.274203 0.184255
O O2 0.394671 0.330180 0.233407
O O3 0.525424 0.290025 0.879795
O O4 0.395647 0.386845 0.064240
O O5 0.845299 0.449928 0.650055
O O6 0.640604 0.499540 0.935567
O O7 0.667476 0.421758 0.042495
O O8 0.750630 0.528747 0.929383
O O9 0.815145 0.797881 0.732650
O O10 0.815528 0.862105 0.903952
O O11 0.750000 0.750000 0.000000
O O12 0.367892 0.841676 0.547983
O O13 0.209077 0.814734 0.927673
O O14 0.500000 0.561684 0.250000
O O15 0.569344 0.543347 0.321435
O O16 0.500000 0.647379 0.750000
O O17 0.717680 0.928940 0.932269
O O18 0.000000 0.421645 0.250000
#
# Coordination Sequence:
#
# PCOD9287616 Si02
#       8
#     8   8   8   8   8   8   8   8
#     4  11  23  36  66  85 120 157 197 246 291 358
#     4  10  22  38  62  87 123 152 190 249 297 353
#     4  10  22  37  59  91 119 155 195 247 297 340
#     4  10  23  39  59  87 120 156 199 244 292 358
#     4   9  20  37  56  95 116 144 189 251 299 344
#     4  11  21  41  58  89 121 157 194 240 306 355
#     4   9  20  38  57  87 118 149 191 242 295 346
#     4  10  23  39  59  85 115 160 203 235 288 355
#
# _framework density 18.908127
#
# number of rings (size 3 to 8) (size 9 to 14) (size 15 to 20)
#    0.000    2.000    1.250    1.500   12.250    1.000 
#    0.000    0.000    0.000    0.750    0.000    0.000 
#    0.000    0.000    0.000    0.000    0.000    0.000 
#
# Total GULP energy -178393.299145 kJ/mol
# GULP energy per Si atom -5574.790598 kJ/mol
# Density = 1.886509 g / cm^3
# Si number density = 18.908127 Si / 1000 Ang^3
#
#
#
# Elastic Constant Matrix: (Units=GPa)
#
#
# Indices 1 2 3 4 5 6 
#
# 1 37.8140 11.2898 4.0304 0.0000 3.0420 0.0000
# 2 11.2898 38.0100 33.6798 0.0001 -5.6287 0.0000
# 3 4.0304 33.6798 87.2929 0.0002 0.8579 0.0001
# 4 0.0000 0.0001 0.0002 20.9360 0.0000 -5.1013
# 5 3.0420 -5.6287 0.8579 0.0000 17.5943 0.0000
# 6 0.0000 0.0000 0.0001 -5.1013 0.0000 25.3170
#
#
#
# Elastic Compliance Matrix: (Units=1/GPa)
#
#
# Indices 1 2 3 4 5 6 
#
# 1 0.031164 -0.014572 0.004284 0.000000 -0.010259 0.000000
# 2 -0.014572 0.050300 -0.018926 0.000000 0.019534 0.000000
# 3 0.004284 -0.018926 0.018636 0.000000 -0.007704 0.000000
# 4 0.000000 0.000000 0.000000 0.050231 0.000000 0.010121
# 5 -0.010259 0.019534 -0.007704 0.000000 0.065235 0.000000
# 6 0.000000 0.000000 0.000000 0.010121 0.000000 0.041539
#
#
# Mechanical properties :
#
#
# Convention : Reuss Voigt Hill
#
# Bulk Modulus (GPa) = 23.99670 29.01300 26.50485
# Shear Modulus (GPa) = 15.17804 20.37723 17.77764
#
# Velocity S-wave (km/s) = 2.83632 3.28639 3.06961
# Velocity P-wave (km/s) = 4.84200 5.45692 5.15863
#
# Compressibility (1/GPa) = 0.04167239
#
# Stress axis : x y z
#
# Youngs Moduli (GPa) = 32.08785 19.88080 53.66017
#
# Poissons Ratio (x) = 0.28970 -0.22989
# Poissons Ratio (y) = 0.46758 1.01558
# Poissons Ratio (z) = -0.13747 0.37627
#
# Static dielectric constant tensor:
#      x y z
#    x 1.687560 0.000000 0.014260 
#    y 0.000000 1.669630 0.000000 
#    z 0.014260 0.000000 1.671640 
# 
# From -- ./inp_files/120225.got.cif
#   From: 2010.05.17/outbox.cif.g08.bks.cpg/sg15_61_cif.got.tgz:120225.got - 2010.06.03 18:47:42.
