data_PCOD9287862
_publ_section_title
;
Structure prediction by ZEFSAII (Michael W. Deem and Ramdas Pophale) SiO2 
 PCOD9287862
Probable space group: C 2/C
;
_chemical_formula_sum "Si O2"
_cell_formula_units_Z 36
_cell_length_a 8.208331
_cell_length_b 10.714824
_cell_length_c 16.483627
_cell_angle_alpha 90.000000
_cell_angle_beta 71.003414
_cell_angle_gamma 90.000000
_cell_volume 1370.792300
_symmetry_space_group_name_H-M "C 2/C"
_symmetry_group_IT_number 15
_symmetry_cell_setting 'monoclinic'
loop_
_space_group_symop_operation_xyz
x,y,z
-x,y,1/2-z
-x,-y,-z
x,-y,1/2+z
1/2+x,1/2+y,z
1/2-x,1/2+y,1/2-z
1/2-x,1/2-y,-z
1/2+x,1/2-y,1/2+z
loop_
_atom_site_type_symbol
_atom_site_label
_atom_site_fract_x
_atom_site_fract_y
_atom_site_fract_z
Si Si1 0.887245 0.125294 0.522241
Si Si2 0.886774 0.491939 0.848230
Si Si3 0.224773 0.531980 0.389365
Si Si4 0.000000 0.812200 0.750000
Si Si5 0.167147 0.740477 0.889781
O O1 0.755856 0.101880 0.617322
O O2 0.026248 0.232349 0.482847
O O3 0.768747 0.110845 0.461691
O O4 0.000000 0.000000 0.500000
O O5 0.785759 0.361635 0.865083
O O6 0.000000 0.502397 0.750000
O O7 0.025808 0.479352 0.897597
O O8 0.342303 0.598550 0.302967
O O9 0.271908 0.385537 0.389031
O O10 0.931718 0.739080 0.681380
#
# Coordination Sequence:
#
# PCOD9287862 Si02
#       5
#     8   8   8   4   8
#     4   9  22  44  63  93 135 163 212 267 309 380
#     4  11  22  41  64  96 128 161 214 265 307 379
#     4  11  23  40  67  92 125 176 210 257 325 372
#     4  10  22  38  58  94 132 158 216 270 304 372
#     4  10  23  41  64  93 127 172 208 260 321 376
#
# _framework density 26.262184999999999
#
# number of rings (size 3 to 8) (size 9 to 14) (size 15 to 20)
#    0.000    1.778    2.222    0.667    3.111    4.444 
#    0.000   13.333    0.000    0.000    0.000    0.000 
#    0.000    0.000    0.000    0.000    0.000    0.000 
#
# Total GULP energy -100842.663970 kJ/mol
# GULP energy per Si atom -5602.370221 kJ/mol
# Density = 2.620241 g / cm^3
# Si number density = 26.262185 Si / 1000 Ang^3
#
#
#
# Elastic Constant Matrix: (Units=GPa)
#
#
# Indices 1 2 3 4 5 6 
#
# 1 69.8381 -4.1997 23.3732 0.0000 -15.1520 0.0000
# 2 -4.1997 113.8586 35.4761 0.0000 -18.2429 0.0000
# 3 23.3732 35.4761 123.7584 0.0000 -35.9888 0.0000
# 4 0.0000 0.0000 0.0000 31.2340 0.0000 -5.3777
# 5 -15.1520 -18.2429 -35.9888 0.0000 53.2205 0.0000
# 6 0.0000 0.0000 0.0000 -5.3777 0.0000 64.2483
#
#
#
# Elastic Compliance Matrix: (Units=1/GPa)
#
#
# Indices 1 2 3 4 5 6 
#
# 1 0.016058 0.001956 -0.002575 0.000000 0.003501 0.000000
# 2 0.001956 0.010021 -0.002591 0.000000 0.002240 0.000000
# 3 -0.002575 -0.002591 0.011001 0.000000 0.005818 0.000000
# 4 0.000000 0.000000 0.000000 0.032485 0.000000 0.002719
# 5 0.003501 0.002240 0.005818 0.000000 0.024488 0.000000
# 6 0.000000 0.000000 0.000000 0.002719 0.000000 0.015792
#
#
# Mechanical properties :
#
#
# Convention : Reuss Voigt Hill
#
# Bulk Modulus (GPa) = 32.61645 46.30603 39.46124
# Shear Modulus (GPa) = 39.53026 46.59427 43.06226
#
# Velocity S-wave (km/s) = 3.88392 4.21669 4.05372
# Velocity P-wave (km/s) = 5.70610 6.43256 6.08019
#
# Compressibility (1/GPa) = 0.03065937
#
# Stress axis : x y z
#
# Youngs Moduli (GPa) = 62.27498 99.79026 90.89999
#
# Poissons Ratio (x) = -0.19515 0.23410
# Poissons Ratio (y) = -0.12178 0.23548
# Poissons Ratio (z) = 0.16038 0.25851
#
# Static dielectric constant tensor:
#      x y z
#    x 2.048510 0.000000 0.051020 
#    y 0.000000 2.136500 0.000000 
#    z 0.051020 0.000000 2.076720 
# 
# From -- ./inp_files/187591.got.cif
#   From: 2010.05.17/outbox.cif.g08.bks.cpg/sg15_94_cif.got.tgz:187591.got - 2010.06.03 18:47:42.
