data_PCOD9287452
_publ_section_title
;
Structure prediction by ZEFSAII (Michael W. Deem and Ramdas Pophale) SiO2 
 PCOD9287452
Probable space group: C 2/C
;
_chemical_formula_sum "Si O2"
_cell_formula_units_Z 56
_cell_length_a 29.876380
_cell_length_b 8.217410
_cell_length_c 17.943371
_cell_angle_alpha 90.000000
_cell_angle_beta 33.201378
_cell_angle_gamma 90.000000
_cell_volume 2412.221591
_symmetry_space_group_name_H-M "C 2/C"
_symmetry_group_IT_number 15
_symmetry_cell_setting 'monoclinic'
loop_
_space_group_symop_operation_xyz
x,y,z
-x,y,1/2-z
-x,-y,-z
x,-y,1/2+z
1/2+x,1/2+y,z
1/2-x,1/2+y,1/2-z
1/2-x,1/2-y,-z
1/2+x,1/2-y,1/2+z
loop_
_atom_site_type_symbol
_atom_site_label
_atom_site_fract_x
_atom_site_fract_y
_atom_site_fract_z
Si Si1 0.000000 0.494776 0.750000
Si Si2 0.090162 0.247296 0.199701
Si Si3 0.500000 0.506927 0.750000
Si Si4 0.832353 0.556258 0.678595
Si Si5 0.197705 0.696343 0.404130
Si Si6 0.195283 0.649706 0.155629
Si Si7 0.796766 0.998796 0.880008
Si Si8 0.367798 0.748230 0.992225
O O1 0.968275 0.595937 0.721922
O O2 0.919393 0.393302 0.882237
O O3 0.157232 0.166742 0.159363
O O4 0.134552 0.263686 0.057433
O O5 0.027147 0.101041 0.280926
O O6 0.422931 0.602457 0.887374
O O7 0.833823 0.398287 0.623719
O O8 0.744300 0.638283 0.818351
O O9 0.857057 0.478192 0.723409
O O10 0.870390 0.701624 0.575732
O O11 0.257063 0.560514 0.358699
O O12 0.156117 0.826769 0.191810
O O13 0.228959 0.551729 0.036618
O O14 0.276769 0.708076 0.088782
#
# Coordination Sequence:
#
# PCOD9287452 Si02
#       8
#     4   8   4   8   8   8   8   8
#     4  10  22  36  62  90 116 164 216 246 274 370
#     4  11  21  38  60  92 114 160 209 250 292 360
#     4  10  22  38  60  88 118 168 208 246 280 370
#     4  12  22  37  61  96 126 155 198 256 320 366
#     4  12  22  37  62  96 123 157 198 260 320 363
#     4  11  22  38  62  97 123 157 198 261 323 360
#     4  11  22  38  60  96 127 154 200 258 319 365
#     4  11  20  39  60  92 118 158 204 252 296 356
#
# _framework density 23.215114
#
# number of rings (size 3 to 8) (size 9 to 14) (size 15 to 20)
#    0.000    0.857    7.143    0.429    0.000    0.000 
#    0.000    0.000    0.000    5.143    0.000    0.000 
#    0.000    0.000    0.000    0.000    0.000    0.000 
#
# Total GULP energy -155944.317133 kJ/mol
# GULP energy per Si atom -5569.439898 kJ/mol
# Density = 2.316228 g / cm^3
# Si number density = 23.215114 Si / 1000 Ang^3
#
#
#
# Elastic Constant Matrix: (Units=GPa)
#
#
# Indices 1 2 3 4 5 6 
#
# 1 26.3643 -2.0831 5.8126 -0.0007 7.2642 -0.0002
# 2 -2.0831 91.0032 2.4121 -0.0054 -3.5654 0.0018
# 3 5.8126 2.4121 37.4438 -0.0076 3.2585 0.0017
# 4 -0.0007 -0.0054 -0.0076 -27.1607 0.0000 -2.1848
# 5 7.2642 -3.5654 3.2585 0.0000 29.5329 0.0010
# 6 -0.0002 0.0018 0.0017 -2.1848 0.0010 27.3870
#
#
#
# Elastic Compliance Matrix: (Units=1/GPa)
#
#
# Indices 1 2 3 4 5 6 
#
# 1 0.041889 0.000735 -0.005716 0.000000 -0.009584 0.000001
# 2 0.000735 0.011080 -0.000937 -0.000002 0.001260 -0.000001
# 3 -0.005716 -0.000937 0.027809 -0.000007 -0.001776 -0.000002
# 4 0.000000 -0.000002 -0.000007 -0.036583 0.000001 -0.002918
# 5 -0.009584 0.001260 -0.001776 0.000001 0.036566 -0.000001
# 6 0.000001 -0.000001 -0.000002 -0.002918 -0.000001 0.036281
#
#
# Mechanical properties :
#
#
# Convention : Reuss Voigt Hill
#
# Bulk Modulus (GPa) = 14.50527 18.56604 16.53565
# Shear Modulus (GPa) = 32.92537 15.86316 24.39427
#
# Velocity S-wave (km/s) = 3.77008 2.61686 3.24511
# Velocity P-wave (km/s) = 5.02127 4.14070 4.60209
#
# Compressibility (1/GPa) = 0.06894047
#
# Stress axis : x y z
#
# Youngs Moduli (GPa) = 23.87261 90.25536 35.95965
#
# Poissons Ratio (x) = -0.06633 0.20554
# Poissons Ratio (y) = -0.01754 0.03371
# Poissons Ratio (z) = 0.13646 0.08461
#
# Static dielectric constant tensor:
#      x y z
#    x 2.041690 0.000000 -0.077150 
#    y 0.000000 1.987480 0.000000 
#    z -0.077150 0.000000 1.932140 
# 
# From -- ./inp_files/224423.got.cif
#   From: 2010.05.17/outbox.cif.g08.bks.cpg/sg15_113_cif.got.tgz:224423.got - 2010.06.03 18:47:42.
