data_PCOD9287827
_publ_section_title
;
Structure prediction by ZEFSAII (Michael W. Deem and Ramdas Pophale) SiO2 
 PCOD9287827
Probable space group: C 2/C
;
_chemical_formula_sum "Si O2"
_cell_formula_units_Z 36
_cell_length_a 13.038207
_cell_length_b 5.015098
_cell_length_c 23.674060
_cell_angle_alpha 90.000000
_cell_angle_beta 91.660699
_cell_angle_gamma 90.000000
_cell_volume 1547.346534
_symmetry_space_group_name_H-M "C 2/C"
_symmetry_group_IT_number 15
_symmetry_cell_setting 'monoclinic'
loop_
_space_group_symop_operation_xyz
x,y,z
-x,y,1/2-z
-x,-y,-z
x,-y,1/2+z
1/2+x,1/2+y,z
1/2-x,1/2+y,1/2-z
1/2-x,1/2-y,-z
1/2+x,1/2-y,1/2+z
loop_
_atom_site_type_symbol
_atom_site_label
_atom_site_fract_x
_atom_site_fract_y
_atom_site_fract_z
Si Si1 0.132193 0.164122 0.604612
Si Si2 0.000000 0.481672 0.250000
Si Si3 0.426824 0.250310 0.511409
Si Si4 0.204949 0.202981 0.723389
Si Si5 0.003831 0.664605 0.873545
O O1 0.212450 0.213808 0.655778
O O2 0.157260 0.224570 0.539618
O O3 0.037551 0.365272 0.616737
O O4 0.089272 0.866125 0.612931
O O5 0.903566 0.670386 0.261391
O O6 0.975635 0.317333 0.192605
O O7 0.500000 0.500000 0.500000
O O8 0.409406 0.232053 0.578371
O O9 0.500000 0.000000 0.500000
O O10 0.283458 0.402029 0.755336
#
# Coordination Sequence:
#
# PCOD9287827 Si02
#       5
#     8   4   8   8   8
#     4   9  17  31  50  75 106 139 179 222 265 319
#     4  10  22  38  58  82 116 144 182 230 274 330
#     4   8  14  26  46  73 101 133 177 217 259 319
#     4  11  23  37  56  82 111 147 185 225 277 328
#     4   9  17  29  51  78 104 140 177 218 271 320
#
# _framework density 23.265633000000001
#
# number of rings (size 3 to 8) (size 9 to 14) (size 15 to 20)
#    0.000    2.667    0.000    2.667    0.000    8.000 
#    0.000    0.000    0.000    2.667    0.000    0.000 
#    0.000    0.000    0.000    0.000    0.000    0.000 
#
# Total GULP energy -100379.307442 kJ/mol
# GULP energy per Si atom -5576.628191 kJ/mol
# Density = 2.321268 g / cm^3
# Si number density = 23.265633 Si / 1000 Ang^3
#
#
#
# Elastic Constant Matrix: (Units=GPa)
#
#
# Indices 1 2 3 4 5 6 
#
# 1 47.8970 -4.4312 25.6100 0.0000 -11.0967 0.0000
# 2 -4.4312 92.4190 -5.2255 0.0000 -3.2481 0.0000
# 3 25.6100 -5.2255 255.9553 0.0000 7.9874 0.0000
# 4 0.0000 0.0000 0.0000 32.8125 0.0000 4.7427
# 5 -11.0967 -3.2481 7.9874 0.0000 33.1554 0.0000
# 6 0.0000 0.0000 0.0000 4.7427 0.0000 11.9881
#
#
#
# Elastic Compliance Matrix: (Units=1/GPa)
#
#
# Indices 1 2 3 4 5 6 
#
# 1 0.024534 0.001339 -0.002708 0.000000 0.008995 0.000000
# 2 0.001339 0.010940 0.000042 0.000000 0.001510 0.000000
# 3 -0.002708 0.000042 0.004239 0.000000 -0.001923 0.000000
# 4 0.000000 0.000000 0.000000 0.032325 0.000000 -0.012788
# 5 0.008995 0.001510 -0.001923 0.000000 0.033783 0.000000
# 6 0.000000 0.000000 0.000000 -0.012788 0.000000 0.088475
#
#
# Mechanical properties :
#
#
# Convention : Reuss Voigt Hill
#
# Bulk Modulus (GPa) = 26.98359 47.57532 37.27946
# Shear Modulus (GPa) = 23.88897 40.94575 32.41736
#
# Velocity S-wave (km/s) = 3.20784 4.19970 3.73682
# Velocity P-wave (km/s) = 5.03423 6.63398 5.88869
#
# Compressibility (1/GPa) = 0.03705956
#
# Stress axis : x y z
#
# Youngs Moduli (GPa) = 40.75984 91.40804 235.91684
#
# Poissons Ratio (x) = -0.12243 0.63889
# Poissons Ratio (y) = -0.05459 -0.00996
# Poissons Ratio (z) = 0.11038 -0.00386
#
# Static dielectric constant tensor:
#      x y z
#    x 1.885330 0.000000 0.035080 
#    y 0.000000 1.787420 0.000000 
#    z 0.035080 0.000000 2.009510 
# 
# From -- ./inp_files/241448.got.cif
#   From: 2010.05.17/outbox.cif.g08.bks.cpg/sg15_121_cif.got.tgz:241448.got - 2010.06.03 18:47:42.
