data_PCOD9287824
_publ_section_title
;
Structure prediction by ZEFSAII (Michael W. Deem and Ramdas Pophale) SiO2 
 PCOD9287824
Probable space group: C 2/C
;
_chemical_formula_sum "Si O2"
_cell_formula_units_Z 60
_cell_length_a 25.403371
_cell_length_b 9.035226
_cell_length_c 17.152073
_cell_angle_alpha 90.000000
_cell_angle_beta 134.491138
_cell_angle_gamma 90.000000
_cell_volume 2808.374633
_symmetry_space_group_name_H-M "C 2/C"
_symmetry_group_IT_number 15
_symmetry_cell_setting 'monoclinic'
loop_
_space_group_symop_operation_xyz
x,y,z
-x,y,1/2-z
-x,-y,-z
x,-y,1/2+z
1/2+x,1/2+y,z
1/2-x,1/2+y,1/2-z
1/2-x,1/2-y,-z
1/2+x,1/2-y,1/2+z
loop_
_atom_site_type_symbol
_atom_site_label
_atom_site_fract_x
_atom_site_fract_y
_atom_site_fract_z
Si Si1 0.589743 0.241282 0.618163
Si Si2 0.526124 0.752945 0.889612
Si Si3 0.805046 0.015031 0.316002
Si Si4 0.957435 0.075882 0.058624
Si Si5 0.000000 0.762633 0.750000
Si Si6 0.911707 0.522202 0.754263
Si Si7 0.264062 0.265548 0.154549
Si Si8 0.351757 0.215202 0.105821
O O1 0.580792 0.205440 0.517876
O O2 0.654060 0.361194 0.694331
O O3 0.512717 0.317719 0.567260
O O4 0.607696 0.094603 0.684299
O O5 0.505229 0.585740 0.891822
O O6 0.467617 0.885313 0.825782
O O7 0.571988 0.745786 0.857114
O O8 0.876180 0.945823 0.436611
O O9 0.766180 0.892432 0.222191
O O10 0.750939 0.110499 0.315881
O O11 0.953224 0.141825 0.140829
O O12 0.949527 0.654804 0.747688
O O13 0.850892 0.454714 0.633946
O O14 0.335318 0.290855 0.172095
O O15 0.204466 0.264566 0.023102
#
# Coordination Sequence:
#
# PCOD9287824 Si02
#       8
#     8   8   8   8   4   8   8   8
#     4  10  23  42  65 103 130 163 217 276 335 398
#     4  11  20  40  69  93 130 168 211 273 331 392
#     4  11  24  48  66  95 129 173 230 264 325 384
#     4  10  23  39  68  97 134 167 215 275 337 390
#     4  10  22  38  58 104 132 164 200 270 346 384
#     4  11  23  39  65  99 131 165 214 269 342 387
#     4  11  27  44  68  93 127 185 227 266 313 394
#     4  11  24  42  64  93 133 166 227 261 326 380
#
# _framework density 21.364671999999999
#
# number of rings (size 3 to 8) (size 9 to 14) (size 15 to 20)
#    0.000    1.333    4.000    2.000    7.467    2.133 
#    0.000    0.667    0.000    0.000    0.000    0.000 
#    0.000    0.000    0.000    0.000    0.000    0.000 
#
# Total GULP energy -167194.947247 kJ/mol
# GULP energy per Si atom -5573.164908 kJ/mol
# Density = 2.131605 g / cm^3
# Si number density = 21.364672 Si / 1000 Ang^3
#
#
#
# Elastic Constant Matrix: (Units=GPa)
#
#
# Indices 1 2 3 4 5 6 
#
# 1 88.8414 28.2710 45.2850 0.0000 -23.4241 0.0000
# 2 28.2710 96.4037 61.4771 0.0000 -17.6792 0.0000
# 3 45.2850 61.4771 83.1597 0.0000 -22.4965 0.0000
# 4 0.0000 0.0000 0.0000 40.7886 0.0000 -14.7038
# 5 -23.4241 -17.6792 -22.4965 0.0000 30.5482 0.0000
# 6 0.0000 0.0000 0.0000 -14.7038 0.0000 23.6462
#
#
#
# Elastic Compliance Matrix: (Units=1/GPa)
#
#
# Indices 1 2 3 4 5 6 
#
# 1 0.017111 0.001911 -0.008594 0.000000 0.007898 0.000000
# 2 0.001911 0.019856 -0.015253 0.000000 0.001724 0.000000
# 3 -0.008594 -0.015253 0.029734 0.000000 0.006480 0.000000
# 4 0.000000 0.000000 0.000000 0.031600 0.000000 0.019650
# 5 0.007898 0.001724 0.006480 0.000000 0.044560 0.000000
# 6 0.000000 0.000000 0.000000 0.019650 0.000000 0.054509
#
#
# Mechanical properties :
#
#
# Convention : Reuss Voigt Hill
#
# Bulk Modulus (GPa) = 43.80538 59.83012 51.81775
# Shear Modulus (GPa) = 20.09239 27.88805 23.99022
#
# Velocity S-wave (km/s) = 3.07000 3.61686 3.35459
# Velocity P-wave (km/s) = 5.75454 6.74591 6.26985
#
# Compressibility (1/GPa) = 0.02282825
#
# Stress axis : x y z
#
# Youngs Moduli (GPa) = 58.44256 50.36370 33.63190
#
# Poissons Ratio (x) = -0.09624 0.28903
# Poissons Ratio (y) = -0.11168 0.51298
# Poissons Ratio (z) = 0.50225 0.76819
#
# Static dielectric constant tensor:
#      x y z
#    x 1.931630 0.000000 0.019910 
#    y 0.000000 1.769380 0.000000 
#    z 0.019910 0.000000 1.872240 
# 
# From -- ./inp_files/224268.got.cif
#   From: 2010.05.17/outbox.cif.g08.bks.cpg/sg15_113_cif.got.tgz:224268.got - 2010.06.03 18:47:42.
