data_PCOD9287720
_publ_section_title
;
Structure prediction by ZEFSAII (Michael W. Deem and Ramdas Pophale) SiO2 
 PCOD9287720
Probable space group: C 2/C
;
_chemical_formula_sum "Si O2"
_cell_formula_units_Z 60
_cell_length_a 20.059197
_cell_length_b 12.876915
_cell_length_c 14.805407
_cell_angle_alpha 90.000000
_cell_angle_beta 139.304525
_cell_angle_gamma 90.000000
_cell_volume 2493.555167
_symmetry_space_group_name_H-M "C 2/C"
_symmetry_group_IT_number 15
_symmetry_cell_setting 'monoclinic'
loop_
_space_group_symop_operation_xyz
x,y,z
-x,y,1/2-z
-x,-y,-z
x,-y,1/2+z
1/2+x,1/2+y,z
1/2-x,1/2+y,1/2-z
1/2-x,1/2-y,-z
1/2+x,1/2-y,1/2+z
loop_
_atom_site_type_symbol
_atom_site_label
_atom_site_fract_x
_atom_site_fract_y
_atom_site_fract_z
Si Si1 0.694827 0.891588 0.233275
Si Si2 0.338158 0.102317 0.221072
Si Si3 0.487060 0.468592 0.645004
Si Si4 0.500000 0.850290 0.750000
Si Si5 0.925076 0.118531 0.419491
Si Si6 0.964431 0.682493 0.518230
Si Si7 0.819109 0.731212 0.941128
Si Si8 0.166244 0.779915 0.988272
O O1 0.708658 0.876216 0.139314
O O2 0.766515 0.810394 0.356635
O O3 0.720956 0.999670 0.309358
O O4 0.575259 0.870349 0.131851
O O5 0.426068 0.083523 0.237897
O O6 0.395073 0.132457 0.371394
O O7 0.272309 0.198899 0.113847
O O8 0.500000 0.533853 0.750000
O O9 0.444366 0.534595 0.517177
O O10 0.587611 0.424743 0.695113
O O11 0.410307 0.378386 0.602525
O O12 0.421275 0.785544 0.604955
O O13 0.018975 0.198042 0.498035
O O14 0.844879 0.194637 0.382063
O O15 0.908999 0.687765 0.557489
O O16 0.250000 0.750000 0.000000
#
# Coordination Sequence:
#
# PCOD9287720 Si02
#       8
#     8   8   8   4   8   8   8   8
#     4  11  24  46  71 102 140 186 237 294 357 428
#     4  12  24  45  74 106 139 184 244 287 358 424
#     4  10  22  37  65 100 134 180 234 290 354 422
#     4  12  26  44  70 110 144 192 238 286 364 422
#     4   9  20  41  63  95 135 185 228 281 354 421
#     4  10  22  42  72  93 137 188 222 293 357 412
#     4  11  24  45  74  99 144 187 236 298 350 432
#     4  11  25  41  65 101 137 181 236 286 356 421
#
# _framework density 24.062031999999999
#
# number of rings (size 3 to 8) (size 9 to 14) (size 15 to 20)
#    0.000    1.333    4.000    1.600    6.533    1.067 
#    0.000    0.000    0.000    0.000    0.000    0.000 
#    0.000    0.000    0.000    0.000    0.000    0.000 
#
# Total GULP energy -167192.515124 kJ/mol
# GULP energy per Si atom -5573.083837 kJ/mol
# Density = 2.400727 g / cm^3
# Si number density = 24.062032 Si / 1000 Ang^3
#
#
#
# Elastic Constant Matrix: (Units=GPa)
#
#
# Indices 1 2 3 4 5 6 
#
# 1 112.8719 34.8785 17.8430 0.0000 -15.2707 0.0000
# 2 34.8785 54.4084 9.2461 0.0000 -8.0142 0.0000
# 3 17.8430 9.2461 106.9826 0.0000 -4.9830 0.0000
# 4 0.0000 0.0000 0.0000 16.7684 0.0000 2.8296
# 5 -15.2707 -8.0142 -4.9830 0.0000 35.0256 0.0000
# 6 0.0000 0.0000 0.0000 2.8296 0.0000 21.2284
#
#
#
# Elastic Compliance Matrix: (Units=1/GPa)
#
#
# Indices 1 2 3 4 5 6 
#
# 1 0.011579 -0.006728 -0.001194 0.000000 0.003339 0.000000
# 2 -0.006728 0.023156 -0.000774 0.000000 0.002255 0.000000
# 3 -0.001194 -0.000774 0.009645 0.000000 0.000674 0.000000
# 4 0.000000 0.000000 0.000000 0.061008 0.000000 -0.008132
# 5 0.003339 0.002255 0.000674 0.000000 0.030618 0.000000
# 6 0.000000 0.000000 0.000000 -0.008132 0.000000 0.048191
#
#
# Mechanical properties :
#
#
# Convention : Reuss Voigt Hill
#
# Bulk Modulus (GPa) = 37.05436 44.24423 40.64929
# Shear Modulus (GPa) = 23.74329 28.75750 26.25040
#
# Velocity S-wave (km/s) = 3.14467 3.46083 3.30653
# Velocity P-wave (km/s) = 5.34960 5.86492 5.61318
#
# Compressibility (1/GPa) = 0.02698738
#
# Stress axis : x y z
#
# Youngs Moduli (GPa) = 86.36207 43.18494 103.68273
#
# Poissons Ratio (x) = 0.29055 0.12382
# Poissons Ratio (y) = 0.58105 0.08027
# Poissons Ratio (z) = 0.10314 0.03343
#
# Static dielectric constant tensor:
#      x y z
#    x 2.006350 0.000000 0.009240 
#    y 0.000000 2.191970 0.000000 
#    z 0.009240 0.000000 1.972380 
# 
# From -- ./inp_files/168654.got.cif
#   From: 2010.05.17/outbox.cif.g08.bks.cpg/sg15_85_cif.got.tgz:168654.got - 2010.06.03 18:47:42.
