data_PCOD9287520
_publ_section_title
;
Structure prediction by ZEFSAII (Michael W. Deem and Ramdas Pophale) SiO2 
 PCOD9287520
Probable space group: C 2/C
;
_chemical_formula_sum "Si O2"
_cell_formula_units_Z 44
_cell_length_a 16.109325
_cell_length_b 8.394126
_cell_length_c 13.422067
_cell_angle_alpha 90.000000
_cell_angle_beta 88.118504
_cell_angle_gamma 90.000000
_cell_volume 1814.003104
_symmetry_space_group_name_H-M "C 2/C"
_symmetry_group_IT_number 15
_symmetry_cell_setting 'monoclinic'
loop_
_space_group_symop_operation_xyz
x,y,z
-x,y,1/2-z
-x,-y,-z
x,-y,1/2+z
1/2+x,1/2+y,z
1/2-x,1/2+y,1/2-z
1/2-x,1/2-y,-z
1/2+x,1/2-y,1/2+z
loop_
_atom_site_type_symbol
_atom_site_label
_atom_site_fract_x
_atom_site_fract_y
_atom_site_fract_z
Si Si1 0.625848 0.642332 0.383963
Si Si2 0.106766 0.526098 0.599637
Si Si3 0.726404 0.989021 0.247712
Si Si4 0.000000 0.035432 0.750000
Si Si5 0.084585 0.517241 0.380334
Si Si6 0.144287 0.164385 0.609216
O O1 0.704166 0.579966 0.318143
O O2 0.547975 0.569007 0.329391
O O3 0.611235 0.831798 0.383542
O O4 0.634314 0.590961 0.499147
O O5 0.169122 0.614651 0.672586
O O6 0.095333 0.593825 0.489267
O O7 0.148783 0.352647 0.589201
O O8 0.012965 0.492397 0.639977
O O9 0.652371 0.091281 0.303223
O O10 0.777979 0.905391 0.333643
O O11 0.934749 0.133618 0.817742
#
# Coordination Sequence:
#
# PCOD9287520 Si02
#       6
#     8   8   8   4   8   8
#     4  10  22  41  62  91 130 165 205 260 316 367
#     4  10  22  40  64  93 126 165 212 264 314 369
#     4  11  21  35  63  94 124 164 207 245 311 381
#     4  10  22  36  68  90 122 168 212 254 308 380
#     4  10  22  40  64  93 126 165 212 264 314 369
#     4  10  22  41  62  91 130 165 205 260 316 367
#
# _framework density 24.255745999999998
#
# number of rings (size 3 to 8) (size 9 to 14) (size 15 to 20)
#    0.000    1.818    0.000    3.273    5.091    2.909 
#    0.000    0.000    0.000   10.909    0.000    0.000 
#    0.000    0.000    0.000    0.000    0.000    0.000 
#
# Total GULP energy -122925.424493 kJ/mol
# GULP energy per Si atom -5587.519295 kJ/mol
# Density = 2.420054 g / cm^3
# Si number density = 24.255746 Si / 1000 Ang^3
#
#
#
# Elastic Constant Matrix: (Units=GPa)
#
#
# Indices 1 2 3 4 5 6 
#
# 1 188.2004 27.1991 44.0797 0.0000 30.1076 0.0000
# 2 27.1991 31.9513 27.7541 0.0000 10.4045 0.0000
# 3 44.0797 27.7541 131.2165 0.0000 31.4955 0.0000
# 4 0.0000 0.0000 0.0000 21.7903 0.0000 7.8629
# 5 30.1076 10.4045 31.4955 0.0000 45.0580 0.0000
# 6 0.0000 0.0000 0.0000 7.8629 0.0000 32.4428
#
#
#
# Elastic Compliance Matrix: (Units=1/GPa)
#
#
# Indices 1 2 3 4 5 6 
#
# 1 0.006521 -0.004040 -0.000618 0.000000 -0.002992 0.000000
# 2 -0.004040 0.041402 -0.006913 0.000000 -0.002029 0.000000
# 3 -0.000618 -0.006913 0.010584 0.000000 -0.005389 0.000000
# 4 0.000000 0.000000 0.000000 0.050290 0.000000 -0.012188
# 5 -0.002992 -0.002029 -0.005389 0.000000 0.028429 0.000000
# 6 0.000000 0.000000 0.000000 -0.012188 0.000000 0.033778
#
#
# Mechanical properties :
#
#
# Convention : Reuss Voigt Hill
#
# Bulk Modulus (GPa) = 28.27583 61.04821 44.66202
# Shear Modulus (GPa) = 24.27966 36.68055 30.48011
#
# Velocity S-wave (km/s) = 3.16727 3.89297 3.54872
# Velocity P-wave (km/s) = 5.00581 6.74019 5.93668
#
# Compressibility (1/GPa) = 0.03536589
#
# Stress axis : x y z
#
# Youngs Moduli (GPa) = 153.35675 24.15329 94.47940
#
# Poissons Ratio (x) = 0.09757 0.05837
# Poissons Ratio (y) = 0.61953 0.65315
# Poissons Ratio (z) = 0.09474 0.16697
#
# Static dielectric constant tensor:
#      x y z
#    x 1.943370 0.000000 0.029430 
#    y 0.000000 1.974840 0.000000 
#    z 0.029430 0.000000 2.045370 
# 
# From -- ./inp_files/151357.got.cif
#   From: 2010.05.17/outbox.cif.g08.bks.cpg/sg15_76_cif.got.tgz:151357.got - 2010.06.03 18:47:42.
