data_PCOD9287809
_publ_section_title
;
Structure prediction by ZEFSAII (Michael W. Deem and Ramdas Pophale) SiO2 
 PCOD9287809
Probable space group: C 2/C
;
_chemical_formula_sum "Si O2"
_cell_formula_units_Z 40
_cell_length_a 16.146663
_cell_length_b 20.281686
_cell_length_c 5.395592
_cell_angle_alpha 90.000000
_cell_angle_beta 92.292415
_cell_angle_gamma 90.000000
_cell_volume 1765.542728
_symmetry_space_group_name_H-M "C 2/C"
_symmetry_group_IT_number 15
_symmetry_cell_setting 'monoclinic'
loop_
_space_group_symop_operation_xyz
x,y,z
-x,y,1/2-z
-x,-y,-z
x,-y,1/2+z
1/2+x,1/2+y,z
1/2-x,1/2+y,1/2-z
1/2-x,1/2-y,-z
1/2+x,1/2-y,1/2+z
loop_
_atom_site_type_symbol
_atom_site_label
_atom_site_fract_x
_atom_site_fract_y
_atom_site_fract_z
Si Si1 0.370525 0.680915 0.436402
Si Si2 0.282042 0.190327 0.760048
Si Si3 0.404147 0.527685 0.446172
Si Si4 0.362442 0.853608 0.786427
Si Si5 0.000000 0.460091 0.750000
Si Si6 0.500000 0.749483 0.750000
O O1 0.321515 0.734955 0.259101
O O2 0.314351 0.686845 0.680296
O O3 0.387036 0.604336 0.374799
O O4 0.459798 0.707851 0.526793
O O5 0.303711 0.150045 0.517383
O O6 0.321649 0.160624 0.016188
O O7 0.500000 0.500000 0.500000
O O8 0.367691 0.514121 0.714237
O O9 0.416751 0.917740 0.758969
O O10 0.429766 0.796970 0.846111
O O11 0.000000 0.500000 0.500000
#
# Coordination Sequence:
#
# PCOD9287809 Si02
#       6
#     8   8   8   8   4   4
#     4  10  22  40  64  92 124 167 214 257 322 379
#     4  10  23  40  64  91 126 162 204 271 323 375
#     4  10  22  38  57  84 121 161 203 247 293 368
#     4  10  22  41  60  93 125 154 207 264 324 377
#     4  11  22  40  68  92 122 167 210 258 318 395
#     4   9  20  36  64  90 118 157 204 268 314 369
#
# _framework density 22.655923000000001
#
# number of rings (size 3 to 8) (size 9 to 14) (size 15 to 20)
#    0.000    2.000    0.000    2.400    0.000   21.600 
#    0.000    6.000    0.000    0.000    0.000    0.000 
#    0.000    0.000    0.000    0.000    0.000    0.000 
#
# Total GULP energy -111564.272995 kJ/mol
# GULP energy per Si atom -5578.213650 kJ/mol
# Density = 2.260436 g / cm^3
# Si number density = 22.655923 Si / 1000 Ang^3
#
#
#
# Elastic Constant Matrix: (Units=GPa)
#
#
# Indices 1 2 3 4 5 6 
#
# 1 59.5814 19.9647 36.6642 0.0000 -0.8018 0.0000
# 2 19.9647 129.6581 49.5119 0.0000 4.9234 0.0000
# 3 36.6642 49.5119 155.0749 0.0000 -20.5792 0.0000
# 4 0.0000 0.0000 0.0000 14.0811 0.0000 7.4088
# 5 -0.8018 4.9234 -20.5792 0.0000 33.4773 0.0000
# 6 0.0000 0.0000 0.0000 7.4088 0.0000 18.8730
#
#
#
# Elastic Compliance Matrix: (Units=1/GPa)
#
#
# Indices 1 2 3 4 5 6 
#
# 1 0.020016 -0.001231 -0.004629 0.000000 -0.002185 0.000000
# 2 -0.001231 0.009204 -0.003082 0.000000 -0.003278 0.000000
# 3 -0.004629 -0.003082 0.009334 0.000000 0.006080 0.000000
# 4 0.000000 0.000000 0.000000 0.089504 0.000000 -0.035135
# 5 -0.002185 -0.003278 0.006080 0.000000 0.034038 0.000000
# 6 0.000000 0.000000 0.000000 -0.035135 0.000000 0.066778
#
#
# Mechanical properties :
#
#
# Convention : Reuss Voigt Hill
#
# Bulk Modulus (GPa) = 48.38500 61.84399 55.11450
# Shear Modulus (GPa) = 19.71230 29.16452 24.43841
#
# Velocity S-wave (km/s) = 2.95290 3.59176 3.28788
# Velocity P-wave (km/s) = 5.74708 6.67513 6.22841
#
# Compressibility (1/GPa) = 0.02066756
#
# Stress axis : x y z
#
# Youngs Moduli (GPa) = 49.96128 108.65171 107.13552
#
# Poissons Ratio (x) = 0.13378 0.49594
# Poissons Ratio (y) = 0.06152 0.33024
# Poissons Ratio (z) = 0.23128 0.33491
#
# Static dielectric constant tensor:
#      x y z
#    x 2.198940 0.000000 -0.118570 
#    y 0.000000 1.874260 0.000000 
#    z -0.118570 0.000000 1.923280 
# 
# From -- ./inp_files/10197.got.cif
#   From: 2010.05.17/outbox.cif.g08.bks.cpg/sg15_6_cif.got.tgz:10197.got - 2010.06.03 18:47:42.
