data_PCOD9287741
_publ_section_title
;
Structure prediction by ZEFSAII (Michael W. Deem and Ramdas Pophale) SiO2 
 PCOD9287741
Probable space group: C 2/C
;
_chemical_formula_sum "Si O2"
_cell_formula_units_Z 32
_cell_length_a 14.834303
_cell_length_b 15.776701
_cell_length_c 10.227819
_cell_angle_alpha 90.000000
_cell_angle_beta 30.143130
_cell_angle_gamma 90.000000
_cell_volume 1202.015553
_symmetry_space_group_name_H-M "C 2/C"
_symmetry_group_IT_number 15
_symmetry_cell_setting 'monoclinic'
loop_
_space_group_symop_operation_xyz
x,y,z
-x,y,1/2-z
-x,-y,-z
x,-y,1/2+z
1/2+x,1/2+y,z
1/2-x,1/2+y,1/2-z
1/2-x,1/2-y,-z
1/2+x,1/2-y,1/2+z
loop_
_atom_site_type_symbol
_atom_site_label
_atom_site_fract_x
_atom_site_fract_y
_atom_site_fract_z
Si Si1 0.170371 0.726433 0.292104
Si Si2 0.500000 0.305948 0.250000
Si Si3 0.000000 0.365981 0.250000
Si Si4 0.715156 0.084108 0.833319
Si Si5 0.199697 0.478968 0.620375
O O1 0.064905 0.688004 0.545388
O O2 0.239125 0.818880 0.253819
O O3 0.077937 0.747541 0.269609
O O4 0.327758 0.661365 0.048289
O O5 0.848780 0.429956 0.388034
O O6 0.787753 0.015069 0.641001
O O7 0.498440 0.064407 0.106142
O O8 0.788912 0.068867 0.886769
#
# Coordination Sequence:
#
# PCOD9287741 Si02
#       5
#     8   4   4   8   8
#     4  11  22  41  63  97 128 168 210 265 314 378
#     4  10  24  37  60  91 136 166 206 258 326 373
#     4  10  22  37  66  95 128 160 214 264 316 367
#     4   9  18  33  60  84 116 154 213 254 291 353
#     4   9  19  37  60  90 120 171 213 244 298 401
#
# _framework density 26.621952
#
# number of rings (size 3 to 8) (size 9 to 14) (size 15 to 20)
#    0.000    2.500    0.000    3.000    0.000   16.000 
#    0.000    0.000    0.000   28.500    0.000    0.000 
#    0.000    0.000    0.000    0.000    0.000    0.000 
#
# Total GULP energy -89324.086606 kJ/mol
# GULP energy per Si atom -5582.755413 kJ/mol
# Density = 2.656136 g / cm^3
# Si number density = 26.621952 Si / 1000 Ang^3
#
#
#
# Elastic Constant Matrix: (Units=GPa)
#
#
# Indices 1 2 3 4 5 6 
#
# 1 84.9835 16.1463 27.6418 -0.0014 44.5602 -0.0018
# 2 16.1463 146.0901 18.9180 -0.0008 39.8545 -0.0006
# 3 27.6418 18.9180 94.7834 -0.0042 38.8398 0.0020
# 4 -0.0014 -0.0008 -0.0042 36.6842 0.0025 21.7193
# 5 44.5602 39.8545 38.8398 0.0025 52.2412 -0.0006
# 6 -0.0018 -0.0006 0.0020 21.7193 -0.0006 17.0377
#
#
#
# Elastic Compliance Matrix: (Units=1/GPa)
#
#
# Indices 1 2 3 4 5 6 
#
# 1 0.023022 0.003786 0.002532 0.000009 -0.024409 -0.000009
# 2 0.003786 0.009399 0.001843 0.000005 -0.011770 -0.000007
# 3 0.002532 0.001843 0.015683 0.000017 -0.015226 -0.000024
# 4 0.000009 0.000005 0.000017 0.111151 -0.000031 -0.141693
# 5 -0.024409 -0.011770 -0.015226 -0.000031 0.060262 0.000041
# 6 -0.000009 -0.000007 -0.000024 -0.141693 0.000041 0.239322
#
#
# Mechanical properties :
#
#
# Convention : Reuss Voigt Hill
#
# Bulk Modulus (GPa) = 15.52116 50.14101 32.83109
# Shear Modulus (GPa) = 10.77606 38.73600 24.75603
#
# Velocity S-wave (km/s) = 2.01410 3.81864 3.05275
# Velocity P-wave (km/s) = 3.35435 6.19015 4.97844
#
# Compressibility (1/GPa) = 0.06442817
#
# Stress axis : x y z
#
# Youngs Moduli (GPa) = 43.43600 106.39435 63.76222
#
# Poissons Ratio (x) = -0.40286 -0.16147
# Poissons Ratio (y) = -0.16447 -0.11751
# Poissons Ratio (z) = -0.10999 -0.19608
#
# Static dielectric constant tensor:
#      x y z
#    x 2.181730 0.000000 -0.163580 
#    y 0.000000 2.249860 0.000000 
#    z -0.163580 0.000000 2.235070 
# 
# From -- ./inp_files/105619.got.cif
#   From: 2010.05.17/outbox.cif.g08.bks.cpg/sg15_53_cif.got.tgz:105619.got - 2010.06.03 18:47:42.
