data_PCOD9287523
_publ_section_title
;
Structure prediction by ZEFSAII (Michael W. Deem and Ramdas Pophale) SiO2 
 PCOD9287523
Probable space group: C 2/C
;
_chemical_formula_sum "Si O2"
_cell_formula_units_Z 64
_cell_length_a 21.288320
_cell_length_b 15.132296
_cell_length_c 9.693274
_cell_angle_alpha 90.000000
_cell_angle_beta 103.753745
_cell_angle_gamma 90.000000
_cell_volume 3033.066683
_symmetry_space_group_name_H-M "C 2/C"
_symmetry_group_IT_number 15
_symmetry_cell_setting 'monoclinic'
loop_
_space_group_symop_operation_xyz
x,y,z
-x,y,1/2-z
-x,-y,-z
x,-y,1/2+z
1/2+x,1/2+y,z
1/2-x,1/2+y,1/2-z
1/2-x,1/2-y,-z
1/2+x,1/2-y,1/2+z
loop_
_atom_site_type_symbol
_atom_site_label
_atom_site_fract_x
_atom_site_fract_y
_atom_site_fract_z
Si Si1 0.135415 0.493016 0.466708
Si Si2 0.152710 0.966617 0.806410
Si Si3 0.743139 0.114149 0.592717
Si Si4 0.802752 0.722386 0.188639
Si Si5 0.937607 0.219882 0.801618
Si Si6 0.769987 0.343368 0.947138
Si Si7 0.940689 0.425502 0.818887
Si Si8 0.929433 0.956090 0.473287
O O1 0.180622 0.555972 0.583310
O O2 0.184364 0.413161 0.448490
O O3 0.077507 0.465925 0.541032
O O4 0.115375 0.547929 0.320513
O O5 0.204447 0.888934 0.856922
O O6 0.195078 0.052041 0.868158
O O7 0.121603 0.985385 0.641809
O O8 0.094715 0.954640 0.883165
O O9 0.755567 0.196091 0.698136
O O10 0.731959 0.160827 0.439485
O O11 0.871265 0.764847 0.180038
O O12 0.814217 0.673763 0.336690
O O13 0.952766 0.320988 0.852939
O O14 0.926543 0.143434 0.908629
O O15 0.000000 0.188620 0.750000
O O16 0.750000 0.250000 0.000000
O O17 0.000000 0.455306 0.750000
O O18 0.000000 0.000000 0.500000
#
# Coordination Sequence:
#
# PCOD9287523 Si02
#       8
#     8   8   8   8   8   8   8   8
#     4  11  22  41  66  95 128 166 219 265 331 393
#     4  11  24  41  67  95 131 168 219 269 334 390
#     4  10  22  36  68  95 128 164 218 268 322 396
#     4  11  20  41  61  97 130 169 217 262 325 390
#     4  11  22  41  66  91 132 175 221 262 324 391
#     4  11  24  38  62  93 133 167 205 270 339 383
#     4  11  24  42  67  93 128 174 220 271 321 389
#     4  12  25  44  69  95 130 177 222 271 327 397
#
# _framework density 21.100757999999999
#
# number of rings (size 3 to 8) (size 9 to 14) (size 15 to 20)
#    0.000    1.000    3.750    3.000    1.750    2.000 
#    0.000    0.000    2.750    0.000    0.000    0.000 
#    0.000    0.000    0.000    0.000    0.000    0.000 
#
# Total GULP energy -178352.887979 kJ/mol
# GULP energy per Si atom -5573.527749 kJ/mol
# Density = 2.105273 g / cm^3
# Si number density = 21.100758 Si / 1000 Ang^3
#
#
#
# Elastic Constant Matrix: (Units=GPa)
#
#
# Indices 1 2 3 4 5 6 
#
# 1 66.9136 9.9910 0.1396 0.0000 7.3398 0.0000
# 2 9.9910 87.8865 15.8986 0.0000 8.1957 0.0000
# 3 0.1396 15.8986 55.3172 0.0000 4.3803 0.0000
# 4 0.0000 0.0000 0.0000 21.7064 0.0000 9.1977
# 5 7.3398 8.1957 4.3803 0.0000 34.2479 0.0000
# 6 0.0000 0.0000 0.0000 9.1977 0.0000 25.7898
#
#
#
# Elastic Compliance Matrix: (Units=1/GPa)
#
#
# Indices 1 2 3 4 5 6 
#
# 1 0.015514 -0.001601 0.000661 0.000000 -0.003026 0.000000
# 2 -0.001601 0.012376 -0.003380 0.000000 -0.002186 0.000000
# 3 0.000661 -0.003380 0.019189 0.000000 -0.001787 0.000000
# 4 0.000000 0.000000 0.000000 0.054271 0.000000 -0.019355
# 5 -0.003026 -0.002186 -0.001787 0.000000 0.030599 0.000000
# 6 0.000000 0.000000 0.000000 -0.019355 0.000000 0.045678
#
#
# Mechanical properties :
#
#
# Convention : Reuss Voigt Hill
#
# Bulk Modulus (GPa) = 26.01557 29.13065 27.57311
# Shear Modulus (GPa) = 25.11558 28.62134 26.86846
#
# Velocity S-wave (km/s) = 3.45377 3.68695 3.57226
# Velocity P-wave (km/s) = 5.31608 5.65334 5.48730
#
# Compressibility (1/GPa) = 0.03843852
#
# Stress axis : x y z
#
# Youngs Moduli (GPa) = 64.45680 80.80438 52.11382
#
# Poissons Ratio (x) = 0.12937 -0.03443
# Poissons Ratio (y) = 0.10319 0.17613
# Poissons Ratio (z) = -0.04258 0.27309
#
# Static dielectric constant tensor:
#      x y z
#    x 1.821340 0.000000 0.031810 
#    y 0.000000 1.797690 0.000000 
#    z 0.031810 0.000000 1.756700 
# 
# From -- ./inp_files/112744.got.cif
#   From: 2010.05.17/outbox.cif.g08.bks.cpg/sg15_57_cif.got.tgz:112744.got - 2010.06.03 18:47:42.
