data_PCOD9287969
_publ_section_title
;
Structure prediction by ZEFSAII (Michael W. Deem and Ramdas Pophale) SiO2 
 PCOD9287969
Probable space group: C 2/C
;
_chemical_formula_sum "Si O2"
_cell_formula_units_Z 64
_cell_length_a 23.920528
_cell_length_b 8.366438
_cell_length_c 27.939284
_cell_angle_alpha 90.000000
_cell_angle_beta 30.345527
_cell_angle_gamma 90.000000
_cell_volume 2824.890323
_symmetry_space_group_name_H-M "C 2/C"
_symmetry_group_IT_number 15
_symmetry_cell_setting 'monoclinic'
loop_
_space_group_symop_operation_xyz
x,y,z
-x,y,1/2-z
-x,-y,-z
x,-y,1/2+z
1/2+x,1/2+y,z
1/2-x,1/2+y,1/2-z
1/2-x,1/2-y,-z
1/2+x,1/2-y,1/2+z
loop_
_atom_site_type_symbol
_atom_site_label
_atom_site_fract_x
_atom_site_fract_y
_atom_site_fract_z
Si Si1 0.399729 0.452459 0.935242
Si Si2 0.238261 0.087395 0.539361
Si Si3 0.256511 0.750353 0.333634
Si Si4 0.413549 0.565686 0.279307
Si Si5 0.202182 0.099593 0.345938
Si Si6 0.896445 0.412172 0.624203
Si Si7 0.120694 0.725812 0.990099
Si Si8 0.046539 0.760878 0.890010
O O1 0.297737 0.451269 0.972539
O O2 0.511349 0.482690 0.821208
O O3 0.434890 0.308950 0.944699
O O4 0.379765 0.607757 0.981505
O O5 0.250000 0.250000 0.500000
O O6 0.342308 0.092156 0.498628
O O7 0.136686 0.079200 0.652438
O O8 0.312532 0.678487 0.339139
O O9 0.163641 0.635480 0.380276
O O10 0.358179 0.748693 0.220769
O O11 0.213059 0.930572 0.364412
O O12 0.500000 0.655086 0.250000
O O13 0.304287 0.111415 0.233766
O O14 0.200124 0.242903 0.385947
O O15 0.091381 0.111052 0.395433
O O16 0.943397 0.590693 0.591860
O O17 0.999356 0.302112 0.560027
#
# Coordination Sequence:
#
# PCOD9287969 Si02
#       8
#     8   8   8   8   8   8   8   8
#     4   9  19  38  63  83 119 161 209 251 312 366
#     4   9  20  38  59  89 122 152 209 259 298 374
#     4   9  19  37  62  90 125 162 209 257 315 386
#     4   9  18  36  68  89 114 167 207 257 311 365
#     4  10  22  39  60  90 128 164 206 260 322 378
#     4  10  22  38  60  94 128 163 204 266 317 374
#     4  11  23  37  61  91 128 163 211 253 312 387
#     4   9  19  37  61  90 122 162 209 261 315 379
#
# _framework density 22.655747999999999
#
# number of rings (size 3 to 8) (size 9 to 14) (size 15 to 20)
#    0.000    2.500    0.000    0.750    3.500    4.500 
#    2.250    0.625   30.250    0.000    0.000    0.000 
#    0.000    0.000    0.000    0.000    0.000    0.000 
#
# Total GULP energy -178490.303954 kJ/mol
# GULP energy per Si atom -5577.821999 kJ/mol
# Density = 2.260418 g / cm^3
# Si number density = 22.655748 Si / 1000 Ang^3
#
#
#
# Elastic Constant Matrix: (Units=GPa)
#
#
# Indices 1 2 3 4 5 6 
#
# 1 171.7891 56.6640 40.2926 0.0003 -24.7902 -0.0006
# 2 56.6640 72.8444 20.8217 0.0006 -7.8749 0.0003
# 3 40.2926 20.8217 71.9677 -0.0001 8.5339 -0.0008
# 4 0.0003 0.0006 -0.0001 23.0440 -0.0003 -8.2470
# 5 -24.7902 -7.8749 8.5339 -0.0003 25.6142 0.0006
# 6 -0.0006 0.0003 -0.0008 -8.2470 0.0006 9.5160
#
#
#
# Elastic Compliance Matrix: (Units=1/GPa)
#
#
# Indices 1 2 3 4 5 6 
#
# 1 0.010340 -0.005392 -0.005434 0.000000 0.010160 0.000000
# 2 -0.005392 0.018819 -0.002596 -0.000001 0.001432 -0.000002
# 3 -0.005434 -0.002596 0.019164 0.000001 -0.012442 0.000003
# 4 0.000000 -0.000001 0.000001 0.062906 -0.000001 0.054517
# 5 0.010160 0.001432 -0.012442 -0.000001 0.053460 -0.000005
# 6 0.000000 -0.000002 0.000003 0.054517 -0.000005 0.152333
#
#
# Mechanical properties :
#
#
# Convention : Reuss Voigt Hill
#
# Bulk Modulus (GPa) = 46.55558 61.35088 53.95323
# Shear Modulus (GPa) = 14.24399 24.88970 19.56685
#
# Velocity S-wave (km/s) = 2.51014 3.31812 2.94200
# Velocity P-wave (km/s) = 5.38468 6.46670 5.95034
#
# Compressibility (1/GPa) = 0.02147970
#
# Stress axis : x y z
#
# Youngs Moduli (GPa) = 96.70864 53.13809 52.18133
#
# Poissons Ratio (x) = 0.28651 0.28356
# Poissons Ratio (y) = 0.52144 0.13545
# Poissons Ratio (z) = 0.52553 0.13793
#
# Static dielectric constant tensor:
#      x y z
#    x 1.895440 0.000000 0.015640 
#    y 0.000000 1.832990 0.000000 
#    z 0.015640 0.000000 1.848990 
# 
# From -- ./inp_files/318622.got.cif
#   From: 2010.05.17/outbox.cif.g08.bks.cpg/sg15_160_cif.got.tgz:318622.got - 2010.06.03 18:47:42.
