data_PCOD9287766
_publ_section_title
;
Structure prediction by ZEFSAII (Michael W. Deem and Ramdas Pophale) SiO2 
 PCOD9287766
Probable space group: C 2/C
;
_chemical_formula_sum "Si O2"
_cell_formula_units_Z 32
_cell_length_a 8.410525
_cell_length_b 18.403570
_cell_length_c 10.020992
_cell_angle_alpha 90.000000
_cell_angle_beta 111.156632
_cell_angle_gamma 90.000000
_cell_volume 1446.538613
_symmetry_space_group_name_H-M "C 2/C"
_symmetry_group_IT_number 15
_symmetry_cell_setting 'monoclinic'
loop_
_space_group_symop_operation_xyz
x,y,z
-x,y,1/2-z
-x,-y,-z
x,-y,1/2+z
1/2+x,1/2+y,z
1/2-x,1/2+y,1/2-z
1/2-x,1/2-y,-z
1/2+x,1/2-y,1/2+z
loop_
_atom_site_type_symbol
_atom_site_label
_atom_site_fract_x
_atom_site_fract_y
_atom_site_fract_z
Si Si1 0.278025 0.572747 0.359921
Si Si2 0.592628 0.412308 0.136605
Si Si3 0.150612 0.697776 0.872744
Si Si4 0.537845 0.083024 0.050438
O O1 0.301405 0.484928 0.367662
O O2 0.454549 0.599598 0.476919
O O3 0.209874 0.589516 0.191286
O O4 0.126470 0.600761 0.409125
O O5 0.500000 0.425256 0.250000
O O6 0.714905 0.343316 0.180373
O O7 0.000000 0.737545 0.750000
O O8 0.250000 0.750000 0.000000
O O9 0.060535 0.634610 0.932019
O O10 0.500000 0.000000 0.000000
#
# Coordination Sequence:
#
# PCOD9287766 Si02
#       4
#     8   8   8   8
#     4  10  22  37  71 103 130 173 224 291 347 412
#     4  11  23  41  66 103 140 173 225 291 353 404
#     4  12  28  47  70  97 144 190 233 281 348 429
#     4  11  21  42  69  99 136 174 233 285 349 397
#
# _framework density 22.121773999999998
#
# number of rings (size 3 to 8) (size 9 to 14) (size 15 to 20)
#    0.000    1.000    2.500    4.500    7.000    0.000 
#    4.500    2.500    0.000    0.000    0.000    0.000 
#    0.000    0.000    0.000    0.000    0.000    0.000 
#
# Total GULP energy -89456.570596 kJ/mol
# GULP energy per Si atom -5591.035662 kJ/mol
# Density = 2.207142 g / cm^3
# Si number density = 22.121774 Si / 1000 Ang^3
#
#
#
# Elastic Constant Matrix: (Units=GPa)
#
#
# Indices 1 2 3 4 5 6 
#
# 1 80.3568 21.9624 32.5915 0.0000 7.8396 0.0000
# 2 21.9624 40.9580 2.8992 0.0000 2.8783 0.0000
# 3 32.5915 2.8992 114.8385 0.0000 38.9595 0.0000
# 4 0.0000 0.0000 0.0000 26.8328 0.0000 6.7580
# 5 7.8396 2.8783 38.9595 0.0000 54.2732 0.0000
# 6 0.0000 0.0000 0.0000 6.7580 0.0000 15.7304
#
#
#
# Elastic Compliance Matrix: (Units=1/GPa)
#
#
# Indices 1 2 3 4 5 6 
#
# 1 0.016737 -0.008734 -0.005111 0.000000 0.001715 0.000000
# 2 -0.008734 0.029069 0.002432 0.000000 -0.002026 0.000000
# 3 -0.005111 0.002432 0.013074 0.000000 -0.008776 0.000000
# 4 0.000000 0.000000 0.000000 0.041789 0.000000 -0.017953
# 5 0.001715 -0.002026 -0.008776 0.000000 0.024585 0.000000
# 6 0.000000 0.000000 0.000000 -0.017953 0.000000 0.071284
#
#
# Mechanical properties :
#
#
# Convention : Reuss Voigt Hill
#
# Bulk Modulus (GPa) = 27.73570 39.00662 33.37116
# Shear Modulus (GPa) = 21.60924 31.28063 26.44493
#
# Velocity S-wave (km/s) = 3.12882 3.76443 3.46124
# Velocity P-wave (km/s) = 5.06139 6.04694 5.57598
#
# Compressibility (1/GPa) = 0.03605462
#
# Stress axis : x y z
#
# Youngs Moduli (GPa) = 59.74698 34.40143 76.48561
#
# Poissons Ratio (x) = 0.30045 0.39094
# Poissons Ratio (y) = 0.52180 -0.18601
# Poissons Ratio (z) = 0.30538 -0.08366
#
# Static dielectric constant tensor:
#      x y z
#    x 1.825370 0.000000 -0.014280 
#    y 0.000000 1.784210 0.000000 
#    z -0.014280 0.000000 2.034650 
# 
# From -- ./inp_files/22119.got.cif
#   From: 2010.05.17/outbox.cif.g08.bks.cpg/sg15_12_cif.got.tgz:22119.got - 2010.06.03 18:47:42.
