data_PCOD9287771
_publ_section_title
;
Structure prediction by ZEFSAII (Michael W. Deem and Ramdas Pophale) SiO2 
 PCOD9287771
Probable space group: C 2/C
;
_chemical_formula_sum "Si O2"
_cell_formula_units_Z 52
_cell_length_a 20.982296
_cell_length_b 11.299735
_cell_length_c 16.257437
_cell_angle_alpha 90.000000
_cell_angle_beta 44.962523
_cell_angle_gamma 90.000000
_cell_volume 2723.792961
_symmetry_space_group_name_H-M "C 2/C"
_symmetry_group_IT_number 15
_symmetry_cell_setting 'monoclinic'
loop_
_space_group_symop_operation_xyz
x,y,z
-x,y,1/2-z
-x,-y,-z
x,-y,1/2+z
1/2+x,1/2+y,z
1/2-x,1/2+y,1/2-z
1/2-x,1/2-y,-z
1/2+x,1/2-y,1/2+z
loop_
_atom_site_type_symbol
_atom_site_label
_atom_site_fract_x
_atom_site_fract_y
_atom_site_fract_z
Si Si1 0.925335 0.810280 0.881207
Si Si2 0.190399 0.978552 0.046559
Si Si3 0.114695 0.386024 0.676224
Si Si4 0.390114 0.735758 0.982053
Si Si5 0.961793 0.132986 0.534173
Si Si6 0.500000 0.916375 0.250000
Si Si7 0.307516 0.328913 0.295164
O O1 0.000000 0.862891 0.750000
O O2 0.928054 0.671729 0.856474
O O3 0.837653 0.887537 0.944040
O O4 0.956721 0.824535 0.945436
O O5 0.177620 0.932777 0.151397
O O6 0.292476 0.949597 0.932123
O O7 0.133914 0.890583 0.038402
O O8 0.085308 0.318528 0.618638
O O9 0.050550 0.492153 0.763098
O O10 0.139937 0.285213 0.717179
O O11 0.469527 0.711940 0.973902
O O12 0.298293 0.790934 0.106199
O O13 0.860782 0.137000 0.664496
O O14 0.000000 0.000000 0.500000
#
# Coordination Sequence:
#
# PCOD9287771 Si02
#       7
#     8   8   8   8   8   4   8
#     4  10  23  38  52  79 120 151 199 231 288 363
#     4   9  17  36  61  87 111 149 192 249 289 351
#     4   9  18  38  63  81 117 155 196 239 290 359
#     4   9  19  36  61  93 116 140 200 250 299 342
#     4  12  21  36  61  90 119 150 192 248 300 348
#     4  10  22  38  52  80 112 162 194 224 294 358
#     4   9  20  36  63  93 112 148 201 250 297 340
#
# _framework density 19.091024999999998
#
# number of rings (size 3 to 8) (size 9 to 14) (size 15 to 20)
#    0.462    1.846    1.538    3.692    0.000    1.846 
#    2.769    6.154    0.000    0.000    0.000    0.000 
#    0.000    0.000    0.000    0.000    0.000    0.000 
#
# Total GULP energy -144796.759872 kJ/mol
# GULP energy per Si atom -5569.106149 kJ/mol
# Density = 1.904757 g / cm^3
# Si number density = 19.091025 Si / 1000 Ang^3
#
#
#
# Elastic Constant Matrix: (Units=GPa)
#
#
# Indices 1 2 3 4 5 6 
#
# 1 50.3315 19.3890 13.0196 0.0000 1.6948 0.0000
# 2 19.3890 106.9303 13.8101 0.0000 -13.8721 0.0000
# 3 13.0196 13.8101 91.2786 0.0000 1.3187 0.0000
# 4 0.0000 0.0000 0.0000 14.0187 0.0000 -15.9350
# 5 1.6948 -13.8721 1.3187 0.0000 14.2499 0.0000
# 6 0.0000 0.0000 0.0000 -15.9350 0.0000 29.8124
#
#
#
# Elastic Compliance Matrix: (Units=1/GPa)
#
#
# Indices 1 2 3 4 5 6 
#
# 1 0.022531 -0.004686 -0.002403 0.000000 -0.007019 0.000000
# 2 -0.004686 0.011972 -0.001321 0.000000 0.012334 0.000000
# 3 -0.002403 -0.001321 0.011528 0.000000 -0.002067 0.000000
# 4 0.000000 0.000000 0.000000 0.181773 0.000000 0.097159
# 5 -0.007019 0.012334 -0.002067 0.000000 0.083210 0.000000
# 6 0.000000 0.000000 0.000000 0.097159 0.000000 0.085475
#
#
# Mechanical properties :
#
#
# Convention : Reuss Voigt Hill
#
# Bulk Modulus (GPa) = 34.23355 37.88642 36.05999
# Shear Modulus (GPa) = 11.81901 25.10432 18.46167
#
# Velocity S-wave (km/s) = 2.49085 3.63020 3.11309
# Velocity P-wave (km/s) = 5.12280 6.12041 5.64369
#
# Compressibility (1/GPa) = 0.02921111
#
# Stress axis : x y z
#
# Youngs Moduli (GPa) = 44.38259 83.52623 86.74494
#
# Poissons Ratio (x) = 0.39137 0.20849
# Poissons Ratio (y) = 0.20796 0.11461
# Poissons Ratio (z) = 0.10667 0.11036
#
# Static dielectric constant tensor:
#      x y z
#    x 1.693950 0.000000 -0.041930 
#    y 0.000000 1.661370 0.000000 
#    z -0.041930 0.000000 1.685700 
# 
# From -- ./inp_files/172927.got.cif
#   From: 2010.05.17/outbox.cif.g08.bks.cpg/sg15_87_cif.got.tgz:172927.got - 2010.06.03 18:47:42.
