data_PCOD9287222
_publ_section_title
;
Structure prediction by ZEFSAII (Michael W. Deem and Ramdas Pophale) SiO2 
 PCOD9287222
Probable space group: C 2/C
;
_chemical_formula_sum "Si O2"
_cell_formula_units_Z 40
_cell_length_a 21.952479
_cell_length_b 8.754882
_cell_length_c 8.818112
_cell_angle_alpha 90.000000
_cell_angle_beta 84.651894
_cell_angle_gamma 90.000000
_cell_volume 1687.387302
_symmetry_space_group_name_H-M "C 2/C"
_symmetry_group_IT_number 15
_symmetry_cell_setting 'monoclinic'
loop_
_space_group_symop_operation_xyz
x,y,z
-x,y,1/2-z
-x,-y,-z
x,-y,1/2+z
1/2+x,1/2+y,z
1/2-x,1/2+y,1/2-z
1/2-x,1/2-y,-z
1/2+x,1/2-y,1/2+z
loop_
_atom_site_type_symbol
_atom_site_label
_atom_site_fract_x
_atom_site_fract_y
_atom_site_fract_z
Si Si1 0.804794 0.850259 0.785929
Si Si2 0.136848 0.843177 0.221328
Si Si3 0.577121 0.863644 0.511385
Si Si4 0.326828 0.878011 0.531577
Si Si5 0.750000 0.250000 0.000000
Si Si6 0.500000 0.084514 0.750000
O O1 0.742244 0.899301 0.889881
O O2 0.792806 0.841244 0.611558
O O3 0.857874 0.976036 0.783035
O O4 0.821930 0.692126 0.864904
O O5 0.088267 0.781317 0.113412
O O6 0.134556 0.745389 0.378622
O O7 0.203361 0.789386 0.149319
O O8 0.544611 0.832410 0.359053
O O9 0.640596 0.957963 0.472514
O O10 0.539386 0.979001 0.627781
#
# Coordination Sequence:
#
# PCOD9287222 Si02
#       6
#     8   8   8   8   4   4
#     4  10  22  39  61  95 138 168 205 247 316 401
#     4  11  21  37  61  94 126 167 207 258 309 382
#     4  11  22  42  67  92 118 168 217 279 324 387
#     4  10  22  39  61  94 135 171 202 254 321 395
#     4  10  22  34  58  92 132 166 198 236 312 396
#     4  10  24  42  66  90 120 162 232 278 338 380
#
# _framework density 23.705286000000001
#
# number of rings (size 3 to 8) (size 9 to 14) (size 15 to 20)
#    0.000    1.600    2.000    2.400    2.800    8.000 
#    0.000    0.000    0.000    7.200    0.000    0.000 
#    0.000    0.000    0.000    0.000    0.000    0.000 
#
# Total GULP energy -111365.535299 kJ/mol
# GULP energy per Si atom -5568.276765 kJ/mol
# Density = 2.365133 g / cm^3
# Si number density = 23.705286 Si / 1000 Ang^3
#
#
#
# Elastic Constant Matrix: (Units=GPa)
#
#
# Indices 1 2 3 4 5 6 
#
# 1 32.6346 24.1399 15.3961 0.0000 21.2735 0.0000
# 2 24.1399 85.4208 38.1071 0.0000 30.0238 0.0000
# 3 15.3961 38.1071 132.4701 0.0000 37.3125 0.0000
# 4 0.0000 0.0000 0.0000 39.7357 0.0000 36.6081
# 5 21.2735 30.0238 37.3125 0.0000 55.1790 0.0000
# 6 0.0000 0.0000 0.0000 36.6081 0.0000 111.0651
#
#
#
# Elastic Compliance Matrix: (Units=1/GPa)
#
#
# Indices 1 2 3 4 5 6 
#
# 1 0.045250 -0.008483 0.000982 0.000000 -0.013494 0.000000
# 2 -0.008483 0.016712 -0.002695 0.000000 -0.004001 0.000000
# 3 0.000982 -0.002695 0.009763 0.000000 -0.005514 0.000000
# 4 0.000000 0.000000 0.000000 0.036141 0.000000 -0.011912
# 5 -0.013494 -0.004001 -0.005514 0.000000 0.029231 0.000000
# 6 0.000000 0.000000 0.000000 -0.011912 0.000000 0.012930
#
#
# Mechanical properties :
#
#
# Convention : Reuss Voigt Hill
#
# Bulk Modulus (GPa) = 19.48020 45.09020 32.28520
# Shear Modulus (GPa) = 26.66227 52.72146 39.69187
#
# Velocity S-wave (km/s) = 3.35735 4.72109 4.09637
# Velocity P-wave (km/s) = 4.82334 6.98432 6.00189
#
# Compressibility (1/GPa) = 0.05133417
#
# Stress axis : x y z
#
# Youngs Moduli (GPa) = 22.09931 59.83585 102.42634
#
# Poissons Ratio (x) = 0.50758 -0.10057
# Poissons Ratio (y) = 0.18747 0.27602
# Poissons Ratio (z) = -0.02170 0.16124
#
# Static dielectric constant tensor:
#      x y z
#    x 1.997250 0.000000 0.043410 
#    y 0.000000 1.980080 0.000000 
#    z 0.043410 0.000000 1.891520 
# 
# From -- ./inp_files/60044.got.cif
#   From: 2010.05.17/outbox.cif.g08.bks.cpg/sg15_31_cif.got.tgz:60044.got - 2010.06.03 18:47:42.
