data_PCOD9287822
_publ_section_title
;
Structure prediction by ZEFSAII (Michael W. Deem and Ramdas Pophale) SiO2 
 PCOD9287822
Probable space group: C 2/C
;
_chemical_formula_sum "Si O2"
_cell_formula_units_Z 52
_cell_length_a 30.563712
_cell_length_b 10.884066
_cell_length_c 12.397971
_cell_angle_alpha 90.000000
_cell_angle_beta 140.965612
_cell_angle_gamma 90.000000
_cell_volume 2597.415166
_symmetry_space_group_name_H-M "C 2/C"
_symmetry_group_IT_number 15
_symmetry_cell_setting 'monoclinic'
loop_
_space_group_symop_operation_xyz
x,y,z
-x,y,1/2-z
-x,-y,-z
x,-y,1/2+z
1/2+x,1/2+y,z
1/2-x,1/2+y,1/2-z
1/2-x,1/2-y,-z
1/2+x,1/2-y,1/2+z
loop_
_atom_site_type_symbol
_atom_site_label
_atom_site_fract_x
_atom_site_fract_y
_atom_site_fract_z
Si Si1 0.057014 0.547020 0.769692
Si Si2 0.500000 0.532507 0.250000
Si Si3 0.868155 0.343606 0.723731
Si Si4 0.704921 0.805517 0.136856
Si Si5 0.694501 0.078157 0.172691
Si Si6 0.436593 0.303437 0.060019
Si Si7 0.997150 0.211550 0.043489
O O1 0.078691 0.438247 0.731508
O O2 0.026790 0.660999 0.646008
O O3 0.000000 0.515645 0.750000
O O4 0.126781 0.583249 0.967121
O O5 0.434947 0.439168 0.110498
O O6 0.505698 0.613676 0.154689
O O7 0.814720 0.306272 0.527766
O O8 0.830782 0.407308 0.752644
O O9 0.916329 0.232918 0.858607
O O10 0.757211 0.694755 0.259538
O O11 0.726923 0.943077 0.213197
O O12 0.632541 0.773612 0.058256
O O13 0.500000 0.245781 0.250000
O O14 0.461307 0.319328 0.985314
#
# Coordination Sequence:
#
# PCOD9287822 Si02
#       7
#     8   4   8   8   8   8   8
#     4  11  23  37  65 102 129 165 222 288 335 388
#     4  10  22  38  58 102 134 174 212 272 350 396
#     4  11  22  39  69  97 129 174 227 280 340 396
#     4  11  25  45  66  94 137 179 228 274 336 408
#     4  11  25  44  64  97 135 182 223 277 338 405
#     4  10  23  40  66  98 130 170 223 278 333 392
#     4  12  20  39  66 101 135 167 221 281 340 403
#
# _framework density 20.019904
#
# number of rings (size 3 to 8) (size 9 to 14) (size 15 to 20)
#    0.462    0.615    3.846    2.308    4.308    2.462 
#    0.000   10.000    0.000    0.000    0.000    0.000 
#    0.000    0.000    0.000    0.000    0.000    0.000 
#
# Total GULP energy -145254.973498 kJ/mol
# GULP energy per Si atom -5586.729750 kJ/mol
# Density = 1.997434 g / cm^3
# Si number density = 20.019904 Si / 1000 Ang^3
#
#
#
# Elastic Constant Matrix: (Units=GPa)
#
#
# Indices 1 2 3 4 5 6 
#
# 1 93.2081 42.4463 38.9673 0.0000 -14.4248 0.0000
# 2 42.4463 110.4736 65.5254 0.0000 -0.3164 0.0000
# 3 38.9673 65.5254 75.5712 0.0000 -9.9193 0.0000
# 4 0.0000 0.0000 0.0000 -316.7377 0.0000 -92.1797
# 5 -14.4248 -0.3164 -9.9193 0.0000 35.6655 0.0000
# 6 0.0000 0.0000 0.0000 -92.1797 0.0000 -3.7525
#
#
#
# Elastic Compliance Matrix: (Units=1/GPa)
#
#
# Indices 1 2 3 4 5 6 
#
# 1 0.014643 -0.003090 -0.004252 0.000000 0.004712 0.000000
# 2 -0.003090 0.020009 -0.016499 0.000000 -0.005661 0.000000
# 3 -0.004252 -0.016499 0.030603 0.000000 0.006645 0.000000
# 4 0.000000 0.000000 0.000000 0.000513 0.000000 -0.012613
# 5 0.004712 -0.005661 0.006645 0.000000 0.031742 0.000000
# 6 0.000000 0.000000 0.000000 -0.012613 0.000000 0.043338
#
#
# Mechanical properties :
#
#
# Convention : Reuss Voigt Hill
#
# Bulk Modulus (GPa) = 56.90863 63.68123 60.29493
# Shear Modulus (GPa) = 25.72161 -48.14400 -11.21119
#
# Velocity S-wave (km/s) = 3.58830 -4.90920 -2.36900
# Velocity P-wave (km/s) = 6.75689 0.50566 4.76445
#
# Compressibility (1/GPa) = 0.01757203
#
# Stress axis : x y z
#
# Youngs Moduli (GPa) = 68.29158 49.97733 32.67659
#
# Poissons Ratio (x) = 0.15445 0.13895
# Poissons Ratio (y) = 0.21105 0.53912
# Poissons Ratio (z) = 0.29040 0.82456
#
# Static dielectric constant tensor:
#      x y z
#    x 1.690440 0.000000 0.002400 
#    y 0.000000 1.741670 0.000000 
#    z 0.002400 0.000000 1.711940 
# 
# From -- ./inp_files/126480.got.cif
#   From: 2010.05.17/outbox.cif.g08.bks.cpg/sg15_64_cif.got.tgz:126480.got - 2010.06.03 18:47:42.
