data_PCOD9287469
_publ_section_title
;
Structure prediction by ZEFSAII (Michael W. Deem and Ramdas Pophale) SiO2 
 PCOD9287469
Probable space group: C 2/C
;
_chemical_formula_sum "Si O2"
_cell_formula_units_Z 64
_cell_length_a 16.190675
_cell_length_b 10.013453
_cell_length_c 28.021310
_cell_angle_alpha 90.000000
_cell_angle_beta 141.193046
_cell_angle_gamma 90.000000
_cell_volume 2847.054863
_symmetry_space_group_name_H-M "C 2/C"
_symmetry_group_IT_number 15
_symmetry_cell_setting 'monoclinic'
loop_
_space_group_symop_operation_xyz
x,y,z
-x,y,1/2-z
-x,-y,-z
x,-y,1/2+z
1/2+x,1/2+y,z
1/2-x,1/2+y,1/2-z
1/2-x,1/2-y,-z
1/2+x,1/2-y,1/2+z
loop_
_atom_site_type_symbol
_atom_site_label
_atom_site_fract_x
_atom_site_fract_y
_atom_site_fract_z
Si Si1 0.094201 0.291420 0.528333
Si Si2 0.056945 0.447760 0.955004
Si Si3 0.123232 0.536244 0.772226
Si Si4 0.134672 0.877880 0.602506
Si Si5 0.292092 0.659506 0.613582
Si Si6 0.844293 0.891816 0.687933
Si Si7 0.188933 0.754120 0.729688
Si Si8 0.462979 0.790322 0.821914
O O1 0.057787 0.395414 0.468811
O O2 0.250260 0.299221 0.611520
O O3 0.031526 0.368301 0.545916
O O4 0.016406 0.153122 0.482873
O O5 0.017650 0.391082 0.886464
O O6 0.204000 0.399880 0.031869
O O7 0.277181 0.514798 0.857862
O O8 0.120221 0.629646 0.724263
O O9 0.089435 0.386041 0.742719
O O10 0.000000 0.578397 0.750000
O O11 0.215883 0.781425 0.603329
O O12 0.137042 0.819942 0.657798
O O13 0.307488 0.542771 0.658828
O O14 0.428747 0.698585 0.652285
O O15 0.811496 0.861410 0.727838
O O16 0.000000 0.873932 0.750000
O O17 0.339306 0.712840 0.787315
#
# Coordination Sequence:
#
# PCOD9287469 Si02
#       8
#     8   8   8   8   8   8   8   8
#     4   9  18  38  60  94 124 171 203 264 322 383
#     4   9  17  34  62  92 132 154 203 254 331 378
#     4  11  23  40  57  89 127 168 209 256 325 368
#     4  10  22  38  64  89 125 162 212 263 318 371
#     4  10  22  36  63  98 123 156 202 277 318 363
#     4  11  24  40  65  89 129 165 212 260 325 384
#     4  11  25  38  62  91 129 170 212 252 316 395
#     4  11  21  37  63  97 122 160 217 270 301 371
#
# _framework density 22.479371
#
# number of rings (size 3 to 8) (size 9 to 14) (size 15 to 20)
#    0.000    1.750    2.500    2.250    7.000    0.000 
#    0.000    1.250    0.000    3.000    0.000    0.000 
#    0.000    0.000    0.000    0.000    0.000    0.000 
#
# Total GULP energy -178531.566602 kJ/mol
# GULP energy per Si atom -5579.111456 kJ/mol
# Density = 2.242821 g / cm^3
# Si number density = 22.479371 Si / 1000 Ang^3
#
#
#
# Elastic Constant Matrix: (Units=GPa)
#
#
# Indices 1 2 3 4 5 6 
#
# 1 85.7901 -5.8021 10.8124 0.0000 9.0820 0.0000
# 2 -5.8021 28.6098 -10.3208 0.0000 -0.2030 0.0000
# 3 10.8124 -10.3208 103.0145 0.0000 5.0921 0.0000
# 4 0.0000 0.0000 0.0000 21.8214 0.0000 -3.6149
# 5 9.0820 -0.2030 5.0921 0.0000 30.6164 0.0000
# 6 0.0000 0.0000 0.0000 -3.6149 0.0000 28.7574
#
#
#
# Elastic Compliance Matrix: (Units=1/GPa)
#
#
# Indices 1 2 3 4 5 6 
#
# 1 0.012283 0.002141 -0.000903 0.000000 -0.003479 0.000000
# 2 0.002141 0.036641 0.003494 0.000000 -0.000973 0.000000
# 3 -0.000903 0.003494 0.010222 0.000000 -0.001409 0.000000
# 4 0.000000 0.000000 0.000000 0.046801 0.000000 0.005883
# 5 -0.003479 -0.000973 -0.001409 0.000000 0.033922 0.000000
# 6 0.000000 0.000000 0.000000 0.005883 0.000000 0.035513
#
#
# Mechanical properties :
#
#
# Convention : Reuss Voigt Hill
#
# Bulk Modulus (GPa) = 14.57503 22.97706 18.77604
# Shear Modulus (GPa) = 26.48468 31.08734 28.78601
#
# Velocity S-wave (km/s) = 3.43618 3.72281 3.58236
# Velocity P-wave (km/s) = 4.71603 5.35935 5.04795
#
# Compressibility (1/GPa) = 0.06861051
#
# Stress axis : x y z
#
# Youngs Moduli (GPa) = 81.41174 27.29194 97.82940
#
# Poissons Ratio (x) = -0.05842 0.08832
# Poissons Ratio (y) = -0.17428 -0.34185
# Poissons Ratio (z) = 0.07350 -0.09537
#
# Static dielectric constant tensor:
#      x y z
#    x 1.793090 0.000000 0.034750 
#    y 0.000000 1.844620 0.000000 
#    z 0.034750 0.000000 1.927210 
# 
# From -- ./inp_files/313602.got.cif
#   From: 2010.05.17/outbox.cif.g08.bks.cpg/sg15_157_cif.got.tgz:313602.got - 2010.06.03 18:47:42.
