data_PCOD9287083
_publ_section_title
;
Structure prediction by ZEFSAII (Michael W. Deem and Ramdas Pophale) SiO2 
 PCOD9287083
Probable space group: C 2/C
;
_chemical_formula_sum "Si O2"
_cell_formula_units_Z 56
_cell_length_a 14.212698
_cell_length_b 11.463147
_cell_length_c 13.335221
_cell_angle_alpha 90.000000
_cell_angle_beta 103.627627
_cell_angle_gamma 90.000000
_cell_volume 2111.439937
_symmetry_space_group_name_H-M "C 2/C"
_symmetry_group_IT_number 15
_symmetry_cell_setting 'monoclinic'
loop_
_space_group_symop_operation_xyz
x,y,z
-x,y,1/2-z
-x,-y,-z
x,-y,1/2+z
1/2+x,1/2+y,z
1/2-x,1/2+y,1/2-z
1/2-x,1/2-y,-z
1/2+x,1/2-y,1/2+z
loop_
_atom_site_type_symbol
_atom_site_label
_atom_site_fract_x
_atom_site_fract_y
_atom_site_fract_z
Si Si1 0.211428 0.948633 0.459435
Si Si2 0.893604 0.185095 0.409303
Si Si3 0.897421 0.027702 0.769582
Si Si4 0.613995 0.911855 0.860234
Si Si5 0.112639 0.329603 0.273149
Si Si6 0.873442 0.200322 0.026958
Si Si7 0.093007 0.289798 0.662473
O O1 0.150821 0.841905 0.493884
O O2 0.181791 0.956355 0.336486
O O3 0.318971 0.925507 0.526219
O O4 0.173853 0.073251 0.493795
O O5 0.858886 0.292780 0.331807
O O6 0.009720 0.186973 0.446825
O O7 0.865955 0.070837 0.338192
O O8 0.921323 0.151532 0.825338
O O9 0.000000 0.986508 0.750000
O O10 0.647502 0.829054 0.777097
O O11 0.507057 0.864009 0.862364
O O12 0.616751 0.037087 0.806449
O O13 0.156846 0.254736 0.374329
O O14 0.000000 0.297909 0.250000
O O15 0.857529 0.293390 0.933273
#
# Coordination Sequence:
#
# PCOD9287083 Si02
#       7
#     8   8   8   8   8   8   8
#     4  12  25  41  70 110 139 176 241 298 363 414
#     4  11  22  41  72 104 134 179 232 295 358 424
#     4  12  20  42  71  97 139 180 231 296 355 424
#     4  11  26  46  64  98 147 188 231 292 348 433
#     4  10  21  46  71  94 136 182 234 281 350 430
#     4  11  22  41  75 101 127 186 234 291 352 422
#     4  11  24  46  69  95 143 196 232 278 361 435
#
# _framework density 26.522182999999998
#
# number of rings (size 3 to 8) (size 9 to 14) (size 15 to 20)
#    0.000    0.857    7.143    1.714    0.000    2.857 
#    2.571    0.000    0.000    0.000    0.000    0.000 
#    0.000    0.000    0.000    0.000    0.000    0.000 
#
# Total GULP energy -156898.366967 kJ/mol
# GULP energy per Si atom -5603.513106 kJ/mol
# Density = 2.646182 g / cm^3
# Si number density = 26.522183 Si / 1000 Ang^3
#
#
#
# Elastic Constant Matrix: (Units=GPa)
#
#
# Indices 1 2 3 4 5 6 
#
# 1 80.4768 26.4709 37.5463 0.0000 41.3016 0.0000
# 2 26.4709 143.4875 43.1667 0.0000 3.5234 0.0000
# 3 37.5463 43.1667 189.0263 0.0000 13.6432 0.0000
# 4 0.0000 0.0000 0.0000 44.1277 0.0000 1.9470
# 5 41.3016 3.5234 13.6432 0.0000 29.1459 0.0000
# 6 0.0000 0.0000 0.0000 1.9470 0.0000 26.4792
#
#
#
# Elastic Compliance Matrix: (Units=1/GPa)
#
#
# Indices 1 2 3 4 5 6 
#
# 1 0.055916 -0.007255 -0.003927 0.000000 -0.076522 0.000000
# 2 -0.007255 0.008425 -0.001192 0.000000 0.009821 0.000000
# 3 -0.003927 -0.001192 0.006138 0.000000 0.002836 0.000000
# 4 0.000000 0.000000 0.000000 0.022735 0.000000 -0.001672
# 5 -0.076522 0.009821 0.002836 0.000000 0.140233 0.000000
# 6 0.000000 0.000000 0.000000 -0.001672 0.000000 0.037888
#
#
# Mechanical properties :
#
#
# Convention : Reuss Voigt Hill
#
# Bulk Modulus (GPa) = 21.86660 69.70651 45.78655
# Shear Modulus (GPa) = 16.06028 40.33766 28.19897
#
# Velocity S-wave (km/s) = 2.46344 3.90411 3.26425
# Velocity P-wave (km/s) = 4.04400 6.83097 5.61320
#
# Compressibility (1/GPa) = 0.04573185
#
# Stress axis : x y z
#
# Youngs Moduli (GPa) = 17.88382 118.69340 162.92674
#
# Poissons Ratio (x) = 0.86115 0.63978
# Poissons Ratio (y) = 0.12975 0.19416
# Poissons Ratio (z) = 0.07023 0.14144
#
# Static dielectric constant tensor:
#      x y z
#    x 2.097200 0.000000 -0.020520 
#    y 0.000000 2.050870 0.000000 
#    z -0.020520 0.000000 2.137180 
# 
# From -- ./inp_files/161402.got.cif
#   From: 2010.05.17/outbox.cif.g08.bks.cpg/sg15_81_cif.got.tgz:161402.got - 2010.06.03 18:47:42.
