data_PCOD9287106
_publ_section_title
;
Structure prediction by ZEFSAII (Michael W. Deem and Ramdas Pophale) SiO2 
 PCOD9287106
Probable space group: C 2/C
;
_chemical_formula_sum "Si O2"
_cell_formula_units_Z 48
_cell_length_a 16.434020
_cell_length_b 7.584737
_cell_length_c 32.081823
_cell_angle_alpha 90.000000
_cell_angle_beta 155.842890
_cell_angle_gamma 90.000000
_cell_volume 1636.521034
_symmetry_space_group_name_H-M "C 2/C"
_symmetry_group_IT_number 15
_symmetry_cell_setting 'monoclinic'
loop_
_space_group_symop_operation_xyz
x,y,z
-x,y,1/2-z
-x,-y,-z
x,-y,1/2+z
1/2+x,1/2+y,z
1/2-x,1/2+y,1/2-z
1/2-x,1/2-y,-z
1/2+x,1/2-y,1/2+z
loop_
_atom_site_type_symbol
_atom_site_label
_atom_site_fract_x
_atom_site_fract_y
_atom_site_fract_z
Si Si1 0.734381 0.936238 0.783795
Si Si2 0.399349 0.514043 0.243272
Si Si3 0.521976 0.110059 0.902805
Si Si4 0.287535 0.659911 0.562531
Si Si5 0.364933 0.120558 0.634112
Si Si6 0.079905 0.223518 0.572473
O O1 0.641587 0.974338 0.694572
O O2 0.614405 0.272722 0.646675
O O3 0.529639 0.963475 0.715126
O O4 0.862010 0.098325 0.861622
O O5 0.500000 0.428467 0.250000
O O6 0.488765 0.391543 0.321746
O O7 0.182665 0.583854 0.128128
O O8 0.667125 0.129795 0.930388
O O9 0.666152 0.022543 0.003114
O O10 0.250000 0.750000 0.500000
O O11 0.157419 0.763750 0.535961
O O12 0.179215 0.139566 0.577826
O O13 0.494851 0.296470 0.702179
#
# Coordination Sequence:
#
# PCOD9287106 Si02
#       6
#     8   8   8   8   8   8
#     4   9  19  39  74 107 148 203 255 310 393 447
#     4   9  21  45  77 103 152 210 258 312 390 469
#     4  10  22  40  74 111 153 197 258 326 380 461
#     4  12  28  44  78 123 155 200 270 323 386 470
#     4   8  20  40  74 103 151 207 252 310 386 462
#     4  10  21  46  79 102 166 206 251 330 385 463
#
# _framework density 29.330511999999999
#
# number of rings (size 3 to 8) (size 9 to 14) (size 15 to 20)
#    1.000    1.333    0.000    2.500    2.333    4.667 
#    0.000    0.833   25.667   10.000    0.000    0.000 
#    0.000    0.000    0.000    0.000    0.000    0.000 
#
# Total GULP energy -134154.115848 kJ/mol
# GULP energy per Si atom -5589.754827 kJ/mol
# Density = 2.926375 g / cm^3
# Si number density = 29.330512 Si / 1000 Ang^3
#
#
#
# Elastic Constant Matrix: (Units=GPa)
#
#
# Indices 1 2 3 4 5 6 
#
# 1 168.3276 44.5099 67.8883 -0.0020 39.8578 0.0011
# 2 44.5099 151.9915 44.8480 -0.0016 14.3280 -0.0005
# 3 67.8883 44.8480 151.5738 -0.0032 42.0904 0.0015
# 4 -0.0020 -0.0016 -0.0032 50.2170 0.0008 -0.0717
# 5 39.8578 14.3280 42.0904 0.0008 62.2010 -0.0010
# 6 0.0011 -0.0005 0.0015 -0.0717 -0.0010 45.2065
#
#
#
# Elastic Compliance Matrix: (Units=1/GPa)
#
#
# Indices 1 2 3 4 5 6 
#
# 1 0.007990 -0.001363 -0.002267 0.000000 -0.003272 0.000000
# 2 -0.001363 0.007445 -0.001673 0.000000 0.000290 0.000000
# 3 -0.002267 -0.001673 0.009355 0.000001 -0.004493 0.000000
# 4 0.000000 0.000000 0.000001 0.019914 -0.000001 0.000032
# 5 -0.003272 0.000290 -0.004493 -0.000001 0.021147 0.000001
# 6 0.000000 0.000000 0.000000 0.000032 0.000001 0.022121
#
#
# Mechanical properties :
#
#
# Convention : Reuss Voigt Hill
#
# Bulk Modulus (GPa) = 70.49666 87.37613 78.93639
# Shear Modulus (GPa) = 48.40043 52.50134 50.45089
#
# Velocity S-wave (km/s) = 4.06664 4.23542 4.15189
# Velocity P-wave (km/s) = 6.79246 7.33302 7.06791
#
# Compressibility (1/GPa) = 0.01418507
#
# Stress axis : x y z
#
# Youngs Moduli (GPa) = 125.15399 134.32499 106.89051
#
# Poissons Ratio (x) = 0.18302 0.24231
# Poissons Ratio (y) = 0.17052 0.17884
# Poissons Ratio (z) = 0.28371 0.22474
#
# Static dielectric constant tensor:
#      x y z
#    x 2.519410 0.000000 0.055140 
#    y 0.000000 2.418680 0.000000 
#    z 0.055140 0.000000 2.261290 
# 
# From -- ./inp_files/313630.got.cif
#   From: 2010.05.17/outbox.cif.g08.bks.cpg/sg15_157_cif.got.tgz:313630.got - 2010.06.03 18:47:42.
