data_PCOD9287701
_publ_section_title
;
Structure prediction by ZEFSAII (Michael W. Deem and Ramdas Pophale) SiO2 
 PCOD9287701
Probable space group: C 2/C
;
_chemical_formula_sum "Si O2"
_cell_formula_units_Z 48
_cell_length_a 21.080013
_cell_length_b 22.870773
_cell_length_c 14.726826
_cell_angle_alpha 90.000000
_cell_angle_beta 19.093348
_cell_angle_gamma 90.000000
_cell_volume 2322.481642
_symmetry_space_group_name_H-M "C 2/C"
_symmetry_group_IT_number 15
_symmetry_cell_setting 'monoclinic'
loop_
_space_group_symop_operation_xyz
x,y,z
-x,y,1/2-z
-x,-y,-z
x,-y,1/2+z
1/2+x,1/2+y,z
1/2-x,1/2+y,1/2-z
1/2-x,1/2-y,-z
1/2+x,1/2-y,1/2+z
loop_
_atom_site_type_symbol
_atom_site_label
_atom_site_fract_x
_atom_site_fract_y
_atom_site_fract_z
Si Si1 0.000000 0.087409 0.250000
Si Si2 0.000000 0.425414 0.750000
Si Si3 0.817668 0.689687 0.553885
Si Si4 0.980497 0.729103 0.518597
Si Si5 0.919025 0.363480 0.483607
Si Si6 0.176320 0.830026 0.657225
Si Si7 0.599854 0.016302 0.770729
O O1 0.972111 0.132010 0.202214
O O2 0.810579 0.045838 0.503672
O O3 0.839867 0.379986 0.007834
O O4 0.911170 0.465257 0.789730
O O5 0.628753 0.723580 0.777626
O O6 0.000000 0.713067 0.250000
O O7 0.840912 0.706849 0.628163
O O8 0.088177 0.671993 0.412790
O O9 0.882650 0.764886 0.734026
O O10 0.723758 0.355927 0.691845
O O11 0.965389 0.431075 0.419299
O O12 0.115326 0.337048 0.172764
O O13 0.500000 0.000000 0.000000
#
# Coordination Sequence:
#
# PCOD9287701 Si02
#       7
#     4   4   8   8   8   8   8
#     4  10  24  40  65 101 128 166 228 282 322 392
#     4  10  24  46  65  93 138 176 216 282 318 392
#     4  10  25  41  64  92 132 170 223 264 323 380
#     4  12  21  41  64  98 127 176 213 265 332 398
#     4  10  22  40  63  95 133 166 213 273 334 385
#     4  10  22  37  63  96 134 161 208 274 336 398
#     4  11  23  45  68  92 131 178 226 271 334 389
#
# _framework density 20.667548
#
# number of rings (size 3 to 8) (size 9 to 14) (size 15 to 20)
#    0.500    1.000    1.667    4.000    7.000    1.333 
#    3.000    1.667    0.000    0.000    0.000    0.000 
#    0.000    0.000    0.000    0.000    0.000    0.000 
#
# Total GULP energy -133643.266362 kJ/mol
# GULP energy per Si atom -5568.469432 kJ/mol
# Density = 2.062051 g / cm^3
# Si number density = 20.667548 Si / 1000 Ang^3
#
#
#
# Elastic Constant Matrix: (Units=GPa)
#
#
# Indices 1 2 3 4 5 6 
#
# 1 97.2799 51.9180 29.0859 -0.0050 -13.4513 -0.0408
# 2 51.9180 133.2050 29.6318 -0.0385 -0.0024 -0.0911
# 3 29.0859 29.6318 45.0654 0.0511 7.2608 -0.0188
# 4 -0.0050 -0.0385 0.0511 -92.4060 0.0017 -98.8227
# 5 -13.4513 -0.0024 7.2608 0.0017 29.7848 0.0087
# 6 -0.0408 -0.0911 -0.0188 -98.8227 0.0087 -58.6082
#
#
#
# Elastic Compliance Matrix: (Units=1/GPa)
#
#
# Indices 1 2 3 4 5 6 
#
# 1 0.016902 -0.004455 -0.009586 0.000005 0.009970 -0.000008
# 2 -0.004455 0.010030 -0.003534 -0.000008 -0.001150 0.000002
# 3 -0.009586 -0.003534 0.032682 -0.000025 -0.012296 0.000042
# 4 0.000005 -0.000008 -0.000025 0.013473 0.000014 -0.022717
# 5 0.009970 -0.001150 -0.012296 0.000014 0.041074 -0.000019
# 6 -0.000008 0.000002 0.000042 -0.022717 -0.000019 0.021242
#
#
# Mechanical properties :
#
#
# Convention : Reuss Voigt Hill
#
# Bulk Modulus (GPa) = 40.87737 55.20241 48.03989
# Shear Modulus (GPa) = 27.97886 -13.25158 7.36364
#
# Velocity S-wave (km/s) = 3.68334 -2.53490 1.88961
# Velocity P-wave (km/s) = 6.15717 4.26616 5.29674
#
# Compressibility (1/GPa) = 0.02446341
#
# Stress axis : x y z
#
# Youngs Moduli (GPa) = 59.16507 99.70238 30.59820
#
# Poissons Ratio (x) = 0.44419 0.29330
# Poissons Ratio (y) = 0.26359 0.10814
# Poissons Ratio (z) = 0.56713 0.35237
#
# Static dielectric constant tensor:
#      x y z
#    x 2.228780 0.000930 -0.019310 
#    y 0.000930 2.248420 0.000010 
#    z -0.019310 0.000010 1.774820 
# 
# From -- ./inp_files/169699.got.cif
#   From: 2010.05.17/outbox.cif.g08.bks.cpg/sg15_85_cif.got.tgz:169699.got - 2010.06.03 18:47:42.
