data_PCOD9287458
_publ_section_title
;
Structure prediction by ZEFSAII (Michael W. Deem and Ramdas Pophale) SiO2 
 PCOD9287458
Probable space group: C 2/C
;
_chemical_formula_sum "Si O2"
_cell_formula_units_Z 64
_cell_length_a 25.200384
_cell_length_b 17.333353
_cell_length_c 19.461819
_cell_angle_alpha 90.000000
_cell_angle_beta 20.155134
_cell_angle_gamma 90.000000
_cell_volume 2929.153008
_symmetry_space_group_name_H-M "C 2/C"
_symmetry_group_IT_number 15
_symmetry_cell_setting 'monoclinic'
loop_
_space_group_symop_operation_xyz
x,y,z
-x,y,1/2-z
-x,-y,-z
x,-y,1/2+z
1/2+x,1/2+y,z
1/2-x,1/2+y,1/2-z
1/2-x,1/2-y,-z
1/2+x,1/2-y,1/2+z
loop_
_atom_site_type_symbol
_atom_site_label
_atom_site_fract_x
_atom_site_fract_y
_atom_site_fract_z
Si Si1 0.325142 0.378831 0.894332
Si Si2 0.219532 0.528569 0.057767
Si Si3 0.739330 0.197712 0.080936
Si Si4 0.391710 0.431266 0.658783
Si Si5 0.047812 0.714537 0.782433
Si Si6 0.623197 0.797333 0.467328
Si Si7 0.196918 0.230134 0.240253
Si Si8 0.369379 0.032115 0.496635
O O1 0.324203 0.453928 0.943750
O O2 0.147100 0.348876 0.120332
O O3 0.389325 0.410215 0.743195
O O4 0.414113 0.298776 0.795602
O O5 0.281543 0.610262 0.008526
O O6 0.178961 0.528719 0.025144
O O7 0.047844 0.519997 0.295553
O O8 0.560402 0.199573 0.321139
O O9 0.839853 0.234996 0.018861
O O10 0.750000 0.250000 0.000000
O O11 0.500000 0.500000 0.500000
O O12 0.400808 0.345420 0.617591
O O13 0.224791 0.467874 0.849065
O O14 0.117086 0.723767 0.775280
O O15 0.865469 0.703784 0.009735
O O16 0.711450 0.780250 0.290166
O O17 0.672645 0.881279 0.432425
#
# Coordination Sequence:
#
# PCOD9287458 Si02
#       8
#     8   8   8   8   8   8   8   8
#     4   9  20  37  65  94 126 164 220 279 326 386
#     4   9  17  34  58  88 117 160 209 262 322 381
#     4  11  21  37  60  88 124 169 214 266 322 396
#     4  10  22  36  62  94 126 163 215 265 315 388
#     4  10  22  41  67  94 125 170 221 275 329 386
#     4  11  23  36  61  87 126 165 214 264 327 401
#     4  11  24  41  65  95 128 175 220 274 334 396
#     4   9  18  33  57  85 116 160 209 258 309 390
#
# _framework density 21.849319000000001
#
# number of rings (size 3 to 8) (size 9 to 14) (size 15 to 20)
#    0.000    2.000    1.250    1.875    5.250    7.500 
#    0.000    1.250    8.250    4.500    0.000    0.000 
#    0.000    0.000    0.000    0.000    0.000    0.000 
#
# Total GULP energy -178469.765242 kJ/mol
# GULP energy per Si atom -5577.180164 kJ/mol
# Density = 2.179959 g / cm^3
# Si number density = 21.849319 Si / 1000 Ang^3
#
#
#
# Elastic Constant Matrix: (Units=GPa)
#
#
# Indices 1 2 3 4 5 6 
#
# 1 60.7274 16.7537 22.9157 0.0001 4.5643 -0.0004
# 2 16.7537 129.9135 22.2146 0.0000 3.9347 -0.0018
# 3 22.9157 22.2146 56.4162 -0.0025 8.0394 -0.0004
# 4 0.0001 0.0000 -0.0025 40.1847 0.0015 11.3683
# 5 4.5643 3.9347 8.0394 0.0015 24.1450 0.0001
# 6 -0.0004 -0.0018 -0.0004 11.3683 0.0001 10.1465
#
#
#
# Elastic Compliance Matrix: (Units=1/GPa)
#
#
# Indices 1 2 3 4 5 6 
#
# 1 0.019663 -0.001248 -0.007343 -0.000001 -0.001069 0.000001
# 2 -0.001248 0.008334 -0.002745 -0.000001 -0.000208 0.000002
# 3 -0.007343 -0.002745 0.022600 0.000002 -0.005689 -0.000003
# 4 -0.000001 -0.000001 0.000002 0.036433 -0.000003 -0.040820
# 5 -0.001069 -0.000208 -0.005689 -0.000003 0.043547 0.000002
# 6 0.000001 0.000002 -0.000003 -0.040820 0.000002 0.144293
#
#
# Mechanical properties :
#
#
# Convention : Reuss Voigt Hill
#
# Bulk Modulus (GPa) = 35.81098 41.20279 38.50688
# Shear Modulus (GPa) = 16.29466 27.24010 21.76738
#
# Velocity S-wave (km/s) = 2.73385 3.53473 3.15977
# Velocity P-wave (km/s) = 5.13720 5.96303 5.56545
#
# Compressibility (1/GPa) = 0.02792440
#
# Stress axis : x y z
#
# Youngs Moduli (GPa) = 50.85820 119.98969 44.24815
#
# Poissons Ratio (x) = 0.14971 0.32492
# Poissons Ratio (y) = 0.06345 0.12147
# Poissons Ratio (z) = 0.37346 0.32939
#
# Static dielectric constant tensor:
#      x y z
#    x 1.820040 0.000000 0.011460 
#    y 0.000000 1.823110 0.000000 
#    z 0.011460 0.000000 1.839020 
# 
# From -- ./inp_files/258047.got.cif
#   From: 2010.05.17/outbox.cif.g08.bks.cpg/sg15_130_cif.got.tgz:258047.got - 2010.06.03 18:47:42.
