data_PCOD9287838
_publ_section_title
;
Structure prediction by ZEFSAII (Michael W. Deem and Ramdas Pophale) SiO2 
 PCOD9287838
Probable space group: C 2/C
;
_chemical_formula_sum "Si O2"
_cell_formula_units_Z 48
_cell_length_a 9.064428
_cell_length_b 11.731865
_cell_length_c 22.215622
_cell_angle_alpha 90.000000
_cell_angle_beta 123.745787
_cell_angle_gamma 90.000000
_cell_volume 1964.416871
_symmetry_space_group_name_H-M "C 2/C"
_symmetry_group_IT_number 15
_symmetry_cell_setting 'monoclinic'
loop_
_space_group_symop_operation_xyz
x,y,z
-x,y,1/2-z
-x,-y,-z
x,-y,1/2+z
1/2+x,1/2+y,z
1/2-x,1/2+y,1/2-z
1/2-x,1/2-y,-z
1/2+x,1/2-y,1/2+z
loop_
_atom_site_type_symbol
_atom_site_label
_atom_site_fract_x
_atom_site_fract_y
_atom_site_fract_z
Si Si1 0.632530 0.177261 0.108440
Si Si2 0.007100 0.830094 0.338242
Si Si3 0.275497 0.605580 0.489535
Si Si4 0.354829 0.739312 0.383082
Si Si5 0.987967 0.923821 0.680914
Si Si6 0.298905 0.849295 0.057423
O O1 0.611682 0.221616 0.171983
O O2 0.433086 0.136886 0.046881
O O3 0.774281 0.080852 0.123299
O O4 0.718974 0.292042 0.098818
O O5 0.111777 0.865158 0.425247
O O6 0.159670 0.786267 0.329131
O O7 0.931712 0.950042 0.300541
O O8 0.345718 0.675783 0.446598
O O9 0.278844 0.472198 0.474122
O O10 0.420373 0.647435 0.350095
O O11 0.489414 0.844638 0.402779
O O12 0.000000 0.871426 0.750000
O O13 0.250000 0.750000 0.000000
#
# Coordination Sequence:
#
# PCOD9287838 Si02
#       6
#     8   8   8   8   8   8
#     4  10  22  38  58  86 119 155 193 239 297 356
#     4  11  22  38  64  93 119 151 192 244 301 356
#     4  11  21  37  61  94 126 147 184 242 309 370
#     4  10  22  38  58  86 119 155 193 239 297 356
#     4  11  25  42  59  82 115 160 210 247 280 337
#     4  11  20  31  53  85 120 156 185 223 284 353
#
# _framework density 24.434732
#
# number of rings (size 3 to 8) (size 9 to 14) (size 15 to 20)
#    0.000    1.333    0.000    8.000    0.000    5.333 
#    0.000    2.500    0.000    0.000    0.000    0.000 
#    0.000    0.000    0.000    0.000    0.000    0.000 
#
# Total GULP energy -134046.595821 kJ/mol
# GULP energy per Si atom -5585.274826 kJ/mol
# Density = 2.437912 g / cm^3
# Si number density = 24.434732 Si / 1000 Ang^3
#
#
#
# Elastic Constant Matrix: (Units=GPa)
#
#
# Indices 1 2 3 4 5 6 
#
# 1 141.5460 4.7304 19.7265 0.0000 -10.1436 0.0000
# 2 4.7304 103.9235 -5.9932 0.0000 -5.8432 0.0000
# 3 19.7265 -5.9932 54.8470 0.0000 -16.1710 0.0000
# 4 0.0000 0.0000 0.0000 24.4614 0.0000 -7.1310
# 5 -10.1436 -5.8432 -16.1710 0.0000 29.2372 0.0000
# 6 0.0000 0.0000 0.0000 -7.1310 0.0000 32.1511
#
#
#
# Elastic Compliance Matrix: (Units=1/GPa)
#
#
# Indices 1 2 3 4 5 6 
#
# 1 0.007497 -0.000412 -0.002388 0.000000 0.001198 0.000000
# 2 -0.000412 0.009933 0.002123 0.000000 0.003017 0.000000
# 3 -0.002388 0.002123 0.022946 0.000000 0.012287 0.000000
# 4 0.000000 0.000000 0.000000 0.043707 0.000000 0.009694
# 5 0.001198 0.003017 0.012287 0.000000 0.042017 0.000000
# 6 0.000000 0.000000 0.000000 0.009694 0.000000 0.033253
#
#
# Mechanical properties :
#
#
# Convention : Reuss Voigt Hill
#
# Bulk Modulus (GPa) = 25.62618 37.47154 31.54886
# Shear Modulus (GPa) = 28.78264 35.96014 32.37139
#
# Velocity S-wave (km/s) = 3.43584 3.84041 3.64374
# Velocity P-wave (km/s) = 5.12351 5.91892 5.53552
#
# Compressibility (1/GPa) = 0.03902259
#
# Stress axis : x y z
#
# Youngs Moduli (GPa) = 133.38159 100.67218 43.58015
#
# Poissons Ratio (x) = 0.04144 0.10408
# Poissons Ratio (y) = 0.05491 -0.09251
# Poissons Ratio (z) = 0.31856 -0.21371
#
# Static dielectric constant tensor:
#      x y z
#    x 2.236180 0.000000 0.088590 
#    y 0.000000 1.928510 0.000000 
#    z 0.088590 0.000000 2.141240 
# 
# From -- ./inp_files/263189.got.cif
#   From: 2010.05.17/outbox.cif.g08.bks.cpg/sg15_132_cif.got.tgz:263189.got - 2010.06.03 18:47:42.
