data_PCOD9287017
_publ_section_title
;
Structure prediction by ZEFSAII (Michael W. Deem and Ramdas Pophale) SiO2 
 PCOD9287017
Probable space group: C 2/C
;
_chemical_formula_sum "Si O2"
_cell_formula_units_Z 44
_cell_length_a 23.703855
_cell_length_b 9.970745
_cell_length_c 8.860414
_cell_angle_alpha 90.000000
_cell_angle_beta 68.027113
_cell_angle_gamma 90.000000
_cell_volume 1942.000970
_symmetry_space_group_name_H-M "C 2/C"
_symmetry_group_IT_number 15
_symmetry_cell_setting 'monoclinic'
loop_
_space_group_symop_operation_xyz
x,y,z
-x,y,1/2-z
-x,-y,-z
x,-y,1/2+z
1/2+x,1/2+y,z
1/2-x,1/2+y,1/2-z
1/2-x,1/2-y,-z
1/2+x,1/2-y,1/2+z
loop_
_atom_site_type_symbol
_atom_site_label
_atom_site_fract_x
_atom_site_fract_y
_atom_site_fract_z
Si Si1 0.857054 0.103743 0.452122
Si Si2 0.711131 0.350008 0.933698
Si Si3 0.000000 0.293352 0.750000
Si Si4 0.320013 0.123483 0.120499
Si Si5 0.060498 0.953686 0.355388
Si Si6 0.625964 0.132198 0.093220
O O1 0.836680 0.256457 0.489120
O O2 0.883754 0.070986 0.590053
O O3 0.803133 0.995962 0.485610
O O4 0.912772 0.063096 0.287242
O O5 0.750111 0.363352 0.743774
O O6 0.750000 0.250000 0.000000
O O7 0.647373 0.271561 0.994006
O O8 0.960596 0.188192 0.691790
O O9 0.945691 0.383748 0.867740
O O10 0.356660 0.130298 0.245265
O O11 0.336657 0.985343 0.024291
O O12 0.000000 0.000000 0.500000
#
# Coordination Sequence:
#
# PCOD9287017 Si02
#       6
#     8   8   4   8   8   8
#     4  12  23  43  70 103 137 180 239 290 355 430
#     4  10  21  45  72  97 139 181 231 298 353 425
#     4  12  22  44  66  92 148 188 232 306 352 414
#     4  11  25  43  66 104 138 188 240 291 361 424
#     4  12  22  41  69 101 133 181 240 291 352 420
#     4  11  24  45  66  99 144 190 237 295 364 418
#
# _framework density 22.657045
#
# number of rings (size 3 to 8) (size 9 to 14) (size 15 to 20)
#    0.000    0.727    5.455    2.182    0.000    5.091 
#    3.273    5.455    0.000    0.000    0.000    0.000 
#    0.000    0.000    0.000    0.000    0.000    0.000 
#
# Total GULP energy -122878.373332 kJ/mol
# GULP energy per Si atom -5585.380606 kJ/mol
# Density = 2.260548 g / cm^3
# Si number density = 22.657045 Si / 1000 Ang^3
#
#
#
# Elastic Constant Matrix: (Units=GPa)
#
#
# Indices 1 2 3 4 5 6 
#
# 1 83.2516 4.2119 25.4168 0.0000 -14.3999 0.0000
# 2 4.2119 113.5669 41.0009 0.0000 -4.1183 0.0000
# 3 25.4168 41.0009 97.4644 0.0000 -18.1810 0.0000
# 4 0.0000 0.0000 0.0000 36.4175 0.0000 -6.4612
# 5 -14.3999 -4.1183 -18.1810 0.0000 40.1339 0.0000
# 6 0.0000 0.0000 0.0000 -6.4612 0.0000 24.4969
#
#
#
# Elastic Compliance Matrix: (Units=1/GPa)
#
#
# Indices 1 2 3 4 5 6 
#
# 1 0.013557 0.000784 -0.003215 0.000000 0.003488 0.000000
# 2 0.000784 0.010464 -0.004756 0.000000 -0.000799 0.000000
# 3 -0.003215 -0.004756 0.013974 0.000000 0.004689 0.000000
# 4 0.000000 0.000000 0.000000 0.028807 0.000000 0.007598
# 5 0.003488 -0.000799 0.004689 0.000000 0.028210 0.000000
# 6 0.000000 0.000000 0.000000 0.007598 0.000000 0.042826
#
#
# Mechanical properties :
#
#
# Convention : Reuss Voigt Hill
#
# Bulk Modulus (GPa) = 42.33176 48.39357 45.36266
# Shear Modulus (GPa) = 31.23354 35.11988 33.17671
#
# Velocity S-wave (km/s) = 3.71689 3.94136 3.83077
# Velocity P-wave (km/s) = 6.09464 6.48983 6.29534
#
# Compressibility (1/GPa) = 0.02362293
#
# Stress axis : x y z
#
# Youngs Moduli (GPa) = 73.76319 95.56351 71.56300
#
# Poissons Ratio (x) = -0.07495 0.23004
# Poissons Ratio (y) = -0.05785 0.34033
# Poissons Ratio (z) = 0.23712 0.45447
#
# Static dielectric constant tensor:
#      x y z
#    x 1.958000 0.000000 -0.018540 
#    y 0.000000 1.859010 0.000000 
#    z -0.018540 0.000000 1.913370 
# 
# From -- ./inp_files/68525.got.cif
#   From: 2010.05.17/outbox.cif.g08.bks.cpg/sg15_35_cif.got.tgz:68525.got - 2010.06.03 18:47:42.
