data_PCOD9287686
_publ_section_title
;
Structure prediction by ZEFSAII (Michael W. Deem and Ramdas Pophale) SiO2 
 PCOD9287686
Probable space group: C 2/C
;
_chemical_formula_sum "Si O2"
_cell_formula_units_Z 64
_cell_length_a 16.511408
_cell_length_b 25.906077
_cell_length_c 13.752864
_cell_angle_alpha 90.000000
_cell_angle_beta 147.747556
_cell_angle_gamma 90.000000
_cell_volume 3139.322292
_symmetry_space_group_name_H-M "C 2/C"
_symmetry_group_IT_number 15
_symmetry_cell_setting 'monoclinic'
loop_
_space_group_symop_operation_xyz
x,y,z
-x,y,1/2-z
-x,-y,-z
x,-y,1/2+z
1/2+x,1/2+y,z
1/2-x,1/2+y,1/2-z
1/2-x,1/2-y,-z
1/2+x,1/2-y,1/2+z
loop_
_atom_site_type_symbol
_atom_site_label
_atom_site_fract_x
_atom_site_fract_y
_atom_site_fract_z
Si Si1 0.169493 0.311770 0.691271
Si Si2 0.185568 0.702916 0.643904
Si Si3 0.823253 0.501778 0.789199
Si Si4 0.674160 0.158777 0.419962
Si Si5 0.177161 0.478328 0.431852
Si Si6 0.870214 0.935480 0.183196
Si Si7 0.128702 0.102677 0.614055
Si Si8 0.809252 0.908428 0.717404
O O1 0.253461 0.257720 0.758530
O O2 0.197373 0.321520 0.834742
O O3 0.231959 0.357607 0.686182
O O4 0.987449 0.306321 0.498896
O O5 0.189920 0.697033 0.529324
O O6 0.293142 0.657724 0.794034
O O7 0.796079 0.496346 0.646132
O O8 0.757672 0.559661 0.732853
O O9 0.737735 0.455640 0.758136
O O10 0.000000 0.500000 0.000000
O O11 0.500000 0.138993 0.250000
O O12 0.794322 0.113803 0.557598
O O13 0.236249 0.523690 0.562355
O O14 0.254105 0.427252 0.554786
O O15 0.000000 0.468113 0.250000
O O16 0.942194 0.914535 0.354724
O O17 0.000000 0.960534 0.250000
O O18 0.990255 0.099120 0.399868
#
# Coordination Sequence:
#
# PCOD9287686 Si02
#       8
#     8   8   8   8   8   8   8   8
#     4  11  21  39  60  92 127 168 215 265 326 377
#     4  10  22  37  63  90 125 170 213 266 317 389
#     4  12  23  42  65  91 128 166 210 263 319 382
#     4   9  19  35  58  88 128 169 212 255 315 383
#     4  12  25  40  61  89 123 168 213 258 323 383
#     4  11  21  35  58  90 130 169 209 259 309 378
#     4  11  23  40  60  93 129 166 216 259 320 375
#     4  12  25  41  63  93 130 170 211 266 318 385
#
# _framework density 20.386565000000001
#
# number of rings (size 3 to 8) (size 9 to 14) (size 15 to 20)
#    0.000    1.000    2.500    4.875    1.750    3.000 
#    0.000    0.625    0.000    0.750    0.000    0.000 
#    0.000    0.000    0.000    0.000    0.000    0.000 
#
# Total GULP energy -178542.077205 kJ/mol
# GULP energy per Si atom -5579.439913 kJ/mol
# Density = 2.034016 g / cm^3
# Si number density = 20.386565 Si / 1000 Ang^3
#
#
#
# Elastic Constant Matrix: (Units=GPa)
#
#
# Indices 1 2 3 4 5 6 
#
# 1 26.2017 16.1007 22.2378 0.0000 2.6994 0.0000
# 2 16.1007 94.6060 40.8396 0.0000 2.8088 0.0000
# 3 22.2378 40.8396 132.9103 0.0000 9.4069 0.0000
# 4 0.0000 0.0000 0.0000 28.1375 0.0000 5.8381
# 5 2.6994 2.8088 9.4069 0.0000 18.5564 0.0000
# 6 0.0000 0.0000 0.0000 5.8381 0.0000 22.7665
#
#
#
# Elastic Compliance Matrix: (Units=1/GPa)
#
#
# Indices 1 2 3 4 5 6 
#
# 1 0.046811 -0.005290 -0.005997 0.000000 -0.002969 0.000000
# 2 -0.005290 0.012784 -0.003071 0.000000 0.000391 0.000000
# 3 -0.005997 -0.003071 0.009725 0.000000 -0.003593 0.000000
# 4 0.000000 0.000000 0.000000 0.037537 0.000000 -0.009626
# 5 -0.002969 0.000391 -0.003593 0.000000 0.056084 0.000000
# 6 0.000000 0.000000 0.000000 -0.009626 0.000000 0.046393
#
#
# Mechanical properties :
#
#
# Convention : Reuss Voigt Hill
#
# Bulk Modulus (GPa) = 24.62690 45.78602 35.20646
# Shear Modulus (GPa) = 19.87405 25.52808 22.70107
#
# Velocity S-wave (km/s) = 3.12566 3.54248 3.34058
# Velocity P-wave (km/s) = 5.01324 6.26418 5.67329
#
# Compressibility (1/GPa) = 0.04060600
#
# Stress axis : x y z
#
# Youngs Moduli (GPa) = 21.36235 78.22000 102.82687
#
# Poissons Ratio (x) = 0.41377 0.61662
# Poissons Ratio (y) = 0.11300 0.31577
# Poissons Ratio (z) = 0.12810 0.24021
#
# Static dielectric constant tensor:
#      x y z
#    x 1.842890 0.000000 -0.040910 
#    y 0.000000 1.690810 0.000000 
#    z -0.040910 0.000000 1.758660 
# 
# From -- ./inp_files/164283.got.cif
#   From: 2010.05.17/outbox.cif.g08.bks.cpg/sg15_83_cif.got.tgz:164283.got - 2010.06.03 18:47:42.
