data_PCOD9287811
_publ_section_title
;
Structure prediction by ZEFSAII (Michael W. Deem and Ramdas Pophale) SiO2 
 PCOD9287811
Probable space group: C 2/C
;
_chemical_formula_sum "Si O2"
_cell_formula_units_Z 48
_cell_length_a 12.643309
_cell_length_b 22.982786
_cell_length_c 8.153387
_cell_angle_alpha 90.000000
_cell_angle_beta 103.334118
_cell_angle_gamma 90.000000
_cell_volume 2305.329140
_symmetry_space_group_name_H-M "C 2/C"
_symmetry_group_IT_number 15
_symmetry_cell_setting 'monoclinic'
loop_
_space_group_symop_operation_xyz
x,y,z
-x,y,1/2-z
-x,-y,-z
x,-y,1/2+z
1/2+x,1/2+y,z
1/2-x,1/2+y,1/2-z
1/2-x,1/2-y,-z
1/2+x,1/2-y,1/2+z
loop_
_atom_site_type_symbol
_atom_site_label
_atom_site_fract_x
_atom_site_fract_y
_atom_site_fract_z
Si Si1 0.299764 0.534496 0.013979
Si Si2 0.712390 0.286511 0.144474
Si Si3 0.121086 0.622457 0.857504
Si Si4 0.470706 0.381297 0.430646
Si Si5 0.378346 0.172864 0.269829
Si Si6 0.696845 0.412549 0.622139
O O1 0.301823 0.557036 0.200063
O O2 0.193550 0.564047 0.893400
O O3 0.405202 0.561299 0.962143
O O4 0.299804 0.465340 0.004414
O O5 0.810616 0.330058 0.223268
O O6 0.611046 0.328142 0.065193
O O7 0.672522 0.237429 0.254614
O O8 0.750000 0.250000 0.000000
O O9 0.000000 0.613552 0.750000
O O10 0.118832 0.649230 0.040999
O O11 0.500000 0.382625 0.250000
O O12 0.584439 0.378012 0.565210
O O13 0.500000 0.173301 0.250000
O O14 0.299336 0.129325 0.145951
#
# Coordination Sequence:
#
# PCOD9287811 Si02
#       6
#     8   8   8   8   8   8
#     4  10  22  39  59  88 121 156 198 244 296 357
#     4   9  20  39  59  86 120 155 200 245 293 354
#     4   9  20  38  60  82 114 157 197 239 294 352
#     4  11  22  38  62  91 120 155 198 249 301 352
#     4  10  22  38  57  86 118 152 198 247 293 346
#     4  11  23  40  62  87 121 161 197 244 301 357
#
# _framework density 20.821321999999999
#
# number of rings (size 3 to 8) (size 9 to 14) (size 15 to 20)
#    0.000    2.000    0.000    3.500    0.000    7.333 
#    0.000    5.833    0.000    0.000    0.000    0.000 
#    0.000    0.000    0.000    0.000    0.000    0.000 
#
# Total GULP energy -134144.495849 kJ/mol
# GULP energy per Si atom -5589.353994 kJ/mol
# Density = 2.077393 g / cm^3
# Si number density = 20.821322 Si / 1000 Ang^3
#
#
#
# Elastic Constant Matrix: (Units=GPa)
#
#
# Indices 1 2 3 4 5 6 
#
# 1 148.3824 42.0185 24.1550 0.0000 13.0376 0.0000
# 2 42.0185 84.2082 5.8254 0.0000 -2.0846 0.0000
# 3 24.1550 5.8254 44.9557 0.0000 9.8909 0.0000
# 4 0.0000 0.0000 0.0000 8.5174 0.0000 2.2642
# 5 13.0376 -2.0846 9.8909 0.0000 25.9478 0.0000
# 6 0.0000 0.0000 0.0000 2.2642 0.0000 15.4992
#
#
#
# Elastic Compliance Matrix: (Units=1/GPa)
#
#
# Indices 1 2 3 4 5 6 
#
# 1 0.008801 -0.004241 -0.003418 0.000000 -0.003460 0.000000
# 2 -0.004241 0.014095 -0.000290 0.000000 0.003374 0.000000
# 3 -0.003418 -0.000290 0.025919 0.000000 -0.008186 0.000000
# 4 0.000000 0.000000 0.000000 0.122150 0.000000 -0.017844
# 5 -0.003460 0.003374 -0.008186 0.000000 0.043669 0.000000
# 6 0.000000 0.000000 0.000000 -0.017844 0.000000 0.067126
#
#
# Mechanical properties :
#
#
# Convention : Reuss Voigt Hill
#
# Bulk Modulus (GPa) = 30.37912 46.83822 38.60867
# Shear Modulus (GPa) = 16.20066 23.69603 19.94835
#
# Velocity S-wave (km/s) = 2.79243 3.37718 3.09863
# Velocity P-wave (km/s) = 5.00190 6.14421 5.60224
#
# Compressibility (1/GPa) = 0.03291735
#
# Stress axis : x y z
#
# Youngs Moduli (GPa) = 113.62921 70.94773 38.58138
#
# Poissons Ratio (x) = 0.30086 0.13187
# Poissons Ratio (y) = 0.48185 0.01120
# Poissons Ratio (z) = 0.38838 0.02059
#
# Static dielectric constant tensor:
#      x y z
#    x 1.729840 0.000000 -0.022390 
#    y 0.000000 1.738480 0.000000 
#    z -0.022390 0.000000 1.758170 
# 
# From -- ./inp_files/31933.got.cif
#   From: 2010.05.17/outbox.cif.g08.bks.cpg/sg15_16_cif.got.tgz:31933.got - 2010.06.03 18:47:42.
