data_PCOD9287052
_publ_section_title
;
Structure prediction by ZEFSAII (Michael W. Deem and Ramdas Pophale) SiO2 
 PCOD9287052
Probable space group: C 2/C
;
_chemical_formula_sum "Si O2"
_cell_formula_units_Z 52
_cell_length_a 24.269567
_cell_length_b 5.942787
_cell_length_c 15.503309
_cell_angle_alpha 90.000000
_cell_angle_beta 67.252800
_cell_angle_gamma 90.000000
_cell_volume 2062.106402
_symmetry_space_group_name_H-M "C 2/C"
_symmetry_group_IT_number 15
_symmetry_cell_setting 'monoclinic'
loop_
_space_group_symop_operation_xyz
x,y,z
-x,y,1/2-z
-x,-y,-z
x,-y,1/2+z
1/2+x,1/2+y,z
1/2-x,1/2+y,1/2-z
1/2-x,1/2-y,-z
1/2+x,1/2-y,1/2+z
loop_
_atom_site_type_symbol
_atom_site_label
_atom_site_fract_x
_atom_site_fract_y
_atom_site_fract_z
Si Si1 0.817920 0.468259 0.996605
Si Si2 0.907584 0.196102 0.044301
Si Si3 0.644968 0.957697 0.289746
Si Si4 0.000000 0.034615 0.750000
Si Si5 0.288799 0.296074 0.351169
Si Si6 0.878503 0.824211 0.860104
Si Si7 0.961596 0.755607 0.092469
O O1 0.869305 0.285580 0.986249
O O2 0.769860 0.449719 0.102358
O O3 0.784320 0.390333 0.930178
O O4 0.846537 0.712020 0.962095
O O5 0.857256 0.234621 0.150561
O O6 0.931196 0.948376 0.052986
O O7 0.973448 0.299780 0.983980
O O8 0.695146 0.146072 0.241843
O O9 0.588863 0.068744 0.371307
O O10 0.624818 0.874327 0.208303
O O11 0.052685 0.889983 0.674353
O O12 0.027747 0.167560 0.814171
O O13 0.342141 0.466528 0.342735
#
# Coordination Sequence:
#
# PCOD9287052 Si02
#       7
#     8   8   8   4   8   8   8
#     4  10  24  41  72  94 129 176 228 277 348 402
#     4  11  24  43  62 103 131 178 218 288 342 406
#     4  11  22  42  62  93 133 175 218 268 343 405
#     4  12  22  40  66 100 132 192 220 294 332 408
#     4  10  21  46  65  97 130 174 227 287 329 418
#     4  11  23  40  66  98 130 172 229 276 342 408
#     4  11  25  42  65  93 147 170 229 279 340 405
#
# _framework density 25.216933000000001
#
# number of rings (size 3 to 8) (size 9 to 14) (size 15 to 20)
#    0.000    1.231    3.077    1.846    4.308    3.692 
#    5.538    0.000    0.000    0.000    0.000    0.000 
#    0.000    0.000    0.000    0.000    0.000    0.000 
#
# Total GULP energy -144958.629503 kJ/mol
# GULP energy per Si atom -5575.331904 kJ/mol
# Density = 2.515954 g / cm^3
# Si number density = 25.216933 Si / 1000 Ang^3
#
#
#
# Elastic Constant Matrix: (Units=GPa)
#
#
# Indices 1 2 3 4 5 6 
#
# 1 37.4916 6.2947 22.4589 0.0000 -18.8516 -0.0001
# 2 6.2947 28.4108 37.3507 -0.0002 -6.5850 -0.0001
# 3 22.4589 37.3507 140.0652 0.0000 -31.4919 0.0000
# 4 0.0000 -0.0002 0.0000 49.5153 0.0000 0.6952
# 5 -18.8516 -6.5850 -31.4919 0.0000 50.3750 0.0000
# 6 -0.0001 -0.0001 0.0000 0.6952 0.0000 -6.6560
#
#
#
# Elastic Compliance Matrix: (Units=1/GPa)
#
#
# Indices 1 2 3 4 5 6 
#
# 1 0.033958 -0.001633 -0.002560 0.000000 0.010894 0.000000
# 2 -0.001633 0.054501 -0.014902 0.000000 -0.002803 -0.000001
# 3 -0.002560 -0.014902 0.012648 0.000000 0.005001 0.000000
# 4 0.000000 0.000000 0.000000 0.020166 0.000000 0.002106
# 5 0.010894 -0.002803 0.005001 0.000000 0.026688 0.000000
# 6 0.000000 -0.000001 0.000000 0.002106 0.000000 -0.150020
#
#
# Mechanical properties :
#
#
# Convention : Reuss Voigt Hill
#
# Bulk Modulus (GPa) = 15.89386 37.57514 26.73450
# Shear Modulus (GPa) = 87.55853 27.97109 57.76481
#
# Velocity S-wave (km/s) = 5.89894 3.33411 4.79133
# Velocity P-wave (km/s) = 7.26039 5.45480 6.42137
#
# Compressibility (1/GPa) = 0.06291737
#
# Stress axis : x y z
#
# Youngs Moduli (GPa) = 29.44796 18.34828 79.06195
#
# Poissons Ratio (x) = 0.02996 0.20242
# Poissons Ratio (y) = 0.04809 1.17817
# Poissons Ratio (z) = 0.07539 0.27342
#
# Static dielectric constant tensor:
#      x y z
#    x 2.033610 0.000000 0.084000 
#    y 0.000000 2.341200 0.000000 
#    z 0.084000 0.000000 2.073330 
# 
# From -- ./inp_files/221148.got.cif
#   From: 2010.05.17/outbox.cif.g08.bks.cpg/sg15_111_cif.got.tgz:221148.got - 2010.06.03 18:47:42.
