data_PCOD9287341
_publ_section_title
;
Structure prediction by ZEFSAII (Michael W. Deem and Ramdas Pophale) SiO2 
 PCOD9287341
Probable space group: C 2/C
;
_chemical_formula_sum "Si O2"
_cell_formula_units_Z 36
_cell_length_a 20.205312
_cell_length_b 10.735318
_cell_length_c 8.726222
_cell_angle_alpha 90.000000
_cell_angle_beta 73.965299
_cell_angle_gamma 90.000000
_cell_volume 1819.168220
_symmetry_space_group_name_H-M "C 2/C"
_symmetry_group_IT_number 15
_symmetry_cell_setting 'monoclinic'
loop_
_space_group_symop_operation_xyz
x,y,z
-x,y,1/2-z
-x,-y,-z
x,-y,1/2+z
1/2+x,1/2+y,z
1/2-x,1/2+y,1/2-z
1/2-x,1/2-y,-z
1/2+x,1/2-y,1/2+z
loop_
_atom_site_type_symbol
_atom_site_label
_atom_site_fract_x
_atom_site_fract_y
_atom_site_fract_z
Si Si1 0.500000 0.502895 0.250000
Si Si2 0.947384 0.179333 0.047528
Si Si3 0.184318 0.672019 0.995404
Si Si4 0.949899 0.395502 0.409850
Si Si5 0.360463 0.022982 0.725002
O O1 0.445299 0.593575 0.200758
O O2 0.469126 0.413512 0.398332
O O3 0.007981 0.280580 0.046246
O O4 0.878888 0.247169 0.032274
O O5 0.159365 0.594444 0.159171
O O6 0.250000 0.750000 0.000000
O O7 0.198732 0.576818 0.845965
O O8 0.918193 0.480264 0.563019
O O9 0.886427 0.374154 0.332328
O O10 0.000000 0.458342 0.250000
#
# Coordination Sequence:
#
# PCOD9287341 Si02
#       5
#     4   8   8   8   8
#     4  10  22  36  56  84 116 154 186 242 290 350
#     4  11  21  36  57  85 117 149 195 235 296 339
#     4  11  24  41  58  84 120 158 198 234 282 352
#     4  11  19  35  62  95 115 141 187 259 302 335
#     4  10  23  37  63  91 116 149 194 246 300 337
#
# _framework density 19.789262999999998
#
# number of rings (size 3 to 8) (size 9 to 14) (size 15 to 20)
#    0.000    1.333    3.333    2.000    3.111    1.778 
#    0.000    4.444    0.000    0.000    0.000    0.000 
#    0.000    0.000    0.000    0.000    0.000    0.000 
#
# Total GULP energy -100206.446494 kJ/mol
# GULP energy per Si atom -5567.024805 kJ/mol
# Density = 1.974422 g / cm^3
# Si number density = 19.789263 Si / 1000 Ang^3
#
#
#
# Elastic Constant Matrix: (Units=GPa)
#
#
# Indices 1 2 3 4 5 6 
#
# 1 127.3489 77.4070 67.5169 0.0000 34.0324 0.0000
# 2 77.4070 113.9131 64.4181 0.0000 20.0727 0.0000
# 3 67.5169 64.4181 120.2627 0.0000 40.4252 0.0000
# 4 0.0000 0.0000 0.0000 37.9277 0.0000 16.1399
# 5 34.0324 20.0727 40.4252 0.0000 30.7279 0.0000
# 6 0.0000 0.0000 0.0000 16.1399 0.0000 44.2908
#
#
#
# Elastic Compliance Matrix: (Units=1/GPa)
#
#
# Indices 1 2 3 4 5 6 
#
# 1 0.016840 -0.008984 -0.000619 0.000000 -0.011968 0.000000
# 2 -0.008984 0.017410 -0.006819 0.000000 0.007549 0.000000
# 3 -0.000619 -0.006819 0.018981 0.000000 -0.019832 0.000000
# 4 0.000000 0.000000 0.000000 0.031205 0.000000 -0.011371
# 5 -0.011968 0.007549 -0.019832 0.000000 0.066958 0.000000
# 6 0.000000 0.000000 0.000000 -0.011371 0.000000 0.026722
#
#
# Mechanical properties :
#
#
# Convention : Reuss Voigt Hill
#
# Bulk Modulus (GPa) = 49.05159 86.68985 67.87072
# Shear Modulus (GPa) = 22.96162 32.73480 27.84821
#
# Velocity S-wave (km/s) = 3.41002 4.07156 3.75539
# Velocity P-wave (km/s) = 6.35178 8.12435 7.29213
#
# Compressibility (1/GPa) = 0.02038670
#
# Stress axis : x y z
#
# Youngs Moduli (GPa) = 59.38375 57.43945 52.68320
#
# Poissons Ratio (x) = 0.51605 0.03260
# Poissons Ratio (y) = 0.53352 0.35924
# Poissons Ratio (z) = 0.03675 0.39168
#
# Static dielectric constant tensor:
#      x y z
#    x 1.769040 0.000000 0.028280 
#    y 0.000000 1.775860 0.000000 
#    z 0.028280 0.000000 1.708550 
# 
# From -- ./inp_files/45863.got.cif
#   From: 2010.05.17/outbox.cif.g08.bks.cpg/sg15_23_cif.got.tgz:45863.got - 2010.06.03 18:47:42.
