data_PCOD9287131
_publ_section_title
;
Structure prediction by ZEFSAII (Michael W. Deem and Ramdas Pophale) SiO2 
 PCOD9287131
Probable space group: C 2/C
;
_chemical_formula_sum "Si O2"
_cell_formula_units_Z 28
_cell_length_a 6.940865
_cell_length_b 7.418523
_cell_length_c 19.522421
_cell_angle_alpha 90.000000
_cell_angle_beta 99.295357
_cell_angle_gamma 90.000000
_cell_volume 992.028483
_symmetry_space_group_name_H-M "C 2/C"
_symmetry_group_IT_number 15
_symmetry_cell_setting 'monoclinic'
loop_
_space_group_symop_operation_xyz
x,y,z
-x,y,1/2-z
-x,-y,-z
x,-y,1/2+z
1/2+x,1/2+y,z
1/2-x,1/2+y,1/2-z
1/2-x,1/2-y,-z
1/2+x,1/2-y,1/2+z
loop_
_atom_site_type_symbol
_atom_site_label
_atom_site_fract_x
_atom_site_fract_y
_atom_site_fract_z
Si Si1 0.340597 0.970544 0.645411
Si Si2 0.500000 0.737491 0.250000
Si Si3 0.222991 0.962629 0.994597
Si Si4 0.110404 0.934535 0.343729
O O1 0.369480 0.771417 0.676756
O O2 0.482764 0.120243 0.685962
O O3 0.349276 0.953329 0.563151
O O4 0.117711 0.031680 0.649006
O O5 0.650751 0.587365 0.289343
O O6 0.250000 0.750000 0.000000
O O7 0.239248 0.032778 0.918547
O O8 0.000000 0.000000 0.000000
#
# Coordination Sequence:
#
# PCOD9287131 Si02
#       4
#     8   4   8   8
#     4  11  26  46  72 103 144 189 240 295 357 424
#     4  12  26  42  70 102 152 182 242 286 368 428
#     4  10  21  48  72 105 139 187 242 298 350 421
#     4  11  26  46  72 103 144 189 240 295 357 424
#
# _framework density 28.224993000000001
#
# number of rings (size 3 to 8) (size 9 to 14) (size 15 to 20)
#    0.000    1.143    2.857    1.714    8.000    0.000 
#    0.000    5.714    0.000    0.000    0.000    0.000 
#    0.000    0.000    0.000    0.000    0.000    0.000 
#
# Total GULP energy -78421.773448 kJ/mol
# GULP energy per Si atom -5601.555246 kJ/mol
# Density = 2.816075 g / cm^3
# Si number density = 28.224993 Si / 1000 Ang^3
#
#
#
# Elastic Constant Matrix: (Units=GPa)
#
#
# Indices 1 2 3 4 5 6 
#
# 1 145.1725 49.4760 22.2631 0.0000 23.0891 0.0000
# 2 49.4760 299.6950 85.0817 0.0000 21.7807 0.0000
# 3 22.2631 85.0817 289.7928 0.0000 5.6619 0.0000
# 4 0.0000 0.0000 0.0000 53.4408 0.0000 -0.5676
# 5 23.0891 21.7807 5.6619 0.0000 25.8135 0.0000
# 6 0.0000 0.0000 0.0000 -0.5676 0.0000 53.6526
#
#
#
# Elastic Compliance Matrix: (Units=1/GPa)
#
#
# Indices 1 2 3 4 5 6 
#
# 1 0.008262 -0.000804 -0.000269 0.000000 -0.006652 0.000000
# 2 -0.000804 0.003940 -0.001049 0.000000 -0.002375 0.000000
# 3 -0.000269 -0.001049 0.003773 0.000000 0.000297 0.000000
# 4 0.000000 0.000000 0.000000 0.018714 0.000000 0.000198
# 5 -0.006652 -0.002375 0.000297 0.000000 0.046628 0.000000
# 6 0.000000 0.000000 0.000000 0.000198 0.000000 0.018641
#
#
# Mechanical properties :
#
#
# Convention : Reuss Voigt Hill
#
# Bulk Modulus (GPa) = 85.23561 116.47799 100.85680
# Shear Modulus (GPa) = 46.24857 65.10400 55.67629
#
# Velocity S-wave (km/s) = 4.05231 4.80793 4.44620
# Velocity P-wave (km/s) = 7.22213 8.49581 7.88473
#
# Compressibility (1/GPa) = 0.01173219
#
# Stress axis : x y z
#
# Youngs Moduli (GPa) = 121.04138 253.82281 265.01248
#
# Poissons Ratio (x) = 0.20412 0.07119
# Poissons Ratio (y) = 0.09734 0.27787
# Poissons Ratio (z) = 0.03251 0.26614
#
# Static dielectric constant tensor:
#      x y z
#    x 2.394790 0.000000 -0.100030 
#    y 0.000000 2.028240 0.000000 
#    z -0.100030 0.000000 2.234870 
# 
# From -- ./inp_files/226131.got.cif
#   From: 2010.05.17/outbox.cif.g08.bks.cpg/sg15_114_cif.got.tgz:226131.got - 2010.06.03 18:47:42.
