data_PCOD9287040
_publ_section_title
;
Structure prediction by ZEFSAII (Michael W. Deem and Ramdas Pophale) SiO2 
 PCOD9287040
Probable space group: C 2/C
;
_chemical_formula_sum "Si O2"
_cell_formula_units_Z 56
_cell_length_a 11.960689
_cell_length_b 20.309325
_cell_length_c 11.241043
_cell_angle_alpha 90.000000
_cell_angle_beta 58.681463
_cell_angle_gamma 90.000000
_cell_volume 2332.727330
_symmetry_space_group_name_H-M "C 2/C"
_symmetry_group_IT_number 15
_symmetry_cell_setting 'monoclinic'
loop_
_space_group_symop_operation_xyz
x,y,z
-x,y,1/2-z
-x,-y,-z
x,-y,1/2+z
1/2+x,1/2+y,z
1/2-x,1/2+y,1/2-z
1/2-x,1/2-y,-z
1/2+x,1/2-y,1/2+z
loop_
_atom_site_type_symbol
_atom_site_label
_atom_site_fract_x
_atom_site_fract_y
_atom_site_fract_z
Si Si1 0.308879 0.679311 0.437289
Si Si2 0.081420 0.828852 0.882406
Si Si3 0.721583 0.391813 0.983208
Si Si4 0.439585 0.215256 0.410054
Si Si5 0.326664 0.035833 0.633700
Si Si6 0.467909 0.467163 0.144627
Si Si7 0.422218 0.896052 0.524979
O O1 0.250000 0.750000 0.500000
O O2 0.368011 0.690764 0.273750
O O3 0.428771 0.654370 0.451649
O O4 0.192891 0.626941 0.496456
O O5 0.186523 0.883769 0.864780
O O6 0.082421 0.771699 0.980732
O O7 0.801762 0.448825 0.005598
O O8 0.570922 0.406792 0.104545
O O9 0.806111 0.327424 0.969964
O O10 0.500000 0.237638 0.250000
O O11 0.544191 0.163756 0.405810
O O12 0.185804 0.047464 0.768667
O O13 0.439848 0.085140 0.612382
O O14 0.379049 0.962411 0.615317
O O15 0.500000 0.508059 0.250000
O O16 0.500000 0.500000 0.000000
#
# Coordination Sequence:
#
# PCOD9287040 Si02
#       7
#     8   8   8   8   8   8   8
#     4  11  24  47  74 102 145 199 241 303 371 447
#     4  11  25  44  72 108 146 188 249 304 370 447
#     4  10  23  43  66 107 140 188 238 297 365 435
#     4  11  23  41  75 108 144 189 241 314 369 438
#     4   9  22  44  74 107 146 192 243 306 370 441
#     4  10  23  43  70 103 150 192 246 304 368 457
#     4  10  21  45  77 102 147 195 247 298 368 446
#
# _framework density 24.006233999999999
#
# number of rings (size 3 to 8) (size 9 to 14) (size 15 to 20)
#    0.000    1.714    1.429    1.286    4.000    4.000 
#   12.857    0.000    6.286    0.000    0.000    0.000 
#    0.000    0.000    0.000    0.000    0.000    0.000 
#
# Total GULP energy -156233.819134 kJ/mol
# GULP energy per Si atom -5579.779255 kJ/mol
# Density = 2.395159 g / cm^3
# Si number density = 24.006234 Si / 1000 Ang^3
#
#
#
# Elastic Constant Matrix: (Units=GPa)
#
#
# Indices 1 2 3 4 5 6 
#
# 1 194.8159 39.0490 57.6503 0.0000 -29.4084 0.0000
# 2 39.0490 65.7837 31.3136 0.0000 -4.9765 0.0000
# 3 57.6503 31.3136 109.3958 0.0000 -10.7156 0.0000
# 4 0.0000 0.0000 0.0000 20.1854 0.0000 -2.5013
# 5 -29.4084 -4.9765 -10.7156 0.0000 48.9132 0.0000
# 6 0.0000 0.0000 0.0000 -2.5013 0.0000 35.4449
#
#
#
# Elastic Compliance Matrix: (Units=1/GPa)
#
#
# Indices 1 2 3 4 5 6 
#
# 1 0.006924 -0.002636 -0.002568 0.000000 0.003332 0.000000
# 2 -0.002636 0.018626 -0.003998 0.000000 -0.000565 0.000000
# 3 -0.002568 -0.003998 0.011699 0.000000 0.000612 0.000000
# 4 0.000000 0.000000 0.000000 0.049978 0.000000 0.003527
# 5 0.003332 -0.000565 0.000612 0.000000 0.022525 0.000000
# 6 0.000000 0.000000 0.000000 0.003527 0.000000 0.028462
#
#
# Mechanical properties :
#
#
# Convention : Reuss Voigt Hill
#
# Bulk Modulus (GPa) = 53.06263 69.55789 61.31026
# Shear Modulus (GPa) = 30.69383 37.04085 33.86734
#
# Velocity S-wave (km/s) = 3.57960 3.93232 3.76010
# Velocity P-wave (km/s) = 6.26390 7.04666 6.66678
#
# Compressibility (1/GPa) = 0.01884565
#
# Stress axis : x y z
#
# Youngs Moduli (GPa) = 144.41722 53.68786 85.47831
#
# Poissons Ratio (x) = 0.14151 0.21953
# Poissons Ratio (y) = 0.38064 0.34174
# Poissons Ratio (z) = 0.37089 0.21464
#
# Static dielectric constant tensor:
#      x y z
#    x 1.960130 0.000000 0.030310 
#    y 0.000000 1.360370 0.000000 
#    z 0.030310 0.000000 2.010880 
# 
# From -- ./inp_files/90709.got.cif
#   From: 2010.05.17/outbox.cif.g08.bks.cpg/sg15_46_cif.got.tgz:90709.got - 2010.06.03 18:47:42.
