data_PCOD9287590
_publ_section_title
;
Structure prediction by ZEFSAII (Michael W. Deem and Ramdas Pophale) SiO2 
 PCOD9287590
Probable space group: C 2/C
;
_chemical_formula_sum "Si O2"
_cell_formula_units_Z 40
_cell_length_a 7.032233
_cell_length_b 21.693187
_cell_length_c 13.533599
_cell_angle_alpha 90.000000
_cell_angle_beta 129.248226
_cell_angle_gamma 90.000000
_cell_volume 1598.829383
_symmetry_space_group_name_H-M "C 2/C"
_symmetry_group_IT_number 15
_symmetry_cell_setting 'monoclinic'
loop_
_space_group_symop_operation_xyz
x,y,z
-x,y,1/2-z
-x,-y,-z
x,-y,1/2+z
1/2+x,1/2+y,z
1/2-x,1/2+y,1/2-z
1/2-x,1/2-y,-z
1/2+x,1/2-y,1/2+z
loop_
_atom_site_type_symbol
_atom_site_label
_atom_site_fract_x
_atom_site_fract_y
_atom_site_fract_z
Si Si1 0.092085 0.081103 0.054417
Si Si2 0.891358 0.695142 0.422378
Si Si3 0.143981 0.972527 0.203076
Si Si4 0.639697 0.713533 0.143905
Si Si5 0.550563 0.932736 0.471039
O O1 0.048222 0.065649 0.925978
O O2 0.816894 0.073881 0.008911
O O3 0.185734 0.148756 0.105394
O O4 0.230499 0.027870 0.160805
O O5 0.839375 0.720628 0.295885
O O6 0.626900 0.704788 0.389893
O O7 0.092716 0.732354 0.550919
O O8 0.951707 0.622675 0.450908
O O9 0.352666 0.929218 0.317273
O O10 0.000000 0.999782 0.250000
O O11 0.500000 0.000000 0.500000
#
# Coordination Sequence:
#
# PCOD9287590 Si02
#       5
#     8   8   8   8   8
#     4  10  22  37  58  87 119 158 198 251 300 359
#     4   9  19  31  56  86 119 154 192 249 300 351
#     4  11  22  37  58  86 118 157 201 249 305 358
#     4   9  18  34  54  85 120 151 196 248 299 346
#     4  11  20  35  60  87 120 157 198 244 304 363
#
# _framework density 25.018305000000002
#
# number of rings (size 3 to 8) (size 9 to 14) (size 15 to 20)
#    0.000    2.000    2.000    1.800    5.600    0.000 
#    0.000    0.000    0.000    1.200    0.000    0.000 
#    0.000    0.000    0.000    0.000    0.000    0.000 
#
# Total GULP energy -111970.905040 kJ/mol
# GULP energy per Si atom -5598.545252 kJ/mol
# Density = 2.496136 g / cm^3
# Si number density = 25.018305 Si / 1000 Ang^3
#
#
#
# Elastic Constant Matrix: (Units=GPa)
#
#
# Indices 1 2 3 4 5 6 
#
# 1 73.1081 4.8285 37.5232 0.0000 9.3567 0.0000
# 2 4.8285 125.0309 71.4713 0.0000 -9.6669 0.0000
# 3 37.5232 71.4713 208.8922 0.0000 -12.7107 0.0000
# 4 0.0000 0.0000 0.0000 39.8126 0.0000 -1.1867
# 5 9.3567 -9.6669 -12.7107 0.0000 44.0065 0.0000
# 6 0.0000 0.0000 0.0000 -1.1867 0.0000 21.4906
#
#
#
# Elastic Compliance Matrix: (Units=1/GPa)
#
#
# Indices 1 2 3 4 5 6 
#
# 1 0.015923 0.001048 -0.003472 0.000000 -0.004158 0.000000
# 2 0.001048 0.010077 -0.003578 0.000000 0.000957 0.000000
# 3 -0.003472 -0.003578 0.006751 0.000000 0.001902 0.000000
# 4 0.000000 0.000000 0.000000 0.025159 0.000000 0.001389
# 5 -0.004158 0.000957 0.001902 0.000000 0.024368 0.000000
# 6 0.000000 0.000000 0.000000 0.001389 0.000000 0.046609
#
#
# Mechanical properties :
#
#
# Convention : Reuss Voigt Hill
#
# Bulk Modulus (GPa) = 48.19788 70.51969 59.35879
# Shear Modulus (GPa) = 33.82833 40.60916 37.21874
#
# Velocity S-wave (km/s) = 3.68114 4.03324 3.86120
# Velocity P-wave (km/s) = 6.11348 7.06667 6.60728
#
# Compressibility (1/GPa) = 0.02074780
#
# Stress axis : x y z
#
# Youngs Moduli (GPa) = 62.80086 99.23900 148.13347
#
# Poissons Ratio (x) = -0.10403 0.51432
# Poissons Ratio (y) = -0.06583 0.52998
# Poissons Ratio (z) = 0.21804 0.35505
#
# Static dielectric constant tensor:
#      x y z
#    x 2.108020 0.000000 0.001470 
#    y 0.000000 1.907910 0.000000 
#    z 0.001470 0.000000 1.998750 
# 
# From -- ./inp_files/136304.got.cif
#   From: 2010.05.17/outbox.cif.g08.bks.cpg/sg15_69_cif.got.tgz:136304.got - 2010.06.03 18:47:42.
