data_PCOD9287216
_publ_section_title
;
Structure prediction by ZEFSAII (Michael W. Deem and Ramdas Pophale) SiO2 
 PCOD9287216
Probable space group: C 2/C
;
_chemical_formula_sum "Si O2"
_cell_formula_units_Z 48
_cell_length_a 12.910409
_cell_length_b 27.785827
_cell_length_c 10.670714
_cell_angle_alpha 90.000000
_cell_angle_beta 32.611634
_cell_angle_gamma 90.000000
_cell_volume 2062.997516
_symmetry_space_group_name_H-M "C 2/C"
_symmetry_group_IT_number 15
_symmetry_cell_setting 'monoclinic'
loop_
_space_group_symop_operation_xyz
x,y,z
-x,y,1/2-z
-x,-y,-z
x,-y,1/2+z
1/2+x,1/2+y,z
1/2-x,1/2+y,1/2-z
1/2-x,1/2-y,-z
1/2+x,1/2-y,1/2+z
loop_
_atom_site_type_symbol
_atom_site_label
_atom_site_fract_x
_atom_site_fract_y
_atom_site_fract_z
Si Si1 0.010827 0.652637 0.440412
Si Si2 0.500000 0.434533 0.250000
Si Si3 0.224315 0.193148 0.547596
Si Si4 0.277938 0.604388 0.333935
Si Si5 0.780586 0.515349 0.293692
Si Si6 0.000000 0.540824 0.750000
Si Si7 0.663031 0.587786 0.837816
O O1 0.830993 0.685171 0.573709
O O2 0.879675 0.606453 0.608394
O O3 0.155999 0.650838 0.412154
O O4 0.157686 0.660456 0.174253
O O5 0.329265 0.468756 0.468023
O O6 0.422155 0.404320 0.213695
O O7 0.250000 0.250000 0.500000
O O8 0.000000 0.185530 0.750000
O O9 0.241750 0.563270 0.264301
O O10 0.181289 0.576955 0.549908
O O11 0.507312 0.610967 0.091461
O O12 0.975892 0.493482 0.153699
O O13 0.672343 0.469339 0.348299
#
# Coordination Sequence:
#
# PCOD9287216 Si02
#       7
#     8   4   8   8   8   4   8
#     4  11  24  38  63  93 129 158 207 256 319 392
#     4  10  22  34  58  78 122 178 222 276 314 360
#     4  11  23  43  68  98 130 163 195 247 337 420
#     4  11  24  39  58  89 127 175 232 272 317 371
#     4  11  22  37  56  83 128 177 234 271 311 365
#     4  12  22  36  58  80 124 182 226 272 322 356
#     4  11  23  40  56  91 127 172 226 267 317 370
#
# _framework density 23.267115
#
# number of rings (size 3 to 8) (size 9 to 14) (size 15 to 20)
#    0.000    1.000    3.333    5.500   12.833    0.000 
#    0.000    0.000    0.000    0.000    0.000    1.167 
#    0.000    0.167    0.000    0.000    0.000    0.000 
#
# Total GULP energy -133677.297839 kJ/mol
# GULP energy per Si atom -5569.887410 kJ/mol
# Density = 2.321416 g / cm^3
# Si number density = 23.267115 Si / 1000 Ang^3
#
#
#
# Elastic Constant Matrix: (Units=GPa)
#
#
# Indices 1 2 3 4 5 6 
#
# 1 81.9494 19.3347 12.4072 0.0000 -22.2471 0.0000
# 2 19.3347 72.9878 21.1945 0.0000 -3.1710 0.0000
# 3 12.4072 21.1945 125.0075 0.0000 -32.0678 0.0000
# 4 0.0000 0.0000 0.0000 27.2054 0.0000 -9.4839
# 5 -22.2471 -3.1710 -32.0678 0.0000 51.7848 0.0000
# 6 0.0000 0.0000 0.0000 -9.4839 0.0000 35.4507
#
#
#
# Elastic Compliance Matrix: (Units=1/GPa)
#
#
# Indices 1 2 3 4 5 6 
#
# 1 0.014797 -0.003892 0.000905 0.000000 0.006679 0.000000
# 2 -0.003892 0.015459 -0.002878 0.000000 -0.002508 0.000000
# 3 0.000905 -0.002878 0.010048 0.000000 0.006435 0.000000
# 4 0.000000 0.000000 0.000000 0.040538 0.000000 0.010845
# 5 0.006679 -0.002508 0.006435 0.000000 0.026011 0.000000
# 6 0.000000 0.000000 0.000000 0.010845 0.000000 0.031109
#
#
# Mechanical properties :
#
#
# Convention : Reuss Voigt Hill
#
# Bulk Modulus (GPa) = 34.99821 42.86861 38.93341
# Shear Modulus (GPa) = 31.40337 38.02208 34.71272
#
# Velocity S-wave (km/s) = 3.67780 4.04685 3.86673
# Velocity P-wave (km/s) = 5.75409 6.34827 6.05847
#
# Compressibility (1/GPa) = 0.02857289
#
# Stress axis : x y z
#
# Youngs Moduli (GPa) = 67.58068 64.68821 99.51833
#
# Poissons Ratio (x) = 0.25179 -0.09002
# Poissons Ratio (y) = 0.26305 0.28641
# Poissons Ratio (z) = -0.06113 0.18617
#
# Static dielectric constant tensor:
#      x y z
#    x 1.979190 0.000000 0.019200 
#    y 0.000000 1.849130 0.000000 
#    z 0.019200 0.000000 2.143420 
# 
# From -- ./inp_files/101263.got.cif
#   From: 2010.05.17/outbox.cif.g08.bks.cpg/sg15_51_cif.got.tgz:101263.got - 2010.06.03 18:47:42.
