data_PCOD9287027
_publ_section_title
;
Structure prediction by ZEFSAII (Michael W. Deem and Ramdas Pophale) SiO2 
 PCOD9287027
Probable space group: C 2/C
;
_chemical_formula_sum "Si O2"
_cell_formula_units_Z 40
_cell_length_a 12.272127
_cell_length_b 14.618983
_cell_length_c 16.437693
_cell_angle_alpha 90.000000
_cell_angle_beta 151.472917
_cell_angle_gamma 90.000000
_cell_volume 1408.376094
_symmetry_space_group_name_H-M "C 2/C"
_symmetry_group_IT_number 15
_symmetry_cell_setting 'monoclinic'
loop_
_space_group_symop_operation_xyz
x,y,z
-x,y,1/2-z
-x,-y,-z
x,-y,1/2+z
1/2+x,1/2+y,z
1/2-x,1/2+y,1/2-z
1/2-x,1/2-y,-z
1/2+x,1/2-y,1/2+z
loop_
_atom_site_type_symbol
_atom_site_label
_atom_site_fract_x
_atom_site_fract_y
_atom_site_fract_z
Si Si1 0.287552 0.644228 0.659402
Si Si2 0.810539 0.974322 0.504114
Si Si3 0.620777 0.330569 0.517257
Si Si4 0.309560 0.713910 0.948666
Si Si5 0.790033 0.589077 0.379752
O O1 0.500000 0.599725 0.750000
O O2 0.387023 0.664477 0.813281
O O3 0.250889 0.737038 0.584431
O O4 0.044786 0.594220 0.509800
O O5 0.728838 0.891033 0.393744
O O6 0.711706 0.949524 0.528630
O O7 0.087556 0.960344 0.697387
O O8 0.766197 0.072781 0.433409
O O9 0.553024 0.307015 0.565347
O O10 0.224778 0.802903 0.844019
O O11 0.250000 0.750000 0.000000
#
# Coordination Sequence:
#
# PCOD9287027 Si02
#       5
#     8   8   8   8   8
#     4  11  26  49  74 107 158 217 267 321 413 481
#     4  10  21  45  73 118 153 201 274 331 397 475
#     4  11  25  45  76 112 155 209 271 330 393 485
#     4   9  20  41  71 107 152 203 250 321 402 474
#     4   9  22  41  76 104 157 200 257 335 403 467
#
# _framework density 28.401505
#
# number of rings (size 3 to 8) (size 9 to 14) (size 15 to 20)
#    0.000    2.000    0.000    1.200   14.000    0.800 
#    3.600    2.000    0.000    0.000    0.000    0.000 
#    0.000    0.000    0.000    0.000    0.000    0.000 
#
# Total GULP energy -111616.757328 kJ/mol
# GULP energy per Si atom -5580.837866 kJ/mol
# Density = 2.833686 g / cm^3
# Si number density = 28.401505 Si / 1000 Ang^3
#
#
#
# Elastic Constant Matrix: (Units=GPa)
#
#
# Indices 1 2 3 4 5 6 
#
# 1 197.3192 68.4799 78.1037 -0.0025 20.7363 -0.0046
# 2 68.4799 282.6900 42.2715 0.0057 8.4414 -0.0012
# 3 78.1037 42.2715 104.4534 -0.0036 20.3503 -0.0025
# 4 -0.0025 0.0057 -0.0036 32.6587 0.0011 -16.0665
# 5 20.7363 8.4414 20.3503 0.0011 63.2579 -0.0019
# 6 -0.0046 -0.0012 -0.0025 -16.0665 -0.0019 52.3736
#
#
#
# Elastic Compliance Matrix: (Units=1/GPa)
#
#
# Indices 1 2 3 4 5 6 
#
# 1 0.007502 -0.001041 -0.005053 0.000000 -0.000695 0.000001
# 2 -0.001041 0.003910 -0.000820 -0.000001 0.000083 0.000000
# 3 -0.005053 -0.000820 0.014232 0.000002 -0.002813 0.000001
# 4 0.000000 -0.000001 0.000002 0.036062 -0.000001 0.011063
# 5 -0.000695 0.000083 -0.002813 -0.000001 0.016930 0.000000
# 6 0.000001 0.000000 0.000001 0.011063 0.000000 0.022487
#
#
# Mechanical properties :
#
#
# Convention : Reuss Voigt Hill
#
# Bulk Modulus (GPa) = 84.63421 106.90810 95.77115
# Shear Modulus (GPa) = 42.05565 56.03188 49.04376
#
# Velocity S-wave (km/s) = 3.85223 4.44649 4.15999
# Velocity P-wave (km/s) = 7.04629 8.00532 7.54106
#
# Compressibility (1/GPa) = 0.01181555
#
# Stress axis : x y z
#
# Youngs Moduli (GPa) = 133.29059 255.76955 70.26458
#
# Poissons Ratio (x) = 0.26627 0.35506
# Poissons Ratio (y) = 0.13876 0.05762
# Poissons Ratio (z) = 0.67354 0.20975
#
# Static dielectric constant tensor:
#      x y z
#    x 2.290820 0.000000 -0.041250 
#    y 0.000000 2.332030 0.000000 
#    z -0.041250 0.000000 2.313920 
# 
# From -- ./inp_files/204259.got.cif
#   From: 2010.05.17/outbox.cif.g08.bks.cpg/sg15_103_cif.got.tgz:204259.got - 2010.06.03 18:47:42.
