data_PCOD9287794
_publ_section_title
;
Structure prediction by ZEFSAII (Michael W. Deem and Ramdas Pophale) SiO2 
 PCOD9287794
Probable space group: C 2/C
;
_chemical_formula_sum "Si O2"
_cell_formula_units_Z 48
_cell_length_a 14.037648
_cell_length_b 28.967904
_cell_length_c 13.965660
_cell_angle_alpha 90.000000
_cell_angle_beta 158.203950
_cell_angle_gamma 90.000000
_cell_volume 2108.639355
_symmetry_space_group_name_H-M "C 2/C"
_symmetry_group_IT_number 15
_symmetry_cell_setting 'monoclinic'
loop_
_space_group_symop_operation_xyz
x,y,z
-x,y,1/2-z
-x,-y,-z
x,-y,1/2+z
1/2+x,1/2+y,z
1/2-x,1/2+y,1/2-z
1/2-x,1/2-y,-z
1/2+x,1/2-y,1/2+z
loop_
_atom_site_type_symbol
_atom_site_label
_atom_site_fract_x
_atom_site_fract_y
_atom_site_fract_z
Si Si1 0.473256 0.220259 0.338625
Si Si2 0.974672 0.779784 0.839168
Si Si3 0.733253 0.858016 0.734564
Si Si4 0.283625 0.596753 0.477195
Si Si5 0.746888 0.545926 0.330852
Si Si6 0.274496 0.996095 0.148415
O O1 0.500000 0.209046 0.250000
O O2 0.697801 0.254300 0.582290
O O3 0.471738 0.176384 0.407561
O O4 0.728477 0.745862 0.612979
O O5 0.916079 0.825417 0.844107
O O6 0.000000 0.790904 0.750000
O O7 0.852132 0.881641 0.939246
O O8 0.655197 0.902388 0.599578
O O9 0.284481 0.541539 0.467449
O O10 0.000000 0.608184 0.250000
O O11 0.500000 0.613372 0.750000
O O12 0.760980 0.516146 0.245426
O O13 0.938442 0.523628 0.586271
O O14 0.447153 0.541420 0.076132
#
# Coordination Sequence:
#
# PCOD9287794 Si02
#       6
#     8   8   8   8   8   8
#     4  10  22  38  56  83 125 172 209 244 300 376
#     4  10  23  44  68  92 122 163 211 264 327 388
#     4  11  23  39  65  96 129 162 211 269 318 364
#     4  11  24  39  61  93 131 174 213 248 300 380
#     4   9  19  33  58  84 111 154 203 252 301 353
#     4   9  18  37  54  78 118 159 199 244 297 352
#
# _framework density 22.763496
#
# number of rings (size 3 to 8) (size 9 to 14) (size 15 to 20)
#    0.000    2.000    0.000    2.500    0.000   11.333 
#    0.000    2.500    0.000    0.000    0.000    0.000 
#    0.000    0.000    0.000    0.000    0.000    0.000 
#
# Total GULP energy -134131.618010 kJ/mol
# GULP energy per Si atom -5588.817417 kJ/mol
# Density = 2.271168 g / cm^3
# Si number density = 22.763496 Si / 1000 Ang^3
#
#
#
# Elastic Constant Matrix: (Units=GPa)
#
#
# Indices 1 2 3 4 5 6 
#
# 1 78.4662 39.0571 31.7799 0.0003 -7.4577 0.0003
# 2 39.0571 111.7177 27.3405 0.0017 -3.4813 0.0007
# 3 31.7799 27.3405 119.2708 -0.0010 12.7090 0.0007
# 4 0.0003 0.0017 -0.0010 66.5176 0.0003 19.7844
# 5 -7.4577 -3.4813 12.7090 0.0003 22.4721 0.0005
# 6 0.0003 0.0007 0.0007 19.7844 0.0005 57.1071
#
#
#
# Elastic Compliance Matrix: (Units=1/GPa)
#
#
# Indices 1 2 3 4 5 6 
#
# 1 0.017671 -0.004863 -0.004404 0.000000 0.007601 0.000000
# 2 -0.004863 0.010999 -0.001314 0.000000 0.000833 0.000000
# 3 -0.004404 -0.001314 0.010680 0.000000 -0.007705 0.000000
# 4 0.000000 0.000000 0.000000 0.016761 0.000000 -0.005807
# 5 0.007601 0.000833 -0.007705 0.000000 0.051509 0.000000
# 6 0.000000 0.000000 0.000000 -0.005807 0.000000 0.019523
#
#
# Mechanical properties :
#
#
# Convention : Reuss Voigt Hill
#
# Bulk Modulus (GPa) = 54.98271 56.20110 55.59191
# Shear Modulus (GPa) = 32.39030 43.30450 37.84740
#
# Velocity S-wave (km/s) = 3.77623 4.36634 4.08197
# Velocity P-wave (km/s) = 6.57416 7.08256 6.83309
#
# Compressibility (1/GPa) = 0.01818754
#
# Stress axis : x y z
#
# Youngs Moduli (GPa) = 56.58956 90.91751 93.63371
#
# Poissons Ratio (x) = 0.44216 0.41233
# Poissons Ratio (y) = 0.27521 0.12306
# Poissons Ratio (z) = 0.24920 0.11949
#
# Static dielectric constant tensor:
#      x y z
#    x 1.893180 0.000000 0.038660 
#    y 0.000000 1.839620 0.000000 
#    z 0.038660 0.000000 1.784460 
# 
# From -- ./inp_files/157724.got.cif
#   From: 2010.05.17/outbox.cif.g08.bks.cpg/sg15_79_cif.got.tgz:157724.got - 2010.06.03 18:47:42.
