data_PCOD9287245
_publ_section_title
;
Structure prediction by ZEFSAII (Michael W. Deem and Ramdas Pophale) SiO2 
 PCOD9287245
Probable space group: C 2/C
;
_chemical_formula_sum "Si O2"
_cell_formula_units_Z 36
_cell_length_a 21.944256
_cell_length_b 12.023753
_cell_length_c 9.137085
_cell_angle_alpha 90.000000
_cell_angle_beta 52.716690
_cell_angle_gamma 90.000000
_cell_volume 1918.185582
_symmetry_space_group_name_H-M "C 2/C"
_symmetry_group_IT_number 15
_symmetry_cell_setting 'monoclinic'
loop_
_space_group_symop_operation_xyz
x,y,z
-x,y,1/2-z
-x,-y,-z
x,-y,1/2+z
1/2+x,1/2+y,z
1/2-x,1/2+y,1/2-z
1/2-x,1/2-y,-z
1/2+x,1/2-y,1/2+z
loop_
_atom_site_type_symbol
_atom_site_label
_atom_site_fract_x
_atom_site_fract_y
_atom_site_fract_z
Si Si1 0.000000 0.117479 0.750000
Si Si2 0.773490 0.124523 0.426327
Si Si3 0.367536 0.711425 0.761945
Si Si4 0.735211 0.909990 0.642646
Si Si5 0.582920 0.599659 0.100416
O O1 0.950084 0.190562 0.713774
O O2 0.940820 0.027214 0.905229
O O3 0.750000 0.250000 0.500000
O O4 0.754546 0.098510 0.285828
O O5 0.862689 0.105850 0.338257
O O6 0.730526 0.035442 0.592184
O O7 0.339664 0.837290 0.784216
O O8 0.371891 0.655452 0.596774
O O9 0.304068 0.648584 0.951896
O O10 0.500000 0.654219 0.250000
#
# Coordination Sequence:
#
# PCOD9287245 Si02
#       5
#     4   8   8   8   8
#     4  10  22  34  70  90 134 162 220 276 328 382
#     4  12  24  42  66  95 135 175 220 272 332 386
#     4  11  22  40  60  99 129 168 214 277 333 385
#     4  11  25  39  63  95 136 169 224 267 330 400
#     4  10  22  37  63  98 129 163 219 275 331 392
#
# _framework density 18.767735999999999
#
# number of rings (size 3 to 8) (size 9 to 14) (size 15 to 20)
#    0.667    0.444    4.444    2.000    6.222    0.000 
#    0.000    0.000    2.444    2.667    0.000    0.000 
#    0.000    0.000    0.000    0.000    0.000    0.000 
#
# Total GULP energy -100446.537074 kJ/mol
# GULP energy per Si atom -5580.363171 kJ/mol
# Density = 1.872502 g / cm^3
# Si number density = 18.767736 Si / 1000 Ang^3
#
#
#
# Elastic Constant Matrix: (Units=GPa)
#
#
# Indices 1 2 3 4 5 6 
#
# 1 94.3620 66.9011 25.9084 0.0000 1.8807 0.0000
# 2 66.9011 155.1997 53.3890 0.0000 8.2202 0.0000
# 3 25.9084 53.3890 95.1383 0.0000 23.9061 0.0000
# 4 0.0000 0.0000 0.0000 26.0860 0.0000 -7.0618
# 5 1.8807 8.2202 23.9061 0.0000 29.9102 0.0000
# 6 0.0000 0.0000 0.0000 -7.0618 0.0000 37.7437
#
#
#
# Elastic Compliance Matrix: (Units=1/GPa)
#
#
# Indices 1 2 3 4 5 6 
#
# 1 0.015347 -0.006350 -0.001016 0.000000 0.001592 0.000000
# 2 -0.006350 0.010685 -0.004541 0.000000 0.001092 0.000000
# 3 -0.001016 -0.004541 0.016275 0.000000 -0.011696 0.000000
# 4 0.000000 0.000000 0.000000 0.040380 0.000000 0.007555
# 5 0.001592 0.001092 -0.011696 0.000000 0.042381 0.000000
# 6 0.000000 0.000000 0.000000 0.007555 0.000000 0.027908
#
#
# Mechanical properties :
#
#
# Convention : Reuss Voigt Hill
#
# Bulk Modulus (GPa) = 54.07690 70.78854 62.43272
# Shear Modulus (GPa) = 27.32904 31.98141 29.65523
#
# Velocity S-wave (km/s) = 3.82012 4.13251 3.97938
# Velocity P-wave (km/s) = 6.95227 7.78269 7.37917
#
# Compressibility (1/GPa) = 0.01849218
#
# Stress axis : x y z
#
# Youngs Moduli (GPa) = 65.15918 93.58783 61.44385
#
# Poissons Ratio (x) = 0.59433 0.06241
# Poissons Ratio (y) = 0.41379 0.27904
# Poissons Ratio (z) = 0.06618 0.42501
#
# Static dielectric constant tensor:
#      x y z
#    x 1.675260 0.000000 0.001110 
#    y 0.000000 1.658220 0.000000 
#    z 0.001110 0.000000 1.671020 
# 
# From -- ./inp_files/54025.got.cif
#   From: 2010.05.17/outbox.cif.g08.bks.cpg/sg15_28_cif.got.tgz:54025.got - 2010.06.03 18:47:42.
