data_PCOD9287615
_publ_section_title
;
Structure prediction by ZEFSAII (Michael W. Deem and Ramdas Pophale) SiO2 
 PCOD9287615
Probable space group: C 2/C
;
_chemical_formula_sum "Si O2"
_cell_formula_units_Z 64
_cell_length_a 27.557349
_cell_length_b 7.893043
_cell_length_c 14.424215
_cell_angle_alpha 90.000000
_cell_angle_beta 67.752970
_cell_angle_gamma 90.000000
_cell_volume 2903.880437
_symmetry_space_group_name_H-M "C 2/C"
_symmetry_group_IT_number 15
_symmetry_cell_setting 'monoclinic'
loop_
_space_group_symop_operation_xyz
x,y,z
-x,y,1/2-z
-x,-y,-z
x,-y,1/2+z
1/2+x,1/2+y,z
1/2-x,1/2+y,1/2-z
1/2-x,1/2-y,-z
1/2+x,1/2-y,1/2+z
loop_
_atom_site_type_symbol
_atom_site_label
_atom_site_fract_x
_atom_site_fract_y
_atom_site_fract_z
Si Si1 0.558186 0.505962 0.074595
Si Si2 0.303141 0.226976 0.018691
Si Si3 0.861958 0.164212 0.859784
Si Si4 0.056625 0.948960 0.359880
Si Si5 0.848523 0.451594 0.329633
Si Si6 0.266319 0.523353 0.159006
Si Si7 0.752522 0.915378 0.368498
Si Si8 0.551224 0.778428 0.250223
O O1 0.606184 0.393226 0.074348
O O2 0.503897 0.397049 0.116690
O O3 0.555788 0.650599 0.156704
O O4 0.565763 0.570569 0.963478
O O5 0.304599 0.388864 0.082422
O O6 0.293564 0.045252 0.073695
O O7 0.250000 0.250000 0.000000
O O8 0.345501 0.193620 0.910278
O O9 0.898054 0.122128 0.741912
O O10 0.852167 0.362963 0.868275
O O11 0.803174 0.086625 0.898734
O O12 0.050655 0.146874 0.336157
O O13 0.793844 0.455557 0.313539
O O14 0.904180 0.406939 0.247927
O O15 0.265931 0.720908 0.131366
O O16 0.276455 0.497291 0.258979
O O17 0.500000 0.876731 0.250000
#
# Coordination Sequence:
#
# PCOD9287615 Si02
#       8
#     8   8   8   8   8   8   8   8
#     4   9  19  38  61  88 118 154 203 248 303 373
#     4  10  23  40  61  85 121 168 202 261 300 369
#     4  10  22  37  59  91 115 159 200 255 304 369
#     4   9  19  38  61  88 117 155 202 246 304 371
#     4  10  23  41  55  88 121 155 206 242 311 366
#     4  10  22  40  64  87 124 166 205 260 302 374
#     4  11  22  41  59  92 124 159 217 250 316 362
#     4   9  19  37  62  87 119 153 192 249 303 364
#
# _framework density 22.039473999999998
#
# number of rings (size 3 to 8) (size 9 to 14) (size 15 to 20)
#    0.000    2.250    1.250    1.125    7.000    6.500 
#    6.750    0.000    0.000    4.500    0.000    0.000 
#    0.000    0.000    0.000    0.000    0.000    0.000 
#
# Total GULP energy -178209.577698 kJ/mol
# GULP energy per Si atom -5569.049303 kJ/mol
# Density = 2.198931 g / cm^3
# Si number density = 22.039474 Si / 1000 Ang^3
#
#
#
# Elastic Constant Matrix: (Units=GPa)
#
#
# Indices 1 2 3 4 5 6 
#
# 1 75.8498 24.3274 -6.0359 0.0000 9.4934 0.0000
# 2 24.3274 66.6860 0.6593 0.0000 -0.8025 0.0000
# 3 -6.0359 0.6593 56.3972 0.0000 17.3363 0.0000
# 4 0.0000 0.0000 0.0000 23.5120 0.0000 -7.1809
# 5 9.4934 -0.8025 17.3363 0.0000 24.2766 0.0000
# 6 0.0000 0.0000 0.0000 -7.1809 0.0000 27.3824
#
#
#
# Elastic Compliance Matrix: (Units=1/GPa)
#
#
# Indices 1 2 3 4 5 6 
#
# 1 0.016942 -0.006357 0.005110 0.000000 -0.010485 0.000000
# 2 -0.006357 0.017395 -0.002338 0.000000 0.004730 0.000000
# 3 0.005110 -0.002338 0.024272 0.000000 -0.019409 0.000000
# 4 0.000000 0.000000 0.000000 0.046235 0.000000 0.012125
# 5 -0.010485 0.004730 -0.019409 0.000000 0.059308 0.000000
# 6 0.000000 0.000000 0.000000 0.012125 0.000000 0.039700
#
#
# Mechanical properties :
#
#
# Convention : Reuss Voigt Hill
#
# Bulk Modulus (GPa) = 19.44033 26.31494 22.87764
# Shear Modulus (GPa) = 21.91384 27.03302 24.47343
#
# Velocity S-wave (km/s) = 3.15667 3.50605 3.33594
# Velocity P-wave (km/s) = 4.70382 5.32500 5.02402
#
# Compressibility (1/GPa) = 0.05143945
#
# Stress axis : x y z
#
# Youngs Moduli (GPa) = 59.02544 57.48839 41.20008
#
# Poissons Ratio (x) = 0.36546 -0.21055
# Poissons Ratio (y) = 0.37523 0.09632
# Poissons Ratio (z) = -0.30165 0.13440
#
# Static dielectric constant tensor:
#      x y z
#    x 1.903180 0.000000 -0.091180 
#    y 0.000000 1.827940 0.000000 
#    z -0.091180 0.000000 1.946590 
# 
# From -- ./inp_files/176576.got.cif
#   From: 2010.05.17/outbox.cif.g08.bks.cpg/sg15_89_cif.got.tgz:176576.got - 2010.06.03 18:47:42.
