data_PCOD9287438
_publ_section_title
;
Structure prediction by ZEFSAII (Michael W. Deem and Ramdas Pophale) SiO2 
 PCOD9287438
Probable space group: C 2/C
;
_chemical_formula_sum "Si O2"
_cell_formula_units_Z 60
_cell_length_a 22.164131
_cell_length_b 26.828587
_cell_length_c 15.102855
_cell_angle_alpha 90.000000
_cell_angle_beta 18.747571
_cell_angle_gamma 90.000000
_cell_volume 2886.373415
_symmetry_space_group_name_H-M "C 2/C"
_symmetry_group_IT_number 15
_symmetry_cell_setting 'monoclinic'
loop_
_space_group_symop_operation_xyz
x,y,z
-x,y,1/2-z
-x,-y,-z
x,-y,1/2+z
1/2+x,1/2+y,z
1/2-x,1/2+y,1/2-z
1/2-x,1/2-y,-z
1/2+x,1/2-y,1/2+z
loop_
_atom_site_type_symbol
_atom_site_label
_atom_site_fract_x
_atom_site_fract_y
_atom_site_fract_z
Si Si1 0.814372 0.840055 0.213821
Si Si2 0.350868 0.006441 0.786061
Si Si3 0.209626 0.760614 0.954894
Si Si4 0.454824 0.851101 0.605785
Si Si5 0.307095 0.912582 0.969002
Si Si6 0.053724 0.600163 0.561440
Si Si7 0.689285 0.630465 0.141490
Si Si8 0.000000 0.933456 0.750000
O O1 0.720199 0.791369 0.388061
O O2 0.675015 0.851990 0.325297
O O3 0.813830 0.886591 0.284561
O O4 0.030812 0.829818 0.888377
O O5 0.452368 0.046829 0.708941
O O6 0.500000 0.000000 0.500000
O O7 0.272861 0.960616 0.953869
O O8 0.175256 0.032356 0.983042
O O9 0.366565 0.798435 0.701875
O O10 0.250000 0.750000 0.000000
O O11 0.000000 0.782573 0.250000
O O12 0.351017 0.868391 0.839138
O O13 0.405028 0.889312 0.597584
O O14 0.500000 0.925836 0.750000
O O15 0.230155 0.605766 0.380351
O O16 0.888548 0.640112 0.816109
O O17 0.571558 0.597455 0.235106
#
# Coordination Sequence:
#
# PCOD9287438 Si02
#       8
#     8   8   8   8   8   8   8   4
#     4  11  22  41  64  95 130 171 213 264 324 384
#     4  11  22  40  62  88 127 171 218 267 322 376
#     4  12  23  41  65  98 135 165 209 260 326 392
#     4  11  22  41  65  93 128 169 206 263 321 379
#     4  10  22  36  61  92 126 166 216 257 318 381
#     4  10  23  42  63  92 124 170 218 264 315 380
#     4  10  23  42  65  89 126 172 213 262 323 375
#     4  10  24  42  60  90 128 168 218 264 320 390
#
# _framework density 20.787330999999998
#
# number of rings (size 3 to 8) (size 9 to 14) (size 15 to 20)
#    0.000    1.333    4.000    2.000    7.467    1.067 
#    1.200    4.000    0.000    1.600    0.000    0.000 
#    0.000    0.000    0.000    0.000    0.000    0.000 
#
# Total GULP energy -167052.866096 kJ/mol
# GULP energy per Si atom -5568.428870 kJ/mol
# Density = 2.074002 g / cm^3
# Si number density = 20.787331 Si / 1000 Ang^3
#
#
#
# Elastic Constant Matrix: (Units=GPa)
#
#
# Indices 1 2 3 4 5 6 
#
# 1 116.7978 16.8837 22.1274 0.0303 -24.3491 -0.0318
# 2 16.8837 66.5840 9.3888 0.0210 -7.1395 -0.0346
# 3 22.1274 9.3888 99.7056 -0.0174 -17.6072 -0.0219
# 4 0.0303 0.0210 -0.0174 28.5973 -0.0072 -3.5814
# 5 -24.3491 -7.1395 -17.6072 -0.0072 32.6005 0.0401
# 6 -0.0318 -0.0346 -0.0219 -3.5814 0.0401 9.2510
#
#
#
# Elastic Compliance Matrix: (Units=1/GPa)
#
#
# Indices 1 2 3 4 5 6 
#
# 1 0.010433 -0.001774 -0.000930 -0.000009 0.006902 -0.000007
# 2 -0.001774 0.015762 -0.000790 -0.000005 0.001700 0.000042
# 3 -0.000930 -0.000790 0.011228 0.000010 0.005197 0.000002
# 4 -0.000009 -0.000005 0.000010 0.036750 -0.000012 0.014227
# 5 0.006902 0.001700 0.005197 -0.000012 0.039008 -0.000131
# 6 -0.000007 0.000042 0.000002 0.014227 -0.000131 0.113605
#
#
# Mechanical properties :
#
#
# Convention : Reuss Voigt Hill
#
# Bulk Modulus (GPa) = 32.85692 42.20967 37.53330
# Shear Modulus (GPa) = 20.49845 29.73561 25.11703
#
# Velocity S-wave (km/s) = 3.14363 3.78626 3.47981
# Velocity P-wave (km/s) = 5.38675 6.28203 5.85154
#
# Compressibility (1/GPa) = 0.03043499
#
# Stress axis : x y z
#
# Youngs Moduli (GPa) = 95.84728 63.44263 89.06358
#
# Poissons Ratio (x) = 0.11257 0.08279
# Poissons Ratio (y) = 0.17007 0.07039
# Poissons Ratio (z) = 0.08909 0.05014
#
# Static dielectric constant tensor:
#      x y z
#    x 1.759340 0.000010 0.037250 
#    y 0.000010 1.841720 0.000070 
#    z 0.037250 0.000070 1.764590 
# 
# From -- ./inp_files/169921.got.cif
#   From: 2010.05.17/outbox.cif.g08.bks.cpg/sg15_85_cif.got.tgz:169921.got - 2010.06.03 18:47:42.
