data_PCOD9287366
_publ_section_title
;
Structure prediction by ZEFSAII (Michael W. Deem and Ramdas Pophale) SiO2 
 PCOD9287366
Probable space group: C 2/C
;
_chemical_formula_sum "Si O2"
_cell_formula_units_Z 64
_cell_length_a 15.782314
_cell_length_b 35.027371
_cell_length_c 8.258519
_cell_angle_alpha 90.000000
_cell_angle_beta 36.751099
_cell_angle_gamma 90.000000
_cell_volume 2731.671108
_symmetry_space_group_name_H-M "C 2/C"
_symmetry_group_IT_number 15
_symmetry_cell_setting 'monoclinic'
loop_
_space_group_symop_operation_xyz
x,y,z
-x,y,1/2-z
-x,-y,-z
x,-y,1/2+z
1/2+x,1/2+y,z
1/2-x,1/2+y,1/2-z
1/2-x,1/2-y,-z
1/2+x,1/2-y,1/2+z
loop_
_atom_site_type_symbol
_atom_site_label
_atom_site_fract_x
_atom_site_fract_y
_atom_site_fract_z
Si Si1 0.260179 0.459692 0.091953
Si Si2 0.662001 0.859335 0.789069
Si Si3 0.924551 0.881895 0.206110
Si Si4 0.527561 0.068054 0.402614
Si Si5 0.819508 0.963218 0.374332
Si Si6 0.661143 0.778838 0.935169
Si Si7 0.669141 0.300488 0.500727
Si Si8 0.317273 0.624423 0.393050
O O1 0.273595 0.465365 0.260673
O O2 0.349050 0.493585 0.877133
O O3 0.090693 0.456714 0.323877
O O4 0.311737 0.417930 0.967407
O O5 0.764387 0.869339 0.480973
O O6 0.531251 0.888207 0.961196
O O7 0.728258 0.872031 0.861911
O O8 0.653348 0.813635 0.820217
O O9 0.927240 0.928039 0.212051
O O10 0.000000 0.865721 0.250000
O O11 0.020761 0.868949 0.912378
O O12 0.500000 0.068720 0.250000
O O13 0.683398 0.050183 0.188213
O O14 0.500000 0.777621 0.250000
O O15 0.705382 0.735078 0.827066
O O16 0.770365 0.789421 0.912896
O O17 0.500000 0.301611 0.750000
O O18 0.725728 0.343705 0.410014
#
# Coordination Sequence:
#
# PCOD9287366 Si02
#       8
#     8   8   8   8   8   8   8   8
#     4  11  24  37  58  88 118 161 211 256 325 371
#     4   9  19  36  61  87 122 156 203 255 314 377
#     4   9  20  39  56  79 116 161 205 250 310 372
#     4   9  20  39  58  86 121 159 200 258 318 381
#     4  10  23  40  56  82 119 159 205 262 313 376
#     4   9  18  34  59  95 124 158 200 261 312 372
#     4   9  19  35  57  88 129 158 199 255 309 372
#     4  10  22  36  58  89 114 167 209 253 309 380
#
# _framework density 23.428882000000002
#
# number of rings (size 3 to 8) (size 9 to 14) (size 15 to 20)
#    0.000    2.500    0.000    0.375   10.500    0.500 
#    0.000    0.000    0.000    3.000    0.000    1.750 
#    0.000    0.000    0.000    0.000    0.000    0.000 
#
# Total GULP energy -178351.804441 kJ/mol
# GULP energy per Si atom -5573.493889 kJ/mol
# Density = 2.337556 g / cm^3
# Si number density = 23.428882 Si / 1000 Ang^3
#
#
#
# Elastic Constant Matrix: (Units=GPa)
#
#
# Indices 1 2 3 4 5 6 
#
# 1 58.4855 6.0459 2.1540 0.0000 -9.0386 0.0000
# 2 6.0459 183.7855 23.6827 0.0000 22.5522 0.0000
# 3 2.1540 23.6827 44.3874 0.0000 4.8555 0.0000
# 4 0.0000 0.0000 0.0000 14.6039 0.0000 -30.9094
# 5 -9.0386 22.5522 4.8555 0.0000 21.5113 0.0000
# 6 0.0000 0.0000 0.0000 -30.9094 0.0000 -85.8459
#
#
#
# Elastic Compliance Matrix: (Units=1/GPa)
#
#
# Indices 1 2 3 4 5 6 
#
# 1 0.018852 -0.001700 -0.001096 0.000000 0.009951 0.000000
# 2 -0.001700 0.006725 -0.002724 0.000000 -0.007150 0.000000
# 3 -0.001096 -0.002724 0.024375 0.000000 -0.003107 0.000000
# 4 0.000000 0.000000 0.000000 0.038860 0.000000 -0.013992
# 5 0.009951 -0.007150 -0.003107 0.000000 0.058866 0.000000
# 6 0.000000 0.000000 0.000000 -0.013992 0.000000 -0.006611
#
#
# Mechanical properties :
#
#
# Convention : Reuss Voigt Hill
#
# Bulk Modulus (GPa) = 25.69844 38.93596 32.31720
# Shear Modulus (GPa) = 30.28836 7.03890 18.66363
#
# Velocity S-wave (km/s) = 3.59942 1.73519 2.82549
# Velocity P-wave (km/s) = 5.31667 4.54636 4.94653
#
# Compressibility (1/GPa) = 0.03891287
#
# Stress axis : x y z
#
# Youngs Moduli (GPa) = 53.04406 148.68907 41.02527
#
# Poissons Ratio (x) = 0.25277 0.04498
# Poissons Ratio (y) = 0.09017 0.11174
# Poissons Ratio (z) = 0.05816 0.40498
#
# Static dielectric constant tensor:
#      x y z
#    x 1.921170 0.000000 -0.048070 
#    y 0.000000 1.984480 0.000000 
#    z -0.048070 0.000000 1.949080 
# 
# From -- ./inp_files/52835.got.cif
#   From: 2010.05.17/outbox.cif.g08.bks.cpg/sg15_27_cif.got.tgz:52835.got - 2010.06.03 18:47:42.
