data_PCOD9287066
_publ_section_title
;
Structure prediction by ZEFSAII (Michael W. Deem and Ramdas Pophale) SiO2 
 PCOD9287066
Probable space group: C 2/C
;
_chemical_formula_sum "Si O2"
_cell_formula_units_Z 64
_cell_length_a 14.478819
_cell_length_b 7.565117
_cell_length_c 24.009243
_cell_angle_alpha 90.000000
_cell_angle_beta 73.528131
_cell_angle_gamma 90.000000
_cell_volume 2521.896878
_symmetry_space_group_name_H-M "C 2/C"
_symmetry_group_IT_number 15
_symmetry_cell_setting 'monoclinic'
loop_
_space_group_symop_operation_xyz
x,y,z
-x,y,1/2-z
-x,-y,-z
x,-y,1/2+z
1/2+x,1/2+y,z
1/2-x,1/2+y,1/2-z
1/2-x,1/2-y,-z
1/2+x,1/2-y,1/2+z
loop_
_atom_site_type_symbol
_atom_site_label
_atom_site_fract_x
_atom_site_fract_y
_atom_site_fract_z
Si Si1 0.845892 0.913753 0.616073
Si Si2 0.704671 0.417418 0.476049
Si Si3 0.398899 0.935980 0.943692
Si Si4 0.685133 0.101410 0.800811
Si Si5 0.490783 0.092130 0.315956
Si Si6 0.503151 0.489609 0.822056
Si Si7 0.499510 0.731760 0.486678
Si Si8 0.845929 0.175770 0.292385
O O1 0.795262 0.780140 0.667510
O O2 0.898014 0.792046 0.561219
O O3 0.792705 0.069769 0.592232
O O4 0.938482 0.987406 0.631575
O O5 0.750000 0.250000 0.500000
O O6 0.785059 0.564788 0.477641
O O7 0.588103 0.410581 0.504360
O O8 0.408882 0.947608 0.875170
O O9 0.447183 0.103581 0.965556
O O10 0.466390 0.781140 0.956726
O O11 0.759291 0.958320 0.808774
O O12 0.691141 0.150355 0.733628
O O13 0.582164 0.009350 0.826895
O O14 0.500000 0.029032 0.250000
O O15 0.486150 0.305132 0.312465
O O16 0.579810 0.407072 0.765733
O O17 0.411280 0.357546 0.835814
#
# Coordination Sequence:
#
# PCOD9287066 Si02
#       8
#     8   8   8   8   8   8   8   8
#     4  11  23  43  70 103 141 181 243 302 361 440
#     4  10  23  42  68  98 135 184 232 293 365 430
#     4  10  23  42  69  98 140 176 244 291 361 438
#     4  11  25  41  69 100 141 186 243 292 363 431
#     4  12  24  41  70 100 139 191 230 293 364 432
#     4  10  23  42  67  97 145 186 238 291 368 424
#     4  10  21  46  69 100 140 184 231 305 363 424
#     4  10  22  43  63  99 142 187 233 292 355 443
#
# _framework density 25.377724000000001
#
# number of rings (size 3 to 8) (size 9 to 14) (size 15 to 20)
#    0.000    1.500    2.500    1.875    5.250    1.500 
#    2.250    6.250    0.000    0.000    0.000    0.000 
#    0.000    0.000    0.000    0.000    0.000    0.000 
#
# Total GULP energy -178271.147616 kJ/mol
# GULP energy per Si atom -5570.973363 kJ/mol
# Density = 2.531996 g / cm^3
# Si number density = 25.377724 Si / 1000 Ang^3
#
#
#
# Elastic Constant Matrix: (Units=GPa)
#
#
# Indices 1 2 3 4 5 6 
#
# 1 105.8418 13.0534 24.8417 0.0000 12.9792 0.0000
# 2 13.0534 63.3594 6.0958 0.0000 -0.1554 0.0000
# 3 24.8417 6.0958 76.4106 0.0000 17.4832 0.0000
# 4 0.0000 0.0000 0.0000 21.5516 0.0000 -1.0387
# 5 12.9792 -0.1554 17.4832 0.0000 29.0549 0.0000
# 6 0.0000 0.0000 0.0000 -1.0387 0.0000 24.9345
#
#
#
# Elastic Compliance Matrix: (Units=1/GPa)
#
#
# Indices 1 2 3 4 5 6 
#
# 1 0.010692 -0.001963 -0.002579 0.000000 -0.003235 0.000000
# 2 -0.001963 0.016290 -0.001023 0.000000 0.001579 0.000000
# 3 -0.002579 -0.001023 0.015940 0.000000 -0.008444 0.000000
# 4 0.000000 0.000000 0.000000 0.046493 0.000000 0.001937
# 5 -0.003235 0.001579 -0.008444 0.000000 0.040952 0.000000
# 6 0.000000 0.000000 0.000000 0.001937 0.000000 0.040186
#
#
# Mechanical properties :
#
#
# Convention : Reuss Voigt Hill
#
# Bulk Modulus (GPa) = 31.45484 37.06595 34.26039
# Shear Modulus (GPa) = 26.00377 28.54960 27.27668
#
# Velocity S-wave (km/s) = 3.20452 3.35772 3.28201
# Velocity P-wave (km/s) = 5.11014 5.44700 5.28125
#
# Compressibility (1/GPa) = 0.03179161
#
# Stress axis : x y z
#
# Youngs Moduli (GPa) = 93.52631 61.38887 62.73711
#
# Poissons Ratio (x) = 0.12048 0.16183
# Poissons Ratio (y) = 0.18355 0.06417
# Poissons Ratio (z) = 0.24124 0.06279
#
# Static dielectric constant tensor:
#      x y z
#    x 2.043390 0.000000 0.056160 
#    y 0.000000 2.092610 0.000000 
#    z 0.056160 0.000000 2.206670 
# 
# From -- ./inp_files/273162.got.cif
#   From: 2010.05.17/outbox.cif.g08.bks.cpg/sg15_137_cif.got.tgz:273162.got - 2010.06.03 18:47:42.
