data_PCOD9287738
_publ_section_title
;
Structure prediction by ZEFSAII (Michael W. Deem and Ramdas Pophale) SiO2 
 PCOD9287738
Probable space group: C 2/C
;
_chemical_formula_sum "Si O2"
_cell_formula_units_Z 64
_cell_length_a 17.070568
_cell_length_b 26.182964
_cell_length_c 10.007206
_cell_angle_alpha 90.000000
_cell_angle_beta 139.713132
_cell_angle_gamma 90.000000
_cell_volume 2892.180340
_symmetry_space_group_name_H-M "C 2/C"
_symmetry_group_IT_number 15
_symmetry_cell_setting 'monoclinic'
loop_
_space_group_symop_operation_xyz
x,y,z
-x,y,1/2-z
-x,-y,-z
x,-y,1/2+z
1/2+x,1/2+y,z
1/2-x,1/2+y,1/2-z
1/2-x,1/2-y,-z
1/2+x,1/2-y,1/2+z
loop_
_atom_site_type_symbol
_atom_site_label
_atom_site_fract_x
_atom_site_fract_y
_atom_site_fract_z
Si Si1 0.109987 0.187112 0.804607
Si Si2 0.881696 0.303859 0.675641
Si Si3 0.914094 0.513726 0.011043
Si Si4 0.938145 0.666972 0.537191
Si Si5 0.403912 0.653062 0.002458
Si Si6 0.238068 0.579345 0.103838
Si Si7 0.500727 0.548254 0.095674
Si Si8 0.668259 0.892408 0.233075
O O1 0.126205 0.244891 0.880979
O O2 0.069487 0.183785 0.597116
O O3 0.000000 0.163602 0.750000
O O4 0.251178 0.168267 0.988680
O O5 0.000000 0.325404 0.750000
O O6 0.904175 0.300720 0.863991
O O7 0.000000 0.511215 0.250000
O O8 0.813611 0.469540 0.888070
O O9 0.855710 0.569528 0.919730
O O10 0.000000 0.500000 0.000000
O O11 0.825648 0.631484 0.433984
O O12 0.000000 0.691407 0.750000
O O13 0.038872 0.628799 0.610521
O O14 0.500000 0.660014 0.250000
O O15 0.402012 0.592669 0.960119
O O16 0.261141 0.655780 0.852387
O O17 0.381055 0.580172 0.293408
O O18 0.208456 0.572401 0.909339
O O19 0.500000 0.531876 0.250000
O O20 0.500000 0.500000 0.000000
#
# Coordination Sequence:
#
# PCOD9287738 Si02
#       8
#     8   8   8   8   8   8   8   8
#     4  10  24  42  68  96 129 166 203 259 320 376
#     4  10  22  45  65  95 135 162 199 259 322 381
#     4  12  22  37  58  86 121 160 204 254 312 371
#     4  10  22  37  66  92 121 161 201 255 311 371
#     4  11  23  42  65  88 124 167 214 258 305 376
#     4  11  21  39  59  83 124 156 200 257 309 355
#     4  11  24  42  60  85 123 170 210 259 308 359
#     4  11  21  40  58  87 121 159 202 254 313 358
#
# _framework density 22.128634000000002
#
# number of rings (size 3 to 8) (size 9 to 14) (size 15 to 20)
#    0.000    1.250    5.000    1.875    1.750    2.500 
#    0.000    0.000    0.000    6.750    0.000    0.000 
#    0.000    0.000    0.000    0.000    0.000    0.000 
#
# Total GULP energy -178357.044093 kJ/mol
# GULP energy per Si atom -5573.657628 kJ/mol
# Density = 2.207827 g / cm^3
# Si number density = 22.128634 Si / 1000 Ang^3
#
#
#
# Elastic Constant Matrix: (Units=GPa)
#
#
# Indices 1 2 3 4 5 6 
#
# 1 144.1143 8.8657 47.6523 0.0000 8.8066 0.0000
# 2 8.8657 26.2468 5.2459 0.0000 -4.6901 0.0000
# 3 47.6523 5.2459 87.0696 0.0000 -4.3545 0.0000
# 4 0.0000 0.0000 0.0000 20.8715 0.0000 -12.2296
# 5 8.8066 -4.6901 -4.3545 0.0000 41.0447 0.0000
# 6 0.0000 0.0000 0.0000 -12.2296 0.0000 17.5086
#
#
#
# Elastic Compliance Matrix: (Units=1/GPa)
#
#
# Indices 1 2 3 4 5 6 
#
# 1 0.008855 -0.002508 -0.004830 0.000000 -0.002699 0.000000
# 2 -0.002508 0.040002 -0.000786 0.000000 0.005026 0.000000
# 3 -0.004830 -0.000786 0.014299 0.000000 0.002464 0.000000
# 4 0.000000 0.000000 0.000000 0.081108 0.000000 0.056653
# 5 -0.002699 0.005026 0.002464 0.000000 0.025778 0.000000
# 6 0.000000 0.000000 0.000000 0.056653 0.000000 0.096687
#
#
# Mechanical properties :
#
#
# Convention : Reuss Voigt Hill
#
# Bulk Modulus (GPa) = 21.31841 42.32872 31.82357
# Shear Modulus (GPa) = 16.74397 28.92941 22.83669
#
# Velocity S-wave (km/s) = 2.75374 3.61962 3.21596
# Velocity P-wave (km/s) = 4.44585 6.05301 5.31058
#
# Compressibility (1/GPa) = 0.04690782
#
# Stress axis : x y z
#
# Youngs Moduli (GPa) = 112.92629 24.99858 69.93387
#
# Poissons Ratio (x) = 0.06270 0.33780
# Poissons Ratio (y) = 0.28322 0.05498
# Poissons Ratio (z) = 0.54547 0.01965
#
# Static dielectric constant tensor:
#      x y z
#    x 1.935610 0.000000 0.063570 
#    y 0.000000 1.821280 0.000000 
#    z 0.063570 0.000000 1.918080 
# 
# From -- ./inp_files/44870.got.cif
#   From: 2010.05.17/outbox.cif.g08.bks.cpg/sg15_23_cif.got.tgz:44870.got - 2010.06.03 18:47:42.
