data_PCOD9287906
_publ_section_title
;
Structure prediction by ZEFSAII (Michael W. Deem and Ramdas Pophale) SiO2 
 PCOD9287906
Probable space group: C 2/C
;
_chemical_formula_sum "Si O2"
_cell_formula_units_Z 56
_cell_length_a 18.646797
_cell_length_b 24.855129
_cell_length_c 9.235220
_cell_angle_alpha 90.000000
_cell_angle_beta 141.069702
_cell_angle_gamma 90.000000
_cell_volume 2689.589904
_symmetry_space_group_name_H-M "C 2/C"
_symmetry_group_IT_number 15
_symmetry_cell_setting 'monoclinic'
loop_
_space_group_symop_operation_xyz
x,y,z
-x,y,1/2-z
-x,-y,-z
x,-y,1/2+z
1/2+x,1/2+y,z
1/2-x,1/2+y,1/2-z
1/2-x,1/2-y,-z
1/2+x,1/2-y,1/2+z
loop_
_atom_site_type_symbol
_atom_site_label
_atom_site_fract_x
_atom_site_fract_y
_atom_site_fract_z
Si Si1 0.196456 0.192709 0.869577
Si Si2 0.902597 0.338422 0.493849
Si Si3 0.289198 0.355128 0.796688
Si Si4 0.965643 0.170286 0.345933
Si Si5 0.096576 0.457930 0.093392
Si Si6 0.384505 0.214838 0.650440
Si Si7 0.136134 0.448923 0.462406
O O1 0.287171 0.164025 0.905743
O O2 0.076558 0.195432 0.598249
O O3 0.250000 0.250000 0.000000
O O4 0.179077 0.160666 0.991663
O O5 0.941090 0.399398 0.517245
O O6 0.885364 0.309491 0.313106
O O7 0.000000 0.313120 0.750000
O O8 0.395429 0.362232 0.855136
O O9 0.215244 0.307272 0.607475
O O10 0.206965 0.406550 0.664553
O O11 0.000000 0.141365 0.250000
O O12 0.889847 0.221046 0.173979
O O13 0.173334 0.447146 0.354131
O O14 0.149823 0.491488 0.046893
O O15 0.000000 0.500000 0.000000
O O16 0.500000 0.198017 0.750000
O O17 0.000000 0.435029 0.250000
#
# Coordination Sequence:
#
# PCOD9287906 Si02
#       7
#     8   8   8   8   8   8   8
#     4  12  26  41  62  95 132 172 219 267 319 383
#     4  12  23  37  63  94 129 168 211 262 328 387
#     4  12  23  40  66  90 126 172 215 262 320 380
#     4  11  24  43  62  89 127 170 219 262 311 378
#     4  10  22  38  59  94 134 160 206 261 331 387
#     4  11  22  39  62  91 128 167 212 259 319 378
#     4  10  22  38  64  95 131 161 207 259 331 384
#
# _framework density 20.821017999999999
#
# number of rings (size 3 to 8) (size 9 to 14) (size 15 to 20)
#    0.000    0.857    1.429    7.714    8.000    0.000 
#    0.000    0.000    0.000    0.857    0.000    0.000 
#    0.000    0.000    0.000    0.000    0.000    0.000 
#
# Total GULP energy -156482.563433 kJ/mol
# GULP energy per Si atom -5588.662980 kJ/mol
# Density = 2.077363 g / cm^3
# Si number density = 20.821018 Si / 1000 Ang^3
#
#
#
# Elastic Constant Matrix: (Units=GPa)
#
#
# Indices 1 2 3 4 5 6 
#
# 1 131.1201 5.2382 17.6542 0.0000 -21.3107 0.0000
# 2 5.2382 41.3301 -2.6870 0.0000 -3.8555 0.0000
# 3 17.6542 -2.6870 72.9923 0.0000 -20.1407 0.0000
# 4 0.0000 0.0000 0.0000 12.4150 0.0000 -8.7702
# 5 -21.3107 -3.8555 -20.1407 0.0000 47.7352 0.0000
# 6 0.0000 0.0000 0.0000 -8.7702 0.0000 22.3718
#
#
#
# Elastic Compliance Matrix: (Units=1/GPa)
#
#
# Indices 1 2 3 4 5 6 
#
# 1 0.008331 -0.000838 -0.001175 0.000000 0.003156 0.000000
# 2 -0.000838 0.024636 0.001760 0.000000 0.002358 0.000000
# 3 -0.001175 0.001760 0.015781 0.000000 0.006276 0.000000
# 4 0.000000 0.000000 0.000000 0.111397 0.000000 0.043670
# 5 0.003156 0.002358 0.006276 0.000000 0.025196 0.000000
# 6 0.000000 0.000000 0.000000 0.043670 0.000000 0.061819
#
#
# Mechanical properties :
#
#
# Convention : Reuss Voigt Hill
#
# Bulk Modulus (GPa) = 20.72847 31.76149 26.24498
# Shear Modulus (GPa) = 18.95759 31.52019 25.23889
#
# Velocity S-wave (km/s) = 3.02073 3.89506 3.48542
# Velocity P-wave (km/s) = 4.70569 5.95956 5.36935
#
# Compressibility (1/GPa) = 0.04824284
#
# Stress axis : x y z
#
# Youngs Moduli (GPa) = 120.03068 40.59081 63.36817
#
# Poissons Ratio (x) = 0.03401 0.07446
# Poissons Ratio (y) = 0.10057 -0.11155
# Poissons Ratio (z) = 0.14104 -0.07145
#
# Static dielectric constant tensor:
#      x y z
#    x 1.866340 0.000000 -0.030860 
#    y 0.000000 1.755680 0.000000 
#    z -0.030860 0.000000 1.799750 
# 
# From -- ./inp_files/52355.got.cif
#   From: 2010.05.17/outbox.cif.g08.bks.cpg/sg15_27_cif.got.tgz:52355.got - 2010.06.03 18:47:42.
