data_PCOD9287714
_publ_section_title
;
Structure prediction by ZEFSAII (Michael W. Deem and Ramdas Pophale) SiO2 
 PCOD9287714
Probable space group: C 2/C
;
_chemical_formula_sum "Si O2"
_cell_formula_units_Z 44
_cell_length_a 5.621108
_cell_length_b 21.139973
_cell_length_c 18.890812
_cell_angle_alpha 90.000000
_cell_angle_beta 106.985111
_cell_angle_gamma 90.000000
_cell_volume 2146.880084
_symmetry_space_group_name_H-M "C 2/C"
_symmetry_group_IT_number 15
_symmetry_cell_setting 'monoclinic'
loop_
_space_group_symop_operation_xyz
x,y,z
-x,y,1/2-z
-x,-y,-z
x,-y,1/2+z
1/2+x,1/2+y,z
1/2-x,1/2+y,1/2-z
1/2-x,1/2-y,-z
1/2+x,1/2-y,1/2+z
loop_
_atom_site_type_symbol
_atom_site_label
_atom_site_fract_x
_atom_site_fract_y
_atom_site_fract_z
Si Si1 0.822341 0.027714 0.878978
Si Si2 0.877461 0.231072 0.085658
Si Si3 0.850727 0.307908 0.557367
Si Si4 0.500000 0.564428 0.750000
Si Si5 0.814620 0.446261 0.511901
Si Si6 0.547206 0.859523 0.170542
O O1 0.635073 0.086042 0.873162
O O2 0.864470 0.023729 0.798410
O O3 0.724923 0.965455 0.909440
O O4 0.069151 0.044866 0.943849
O O5 0.631946 0.208090 0.107674
O O6 0.115320 0.185864 0.090879
O O7 0.994787 0.293887 0.129053
O O8 0.750000 0.250000 0.000000
O O9 0.750000 0.250000 0.500000
O O10 0.884326 0.372823 0.516645
O O11 0.679913 0.610693 0.809558
O O12 0.000000 0.500000 0.500000
O O13 0.500000 0.851730 0.250000
#
# Coordination Sequence:
#
# PCOD9287714 Si02
#       6
#     8   8   8   4   8   8
#     4  10  22  38  63  96 130 172 225 282 339 402
#     4  10  22  37  64  92 132 168 221 270 342 392
#     4  10  23  38  62  95 134 174 215 278 339 406
#     4  10  22  38  66  96 136 172 236 280 342 406
#     4  11  24  38  66  98 136 171 228 283 347 409
#     4  10  22  39  66  97 128 175 227 284 333 409
#
# _framework density 20.494857
#
# number of rings (size 3 to 8) (size 9 to 14) (size 15 to 20)
#    0.000    1.818    0.000    3.273   20.364    0.000 
#    0.000    0.000    2.000    2.182    0.000    0.000 
#    0.000    0.000    0.000    0.000    0.000    0.000 
#
# Total GULP energy -122645.165232 kJ/mol
# GULP energy per Si atom -5574.780238 kJ/mol
# Density = 2.044821 g / cm^3
# Si number density = 20.494857 Si / 1000 Ang^3
#
#
#
# Elastic Constant Matrix: (Units=GPa)
#
#
# Indices 1 2 3 4 5 6 
#
# 1 137.7404 34.4579 20.2779 0.0000 21.9181 0.0000
# 2 34.4579 124.4373 35.7120 0.0000 3.1025 0.0000
# 3 20.2779 35.7120 56.8654 0.0000 5.4749 0.0000
# 4 0.0000 0.0000 0.0000 38.8905 0.0000 2.2279
# 5 21.9181 3.1025 5.4749 0.0000 34.2220 0.0000
# 6 0.0000 0.0000 0.0000 2.2279 0.0000 14.7110
#
#
#
# Elastic Compliance Matrix: (Units=1/GPa)
#
#
# Indices 1 2 3 4 5 6 
#
# 1 0.008774 -0.001886 -0.001442 0.000000 -0.005218 0.000000
# 2 -0.001886 0.010209 -0.005856 0.000000 0.001219 0.000000
# 3 -0.001442 -0.005856 0.021976 0.000000 -0.002061 0.000000
# 4 0.000000 0.000000 0.000000 0.025938 0.000000 -0.003928
# 5 -0.005218 0.001219 -0.002061 0.000000 0.032782 0.000000
# 6 0.000000 0.000000 0.000000 -0.003928 0.000000 0.068571
#
#
# Mechanical properties :
#
#
# Convention : Reuss Voigt Hill
#
# Bulk Modulus (GPa) = 44.26592 55.54873 49.90733
# Shear Modulus (GPa) = 25.75346 32.80438 29.27892
#
# Velocity S-wave (km/s) = 3.54867 4.00511 3.78378
# Velocity P-wave (km/s) = 6.19970 6.96782 6.59495
#
# Compressibility (1/GPa) = 0.02259074
#
# Stress axis : x y z
#
# Youngs Moduli (GPa) = 113.96753 97.95703 45.50466
#
# Poissons Ratio (x) = 0.18472 0.06563
# Poissons Ratio (y) = 0.21491 0.26648
# Poissons Ratio (z) = 0.16437 0.57364
#
# Static dielectric constant tensor:
#      x y z
#    x 1.886510 0.000000 -0.097360 
#    y 0.000000 1.690380 0.000000 
#    z -0.097360 0.000000 1.721030 
# 
# From -- ./inp_files/184803.got.cif
#   From: 2010.05.17/outbox.cif.g08.bks.cpg/sg15_93_cif.got.tgz:184803.got - 2010.06.03 18:47:42.
