data_PCOD9287687
_publ_section_title
;
Structure prediction by ZEFSAII (Michael W. Deem and Ramdas Pophale) SiO2 
 PCOD9287687
Probable space group: C 2/C
;
_chemical_formula_sum "Si O2"
_cell_formula_units_Z 48
_cell_length_a 16.051296
_cell_length_b 9.858097
_cell_length_c 15.464257
_cell_angle_alpha 90.000000
_cell_angle_beta 80.437480
_cell_angle_gamma 90.000000
_cell_volume 2412.989177
_symmetry_space_group_name_H-M "C 2/C"
_symmetry_group_IT_number 15
_symmetry_cell_setting 'monoclinic'
loop_
_space_group_symop_operation_xyz
x,y,z
-x,y,1/2-z
-x,-y,-z
x,-y,1/2+z
1/2+x,1/2+y,z
1/2-x,1/2+y,1/2-z
1/2-x,1/2-y,-z
1/2+x,1/2-y,1/2+z
loop_
_atom_site_type_symbol
_atom_site_label
_atom_site_fract_x
_atom_site_fract_y
_atom_site_fract_z
Si Si1 0.535403 0.800030 0.119760
Si Si2 0.358205 0.407100 0.364344
Si Si3 0.500000 0.589706 0.250000
Si Si4 0.781462 0.822012 0.908386
Si Si5 0.500000 0.042350 0.250000
Si Si6 0.359961 0.752325 0.703388
Si Si7 0.494859 0.350159 0.046143
O O1 0.473686 0.692779 0.178615
O O2 0.629978 0.751760 0.127838
O O3 0.520390 0.945313 0.164598
O O4 0.524210 0.765991 0.021113
O O5 0.428305 0.495752 0.301044
O O6 0.299733 0.518554 0.419041
O O7 0.319292 0.321283 0.293649
O O8 0.415132 0.326672 0.423098
O O9 0.713321 0.807680 0.844917
O O10 0.750000 0.750000 0.000000
O O11 0.577410 0.136345 0.266336
O O12 0.420770 0.660054 0.630926
O O13 0.500000 0.500000 0.000000
#
# Coordination Sequence:
#
# PCOD9287687 Si02
#       7
#     8   8   4   8   4   8   8
#     4  10  22  37  63  91 124 164 205 259 316 366
#     4  11  20  37  64  91 121 161 216 252 306 374
#     4   9  15  34  58  90 113 155 214 252 292 367
#     4  11  23  40  61  94 127 161 201 262 324 366
#     4  11  25  44  60  90 129 169 218 246 318 377
#     4  12  23  40  61  91 125 167 204 259 311 378
#     4  12  18  37  68  93 118 155 216 262 300 366
#
# _framework density 19.892340000000001
#
# number of rings (size 3 to 8) (size 9 to 14) (size 15 to 20)
#    0.000    1.000    8.333    0.000    2.333    0.667 
#    0.000    0.000    0.000    2.000    0.000    0.000 
#    0.000    0.000    0.000    0.000    0.000    0.000 
#
# Total GULP energy -133815.807086 kJ/mol
# GULP energy per Si atom -5575.658629 kJ/mol
# Density = 1.984706 g / cm^3
# Si number density = 19.892340 Si / 1000 Ang^3
#
#
#
# Elastic Constant Matrix: (Units=GPa)
#
#
# Indices 1 2 3 4 5 6 
#
# 1 78.1118 26.0827 30.8305 0.0000 29.8110 0.0000
# 2 26.0827 70.5798 35.5671 0.0000 3.6499 0.0000
# 3 30.8305 35.5671 108.7630 0.0000 19.0124 0.0000
# 4 0.0000 0.0000 0.0000 30.4470 0.0000 1.3471
# 5 29.8110 3.6499 19.0124 0.0000 37.2408 0.0000
# 6 0.0000 0.0000 0.0000 1.3471 0.0000 25.6400
#
#
#
# Elastic Compliance Matrix: (Units=1/GPa)
#
#
# Indices 1 2 3 4 5 6 
#
# 1 0.021568 -0.006552 -0.001170 0.000000 -0.016026 0.000000
# 2 -0.006552 0.019010 -0.005436 0.000000 0.006157 0.000000
# 3 -0.001170 -0.005436 0.012129 0.000000 -0.004723 0.000000
# 4 0.000000 0.000000 0.000000 0.032920 0.000000 -0.001730
# 5 -0.016026 0.006157 -0.004723 0.000000 0.041488 0.000000
# 6 0.000000 0.000000 0.000000 -0.001730 0.000000 0.039092
#
#
# Mechanical properties :
#
#
# Convention : Reuss Voigt Hill
#
# Bulk Modulus (GPa) = 37.88989 49.15724 43.52356
# Shear Modulus (GPa) = 24.83597 29.66386 27.24991
#
# Velocity S-wave (km/s) = 3.53727 3.86582 3.70519
# Velocity P-wave (km/s) = 5.98096 6.68516 6.34284
#
# Compressibility (1/GPa) = 0.02639227
#
# Stress axis : x y z
#
# Youngs Moduli (GPa) = 46.36548 52.60257 82.44687
#
# Poissons Ratio (x) = 0.34466 0.09644
# Poissons Ratio (y) = 0.30379 0.44815
# Poissons Ratio (z) = 0.05423 0.28593
#
# Static dielectric constant tensor:
#      x y z
#    x 1.713460 0.000000 -0.018370 
#    y 0.000000 1.742440 0.000000 
#    z -0.018370 0.000000 1.769500 
# 
# From -- ./inp_files/159779.got.cif
#   From: 2010.05.17/outbox.cif.g08.bks.cpg/sg15_80_cif.got.tgz:159779.got - 2010.06.03 18:47:42.
