data_PCOD9287673
_publ_section_title
;
Structure prediction by ZEFSAII (Michael W. Deem and Ramdas Pophale) SiO2 
 PCOD9287673
Probable space group: C 2/C
;
_chemical_formula_sum "Si O2"
_cell_formula_units_Z 52
_cell_length_a 6.559007
_cell_length_b 17.242573
_cell_length_c 20.662317
_cell_angle_alpha 90.000000
_cell_angle_beta 86.661250
_cell_angle_gamma 90.000000
_cell_volume 2332.820993
_symmetry_space_group_name_H-M "C 2/C"
_symmetry_group_IT_number 15
_symmetry_cell_setting 'monoclinic'
loop_
_space_group_symop_operation_xyz
x,y,z
-x,y,1/2-z
-x,-y,-z
x,-y,1/2+z
1/2+x,1/2+y,z
1/2-x,1/2+y,1/2-z
1/2-x,1/2-y,-z
1/2+x,1/2-y,1/2+z
loop_
_atom_site_type_symbol
_atom_site_label
_atom_site_fract_x
_atom_site_fract_y
_atom_site_fract_z
Si Si1 0.139226 0.113449 0.405967
Si Si2 0.998667 0.467901 0.675040
Si Si3 0.500000 0.728786 0.750000
Si Si4 0.366486 0.147688 0.665126
Si Si5 0.126393 0.790088 0.687251
Si Si6 0.107760 0.623592 0.980653
Si Si7 0.741218 0.948147 0.947883
O O1 0.274705 0.153875 0.458593
O O2 0.987309 0.170425 0.370884
O O3 0.980953 0.057363 0.443828
O O4 0.286711 0.061476 0.358470
O O5 0.000000 0.444865 0.750000
O O6 0.937940 0.559265 0.675129
O O7 0.839212 0.435345 0.624635
O O8 0.662888 0.676951 0.706316
O O9 0.362904 0.781942 0.703848
O O10 0.554191 0.201199 0.682367
O O11 0.341537 0.160210 0.588676
O O12 0.000000 0.825222 0.750000
O O13 0.172961 0.533583 0.969861
O O14 0.869935 0.614800 0.004377
#
# Coordination Sequence:
#
# PCOD9287673 Si02
#       7
#     8   8   4   8   8   8   8
#     4  11  23  39  63  95 126 171 210 263 329 391
#     4  10  22  37  62  95 128 159 216 274 317 385
#     4  10  22  42  66  90 128 184 216 266 326 398
#     4  10  22  43  66  93 127 170 219 270 323 390
#     4  10  24  42  63  91 130 171 217 261 329 389
#     4   9  20  39  60  89 128 164 212 268 317 384
#     4   9  20  36  58  89 128 170 203 261 330 383
#
# _framework density 22.290609
#
# number of rings (size 3 to 8) (size 9 to 14) (size 15 to 20)
#    0.000    2.154    0.000    2.769    2.154   11.692 
#    1.385    1.538    0.000    0.000    0.000    0.000 
#    0.000    0.000    0.000    0.000    0.000    0.000 
#
# Total GULP energy -144929.446552 kJ/mol
# GULP energy per Si atom -5574.209483 kJ/mol
# Density = 2.223988 g / cm^3
# Si number density = 22.290609 Si / 1000 Ang^3
#
#
#
# Elastic Constant Matrix: (Units=GPa)
#
#
# Indices 1 2 3 4 5 6 
#
# 1 145.5099 33.4300 58.7882 0.0000 7.2049 0.0000
# 2 33.4300 66.2115 35.4628 0.0000 10.8422 0.0000
# 3 58.7882 35.4628 157.9027 0.0000 2.9759 0.0000
# 4 0.0000 0.0000 0.0000 -54.2906 0.0000 -13.7358
# 5 7.2049 10.8422 2.9759 0.0000 27.0299 0.0000
# 6 0.0000 0.0000 0.0000 -13.7358 0.0000 0.7538
#
#
#
# Elastic Compliance Matrix: (Units=1/GPa)
#
#
# Indices 1 2 3 4 5 6 
#
# 1 0.008596 -0.002832 -0.002548 0.000000 -0.000875 0.000000
# 2 -0.002832 0.019312 -0.003158 0.000000 -0.006644 0.000000
# 3 -0.002548 -0.003158 0.007971 0.000000 0.001068 0.000000
# 4 0.000000 0.000000 0.000000 -0.003283 0.000000 -0.059826
# 5 -0.000875 -0.006644 0.001068 0.000000 0.039777 0.000000
# 6 0.000000 0.000000 0.000000 -0.059826 0.000000 0.236460
#
#
# Mechanical properties :
#
#
# Convention : Reuss Voigt Hill
#
# Bulk Modulus (GPa) = 53.18146 69.44290 61.31218
# Shear Modulus (GPa) = 15.05234 10.82815 12.94025
#
# Velocity S-wave (km/s) = 2.60143 2.20641 2.41202
# Velocity P-wave (km/s) = 5.73875 6.14102 5.94329
#
# Compressibility (1/GPa) = 0.01880354
#
# Stress axis : x y z
#
# Youngs Moduli (GPa) = 116.33770 51.78065 125.46174
#
# Poissons Ratio (x) = 0.14665 0.31964
# Poissons Ratio (y) = 0.32949 0.39616
# Poissons Ratio (z) = 0.29639 0.16350
#
# Static dielectric constant tensor:
#      x y z
#    x 1.810570 0.000000 -0.012740 
#    y 0.000000 1.865570 0.000000 
#    z -0.012740 0.000000 1.930790 
# 
# From -- ./inp_files/227527.got.cif
#   From: 2010.05.17/outbox.cif.g08.bks.cpg/sg15_114_cif.got.tgz:227527.got - 2010.06.03 18:47:42.
