data_PCOD9287294
_publ_section_title
;
Structure prediction by ZEFSAII (Michael W. Deem and Ramdas Pophale) SiO2 
 PCOD9287294
Probable space group: C 2/C
;
_chemical_formula_sum "Si O2"
_cell_formula_units_Z 60
_cell_length_a 28.711994
_cell_length_b 6.040264
_cell_length_c 17.578458
_cell_angle_alpha 90.000000
_cell_angle_beta 88.568605
_cell_angle_gamma 90.000000
_cell_volume 3047.645923
_symmetry_space_group_name_H-M "C 2/C"
_symmetry_group_IT_number 15
_symmetry_cell_setting 'monoclinic'
loop_
_space_group_symop_operation_xyz
x,y,z
-x,y,1/2-z
-x,-y,-z
x,-y,1/2+z
1/2+x,1/2+y,z
1/2-x,1/2+y,1/2-z
1/2-x,1/2-y,-z
1/2+x,1/2-y,1/2+z
loop_
_atom_site_type_symbol
_atom_site_label
_atom_site_fract_x
_atom_site_fract_y
_atom_site_fract_z
Si Si1 0.178491 0.833691 0.031960
Si Si2 0.644239 0.274864 0.423347
Si Si3 0.437318 0.685179 0.327911
Si Si4 0.500000 0.987480 0.250000
Si Si5 0.064869 0.154667 0.807523
Si Si6 0.401549 0.983028 0.940643
Si Si7 0.019101 0.147988 0.567363
Si Si8 0.765563 0.444975 0.556698
O O1 0.136124 0.707760 0.071991
O O2 0.215920 0.956768 0.084689
O O3 0.207816 0.642676 0.987903
O O4 0.157823 0.005882 0.970903
O O5 0.611760 0.317223 0.352716
O O6 0.693047 0.161947 0.396195
O O7 0.616041 0.118307 0.484303
O O8 0.431068 0.558462 0.247997
O O9 0.443451 0.498596 0.389953
O O10 0.485554 0.823757 0.318143
O O11 0.402166 0.856703 0.367577
O O12 0.454388 0.139109 0.241450
O O13 0.023525 0.160673 0.871817
O O14 0.452452 0.871720 0.953157
O O15 0.000000 0.000000 0.500000
O O16 0.750000 0.250000 0.500000
#
# Coordination Sequence:
#
# PCOD9287294 Si02
#       8
#     8   8   8   4   8   8   8   8
#     4   9  17  35  57  91 132 146 191 246 310 379
#     4  10  22  35  61  93 128 154 200 257 315 371
#     4  12  23  40  56  77 119 164 215 247 301 359
#     4  12  22  40  60  72 116 168 208 244 300 350
#     4  12  23  40  55  82 121 164 212 253 296 364
#     4  11  22  36  57  90 121 160 204 252 314 369
#     4  12  24  37  56  83 120 160 203 257 306 361
#     4   8  16  33  58  89 130 152 180 242 315 372
#
# _framework density 19.687328000000001
#
# number of rings (size 3 to 8) (size 9 to 14) (size 15 to 20)
#    0.000    1.333    4.000    2.400    1.867    3.200 
#    0.000    0.000    0.000    0.000    0.000    0.000 
#  644.000    0.000    0.000    0.000    0.000    0.133 
#
# Total GULP energy -167038.205923 kJ/mol
# GULP energy per Si atom -5567.940197 kJ/mol
# Density = 1.964252 g / cm^3
# Si number density = 19.687328 Si / 1000 Ang^3
#
#
#
# Elastic Constant Matrix: (Units=GPa)
#
#
# Indices 1 2 3 4 5 6 
#
# 1 115.7394 47.0287 48.1321 0.0000 36.3543 0.0000
# 2 47.0287 83.6175 35.7092 0.0000 24.3732 0.0000
# 3 48.1321 35.7092 72.8356 0.0000 14.1877 0.0000
# 4 0.0000 0.0000 0.0000 29.2822 0.0000 -10.3873
# 5 36.3543 24.3732 14.1877 0.0000 18.5157 0.0000
# 6 0.0000 0.0000 0.0000 -10.3873 0.0000 55.1719
#
#
#
# Elastic Compliance Matrix: (Units=1/GPa)
#
#
# Indices 1 2 3 4 5 6 
#
# 1 0.027136 0.003707 -0.009898 0.000000 -0.050574 0.000000
# 2 0.003707 0.021850 -0.007219 0.000000 -0.030509 0.000000
# 3 -0.009898 -0.007219 0.021362 0.000000 0.012569 0.000000
# 4 0.000000 0.000000 0.000000 0.036594 0.000000 0.006890
# 5 -0.050574 -0.030509 0.012569 0.000000 0.183837 0.000000
# 6 0.000000 0.000000 0.000000 0.006890 0.000000 0.019422
#
#
# Mechanical properties :
#
#
# Convention : Reuss Voigt Hill
#
# Bulk Modulus (GPa) = 22.97449 59.32583 41.15016
# Shear Modulus (GPa) = 14.22345 30.01545 22.11945
#
# Velocity S-wave (km/s) = 2.69079 3.90886 3.35556
# Velocity P-wave (km/s) = 4.62048 7.11138 5.99669
#
# Compressibility (1/GPa) = 0.04352654
#
# Stress axis : x y z
#
# Youngs Moduli (GPa) = 36.85150 45.76597 46.81288
#
# Poissons Ratio (x) = -0.16964 0.46336
# Poissons Ratio (y) = -0.13660 0.33795
# Poissons Ratio (z) = 0.36476 0.33040
#
# Static dielectric constant tensor:
#      x y z
#    x 1.742780 0.000000 -0.006100 
#    y 0.000000 1.777190 0.000000 
#    z -0.006100 0.000000 1.704080 
# 
# From -- ./inp_files/223673.got.cif
#   From: 2010.05.17/outbox.cif.g08.bks.cpg/sg15_112_cif.got.tgz:223673.got - 2010.06.03 18:47:42.
