data_PCOD9287674
_publ_section_title
;
Structure prediction by ZEFSAII (Michael W. Deem and Ramdas Pophale) SiO2 
 PCOD9287674
Probable space group: C 2/C
;
_chemical_formula_sum "Si O2"
_cell_formula_units_Z 44
_cell_length_a 28.735445
_cell_length_b 10.192607
_cell_length_c 21.737258
_cell_angle_alpha 90.000000
_cell_angle_beta 19.601621
_cell_angle_gamma 90.000000
_cell_volume 2135.857623
_symmetry_space_group_name_H-M "C 2/C"
_symmetry_group_IT_number 15
_symmetry_cell_setting 'monoclinic'
loop_
_space_group_symop_operation_xyz
x,y,z
-x,y,1/2-z
-x,-y,-z
x,-y,1/2+z
1/2+x,1/2+y,z
1/2-x,1/2+y,1/2-z
1/2-x,1/2-y,-z
1/2+x,1/2-y,1/2+z
loop_
_atom_site_type_symbol
_atom_site_label
_atom_site_fract_x
_atom_site_fract_y
_atom_site_fract_z
Si Si1 0.016342 0.467876 0.906476
Si Si2 0.766501 0.749380 0.405223
Si Si3 0.674622 0.259987 0.849066
Si Si4 0.493719 0.750875 0.069989
Si Si5 0.500000 0.627426 0.750000
Si Si6 0.469725 0.469186 0.157723
O O1 0.143183 0.373304 0.730787
O O2 0.000000 0.500000 0.000000
O O3 0.884902 0.378944 0.051481
O O4 0.035986 0.613986 0.856391
O O5 0.750000 0.750000 0.500000
O O6 0.610640 0.723165 0.580559
O O7 0.843351 0.880648 0.289473
O O8 0.840017 0.261000 0.649831
O O9 0.607668 0.258996 0.863354
O O10 0.605440 0.388601 0.965964
O O11 0.472889 0.616343 0.131710
O O12 0.547178 0.538717 0.747708
#
# Coordination Sequence:
#
# PCOD9287674 Si02
#       6
#     8   8   8   8   4   8
#     4   9  20  36  62  88 127 164 210 262 328 383
#     4   9  20  41  59  88 116 173 218 257 312 396
#     4  10  22  37  62  95 131 168 207 262 328 392
#     4  11  22  38  61 100 130 164 206 272 333 377
#     4  10  22  38  68  82 126 178 214 254 324 394
#     4  10  22  38  64  91 128 164 220 263 314 390
#
# _framework density 20.600625000000001
#
# number of rings (size 3 to 8) (size 9 to 14) (size 15 to 20)
#    0.000    2.182    0.000    1.636   12.727    0.000 
#    6.545    3.636    0.000    2.182    0.000    0.000 
#    0.000    0.000    0.000    0.000    0.000    0.000 
#
# Total GULP energy -122576.455506 kJ/mol
# GULP energy per Si atom -5571.657068 kJ/mol
# Density = 2.055374 g / cm^3
# Si number density = 20.600625 Si / 1000 Ang^3
#
#
#
# Elastic Constant Matrix: (Units=GPa)
#
#
# Indices 1 2 3 4 5 6 
#
# 1 85.9780 37.0158 12.9417 0.0000 -3.6792 0.0000
# 2 37.0158 205.7826 46.6391 0.0002 10.9604 0.0000
# 3 12.9417 46.6391 111.4306 0.0000 -6.6630 0.0000
# 4 0.0000 0.0002 0.0000 197.1730 0.0000 58.0948
# 5 -3.6792 10.9604 -6.6630 0.0000 23.9045 0.0000
# 6 0.0000 0.0000 0.0000 58.0948 0.0000 33.0424
#
#
#
# Elastic Compliance Matrix: (Units=1/GPa)
#
#
# Indices 1 2 3 4 5 6 
#
# 1 0.012838 -0.002399 -0.000308 0.000000 0.002990 0.000000
# 2 -0.002399 0.006059 -0.002487 0.000000 -0.003841 0.000000
# 3 -0.000308 -0.002487 0.010288 0.000000 0.003960 0.000000
# 4 0.000000 0.000000 0.000000 0.010523 0.000000 -0.018501
# 5 0.002990 -0.003841 0.003960 0.000000 0.045158 0.000000
# 6 0.000000 0.000000 0.000000 -0.018501 0.000000 0.062793
#
#
# Mechanical properties :
#
#
# Convention : Reuss Voigt Hill
#
# Bulk Modulus (GPa) = 53.20060 66.26496 59.73278
# Shear Modulus (GPa) = 30.42982 71.26360 50.84671
#
# Velocity S-wave (km/s) = 3.84752 5.88796 4.97350
# Velocity P-wave (km/s) = 6.75416 8.85778 7.87652
#
# Compressibility (1/GPa) = 0.01879678
#
# Stress axis : x y z
#
# Youngs Moduli (GPa) = 77.89433 165.03796 97.20243
#
# Poissons Ratio (x) = 0.39586 0.02997
# Poissons Ratio (y) = 0.18684 0.24176
# Poissons Ratio (z) = 0.02401 0.41047
#
# Static dielectric constant tensor:
#      x y z
#    x 1.860270 0.000000 -0.039790 
#    y 0.000000 1.776990 0.000000 
#    z -0.039790 0.000000 1.789180 
# 
# From -- ./inp_files/284391.got.cif
#   From: 2010.05.17/outbox.cif.g08.bks.cpg/sg15_143_cif.got.tgz:284391.got - 2010.06.03 18:47:42.
