data_PCOD9287364
_publ_section_title
;
Structure prediction by ZEFSAII (Michael W. Deem and Ramdas Pophale) SiO2 
 PCOD9287364
Probable space group: C 2/C
;
_chemical_formula_sum "Si O2"
_cell_formula_units_Z 48
_cell_length_a 5.223883
_cell_length_b 14.319441
_cell_length_c 30.255214
_cell_angle_alpha 90.000000
_cell_angle_beta 63.309139
_cell_angle_gamma 90.000000
_cell_volume 2022.025405
_symmetry_space_group_name_H-M "C 2/C"
_symmetry_group_IT_number 15
_symmetry_cell_setting 'monoclinic'
loop_
_space_group_symop_operation_xyz
x,y,z
-x,y,1/2-z
-x,-y,-z
x,-y,1/2+z
1/2+x,1/2+y,z
1/2-x,1/2+y,1/2-z
1/2-x,1/2-y,-z
1/2+x,1/2-y,1/2+z
loop_
_atom_site_type_symbol
_atom_site_label
_atom_site_fract_x
_atom_site_fract_y
_atom_site_fract_z
Si Si1 0.769262 0.467658 0.195266
Si Si2 0.749612 0.430710 0.929424
Si Si3 0.969608 0.695687 0.037128
Si Si4 0.877329 0.929764 0.659261
Si Si5 0.765549 0.617505 0.968535
Si Si6 0.662123 0.239883 0.784573
O O1 0.500000 0.476835 0.250000
O O2 0.609605 0.500920 0.162991
O O3 0.877373 0.360553 0.188674
O O4 0.046582 0.530152 0.187401
O O5 0.992449 0.353416 0.918882
O O6 0.590901 0.419047 0.895806
O O7 0.844471 0.537177 0.928516
O O8 0.541327 0.408266 0.986505
O O9 0.733712 0.777986 0.051528
O O10 0.250000 0.750000 0.000000
O O11 0.940427 0.620650 0.000244
O O12 0.910371 0.831411 0.681584
O O13 0.500000 0.239510 0.750000
O O14 0.000000 0.246087 0.750000
#
# Coordination Sequence:
#
# PCOD9287364 Si02
#       6
#     8   8   8   8   8   8
#     4  11  24  45  68  93 130 169 212 256 329 397
#     4  10  22  36  58  88 124 159 209 259 315 365
#     4   9  18  36  60  83 111 168 214 247 303 373
#     4  12  25  41  66 104 130 166 212 277 320 381
#     4   9  19  39  59  81 120 172 209 250 311 376
#     4  11  23  43  70  92 123 169 211 256 320 393
#
# _framework density 23.738575000000001
#
# number of rings (size 3 to 8) (size 9 to 14) (size 15 to 20)
#    0.000    1.667    0.000    5.500    2.333    1.333 
#    9.000    0.000    0.000    0.000    0.000    0.000 
#    0.000    0.000    0.000    0.000    0.000    0.000 
#
# Total GULP energy -134015.520605 kJ/mol
# GULP energy per Si atom -5583.980025 kJ/mol
# Density = 2.368454 g / cm^3
# Si number density = 23.738575 Si / 1000 Ang^3
#
#
#
# Elastic Constant Matrix: (Units=GPa)
#
#
# Indices 1 2 3 4 5 6 
#
# 1 152.1020 66.6824 49.1092 0.0000 38.6261 0.0000
# 2 66.6824 170.9057 76.9285 0.0000 45.0138 0.0000
# 3 49.1092 76.9285 86.4137 0.0000 35.4221 0.0000
# 4 0.0000 0.0000 0.0000 27.1904 0.0000 14.0745
# 5 38.6261 45.0138 35.4221 0.0000 62.6141 0.0001
# 6 0.0000 0.0000 0.0000 14.0745 0.0001 24.7445
#
#
#
# Elastic Compliance Matrix: (Units=1/GPa)
#
#
# Indices 1 2 3 4 5 6 
#
# 1 0.008782 -0.001583 -0.002379 0.000000 -0.002933 0.000000
# 2 -0.001583 0.010423 -0.007431 0.000000 -0.002313 0.000000
# 3 -0.002379 -0.007431 0.021805 0.000000 -0.005525 0.000000
# 4 0.000000 0.000000 0.000000 0.052124 0.000000 -0.029648
# 5 -0.002933 -0.002313 -0.005525 0.000000 0.022569 0.000000
# 6 0.000000 0.000000 0.000000 -0.029648 0.000000 0.057276
#
#
# Mechanical properties :
#
#
# Convention : Reuss Voigt Hill
#
# Bulk Modulus (GPa) = 54.87598 88.31793 71.59696
# Shear Modulus (GPa) = 24.77218 37.35655 31.06436
#
# Velocity S-wave (km/s) = 3.23389 3.97125 3.62139
# Velocity P-wave (km/s) = 6.09189 7.63629 6.90739
#
# Compressibility (1/GPa) = 0.01822291
#
# Stress axis : x y z
#
# Youngs Moduli (GPa) = 113.87549 95.94315 45.86148
#
# Poissons Ratio (x) = 0.15186 0.10911
# Poissons Ratio (y) = 0.18024 0.34081
# Poissons Ratio (z) = 0.27091 0.71298
#
# Static dielectric constant tensor:
#      x y z
#    x 2.014570 0.000000 -0.059180 
#    y 0.000000 1.985660 0.000000 
#    z -0.059180 0.000000 1.894470 
# 
# From -- ./inp_files/305163.got.cif
#   From: 2010.05.17/outbox.cif.g08.bks.cpg/sg15_153_cif.got.tgz:305163.got - 2010.06.03 18:47:42.
