data_PCOD9287300
_publ_section_title
;
Structure prediction by ZEFSAII (Michael W. Deem and Ramdas Pophale) SiO2 
 PCOD9287300
Probable space group: C 2/C
;
_chemical_formula_sum "Si O2"
_cell_formula_units_Z 64
_cell_length_a 17.412955
_cell_length_b 10.467878
_cell_length_c 18.662583
_cell_angle_alpha 90.000000
_cell_angle_beta 88.352634
_cell_angle_gamma 90.000000
_cell_volume 3400.347853
_symmetry_space_group_name_H-M "C 2/C"
_symmetry_group_IT_number 15
_symmetry_cell_setting 'monoclinic'
loop_
_space_group_symop_operation_xyz
x,y,z
-x,y,1/2-z
-x,-y,-z
x,-y,1/2+z
1/2+x,1/2+y,z
1/2-x,1/2+y,1/2-z
1/2-x,1/2-y,-z
1/2+x,1/2-y,1/2+z
loop_
_atom_site_type_symbol
_atom_site_label
_atom_site_fract_x
_atom_site_fract_y
_atom_site_fract_z
Si Si1 0.267024 0.168677 0.185090
Si Si2 0.955700 0.413625 0.318368
Si Si3 0.869239 0.697711 0.538494
Si Si4 0.749154 0.916138 0.556229
Si Si5 0.194758 0.857682 0.537042
Si Si6 0.082838 0.559545 0.389099
Si Si7 0.278535 0.051300 0.795540
Si Si8 0.458366 0.224019 0.971735
O O1 0.208210 0.156446 0.120844
O O2 0.351693 0.144669 0.149412
O O3 0.255895 0.309145 0.217792
O O4 0.252486 0.056692 0.241502
O O5 0.871003 0.444661 0.293291
O O6 0.948385 0.334457 0.392308
O O7 0.000000 0.350037 0.250000
O O8 0.009349 0.532875 0.341007
O O9 0.807459 0.799999 0.566900
O O10 0.832705 0.639335 0.466900
O O11 0.881892 0.579795 0.592619
O O12 0.952442 0.759789 0.524142
O O13 0.778588 0.004687 0.490684
O O14 0.744092 0.006537 0.624446
O O15 0.250000 0.750000 0.500000
O O16 0.107231 0.829700 0.518422
O O17 0.058343 0.620347 0.465670
#
# Coordination Sequence:
#
# PCOD9287300 Si02
#       8
#     8   8   8   8   8   8   8   8
#     4  12  25  39  64  94 125 167 214 260 320 380
#     4  11  21  35  59  94 119 159 210 264 311 371
#     4  10  22  35  62  97 122 159 205 275 307 369
#     4  11  22  39  63  90 130 161 213 255 325 379
#     4  12  20  40  65  89 117 167 214 253 308 385
#     4  11  20  39  62  92 121 161 214 259 307 375
#     4  12  25  41  62  93 129 171 206 265 326 381
#     4  11  21  37  64  88 126 159 215 258 315 364
#
# _framework density 18.821605000000002
#
# number of rings (size 3 to 8) (size 9 to 14) (size 15 to 20)
#    0.000    0.750    6.250    3.000    1.750    0.500 
#    0.000    0.000    0.000    1.500    0.000    0.000 
#    0.000    0.000    0.000    0.000    0.000    0.000 
#
# Total GULP energy -178728.736737 kJ/mol
# GULP energy per Si atom -5585.273023 kJ/mol
# Density = 1.877877 g / cm^3
# Si number density = 18.821605 Si / 1000 Ang^3
#
#
#
# Elastic Constant Matrix: (Units=GPa)
#
#
# Indices 1 2 3 4 5 6 
#
# 1 118.3261 31.6849 7.5661 0.0000 12.6114 0.0000
# 2 31.6849 73.8624 31.8183 0.0000 2.0661 0.0000
# 3 7.5661 31.8183 68.4942 0.0000 -4.1438 0.0000
# 4 0.0000 0.0000 0.0000 27.5019 0.0000 2.3984
# 5 12.6114 2.0661 -4.1438 0.0000 20.5960 0.0000
# 6 0.0000 0.0000 0.0000 2.3984 0.0000 25.3769
#
#
#
# Elastic Compliance Matrix: (Units=1/GPa)
#
#
# Indices 1 2 3 4 5 6 
#
# 1 0.010220 -0.004489 0.000612 0.000000 -0.005684 0.000000
# 2 -0.004489 0.019125 -0.008441 0.000000 -0.000868 0.000000
# 3 0.000612 -0.008441 0.018710 0.000000 0.004236 0.000000
# 4 0.000000 0.000000 0.000000 0.036663 0.000000 -0.003465
# 5 -0.005684 -0.000868 0.004236 0.000000 0.052973 0.000000
# 6 0.000000 0.000000 0.000000 -0.003465 0.000000 0.039733
#
#
# Mechanical properties :
#
#
# Convention : Reuss Voigt Hill
#
# Bulk Modulus (GPa) = 42.69936 44.75791 43.72864
# Shear Modulus (GPa) = 23.82485 27.33587 25.58036
#
# Velocity S-wave (km/s) = 3.56170 3.81513 3.69059
# Velocity P-wave (km/s) = 6.29682 6.57561 6.43772
#
# Compressibility (1/GPa) = 0.02341955
#
# Stress axis : x y z
#
# Youngs Moduli (GPa) = 97.84812 52.28844 53.44878
#
# Poissons Ratio (x) = 0.23472 -0.03273
# Poissons Ratio (y) = 0.43923 0.45115
# Poissons Ratio (z) = -0.05993 0.44136
#
# Static dielectric constant tensor:
#      x y z
#    x 1.661240 0.000000 -0.005520 
#    y 0.000000 1.649360 0.000000 
#    z -0.005520 0.000000 1.671490 
# 
# From -- ./inp_files/210337.got.cif
#   From: 2010.05.17/outbox.cif.g08.bks.cpg/sg15_106_cif.got.tgz:210337.got - 2010.06.03 18:47:42.
