data_PCOD9287729
_publ_section_title
;
Structure prediction by ZEFSAII (Michael W. Deem and Ramdas Pophale) SiO2 
 PCOD9287729
Probable space group: C 2/C
;
_chemical_formula_sum "Si O2"
_cell_formula_units_Z 48
_cell_length_a 11.288958
_cell_length_b 15.762227
_cell_length_c 27.272885
_cell_angle_alpha 90.000000
_cell_angle_beta 152.540506
_cell_angle_gamma 90.000000
_cell_volume 2237.782159
_symmetry_space_group_name_H-M "C 2/C"
_symmetry_group_IT_number 15
_symmetry_cell_setting 'monoclinic'
loop_
_space_group_symop_operation_xyz
x,y,z
-x,y,1/2-z
-x,-y,-z
x,-y,1/2+z
1/2+x,1/2+y,z
1/2-x,1/2+y,1/2-z
1/2-x,1/2-y,-z
1/2+x,1/2-y,1/2+z
loop_
_atom_site_type_symbol
_atom_site_label
_atom_site_fract_x
_atom_site_fract_y
_atom_site_fract_z
Si Si1 0.500000 0.485197 0.250000
Si Si2 0.315817 0.899839 0.106800
Si Si3 0.773015 0.831552 0.801073
Si Si4 0.000000 0.277205 0.250000
Si Si5 0.267993 0.363151 0.606720
Si Si6 0.258141 0.095253 0.105985
Si Si7 0.085762 0.646616 0.612657
O O1 0.671368 0.547250 0.346215
O O2 0.697725 0.422579 0.295946
O O3 0.515972 0.842763 0.210701
O O4 0.353522 0.871077 0.064839
O O5 0.341926 0.000536 0.122059
O O6 0.024438 0.883257 0.017759
O O7 0.777345 0.897846 0.847989
O O8 0.486681 0.842446 0.674784
O O9 0.812558 0.740220 0.839897
O O10 0.988898 0.845114 0.839768
O O11 0.779890 0.211077 0.151916
O O12 0.019728 0.361243 0.481176
#
# Coordination Sequence:
#
# PCOD9287729 Si02
#       7
#     4   8   8   4   8   8   8
#     4  11  26  40  65  98 130 158 217 270 310 381
#     4  11  22  41  64  95 128 170 211 265 328 373
#     4  11  20  40  65  92 124 168 214 256 312 386
#     4  11  22  38  63  90 126 166 213 258 312 379
#     4  11  23  42  65  91 128 172 205 260 324 378
#     4  10  22  37  65  97 125 161 218 267 311 380
#     4  12  23  44  68  92 126 175 213 254 325 388
#
# _framework density 21.449808999999998
#
# number of rings (size 3 to 8) (size 9 to 14) (size 15 to 20)
#    0.000    1.000    3.333    5.000    0.000    0.000 
#    0.000    0.833    0.000    0.000    0.000    0.000 
#    0.000    0.000    0.000    0.000    0.000    0.000 
#
# Total GULP energy -133980.310616 kJ/mol
# GULP energy per Si atom -5582.512942 kJ/mol
# Density = 2.140099 g / cm^3
# Si number density = 21.449809 Si / 1000 Ang^3
#
#
#
# Elastic Constant Matrix: (Units=GPa)
#
#
# Indices 1 2 3 4 5 6 
#
# 1 24.9071 3.6452 9.3451 0.0001 2.7140 -0.0002
# 2 3.6452 99.5012 46.0114 0.0019 -5.6055 -0.0010
# 3 9.3451 46.0114 73.1881 0.0000 -0.5945 -0.0011
# 4 0.0001 0.0019 0.0000 -40.8255 -0.0010 -0.8740
# 5 2.7140 -5.6055 -0.5945 -0.0010 38.4655 -0.0002
# 6 -0.0002 -0.0010 -0.0011 -0.8740 -0.0002 24.0349
#
#
#
# Elastic Compliance Matrix: (Units=1/GPa)
#
#
# Indices 1 2 3 4 5 6 
#
# 1 0.042621 0.001129 -0.006176 0.000000 -0.002938 0.000000
# 2 0.001129 0.014344 -0.009146 0.000001 0.001869 0.000000
# 3 -0.006176 -0.009146 0.020197 0.000000 -0.000585 0.000001
# 4 0.000000 0.000001 0.000000 -0.024475 -0.000001 -0.000890
# 5 -0.002938 0.001869 -0.000585 -0.000001 0.026468 0.000000
# 6 0.000000 0.000000 0.000001 -0.000890 0.000000 0.041574
#
#
# Mechanical properties :
#
#
# Convention : Reuss Voigt Hill
#
# Bulk Modulus (GPa) = 20.50201 35.06663 27.78432
# Shear Modulus (GPa) = 30.23458 13.57462 21.90460
#
# Velocity S-wave (km/s) = 3.75847 2.51839 3.19909
# Velocity P-wave (km/s) = 5.33045 4.98398 5.16012
#
# Compressibility (1/GPa) = 0.04877572
#
# Stress axis : x y z
#
# Youngs Moduli (GPa) = 23.46245 69.71775 49.51155
#
# Poissons Ratio (x) = -0.07870 0.30577
# Poissons Ratio (y) = -0.02649 0.45285
# Poissons Ratio (z) = 0.14490 0.63766
#
# Static dielectric constant tensor:
#      x y z
#    x 1.796140 0.000000 0.005190 
#    y 0.000000 1.755890 0.000000 
#    z 0.005190 0.000000 1.863990 
# 
# From -- ./inp_files/293162.got.cif
#   From: 2010.05.17/outbox.cif.g08.bks.cpg/sg15_147_cif.got.tgz:293162.got - 2010.06.03 18:47:42.
