data_PCOD9287269
_publ_section_title
;
Structure prediction by ZEFSAII (Michael W. Deem and Ramdas Pophale) SiO2 
 PCOD9287269
Probable space group: C 2/C
;
_chemical_formula_sum "Si O2"
_cell_formula_units_Z 52
_cell_length_a 11.248296
_cell_length_b 25.213086
_cell_length_c 9.080095
_cell_angle_alpha 90.000000
_cell_angle_beta 88.138667
_cell_angle_gamma 90.000000
_cell_volume 2573.794828
_symmetry_space_group_name_H-M "C 2/C"
_symmetry_group_IT_number 15
_symmetry_cell_setting 'monoclinic'
loop_
_space_group_symop_operation_xyz
x,y,z
-x,y,1/2-z
-x,-y,-z
x,-y,1/2+z
1/2+x,1/2+y,z
1/2-x,1/2+y,1/2-z
1/2-x,1/2-y,-z
1/2+x,1/2-y,1/2+z
loop_
_atom_site_type_symbol
_atom_site_label
_atom_site_fract_x
_atom_site_fract_y
_atom_site_fract_z
Si Si1 0.172488 0.182596 0.589803
Si Si2 0.860020 0.009195 0.033139
Si Si3 0.638030 0.777205 0.209468
Si Si4 0.500000 0.238701 0.250000
Si Si5 0.643989 0.571197 0.744624
Si Si6 0.636497 0.382358 0.794014
Si Si7 0.788271 0.680535 0.089979
O O1 0.290023 0.212648 0.642295
O O2 0.064428 0.222034 0.631674
O O3 0.166860 0.131054 0.696426
O O4 0.165712 0.158520 0.426835
O O5 0.852411 0.058068 0.146888
O O6 0.813675 0.954865 0.105415
O O7 0.808040 0.032514 0.885428
O O8 0.000000 0.000000 0.000000
O O9 0.500000 0.776604 0.250000
O O10 0.684132 0.723535 0.129375
O O11 0.675075 0.819555 0.081811
O O12 0.401553 0.202831 0.174814
O O13 0.500000 0.567442 0.750000
O O14 0.500000 0.374415 0.750000
O O15 0.730746 0.371419 0.661824
#
# Coordination Sequence:
#
# PCOD9287269 Si02
#       7
#     8   8   8   4   8   8   8
#     4  10  22  35  58  81 114 155 194 240 294 339
#     4   9  18  31  51  82 119 149 180 232 294 352
#     4  10  23  40  57  82 113 153 204 246 285 347
#     4  10  22  38  56  82 114 158 202 238 284 350
#     4   9  16  30  50  80 112 147 180 231 287 351
#     4  11  23  35  56  89 122 153 193 238 296 357
#     4  10  24  37  59  82 114 157 198 242 295 338
#
# _framework density 20.20363
#
# number of rings (size 3 to 8) (size 9 to 14) (size 15 to 20)
#    0.000    2.154    0.769    1.846   10.769    2.462 
#    0.000    0.000    0.000    0.000    2.000    3.231 
#    0.000    0.000    0.000    0.000    0.000    0.000 
#
# Total GULP energy -145137.089355 kJ/mol
# GULP energy per Si atom -5582.195744 kJ/mol
# Density = 2.015765 g / cm^3
# Si number density = 20.203630 Si / 1000 Ang^3
#
#
#
# Elastic Constant Matrix: (Units=GPa)
#
#
# Indices 1 2 3 4 5 6 
#
# 1 90.8022 18.3642 48.0906 0.0000 -8.5359 0.0000
# 2 18.3642 63.8989 35.4023 0.0000 -4.8705 0.0000
# 3 48.0906 35.4023 96.8742 0.0000 -5.6559 0.0000
# 4 0.0000 0.0000 0.0000 47.1497 0.0000 -0.9476
# 5 -8.5359 -4.8705 -5.6559 0.0000 26.2460 0.0000
# 6 0.0000 0.0000 0.0000 -0.9476 0.0000 14.1513
#
#
#
# Elastic Compliance Matrix: (Units=1/GPa)
#
#
# Indices 1 2 3 4 5 6 
#
# 1 0.015229 -0.000051 -0.007345 0.000000 0.003361 0.000000
# 2 -0.000051 0.019740 -0.007065 0.000000 0.002124 0.000000
# 3 -0.007345 -0.007065 0.016543 0.000000 -0.000135 0.000000
# 4 0.000000 0.000000 0.000000 0.021238 0.000000 0.001422
# 5 0.003361 0.002124 -0.000135 0.000000 0.039559 0.000000
# 6 0.000000 0.000000 0.000000 0.001422 0.000000 0.070760
#
#
# Mechanical properties :
#
#
# Convention : Reuss Voigt Hill
#
# Bulk Modulus (GPa) = 44.26634 50.58773 47.42704
# Shear Modulus (GPa) = 22.77676 27.49063 25.13369
#
# Velocity S-wave (km/s) = 3.36126 3.69274 3.53089
# Velocity P-wave (km/s) = 6.08455 6.57838 6.33628
#
# Compressibility (1/GPa) = 0.02259053
#
# Stress axis : x y z
#
# Youngs Moduli (GPa) = 65.66222 50.65755 60.44873
#
# Poissons Ratio (x) = 0.00259 0.44402
# Poissons Ratio (y) = 0.00336 0.42705
# Poissons Ratio (z) = 0.48231 0.35788
#
# Static dielectric constant tensor:
#      x y z
#    x 1.678770 0.000000 0.020390 
#    y 0.000000 1.779000 0.000000 
#    z 0.020390 0.000000 1.821050 
# 
# From -- ./inp_files/33488.got.cif
#   From: 2010.05.17/outbox.cif.g08.bks.cpg/sg15_17_cif.got.tgz:33488.got - 2010.06.03 18:47:42.
