data_PCOD9287517
_publ_section_title
;
Structure prediction by ZEFSAII (Michael W. Deem and Ramdas Pophale) SiO2 
 PCOD9287517
Probable space group: C 2/C
;
_chemical_formula_sum "Si O2"
_cell_formula_units_Z 44
_cell_length_a 11.948771
_cell_length_b 28.721231
_cell_length_c 5.544794
_cell_angle_alpha 90.000000
_cell_angle_beta 73.057480
_cell_angle_gamma 90.000000
_cell_volume 1820.291682
_symmetry_space_group_name_H-M "C 2/C"
_symmetry_group_IT_number 15
_symmetry_cell_setting 'monoclinic'
loop_
_space_group_symop_operation_xyz
x,y,z
-x,y,1/2-z
-x,-y,-z
x,-y,1/2+z
1/2+x,1/2+y,z
1/2-x,1/2+y,1/2-z
1/2-x,1/2-y,-z
1/2+x,1/2-y,1/2+z
loop_
_atom_site_type_symbol
_atom_site_label
_atom_site_fract_x
_atom_site_fract_y
_atom_site_fract_z
Si Si1 0.380435 0.355891 0.898016
Si Si2 0.690849 0.175943 0.123340
Si Si3 0.500000 0.970591 0.250000
Si Si4 0.159241 0.234642 0.853313
Si Si5 0.116664 0.028080 0.590495
Si Si6 0.195546 0.590658 0.834129
O O1 0.500000 0.380445 0.750000
O O2 0.289851 0.344141 0.741093
O O3 0.420114 0.306790 0.996409
O O4 0.301959 0.385601 0.125906
O O5 0.611884 0.215279 0.300811
O O6 0.764215 0.207136 0.890231
O O7 0.634772 0.132346 0.020954
O O8 0.388407 0.936929 0.291498
O O9 0.500000 0.000000 0.500000
O O10 0.250000 0.250000 0.000000
O O11 0.238657 0.054878 0.533073
O O12 0.000000 0.056160 0.750000
O O13 0.113745 0.008768 0.318579
#
# Coordination Sequence:
#
# PCOD9287517 Si02
#       6
#     8   8   4   8   8   8
#     4  10  22  36  67 105 146 184 232 295 376 447
#     4   9  19  36  67  90 138 181 234 294 349 431
#     4  12  30  54  82 102 142 200 258 314 380 444
#     4   8  16  36  60  89 135 186 230 281 347 435
#     4  10  23  40  63  97 139 175 215 281 368 442
#     4  11  25  41  71 102 137 183 245 303 364 437
#
# _framework density 24.171948
#
# number of rings (size 3 to 8) (size 9 to 14) (size 15 to 20)
#    0.000    2.182    0.000    1.091    7.636    2.909 
#    0.000    0.000   92.000    0.000    0.000    0.000 
#    0.000    0.000    0.000    0.000    0.000    0.000 
#
# Total GULP energy -122744.003209 kJ/mol
# GULP energy per Si atom -5579.272873 kJ/mol
# Density = 2.411693 g / cm^3
# Si number density = 24.171948 Si / 1000 Ang^3
#
#
#
# Elastic Constant Matrix: (Units=GPa)
#
#
# Indices 1 2 3 4 5 6 
#
# 1 90.9853 47.0640 17.8830 0.0000 13.5319 0.0000
# 2 47.0640 116.3208 50.2789 0.0000 9.4631 0.0000
# 3 17.8830 50.2789 98.3777 0.0000 19.3705 0.0000
# 4 0.0000 0.0000 0.0000 41.3004 0.0000 19.1926
# 5 13.5319 9.4631 19.3705 0.0000 36.7479 0.0000
# 6 0.0000 0.0000 0.0000 19.1926 0.0000 13.7056
#
#
#
# Elastic Compliance Matrix: (Units=1/GPa)
#
#
# Indices 1 2 3 4 5 6 
#
# 1 0.014554 -0.006112 0.001365 0.000000 -0.004505 0.000000
# 2 -0.006112 0.013602 -0.006242 0.000000 0.002038 0.000000
# 3 0.001365 -0.006242 0.014382 0.000000 -0.006476 0.000000
# 4 0.000000 0.000000 0.000000 0.069329 0.000000 -0.097086
# 5 -0.004505 0.002038 -0.006476 0.000000 0.031760 0.000000
# 6 0.000000 0.000000 0.000000 -0.097086 0.000000 0.208917
#
#
# Mechanical properties :
#
#
# Convention : Reuss Voigt Hill
#
# Bulk Modulus (GPa) = 48.63743 59.57062 54.10402
# Shear Modulus (GPa) = 13.11037 31.04795 22.07916
#
# Velocity S-wave (km/s) = 2.33143 3.58783 3.02556
# Velocity P-wave (km/s) = 5.23570 6.47004 5.88532
#
# Compressibility (1/GPa) = 0.02056030
#
# Stress axis : x y z
#
# Youngs Moduli (GPa) = 68.70874 73.51706 69.53059
#
# Poissons Ratio (x) = 0.44936 -0.09493
# Poissons Ratio (y) = 0.41997 0.43402
# Poissons Ratio (z) = -0.09381 0.45890
#
# Static dielectric constant tensor:
#      x y z
#    x 2.149020 0.000000 -0.097540 
#    y 0.000000 2.159460 0.000000 
#    z -0.097540 0.000000 1.930560 
# 
# From -- ./inp_files/5810.got.cif
#   From: 2010.05.17/outbox.cif.g08.bks.cpg/sg15_3_cif.got.tgz:5810.got - 2010.06.03 18:47:42.
