data_PCOD9287396
_publ_section_title
;
Structure prediction by ZEFSAII (Michael W. Deem and Ramdas Pophale) SiO2 
 PCOD9287396
Probable space group: C 2/C
;
_chemical_formula_sum "Si O2"
_cell_formula_units_Z 48
_cell_length_a 10.849076
_cell_length_b 19.349800
_cell_length_c 17.665971
_cell_angle_alpha 90.000000
_cell_angle_beta 153.402852
_cell_angle_gamma 90.000000
_cell_volume 1660.381868
_symmetry_space_group_name_H-M "C 2/C"
_symmetry_group_IT_number 15
_symmetry_cell_setting 'monoclinic'
loop_
_space_group_symop_operation_xyz
x,y,z
-x,y,1/2-z
-x,-y,-z
x,-y,1/2+z
1/2+x,1/2+y,z
1/2-x,1/2+y,1/2-z
1/2-x,1/2-y,-z
1/2+x,1/2-y,1/2+z
loop_
_atom_site_type_symbol
_atom_site_label
_atom_site_fract_x
_atom_site_fract_y
_atom_site_fract_z
Si Si1 0.046913 0.689844 0.866617
Si Si2 0.217945 0.458432 0.437041
Si Si3 0.781609 0.519309 0.296356
Si Si4 0.976135 0.874060 0.353022
Si Si5 0.195374 0.799254 0.611435
Si Si6 0.047055 0.337087 0.588455
O O1 0.199038 0.617441 0.960112
O O2 0.000000 0.693604 0.750000
O O3 0.780243 0.677294 0.773091
O O4 0.250000 0.750000 0.000000
O O5 0.537644 0.470417 0.601369
O O6 0.000000 0.461081 0.250000
O O7 0.078052 0.509223 0.420924
O O8 0.668415 0.443626 0.258742
O O9 0.821621 0.589290 0.367299
O O10 0.099857 0.865551 0.507310
O O11 0.233878 0.850853 0.444739
O O12 0.500000 0.780130 0.750000
O O13 0.992811 0.734765 0.479263
O O14 0.260723 0.821154 0.733004
#
# Coordination Sequence:
#
# PCOD9287396 Si02
#       6
#     8   8   8   8   8   8
#     4  10  24  40  61  91 128 169 210 263 325 391
#     4  10  22  36  59  92 128 164 215 275 329 387
#     4  11  22  38  64  96 133 168 220 279 338 387
#     4  10  22  40  64  97 132 164 224 279 329 381
#     4  10  23  40  65  98 131 168 218 275 335 394
#     4  11  24  41  69 103 133 174 221 278 337 402
#
# _framework density 28.909012000000001
#
# number of rings (size 3 to 8) (size 9 to 14) (size 15 to 20)
#    0.000    1.667    1.667    2.500   11.667    2.667 
#    0.000    0.000    0.000    8.000    0.000    0.000 
#    0.000    0.000    0.000    0.000    0.000    0.000 
#
# Total GULP energy -134059.391657 kJ/mol
# GULP energy per Si atom -5585.807986 kJ/mol
# Density = 2.884321 g / cm^3
# Si number density = 28.909012 Si / 1000 Ang^3
#
#
#
# Elastic Constant Matrix: (Units=GPa)
#
#
# Indices 1 2 3 4 5 6 
#
# 1 91.3464 44.2104 50.6121 0.0059 9.7019 0.0021
# 2 44.2104 171.5421 61.3079 -0.0049 -6.1861 0.0066
# 3 50.6121 61.3079 162.8115 -0.0336 3.3620 -0.0061
# 4 0.0059 -0.0049 -0.0336 51.3204 0.0029 1.5379
# 5 9.7019 -6.1861 3.3620 0.0029 68.7159 0.0022
# 6 0.0021 0.0066 -0.0061 1.5379 0.0022 15.0756
#
#
#
# Elastic Compliance Matrix: (Units=1/GPa)
#
#
# Indices 1 2 3 4 5 6 
#
# 1 0.014304 -0.002528 -0.003452 -0.000004 -0.002078 -0.000002
# 2 -0.002528 0.007220 -0.001956 0.000000 0.001103 -0.000004
# 3 -0.003452 -0.001956 0.007953 0.000005 -0.000078 0.000004
# 4 -0.000004 0.000000 0.000005 0.019545 0.000000 -0.001994
# 5 -0.002078 0.001103 -0.000078 0.000000 0.014949 -0.000002
# 6 -0.000002 -0.000004 0.000004 -0.001994 -0.000002 0.066536
#
#
# Mechanical properties :
#
#
# Convention : Reuss Voigt Hill
#
# Bulk Modulus (GPa) = 73.49485 81.99565 77.74525
# Shear Modulus (GPa) = 33.13171 44.99368 39.06269
#
# Velocity S-wave (km/s) = 3.38904 3.94939 3.67989
# Velocity P-wave (km/s) = 6.38687 7.01583 6.70872
#
# Compressibility (1/GPa) = 0.01360640
#
# Stress axis : x y z
#
# Youngs Moduli (GPa) = 69.91046 138.51179 125.73685
#
# Poissons Ratio (x) = 0.35012 0.43402
# Poissons Ratio (y) = 0.17672 0.24589
# Poissons Ratio (z) = 0.24132 0.27087
#
# Static dielectric constant tensor:
#      x y z
#    x 2.267630 0.000020 -0.111320 
#    y 0.000020 2.312720 -0.000070 
#    z -0.111320 -0.000070 2.274170 
# 
# From -- ./inp_files/275092.got.cif
#   From: 2010.05.17/outbox.cif.g08.bks.cpg/sg15_138_cif.got.tgz:275092.got - 2010.06.03 18:47:42.
