data_PCOD9287592
_publ_section_title
;
Structure prediction by ZEFSAII (Michael W. Deem and Ramdas Pophale) SiO2 
 PCOD9287592
Probable space group: C 2/C
;
_chemical_formula_sum "Si O2"
_cell_formula_units_Z 48
_cell_length_a 27.860615
_cell_length_b 5.481070
_cell_length_c 18.271230
_cell_angle_alpha 90.000000
_cell_angle_beta 126.153694
_cell_angle_gamma 90.000000
_cell_volume 2252.852086
_symmetry_space_group_name_H-M "C 2/C"
_symmetry_group_IT_number 15
_symmetry_cell_setting 'monoclinic'
loop_
_space_group_symop_operation_xyz
x,y,z
-x,y,1/2-z
-x,-y,-z
x,-y,1/2+z
1/2+x,1/2+y,z
1/2-x,1/2+y,1/2-z
1/2-x,1/2-y,-z
1/2+x,1/2-y,1/2+z
loop_
_atom_site_type_symbol
_atom_site_label
_atom_site_fract_x
_atom_site_fract_y
_atom_site_fract_z
Si Si1 0.891119 0.851190 0.069938
Si Si2 0.997497 0.906407 0.916220
Si Si3 0.406548 0.331171 0.243847
Si Si4 0.815740 0.894967 0.863622
Si Si5 0.517064 0.023098 0.836468
Si Si6 0.825648 0.605205 0.289733
O O1 0.881559 0.933063 0.144956
O O2 0.916211 0.575673 0.101505
O O3 0.946539 0.984934 0.079507
O O4 0.836899 0.871092 0.966142
O O5 0.005292 0.623385 0.906834
O O6 0.934426 0.970856 0.823221
O O7 0.000000 0.000000 0.000000
O O8 0.361778 0.161094 0.248395
O O9 0.465736 0.177011 0.279281
O O10 0.838860 0.654008 0.840682
O O11 0.744557 0.893834 0.791525
O O12 0.837009 0.156849 0.851227
O O13 0.500000 0.190404 0.750000
#
# Coordination Sequence:
#
# PCOD9287592 Si02
#       6
#     8   8   8   8   8   8
#     4  10  22  37  58  87 122 161 202 251 303 363
#     4  11  22  34  57  87 120 161 202 249 302 365
#     4  10  22  37  58  87 122 161 202 251 303 363
#     4  10  23  43  65  90 122 159 204 257 306 358
#     4   9  20  37  54  83 123 157 192 246 303 361
#     4  10  23  43  65  90 122 159 204 257 306 358
#
# _framework density 21.306325999999999
#
# number of rings (size 3 to 8) (size 9 to 14) (size 15 to 20)
#    0.000    2.000    0.000    3.500    9.333    2.000 
#    0.000    0.000    0.000    6.000    0.000    0.000 
#    0.000    0.000    0.000    0.000    0.000    0.000 
#
# Total GULP energy -133728.816075 kJ/mol
# GULP energy per Si atom -5572.034003 kJ/mol
# Density = 2.125783 g / cm^3
# Si number density = 21.306326 Si / 1000 Ang^3
#
#
#
# Elastic Constant Matrix: (Units=GPa)
#
#
# Indices 1 2 3 4 5 6 
#
# 1 53.1614 7.6884 5.5125 -0.0002 -18.5402 -0.0003
# 2 7.6884 63.2921 34.6008 -0.0003 -2.6634 0.0006
# 3 5.5125 34.6008 164.3870 -0.0001 -25.6564 -0.0003
# 4 -0.0002 -0.0003 -0.0001 22.0459 -0.0001 -5.5689
# 5 -18.5402 -2.6634 -25.6564 -0.0001 22.7233 0.0001
# 6 -0.0003 0.0006 -0.0003 -5.5689 0.0001 22.5933
#
#
#
# Elastic Compliance Matrix: (Units=1/GPa)
#
#
# Indices 1 2 3 4 5 6 
#
# 1 0.028748 -0.004711 0.004373 0.000000 0.027841 0.000001
# 2 -0.004711 0.018755 -0.004912 0.000000 -0.007192 -0.000001
# 3 0.004373 -0.004912 0.009028 0.000000 0.013186 0.000000
# 4 0.000000 0.000000 0.000000 0.048372 0.000000 0.011923
# 5 0.027841 -0.007192 0.013186 0.000000 0.080768 0.000000
# 6 0.000001 -0.000001 0.000000 0.011923 0.000000 0.047200
#
#
# Mechanical properties :
#
#
# Convention : Reuss Voigt Hill
#
# Bulk Modulus (GPa) = 21.72467 41.82710 31.77588
# Shear Modulus (GPa) = 19.32628 29.00842 24.16735
#
# Velocity S-wave (km/s) = 3.01502 3.69384 3.37156
# Velocity P-wave (km/s) = 4.72641 6.15358 5.48660
#
# Compressibility (1/GPa) = 0.04603062
#
# Stress axis : x y z
#
# Youngs Moduli (GPa) = 34.78489 53.31994 110.76144
#
# Poissons Ratio (x) = 0.25120 -0.48434
# Poissons Ratio (y) = 0.16388 0.54406
# Poissons Ratio (z) = -0.15211 0.26191
#
# Static dielectric constant tensor:
#      x y z
#    x 1.803260 0.000000 -0.091070 
#    y 0.000000 2.014510 0.000000 
#    z -0.091070 0.000000 1.855610 
# 
# From -- ./inp_files/221024.got.cif
#   From: 2010.05.17/outbox.cif.g08.bks.cpg/sg15_111_cif.got.tgz:221024.got - 2010.06.03 18:47:42.
