data_PCOD9287830
_publ_section_title
;
Structure prediction by ZEFSAII (Michael W. Deem and Ramdas Pophale) SiO2 
 PCOD9287830
Probable space group: C 2/C
;
_chemical_formula_sum "Si O2"
_cell_formula_units_Z 60
_cell_length_a 14.036015
_cell_length_b 25.509283
_cell_length_c 21.343826
_cell_angle_alpha 90.000000
_cell_angle_beta 155.971233
_cell_angle_gamma 90.000000
_cell_volume 3111.838611
_symmetry_space_group_name_H-M "C 2/C"
_symmetry_group_IT_number 15
_symmetry_cell_setting 'monoclinic'
loop_
_space_group_symop_operation_xyz
x,y,z
-x,y,1/2-z
-x,-y,-z
x,-y,1/2+z
1/2+x,1/2+y,z
1/2-x,1/2+y,1/2-z
1/2-x,1/2-y,-z
1/2+x,1/2-y,1/2+z
loop_
_atom_site_type_symbol
_atom_site_label
_atom_site_fract_x
_atom_site_fract_y
_atom_site_fract_z
Si Si1 0.563157 0.936783 0.973408
Si Si2 0.000000 0.860206 0.250000
Si Si3 0.051745 0.622779 0.212567
Si Si4 0.537731 0.690720 0.099802
Si Si5 0.237969 0.723916 0.811215
Si Si6 0.608802 0.124962 0.880908
Si Si7 0.222325 0.442976 0.571585
Si Si8 0.112247 0.802295 0.433222
O O1 0.429231 0.920508 0.829899
O O2 0.408681 0.928403 0.942533
O O3 0.779872 0.897408 0.108935
O O4 0.659870 0.995574 0.026157
O O5 0.041326 0.822237 0.216588
O O6 0.259961 0.664341 0.321944
O O7 0.000000 0.599035 0.250000
O O8 0.813802 0.655639 0.063346
O O9 0.639314 0.723951 0.218897
O O10 0.366200 0.728134 0.955428
O O11 0.370011 0.644564 0.022771
O O12 0.444556 0.704975 0.890272
O O13 0.046691 0.677413 0.699898
O O14 0.500000 0.102265 0.750000
O O15 0.626329 0.088560 0.953091
O O16 0.500000 0.435943 0.750000
O O17 0.250000 0.750000 0.500000
#
# Coordination Sequence:
#
# PCOD9287830 Si02
#       8
#     8   4   8   8   8   8   8   8
#     4  10  23  41  65  94 120 161 202 260 319 371
#     4  10  22  38  58  84 126 154 208 252 306 364
#     4  11  22  39  58  90 128 160 200 252 310 369
#     4  11  23  39  61  89 124 167 208 254 304 370
#     4  11  23  38  59  86 127 162 208 253 302 366
#     4  10  24  43  62  91 124 163 209 259 315 367
#     4  11  22  43  70  91 122 156 211 263 310 380
#     4  11  22  33  57  84 117 165 201 247 301 362
#
# _framework density 19.281205
#
# number of rings (size 3 to 8) (size 9 to 14) (size 15 to 20)
#    0.000    1.333    3.333    2.000    2.800    2.667 
#    0.000    0.000    0.000    4.800    0.000    0.000 
#    0.000    0.000    0.000    0.000    0.000    0.000 
#
# Total GULP energy -167294.574837 kJ/mol
# GULP energy per Si atom -5576.485828 kJ/mol
# Density = 1.923732 g / cm^3
# Si number density = 19.281205 Si / 1000 Ang^3
#
#
#
# Elastic Constant Matrix: (Units=GPa)
#
#
# Indices 1 2 3 4 5 6 
#
# 1 115.8953 39.0509 43.6121 -0.0147 -16.2299 -0.0057
# 2 39.0509 48.6888 30.9261 -0.0014 -16.1844 0.0119
# 3 43.6121 30.9261 84.6548 0.0378 -9.5881 0.0300
# 4 -0.0147 -0.0014 0.0378 25.5335 -0.0203 -11.6342
# 5 -16.2299 -16.1844 -9.5881 -0.0203 40.8782 -0.0140
# 6 -0.0057 0.0119 0.0300 -11.6342 -0.0140 18.0773
#
#
#
# Elastic Compliance Matrix: (Units=1/GPa)
#
#
# Indices 1 2 3 4 5 6 
#
# 1 0.012691 -0.007428 -0.003685 0.000029 0.001233 0.000035
# 2 -0.007428 0.034334 -0.007715 0.000019 0.008834 0.000007
# 3 -0.003685 -0.007715 0.016455 -0.000054 -0.000658 -0.000059
# 4 0.000029 0.000019 -0.000054 0.055414 0.000046 0.035664
# 5 0.001233 0.008834 -0.000658 0.000046 0.028296 0.000047
# 6 0.000035 0.000007 -0.000059 0.035664 0.000047 0.078271
#
#
# Mechanical properties :
#
#
# Convention : Reuss Voigt Hill
#
# Bulk Modulus (GPa) = 38.72516 52.93522 45.83019
# Shear Modulus (GPa) = 18.40102 25.94114 22.17108
#
# Velocity S-wave (km/s) = 3.09261 3.67196 3.39467
# Velocity P-wave (km/s) = 5.73413 6.74475 6.25987
#
# Compressibility (1/GPa) = 0.02582300
#
# Stress axis : x y z
#
# Youngs Moduli (GPa) = 78.79799 29.12596 60.77192
#
# Poissons Ratio (x) = 0.21635 0.22392
# Poissons Ratio (y) = 0.58533 0.46888
# Poissons Ratio (z) = 0.29034 0.22472
#
# Static dielectric constant tensor:
#      x y z
#    x 1.693990 0.000010 -0.035760 
#    y 0.000010 1.639840 0.000000 
#    z -0.035760 0.000000 1.694270 
# 
# From -- ./inp_files/201271.got.cif
#   From: 2010.05.17/outbox.cif.g08.bks.cpg/sg15_101_cif.got.tgz:201271.got - 2010.06.03 18:47:42.
