data_PCOD9287325
_publ_section_title
;
Structure prediction by ZEFSAII (Michael W. Deem and Ramdas Pophale) SiO2 
 PCOD9287325
Probable space group: C 2/C
;
_chemical_formula_sum "Si O2"
_cell_formula_units_Z 44
_cell_length_a 13.379482
_cell_length_b 29.942519
_cell_length_c 7.993782
_cell_angle_alpha 90.000000
_cell_angle_beta 135.300356
_cell_angle_gamma 90.000000
_cell_volume 2252.559650
_symmetry_space_group_name_H-M "C 2/C"
_symmetry_group_IT_number 15
_symmetry_cell_setting 'monoclinic'
loop_
_space_group_symop_operation_xyz
x,y,z
-x,y,1/2-z
-x,-y,-z
x,-y,1/2+z
1/2+x,1/2+y,z
1/2-x,1/2+y,1/2-z
1/2-x,1/2-y,-z
1/2+x,1/2-y,1/2+z
loop_
_atom_site_type_symbol
_atom_site_label
_atom_site_fract_x
_atom_site_fract_y
_atom_site_fract_z
Si Si1 0.654226 0.710934 0.112322
Si Si2 0.789368 0.976777 0.248476
Si Si3 0.669160 0.351819 0.934629
Si Si4 0.000000 0.027573 0.750000
Si Si5 0.160776 0.561184 0.899839
Si Si6 0.315011 0.302102 0.217779
O O1 0.703278 0.687064 0.340969
O O2 0.719345 0.759673 0.156150
O O3 0.700826 0.685311 0.996711
O O4 0.482508 0.711683 0.924472
O O5 0.677477 0.950248 0.223970
O O6 0.885019 0.948805 0.231174
O O7 0.903345 0.996664 0.516012
O O8 0.713698 0.018129 0.066845
O O9 0.500000 0.357373 0.750000
O O10 0.737569 0.397036 0.949338
O O11 0.716237 0.338647 0.177863
O O12 0.000000 0.571758 0.750000
#
# Coordination Sequence:
#
# PCOD9287325 Si02
#       6
#     8   8   8   4   8   8
#     4   9  18  35  57  83 112 147 184 228 281 340
#     4   9  19  36  58  82 108 142 192 238 290 344
#     4  10  22  36  54  83 117 148 190 240 282 335
#     4   8  16  32  60  86  98 132 194 230 280 338
#     4  11  23  39  57  81 117 151 191 240 299 349
#     4   9  18  35  57  83 112 147 184 228 281 340
#
# _framework density 19.533332999999999
#
# number of rings (size 3 to 8) (size 9 to 14) (size 15 to 20)
#    0.000    2.545    0.000    1.091    7.636    1.455 
#    6.545    0.000    0.000    0.000    0.000    0.000 
#    0.000    0.000    0.000    0.000    0.000    0.000 
#
# Total GULP energy -122526.801226 kJ/mol
# GULP energy per Si atom -5569.400056 kJ/mol
# Density = 1.948887 g / cm^3
# Si number density = 19.533333 Si / 1000 Ang^3
#
#
#
# Elastic Constant Matrix: (Units=GPa)
#
#
# Indices 1 2 3 4 5 6 
#
# 1 146.8649 25.3747 16.4436 0.0000 -5.5288 0.0000
# 2 25.3747 30.8555 0.4534 0.0000 3.2388 0.0000
# 3 16.4436 0.4534 27.6606 0.0000 -12.8877 0.0000
# 4 0.0000 0.0000 0.0000 17.2987 0.0000 2.1757
# 5 -5.5288 3.2388 -12.8877 0.0000 18.8512 0.0000
# 6 0.0000 0.0000 0.0000 2.1757 0.0000 35.1644
#
#
#
# Elastic Compliance Matrix: (Units=1/GPa)
#
#
# Indices 1 2 3 4 5 6 
#
# 1 0.008575 -0.007030 -0.004766 0.000000 0.000465 0.000000
# 2 -0.007030 0.039185 -0.000822 0.000000 -0.009356 0.000000
# 3 -0.004766 -0.000822 0.056369 0.000000 0.037280 0.000000
# 4 0.000000 0.000000 0.000000 0.058261 0.000000 -0.003605
# 5 0.000465 -0.009356 0.037280 0.000000 0.080277 0.000000
# 6 0.000000 0.000000 0.000000 -0.003605 0.000000 0.028661
#
#
# Mechanical properties :
#
#
# Convention : Reuss Voigt Hill
#
# Bulk Modulus (GPa) = 12.67565 32.21384 22.44474
# Shear Modulus (GPa) = 15.48652 25.13682 20.31167
#
# Velocity S-wave (km/s) = 2.81877 3.59119 3.22816
# Velocity P-wave (km/s) = 4.13489 5.80715 5.04085
#
# Compressibility (1/GPa) = 0.07889142
#
# Stress axis : x y z
#
# Youngs Moduli (GPa) = 116.62151 25.52003 17.74037
#
# Poissons Ratio (x) = 0.17942 0.08455
# Poissons Ratio (y) = 0.81989 0.01459
# Poissons Ratio (z) = 0.55579 0.02098
#
# Static dielectric constant tensor:
#      x y z
#    x 1.724650 0.000000 -0.030460 
#    y 0.000000 1.660450 0.000000 
#    z -0.030460 0.000000 1.739950 
# 
# From -- ./inp_files/34479.got.cif
#   From: 2010.05.17/outbox.cif.g08.bks.cpg/sg15_18_cif.got.tgz:34479.got - 2010.06.03 18:47:42.
