data_PCOD9287789
_publ_section_title
;
Structure prediction by ZEFSAII (Michael W. Deem and Ramdas Pophale) SiO2 
 PCOD9287789
Probable space group: C 2/C
;
_chemical_formula_sum "Si O2"
_cell_formula_units_Z 56
_cell_length_a 26.464737
_cell_length_b 5.326280
_cell_length_c 15.833775
_cell_angle_alpha 90.000000
_cell_angle_beta 101.618137
_cell_angle_gamma 90.000000
_cell_volume 2186.178436
_symmetry_space_group_name_H-M "C 2/C"
_symmetry_group_IT_number 15
_symmetry_cell_setting 'monoclinic'
loop_
_space_group_symop_operation_xyz
x,y,z
-x,y,1/2-z
-x,-y,-z
x,-y,1/2+z
1/2+x,1/2+y,z
1/2-x,1/2+y,1/2-z
1/2-x,1/2-y,-z
1/2+x,1/2-y,1/2+z
loop_
_atom_site_type_symbol
_atom_site_label
_atom_site_fract_x
_atom_site_fract_y
_atom_site_fract_z
Si Si1 0.418554 0.660445 0.265206
Si Si2 0.631189 0.158809 0.301435
Si Si3 0.521859 0.353299 0.897083
Si Si4 0.215983 0.019677 0.916256
Si Si5 0.720612 0.272619 0.754152
Si Si6 0.928094 0.359139 0.540690
Si Si7 0.321952 0.712148 0.435764
O O1 0.390453 0.392871 0.259283
O O2 0.447434 0.653569 0.183115
O O3 0.462615 0.681262 0.350410
O O4 0.380348 0.900289 0.251090
O O5 0.685649 0.257244 0.356623
O O6 0.596792 0.137813 0.373912
O O7 0.535291 0.616722 0.944905
O O8 0.543038 0.121128 0.957926
O O9 0.207609 0.791757 0.849230
O O10 0.275724 0.094329 0.945223
O O11 0.188050 0.996818 0.996972
O O12 0.735049 0.988900 0.735210
O O13 0.687633 0.366742 0.662912
O O14 0.878615 0.320775 0.465340
#
# Coordination Sequence:
#
# PCOD9287789 Si02
#       7
#     8   8   8   8   8   8   8
#     4   9  16  27  44  69 101 133 171 221 266 310
#     4   9  17  28  45  71 100 134 175 213 261 320
#     4   9  16  27  44  69 101 133 171 221 266 310
#     4   9  19  36  57  82 114 148 182 225 272 322
#     4  10  22  38  56  80 109 146 189 224 266 324
#     4   9  17  28  45  71 100 134 175 213 261 320
#     4   9  19  36  57  82 114 148 182 225 272 322
#
# _framework density 25.615473000000001
#
# number of rings (size 3 to 8) (size 9 to 14) (size 15 to 20)
#    0.000    2.857    0.000    0.857    0.000    8.571 
#    0.000    8.571    0.000    0.000    0.000    6.000 
#    0.000    0.000    0.000    0.000    0.000    0.000 
#
# Total GULP energy -156582.789392 kJ/mol
# GULP energy per Si atom -5592.242478 kJ/mol
# Density = 2.555717 g / cm^3
# Si number density = 25.615473 Si / 1000 Ang^3
#
#
#
# Elastic Constant Matrix: (Units=GPa)
#
#
# Indices 1 2 3 4 5 6 
#
# 1 84.4509 28.6723 41.8532 0.0000 12.6956 0.0000
# 2 28.6723 110.1208 1.6607 0.0000 23.0450 0.0000
# 3 41.8532 1.6607 105.6792 0.0000 24.2740 0.0000
# 4 0.0000 0.0000 0.0000 26.3807 0.0000 -0.0855
# 5 12.6956 23.0450 24.2740 0.0000 65.5269 0.0000
# 6 0.0000 0.0000 0.0000 -0.0855 0.0000 34.0676
#
#
#
# Elastic Compliance Matrix: (Units=1/GPa)
#
#
# Indices 1 2 3 4 5 6 
#
# 1 0.016497 -0.004363 -0.006649 0.000000 0.000801 0.000000
# 2 -0.004363 0.011003 0.002459 0.000000 -0.003935 0.000000
# 3 -0.006649 0.002459 0.013072 0.000000 -0.004419 0.000000
# 4 0.000000 0.000000 0.000000 0.037907 0.000000 0.000095
# 5 0.000801 -0.003935 -0.004419 0.000000 0.018127 0.000000
# 6 0.000000 0.000000 0.000000 0.000095 0.000000 0.029354
#
#
# Mechanical properties :
#
#
# Convention : Reuss Voigt Hill
#
# Bulk Modulus (GPa) = 42.61318 49.40259 46.00788
# Shear Modulus (GPa) = 33.13715 40.39937 36.76826
#
# Velocity S-wave (km/s) = 3.60062 3.97564 3.79277
# Velocity P-wave (km/s) = 5.82733 6.35629 6.09755
#
# Compressibility (1/GPa) = 0.02346692
#
# Stress axis : x y z
#
# Youngs Moduli (GPa) = 60.61643 90.88154 76.49786
#
# Poissons Ratio (x) = 0.39650 0.50863
# Poissons Ratio (y) = 0.26446 -0.18810
# Poissons Ratio (z) = 0.40304 -0.22346
#
# Static dielectric constant tensor:
#      x y z
#    x 2.128140 0.000000 -0.043490 
#    y 0.000000 1.973460 0.000000 
#    z -0.043490 0.000000 1.987590 
# 
# From -- ./inp_files/223944.got.cif
#   From: 2010.05.17/outbox.cif.g08.bks.cpg/sg15_112_cif.got.tgz:223944.got - 2010.06.03 18:47:42.
