data_PCOD9287400
_publ_section_title
;
Structure prediction by ZEFSAII (Michael W. Deem and Ramdas Pophale) SiO2 
 PCOD9287400
Probable space group: C 2/C
;
_chemical_formula_sum "Si O2"
_cell_formula_units_Z 60
_cell_length_a 5.531067
_cell_length_b 19.019469
_cell_length_c 26.480652
_cell_angle_alpha 90.000000
_cell_angle_beta 91.505457
_cell_angle_gamma 90.000000
_cell_volume 2784.748948
_symmetry_space_group_name_H-M "C 2/C"
_symmetry_group_IT_number 15
_symmetry_cell_setting 'monoclinic'
loop_
_space_group_symop_operation_xyz
x,y,z
-x,y,1/2-z
-x,-y,-z
x,-y,1/2+z
1/2+x,1/2+y,z
1/2-x,1/2+y,1/2-z
1/2-x,1/2-y,-z
1/2+x,1/2-y,1/2+z
loop_
_atom_site_type_symbol
_atom_site_label
_atom_site_fract_x
_atom_site_fract_y
_atom_site_fract_z
Si Si1 0.890354 0.247050 0.301237
Si Si2 0.541932 0.518242 0.888640
Si Si3 0.806957 0.113237 0.161261
Si Si4 0.523604 0.188155 0.531884
Si Si5 0.566322 0.966793 0.446714
Si Si6 0.613308 0.327398 0.380686
Si Si7 0.342393 0.794566 0.923676
Si Si8 0.000000 0.352968 0.750000
O O1 0.815821 0.304675 0.341550
O O2 0.665572 0.200232 0.282231
O O3 0.000000 0.277018 0.250000
O O4 0.055264 0.185649 0.325396
O O5 0.538627 0.455853 0.848151
O O6 0.317240 0.503860 0.925184
O O7 0.503825 0.597282 0.867836
O O8 0.818758 0.523082 0.912465
O O9 0.687623 0.133525 0.106888
O O10 0.638729 0.102299 0.208755
O O11 0.380658 0.116633 0.544792
O O12 0.770945 0.173460 0.562556
O O13 0.523597 0.193772 0.471617
O O14 0.394211 0.258165 0.552742
O O15 0.500000 0.000000 0.500000
O O16 0.431385 0.262856 0.383889
#
# Coordination Sequence:
#
# PCOD9287400 Si02
#       8
#     8   8   8   8   8   8   8   4
#     4  10  22  40  69  94 124 167 230 273 343 398
#     4  11  26  41  68  96 138 175 220 273 346 390
#     4  11  23  41  68  98 127 177 223 283 334 411
#     4  10  22  36  59  96 129 172 223 268 320 392
#     4  11  23  43  62  94 138 184 222 271 325 404
#     4  11  21  42  64  95 135 175 215 286 326 408
#     4  11  20  37  63  91 129 173 222 265 328 387
#     4  10  22  42  68  92 126 166 224 290 330 406
#
# _framework density 21.545929000000001
#
# number of rings (size 3 to 8) (size 9 to 14) (size 15 to 20)
#    0.000    1.333    4.000    1.600    1.867    1.067 
#    3.600    0.000    4.400    0.000    0.000    0.000 
#    0.000    0.000    0.000    0.000    0.000    0.000 
#
# Total GULP energy -167344.137029 kJ/mol
# GULP energy per Si atom -5578.137901 kJ/mol
# Density = 2.149689 g / cm^3
# Si number density = 21.545929 Si / 1000 Ang^3
#
#
#
# Elastic Constant Matrix: (Units=GPa)
#
#
# Indices 1 2 3 4 5 6 
#
# 1 74.1226 17.9041 34.8950 0.0000 -17.9335 0.0000
# 2 17.9041 87.8036 30.8164 0.0000 -19.2345 0.0000
# 3 34.8950 30.8164 93.6759 0.0000 -20.4505 0.0000
# 4 0.0000 0.0000 0.0000 12.2064 0.0000 -16.3338
# 5 -17.9335 -19.2345 -20.4505 0.0000 38.6828 0.0000
# 6 0.0000 0.0000 0.0000 -16.3338 0.0000 17.3170
#
#
#
# Elastic Compliance Matrix: (Units=1/GPa)
#
#
# Indices 1 2 3 4 5 6 
#
# 1 0.017266 -0.000627 -0.005139 0.000000 0.004976 0.000000
# 2 -0.000627 0.013704 -0.003222 0.000000 0.004820 0.000000
# 3 -0.005139 -0.003222 0.014447 0.000000 0.003653 0.000000
# 4 0.000000 0.000000 0.000000 -0.312506 0.000000 -0.294763
# 5 0.004976 0.004820 0.003653 0.000000 0.032486 0.000000
# 6 0.000000 0.000000 0.000000 -0.294763 0.000000 -0.220280
#
#
# Mechanical properties :
#
#
# Convention : Reuss Voigt Hill
#
# Bulk Modulus (GPa) = 36.44358 46.98144 41.71251
# Shear Modulus (GPa) = -11.68878 25.10702 6.70912
#
# Velocity S-wave (km/s) = -2.33170 3.41732 1.76653
# Velocity P-wave (km/s) = 3.11480 6.11746 4.85414
#
# Compressibility (1/GPa) = 0.02743967
#
# Stress axis : x y z
#
# Youngs Moduli (GPa) = 57.91785 72.97315 69.21868
#
# Poissons Ratio (x) = 0.04575 0.35572
# Poissons Ratio (y) = 0.03631 0.22304
# Poissons Ratio (z) = 0.29765 0.23514
#
# Static dielectric constant tensor:
#      x y z
#    x 1.892490 0.000000 0.043820 
#    y 0.000000 1.775170 0.000000 
#    z 0.043820 0.000000 1.863720 
# 
# From -- ./inp_files/286439.got.cif
#   From: 2010.05.17/outbox.cif.g08.bks.cpg/sg15_144_cif.got.tgz:286439.got - 2010.06.03 18:47:42.
