data_PCOD9287984
_publ_section_title
;
Structure prediction by ZEFSAII (Michael W. Deem and Ramdas Pophale) SiO2 
 PCOD9287984
Probable space group: C 2/C
;
_chemical_formula_sum "Si O2"
_cell_formula_units_Z 48
_cell_length_a 16.786049
_cell_length_b 7.938355
_cell_length_c 22.288209
_cell_angle_alpha 90.000000
_cell_angle_beta 140.765907
_cell_angle_gamma 90.000000
_cell_volume 1878.486381
_symmetry_space_group_name_H-M "C 2/C"
_symmetry_group_IT_number 15
_symmetry_cell_setting 'monoclinic'
loop_
_space_group_symop_operation_xyz
x,y,z
-x,y,1/2-z
-x,-y,-z
x,-y,1/2+z
1/2+x,1/2+y,z
1/2-x,1/2+y,1/2-z
1/2-x,1/2-y,-z
1/2+x,1/2-y,1/2+z
loop_
_atom_site_type_symbol
_atom_site_label
_atom_site_fract_x
_atom_site_fract_y
_atom_site_fract_z
Si Si1 0.120692 0.757335 0.854651
Si Si2 0.138695 0.082040 0.797348
Si Si3 0.158389 0.976949 0.678208
Si Si4 0.418579 0.175465 0.326487
Si Si5 0.165033 0.747296 0.509454
Si Si6 0.896918 0.142655 0.020970
O O1 0.103855 0.755775 0.916396
O O2 0.000000 0.678748 0.750000
O O3 0.113969 0.957020 0.836982
O O4 0.259957 0.698959 0.915605
O O5 0.049053 0.224104 0.716140
O O6 0.156131 0.961296 0.749781
O O7 0.259770 0.184962 0.889248
O O8 0.301246 0.940821 0.744458
O O9 0.044903 0.860596 0.586317
O O10 0.131247 0.176578 0.657631
O O11 0.548665 0.120191 0.430492
O O12 0.250000 0.750000 0.500000
O O13 0.120837 0.940263 0.487178
#
# Coordination Sequence:
#
# PCOD9287984 Si02
#       6
#     8   8   8   8   8   8
#     4  11  19  40  60  92 120 162 203 248 319 357
#     4  10  22  39  66  85 123 169 199 251 318 357
#     4   9  20  43  59  85 124 165 201 250 306 362
#     4   9  22  41  61  86 126 163 206 253 302 366
#     4  11  21  40  63  95 122 157 210 261 305 368
#     4  10  22  38  61  90 128 154 200 265 295 365
#
# _framework density 25.552488
#
# number of rings (size 3 to 8) (size 9 to 14) (size 15 to 20)
#    1.000    1.000    3.333    0.000    0.000    2.000 
#    9.000    1.667    0.000    0.000    0.000    0.000 
#    0.000    0.000    0.000    0.000    0.000    0.000 
#
# Total GULP energy -133654.587583 kJ/mol
# GULP energy per Si atom -5568.941149 kJ/mol
# Density = 2.549433 g / cm^3
# Si number density = 25.552488 Si / 1000 Ang^3
#
#
#
# Elastic Constant Matrix: (Units=GPa)
#
#
# Indices 1 2 3 4 5 6 
#
# 1 53.0601 6.1813 21.8047 0.0000 11.1598 0.0000
# 2 6.1813 39.4439 16.9981 0.0000 7.2124 0.0000
# 3 21.8047 16.9981 198.1617 0.0000 22.5557 0.0000
# 4 0.0000 0.0000 0.0000 27.2131 0.0000 14.0981
# 5 11.1598 7.2124 22.5557 0.0000 31.5164 0.0000
# 6 0.0000 0.0000 0.0000 14.0981 0.0000 23.9079
#
#
#
# Elastic Compliance Matrix: (Units=1/GPa)
#
#
# Indices 1 2 3 4 5 6 
#
# 1 0.020895 -0.001540 -0.001486 0.000000 -0.005983 0.000000
# 2 -0.001540 0.027123 -0.001647 0.000000 -0.004483 0.000000
# 3 -0.001486 -0.001647 0.005714 0.000000 -0.003186 0.000000
# 4 0.000000 0.000000 0.000000 0.052911 0.000000 -0.031201
# 5 -0.005983 -0.004483 -0.003186 0.000000 0.037154 0.000000
# 6 0.000000 0.000000 0.000000 -0.031201 0.000000 0.060226
#
#
# Mechanical properties :
#
#
# Convention : Reuss Voigt Hill
#
# Bulk Modulus (GPa) = 22.52964 42.29268 32.41116
# Shear Modulus (GPa) = 21.91401 32.90624 27.41012
#
# Velocity S-wave (km/s) = 2.93167 3.59247 3.27876
# Velocity P-wave (km/s) = 4.50508 5.81335 5.20052
#
# Compressibility (1/GPa) = 0.04438597
#
# Stress axis : x y z
#
# Youngs Moduli (GPa) = 47.85841 36.86870 175.01359
#
# Poissons Ratio (x) = 0.05678 0.26008
# Poissons Ratio (y) = 0.07371 0.28822
# Poissons Ratio (z) = 0.07112 0.06072
#
# Static dielectric constant tensor:
#      x y z
#    x 2.287990 0.000000 0.029080 
#    y 0.000000 2.007120 0.000000 
#    z 0.029080 0.000000 2.229820 
# 
# From -- ./inp_files/300552.got.cif
#   From: 2010.05.17/outbox.cif.g08.bks.cpg/sg15_151_cif.got.tgz:300552.got - 2010.06.03 18:47:42.
