data_PCOD9287082
_publ_section_title
;
Structure prediction by ZEFSAII (Michael W. Deem and Ramdas Pophale) SiO2 
 PCOD9287082
Probable space group: C 2/C
;
_chemical_formula_sum "Si O2"
_cell_formula_units_Z 52
_cell_length_a 16.400530
_cell_length_b 8.405507
_cell_length_c 18.246987
_cell_angle_alpha 90.000000
_cell_angle_beta 51.647137
_cell_angle_gamma 90.000000
_cell_volume 1972.614077
_symmetry_space_group_name_H-M "C 2/C"
_symmetry_group_IT_number 15
_symmetry_cell_setting 'monoclinic'
loop_
_space_group_symop_operation_xyz
x,y,z
-x,y,1/2-z
-x,-y,-z
x,-y,1/2+z
1/2+x,1/2+y,z
1/2-x,1/2+y,1/2-z
1/2-x,1/2-y,-z
1/2+x,1/2-y,1/2+z
loop_
_atom_site_type_symbol
_atom_site_label
_atom_site_fract_x
_atom_site_fract_y
_atom_site_fract_z
Si Si1 0.000000 0.241647 0.750000
Si Si2 0.150047 0.516589 0.088851
Si Si3 0.353436 0.215210 0.547464
Si Si4 0.973663 0.054170 0.619948
Si Si5 0.022933 0.692144 0.559846
Si Si6 0.739017 0.567934 0.282170
Si Si7 0.269353 0.306873 0.139795
O O1 0.907254 0.349668 0.831556
O O2 0.037345 0.130779 0.795344
O O3 0.227966 0.398246 0.086892
O O4 0.193236 0.611946 0.992336
O O5 0.056338 0.416438 0.107228
O O6 0.432231 0.352051 0.470908
O O7 0.433234 0.127144 0.556533
O O8 0.275977 0.302048 0.646600
O O9 0.989668 0.867326 0.606843
O O10 0.856802 0.065528 0.648170
O O11 0.125880 0.726967 0.455630
O O12 0.814932 0.429729 0.262817
O O13 0.737772 0.645816 0.204848
#
# Coordination Sequence:
#
# PCOD9287082 Si02
#       7
#     4   8   8   8   8   8   8
#     4  10  26  42  68 100 134 178 230 296 334 400
#     4  11  27  41  67 107 137 171 234 290 343 403
#     4  10  21  48  72  93 130 191 231 276 342 433
#     4  10  21  46  71  90 127 189 236 273 338 430
#     4  11  22  45  72  95 138 184 234 277 353 420
#     4  11  25  43  71  97 137 184 232 280 353 415
#     4  12  27  44  67 106 144 179 229 293 353 405
#
# _framework density 26.360959000000001
#
# number of rings (size 3 to 8) (size 9 to 14) (size 15 to 20)
#    0.000    1.231    3.077    1.846   10.769    0.615 
#    0.000    0.000    0.000    0.000    0.000    0.000 
#    0.000    0.000    0.000    0.000    0.000    0.000 
#
# Total GULP energy -144968.204035 kJ/mol
# GULP energy per Si atom -5575.700155 kJ/mol
# Density = 2.630096 g / cm^3
# Si number density = 26.360959 Si / 1000 Ang^3
#
#
#
# Elastic Constant Matrix: (Units=GPa)
#
#
# Indices 1 2 3 4 5 6 
#
# 1 145.6462 50.9782 49.1671 0.0000 24.6926 0.0000
# 2 50.9782 106.6638 33.9948 0.0000 19.6118 0.0000
# 3 49.1671 33.9948 131.6466 0.0000 18.5937 0.0000
# 4 0.0000 0.0000 0.0000 62.5077 0.0000 11.1346
# 5 24.6926 19.6118 18.5937 0.0000 35.9778 0.0000
# 6 0.0000 0.0000 0.0000 11.1346 0.0000 38.0599
#
#
#
# Elastic Compliance Matrix: (Units=1/GPa)
#
#
# Indices 1 2 3 4 5 6 
#
# 1 0.009284 -0.003091 -0.002165 0.000000 -0.003568 0.000000
# 2 -0.003091 0.011981 -0.001420 0.000000 -0.003676 0.000000
# 3 -0.002165 -0.001420 0.009118 0.000000 -0.002452 0.000000
# 4 0.000000 0.000000 0.000000 0.016878 0.000000 -0.004938
# 5 -0.003568 -0.003676 -0.002452 0.000000 0.033514 0.000000
# 6 0.000000 0.000000 0.000000 -0.004938 0.000000 0.027719
#
#
# Mechanical properties :
#
#
# Convention : Reuss Voigt Hill
#
# Bulk Modulus (GPa) = 58.72114 72.47076 65.59595
# Shear Modulus (GPa) = 39.20879 43.96351 41.58615
#
# Velocity S-wave (km/s) = 3.86084 4.08824 3.97617
# Velocity P-wave (km/s) = 6.49607 7.05949 6.78363
#
# Compressibility (1/GPa) = 0.01702964
#
# Stress axis : x y z
#
# Youngs Moduli (GPa) = 107.71687 83.46570 109.67552
#
# Poissons Ratio (x) = 0.25798 0.23746
# Poissons Ratio (y) = 0.33294 0.15577
# Poissons Ratio (z) = 0.23322 0.11855
#
# Static dielectric constant tensor:
#      x y z
#    x 2.231230 0.000000 -0.042100 
#    y 0.000000 2.073500 0.000000 
#    z -0.042100 0.000000 2.128530 
# 
# From -- ./inp_files/209448.got.cif
#   From: 2010.05.17/outbox.cif.g08.bks.cpg/sg15_105_cif.got.tgz:209448.got - 2010.06.03 18:47:42.
