data_PCOD9287407
_publ_section_title
;
Structure prediction by ZEFSAII (Michael W. Deem and Ramdas Pophale) SiO2 
 PCOD9287407
Probable space group: C 2/C
;
_chemical_formula_sum "Si O2"
_cell_formula_units_Z 48
_cell_length_a 17.415809
_cell_length_b 23.874892
_cell_length_c 10.304831
_cell_angle_alpha 90.000000
_cell_angle_beta 29.857251
_cell_angle_gamma 90.000000
_cell_volume 2133.125603
_symmetry_space_group_name_H-M "C 2/C"
_symmetry_group_IT_number 15
_symmetry_cell_setting 'monoclinic'
loop_
_space_group_symop_operation_xyz
x,y,z
-x,y,1/2-z
-x,-y,-z
x,-y,1/2+z
1/2+x,1/2+y,z
1/2-x,1/2+y,1/2-z
1/2-x,1/2-y,-z
1/2+x,1/2-y,1/2+z
loop_
_atom_site_type_symbol
_atom_site_label
_atom_site_fract_x
_atom_site_fract_y
_atom_site_fract_z
Si Si1 0.827591 0.633712 0.530875
Si Si2 0.877651 0.940548 0.321283
Si Si3 0.322652 0.284214 0.062272
Si Si4 0.655350 0.447982 0.741132
Si Si5 0.396240 0.016737 0.532192
Si Si6 0.828532 0.333720 0.464390
O O1 0.758089 0.602967 0.505104
O O2 0.715627 0.680381 0.753984
O O3 0.845135 0.581560 0.605887
O O4 0.000000 0.655069 0.250000
O O5 0.000000 0.924561 0.250000
O O6 0.829377 0.005979 0.395137
O O7 0.978784 0.940554 0.040381
O O8 0.200773 0.305839 0.132900
O O9 0.500000 0.291552 0.750000
O O10 0.295786 0.217526 0.111269
O O11 0.754285 0.475067 0.713703
O O12 0.721843 0.387415 0.620182
O O13 0.500000 0.011191 0.250000
O O14 0.500000 0.000000 0.500000
O O15 0.000000 0.352530 0.250000
#
# Coordination Sequence:
#
# PCOD9287407 Si02
#       6
#     8   8   8   8   8   8
#     4  10  23  41  63  95 133 176 218 276 333 402
#     4  10  23  40  60  92 130 172 218 268 332 410
#     4  10  22  42  66  93 132 166 221 279 330 391
#     4  10  22  36  60  89 126 168 217 267 331 387
#     4  10  23  37  59  97 133 171 216 272 333 403
#     4  10  22  38  64  97 122 166 221 276 327 389
#
# _framework density 22.502189999999999
#
# number of rings (size 3 to 8) (size 9 to 14) (size 15 to 20)
#    0.000    2.000    0.000    1.500   11.667    4.000 
#    0.000    0.833    0.000   11.000    0.000    0.000 
#    0.000    0.000    0.000    0.000    0.000    0.000 
#
# Total GULP energy -134085.933240 kJ/mol
# GULP energy per Si atom -5586.913885 kJ/mol
# Density = 2.245097 g / cm^3
# Si number density = 22.502190 Si / 1000 Ang^3
#
#
#
# Elastic Constant Matrix: (Units=GPa)
#
#
# Indices 1 2 3 4 5 6 
#
# 1 103.3787 9.0741 5.8580 0.0017 -19.5733 0.0007
# 2 9.0741 121.7149 35.3458 -0.0003 8.2642 0.0016
# 3 5.8580 35.3458 89.7684 -0.0141 -15.3381 0.0089
# 4 0.0017 -0.0003 -0.0141 20.2206 0.0010 -9.3480
# 5 -19.5733 8.2642 -15.3381 0.0010 31.4718 0.0009
# 6 0.0007 0.0016 0.0089 -9.3480 0.0009 20.1717
#
#
#
# Elastic Compliance Matrix: (Units=1/GPa)
#
#
# Indices 1 2 3 4 5 6 
#
# 1 0.011299 -0.001792 0.001363 -0.000001 0.008162 -0.000002
# 2 -0.001792 0.010214 -0.004967 -0.000003 -0.006218 0.000001
# 3 0.001363 -0.004967 0.014589 0.000008 0.009262 -0.000003
# 4 -0.000001 -0.000003 0.000008 0.062938 0.000001 0.029167
# 5 0.008162 -0.006218 0.009262 0.000001 0.042997 -0.000005
# 6 -0.000002 0.000001 -0.000003 0.029167 -0.000005 0.063091
#
#
# Mechanical properties :
#
#
# Convention : Reuss Voigt Hill
#
# Bulk Modulus (GPa) = 39.51175 46.15753 42.83464
# Shear Modulus (GPa) = 22.28581 32.01176 27.14878
#
# Velocity S-wave (km/s) = 3.15045 3.77584 3.47723
# Velocity P-wave (km/s) = 5.55256 6.29017 5.93284
#
# Compressibility (1/GPa) = 0.02530892
#
# Stress axis : x y z
#
# Youngs Moduli (GPa) = 88.50654 97.90329 68.54383
#
# Poissons Ratio (x) = 0.17547 -0.09342
# Poissons Ratio (y) = 0.15863 0.34047
# Poissons Ratio (z) = -0.12063 0.48630
#
# Static dielectric constant tensor:
#      x y z
#    x 1.851830 0.000000 0.042550 
#    y 0.000000 1.848440 0.000000 
#    z 0.042550 0.000000 1.895940 
# 
# From -- ./inp_files/108052.got.cif
#   From: 2010.05.17/outbox.cif.g08.bks.cpg/sg15_55_cif.got.tgz:108052.got - 2010.06.03 18:47:42.
