data_PCOD9287742
_publ_section_title
;
Structure prediction by ZEFSAII (Michael W. Deem and Ramdas Pophale) SiO2 
 PCOD9287742
Probable space group: C 2/C
;
_chemical_formula_sum "Si O2"
_cell_formula_units_Z 48
_cell_length_a 27.987057
_cell_length_b 5.215856
_cell_length_c 21.517083
_cell_angle_alpha 90.000000
_cell_angle_beta 135.019327
_cell_angle_gamma 90.000000
_cell_volume 2220.264305
_symmetry_space_group_name_H-M "C 2/C"
_symmetry_group_IT_number 15
_symmetry_cell_setting 'monoclinic'
loop_
_space_group_symop_operation_xyz
x,y,z
-x,y,1/2-z
-x,-y,-z
x,-y,1/2+z
1/2+x,1/2+y,z
1/2-x,1/2+y,1/2-z
1/2-x,1/2-y,-z
1/2+x,1/2-y,1/2+z
loop_
_atom_site_type_symbol
_atom_site_label
_atom_site_fract_x
_atom_site_fract_y
_atom_site_fract_z
Si Si1 0.655750 0.464740 0.292032
Si Si2 0.606113 0.942870 0.308456
Si Si3 0.975678 0.112152 0.895367
Si Si4 0.267323 0.884632 0.801939
Si Si5 0.538247 0.040956 0.371631
Si Si6 0.422892 0.198769 0.463358
O O1 0.641666 0.179860 0.305331
O O2 0.596723 0.514818 0.185912
O O3 0.726713 0.508149 0.323744
O O4 0.646022 0.680828 0.335231
O O5 0.591847 0.017462 0.366603
O O6 0.530679 0.897570 0.211046
O O7 0.952895 0.344255 0.921205
O O8 0.006323 0.181894 0.856182
O O9 0.036255 0.955818 0.981907
O O10 0.229971 0.632044 0.740923
O O11 0.342929 0.788798 0.883283
O O12 0.565492 0.968695 0.464374
#
# Coordination Sequence:
#
# PCOD9287742 Si02
#       6
#     8   8   8   8   8   8
#     4  11  22  44  64  96 131 174 221 263 328 391
#     4  10  23  40  68  94 132 175 219 269 318 390
#     4  10  22  40  66 101 130 167 219 282 330 380
#     4  12  27  44  67  96 136 176 215 267 337 399
#     4  10  22  37  66  96 132 168 223 270 330 376
#     4  11  23  40  67 100 132 172 215 282 324 392
#
# _framework density 21.619045
#
# number of rings (size 3 to 8) (size 9 to 14) (size 15 to 20)
#    0.000    1.333    3.333    1.500    7.000    1.333 
#    0.000    1.667    0.000    0.000    0.000    0.000 
#    0.000    0.000    0.000    0.000    0.000    0.000 
#
# Total GULP energy -133705.058494 kJ/mol
# GULP energy per Si atom -5571.044104 kJ/mol
# Density = 2.156984 g / cm^3
# Si number density = 21.619045 Si / 1000 Ang^3
#
#
#
# Elastic Constant Matrix: (Units=GPa)
#
#
# Indices 1 2 3 4 5 6 
#
# 1 107.2389 7.5300 25.5922 0.0034 5.8820 0.0068
# 2 7.5300 67.0464 3.7771 -0.0089 5.7137 -0.0019
# 3 25.5922 3.7771 46.0337 0.0012 4.9654 -0.0002
# 4 0.0034 -0.0089 0.0012 13.0531 -0.0030 -4.0468
# 5 5.8820 5.7137 4.9654 -0.0030 26.0481 -0.0027
# 6 0.0068 -0.0019 -0.0002 -4.0468 -0.0027 23.8795
#
#
#
# Elastic Compliance Matrix: (Units=1/GPa)
#
#
# Indices 1 2 3 4 5 6 
#
# 1 0.010836 -0.000789 -0.005834 -0.000004 -0.001162 -0.000004
# 2 -0.000789 0.015294 -0.000483 0.000011 -0.003084 0.000003
# 3 -0.005834 -0.000483 0.025375 -0.000002 -0.003414 0.000001
# 4 -0.000004 0.000011 -0.000002 0.080858 0.000009 0.013703
# 5 -0.001162 -0.003084 -0.003414 0.000009 0.039980 0.000006
# 6 -0.000004 0.000003 0.000001 0.013703 0.000006 0.044199
#
#
# Mechanical properties :
#
#
# Convention : Reuss Voigt Hill
#
# Bulk Modulus (GPa) = 26.81631 32.67973 29.74802
# Shear Modulus (GPa) = 20.56031 24.82413 22.69222
#
# Velocity S-wave (km/s) = 3.08722 3.39226 3.24333
# Velocity P-wave (km/s) = 5.01387 5.52198 5.27405
#
# Compressibility (1/GPa) = 0.03729074
#
# Stress axis : x y z
#
# Youngs Moduli (GPa) = 92.28092 65.38603 39.40940
#
# Poissons Ratio (x) = 0.05161 0.22993
# Poissons Ratio (y) = 0.07284 0.01905
# Poissons Ratio (z) = 0.53840 0.03160
#
# Static dielectric constant tensor:
#      x y z
#    x 1.773410 0.000000 -0.050430 
#    y 0.000000 1.926230 0.000000 
#    z -0.050430 0.000000 1.845450 
# 
# From -- ./inp_files/221005.got.cif
#   From: 2010.05.17/outbox.cif.g08.bks.cpg/sg15_111_cif.got.tgz:221005.got - 2010.06.03 18:47:42.
