data_PCOD9287140
_publ_section_title
;
Structure prediction by ZEFSAII (Michael W. Deem and Ramdas Pophale) SiO2 
 PCOD9287140
Probable space group: C 2/C
;
_chemical_formula_sum "Si O2"
_cell_formula_units_Z 44
_cell_length_a 12.032493
_cell_length_b 23.121041
_cell_length_c 11.761849
_cell_angle_alpha 90.000000
_cell_angle_beta 36.218812
_cell_angle_gamma 90.000000
_cell_volume 1933.441215
_symmetry_space_group_name_H-M "C 2/C"
_symmetry_group_IT_number 15
_symmetry_cell_setting 'monoclinic'
loop_
_space_group_symop_operation_xyz
x,y,z
-x,y,1/2-z
-x,-y,-z
x,-y,1/2+z
1/2+x,1/2+y,z
1/2-x,1/2+y,1/2-z
1/2-x,1/2-y,-z
1/2+x,1/2-y,1/2+z
loop_
_atom_site_type_symbol
_atom_site_label
_atom_site_fract_x
_atom_site_fract_y
_atom_site_fract_z
Si Si1 0.508557 0.655217 0.870502
Si Si2 0.848826 0.271419 0.776222
Si Si3 0.000000 0.780788 0.750000
Si Si4 0.836750 0.562834 0.958100
Si Si5 0.476457 0.558068 0.090745
Si Si6 0.102590 0.319661 0.006301
O O1 0.500000 0.628803 0.750000
O O2 0.674646 0.703332 0.737912
O O3 0.338580 0.700167 0.022248
O O4 0.485888 0.610519 0.991449
O O5 0.893903 0.309155 0.628733
O O6 0.000000 0.279171 0.750000
O O7 0.814883 0.817309 0.883197
O O8 0.008724 0.736755 0.637923
O O9 0.000000 0.528581 0.750000
O O10 0.658774 0.566800 0.020039
O O11 0.715933 0.550916 0.175231
O O12 0.960883 0.618413 0.897844
O O13 0.500000 0.500000 0.000000
#
# Coordination Sequence:
#
# PCOD9287140 Si02
#       6
#     8   8   4   8   8   8
#     4  11  24  42  67  99 143 195 240 294 366 432
#     4  11  23  39  62  99 145 185 238 292 355 438
#     4  10  22  30  58  94 138 186 218 268 354 426
#     4  11  25  46  76 106 137 179 241 305 359 418
#     4  11  27  50  75 102 146 191 244 301 362 431
#     4  11  21  37  60  98 140 178 225 285 354 426
#
# _framework density 22.757351
#
# number of rings (size 3 to 8) (size 9 to 14) (size 15 to 20)
#    0.000    1.091    2.727    4.364    7.636    3.636 
#    0.000    0.909    0.000    0.000    0.000    0.000 
#    0.000    0.000    0.000    0.000    0.000    0.000 
#
# Total GULP energy -122672.312458 kJ/mol
# GULP energy per Si atom -5576.014203 kJ/mol
# Density = 2.270555 g / cm^3
# Si number density = 22.757351 Si / 1000 Ang^3
#
#
#
# Elastic Constant Matrix: (Units=GPa)
#
#
# Indices 1 2 3 4 5 6 
#
# 1 79.0467 34.0976 41.5685 -0.0020 35.5009 -0.0019
# 2 34.0976 86.8531 26.2688 0.0000 12.0458 0.0000
# 3 41.5685 26.2688 165.9204 -0.0012 25.7550 -0.0011
# 4 -0.0020 0.0000 -0.0012 175.1991 0.0016 171.1710
# 5 35.5009 12.0458 25.7550 0.0016 49.1668 0.0015
# 6 -0.0019 0.0000 -0.0011 171.1710 0.0015 168.6427
#
#
#
# Elastic Compliance Matrix: (Units=1/GPa)
#
#
# Indices 1 2 3 4 5 6 
#
# 1 0.022840 -0.006292 -0.002618 0.000002 -0.013579 -0.000001
# 2 -0.006292 0.014035 -0.000890 0.000000 0.001570 0.000000
# 3 -0.002618 -0.000890 0.007071 0.000000 -0.001596 0.000000
# 4 0.000002 0.000000 0.000000 0.683995 -0.000002 -0.694249
# 5 -0.013579 0.001570 -0.001596 -0.000002 0.030595 0.000002
# 6 -0.000001 0.000000 0.000000 -0.694249 0.000002 0.710587
#
#
# Mechanical properties :
#
#
# Convention : Reuss Voigt Hill
#
# Bulk Modulus (GPa) = 41.07195 59.52110 50.29653
# Shear Modulus (GPa) = 3.34038 93.92741 48.63389
#
# Velocity S-wave (km/s) = 1.21285 6.43141 4.62785
# Velocity P-wave (km/s) = 4.47753 9.02010 7.12076
#
# Compressibility (1/GPa) = 0.02434752
#
# Stress axis : x y z
#
# Youngs Moduli (GPa) = 43.78307 71.25071 141.41279
#
# Poissons Ratio (x) = 0.44828 0.37026
# Poissons Ratio (y) = 0.27546 0.12579
# Poissons Ratio (z) = 0.11464 0.06338
#
# Static dielectric constant tensor:
#      x y z
#    x 1.861340 0.000000 0.229350 
#    y 0.000000 1.866890 0.000000 
#    z 0.229350 0.000000 2.032340 
# 
# From -- ./inp_files/91124.got.cif
#   From: 2010.05.17/outbox.cif.g08.bks.cpg/sg15_46_cif.got.tgz:91124.got - 2010.06.03 18:47:42.
