data_PCOD9287661
_publ_section_title
;
Structure prediction by ZEFSAII (Michael W. Deem and Ramdas Pophale) SiO2 
 PCOD9287661
Probable space group: C 2/C
;
_chemical_formula_sum "Si O2"
_cell_formula_units_Z 56
_cell_length_a 9.025171
_cell_length_b 19.188662
_cell_length_c 26.259772
_cell_angle_alpha 90.000000
_cell_angle_beta 144.328018
_cell_angle_gamma 90.000000
_cell_volume 2651.959671
_symmetry_space_group_name_H-M "C 2/C"
_symmetry_group_IT_number 15
_symmetry_cell_setting 'monoclinic'
loop_
_space_group_symop_operation_xyz
x,y,z
-x,y,1/2-z
-x,-y,-z
x,-y,1/2+z
1/2+x,1/2+y,z
1/2-x,1/2+y,1/2-z
1/2-x,1/2-y,-z
1/2+x,1/2-y,1/2+z
loop_
_atom_site_type_symbol
_atom_site_label
_atom_site_fract_x
_atom_site_fract_y
_atom_site_fract_z
Si Si1 0.202186 0.309793 0.347688
Si Si2 0.472433 0.400017 0.581379
Si Si3 0.110095 0.736567 0.391309
Si Si4 0.103798 0.098149 0.006022
Si Si5 0.819919 0.238944 0.311901
Si Si6 0.610743 0.151629 0.583682
Si Si7 0.217458 0.971681 0.430388
O O1 0.434453 0.274674 0.382927
O O2 0.326861 0.370411 0.415463
O O3 0.000000 0.337448 0.250000
O O4 0.053080 0.252360 0.338479
O O5 0.577448 0.428686 0.556642
O O6 0.620484 0.330578 0.639562
O O7 0.470398 0.462012 0.622480
O O8 0.177083 0.375808 0.493721
O O9 0.201847 0.662242 0.434768
O O10 0.351530 0.785036 0.445783
O O11 0.932963 0.731229 0.291853
O O12 0.192487 0.055583 0.981459
O O13 0.817606 0.310088 0.344051
O O14 0.798369 0.091415 0.614537
O O15 0.500000 0.000000 0.500000
#
# Coordination Sequence:
#
# PCOD9287661 Si02
#       7
#     8   8   8   8   8   8   8
#     4  10  22  37  61  97 127 156 205 273 323 371
#     4  11  23  39  64  92 127 172 202 265 319 391
#     4  11  23  35  66  98 123 164 206 276 313 375
#     4  12  21  40  66  89 124 169 214 256 321 382
#     4  11  22  39  63  96 133 154 217 266 328 365
#     4  11  20  39  64  93 124 162 207 264 315 381
#     4  10  25  40  63  90 125 167 217 254 319 392
#
# _framework density 21.11646
#
# number of rings (size 3 to 8) (size 9 to 14) (size 15 to 20)
#    0.000    1.143    4.286    2.571    4.000    0.000 
#    0.000    0.000   18.857    0.000    0.000    0.000 
#    0.000    0.000    0.000    0.000    0.000    0.000 
#
# Total GULP energy -156293.035256 kJ/mol
# GULP energy per Si atom -5581.894116 kJ/mol
# Density = 2.106840 g / cm^3
# Si number density = 21.116460 Si / 1000 Ang^3
#
#
#
# Elastic Constant Matrix: (Units=GPa)
#
#
# Indices 1 2 3 4 5 6 
#
# 1 107.2096 28.1872 18.5514 -0.0001 -0.1993 -0.0002
# 2 28.1872 92.1415 22.3275 0.0000 -12.2499 0.0000
# 3 18.5514 22.3275 67.6375 0.0001 -12.0540 0.0002
# 4 -0.0001 0.0000 0.0001 3.4339 0.0000 -4.8641
# 5 -0.1993 -12.2499 -12.0540 0.0000 29.0401 -0.0001
# 6 -0.0002 0.0000 0.0002 -4.8641 -0.0001 44.5984
#
#
#
# Elastic Compliance Matrix: (Units=1/GPa)
#
#
# Indices 1 2 3 4 5 6 
#
# 1 0.010491 -0.002937 -0.002285 0.000001 -0.002115 0.000000
# 2 -0.002937 0.012984 -0.002708 0.000000 0.004332 0.000000
# 3 -0.002285 -0.002708 0.017385 -0.000001 0.006058 0.000000
# 4 0.000001 0.000000 -0.000001 0.344425 -0.000001 0.037564
# 5 -0.002115 0.004332 0.006058 -0.000001 0.038763 0.000000
# 6 0.000000 0.000000 0.000000 0.037564 0.000000 0.026519
#
#
# Mechanical properties :
#
#
# Convention : Reuss Voigt Hill
#
# Bulk Modulus (GPa) = 40.00089 45.01341 42.50715
# Shear Modulus (GPa) = 10.53163 28.60930 19.57046
#
# Velocity S-wave (km/s) = 2.23567 3.68480 3.04762
# Velocity P-wave (km/s) = 5.06443 6.28225 5.70592
#
# Compressibility (1/GPa) = 0.02499944
#
# Stress axis : x y z
#
# Youngs Moduli (GPa) = 95.31856 77.02042 57.52052
#
# Poissons Ratio (x) = 0.22620 0.13143
# Poissons Ratio (y) = 0.27994 0.15578
# Poissons Ratio (z) = 0.21780 0.20860
#
# Static dielectric constant tensor:
#      x y z
#    x 1.833070 0.000000 -0.043840 
#    y 0.000000 1.795970 0.000000 
#    z -0.043840 0.000000 1.740300 
# 
# From -- ./inp_files/265578.got.cif
#   From: 2010.05.17/outbox.cif.g08.bks.cpg/sg15_133_cif.got.tgz:265578.got - 2010.06.03 18:47:42.
