data_PCOD9287480
_publ_section_title
;
Structure prediction by ZEFSAII (Michael W. Deem and Ramdas Pophale) SiO2 
 PCOD9287480
Probable space group: C 2/C
;
_chemical_formula_sum "Si O2"
_cell_formula_units_Z 56
_cell_length_a 28.604654
_cell_length_b 8.963849
_cell_length_c 19.848841
_cell_angle_alpha 90.000000
_cell_angle_beta 30.439008
_cell_angle_gamma 90.000000
_cell_volume 2578.395016
_symmetry_space_group_name_H-M "C 2/C"
_symmetry_group_IT_number 15
_symmetry_cell_setting 'monoclinic'
loop_
_space_group_symop_operation_xyz
x,y,z
-x,y,1/2-z
-x,-y,-z
x,-y,1/2+z
1/2+x,1/2+y,z
1/2-x,1/2+y,1/2-z
1/2-x,1/2-y,-z
1/2+x,1/2-y,1/2+z
loop_
_atom_site_type_symbol
_atom_site_label
_atom_site_fract_x
_atom_site_fract_y
_atom_site_fract_z
Si Si1 0.500000 0.503021 0.250000
Si Si2 0.591676 0.930214 0.420070
Si Si3 0.090974 0.735458 0.702792
Si Si4 0.500265 0.725064 0.634566
Si Si5 0.210084 0.761531 0.678111
Si Si6 0.107752 0.727987 0.473203
Si Si7 0.899304 0.061614 0.646511
Si Si8 0.000000 0.474317 0.750000
O O1 0.420557 0.611370 0.322703
O O2 0.470330 0.404560 0.350760
O O3 0.569459 0.785635 0.492496
O O4 0.659451 0.872972 0.279664
O O5 0.500000 0.000000 0.500000
O O6 0.626557 0.061565 0.423531
O O7 0.178329 0.739548 0.641522
O O8 0.081194 0.592609 0.666271
O O9 0.997388 0.734475 0.867506
O O10 0.415814 0.661431 0.693885
O O11 0.492595 0.866389 0.694531
O O12 0.315739 0.744934 0.565990
O O13 0.167348 0.922021 0.754906
O O14 0.125016 0.836072 0.387678
O O15 0.000000 0.000000 0.500000
#
# Coordination Sequence:
#
# PCOD9287480 Si02
#       8
#     4   8   8   8   8   8   8   4
#     4  10  22  36  64  90 114 170 214 246 306 354
#     4  12  20  39  65  94 129 160 201 259 320 373
#     4  11  21  42  64  88 123 163 214 258 296 371
#     4  11  19  36  66  90 119 165 206 250 308 373
#     4  12  24  39  65  96 127 163 204 261 322 374
#     4  12  24  39  65  96 127 163 204 261 322 374
#     4  12  20  39  65  94 129 160 201 259 320 373
#     4  10  22  36  64  90 114 170 214 246 306 354
#
# _framework density 21.718934999999998
#
# number of rings (size 3 to 8) (size 9 to 14) (size 15 to 20)
#    0.000    0.571    8.571    0.857    0.000    0.000 
#    0.000    2.857    0.000    5.143    0.000    0.000 
#    0.000    0.000    0.000    0.000    0.000    0.000 
#
# Total GULP energy -156326.958620 kJ/mol
# GULP energy per Si atom -5583.105665 kJ/mol
# Density = 2.166950 g / cm^3
# Si number density = 21.718935 Si / 1000 Ang^3
#
#
#
# Elastic Constant Matrix: (Units=GPa)
#
#
# Indices 1 2 3 4 5 6 
#
# 1 180.3903 52.6695 42.3418 0.0020 -1.8547 0.0030
# 2 52.6695 126.4629 29.6716 0.0101 10.3525 0.0094
# 3 42.3418 29.6716 76.8681 0.0078 12.1006 0.0086
# 4 0.0020 0.0101 0.0078 8.7104 -0.0037 8.6780
# 5 -1.8547 10.3525 12.1006 -0.0037 26.6620 -0.0034
# 6 0.0030 0.0094 0.0086 8.6780 -0.0034 51.4536
#
#
#
# Elastic Compliance Matrix: (Units=1/GPa)
#
#
# Indices 1 2 3 4 5 6 
#
# 1 0.007080 -0.002384 -0.003449 0.000006 0.002984 0.000000
# 2 -0.002384 0.009597 -0.001916 -0.000010 -0.003023 0.000000
# 3 -0.003449 -0.001916 0.016768 -0.000015 -0.007106 0.000000
# 4 0.000006 -0.000010 -0.000015 0.137991 0.000027 -0.023273
# 5 0.002984 -0.003023 -0.007106 0.000027 0.042113 0.000000
# 6 0.000000 0.000000 0.000000 -0.023273 0.000000 0.023360
#
#
# Mechanical properties :
#
#
# Convention : Reuss Voigt Hill
#
# Bulk Modulus (GPa) = 55.71970 70.34303 63.03136
# Shear Modulus (GPa) = 19.35069 34.63442 26.99256
#
# Velocity S-wave (km/s) = 2.98813 3.99766 3.52918
# Velocity P-wave (km/s) = 6.13318 7.33257 6.75953
#
# Compressibility (1/GPa) = 0.01794697
#
# Stress axis : x y z
#
# Youngs Moduli (GPa) = 141.24690 104.19827 59.63909
#
# Poissons Ratio (x) = 0.24836 0.20572
# Poissons Ratio (y) = 0.33666 0.11425
# Poissons Ratio (z) = 0.48722 0.19962
#
# Static dielectric constant tensor:
#      x y z
#    x 1.871950 0.000000 0.057430 
#    y 0.000000 1.819240 0.000000 
#    z 0.057430 0.000000 1.829990 
# 
# From -- ./inp_files/283132.got.cif
#   From: 2010.05.17/outbox.cif.g08.bks.cpg/sg15_142_cif.got.tgz:283132.got - 2010.06.03 18:47:42.
