data_PCOD9287007
_publ_section_title
;
Structure prediction by ZEFSAII (Michael W. Deem and Ramdas Pophale) SiO2 
 PCOD9287007
Probable space group: C 2/C
;
_chemical_formula_sum "Si O2"
_cell_formula_units_Z 52
_cell_length_a 23.444955
_cell_length_b 12.092283
_cell_length_c 13.831748
_cell_angle_alpha 90.000000
_cell_angle_beta 36.257854
_cell_angle_gamma 90.000000
_cell_volume 2319.161109
_symmetry_space_group_name_H-M "C 2/C"
_symmetry_group_IT_number 15
_symmetry_cell_setting 'monoclinic'
loop_
_space_group_symop_operation_xyz
x,y,z
-x,y,1/2-z
-x,-y,-z
x,-y,1/2+z
1/2+x,1/2+y,z
1/2-x,1/2+y,1/2-z
1/2-x,1/2-y,-z
1/2+x,1/2-y,1/2+z
loop_
_atom_site_type_symbol
_atom_site_label
_atom_site_fract_x
_atom_site_fract_y
_atom_site_fract_z
Si Si1 0.688186 0.228721 0.701610
Si Si2 0.000000 0.970168 0.250000
Si Si3 0.679436 0.426542 0.583296
Si Si4 0.836012 0.188813 0.055871
Si Si5 0.553638 0.929105 0.310710
Si Si6 0.319110 0.915497 0.984616
Si Si7 0.653749 0.041643 0.360549
O O1 0.710826 0.349484 0.629503
O O2 0.775724 0.140770 0.569453
O O3 0.648547 0.249317 0.862395
O O4 0.610824 0.185062 0.728626
O O5 0.923691 0.893743 0.412144
O O6 0.931798 0.046281 0.277085
O O7 0.732958 0.542015 0.533815
O O8 0.735392 0.123087 0.209432
O O9 0.829979 0.285032 0.983621
O O10 0.441423 0.902468 0.463596
O O11 0.588674 0.022937 0.188918
O O12 0.600106 0.973432 0.348665
O O13 0.304809 0.964688 0.111664
#
# Coordination Sequence:
#
# PCOD9287007 Si02
#       7
#     8   4   8   8   8   8   8
#     4  10  21  45  71  99 136 186 232 282 347 425
#     4  12  30  44  66 108 146 182 232 298 352 416
#     4  10  24  46  70 101 142 183 233 292 352 415
#     4  12  26  43  71 101 141 185 231 282 356 416
#     4  10  23  40  70 101 134 175 238 288 338 415
#     4  11  23  44  72  98 140 181 228 292 348 413
#     4  11  23  43  67 100 134 180 230 286 343 417
#
# _framework density 22.421900000000001
#
# number of rings (size 3 to 8) (size 9 to 14) (size 15 to 20)
#    0.000    1.231    3.077    2.308    2.154    5.538 
#    0.000    0.000    0.000    0.000    0.000    0.000 
#    0.000    0.000    0.000    0.000    0.000    0.000 
#
# Total GULP energy -145015.582919 kJ/mol
# GULP energy per Si atom -5577.522420 kJ/mol
# Density = 2.237087 g / cm^3
# Si number density = 22.421900 Si / 1000 Ang^3
#
#
#
# Elastic Constant Matrix: (Units=GPa)
#
#
# Indices 1 2 3 4 5 6 
#
# 1 84.9030 28.4898 36.0962 0.0000 -11.3080 0.0000
# 2 28.4898 108.3984 45.7241 0.0000 -9.2021 0.0000
# 3 36.0962 45.7241 126.1499 0.0000 -22.6767 0.0000
# 4 0.0000 0.0000 0.0000 35.3559 0.0000 7.8191
# 5 -11.3080 -9.2021 -22.6767 0.0000 51.4103 0.0000
# 6 0.0000 0.0000 0.0000 7.8191 0.0000 30.4777
#
#
#
# Elastic Compliance Matrix: (Units=1/GPa)
#
#
# Indices 1 2 3 4 5 6 
#
# 1 0.013980 -0.002331 -0.002908 0.000000 0.001375 0.000000
# 2 -0.002331 0.011281 -0.003423 0.000000 -0.000003 0.000000
# 3 -0.002908 -0.003423 0.010616 0.000000 0.003431 0.000000
# 4 0.000000 0.000000 0.000000 0.029985 0.000000 -0.007693
# 5 0.001375 -0.000003 0.003431 0.000000 0.021266 0.000000
# 6 0.000000 0.000000 0.000000 -0.007693 0.000000 0.034784
#
#
# Mechanical properties :
#
#
# Convention : Reuss Voigt Hill
#
# Bulk Modulus (GPa) = 53.89576 60.00794 56.95185
# Shear Modulus (GPa) = 34.38284 37.39153 35.88718
#
# Velocity S-wave (km/s) = 3.92018 4.08810 4.00502
# Velocity P-wave (km/s) = 6.67680 7.00747 6.84413
#
# Compressibility (1/GPa) = 0.01855434
#
# Stress axis : x y z
#
# Youngs Moduli (GPa) = 71.53185 88.64253 94.19356
#
# Poissons Ratio (x) = 0.20661 0.27393
# Poissons Ratio (y) = 0.16673 0.32239
# Poissons Ratio (z) = 0.20803 0.30339
#
# Static dielectric constant tensor:
#      x y z
#    x 1.837280 0.000000 0.024410 
#    y 0.000000 1.984130 0.000000 
#    z 0.024410 0.000000 1.926190 
# 
# From -- ./inp_files/173122.got.cif
#   From: 2010.05.17/outbox.cif.g08.bks.cpg/sg15_87_cif.got.tgz:173122.got - 2010.06.03 18:47:42.
