data_PCOD9287968
_publ_section_title
;
Structure prediction by ZEFSAII (Michael W. Deem and Ramdas Pophale) SiO2 
 PCOD9287968
Probable space group: C 2/C
;
_chemical_formula_sum "Si O2"
_cell_formula_units_Z 60
_cell_length_a 12.866597
_cell_length_b 7.799329
_cell_length_c 29.124847
_cell_angle_alpha 90.000000
_cell_angle_beta 102.042688
_cell_angle_gamma 90.000000
_cell_volume 2858.380779
_symmetry_space_group_name_H-M "C 2/C"
_symmetry_group_IT_number 15
_symmetry_cell_setting 'monoclinic'
loop_
_space_group_symop_operation_xyz
x,y,z
-x,y,1/2-z
-x,-y,-z
x,-y,1/2+z
1/2+x,1/2+y,z
1/2-x,1/2+y,1/2-z
1/2-x,1/2-y,-z
1/2+x,1/2-y,1/2+z
loop_
_atom_site_type_symbol
_atom_site_label
_atom_site_fract_x
_atom_site_fract_y
_atom_site_fract_z
Si Si1 0.018931 0.977924 0.447210
Si Si2 0.695833 0.722007 0.928528
Si Si3 0.000000 0.748098 0.250000
Si Si4 0.731652 0.361794 0.953481
Si Si5 0.899953 0.434573 0.290967
Si Si6 0.211473 0.052773 0.600477
Si Si7 0.682193 0.427026 0.325524
Si Si8 0.871115 0.319707 0.184348
O O1 0.083340 0.801565 0.443640
O O2 0.912416 0.987877 0.408063
O O3 0.104204 0.117625 0.438071
O O4 0.000000 0.000000 0.500000
O O5 0.765268 0.562871 0.955808
O O6 0.680929 0.666709 0.874214
O O7 0.743235 0.910906 0.930967
O O8 0.064154 0.626467 0.220227
O O9 0.089200 0.853484 0.284841
O O10 0.781198 0.244373 0.919017
O O11 0.750000 0.250000 0.000000
O O12 0.798426 0.414375 0.313448
O O13 0.873067 0.348680 0.239273
O O14 0.008794 0.356505 0.320814
O O15 0.285292 0.056505 0.652184
O O16 0.658418 0.626612 0.328959
#
# Coordination Sequence:
#
# PCOD9287968 Si02
#       8
#     8   8   4   8   8   8   8   8
#     4  10  23  43  67  96 125 168 214 266 336 395
#     4  10  25  41  64 100 125 169 223 261 320 403
#     4  10  22  38  60  94 126 168 222 268 310 398
#     4  10  22  45  65  95 130 160 216 272 321 402
#     4  10  23  41  61  94 130 176 219 264 330 373
#     4  12  22  45  67  92 139 168 213 281 322 386
#     4  12  22  41  62  92 132 171 220 267 325 376
#     4  10  22  40  64  92 130 175 218 269 316 388
#
# _framework density 20.990905000000001
#
# number of rings (size 3 to 8) (size 9 to 14) (size 15 to 20)
#    0.800    0.800    2.667    3.200    0.000    7.467 
#    2.400    1.333    0.000    0.000    0.000    0.000 
#    0.000    0.000    0.000    0.000    0.000    0.000 
#
# Total GULP energy -167322.628289 kJ/mol
# GULP energy per Si atom -5577.420943 kJ/mol
# Density = 2.094313 g / cm^3
# Si number density = 20.990905 Si / 1000 Ang^3
#
#
#
# Elastic Constant Matrix: (Units=GPa)
#
#
# Indices 1 2 3 4 5 6 
#
# 1 107.3454 1.7935 26.5331 0.0000 8.0690 0.0000
# 2 1.7935 57.3442 -6.5227 0.0000 2.1818 0.0000
# 3 26.5331 -6.5227 55.6327 0.0000 11.2071 0.0000
# 4 0.0000 0.0000 0.0000 -44.0419 0.0000 28.1684
# 5 8.0690 2.1818 11.2071 0.0000 32.5545 0.0000
# 6 0.0000 0.0000 0.0000 28.1684 0.0000 8.7883
#
#
#
# Elastic Compliance Matrix: (Units=1/GPa)
#
#
# Indices 1 2 3 4 5 6 
#
# 1 0.010630 -0.000869 -0.004999 0.000000 -0.000856 0.000000
# 2 -0.000869 0.017872 0.002909 0.000000 -0.001984 0.000000
# 3 -0.004999 0.002909 0.022017 0.000000 -0.006535 0.000000
# 4 0.000000 0.000000 0.000000 -0.007444 0.000000 0.023861
# 5 -0.000856 -0.001984 -0.006535 0.000000 0.033313 0.000000
# 6 0.000000 0.000000 0.000000 0.023861 0.000000 0.037308
#
#
# Mechanical properties :
#
#
# Convention : Reuss Voigt Hill
#
# Bulk Modulus (GPa) = 22.42041 29.32556 25.87299
# Shear Modulus (GPa) = 37.18032 12.69475 24.93753
#
# Velocity S-wave (km/s) = 4.21320 2.46188 3.45050
# Velocity P-wave (km/s) = 5.86279 4.69916 5.31292
#
# Compressibility (1/GPa) = 0.04460221
#
# Stress axis : x y z
#
# Youngs Moduli (GPa) = 94.07091 55.95299 45.41930
#
# Poissons Ratio (x) = 0.04860 0.22707
# Poissons Ratio (y) = 0.08171 -0.13214
# Poissons Ratio (z) = 0.47030 -0.16279
#
# Static dielectric constant tensor:
#      x y z
#    x 1.722790 0.000000 0.031240 
#    y 0.000000 1.776620 0.000000 
#    z 0.031240 0.000000 1.823940 
# 
# From -- ./inp_files/310350.got.cif
#   From: 2010.05.17/outbox.cif.g08.bks.cpg/sg15_156_cif.got.tgz:310350.got - 2010.06.03 18:47:42.
