data_PCOD9287433
_publ_section_title
;
Structure prediction by ZEFSAII (Michael W. Deem and Ramdas Pophale) SiO2 
 PCOD9287433
Probable space group: C 2/C
;
_chemical_formula_sum "Si O2"
_cell_formula_units_Z 44
_cell_length_a 22.008580
_cell_length_b 10.632085
_cell_length_c 22.228668
_cell_angle_alpha 90.000000
_cell_angle_beta 156.804039
_cell_angle_gamma 90.000000
_cell_volume 2048.729639
_symmetry_space_group_name_H-M "C 2/C"
_symmetry_group_IT_number 15
_symmetry_cell_setting 'monoclinic'
loop_
_space_group_symop_operation_xyz
x,y,z
-x,y,1/2-z
-x,-y,-z
x,-y,1/2+z
1/2+x,1/2+y,z
1/2-x,1/2+y,1/2-z
1/2-x,1/2-y,-z
1/2+x,1/2-y,1/2+z
loop_
_atom_site_type_symbol
_atom_site_label
_atom_site_fract_x
_atom_site_fract_y
_atom_site_fract_z
Si Si1 0.814347 0.159360 0.473341
Si Si2 0.278980 0.078640 0.292485
Si Si3 0.200965 0.428389 0.313452
Si Si4 0.500000 0.410965 0.250000
Si Si5 0.356407 0.598639 0.733284
Si Si6 0.009938 0.250822 0.442118
O O1 0.727105 0.276768 0.366443
O O2 0.883010 0.170808 0.603125
O O3 0.977078 0.133110 0.586761
O O4 0.711968 0.033316 0.375062
O O5 0.131824 0.170382 0.161711
O O6 0.423747 0.160035 0.445372
O O7 0.294327 0.011523 0.243126
O O8 0.245827 0.975926 0.313612
O O9 0.055785 0.336979 0.171840
O O10 0.352625 0.340793 0.453166
O O11 0.595174 0.478353 0.283495
#
# Coordination Sequence:
#
# PCOD9287433 Si02
#       6
#     8   8   8   4   8   8
#     4  10  22  36  61  87 119 151 194 242 296 343
#     4  11  23  38  59  86 118 159 195 237 292 345
#     4  11  23  38  59  86 118 159 195 237 292 345
#     4   8  20  40  56  88 120 148 192 254 294 330
#     4  10  22  36  61  87 119 151 194 242 296 343
#     4  10  23  38  56  80 125 153 191 240 281 348
#
# _framework density 21.476723
#
# number of rings (size 3 to 8) (size 9 to 14) (size 15 to 20)
#    1.091    0.727    1.818    1.636    7.636    0.000 
#    0.000    0.000    0.000   17.455    0.000    0.000 
#    0.000    0.000    0.000    0.000    0.000    0.000 
#
# Total GULP energy -122739.116399 kJ/mol
# GULP energy per Si atom -5579.050745 kJ/mol
# Density = 2.142784 g / cm^3
# Si number density = 21.476723 Si / 1000 Ang^3
#
#
#
# Elastic Constant Matrix: (Units=GPa)
#
#
# Indices 1 2 3 4 5 6 
#
# 1 25.9510 5.0388 1.4730 0.0002 -9.3511 0.0001
# 2 5.0388 86.8509 56.0407 -0.0114 -9.9604 -0.0068
# 3 1.4730 56.0407 121.7731 -0.0055 -7.1602 -0.0036
# 4 0.0002 -0.0114 -0.0055 37.8452 -0.0020 9.4737
# 5 -9.3511 -9.9604 -7.1602 -0.0020 18.7124 0.0000
# 6 0.0001 -0.0068 -0.0036 9.4737 0.0000 -15.9088
#
#
#
# Elastic Compliance Matrix: (Units=1/GPa)
#
#
# Indices 1 2 3 4 5 6 
#
# 1 0.047116 -0.000791 0.001181 0.000001 0.023576 0.000001
# 2 -0.000791 0.017069 -0.007503 0.000005 0.005819 -0.000003
# 3 0.001181 -0.007503 0.011714 -0.000001 0.001078 0.000000
# 4 0.000001 0.000005 -0.000001 0.022995 0.000005 0.013694
# 5 0.023576 0.005819 0.001078 0.000005 0.068732 0.000001
# 6 0.000001 -0.000003 0.000000 0.013694 0.000001 -0.054704
#
#
# Mechanical properties :
#
#
# Convention : Reuss Voigt Hill
#
# Bulk Modulus (GPa) = 16.21524 39.96444 28.08984
# Shear Modulus (GPa) = 33.85042 19.59793 26.72417
#
# Velocity S-wave (km/s) = 3.97438 3.02407 3.53134
# Velocity P-wave (km/s) = 5.35046 5.55356 5.45295
#
# Compressibility (1/GPa) = 0.06167039
#
# Stress axis : x y z
#
# Youngs Moduli (GPa) = 21.22418 58.58619 85.36599
#
# Poissons Ratio (x) = 0.04637 -0.10078
# Poissons Ratio (y) = 0.01680 0.64054
# Poissons Ratio (z) = -0.02506 0.43960
#
# Static dielectric constant tensor:
#      x y z
#    x 1.828070 0.000000 0.013480 
#    y 0.000000 1.795850 0.000000 
#    z 0.013480 0.000000 1.810020 
# 
# From -- ./inp_files/283520.got.cif
#   From: 2010.05.17/outbox.cif.g08.bks.cpg/sg15_142_cif.got.tgz:283520.got - 2010.06.03 18:47:42.
