data_PCOD9287365
_publ_section_title
;
Structure prediction by ZEFSAII (Michael W. Deem and Ramdas Pophale) SiO2 
 PCOD9287365
Probable space group: C 2/C
;
_chemical_formula_sum "Si O2"
_cell_formula_units_Z 64
_cell_length_a 27.999803
_cell_length_b 10.360636
_cell_length_c 22.117835
_cell_angle_alpha 90.000000
_cell_angle_beta 149.758196
_cell_angle_gamma 90.000000
_cell_volume 3231.567197
_symmetry_space_group_name_H-M "C 2/C"
_symmetry_group_IT_number 15
_symmetry_cell_setting 'monoclinic'
loop_
_space_group_symop_operation_xyz
x,y,z
-x,y,1/2-z
-x,-y,-z
x,-y,1/2+z
1/2+x,1/2+y,z
1/2-x,1/2+y,1/2-z
1/2-x,1/2-y,-z
1/2+x,1/2-y,1/2+z
loop_
_atom_site_type_symbol
_atom_site_label
_atom_site_fract_x
_atom_site_fract_y
_atom_site_fract_z
Si Si1 0.869519 0.919334 0.390020
Si Si2 0.655228 0.131401 0.657423
Si Si3 0.329699 0.525611 0.213011
Si Si4 0.126279 0.160289 0.021871
Si Si5 0.529206 0.742171 0.115343
Si Si6 0.994482 0.666153 0.315424
Si Si7 0.792467 0.748416 0.114202
Si Si8 0.117016 0.556797 0.011706
O O1 0.767687 0.853531 0.289316
O O2 0.860193 0.983906 0.314249
O O3 0.961192 0.829847 0.492674
O O4 0.878365 0.020946 0.453982
O O5 0.628469 0.242625 0.580846
O O6 0.596683 0.157681 0.653691
O O7 0.632206 0.997074 0.597348
O O8 0.404728 0.637328 0.278940
O O9 0.320612 0.394474 0.164415
O O10 0.222018 0.577807 0.100702
O O11 0.216864 0.193044 0.079359
O O12 0.036103 0.197566 0.883408
O O13 0.452042 0.821912 0.068452
O O14 0.886342 0.660960 0.217972
O O15 0.000000 0.658426 0.250000
O O16 0.063351 0.558462 0.418352
O O17 0.750000 0.750000 0.000000
#
# Coordination Sequence:
#
# PCOD9287365 Si02
#       8
#     8   8   8   8   8   8   8   8
#     4  11  23  37  58  90 133 164 199 268 322 383
#     4  10  22  36  58  88 130 165 206 253 310 388
#     4  11  22  41  61  91 131 167 208 263 329 376
#     4  11  22  40  60  97 120 161 208 257 320 373
#     4  12  23  36  59  90 126 173 207 251 326 386
#     4  11  22  42  66  90 120 159 213 267 318 369
#     4  12  23  41  70  94 122 163 214 275 320 372
#     4  10  23  39  58  88 124 169 213 258 306 386
#
# _framework density 19.804632000000002
#
# number of rings (size 3 to 8) (size 9 to 14) (size 15 to 20)
#    0.000    1.000    6.250    2.250    7.000    0.000 
#    0.000    0.000    2.750    1.500    0.000    0.000 
#    0.000    0.000    0.000    0.000    0.000    0.000 
#
# Total GULP energy -178705.571449 kJ/mol
# GULP energy per Si atom -5584.549108 kJ/mol
# Density = 1.975956 g / cm^3
# Si number density = 19.804632 Si / 1000 Ang^3
#
#
#
# Elastic Constant Matrix: (Units=GPa)
#
#
# Indices 1 2 3 4 5 6 
#
# 1 51.2103 23.0109 28.8958 0.0000 5.3111 0.0000
# 2 23.0109 62.2873 32.8240 0.0000 3.5679 0.0000
# 3 28.8958 32.8240 107.4316 0.0000 14.1960 0.0000
# 4 0.0000 0.0000 0.0000 36.2744 0.0000 13.7608
# 5 5.3111 3.5679 14.1960 0.0000 36.5091 0.0000
# 6 0.0000 0.0000 0.0000 13.7608 0.0000 22.7572
#
#
#
# Elastic Compliance Matrix: (Units=1/GPa)
#
#
# Indices 1 2 3 4 5 6 
#
# 1 0.025313 -0.006888 -0.004539 0.000000 -0.001244 0.000000
# 2 -0.006888 0.021016 -0.004669 0.000000 0.000764 0.000000
# 3 -0.004539 -0.004669 0.012448 0.000000 -0.003723 0.000000
# 4 0.000000 0.000000 0.000000 0.035774 0.000000 -0.021632
# 5 -0.001244 0.000764 -0.003723 0.000000 0.028945 0.000000
# 6 0.000000 0.000000 0.000000 -0.021632 0.000000 0.057022
#
#
# Mechanical properties :
#
#
# Convention : Reuss Voigt Hill
#
# Bulk Modulus (GPa) = 37.61766 43.37674 40.49720
# Shear Modulus (GPa) = 22.56601 28.18805 25.37703
#
# Velocity S-wave (km/s) = 3.37921 3.77677 3.58350
# Velocity P-wave (km/s) = 5.85329 6.40066 6.13309
#
# Compressibility (1/GPa) = 0.02658326
#
# Stress axis : x y z
#
# Youngs Moduli (GPa) = 39.50577 47.58241 80.33469
#
# Poissons Ratio (x) = 0.32774 0.36468
# Poissons Ratio (y) = 0.27211 0.37512
# Poissons Ratio (z) = 0.17934 0.22218
#
# Static dielectric constant tensor:
#      x y z
#    x 1.705340 0.000000 0.030060 
#    y 0.000000 1.750840 0.000000 
#    z 0.030060 0.000000 1.718580 
# 
# From -- ./inp_files/257515.got.cif
#   From: 2010.05.17/outbox.cif.g08.bks.cpg/sg15_129_cif.got.tgz:257515.got - 2010.06.03 18:47:42.
