data_PCOD9287169
_publ_section_title
;
Structure prediction by ZEFSAII (Michael W. Deem and Ramdas Pophale) SiO2 
 PCOD9287169
Probable space group: C 2/C
;
_chemical_formula_sum "Si O2"
_cell_formula_units_Z 60
_cell_length_a 22.775579
_cell_length_b 14.472483
_cell_length_c 8.482998
_cell_angle_alpha 90.000000
_cell_angle_beta 81.294549
_cell_angle_gamma 90.000000
_cell_volume 2763.945673
_symmetry_space_group_name_H-M "C 2/C"
_symmetry_group_IT_number 15
_symmetry_cell_setting 'monoclinic'
loop_
_space_group_symop_operation_xyz
x,y,z
-x,y,1/2-z
-x,-y,-z
x,-y,1/2+z
1/2+x,1/2+y,z
1/2-x,1/2+y,1/2-z
1/2-x,1/2-y,-z
1/2+x,1/2-y,1/2+z
loop_
_atom_site_type_symbol
_atom_site_label
_atom_site_fract_x
_atom_site_fract_y
_atom_site_fract_z
Si Si1 0.180859 0.010947 0.604493
Si Si2 0.853700 0.129730 0.624234
Si Si3 0.383661 0.196325 0.253457
Si Si4 0.723234 0.188813 0.650955
Si Si5 0.928275 0.573691 0.478466
Si Si6 0.315367 0.046055 0.074731
Si Si7 0.809254 0.795998 0.545232
Si Si8 0.000000 0.574155 0.750000
O O1 0.135160 0.051993 0.749953
O O2 0.190320 0.093679 0.472499
O O3 0.152417 0.920971 0.537490
O O4 0.247539 0.983758 0.633030
O O5 0.891645 0.222885 0.621483
O O6 0.785314 0.155164 0.700555
O O7 0.433307 0.140135 0.324801
O O8 0.340580 0.119103 0.192779
O O9 0.358038 0.253728 0.410753
O O10 0.750000 0.250000 0.500000
O O11 0.688526 0.103765 0.587538
O O12 0.687090 0.253544 0.782491
O O13 0.860552 0.539577 0.540177
O O14 0.958672 0.482718 0.390058
O O15 0.955633 0.612899 0.630930
O O16 0.750000 0.750000 0.500000
#
# Coordination Sequence:
#
# PCOD9287169 Si02
#       8
#     8   8   8   8   8   8   8   4
#     4  10  23  31  50  74 112 155 197 218 268 298
#     4  10  22  33  48  73 109 156 189 239 253 308
#     4  11  22  37  52  78 108 145 195 227 273 334
#     4  11  21  32  47  73 110 149 192 235 258 304
#     4  11  23  39  60  80 112 142 182 235 293 361
#     4  11  23  32  54  78 106 157 194 222 271 334
#     4  11  20  33  49  72 109 148 192 239 260 306
#     4  10  24  42  58  84 106 140 172 244 306 350
#
# _framework density 21.708096999999999
#
# number of rings (size 3 to 8) (size 9 to 14) (size 15 to 20)
#    0.000    1.333    5.333    0.800   11.200    0.000 
#    0.000    0.000    0.000    0.000    0.000    0.000 
#    0.000   12.800    0.000    0.000    0.000    0.000 
#
# Total GULP energy -167193.037920 kJ/mol
# GULP energy per Si atom -5573.101264 kJ/mol
# Density = 2.165869 g / cm^3
# Si number density = 21.708097 Si / 1000 Ang^3
#
#
#
# Elastic Constant Matrix: (Units=GPa)
#
#
# Indices 1 2 3 4 5 6 
#
# 1 35.6296 15.2042 10.8636 0.0000 19.3482 0.0000
# 2 15.2042 92.0631 24.3953 0.0000 23.6063 0.0000
# 3 10.8636 24.3953 73.1729 0.0000 25.4567 0.0000
# 4 0.0000 0.0000 0.0000 51.1390 0.0000 5.7838
# 5 19.3482 23.6063 25.4567 0.0000 32.9466 0.0000
# 6 0.0000 0.0000 0.0000 5.7838 0.0000 -6.6377
#
#
#
# Elastic Compliance Matrix: (Units=1/GPa)
#
#
# Indices 1 2 3 4 5 6 
#
# 1 0.041822 -0.001018 0.003311 0.000000 -0.026389 0.000000
# 2 -0.001018 0.013458 -0.001626 0.000000 -0.007789 0.000000
# 3 0.003311 -0.001626 0.019130 0.000000 -0.015561 0.000000
# 4 0.000000 0.000000 0.000000 0.017800 0.000000 0.015510
# 5 -0.026389 -0.007789 -0.015561 0.000000 0.063453 0.000000
# 6 0.000000 0.000000 0.000000 0.015510 0.000000 -0.137139
#
#
# Mechanical properties :
#
#
# Convention : Reuss Voigt Hill
#
# Bulk Modulus (GPa) = 13.20226 33.53243 23.36734
# Shear Modulus (GPa) = 117.81716 25.51642 71.66679
#
# Velocity S-wave (km/s) = 7.37504 3.43218 5.75200
# Velocity P-wave (km/s) = 8.86660 5.58453 7.40957
#
# Compressibility (1/GPa) = 0.07574462
#
# Stress axis : x y z
#
# Youngs Moduli (GPa) = 23.91114 74.30396 52.27310
#
# Poissons Ratio (x) = 0.07561 -0.17307
# Poissons Ratio (y) = 0.02433 0.08500
# Poissons Ratio (z) = -0.07917 0.12082
#
# Static dielectric constant tensor:
#      x y z
#    x 1.867700 0.000000 0.065500 
#    y 0.000000 1.967460 0.000000 
#    z 0.065500 0.000000 1.953860 
# 
# From -- ./inp_files/61565.got.cif
#   From: 2010.05.17/outbox.cif.g08.bks.cpg/sg15_31_cif.got.tgz:61565.got - 2010.06.03 18:47:42.
