data_PCOD9287009
_publ_section_title
;
Structure prediction by ZEFSAII (Michael W. Deem and Ramdas Pophale) SiO2 
 PCOD9287009
Probable space group: C 2/C
;
_chemical_formula_sum "Si O2"
_cell_formula_units_Z 64
_cell_length_a 28.170122
_cell_length_b 9.187995
_cell_length_c 14.254027
_cell_angle_alpha 90.000000
_cell_angle_beta 43.593839
_cell_angle_gamma 90.000000
_cell_volume 2543.944143
_symmetry_space_group_name_H-M "C 2/C"
_symmetry_group_IT_number 15
_symmetry_cell_setting 'monoclinic'
loop_
_space_group_symop_operation_xyz
x,y,z
-x,y,1/2-z
-x,-y,-z
x,-y,1/2+z
1/2+x,1/2+y,z
1/2-x,1/2+y,1/2-z
1/2-x,1/2-y,-z
1/2+x,1/2-y,1/2+z
loop_
_atom_site_type_symbol
_atom_site_label
_atom_site_fract_x
_atom_site_fract_y
_atom_site_fract_z
Si Si1 0.088651 0.650443 0.321878
Si Si2 0.721765 0.643695 0.198205
Si Si3 0.908012 0.728877 0.980872
Si Si4 0.991517 0.007259 0.400616
Si Si5 0.048556 0.293256 0.589708
Si Si6 0.137771 0.502063 0.573681
Si Si7 0.782898 0.946650 0.115549
Si Si8 0.140720 0.040755 0.675864
O O1 0.099312 0.628649 0.416449
O O2 0.123837 0.541669 0.199356
O O3 0.006762 0.658793 0.412145
O O4 0.129325 0.801818 0.239676
O O5 0.725012 0.819162 0.189356
O O6 0.727366 0.572823 0.293410
O O7 0.658696 0.576739 0.229938
O O8 0.787908 0.570360 0.051675
O O9 0.844713 0.840718 0.061997
O O10 0.970629 0.832036 0.908101
O O11 0.913106 0.630381 0.883444
O O12 0.064220 0.983372 0.246678
O O13 0.940468 0.876626 0.446724
O O14 0.000000 0.000000 0.500000
O O15 0.117053 0.373282 0.529614
O O16 0.000000 0.307601 0.750000
O O17 0.805367 0.019601 0.985191
#
# Coordination Sequence:
#
# PCOD9287009 Si02
#       8
#     8   8   8   8   8   8   8   8
#     4  10  21  45  71  99 141 183 233 290 359 432
#     4  11  25  47  68 103 139 189 242 296 352 423
#     4  11  23  45  69 105 143 174 240 296 361 423
#     4  11  21  41  71 105 129 184 232 290 353 424
#     4   9  20  40  62  98 137 172 233 271 346 425
#     4  10  25  42  68 102 139 190 224 292 355 425
#     4  11  26  45  70 104 140 184 240 300 353 423
#     4  11  24  45  74 102 141 186 243 297 351 429
#
# _framework density 25.157783999999999
#
# number of rings (size 3 to 8) (size 9 to 14) (size 15 to 20)
#    0.000    1.500    3.750    0.375    7.000    4.000 
#   13.500    0.000    0.000    0.000    0.000    0.000 
#    0.000    0.000    0.000    0.000    0.000    0.000 
#
# Total GULP energy -178960.304249 kJ/mol
# GULP energy per Si atom -5592.509508 kJ/mol
# Density = 2.510052 g / cm^3
# Si number density = 25.157784 Si / 1000 Ang^3
#
#
#
# Elastic Constant Matrix: (Units=GPa)
#
#
# Indices 1 2 3 4 5 6 
#
# 1 51.5858 8.9360 -5.0749 0.0000 3.4330 0.0000
# 2 8.9360 86.9250 16.0097 0.0000 -3.8613 0.0000
# 3 -5.0749 16.0097 55.9359 0.0000 6.1595 0.0000
# 4 0.0000 0.0000 0.0000 37.4523 0.0000 3.5324
# 5 3.4330 -3.8613 6.1595 0.0000 25.1490 0.0000
# 6 0.0000 0.0000 0.0000 3.5324 0.0000 45.8100
#
#
#
# Elastic Compliance Matrix: (Units=1/GPa)
#
#
# Indices 1 2 3 4 5 6 
#
# 1 0.020451 -0.002853 0.003112 0.000000 -0.003992 0.000000
# 2 -0.002853 0.012736 -0.004278 0.000000 0.003393 0.000000
# 3 0.003112 -0.004278 0.020044 0.000000 -0.005991 0.000000
# 4 0.000000 0.000000 0.000000 0.026896 0.000000 -0.002074
# 5 -0.003992 0.003393 -0.005991 0.000000 0.042296 0.000000
# 6 0.000000 0.000000 0.000000 -0.002074 0.000000 0.021989
#
#
# Mechanical properties :
#
#
# Convention : Reuss Voigt Hill
#
# Bulk Modulus (GPa) = 22.12723 26.02093 24.07408
# Shear Modulus (GPa) = 29.84814 33.32066 31.58440
#
# Velocity S-wave (km/s) = 3.44821 3.64327 3.54708
# Velocity P-wave (km/s) = 4.96669 5.29749 5.13476
#
# Compressibility (1/GPa) = 0.04519319
#
# Stress axis : x y z
#
# Youngs Moduli (GPa) = 48.89707 78.51763 49.89056
#
# Poissons Ratio (x) = 0.22400 -0.15524
# Poissons Ratio (y) = 0.13949 0.21341
# Poissons Ratio (z) = -0.15214 0.33587
#
# Static dielectric constant tensor:
#      x y z
#    x 2.071880 0.000000 -0.052720 
#    y 0.000000 2.022080 0.000000 
#    z -0.052720 0.000000 2.009670 
# 
# From -- ./inp_files/181129.got.cif
#   From: 2010.05.17/outbox.cif.g08.bks.cpg/sg15_91_cif.got.tgz:181129.got - 2010.06.03 18:47:42.
