data_PCOD9287996
_publ_section_title
;
Structure prediction by ZEFSAII (Michael W. Deem and Ramdas Pophale) SiO2 
 PCOD9287996
Probable space group: C 2/C
;
_chemical_formula_sum "Si O2"
_cell_formula_units_Z 36
_cell_length_a 13.756771
_cell_length_b 17.042601
_cell_length_c 5.717452
_cell_angle_alpha 90.000000
_cell_angle_beta 86.237702
_cell_angle_gamma 90.000000
_cell_volume 1337.574366
_symmetry_space_group_name_H-M "C 2/C"
_symmetry_group_IT_number 15
_symmetry_cell_setting 'monoclinic'
loop_
_space_group_symop_operation_xyz
x,y,z
-x,y,1/2-z
-x,-y,-z
x,-y,1/2+z
1/2+x,1/2+y,z
1/2-x,1/2+y,1/2-z
1/2-x,1/2-y,-z
1/2+x,1/2-y,1/2+z
loop_
_atom_site_type_symbol
_atom_site_label
_atom_site_fract_x
_atom_site_fract_y
_atom_site_fract_z
Si Si1 0.000000 0.705996 0.250000
Si Si2 0.107624 0.675474 0.632521
Si Si3 0.847587 0.520739 0.664011
Si Si4 0.155079 0.202535 0.431172
Si Si5 0.131702 0.976427 0.089313
O O1 0.086793 0.660008 0.365684
O O2 0.059361 0.760493 0.065583
O O3 0.167981 0.611951 0.763821
O O4 0.000000 0.660053 0.750000
O O5 0.142974 0.764397 0.667762
O O6 0.894493 0.511137 0.398867
O O7 0.739630 0.487575 0.627044
O O8 0.250000 0.250000 0.500000
O O9 0.147144 0.111995 0.492862
O O10 0.089343 0.979263 0.363885
#
# Coordination Sequence:
#
# PCOD9287996 Si02
#       5
#     4   8   8   8   8
#     4  10  26  42  66 102 142 172 250 292 338 426
#     4  10  23  41  62  97 137 175 231 286 337 419
#     4  10  22  38  61  95 137 178 228 278 342 420
#     4  11  23  44  73 100 134 189 232 288 359 412
#     4  10  23  42  67 104 139 177 236 295 348 421
#
# _framework density 26.914393
#
# number of rings (size 3 to 8) (size 9 to 14) (size 15 to 20)
#    0.000    1.778    2.222    0.000    9.333    3.556 
#    0.000    1.111    0.000    0.000    0.000    0.000 
#    0.000    0.000    0.000    0.000    0.000    0.000 
#
# Total GULP energy -100283.335568 kJ/mol
# GULP energy per Si atom -5571.296420 kJ/mol
# Density = 2.685313 g / cm^3
# Si number density = 26.914393 Si / 1000 Ang^3
#
#
#
# Elastic Constant Matrix: (Units=GPa)
#
#
# Indices 1 2 3 4 5 6 
#
# 1 55.6355 -5.9027 28.6500 0.0000 5.9391 0.0000
# 2 -5.9027 146.0013 94.2800 0.0000 6.1025 0.0000
# 3 28.6500 94.2800 235.2651 0.0000 33.8807 0.0000
# 4 0.0000 0.0000 0.0000 19.7732 0.0000 -4.7470
# 5 5.9391 6.1025 33.8807 0.0000 52.7332 0.0000
# 6 0.0000 0.0000 0.0000 -4.7470 0.0000 20.0713
#
#
#
# Elastic Compliance Matrix: (Units=1/GPa)
#
#
# Indices 1 2 3 4 5 6 
#
# 1 0.020265 0.003237 -0.003727 0.000000 -0.000262 0.000000
# 2 0.003237 0.009858 -0.004549 0.000000 0.001417 0.000000
# 3 -0.003727 -0.004549 0.007043 0.000000 -0.003579 0.000000
# 4 0.000000 0.000000 0.000000 0.053618 0.000000 0.012681
# 5 -0.000262 0.001417 -0.003579 0.000000 0.021128 0.000000
# 6 0.000000 0.000000 0.000000 0.012681 0.000000 0.052822
#
#
# Mechanical properties :
#
#
# Convention : Reuss Voigt Hill
#
# Bulk Modulus (GPa) = 36.91686 74.55074 55.73380
# Shear Modulus (GPa) = 27.19738 39.84051 33.51895
#
# Velocity S-wave (km/s) = 3.18231 3.85160 3.53284
# Velocity P-wave (km/s) = 5.22005 6.89486 6.11507
#
# Compressibility (1/GPa) = 0.02708790
#
# Stress axis : x y z
#
# Youngs Moduli (GPa) = 49.34618 101.43664 141.99015
#
# Poissons Ratio (x) = -0.32837 0.52924
# Poissons Ratio (y) = -0.15974 0.64591
# Poissons Ratio (z) = 0.18393 0.46143
#
# Static dielectric constant tensor:
#      x y z
#    x 2.123690 0.000000 -0.032130 
#    y 0.000000 2.195430 0.000000 
#    z -0.032130 0.000000 2.740900 
# 
# From -- ./inp_files/9696.got.cif
#   From: 2010.05.17/outbox.cif.g08.bks.cpg/sg15_5_cif.got.tgz:9696.got - 2010.06.03 18:47:42.
