data_PCOD9287304
_publ_section_title
;
Structure prediction by ZEFSAII (Michael W. Deem and Ramdas Pophale) SiO2 
 PCOD9287304
Probable space group: C 2/C
;
_chemical_formula_sum "Si O2"
_cell_formula_units_Z 48
_cell_length_a 17.877440
_cell_length_b 12.934891
_cell_length_c 22.119649
_cell_angle_alpha 90.000000
_cell_angle_beta 154.931554
_cell_angle_gamma 90.000000
_cell_volume 2167.232258
_symmetry_space_group_name_H-M "C 2/C"
_symmetry_group_IT_number 15
_symmetry_cell_setting 'monoclinic'
loop_
_space_group_symop_operation_xyz
x,y,z
-x,y,1/2-z
-x,-y,-z
x,-y,1/2+z
1/2+x,1/2+y,z
1/2-x,1/2+y,1/2-z
1/2-x,1/2-y,-z
1/2+x,1/2-y,1/2+z
loop_
_atom_site_type_symbol
_atom_site_label
_atom_site_fract_x
_atom_site_fract_y
_atom_site_fract_z
Si Si1 0.885866 0.679072 0.755577
Si Si2 0.310590 0.296840 0.177675
Si Si3 0.029946 0.699511 0.995396
Si Si4 0.717078 0.989008 0.599444
Si Si5 0.617762 0.858952 0.931250
Si Si6 0.000000 0.501761 0.750000
Si Si7 0.000000 0.844684 0.750000
O O1 0.941866 0.677457 0.865999
O O2 0.684248 0.716885 0.603676
O O3 0.005607 0.767956 0.811107
O O4 0.914504 0.576235 0.737467
O O5 0.121736 0.270038 0.069156
O O6 0.335997 0.418218 0.213859
O O7 0.283146 0.301509 0.084491
O O8 0.454544 0.217646 0.305342
O O9 0.127739 0.590005 0.080018
O O10 0.587667 0.054252 0.461564
O O11 0.834115 0.917966 0.640717
O O12 0.635883 0.925767 0.883904
#
# Coordination Sequence:
#
# PCOD9287304 Si02
#       7
#     8   8   8   8   8   4   4
#     4  10  22  35  67  91 122 156 195 261 295 357
#     4  10  22  41  60  89 119 164 203 239 301 360
#     4  11  20  40  64  92 120 157 201 251 304 353
#     4   9  21  38  64  85 120 162 194 250 298 351
#     4  10  23  41  62  84 122 163 196 251 296 354
#     4  11  22  41  58  90 124 157 204 239 318 346
#     4   9  20  37  58  98 118 151 210 239 306 358
#
# _framework density 22.148064000000002
#
# number of rings (size 3 to 8) (size 9 to 14) (size 15 to 20)
#    1.000    1.000    1.667    1.500    2.333    3.333 
#    3.000    0.833    0.000    0.000    0.000    0.000 
#    0.000    0.000    0.000    0.000    0.000    0.000 
#
# Total GULP energy -133828.014783 kJ/mol
# GULP energy per Si atom -5576.167283 kJ/mol
# Density = 2.209765 g / cm^3
# Si number density = 22.148064 Si / 1000 Ang^3
#
#
#
# Elastic Constant Matrix: (Units=GPa)
#
#
# Indices 1 2 3 4 5 6 
#
# 1 81.9045 24.5558 28.3624 -0.0033 6.7591 -0.0009
# 2 24.5558 132.6685 48.7510 -0.0066 7.9596 -0.0012
# 3 28.3624 48.7510 72.0751 -0.0136 -2.5087 -0.0007
# 4 -0.0033 -0.0066 -0.0136 43.0427 0.0006 -0.5983
# 5 6.7591 7.9596 -2.5087 0.0006 37.2871 0.0008
# 6 -0.0009 -0.0012 -0.0007 -0.5983 0.0008 18.4879
#
#
#
# Elastic Compliance Matrix: (Units=1/GPa)
#
#
# Indices 1 2 3 4 5 6 
#
# 1 0.014490 -0.000501 -0.005463 -0.000001 -0.002887 0.000001
# 2 -0.000501 0.010307 -0.006864 -0.000001 -0.002571 0.000000
# 3 -0.005463 -0.006864 0.020801 0.000005 0.003855 0.000000
# 4 -0.000001 -0.000001 0.000005 0.023243 0.000000 0.000752
# 5 -0.002887 -0.002571 0.003855 0.000000 0.028150 -0.000001
# 6 0.000001 0.000000 0.000000 0.000752 -0.000001 0.054114
#
#
# Mechanical properties :
#
#
# Convention : Reuss Voigt Hill
#
# Bulk Modulus (GPa) = 50.14767 54.44295 52.29531
# Shear Modulus (GPa) = 27.26153 32.09547 29.67850
#
# Velocity S-wave (km/s) = 3.51219 3.81088 3.66458
# Velocity P-wave (km/s) = 6.25608 6.63313 6.44736
#
# Compressibility (1/GPa) = 0.01994110
#
# Stress axis : x y z
#
# Youngs Moduli (GPa) = 69.01429 97.02368 48.07441
#
# Poissons Ratio (x) = 0.04862 0.26265
# Poissons Ratio (y) = 0.03458 0.32997
# Poissons Ratio (z) = 0.37706 0.66594
#
# Static dielectric constant tensor:
#      x y z
#    x 1.865620 0.000000 -0.006400 
#    y 0.000000 1.865770 0.000000 
#    z -0.006400 0.000000 1.832040 
# 
# From -- ./inp_files/277327.got.cif
#   From: 2010.05.17/outbox.cif.g08.bks.cpg/sg15_139_cif.got.tgz:277327.got - 2010.06.03 18:47:42.
