data_PCOD9287384
_publ_section_title
;
Structure prediction by ZEFSAII (Michael W. Deem and Ramdas Pophale) SiO2 
 PCOD9287384
Probable space group: C 2/C
;
_chemical_formula_sum "Si O2"
_cell_formula_units_Z 36
_cell_length_a 5.269931
_cell_length_b 19.471846
_cell_length_c 16.019436
_cell_angle_alpha 90.000000
_cell_angle_beta 76.595587
_cell_angle_gamma 90.000000
_cell_volume 1599.057569
_symmetry_space_group_name_H-M "C 2/C"
_symmetry_group_IT_number 15
_symmetry_cell_setting 'monoclinic'
loop_
_space_group_symop_operation_xyz
x,y,z
-x,y,1/2-z
-x,-y,-z
x,-y,1/2+z
1/2+x,1/2+y,z
1/2-x,1/2+y,1/2-z
1/2-x,1/2-y,-z
1/2+x,1/2-y,1/2+z
loop_
_atom_site_type_symbol
_atom_site_label
_atom_site_fract_x
_atom_site_fract_y
_atom_site_fract_z
Si Si1 0.878925 0.094277 0.145681
Si Si2 0.213928 0.169147 0.993900
Si Si3 0.500000 0.196209 0.250000
Si Si4 0.432099 0.947008 0.577084
Si Si5 0.199138 0.171486 0.803909
O O1 0.746354 0.147025 0.219045
O O2 0.646412 0.047025 0.131579
O O3 0.142450 0.051449 0.139315
O O4 0.960341 0.143262 0.062152
O O5 0.199451 0.146457 0.898694
O O6 0.250000 0.250000 0.000000
O O7 0.429877 0.126367 0.029053
O O8 0.416388 0.250121 0.184930
O O9 0.500000 0.000000 0.500000
O O10 0.500000 0.172401 0.750000
O O11 0.000000 0.138997 0.750000
#
# Coordination Sequence:
#
# PCOD9287384 Si02
#       5
#     8   8   4   8   8
#     4  10  23  36  68  88 128 162 216 260 324 379
#     4  10  22  38  64  98 125 166 219 259 330 388
#     4  10  22  36  58  98 130 156 208 270 332 366
#     4  10  23  41  64  89 123 167 219 260 319 384
#     4  10  23  34  56  87 140 162 201 265 338 374
#
# _framework density 22.513262000000001
#
# number of rings (size 3 to 8) (size 9 to 14) (size 15 to 20)
#    2.000    0.000    0.000    3.333    6.222    1.778 
#    0.000    0.000    2.444    2.667    0.000    0.000 
#    0.000    0.000    0.000    0.000    0.000    0.000 
#
# Total GULP energy -100206.586984 kJ/mol
# GULP energy per Si atom -5567.032610 kJ/mol
# Density = 2.246202 g / cm^3
# Si number density = 22.513262 Si / 1000 Ang^3
#
#
#
# Elastic Constant Matrix: (Units=GPa)
#
#
# Indices 1 2 3 4 5 6 
#
# 1 162.6754 4.4289 7.8117 0.0000 -5.2961 0.0000
# 2 4.4289 20.2705 -21.7483 0.0000 -9.1259 0.0000
# 3 7.8117 -21.7483 48.8043 0.0000 -3.9864 0.0000
# 4 0.0000 0.0000 0.0000 29.7740 0.0000 -3.2985
# 5 -5.2961 -9.1259 -3.9864 0.0000 32.8992 0.0000
# 6 0.0000 0.0000 0.0000 -3.2985 0.0000 1.2886
#
#
#
# Elastic Compliance Matrix: (Units=1/GPa)
#
#
# Indices 1 2 3 4 5 6 
#
# 1 0.006454 -0.005915 -0.003755 0.000000 -0.001057 0.000000
# 2 -0.005915 0.149722 0.071690 0.000000 0.049266 0.000000
# 3 -0.003755 0.071690 0.055159 0.000000 0.025965 0.000000
# 4 0.000000 0.000000 0.000000 0.046881 0.000000 0.120004
# 5 -0.001057 0.049266 0.025965 0.000000 0.047038 0.000000
# 6 0.000000 0.000000 0.000000 0.120004 0.000000 1.083226
#
#
# Mechanical properties :
#
#
# Convention : Reuss Voigt Hill
#
# Bulk Modulus (GPa) = 2.98173 23.63721 13.30947
# Shear Modulus (GPa) = 3.63311 28.87621 16.25466
#
# Velocity S-wave (km/s) = 1.27172 3.58527 2.68993
# Velocity P-wave (km/s) = 1.86646 5.25936 3.94617
#
# Compressibility (1/GPa) = 0.33537567
#
# Stress axis : x y z
#
# Youngs Moduli (GPa) = 154.93862 6.67904 18.12948
#
# Poissons Ratio (x) = 0.03951 0.06808
# Poissons Ratio (y) = 0.91645 -1.29971
# Poissons Ratio (z) = 0.58183 -0.47882
#
# Static dielectric constant tensor:
#      x y z
#    x 1.903710 0.000000 0.035680 
#    y 0.000000 1.807740 0.000000 
#    z 0.035680 0.000000 1.887680 
# 
# From -- ./inp_files/184502.got.cif
#   From: 2010.05.17/outbox.cif.g08.bks.cpg/sg15_93_cif.got.tgz:184502.got - 2010.06.03 18:47:42.
