data_PCOD9287468
_publ_section_title
;
Structure prediction by ZEFSAII (Michael W. Deem and Ramdas Pophale) SiO2 
 PCOD9287468
Probable space group: C 2/C
;
_chemical_formula_sum "Si O2"
_cell_formula_units_Z 60
_cell_length_a 12.772157
_cell_length_b 20.423766
_cell_length_c 18.341461
_cell_angle_alpha 90.000000
_cell_angle_beta 145.132314
_cell_angle_gamma 90.000000
_cell_volume 2735.202298
_symmetry_space_group_name_H-M "C 2/C"
_symmetry_group_IT_number 15
_symmetry_cell_setting 'monoclinic'
loop_
_space_group_symop_operation_xyz
x,y,z
-x,y,1/2-z
-x,-y,-z
x,-y,1/2+z
1/2+x,1/2+y,z
1/2-x,1/2+y,1/2-z
1/2-x,1/2-y,-z
1/2+x,1/2-y,1/2+z
loop_
_atom_site_type_symbol
_atom_site_label
_atom_site_fract_x
_atom_site_fract_y
_atom_site_fract_z
Si Si1 0.805895 0.193768 0.623934
Si Si2 0.134174 0.767584 0.763486
Si Si3 0.469349 0.996611 0.379109
Si Si4 0.000000 0.577663 0.250000
Si Si5 0.706658 0.446059 0.337063
Si Si6 0.342213 0.333295 0.979403
Si Si7 0.430762 0.690418 0.012155
Si Si8 0.069796 0.630942 0.866101
O O1 0.776522 0.133154 0.661108
O O2 0.671498 0.254726 0.543145
O O3 0.835747 0.160873 0.562215
O O4 0.000000 0.226815 0.750000
O O5 0.323999 0.753447 0.915001
O O6 0.000000 0.795460 0.750000
O O7 0.102651 0.800999 0.666454
O O8 0.054145 0.695506 0.698436
O O9 0.464752 0.033931 0.300598
O O10 0.624827 0.034339 0.513869
O O11 0.269643 0.986858 0.301982
O O12 0.544788 0.922923 0.412453
O O13 0.173072 0.624619 0.357169
O O14 0.500000 0.459048 0.250000
O O15 0.512236 0.351880 0.025776
O O16 0.274947 0.655901 0.971182
O O17 0.000000 0.600640 0.750000
#
# Coordination Sequence:
#
# PCOD9287468 Si02
#       8
#     8   8   8   4   8   8   8   8
#     4  10  22  41  64  91 128 168 218 280 328 395
#     4   9  19  38  57  90 133 166 217 275 329 397
#     4  11  23  44  67  94 133 178 216 278 332 405
#     4  12  24  46  62  98 140 174 214 286 340 394
#     4  10  24  44  68  96 126 172 229 271 331 404
#     4  11  24  39  64  98 131 170 223 275 338 400
#     4  10  22  36  63  94 129 174 222 277 334 404
#     4   9  19  37  60  89 125 168 219 261 327 391
#
# _framework density 21.936219999999999
#
# number of rings (size 3 to 8) (size 9 to 14) (size 15 to 20)
#    0.000    2.133    2.667    1.600    3.733    4.267 
#    0.000    4.667    0.000    0.000    0.000    0.000 
#    0.000    0.000    0.000    0.000    0.000    0.000 
#
# Total GULP energy -167042.267879 kJ/mol
# GULP energy per Si atom -5568.075596 kJ/mol
# Density = 2.188629 g / cm^3
# Si number density = 21.936220 Si / 1000 Ang^3
#
#
#
# Elastic Constant Matrix: (Units=GPa)
#
#
# Indices 1 2 3 4 5 6 
#
# 1 116.5760 26.2826 29.9708 -0.0001 10.4348 -0.0003
# 2 26.2826 58.6367 1.2561 -0.0001 1.5005 -0.0002
# 3 29.9708 1.2561 57.0984 -0.0017 -3.2818 -0.0016
# 4 -0.0001 -0.0001 -0.0017 7.4779 -0.0004 4.7307
# 5 10.4348 1.5005 -3.2818 -0.0004 29.6715 -0.0002
# 6 -0.0003 -0.0002 -0.0016 4.7307 -0.0002 -9.6958
#
#
#
# Elastic Compliance Matrix: (Units=1/GPa)
#
#
# Indices 1 2 3 4 5 6 
#
# 1 0.011741 -0.005010 -0.006315 -0.000002 -0.004574 0.000000
# 2 -0.005010 0.019225 0.002267 0.000001 0.001040 0.000000
# 3 -0.006315 0.002267 0.021033 0.000005 0.004433 -0.000001
# 4 -0.000002 0.000001 0.000005 0.102186 0.000003 0.049858
# 5 -0.004574 0.001040 0.004433 0.000003 0.035749 0.000000
# 6 0.000000 0.000000 -0.000001 0.049858 0.000000 -0.078811
#
#
# Mechanical properties :
#
#
# Convention : Reuss Voigt Hill
#
# Bulk Modulus (GPa) = 29.51490 38.59224 34.05357
# Shear Modulus (GPa) = 35.57853 17.14414 26.36134
#
# Velocity S-wave (km/s) = 4.03166 2.79865 3.47035
# Velocity P-wave (km/s) = 5.92929 5.29852 5.62276
#
# Compressibility (1/GPa) = 0.03388119
#
# Stress axis : x y z
#
# Youngs Moduli (GPa) = 85.17359 52.01645 47.54332
#
# Poissons Ratio (x) = 0.26061 0.30025
# Poissons Ratio (y) = 0.42674 -0.10777
# Poissons Ratio (z) = 0.53790 -0.11791
#
# Static dielectric constant tensor:
#      x y z
#    x 1.905780 0.000000 -0.046390 
#    y 0.000000 1.781470 0.000000 
#    z -0.046390 0.000000 1.856980 
# 
# From -- ./inp_files/200530.got.cif
#   From: 2010.05.17/outbox.cif.g08.bks.cpg/sg15_101_cif.got.tgz:200530.got - 2010.06.03 18:47:42.
