data_PCOD9287708
_publ_section_title
;
Structure prediction by ZEFSAII (Michael W. Deem and Ramdas Pophale) SiO2 
 PCOD9287708
Probable space group: C 2/C
;
_chemical_formula_sum "Si O2"
_cell_formula_units_Z 44
_cell_length_a 24.547105
_cell_length_b 7.479914
_cell_length_c 16.001035
_cell_angle_alpha 90.000000
_cell_angle_beta 129.854250
_cell_angle_gamma 90.000000
_cell_volume 2255.399834
_symmetry_space_group_name_H-M "C 2/C"
_symmetry_group_IT_number 15
_symmetry_cell_setting 'monoclinic'
loop_
_space_group_symop_operation_xyz
x,y,z
-x,y,1/2-z
-x,-y,-z
x,-y,1/2+z
1/2+x,1/2+y,z
1/2-x,1/2+y,1/2-z
1/2-x,1/2-y,-z
1/2+x,1/2-y,1/2+z
loop_
_atom_site_type_symbol
_atom_site_label
_atom_site_fract_x
_atom_site_fract_y
_atom_site_fract_z
Si Si1 0.673985 0.704539 0.194691
Si Si2 0.459907 0.254175 0.023466
Si Si3 0.166098 0.620739 0.199066
Si Si4 0.000000 0.889427 0.750000
Si Si5 0.595600 0.419127 0.228285
Si Si6 0.458315 0.863324 0.056532
O O1 0.754376 0.674528 0.246392
O O2 0.646063 0.567742 0.236887
O O3 0.666298 0.909703 0.214834
O O4 0.619457 0.675660 0.063779
O O5 0.519584 0.394366 0.106931
O O6 0.463319 0.074595 0.082218
O O7 0.481703 0.184503 0.952704
O O8 0.135231 0.733608 0.246564
O O9 0.114373 0.659474 0.068511
O O10 0.972419 0.761318 0.648847
O O11 0.933457 0.013429 0.711925
#
# Coordination Sequence:
#
# PCOD9287708 Si02
#       6
#     8   8   8   4   8   8
#     4  11  19  37  65  93 115 153 208 255 288 345
#     4   9  19  38  64  86 114 156 215 243 281 354
#     4  10  22  37  64  89 118 157 206 249 294 352
#     4  12  24  36  60  92 128 156 196 250 310 352
#     4  11  23  37  60  93 118 159 200 244 302 355
#     4   9  20  38  60  89 117 157 201 251 293 351
#
# _framework density 19.508738000000001
#
# number of rings (size 3 to 8) (size 9 to 14) (size 15 to 20)
#    0.000    1.818    3.636    1.636    2.545    0.727 
#    0.000    0.909    0.000    2.182    0.000    0.000 
#    0.000    0.000    0.000    0.000    0.000    0.000 
#
# Total GULP energy -122672.059898 kJ/mol
# GULP energy per Si atom -5576.002723 kJ/mol
# Density = 1.946433 g / cm^3
# Si number density = 19.508738 Si / 1000 Ang^3
#
#
#
# Elastic Constant Matrix: (Units=GPa)
#
#
# Indices 1 2 3 4 5 6 
#
# 1 120.3588 45.6318 35.9532 0.0000 30.0974 0.0000
# 2 45.6318 99.9292 16.5580 -0.0001 1.7925 0.0000
# 3 35.9532 16.5580 41.1114 0.0000 19.5994 0.0000
# 4 0.0000 -0.0001 0.0000 53.5568 0.0000 -33.3058
# 5 30.0974 1.7925 19.5994 0.0000 39.4271 0.0000
# 6 0.0000 0.0000 0.0000 -33.3058 0.0000 82.4131
#
#
#
# Elastic Compliance Matrix: (Units=1/GPa)
#
#
# Indices 1 2 3 4 5 6 
#
# 1 0.014097 -0.005175 -0.006849 0.000000 -0.007121 0.000000
# 2 -0.005175 0.012766 -0.002913 0.000000 0.004818 0.000000
# 3 -0.006849 -0.002913 0.037918 0.000000 -0.013488 0.000000
# 4 0.000000 0.000000 0.000000 0.024940 0.000000 0.010079
# 5 -0.007121 0.004818 -0.013488 0.000000 0.037285 0.000000
# 6 0.000000 0.000000 0.000000 0.010079 0.000000 0.016207
#
#
# Mechanical properties :
#
#
# Convention : Reuss Voigt Hill
#
# Bulk Modulus (GPa) = 28.64772 50.85394 39.75083
# Shear Modulus (GPa) = 27.06748 45.96316 36.51532
#
# Velocity S-wave (km/s) = 3.72890 4.85916 4.33106
# Velocity P-wave (km/s) = 5.76680 7.58985 6.74024
#
# Compressibility (1/GPa) = 0.03490679
#
# Stress axis : x y z
#
# Youngs Moduli (GPa) = 70.93644 78.33091 26.37285
#
# Poissons Ratio (x) = 0.40534 0.18063
# Poissons Ratio (y) = 0.36707 0.07683
# Poissons Ratio (z) = 0.48586 0.22820
#
# Static dielectric constant tensor:
#      x y z
#    x 1.679150 0.000000 0.002790 
#    y 0.000000 1.755240 0.000000 
#    z 0.002790 0.000000 1.702700 
# 
# From -- ./inp_files/166476.got.cif
#   From: 2010.05.17/outbox.cif.g08.bks.cpg/sg15_84_cif.got.tgz:166476.got - 2010.06.03 18:47:42.
