data_PCOD9287453
_publ_section_title
;
Structure prediction by ZEFSAII (Michael W. Deem and Ramdas Pophale) SiO2 
 PCOD9287453
Probable space group: C 2/C
;
_chemical_formula_sum "Si O2"
_cell_formula_units_Z 40
_cell_length_a 16.494516
_cell_length_b 11.051856
_cell_length_c 11.572397
_cell_angle_alpha 90.000000
_cell_angle_beta 118.720241
_cell_angle_gamma 90.000000
_cell_volume 1850.061025
_symmetry_space_group_name_H-M "C 2/C"
_symmetry_group_IT_number 15
_symmetry_cell_setting 'monoclinic'
loop_
_space_group_symop_operation_xyz
x,y,z
-x,y,1/2-z
-x,-y,-z
x,-y,1/2+z
1/2+x,1/2+y,z
1/2-x,1/2+y,1/2-z
1/2-x,1/2-y,-z
1/2+x,1/2-y,1/2+z
loop_
_atom_site_type_symbol
_atom_site_label
_atom_site_fract_x
_atom_site_fract_y
_atom_site_fract_z
Si Si1 0.910978 0.894107 0.042434
Si Si2 0.313322 0.756701 0.882545
Si Si3 0.225786 0.551268 0.952736
Si Si4 0.661384 0.196764 0.369229
Si Si5 0.000437 0.140110 0.382804
O O1 0.916285 0.779666 0.127869
O O2 0.990316 0.993697 0.113644
O O3 0.915518 0.845321 0.913534
O O4 0.821164 0.975291 0.009976
O O5 0.237114 0.655257 0.863994
O O6 0.322782 0.779623 0.754330
O O7 0.287683 0.876781 0.937352
O O8 0.410733 0.703329 0.997167
O O9 0.151374 0.446204 0.883146
O O10 0.750000 0.250000 0.500000
O O11 0.000000 0.182054 0.250000
#
# Coordination Sequence:
#
# PCOD9287453 Si02
#       5
#     8   8   8   8   8
#     4   9  21  36  62  93 118 163 209 254 307 371
#     4  10  22  39  62  92 124 162 209 255 319 371
#     4   9  21  39  60  92 123 160 204 264 307 369
#     4  10  22  36  62  90 125 158 205 258 313 371
#     4  10  22  39  63  88 126 163 209 260 310 369
#
# _framework density 21.620908
#
# number of rings (size 3 to 8) (size 9 to 14) (size 15 to 20)
#    0.000    2.400    0.000    0.000   14.000    8.000 
#    0.000    1.000    0.000    0.000    0.000    0.000 
#    0.000    0.000    0.000    0.000    0.000    0.000 
#
# Total GULP energy -111513.456174 kJ/mol
# GULP energy per Si atom -5575.672809 kJ/mol
# Density = 2.157170 g / cm^3
# Si number density = 21.620908 Si / 1000 Ang^3
#
#
#
# Elastic Constant Matrix: (Units=GPa)
#
#
# Indices 1 2 3 4 5 6 
#
# 1 73.2392 60.4130 47.7491 0.0000 -38.4958 0.0000
# 2 60.4130 151.4674 75.8879 0.0000 -40.2258 0.0000
# 3 47.7491 75.8879 155.9122 0.0000 -49.4785 0.0000
# 4 0.0000 0.0000 0.0000 65.3094 0.0000 -70.5122
# 5 -38.4958 -40.2258 -49.4785 0.0000 50.7084 0.0000
# 6 0.0000 0.0000 0.0000 -70.5122 0.0000 106.8750
#
#
#
# Elastic Compliance Matrix: (Units=1/GPa)
#
#
# Indices 1 2 3 4 5 6 
#
# 1 0.027368 -0.006749 -0.000293 0.000000 0.015137 0.000000
# 2 -0.006749 0.011003 -0.003106 0.000000 0.000573 0.000000
# 3 -0.000293 -0.003106 0.010376 0.000000 0.007438 0.000000
# 4 0.000000 0.000000 0.000000 0.053225 0.000000 0.035116
# 5 0.015137 0.000573 0.007438 0.000000 0.038924 0.000000
# 6 0.000000 0.000000 0.000000 0.035116 0.000000 0.032525
#
#
# Mechanical properties :
#
#
# Convention : Reuss Voigt Hill
#
# Bulk Modulus (GPa) = 35.14934 83.19099 59.17016
# Shear Modulus (GPa) = 24.60605 57.68313 41.14459
#
# Velocity S-wave (km/s) = 3.37719 5.17081 4.36707
# Velocity P-wave (km/s) = 5.61245 8.61454 7.27014
#
# Compressibility (1/GPa) = 0.02845004
#
# Stress axis : x y z
#
# Youngs Moduli (GPa) = 36.53836 90.88729 96.37713
#
# Poissons Ratio (x) = 0.61341 0.02823
# Poissons Ratio (y) = 0.24660 0.29939
# Poissons Ratio (z) = 0.01070 0.28234
#
# Static dielectric constant tensor:
#      x y z
#    x 2.035970 0.000000 0.061970 
#    y 0.000000 1.817340 0.000000 
#    z 0.061970 0.000000 1.828330 
# 
# From -- ./inp_files/103357.got.cif
#   From: 2010.05.17/outbox.cif.g08.bks.cpg/sg15_52_cif.got.tgz:103357.got - 2010.06.03 18:47:42.
