data_PCOD9287892
_publ_section_title
;
Structure prediction by ZEFSAII (Michael W. Deem and Ramdas Pophale) SiO2 
 PCOD9287892
Probable space group: C 2/C
;
_chemical_formula_sum "Si O2"
_cell_formula_units_Z 36
_cell_length_a 9.689226
_cell_length_b 15.968989
_cell_length_c 9.526614
_cell_angle_alpha 90.000000
_cell_angle_beta 114.001456
_cell_angle_gamma 90.000000
_cell_volume 1346.574311
_symmetry_space_group_name_H-M "C 2/C"
_symmetry_group_IT_number 15
_symmetry_cell_setting 'monoclinic'
loop_
_space_group_symop_operation_xyz
x,y,z
-x,y,1/2-z
-x,-y,-z
x,-y,1/2+z
1/2+x,1/2+y,z
1/2-x,1/2+y,1/2-z
1/2-x,1/2-y,-z
1/2+x,1/2-y,1/2+z
loop_
_atom_site_type_symbol
_atom_site_label
_atom_site_fract_x
_atom_site_fract_y
_atom_site_fract_z
Si Si1 0.708288 0.696687 0.771146
Si Si2 0.742599 0.090393 0.457074
Si Si3 0.596214 0.867663 0.619366
Si Si4 0.683240 0.591397 0.511643
Si Si5 0.000000 0.779532 0.750000
O O1 0.600668 0.770955 0.670455
O O2 0.678463 0.612271 0.672562
O O3 0.872977 0.728154 0.783977
O O4 0.697552 0.668750 0.928395
O O5 0.565519 0.089902 0.429308
O O6 0.721589 0.097009 0.280719
O O7 0.832668 0.006192 0.524457
O O8 0.655499 0.882517 0.488768
O O9 0.576219 0.657746 0.392372
#
# Coordination Sequence:
#
# PCOD9287892 Si02
#       5
#     8   8   8   8   4
#     4  11  21  40  64  89 119 160 200 243 294 359
#     4  11  22  38  60  92 122 153 198 253 298 344
#     4  10  22  38  59  89 123 158 197 242 299 357
#     4  11  22  39  62  90 120 158 200 247 296 352
#     4  10  22  40  62  88 120 160 202 240 294 362
#
# _framework density 26.734504999999999
#
# number of rings (size 3 to 8) (size 9 to 14) (size 15 to 20)
#    0.000    1.333    0.000    8.000    0.000    3.556 
#    0.000   14.444    0.000    0.000    0.000    0.000 
#    0.000    0.000    0.000    0.000    0.000    0.000 
#
# Total GULP energy -100774.907916 kJ/mol
# GULP energy per Si atom -5598.605995 kJ/mol
# Density = 2.667366 g / cm^3
# Si number density = 26.734505 Si / 1000 Ang^3
#
#
#
# Elastic Constant Matrix: (Units=GPa)
#
#
# Indices 1 2 3 4 5 6 
#
# 1 102.3691 16.6498 -3.0160 0.0000 4.0398 0.0000
# 2 16.6498 172.8541 27.1179 0.0000 8.5402 0.0000
# 3 -3.0160 27.1179 60.4590 0.0000 -3.5666 0.0000
# 4 0.0000 0.0000 0.0000 40.6939 0.0000 -5.7833
# 5 4.0398 8.5402 -3.5666 0.0000 19.9826 0.0000
# 6 0.0000 0.0000 0.0000 -5.7833 0.0000 24.2864
#
#
#
# Elastic Compliance Matrix: (Units=1/GPa)
#
#
# Indices 1 2 3 4 5 6 
#
# 1 0.010019 -0.001032 0.000879 0.000000 -0.001427 0.000000
# 2 -0.001032 0.006538 -0.003170 0.000000 -0.003151 0.000000
# 3 0.000879 -0.003170 0.018267 0.000000 0.004438 0.000000
# 4 0.000000 0.000000 0.000000 0.025434 0.000000 0.006057
# 5 -0.001427 -0.003151 0.004438 0.000000 0.052471 0.000000
# 6 0.000000 0.000000 0.000000 0.006057 0.000000 0.042618
#
#
# Mechanical properties :
#
#
# Convention : Reuss Voigt Hill
#
# Bulk Modulus (GPa) = 35.49009 46.35396 40.92202
# Shear Modulus (GPa) = 29.17390 36.65460 32.91425
#
# Velocity S-wave (km/s) = 3.30698 3.70680 3.51258
# Velocity P-wave (km/s) = 5.28066 5.97468 5.63836
#
# Compressibility (1/GPa) = 0.02817688
#
# Stress axis : x y z
#
# Youngs Moduli (GPa) = 99.81339 152.96055 54.74206
#
# Poissons Ratio (x) = 0.15791 -0.04810
# Poissons Ratio (y) = 0.10304 0.17352
# Poissons Ratio (z) = -0.08770 0.48485
#
# Static dielectric constant tensor:
#      x y z
#    x 2.097770 0.000000 0.028380 
#    y 0.000000 2.053860 0.000000 
#    z 0.028380 0.000000 2.075860 
# 
# From -- ./inp_files/29426.got.cif
#   From: 2010.05.17/outbox.cif.g08.bks.cpg/sg15_15_cif.got.tgz:29426.got - 2010.06.03 18:47:42.
