data_PCOD9287050
_publ_section_title
;
Structure prediction by ZEFSAII (Michael W. Deem and Ramdas Pophale) SiO2 
 PCOD9287050
Probable space group: C 2/C
;
_chemical_formula_sum "Si O2"
_cell_formula_units_Z 36
_cell_length_a 14.205262
_cell_length_b 7.515495
_cell_length_c 18.437168
_cell_angle_alpha 90.000000
_cell_angle_beta 128.990936
_cell_angle_gamma 90.000000
_cell_volume 1529.886711
_symmetry_space_group_name_H-M "C 2/C"
_symmetry_group_IT_number 15
_symmetry_cell_setting 'monoclinic'
loop_
_space_group_symop_operation_xyz
x,y,z
-x,y,1/2-z
-x,-y,-z
x,-y,1/2+z
1/2+x,1/2+y,z
1/2-x,1/2+y,1/2-z
1/2-x,1/2-y,-z
1/2+x,1/2-y,1/2+z
loop_
_atom_site_type_symbol
_atom_site_label
_atom_site_fract_x
_atom_site_fract_y
_atom_site_fract_z
Si Si1 0.410427 0.443317 0.019944
Si Si2 0.082697 0.176789 0.727654
Si Si3 0.829963 0.379733 0.403392
Si Si4 0.083997 0.667451 0.941029
Si Si5 0.500000 0.976889 0.250000
O O1 0.501094 0.342864 0.118121
O O2 0.366358 0.631490 0.028872
O O3 0.500000 0.500000 0.000000
O O4 0.315874 0.300647 0.944343
O O5 0.214528 0.094115 0.796074
O O6 0.088639 0.384363 0.751592
O O7 0.000000 0.089452 0.750000
O O8 0.845702 0.534320 0.470597
O O9 0.948534 0.349722 0.411402
O O10 0.067435 0.622502 0.848032
#
# Coordination Sequence:
#
# PCOD9287050 Si02
#       5
#     8   8   8   8   4
#     4  10  22  43  64  96 131 169 220 268 327 390
#     4  10  23  42  68  91 137 175 215 269 340 377
#     4  10  21  46  65  93 134 176 216 278 319 400
#     4  10  22  40  69  95 130 169 229 263 335 389
#     4  10  22  40  68  96 134 172 218 272 334 388
#
# _framework density 23.531153
#
# number of rings (size 3 to 8) (size 9 to 14) (size 15 to 20)
#    0.667    1.333    2.222    0.000    1.556    7.111 
#    4.000    2.222    0.000    0.000    0.000    0.000 
#    0.000    0.000    0.000    0.000    0.000    0.000 
#
# Total GULP energy -100486.150498 kJ/mol
# GULP energy per Si atom -5582.563917 kJ/mol
# Density = 2.347759 g / cm^3
# Si number density = 23.531153 Si / 1000 Ang^3
#
#
#
# Elastic Constant Matrix: (Units=GPa)
#
#
# Indices 1 2 3 4 5 6 
#
# 1 43.0532 -1.9890 -5.4579 0.0000 -5.9926 0.0000
# 2 -1.9890 111.1129 24.4622 0.0000 -4.2253 0.0000
# 3 -5.4579 24.4622 107.1686 0.0000 -10.7613 0.0000
# 4 0.0000 0.0000 0.0000 14.7106 0.0000 -10.5948
# 5 -5.9926 -4.2253 -10.7613 0.0000 45.0374 0.0000
# 6 0.0000 0.0000 0.0000 -10.5948 0.0000 17.1996
#
#
#
# Elastic Compliance Matrix: (Units=1/GPa)
#
#
# Indices 1 2 3 4 5 6 
#
# 1 0.023928 0.000228 0.001525 0.000000 0.003570 0.000000
# 2 0.000228 0.009485 -0.002112 0.000000 0.000416 0.000000
# 3 0.001525 -0.002112 0.010134 0.000000 0.002426 0.000000
# 4 0.000000 0.000000 0.000000 0.122184 0.000000 0.075264
# 5 0.003570 0.000416 0.002426 0.000000 0.023298 0.000000
# 6 0.000000 0.000000 0.000000 0.075264 0.000000 0.104503
#
#
# Mechanical properties :
#
#
# Convention : Reuss Voigt Hill
#
# Bulk Modulus (GPa) = 23.34803 32.81836 28.08319
# Shear Modulus (GPa) = 16.20616 31.67749 23.94182
#
# Velocity S-wave (km/s) = 2.62718 3.67303 3.19321
# Velocity P-wave (km/s) = 4.37567 5.65378 5.05528
#
# Compressibility (1/GPa) = 0.04283017
#
# Stress axis : x y z
#
# Youngs Moduli (GPa) = 41.79241 105.43379 98.67406
#
# Poissons Ratio (x) = -0.02408 -0.15047
# Poissons Ratio (y) = -0.00954 0.20836
# Poissons Ratio (z) = -0.06373 0.22263
#
# Static dielectric constant tensor:
#      x y z
#    x 1.932740 0.000000 -0.014030 
#    y 0.000000 1.944180 0.000000 
#    z -0.014030 0.000000 1.790660 
# 
# From -- ./inp_files/209381.got.cif
#   From: 2010.05.17/outbox.cif.g08.bks.cpg/sg15_105_cif.got.tgz:209381.got - 2010.06.03 18:47:42.
