data_PCOD9287920
_publ_section_title
;
Structure prediction by ZEFSAII (Michael W. Deem and Ramdas Pophale) SiO2 
 PCOD9287920
Probable space group: C 2/C
;
_chemical_formula_sum "Si O2"
_cell_formula_units_Z 48
_cell_length_a 17.742182
_cell_length_b 29.915977
_cell_length_c 10.395804
_cell_angle_alpha 90.000000
_cell_angle_beta 150.327287
_cell_angle_gamma 90.000000
_cell_volume 2731.573677
_symmetry_space_group_name_H-M "C 2/C"
_symmetry_group_IT_number 15
_symmetry_cell_setting 'monoclinic'
loop_
_space_group_symop_operation_xyz
x,y,z
-x,y,1/2-z
-x,-y,-z
x,-y,1/2+z
1/2+x,1/2+y,z
1/2-x,1/2+y,1/2-z
1/2-x,1/2-y,-z
1/2+x,1/2-y,1/2+z
loop_
_atom_site_type_symbol
_atom_site_label
_atom_site_fract_x
_atom_site_fract_y
_atom_site_fract_z
Si Si1 0.450154 0.215578 0.880888
Si Si2 0.336252 0.382396 0.942192
Si Si3 0.901519 0.983032 0.973787
Si Si4 0.580000 0.029486 0.509694
Si Si5 0.252405 0.792592 0.831372
Si Si6 0.473810 0.125526 0.362435
O O1 0.335556 0.206061 0.592685
O O2 0.384114 0.257388 0.860696
O O3 0.617039 0.225151 0.071160
O O4 0.465623 0.170092 0.982094
O O5 0.297570 0.341510 0.789749
O O6 0.199854 0.382739 0.845961
O O7 0.500000 0.374239 0.250000
O O8 0.349362 0.430870 0.893523
O O9 0.000000 0.987509 0.250000
O O10 0.751683 0.013109 0.754807
O O11 0.000000 0.000000 0.000000
O O12 0.500000 0.025499 0.250000
O O13 0.564717 0.080646 0.531412
O O14 0.500000 0.000000 0.500000
O O15 0.500000 0.130878 0.250000
#
# Coordination Sequence:
#
# PCOD9287920 Si02
#       6
#     8   8   8   8   8   8
#     4   9  19  37  58  84 114 146 192 239 289 344
#     4  10  22  39  59  83 118 155 189 239 296 346
#     4  11  24  41  60  87 123 157 197 247 297 351
#     4  11  22  39  62  87 117 157 200 243 291 349
#     4   9  19  37  59  83 113 149 189 240 289 346
#     4  10  22  38  60  85 115 152 196 240 286 350
#
# _framework density 17.572289000000001
#
# number of rings (size 3 to 8) (size 9 to 14) (size 15 to 20)
#    0.000    2.000    1.667    1.000    7.000    4.667 
#    0.000    3.333    0.000    0.000    0.000    0.000 
#    0.000    0.000    0.000    0.000    0.000    0.000 
#
# Total GULP energy -133868.758405 kJ/mol
# GULP energy per Si atom -5577.864934 kJ/mol
# Density = 1.753229 g / cm^3
# Si number density = 17.572289 Si / 1000 Ang^3
#
#
#
# Elastic Constant Matrix: (Units=GPa)
#
#
# Indices 1 2 3 4 5 6 
#
# 1 136.9947 89.2546 45.1327 0.0000 23.8617 0.0000
# 2 89.2546 134.3698 62.6822 0.0000 20.2594 0.0000
# 3 45.1327 62.6822 87.7189 0.0000 29.8605 0.0000
# 4 0.0000 0.0000 0.0000 27.9632 0.0000 6.7155
# 5 23.8617 20.2594 29.8605 0.0000 25.7998 0.0000
# 6 0.0000 0.0000 0.0000 6.7155 0.0000 32.3543
#
#
#
# Elastic Compliance Matrix: (Units=1/GPa)
#
#
# Indices 1 2 3 4 5 6 
#
# 1 0.013870 -0.008924 0.002017 0.000000 -0.008154 0.000000
# 2 -0.008924 0.016915 -0.009544 0.000000 0.006017 0.000000
# 3 0.002017 -0.009544 0.025191 0.000000 -0.023527 0.000000
# 4 0.000000 0.000000 0.000000 0.037637 0.000000 -0.007812
# 5 -0.008154 0.006017 -0.023527 0.000000 0.068806 0.000000
# 6 0.000000 0.000000 0.000000 -0.007812 0.000000 0.032529
#
#
# Mechanical properties :
#
#
# Convention : Reuss Voigt Hill
#
# Bulk Modulus (GPa) = 43.34064 83.69136 63.51600
# Shear Modulus (GPa) = 21.22762 28.02440 24.62601
#
# Velocity S-wave (km/s) = 3.47942 3.99784 3.74760
# Velocity P-wave (km/s) = 6.39215 8.30906 7.41283
#
# Compressibility (1/GPa) = 0.02307303
#
# Stress axis : x y z
#
# Youngs Moduli (GPa) = 72.09913 59.11958 39.69672
#
# Poissons Ratio (x) = 0.52760 -0.08006
# Poissons Ratio (y) = 0.64343 0.37885
# Poissons Ratio (z) = -0.14540 0.56422
#
# Static dielectric constant tensor:
#      x y z
#    x 1.612070 0.000000 0.011030 
#    y 0.000000 1.583180 0.000000 
#    z 0.011030 0.000000 1.586560 
# 
# From -- ./inp_files/108295.got.cif
#   From: 2010.05.17/outbox.cif.g08.bks.cpg/sg15_55_cif.got.tgz:108295.got - 2010.06.03 18:47:42.
