data_PCOD9287716
_publ_section_title
;
Structure prediction by ZEFSAII (Michael W. Deem and Ramdas Pophale) SiO2 
 PCOD9287716
Probable space group: C 2/C
;
_chemical_formula_sum "Si O2"
_cell_formula_units_Z 48
_cell_length_a 23.461134
_cell_length_b 21.132760
_cell_length_c 5.050242
_cell_angle_alpha 90.000000
_cell_angle_beta 54.608825
_cell_angle_gamma 90.000000
_cell_volume 2041.223893
_symmetry_space_group_name_H-M "C 2/C"
_symmetry_group_IT_number 15
_symmetry_cell_setting 'monoclinic'
loop_
_space_group_symop_operation_xyz
x,y,z
-x,y,1/2-z
-x,-y,-z
x,-y,1/2+z
1/2+x,1/2+y,z
1/2-x,1/2+y,1/2-z
1/2-x,1/2-y,-z
1/2+x,1/2-y,1/2+z
loop_
_atom_site_type_symbol
_atom_site_label
_atom_site_fract_x
_atom_site_fract_y
_atom_site_fract_z
Si Si1 0.549838 0.295856 0.860677
Si Si2 0.676368 0.657068 0.241642
Si Si3 0.385074 0.963133 0.483159
Si Si4 0.783661 0.035712 0.038488
Si Si5 0.079131 0.660081 0.944272
Si Si6 0.696773 0.783651 0.431944
O O1 0.500000 0.305757 0.750000
O O2 0.611756 0.346858 0.716654
O O3 0.500000 0.298837 0.250000
O O4 0.583783 0.225222 0.760401
O O5 0.689370 0.599113 0.398908
O O6 0.657248 0.719280 0.459917
O O7 0.746926 0.680170 0.906817
O O8 0.300567 0.962059 0.727180
O O9 0.409004 0.982031 0.712073
O O10 0.404493 0.898093 0.290493
O O11 0.804524 0.979057 0.182641
O O12 0.000000 0.655085 0.250000
O O13 0.132143 0.667183 0.053355
O O14 0.750000 0.750000 0.500000
#
# Coordination Sequence:
#
# PCOD9287716 Si02
#       6
#     8   8   8   8   8   8
#     4  10  24  41  63  94 126 161 201 256 326 383
#     4  10  22  39  63  92 124 165 208 265 317 379
#     4  10  22  39  58  83 120 166 214 254 296 354
#     4  10  22  38  61  91 121 161 209 260 305 364
#     4  10  22  40  59  92 128 167 207 260 310 372
#     4  10  22  37  64  95 124 164 215 264 317 371
#
# _framework density 23.515304
#
# number of rings (size 3 to 8) (size 9 to 14) (size 15 to 20)
#    0.000    2.000    1.667    0.000    9.333    4.667 
#    0.000    0.000    0.000    3.000    0.000    0.000 
#    0.000    0.000    0.000    0.000    0.000    0.000 
#
# Total GULP energy -133901.730764 kJ/mol
# GULP energy per Si atom -5579.238782 kJ/mol
# Density = 2.346178 g / cm^3
# Si number density = 23.515304 Si / 1000 Ang^3
#
#
#
# Elastic Constant Matrix: (Units=GPa)
#
#
# Indices 1 2 3 4 5 6 
#
# 1 103.3236 -3.9693 20.9288 0.0000 -7.1846 0.0000
# 2 -3.9693 46.2657 5.0894 0.0000 -21.0867 0.0000
# 3 20.9288 5.0894 51.5684 0.0000 4.6810 0.0000
# 4 0.0000 0.0000 0.0000 21.3293 0.0000 0.4838
# 5 -7.1846 -21.0867 4.6810 0.0000 21.9296 0.0000
# 6 0.0000 0.0000 0.0000 0.4838 0.0000 23.0325
#
#
#
# Elastic Compliance Matrix: (Units=1/GPa)
#
#
# Indices 1 2 3 4 5 6 
#
# 1 0.012268 0.007683 -0.006907 0.000000 0.012882 0.000000
# 2 0.007683 0.046184 -0.012172 0.000000 0.049525 0.000000
# 3 -0.006907 -0.012172 0.025151 0.000000 -0.019335 0.000000
# 4 0.000000 0.000000 0.000000 0.046906 0.000000 -0.000985
# 5 0.012882 0.049525 -0.019335 0.000000 0.101569 0.000000
# 6 0.000000 0.000000 0.000000 -0.000985 0.000000 0.043438
#
#
# Mechanical properties :
#
#
# Convention : Reuss Voigt Hill
#
# Bulk Modulus (GPa) = 16.44366 27.25062 21.84714
# Shear Modulus (GPa) = 15.69477 25.19888 20.44682
#
# Velocity S-wave (km/s) = 2.58627 3.27707 2.95195
# Velocity P-wave (km/s) = 3.99078 5.09240 4.57487
#
# Compressibility (1/GPa) = 0.06081370
#
# Stress axis : x y z
#
# Youngs Moduli (GPa) = 81.51162 21.65234 39.75966
#
# Poissons Ratio (x) = -0.16636 0.27460
# Poissons Ratio (y) = -0.62628 0.48395
# Poissons Ratio (z) = 0.56297 0.26355
#
# Static dielectric constant tensor:
#      x y z
#    x 2.024310 0.000000 0.045970 
#    y 0.000000 1.933270 0.000000 
#    z 0.045970 0.000000 2.046410 
# 
# From -- ./inp_files/10773.got.cif
#   From: 2010.05.17/outbox.cif.g08.bks.cpg/sg15_6_cif.got.tgz:10773.got - 2010.06.03 18:47:42.
