data_PCOD9287500
_publ_section_title
;
Structure prediction by ZEFSAII (Michael W. Deem and Ramdas Pophale) SiO2 
 PCOD9287500
Probable space group: C 2/C
;
_chemical_formula_sum "Si O2"
_cell_formula_units_Z 48
_cell_length_a 15.541306
_cell_length_b 11.192238
_cell_length_c 15.690452
_cell_angle_alpha 90.000000
_cell_angle_beta 45.324428
_cell_angle_gamma 90.000000
_cell_volume 1940.752501
_symmetry_space_group_name_H-M "C 2/C"
_symmetry_group_IT_number 15
_symmetry_cell_setting 'monoclinic'
loop_
_space_group_symop_operation_xyz
x,y,z
-x,y,1/2-z
-x,-y,-z
x,-y,1/2+z
1/2+x,1/2+y,z
1/2-x,1/2+y,1/2-z
1/2-x,1/2-y,-z
1/2+x,1/2-y,1/2+z
loop_
_atom_site_type_symbol
_atom_site_label
_atom_site_fract_x
_atom_site_fract_y
_atom_site_fract_z
Si Si1 0.500000 0.856462 0.750000
Si Si2 0.572929 0.411740 0.886753
Si Si3 0.474304 0.018360 0.904972
Si Si4 0.000000 0.978604 0.750000
Si Si5 0.080970 0.701492 0.443085
Si Si6 0.729762 0.897720 0.255044
Si Si7 0.306637 0.323844 0.382075
O O1 0.594905 0.768101 0.727719
O O2 0.424514 0.945956 0.860597
O O3 0.535953 0.413855 0.812739
O O4 0.704692 0.472587 0.799689
O O5 0.500000 0.500000 0.000000
O O6 0.532448 0.286426 0.953901
O O7 0.600075 0.089058 0.801953
O O8 0.525834 0.906970 0.925383
O O9 0.383125 0.118402 0.001722
O O10 0.888788 0.065489 0.854336
O O11 0.187353 0.790781 0.340613
O O12 0.728360 0.871677 0.357893
O O13 0.250000 0.250000 0.500000
#
# Coordination Sequence:
#
# PCOD9287500 Si02
#       7
#     4   8   8   4   8   8   8
#     4  11  24  45  60 102 134 171 215 286 336 382
#     4   9  20  38  66  90 130 174 225 274 337 396
#     4  11  25  41  69  93 139 170 221 274 344 395
#     4   9  20  39  58  96 126 171 223 278 330 396
#     4  10  23  42  63  94 129 177 219 273 331 408
#     4  10  22  42  67  99 126 179 228 270 328 414
#     4  10  22  36  65  91 134 168 224 273 321 389
#
# _framework density 24.732672999999998
#
# number of rings (size 3 to 8) (size 9 to 14) (size 15 to 20)
#    0.000    2.000    1.667    0.000    9.333    3.333 
#    0.000    0.833    0.000    0.000    0.000    0.000 
#    0.000    0.000    0.000    0.000    0.000    0.000 
#
# Total GULP energy -133808.880622 kJ/mol
# GULP energy per Si atom -5575.370026 kJ/mol
# Density = 2.467638 g / cm^3
# Si number density = 24.732673 Si / 1000 Ang^3
#
#
#
# Elastic Constant Matrix: (Units=GPa)
#
#
# Indices 1 2 3 4 5 6 
#
# 1 40.6736 7.0426 4.1325 0.0000 -18.7585 0.0000
# 2 7.0426 147.6228 35.1181 0.0000 -13.3830 0.0000
# 3 4.1325 35.1181 72.6840 0.0000 -17.2665 0.0000
# 4 0.0000 0.0000 0.0000 46.0846 0.0000 -4.2757
# 5 -18.7585 -13.3830 -17.2665 0.0000 25.5323 0.0000
# 6 0.0000 0.0000 0.0000 -4.2757 0.0000 30.8475
#
#
#
# Elastic Compliance Matrix: (Units=1/GPa)
#
#
# Indices 1 2 3 4 5 6 
#
# 1 0.038930 -0.000260 0.005569 0.000000 0.032232 0.000000
# 2 -0.000260 0.007726 -0.003337 0.000000 0.001601 0.000000
# 3 0.005569 -0.003337 0.018598 0.000000 0.014920 0.000000
# 4 0.000000 0.000000 0.000000 0.021982 0.000000 0.003047
# 5 0.032232 0.001601 0.014920 0.000000 0.073776 0.000000
# 6 0.000000 0.000000 0.000000 0.003047 0.000000 0.032840
#
#
# Mechanical properties :
#
#
# Convention : Reuss Voigt Hill
#
# Bulk Modulus (GPa) = 14.45136 39.28517 26.86827
# Shear Modulus (GPa) = 23.47696 34.80534 29.14115
#
# Velocity S-wave (km/s) = 3.08430 3.75542 3.43628
# Velocity P-wave (km/s) = 4.30576 5.89259 5.16053
#
# Compressibility (1/GPa) = 0.06919764
#
# Stress axis : x y z
#
# Youngs Moduli (GPa) = 25.68682 129.44048 53.76819
#
# Poissons Ratio (x) = 0.03366 -0.29944
# Poissons Ratio (y) = 0.00668 0.17945
# Poissons Ratio (z) = -0.14305 0.43201
#
# Static dielectric constant tensor:
#      x y z
#    x 2.070350 0.000000 0.237670 
#    y 0.000000 1.954200 0.000000 
#    z 0.237670 0.000000 2.475390 
# 
# From -- ./inp_files/214751.got.cif
#   From: 2010.05.17/outbox.cif.g08.bks.cpg/sg15_108_cif.got.tgz:214751.got - 2010.06.03 18:47:42.
