data_PCOD9287605
_publ_section_title
;
Structure prediction by ZEFSAII (Michael W. Deem and Ramdas Pophale) SiO2 
 PCOD9287605
Probable space group: C 2/C
;
_chemical_formula_sum "Si O2"
_cell_formula_units_Z 56
_cell_length_a 19.031631
_cell_length_b 28.578567
_cell_length_c 5.243930
_cell_angle_alpha 90.000000
_cell_angle_beta 126.443933
_cell_angle_gamma 90.000000
_cell_volume 2294.384568
_symmetry_space_group_name_H-M "C 2/C"
_symmetry_group_IT_number 15
_symmetry_cell_setting 'monoclinic'
loop_
_space_group_symop_operation_xyz
x,y,z
-x,y,1/2-z
-x,-y,-z
x,-y,1/2+z
1/2+x,1/2+y,z
1/2-x,1/2+y,1/2-z
1/2-x,1/2-y,-z
1/2+x,1/2-y,1/2+z
loop_
_atom_site_type_symbol
_atom_site_label
_atom_site_fract_x
_atom_site_fract_y
_atom_site_fract_z
Si Si1 0.594089 0.974308 0.798079
Si Si2 0.796333 0.130460 0.828948
Si Si3 0.116412 0.279184 0.798366
Si Si4 0.052562 0.175674 0.617729
Si Si5 0.391574 0.873907 0.848699
Si Si6 0.306382 0.525364 0.805964
Si Si7 0.302593 0.814911 0.020724
O O1 0.569458 0.923749 0.629657
O O2 0.570707 0.013811 0.538651
O O3 0.700711 0.975565 0.046107
O O4 0.854215 0.153010 0.734447
O O5 0.698137 0.127339 0.507725
O O6 0.828035 0.077878 0.941581
O O7 0.786483 0.164585 0.051330
O O8 0.065959 0.231446 0.661442
O O9 0.059565 0.326545 0.630276
O O10 0.187062 0.285370 0.718393
O O11 0.157020 0.284002 0.165886
O O12 0.000000 0.159400 0.750000
O O13 0.000000 0.164157 0.250000
O O14 0.359039 0.861649 0.064254
O O15 0.336827 0.510331 0.590559
#
# Coordination Sequence:
#
# PCOD9287605 Si02
#       7
#     8   8   8   8   8   8   8
#     4   9  17  24  42  75 118 146 170 200 262 333
#     4  10  22  37  59  84 115 144 193 227 284 334
#     4   9  20  38  56  81 110 142 186 226 281 342
#     4  12  28  43  59  79 109 149 191 244 288 331
#     4   8  19  32  55  82 112 146 177 224 271 324
#     4   9  19  30  51  79 110 147 181 220 270 334
#     4   9  19  33  59  83 111 141 175 230 272 331
#
# _framework density 24.407416000000001
#
# number of rings (size 3 to 8) (size 9 to 14) (size 15 to 20)
#    0.857    1.714    0.000    0.857   14.000    2.857 
#    0.000    0.000    0.000    2.571    0.000    0.000 
#    0.000    3.429    0.000    0.000    0.000    0.000 
#
# Total GULP energy -156323.983419 kJ/mol
# GULP energy per Si atom -5582.999408 kJ/mol
# Density = 2.435186 g / cm^3
# Si number density = 24.407416 Si / 1000 Ang^3
#
#
#
# Elastic Constant Matrix: (Units=GPa)
#
#
# Indices 1 2 3 4 5 6 
#
# 1 121.8854 33.6923 38.2113 0.0000 -43.3154 0.0000
# 2 33.6923 59.3985 10.0806 0.0000 -7.4475 0.0000
# 3 38.2113 10.0806 96.1690 0.0000 -40.8272 0.0000
# 4 0.0000 0.0000 0.0000 -0.3674 0.0000 -2.7367
# 5 -43.3154 -7.4475 -40.8272 0.0000 42.3267 0.0000
# 6 0.0000 0.0000 0.0000 -2.7367 0.0000 -67.2998
#
#
#
# Elastic Compliance Matrix: (Units=1/GPa)
#
#
# Indices 1 2 3 4 5 6 
#
# 1 0.015282 -0.006924 0.001314 0.000000 0.015687 0.000000
# 2 -0.006924 0.020396 -0.001476 0.000000 -0.004920 0.000000
# 3 0.001314 -0.001476 0.017767 0.000000 0.018223 0.000000
# 4 0.000000 0.000000 0.000000 -3.904576 0.000000 0.158777
# 5 0.015687 -0.004920 0.018223 0.000000 0.056391 0.000000
# 6 0.000000 0.000000 0.000000 0.158777 0.000000 -0.021315
#
#
# Mechanical properties :
#
#
# Convention : Reuss Voigt Hill
#
# Bulk Modulus (GPa) = 25.46272 49.04683 37.25477
# Shear Modulus (GPa) = -1.31968 7.96314 3.32173
#
# Velocity S-wave (km/s) = -0.73611 1.80822 1.16786
# Velocity P-wave (km/s) = 3.11970 4.94957 4.13707
#
# Compressibility (1/GPa) = 0.03927311
#
# Stress axis : x y z
#
# Youngs Moduli (GPa) = 65.43846 49.02807 56.28351
#
# Poissons Ratio (x) = 0.33948 -0.07394
# Poissons Ratio (y) = 0.45310 0.08306
# Poissons Ratio (z) = -0.08597 0.07235
#
# Static dielectric constant tensor:
#      x y z
#    x 2.083490 0.000000 0.164680 
#    y 0.000000 1.980210 0.000000 
#    z 0.164680 0.000000 2.156950 
# 
# From -- ./inp_files/14326.got.cif
#   From: 2010.05.17/outbox.cif.g08.bks.cpg/sg15_8_cif.got.tgz:14326.got - 2010.06.03 18:47:42.
