data_PCOD9287090
_publ_section_title
;
Structure prediction by ZEFSAII (Michael W. Deem and Ramdas Pophale) SiO2 
 PCOD9287090
Probable space group: C 2/C
;
_chemical_formula_sum "Si O2"
_cell_formula_units_Z 56
_cell_length_a 14.670346
_cell_length_b 27.773424
_cell_length_c 9.597257
_cell_angle_alpha 90.000000
_cell_angle_beta 47.793654
_cell_angle_gamma 90.000000
_cell_volume 2896.522811
_symmetry_space_group_name_H-M "C 2/C"
_symmetry_group_IT_number 15
_symmetry_cell_setting 'monoclinic'
loop_
_space_group_symop_operation_xyz
x,y,z
-x,y,1/2-z
-x,-y,-z
x,-y,1/2+z
1/2+x,1/2+y,z
1/2-x,1/2+y,1/2-z
1/2-x,1/2-y,-z
1/2+x,1/2-y,1/2+z
loop_
_atom_site_type_symbol
_atom_site_label
_atom_site_fract_x
_atom_site_fract_y
_atom_site_fract_z
Si Si1 0.503737 0.639657 0.898547
Si Si2 0.927704 0.525357 0.446982
Si Si3 0.398510 0.535040 0.037944
Si Si4 0.729287 0.535956 0.040630
Si Si5 0.116620 0.799789 0.734919
Si Si6 0.370091 0.188220 0.806316
Si Si7 0.241431 0.394587 0.235511
O O1 0.500000 0.662738 0.750000
O O2 0.642372 0.629672 0.809057
O O3 0.447367 0.586435 0.944613
O O4 0.423330 0.669620 0.090677
O O5 0.866493 0.482721 0.419226
O O6 0.824410 0.561513 0.615186
O O7 0.000000 0.553138 0.250000
O O8 0.000000 0.500000 0.500000
O O9 0.311696 0.544032 0.259671
O O10 0.500000 0.500000 0.000000
O O11 0.341168 0.507131 0.966446
O O12 0.713827 0.580967 0.955244
O O13 0.247564 0.814209 0.530796
O O14 0.127510 0.742718 0.753710
O O15 0.000000 0.805655 0.750000
O O16 0.500000 0.180499 0.750000
O O17 0.352563 0.147346 0.708746
#
# Coordination Sequence:
#
# PCOD9287090 Si02
#       7
#     8   8   8   8   8   8   8
#     4  12  25  42  67 100 137 173 223 280 342 403
#     4  12  24  42  60  84 129 182 225 267 319 393
#     4  12  22  36  59  92 130 165 211 264 325 390
#     4  12  23  39  58  89 128 173 218 266 325 387
#     4  10  21  46  74 101 132 173 224 289 345 398
#     4  10  23  42  74 104 132 168 231 285 336 411
#     4  12  24  42  66  95 132 177 228 273 338 403
#
# _framework density 19.333525999999999
#
# number of rings (size 3 to 8) (size 9 to 14) (size 15 to 20)
#    0.000    0.571    5.714    3.000    2.000    0.000 
#    5.143    1.429    0.000    0.000    0.000    0.000 
#    0.000    0.000    0.000    0.000    0.000    0.000 
#
# Total GULP energy -156312.509710 kJ/mol
# GULP energy per Si atom -5582.589633 kJ/mol
# Density = 1.928952 g / cm^3
# Si number density = 19.333526 Si / 1000 Ang^3
#
#
#
# Elastic Constant Matrix: (Units=GPa)
#
#
# Indices 1 2 3 4 5 6 
#
# 1 119.4160 41.6638 21.2219 0.0000 -2.9089 0.0000
# 2 41.6638 87.3071 39.4148 0.0000 7.6542 0.0000
# 3 21.2219 39.4148 102.8403 0.0000 -0.2895 0.0000
# 4 0.0000 0.0000 0.0000 21.4498 0.0000 -7.4379
# 5 -2.9089 7.6542 -0.2895 0.0000 31.3586 0.0000
# 6 0.0000 0.0000 0.0000 -7.4379 0.0000 25.0903
#
#
#
# Elastic Compliance Matrix: (Units=1/GPa)
#
#
# Indices 1 2 3 4 5 6 
#
# 1 0.010194 -0.004966 -0.000194 0.000000 0.002156 0.000000
# 2 -0.004966 0.016648 -0.005369 0.000000 -0.004574 0.000000
# 3 -0.000194 -0.005369 0.011826 0.000000 0.001402 0.000000
# 4 0.000000 0.000000 0.000000 0.051962 0.000000 0.015404
# 5 0.002156 -0.004574 0.001402 0.000000 0.033218 0.000000
# 6 0.000000 0.000000 0.000000 0.015404 0.000000 0.044423
#
#
# Mechanical properties :
#
#
# Convention : Reuss Voigt Hill
#
# Bulk Modulus (GPa) = 56.78689 57.12938 56.95813
# Shear Modulus (GPa) = 25.61501 29.39727 27.50614
#
# Velocity S-wave (km/s) = 3.64387 3.90363 3.77598
# Velocity P-wave (km/s) = 6.86584 7.06621 6.96674
#
# Compressibility (1/GPa) = 0.01760970
#
# Stress axis : x y z
#
# Youngs Moduli (GPa) = 98.09995 60.06621 84.56297
#
# Poissons Ratio (x) = 0.29828 0.01643
# Poissons Ratio (y) = 0.48715 0.45400
# Poissons Ratio (z) = 0.01906 0.32248
#
# Static dielectric constant tensor:
#      x y z
#    x 1.698830 0.000000 -0.031570 
#    y 0.000000 1.735660 0.000000 
#    z -0.031570 0.000000 1.933300 
# 
# From -- ./inp_files/43455.got.cif
#   From: 2010.05.17/outbox.cif.g08.bks.cpg/sg15_22_cif.got.tgz:43455.got - 2010.06.03 18:47:42.
