data_PCOD9287946
_publ_section_title
;
Structure prediction by ZEFSAII (Michael W. Deem and Ramdas Pophale) SiO2 
 PCOD9287946
Probable space group: C 2/C
;
_chemical_formula_sum "Si O2"
_cell_formula_units_Z 28
_cell_length_a 10.201126
_cell_length_b 24.984726
_cell_length_c 5.445621
_cell_angle_alpha 90.000000
_cell_angle_beta 59.258625
_cell_angle_gamma 90.000000
_cell_volume 1192.909763
_symmetry_space_group_name_H-M "C 2/C"
_symmetry_group_IT_number 15
_symmetry_cell_setting 'monoclinic'
loop_
_space_group_symop_operation_xyz
x,y,z
-x,y,1/2-z
-x,-y,-z
x,-y,1/2+z
1/2+x,1/2+y,z
1/2-x,1/2+y,1/2-z
1/2-x,1/2-y,-z
1/2+x,1/2-y,1/2+z
loop_
_atom_site_type_symbol
_atom_site_label
_atom_site_fract_x
_atom_site_fract_y
_atom_site_fract_z
Si Si1 0.235915 0.796834 0.315497
Si Si2 0.907116 0.911374 0.077089
Si Si3 0.065424 0.439903 0.438159
Si Si4 0.000000 0.272541 0.750000
O O1 0.250000 0.750000 0.500000
O O2 0.155193 0.852738 0.449851
O O3 0.121997 0.768297 0.239447
O O4 0.402812 0.805576 0.039975
O O5 0.748210 0.942152 0.269707
O O6 0.000000 0.908919 0.250000
O O7 0.000000 0.932616 0.750000
O O8 0.000000 0.414622 0.250000
O O9 0.000000 0.500000 0.500000
O O10 0.000000 0.414712 0.750000
#
# Coordination Sequence:
#
# PCOD9287946 Si02
#       4
#     8   8   8   4
#     4  11  23  40  62  95 137 189 234 288 346 410
#     4  12  26  45  71 107 145 188 242 300 359 434
#     4  10  23  47  74 105 139 180 236 300 364 440
#     4  10  22  38  60  90 132 178 238 282 340 406
#
# _framework density 23.472017999999998
#
# number of rings (size 3 to 8) (size 9 to 14) (size 15 to 20)
#    0.000    1.143    1.429    4.286    6.000    2.286 
#    0.000   17.143    0.000    0.000    0.000    0.000 
#    0.000    0.000    0.000    0.000    0.000    0.000 
#
# Total GULP energy -78146.702331 kJ/mol
# GULP energy per Si atom -5581.907309 kJ/mol
# Density = 2.341859 g / cm^3
# Si number density = 23.472018 Si / 1000 Ang^3
#
#
#
# Elastic Constant Matrix: (Units=GPa)
#
#
# Indices 1 2 3 4 5 6 
#
# 1 122.8884 47.4119 85.4100 0.0000 -20.0158 0.0000
# 2 47.4119 75.2502 25.4107 0.0000 -6.3912 0.0000
# 3 85.4100 25.4107 217.7823 0.0000 -20.0692 0.0000
# 4 0.0000 0.0000 0.0000 19.6331 0.0000 -18.1651
# 5 -20.0158 -6.3912 -20.0692 0.0000 54.9775 0.0000
# 6 0.0000 0.0000 0.0000 -18.1651 0.0000 29.1784
#
#
#
# Elastic Compliance Matrix: (Units=1/GPa)
#
#
# Indices 1 2 3 4 5 6 
#
# 1 0.014687 -0.007452 -0.004634 0.000000 0.002789 0.000000
# 2 -0.007452 0.017675 0.000828 0.000000 -0.000356 0.000000
# 3 -0.004634 0.000828 0.006380 0.000000 0.000738 0.000000
# 4 0.000000 0.000000 0.000000 0.120129 0.000000 0.074787
# 5 0.002789 -0.000356 0.000738 0.000000 0.019433 0.000000
# 6 0.000000 0.000000 0.000000 0.074787 0.000000 0.080831
#
#
# Mechanical properties :
#
#
# Convention : Reuss Voigt Hill
#
# Bulk Modulus (GPa) = 61.62991 81.37622 71.50307
# Shear Modulus (GPa) = 17.41792 37.93699 27.67746
#
# Velocity S-wave (km/s) = 2.72705 4.02464 3.43763
# Velocity P-wave (km/s) = 6.01910 7.50611 6.80335
#
# Compressibility (1/GPa) = 0.01622589
#
# Stress axis : x y z
#
# Youngs Moduli (GPa) = 68.08544 56.57805 156.72975
#
# Poissons Ratio (x) = 0.42164 0.72621
# Poissons Ratio (y) = 0.50740 -0.12970
# Poissons Ratio (z) = 0.31548 -0.04682
#
# Static dielectric constant tensor:
#      x y z
#    x 1.891250 0.000000 0.067970 
#    y 0.000000 3.901170 0.000000 
#    z 0.067970 0.000000 1.958170 
# 
# From -- ./inp_files/2256.got.cif
#   From: 2010.05.17/outbox.cif.g08.bks.cpg/sg15_2_cif.got.tgz:2256.got - 2010.06.03 18:47:42.
