data_PCOD9287551
_publ_section_title
;
Structure prediction by ZEFSAII (Michael W. Deem and Ramdas Pophale) SiO2 
 PCOD9287551
Probable space group: C 2/C
;
_chemical_formula_sum "Si O2"
_cell_formula_units_Z 56
_cell_length_a 22.704318
_cell_length_b 24.766199
_cell_length_c 28.493125
_cell_angle_alpha 90.000000
_cell_angle_beta 10.743323
_cell_angle_gamma 90.000000
_cell_volume 2986.593030
_symmetry_space_group_name_H-M "C 2/C"
_symmetry_group_IT_number 15
_symmetry_cell_setting 'monoclinic'
loop_
_space_group_symop_operation_xyz
x,y,z
-x,y,1/2-z
-x,-y,-z
x,-y,1/2+z
1/2+x,1/2+y,z
1/2-x,1/2+y,1/2-z
1/2-x,1/2-y,-z
1/2+x,1/2-y,1/2+z
loop_
_atom_site_type_symbol
_atom_site_label
_atom_site_fract_x
_atom_site_fract_y
_atom_site_fract_z
Si Si1 0.106679 0.502205 0.970726
Si Si2 0.189629 0.806841 0.888198
Si Si3 0.699300 0.966454 0.546805
Si Si4 0.244110 0.889207 0.760428
Si Si5 0.276957 0.964470 0.307188
Si Si6 0.286729 0.185471 0.653197
Si Si7 0.270831 0.843330 0.974979
O O1 0.477192 0.505835 0.690670
O O2 0.000000 0.500000 0.000000
O O3 0.976507 0.560705 0.088489
O O4 0.972533 0.452900 0.106664
O O5 0.199603 0.850508 0.839562
O O6 0.115107 0.747775 0.926874
O O7 0.542648 0.806740 0.634143
O O8 0.935743 0.822379 0.127205
O O9 0.500000 0.962430 0.750000
O O10 0.748402 0.904831 0.491743
O O11 0.505003 0.000759 0.661303
O O12 0.413869 0.854397 0.586907
O O13 0.902216 0.918388 0.023113
O O14 0.000000 0.000000 0.500000
O O15 0.066821 0.174377 0.779796
O O16 0.500000 0.843439 0.750000
#
# Coordination Sequence:
#
# PCOD9287551 Si02
#       7
#     8   8   8   8   8   8   8
#     4  11  23  39  63  88 121 162 204 257 319 376
#     4  11  22  36  55  80 119 156 210 256 297 366
#     4  11  20  37  59  87 122 165 205 249 311 376
#     4  11  23  39  56  82 118 160 201 254 300 359
#     4  10  22  37  54  85 118 160 212 249 298 367
#     4  11  21  37  54  84 115 162 208 248 308 360
#     4   9  19  31  53  79 115 157 201 245 301 361
#
# _framework density 18.750461000000001
#
# number of rings (size 3 to 8) (size 9 to 14) (size 15 to 20)
#    0.000    1.429    2.857    4.286    2.000    0.571 
#    0.000    0.000    0.000    0.000    0.000    0.000 
#    0.000   21.714    0.000    0.000    0.000    0.000 
#
# Total GULP energy -156213.392372 kJ/mol
# GULP energy per Si atom -5579.049728 kJ/mol
# Density = 1.870778 g / cm^3
# Si number density = 18.750461 Si / 1000 Ang^3
#
#
#
# Elastic Constant Matrix: (Units=GPa)
#
#
# Indices 1 2 3 4 5 6 
#
# 1 72.8195 25.4088 29.0346 0.4502 2.3455 0.0226
# 2 25.4088 75.0637 33.7726 1.0065 -0.7744 0.1568
# 3 29.0346 33.7726 89.0326 2.1934 8.5041 0.1366
# 4 0.4502 1.0065 2.1934 31.0203 -0.1209 4.0020
# 5 2.3455 -0.7744 8.5041 -0.1209 35.5645 -0.1964
# 6 0.0226 0.1568 0.1366 4.0020 -0.1964 20.7481
#
#
#
# Elastic Compliance Matrix: (Units=1/GPa)
#
#
# Indices 1 2 3 4 5 6 
#
# 1 0.016663 -0.003869 -0.003948 0.000161 -0.000239 0.000004
# 2 -0.003869 0.017082 -0.005398 -0.000102 0.001917 -0.000051
# 3 -0.003948 -0.005398 0.014915 -0.000846 -0.003426 0.000078
# 4 0.000161 -0.000102 -0.000846 0.033122 0.000267 -0.006380
# 5 -0.000239 0.001917 -0.003426 0.000267 0.028997 0.000231
# 6 0.000004 -0.000051 0.000078 -0.006380 0.000231 0.049430
#
#
# Mechanical properties :
#
#
# Convention : Reuss Voigt Hill
#
# Bulk Modulus (GPa) = 44.98448 45.92752 45.45600
# Shear Modulus (GPa) = 25.76672 27.37989 26.57330
#
# Velocity S-wave (km/s) = 3.71103 3.82543 3.76867
# Velocity P-wave (km/s) = 6.51195 6.63771 6.57513
#
# Compressibility (1/GPa) = 0.02222989
#
# Stress axis : x y z
#
# Youngs Moduli (GPa) = 60.01219 58.54194 67.04685
#
# Poissons Ratio (x) = 0.22650 0.26468
# Poissons Ratio (y) = 0.23219 0.36195
# Poissons Ratio (z) = 0.23691 0.31603
#
# Static dielectric constant tensor:
#      x y z
#    x 1.668920 0.000640 0.089740 
#    y 0.000640 1.662880 0.001570 
#    z 0.089740 0.001570 1.683200 
# 
# From -- ./inp_files/318990.got.cif
#   From: 2010.05.17/outbox.cif.g08.bks.cpg/sg15_160_cif.got.tgz:318990.got - 2010.06.03 18:47:42.
