data_PCOD9287831
_publ_section_title
;
Structure prediction by ZEFSAII (Michael W. Deem and Ramdas Pophale) SiO2 
 PCOD9287831
Probable space group: C 2/C
;
_chemical_formula_sum "Si O2"
_cell_formula_units_Z 52
_cell_length_a 16.829994
_cell_length_b 23.206871
_cell_length_c 14.221554
_cell_angle_alpha 90.000000
_cell_angle_beta 153.838112
_cell_angle_gamma 90.000000
_cell_volume 2449.043426
_symmetry_space_group_name_H-M "C 2/C"
_symmetry_group_IT_number 15
_symmetry_cell_setting 'monoclinic'
loop_
_space_group_symop_operation_xyz
x,y,z
-x,y,1/2-z
-x,-y,-z
x,-y,1/2+z
1/2+x,1/2+y,z
1/2-x,1/2+y,1/2-z
1/2-x,1/2-y,-z
1/2+x,1/2-y,1/2+z
loop_
_atom_site_type_symbol
_atom_site_label
_atom_site_fract_x
_atom_site_fract_y
_atom_site_fract_z
Si Si1 0.000000 0.148756 0.250000
Si Si2 0.706989 0.941024 0.003802
Si Si3 0.316278 0.927386 0.995547
Si Si4 0.323871 0.328940 0.198217
Si Si5 0.223593 0.154816 0.047918
Si Si6 0.348701 0.163732 0.379234
Si Si7 0.535013 0.718062 0.469152
O O1 0.159221 0.109495 0.377620
O O2 0.078511 0.188532 0.416612
O O3 0.500000 0.937469 0.750000
O O4 0.800600 0.911439 0.012276
O O5 0.744555 0.006107 0.071524
O O6 0.761617 0.895471 0.143147
O O7 0.500000 0.924789 0.250000
O O8 0.359737 0.897454 0.941902
O O9 0.530939 0.326130 0.382692
O O10 0.325537 0.294960 0.296901
O O11 0.221950 0.313851 0.991996
O O12 0.360199 0.159980 0.278766
O O13 0.479365 0.213339 0.555801
O O14 0.152320 0.188896 0.198968
#
# Coordination Sequence:
#
# PCOD9287831 Si02
#       7
#     4   8   8   8   8   8   8
#     4  10  24  40  58  86 114 154 210 230 290 346
#     4   9  18  36  56  84 119 143 188 238 286 344
#     4  10  23  40  58  88 117 155 196 244 286 344
#     4   8  17  36  58  81 114 149 188 228 290 348
#     4   8  17  36  58  82 115 149 184 235 288 342
#     4  10  22  38  58  86 116 148 197 238 286 343
#     4  10  22  38  58  85 112 154 196 235 287 347
#
# _framework density 21.232780999999999
#
# number of rings (size 3 to 8) (size 9 to 14) (size 15 to 20)
#    0.923    1.846    0.000    0.000    5.385    3.077 
#    2.769    3.846    0.000    0.000    0.000    0.000 
#    0.000    0.000    0.000    0.000    0.000    0.000 
#
# Total GULP energy -144738.380932 kJ/mol
# GULP energy per Si atom -5566.860805 kJ/mol
# Density = 2.118445 g / cm^3
# Si number density = 21.232781 Si / 1000 Ang^3
#
#
#
# Elastic Constant Matrix: (Units=GPa)
#
#
# Indices 1 2 3 4 5 6 
#
# 1 75.8404 30.4372 21.9734 0.0000 -23.4536 0.0000
# 2 30.4372 127.6934 16.3724 0.0000 -22.7704 0.0000
# 3 21.9734 16.3724 46.1609 0.0000 -8.1233 0.0000
# 4 0.0000 0.0000 0.0000 30.7790 0.0000 -1.0214
# 5 -23.4536 -22.7704 -8.1233 0.0000 26.4759 0.0000
# 6 0.0000 0.0000 0.0000 -1.0214 0.0000 26.1433
#
#
#
# Elastic Compliance Matrix: (Units=1/GPa)
#
#
# Indices 1 2 3 4 5 6 
#
# 1 0.020166 -0.001348 -0.006534 0.000000 0.014700 0.000000
# 2 -0.001348 0.009516 -0.001589 0.000000 0.006503 0.000000
# 3 -0.006534 -0.001589 0.025453 0.000000 0.000654 0.000000
# 4 0.000000 0.000000 0.000000 0.032532 0.000000 0.001271
# 5 0.014700 0.006503 0.000654 0.000000 0.056585 0.000000
# 6 0.000000 0.000000 0.000000 0.001271 0.000000 0.038300
#
#
# Mechanical properties :
#
#
# Convention : Reuss Voigt Hill
#
# Bulk Modulus (GPa) = 27.63082 43.02897 35.32990
# Shear Modulus (GPa) = 23.41287 28.74041 26.07664
#
# Velocity S-wave (km/s) = 3.32426 3.68310 3.50827
# Velocity P-wave (km/s) = 5.27027 6.19648 5.75205
#
# Compressibility (1/GPa) = 0.03619147
#
# Stress axis : x y z
#
# Youngs Moduli (GPa) = 49.58958 105.08843 39.28867
#
# Poissons Ratio (x) = 0.14162 0.25673
# Poissons Ratio (y) = 0.06683 0.06244
# Poissons Ratio (z) = 0.32404 0.16702
#
# Static dielectric constant tensor:
#      x y z
#    x 1.788860 0.000000 0.013440 
#    y 0.000000 1.786980 0.000000 
#    z 0.013440 0.000000 1.832410 
# 
# From -- ./inp_files/164029.got.cif
#   From: 2010.05.17/outbox.cif.g08.bks.cpg/sg15_83_cif.got.tgz:164029.got - 2010.06.03 18:47:42.
