data_PCOD9287735
_publ_section_title
;
Structure prediction by ZEFSAII (Michael W. Deem and Ramdas Pophale) SiO2 
 PCOD9287735
Probable space group: C 2/C
;
_chemical_formula_sum "Si O2"
_cell_formula_units_Z 44
_cell_length_a 9.176061
_cell_length_b 25.808270
_cell_length_c 9.694731
_cell_angle_alpha 90.000000
_cell_angle_beta 63.839519
_cell_angle_gamma 90.000000
_cell_volume 2060.704573
_symmetry_space_group_name_H-M "C 2/C"
_symmetry_group_IT_number 15
_symmetry_cell_setting 'monoclinic'
loop_
_space_group_symop_operation_xyz
x,y,z
-x,y,1/2-z
-x,-y,-z
x,-y,1/2+z
1/2+x,1/2+y,z
1/2-x,1/2+y,1/2-z
1/2-x,1/2-y,-z
1/2+x,1/2-y,1/2+z
loop_
_atom_site_type_symbol
_atom_site_label
_atom_site_fract_x
_atom_site_fract_y
_atom_site_fract_z
Si Si1 0.340962 0.026568 0.399858
Si Si2 0.500000 0.737395 0.750000
Si Si3 0.291677 0.095514 0.907905
Si Si4 0.934907 0.089097 0.127383
Si Si5 0.918434 0.615809 0.559025
Si Si6 0.220492 0.814216 0.927928
O O1 0.500000 0.043523 0.250000
O O2 0.181363 0.046285 0.388801
O O3 0.360573 0.058717 0.532328
O O4 0.337771 0.965039 0.406245
O O5 0.336555 0.772667 0.802833
O O6 0.567256 0.706135 0.586088
O O7 0.352100 0.120308 0.740993
O O8 0.387964 0.119833 0.997816
O O9 0.100448 0.097035 0.977193
O O10 0.842675 0.143361 0.152579
O O11 0.000000 0.074520 0.250000
O O12 0.839624 0.656117 0.486660
#
# Coordination Sequence:
#
# PCOD9287735 Si02
#       6
#     8   4   8   8   8   8
#     4  11  22  38  58  88 124 178 215 246 292 352
#     4  10  22  44  74  90 116 154 212 262 326 410
#     4  11  22  38  58  92 127 170 205 259 292 353
#     4  11  25  38  62  92 130 162 209 260 301 366
#     4  10  22  37  66  86 127 165 211 252 307 369
#     4  10  23  43  69  93 120 163 205 260 330 383
#
# _framework density 21.351921000000001
#
# number of rings (size 3 to 8) (size 9 to 14) (size 15 to 20)
#    0.000    1.455    1.818    3.273   10.182    2.182 
#    0.000    0.909   16.000    0.000    0.000    0.000 
#    0.000    0.000    0.000    0.000    0.000    0.000 
#
# Total GULP energy -122683.291545 kJ/mol
# GULP energy per Si atom -5576.513252 kJ/mol
# Density = 2.130332 g / cm^3
# Si number density = 21.351921 Si / 1000 Ang^3
#
#
#
# Elastic Constant Matrix: (Units=GPa)
#
#
# Indices 1 2 3 4 5 6 
#
# 1 154.8642 19.6815 44.9683 0.0000 -0.1292 0.0000
# 2 19.6815 38.3529 2.5527 0.0000 -5.4228 0.0000
# 3 44.9683 2.5527 69.5623 0.0000 -17.3486 0.0000
# 4 0.0000 0.0000 0.0000 18.9163 0.0000 -11.9931
# 5 -0.1292 -5.4228 -17.3486 0.0000 41.2079 0.0000
# 6 0.0000 0.0000 0.0000 -11.9931 0.0000 21.6096
#
#
#
# Elastic Compliance Matrix: (Units=1/GPa)
#
#
# Indices 1 2 3 4 5 6 
#
# 1 0.008898 -0.004603 -0.006399 0.000000 -0.003272 0.000000
# 2 -0.004603 0.028950 0.003195 0.000000 0.005140 0.000000
# 3 -0.006399 0.003195 0.020664 0.000000 0.009100 0.000000
# 4 0.000000 0.000000 0.000000 0.081564 0.000000 0.045267
# 5 -0.003272 0.005140 0.009100 0.000000 0.028765 0.000000
# 6 0.000000 0.000000 0.000000 0.045267 0.000000 0.071399
#
#
# Mechanical properties :
#
#
# Convention : Reuss Voigt Hill
#
# Bulk Modulus (GPa) = 23.31076 44.13160 33.72118
# Shear Modulus (GPa) = 18.50814 29.38522 23.94668
#
# Velocity S-wave (km/s) = 2.94736 3.71379 3.35255
# Velocity P-wave (km/s) = 4.74592 6.25325 5.55099
#
# Compressibility (1/GPa) = 0.04289864
#
# Stress axis : x y z
#
# Youngs Moduli (GPa) = 112.39080 34.54269 48.39243
#
# Poissons Ratio (x) = 0.15899 0.30965
# Poissons Ratio (y) = 0.51729 -0.15461
# Poissons Ratio (z) = 0.71917 -0.11036
#
# Static dielectric constant tensor:
#      x y z
#    x 1.835730 0.000000 -0.108310 
#    y 0.000000 1.787380 0.000000 
#    z -0.108310 0.000000 1.879160 
# 
# From -- ./inp_files/25473.got.cif
#   From: 2010.05.17/outbox.cif.g08.bks.cpg/sg15_13_cif.got.tgz:25473.got - 2010.06.03 18:47:42.
