data_PCOD9287679
_publ_section_title
;
Structure prediction by ZEFSAII (Michael W. Deem and Ramdas Pophale) SiO2 
 PCOD9287679
Probable space group: C 2/C
;
_chemical_formula_sum "Si O2"
_cell_formula_units_Z 44
_cell_length_a 18.435212
_cell_length_b 16.102085
_cell_length_c 5.542378
_cell_angle_alpha 90.000000
_cell_angle_beta 78.362052
_cell_angle_gamma 90.000000
_cell_volume 1611.406285
_symmetry_space_group_name_H-M "C 2/C"
_symmetry_group_IT_number 15
_symmetry_cell_setting 'monoclinic'
loop_
_space_group_symop_operation_xyz
x,y,z
-x,y,1/2-z
-x,-y,-z
x,-y,1/2+z
1/2+x,1/2+y,z
1/2-x,1/2+y,1/2-z
1/2-x,1/2-y,-z
1/2+x,1/2-y,1/2+z
loop_
_atom_site_type_symbol
_atom_site_label
_atom_site_fract_x
_atom_site_fract_y
_atom_site_fract_z
Si Si1 0.918186 0.882921 0.919689
Si Si2 0.000000 0.801499 0.250000
Si Si3 0.731629 0.427029 0.563888
Si Si4 0.910424 0.708145 0.688909
Si Si5 0.729566 0.843333 0.462933
Si Si6 0.399157 0.962470 0.437961
O O1 0.854965 0.950460 0.905971
O O2 0.886192 0.795586 0.827259
O O3 0.000000 0.901356 0.750000
O O4 0.935531 0.859989 0.186322
O O5 0.977572 0.743460 0.486720
O O6 0.739940 0.371945 0.316168
O O7 0.809388 0.477200 0.501257
O O8 0.740429 0.389280 0.823250
O O9 0.858076 0.663904 0.525253
O O10 0.914310 0.634896 0.881724
O O11 0.750000 0.750000 0.500000
O O12 0.426858 0.992972 0.676949
#
# Coordination Sequence:
#
# PCOD9287679 Si02
#       6
#     8   4   8   8   8   8
#     4  10  22  38  60  98 126 160 195 249 320 388
#     4  10  22  38  60  92 128 164 198 246 318 386
#     4  11  23  38  64  90 126 157 199 259 318 362
#     4  10  22  37  63  85 131 158 203 255 312 366
#     4  11  20  32  59  95 120 153 195 246 320 379
#     4  11  25  43  62  91 120 165 217 261 297 353
#
# _framework density 27.305342
#
# number of rings (size 3 to 8) (size 9 to 14) (size 15 to 20)
#    0.000    1.455    1.818    3.818   12.727    0.000 
#    0.000    0.909    0.000    1.091    0.000    0.000 
#    0.000    0.000    0.000    0.000    0.000    0.000 
#
# Total GULP energy -122906.894812 kJ/mol
# GULP energy per Si atom -5586.677037 kJ/mol
# Density = 2.724319 g / cm^3
# Si number density = 27.305342 Si / 1000 Ang^3
#
#
#
# Elastic Constant Matrix: (Units=GPa)
#
#
# Indices 1 2 3 4 5 6 
#
# 1 177.1498 25.9904 53.2546 0.0000 25.2799 0.0000
# 2 25.9904 58.7357 53.6908 0.0000 8.1113 0.0000
# 3 53.2546 53.6908 179.5318 0.0000 24.5489 0.0000
# 4 0.0000 0.0000 0.0000 29.8971 0.0000 6.1032
# 5 25.2799 8.1113 24.5489 0.0000 52.7632 0.0000
# 6 0.0000 0.0000 0.0000 6.1032 0.0000 30.0522
#
#
#
# Elastic Compliance Matrix: (Units=1/GPa)
#
#
# Indices 1 2 3 4 5 6 
#
# 1 0.006555 -0.001503 -0.001172 0.000000 -0.002365 0.000000
# 2 -0.001503 0.023782 -0.006691 0.000000 0.000177 0.000000
# 3 -0.001172 -0.006691 0.008224 0.000000 -0.002237 0.000000
# 4 0.000000 0.000000 0.000000 0.034895 0.000000 -0.007087
# 5 -0.002365 0.000177 -0.002237 0.000000 0.021099 0.000000
# 6 0.000000 0.000000 0.000000 -0.007087 0.000000 0.034715
#
#
# Mechanical properties :
#
#
# Convention : Reuss Voigt Hill
#
# Bulk Modulus (GPa) = 50.42660 75.69874 63.06267
# Shear Modulus (GPa) = 32.33934 41.37462 36.85698
#
# Velocity S-wave (km/s) = 3.44519 3.89685 3.67796
# Velocity P-wave (km/s) = 5.85948 6.93041 6.41732
#
# Compressibility (1/GPa) = 0.01983080
#
# Stress axis : x y z
#
# Youngs Moduli (GPa) = 152.55312 42.04860 121.59100
#
# Poissons Ratio (x) = 0.06320 0.14246
# Poissons Ratio (y) = 0.22930 0.81352
# Poissons Ratio (z) = 0.17873 0.28133
#
# Static dielectric constant tensor:
#      x y z
#    x 2.729450 0.000000 -0.084500 
#    y 0.000000 2.175380 0.000000 
#    z -0.084500 0.000000 2.071300 
# 
# From -- ./inp_files/10345.got.cif
#   From: 2010.05.17/outbox.cif.g08.bks.cpg/sg15_6_cif.got.tgz:10345.got - 2010.06.03 18:47:42.
