data_PCOD9287676
_publ_section_title
;
Structure prediction by ZEFSAII (Michael W. Deem and Ramdas Pophale) SiO2 
 PCOD9287676
Probable space group: C 2/C
;
_chemical_formula_sum "Si O2"
_cell_formula_units_Z 48
_cell_length_a 5.298102
_cell_length_b 33.096333
_cell_length_c 15.403804
_cell_angle_alpha 90.000000
_cell_angle_beta 51.647283
_cell_angle_gamma 90.000000
_cell_volume 2118.157357
_symmetry_space_group_name_H-M "C 2/C"
_symmetry_group_IT_number 15
_symmetry_cell_setting 'monoclinic'
loop_
_space_group_symop_operation_xyz
x,y,z
-x,y,1/2-z
-x,-y,-z
x,-y,1/2+z
1/2+x,1/2+y,z
1/2-x,1/2+y,1/2-z
1/2-x,1/2-y,-z
1/2+x,1/2-y,1/2+z
loop_
_atom_site_type_symbol
_atom_site_label
_atom_site_fract_x
_atom_site_fract_y
_atom_site_fract_z
Si Si1 0.965342 0.712196 0.981534
Si Si2 0.403753 0.647987 0.507420
Si Si3 0.589863 0.781146 0.632266
Si Si4 0.888596 0.904195 0.173790
Si Si5 0.390870 0.581745 0.172429
Si Si6 0.387184 0.507525 0.674404
O O1 0.312365 0.734167 0.906156
O O2 0.750000 0.750000 0.000000
O O3 0.931294 0.672372 0.931494
O O4 0.856526 0.705619 0.104314
O O5 0.642215 0.684525 0.436699
O O6 0.482999 0.629146 0.583378
O O7 0.444455 0.614131 0.425429
O O8 0.500000 0.783140 0.750000
O O9 0.500000 0.904773 0.250000
O O10 0.005466 0.948832 0.116400
O O11 0.000000 0.898924 0.250000
O O12 0.500000 0.586106 0.250000
O O13 0.486667 0.536498 0.119056
O O14 0.000000 0.585818 0.250000
O O15 0.500000 0.507131 0.750000
O O16 0.000000 0.507905 0.750000
#
# Coordination Sequence:
#
# PCOD9287676 Si02
#       6
#     8   8   8   8   8   8
#     4   9  22  43  59  90 121 161 208 254 312 398
#     4  11  24  37  62  94 128 156 221 260 323 381
#     4  10  22  43  66  88 125 165 204 262 324 387
#     4  10  23  42  62  89 129 178 213 268 315 366
#     4  10  22  37  62  98 130 169 207 265 319 374
#     4   8  16  36  59  84 126 170 217 249 310 381
#
# _framework density 22.661207000000001
#
# number of rings (size 3 to 8) (size 9 to 14) (size 15 to 20)
#    0.000    2.333    0.000    0.500    7.000    2.667 
#    9.000    0.000    0.000   12.000    0.000    0.000 
#    0.000    0.000    0.000    0.000    0.000    0.000 
#
# Total GULP energy -133710.717945 kJ/mol
# GULP energy per Si atom -5571.279914 kJ/mol
# Density = 2.260963 g / cm^3
# Si number density = 22.661207 Si / 1000 Ang^3
#
#
#
# Elastic Constant Matrix: (Units=GPa)
#
#
# Indices 1 2 3 4 5 6 
#
# 1 122.4246 38.4912 25.1361 0.0000 39.7129 0.0000
# 2 38.4912 191.6303 68.1587 0.0000 27.5596 0.0000
# 3 25.1361 68.1587 70.5913 0.0000 33.6664 0.0000
# 4 0.0000 0.0000 0.0000 39.1155 0.0000 4.9818
# 5 39.7129 27.5596 33.6664 0.0000 32.7303 0.0000
# 6 0.0000 0.0000 0.0000 4.9818 0.0000 29.8057
#
#
#
# Elastic Compliance Matrix: (Units=1/GPa)
#
#
# Indices 1 2 3 4 5 6 
#
# 1 0.015792 -0.002851 0.010056 0.000000 -0.027104 0.000000
# 2 -0.002851 0.008556 -0.010717 0.000000 0.007278 0.000000
# 3 0.010056 -0.010717 0.044065 0.000000 -0.048502 0.000000
# 4 0.000000 0.000000 0.000000 0.026121 0.000000 -0.004366
# 5 -0.027104 0.007278 -0.048502 0.000000 0.107200 0.000000
# 6 0.000000 0.000000 0.000000 -0.004366 0.000000 0.034280
#
#
# Mechanical properties :
#
#
# Convention : Reuss Voigt Hill
#
# Bulk Modulus (GPa) = 16.28969 72.02425 44.15697
# Shear Modulus (GPa) = 18.97518 37.18766 28.08142
#
# Velocity S-wave (km/s) = 2.89683 4.05535 3.52402
# Velocity P-wave (km/s) = 4.28868 7.33348 6.00719
#
# Compressibility (1/GPa) = 0.06138852
#
# Stress axis : x y z
#
# Youngs Moduli (GPa) = 63.32258 116.87480 22.69380
#
# Poissons Ratio (x) = 0.33316 -0.22820
# Poissons Ratio (y) = 0.18050 0.24322
# Poissons Ratio (z) = -0.63674 1.25259
#
# Static dielectric constant tensor:
#      x y z
#    x 2.394850 0.000000 -0.184440 
#    y 0.000000 1.869470 0.000000 
#    z -0.184440 0.000000 1.896640 
# 
# From -- ./inp_files/130588.got.cif
#   From: 2010.05.17/outbox.cif.g08.bks.cpg/sg15_66_cif.got.tgz:130588.got - 2010.06.03 18:47:42.
