data_PCOD9287576
_publ_section_title
;
Structure prediction by ZEFSAII (Michael W. Deem and Ramdas Pophale) SiO2 
 PCOD9287576
Probable space group: C 2/C
;
_chemical_formula_sum "Si O2"
_cell_formula_units_Z 56
_cell_length_a 22.302360
_cell_length_b 22.634404
_cell_length_c 12.414496
_cell_angle_alpha 90.000000
_cell_angle_beta 26.689532
_cell_angle_gamma 90.000000
_cell_volume 2814.789759
_symmetry_space_group_name_H-M "C 2/C"
_symmetry_group_IT_number 15
_symmetry_cell_setting 'monoclinic'
loop_
_space_group_symop_operation_xyz
x,y,z
-x,y,1/2-z
-x,-y,-z
x,-y,1/2+z
1/2+x,1/2+y,z
1/2-x,1/2+y,1/2-z
1/2-x,1/2-y,-z
1/2+x,1/2-y,1/2+z
loop_
_atom_site_type_symbol
_atom_site_label
_atom_site_fract_x
_atom_site_fract_y
_atom_site_fract_z
Si Si1 0.500000 0.901277 0.750000
Si Si2 0.288331 0.628867 0.299640
Si Si3 0.486219 0.388968 0.897593
Si Si4 0.500000 0.101177 0.750000
Si Si5 0.753722 0.831875 0.410161
Si Si6 0.106263 0.019281 0.499846
Si Si7 0.604585 0.999311 0.926872
Si Si8 0.157608 0.796162 0.001796
O O1 0.609518 0.862572 0.635351
O O2 0.578614 0.944320 0.543340
O O3 0.386894 0.636832 0.241765
O O4 0.132156 0.633109 0.581548
O O5 0.338193 0.564154 0.177885
O O6 0.306607 0.671183 0.166789
O O7 0.500000 0.372918 0.750000
O O8 0.357165 0.363869 0.165515
O O9 0.464479 0.460435 0.932023
O O10 0.563808 0.059109 0.557609
O O11 0.807753 0.833076 0.445830
O O12 0.735175 0.765097 0.397285
O O13 0.239582 0.001526 0.352008
O O14 0.000000 0.049263 0.750000
O O15 0.500000 0.000000 0.000000
O O16 0.000000 0.784185 0.250000
#
# Coordination Sequence:
#
# PCOD9287576 Si02
#       8
#     4   8   8   4   8   8   8   8
#     4  11  22  38  62  92 128 172 205 268 316 372
#     4  11  23  44  65  92 130 171 219 259 326 383
#     4  11  24  42  65  96 135 167 207 266 323 390
#     4   9  24  38  56  94 124 164 211 256 310 398
#     4  11  24  43  67  96 127 165 225 266 326 368
#     4  10  22  37  61  96 124 171 215 259 318 380
#     4  10  22  37  57  87 132 167 208 252 314 386
#     4  11  23  44  70  94 123 167 221 280 309 378
#
# _framework density 19.894914
#
# number of rings (size 3 to 8) (size 9 to 14) (size 15 to 20)
#    0.000    1.429    3.571    0.857    8.000    0.000 
#    1.286    0.714    0.000    0.000    0.000    0.000 
#    0.000    0.000    0.000    0.000    0.000    0.000 
#
# Total GULP energy -156275.373494 kJ/mol
# GULP energy per Si atom -5581.263339 kJ/mol
# Density = 1.984963 g / cm^3
# Si number density = 19.894914 Si / 1000 Ang^3
#
#
#
# Elastic Constant Matrix: (Units=GPa)
#
#
# Indices 1 2 3 4 5 6 
#
# 1 142.5264 19.8395 39.5977 -0.0013 -13.7810 0.0007
# 2 19.8395 42.3594 10.2936 -0.0037 4.3248 -0.0003
# 3 39.5977 10.2936 120.8791 -0.0012 -18.4881 0.0000
# 4 -0.0013 -0.0037 -0.0012 32.0257 0.0006 6.7072
# 5 -13.7810 4.3248 -18.4881 0.0006 30.2616 0.0000
# 6 0.0007 -0.0003 0.0000 6.7072 0.0000 33.0065
#
#
#
# Elastic Compliance Matrix: (Units=1/GPa)
#
#
# Indices 1 2 3 4 5 6 
#
# 1 0.008389 -0.003782 -0.001940 0.000000 0.003175 0.000000
# 2 -0.003782 0.026571 -0.002061 0.000003 -0.006779 0.000000
# 3 -0.001940 -0.002061 0.009921 0.000000 0.005472 0.000000
# 4 0.000000 0.000003 0.000000 0.032613 -0.000001 -0.006627
# 5 0.003175 -0.006779 0.005472 -0.000001 0.038803 0.000000
# 6 0.000000 0.000000 0.000000 -0.006627 0.000000 0.031644
#
#
# Mechanical properties :
#
#
# Convention : Reuss Voigt Hill
#
# Bulk Modulus (GPa) = 34.11144 49.46960 41.79052
# Shear Modulus (GPa) = 28.85543 34.79437 31.82490
#
# Velocity S-wave (km/s) = 3.81253 4.18653 4.00390
# Velocity P-wave (km/s) = 6.04678 6.94902 6.51354
#
# Compressibility (1/GPa) = 0.02931567
#
# Stress axis : x y z
#
# Youngs Moduli (GPa) = 119.20761 37.63434 100.79915
#
# Poissons Ratio (x) = 0.14232 0.19558
# Poissons Ratio (y) = 0.45080 0.20772
# Poissons Ratio (z) = 0.23130 0.07755
#
# Static dielectric constant tensor:
#      x y z
#    x 1.768230 0.000000 -0.046130 
#    y 0.000000 1.724960 0.000000 
#    z -0.046130 0.000000 1.698200 
# 
# From -- ./inp_files/114722.got.cif
#   From: 2010.05.17/outbox.cif.g08.bks.cpg/sg15_58_cif.got.tgz:114722.got - 2010.06.03 18:47:42.
