data_PCOD9287624
_publ_section_title
;
Structure prediction by ZEFSAII (Michael W. Deem and Ramdas Pophale) SiO2 
 PCOD9287624
Probable space group: C 2/C
;
_chemical_formula_sum "Si O2"
_cell_formula_units_Z 40
_cell_length_a 13.703743
_cell_length_b 5.355936
_cell_length_c 23.394447
_cell_angle_alpha 90.000000
_cell_angle_beta 90.221238
_cell_angle_gamma 90.000000
_cell_volume 1717.054698
_symmetry_space_group_name_H-M "C 2/C"
_symmetry_group_IT_number 15
_symmetry_cell_setting 'monoclinic'
loop_
_space_group_symop_operation_xyz
x,y,z
-x,y,1/2-z
-x,-y,-z
x,-y,1/2+z
1/2+x,1/2+y,z
1/2-x,1/2+y,1/2-z
1/2-x,1/2-y,-z
1/2+x,1/2-y,1/2+z
loop_
_atom_site_type_symbol
_atom_site_label
_atom_site_fract_x
_atom_site_fract_y
_atom_site_fract_z
Si Si1 0.840626 0.329581 0.801000
Si Si2 0.419250 0.695014 0.022518
Si Si3 0.232245 0.177954 0.934657
Si Si4 0.427483 0.014751 0.411889
Si Si5 0.287553 0.167497 0.180601
O O1 0.923639 0.361771 0.849633
O O2 0.766027 0.563446 0.809995
O O3 0.863878 0.344671 0.733529
O O4 0.784211 0.069891 0.812366
O O5 0.333370 0.569230 0.058018
O O6 0.477051 0.893668 0.061148
O O7 0.500000 0.500000 0.000000
O O8 0.384795 0.811405 0.962579
O O9 0.341988 0.189523 0.910491
O O10 0.176490 0.328055 0.884642
O O11 0.250000 0.250000 0.000000
#
# Coordination Sequence:
#
# PCOD9287624 Si02
#       5
#     8   8   8   8   8
#     4   9  18  36  60  89 119 158 212 260 313 377
#     4  11  22  37  55  94 125 159 210 259 318 385
#     4  11  20  36  62  92 123 165 209 261 323 381
#     4  10  22  37  60  89 121 170 205 265 320 381
#     4   9  19  34  59  94 116 156 216 260 306 389
#
# _framework density 23.295703
#
# number of rings (size 3 to 8) (size 9 to 14) (size 15 to 20)
#    0.000    2.000    2.000    1.800    2.800    1.600 
#    0.000    0.000    0.000    1.200   20.800    0.000 
#    0.000    0.000    0.000    0.000    0.000    0.000 
#
# Total GULP energy -111342.434264 kJ/mol
# GULP energy per Si atom -5567.121713 kJ/mol
# Density = 2.324268 g / cm^3
# Si number density = 23.295703 Si / 1000 Ang^3
#
#
#
# Elastic Constant Matrix: (Units=GPa)
#
#
# Indices 1 2 3 4 5 6 
#
# 1 55.9284 17.8302 45.1375 0.0000 1.5012 0.0000
# 2 17.8302 99.8038 35.7237 0.0000 -3.1257 0.0000
# 3 45.1375 35.7237 257.6912 0.0000 51.0999 0.0000
# 4 0.0000 0.0000 0.0000 -24.3314 0.0000 -0.0864
# 5 1.5012 -3.1257 51.0999 0.0000 33.6706 0.0000
# 6 0.0000 0.0000 0.0000 -0.0864 0.0000 32.6928
#
#
#
# Elastic Compliance Matrix: (Units=1/GPa)
#
#
# Indices 1 2 3 4 5 6 
#
# 1 0.022274 -0.002055 -0.004838 0.000000 0.006158 0.000000
# 2 -0.002055 0.011249 -0.002038 0.000000 0.004229 0.000000
# 3 -0.004838 -0.002038 0.007160 0.000000 -0.010840 0.000000
# 4 0.000000 0.000000 0.000000 -0.041099 0.000000 -0.000109
# 5 0.006158 0.004229 -0.010840 0.000000 0.046269 0.000000
# 6 0.000000 0.000000 0.000000 -0.000109 0.000000 0.030588
#
#
# Mechanical properties :
#
#
# Convention : Reuss Voigt Hill
#
# Bulk Modulus (GPa) = 43.81830 67.86734 55.84282
# Shear Modulus (GPa) = 49.06329 29.38854 39.22591
#
# Velocity S-wave (km/s) = 4.59421 3.55567 4.10790
# Velocity P-wave (km/s) = 6.85513 6.78626 6.82078
#
# Compressibility (1/GPa) = 0.02282151
#
# Stress axis : x y z
#
# Youngs Moduli (GPa) = 44.89484 88.89912 139.66246
#
# Poissons Ratio (x) = 0.18267 0.67568
# Poissons Ratio (y) = 0.09225 0.28464
# Poissons Ratio (z) = 0.21720 0.18118
#
# Static dielectric constant tensor:
#      x y z
#    x 1.978500 0.000000 0.023630 
#    y 0.000000 2.040630 0.000000 
#    z 0.023630 0.000000 2.000320 
# 
# From -- ./inp_files/271625.got.cif
#   From: 2010.05.17/outbox.cif.g08.bks.cpg/sg15_136_cif.got.tgz:271625.got - 2010.06.03 18:47:42.
