data_PCOD9287682
_publ_section_title
;
Structure prediction by ZEFSAII (Michael W. Deem and Ramdas Pophale) SiO2 
 PCOD9287682
Probable space group: C 2/C
;
_chemical_formula_sum "Si O2"
_cell_formula_units_Z 56
_cell_length_a 8.072042
_cell_length_b 32.179873
_cell_length_c 11.626428
_cell_angle_alpha 90.000000
_cell_angle_beta 62.981152
_cell_angle_gamma 90.000000
_cell_volume 2690.432534
_symmetry_space_group_name_H-M "C 2/C"
_symmetry_group_IT_number 15
_symmetry_cell_setting 'monoclinic'
loop_
_space_group_symop_operation_xyz
x,y,z
-x,y,1/2-z
-x,-y,-z
x,-y,1/2+z
1/2+x,1/2+y,z
1/2-x,1/2+y,1/2-z
1/2-x,1/2-y,-z
1/2+x,1/2-y,1/2+z
loop_
_atom_site_type_symbol
_atom_site_label
_atom_site_fract_x
_atom_site_fract_y
_atom_site_fract_z
Si Si1 0.501809 0.279513 0.890708
Si Si2 0.677633 0.543618 0.620565
Si Si3 0.289600 0.155029 0.363328
Si Si4 0.417578 0.427620 0.606209
Si Si5 0.785614 0.545433 0.117271
Si Si6 0.078067 0.387659 0.459622
Si Si7 0.897228 0.689419 0.905534
O O1 0.500000 0.282010 0.750000
O O2 0.687831 0.301919 0.873145
O O3 0.486285 0.231262 0.932476
O O4 0.322534 0.302024 0.005586
O O5 0.500000 0.531698 0.750000
O O6 0.613398 0.558800 0.514936
O O7 0.799501 0.502041 0.572745
O O8 0.778252 0.582561 0.651533
O O9 0.500000 0.154390 0.250000
O O10 0.159240 0.119047 0.350412
O O11 0.308276 0.141320 0.489171
O O12 0.288955 0.455302 0.729264
O O13 0.625382 0.434134 0.587078
O O14 0.958389 0.576689 0.060646
O O15 0.944940 0.355564 0.439659
O O16 0.000000 0.689136 0.750000
#
# Coordination Sequence:
#
# PCOD9287682 Si02
#       7
#     8   8   8   8   8   8   8
#     4  10  22  41  71  95 124 169 213 263 315 386
#     4  11  24  40  58  88 129 167 206 262 320 378
#     4  11  21  36  62  99 129 155 207 270 315 373
#     4  10  22  37  63  89 120 160 215 262 304 368
#     4  11  21  40  64  85 119 168 216 266 308 368
#     4  11  24  39  60  91 126 163 206 254 321 376
#     4  10  23  45  65  94 130 166 216 259 316 393
#
# _framework density 20.814495999999998
#
# number of rings (size 3 to 8) (size 9 to 14) (size 15 to 20)
#    0.000    1.429    2.857    2.571    2.000    4.000 
#    0.000    0.714    0.000    0.000    0.000    0.000 
#    0.000    0.000    0.000    0.000    0.000    0.000 
#
# Total GULP energy -156101.783215 kJ/mol
# GULP energy per Si atom -5575.063686 kJ/mol
# Density = 2.076712 g / cm^3
# Si number density = 20.814496 Si / 1000 Ang^3
#
#
#
# Elastic Constant Matrix: (Units=GPa)
#
#
# Indices 1 2 3 4 5 6 
#
# 1 49.9806 39.9073 14.7926 0.0000 -15.4958 0.0000
# 2 39.9073 117.5657 15.0766 0.0000 -12.4289 0.0000
# 3 14.7926 15.0766 62.3710 0.0000 -10.5581 0.0000
# 4 0.0000 0.0000 0.0000 24.8536 0.0000 -9.3514
# 5 -15.4958 -12.4289 -10.5581 0.0000 20.9004 0.0000
# 6 0.0000 0.0000 0.0000 -9.3514 0.0000 37.0483
#
#
#
# Elastic Compliance Matrix: (Units=1/GPa)
#
#
# Indices 1 2 3 4 5 6 
#
# 1 0.033807 -0.009202 -0.002709 0.000000 0.018224 0.000000
# 2 -0.009202 0.011694 -0.000680 0.000000 -0.000212 0.000000
# 3 -0.002709 -0.000680 0.017968 0.000000 0.006664 0.000000
# 4 0.000000 0.000000 0.000000 0.044458 0.000000 0.011222
# 5 0.018224 -0.000212 0.006664 0.000000 0.064598 0.000000
# 6 0.000000 0.000000 0.000000 0.011222 0.000000 0.029824
#
#
# Mechanical properties :
#
#
# Convention : Reuss Voigt Hill
#
# Bulk Modulus (GPa) = 26.11792 41.05224 33.58508
# Shear Modulus (GPa) = 20.80792 27.23651 24.02221
#
# Velocity S-wave (km/s) = 3.16521 3.62129 3.40090
# Velocity P-wave (km/s) = 5.09247 6.10334 5.62068
#
# Compressibility (1/GPa) = 0.03828789
#
# Stress axis : x y z
#
# Youngs Moduli (GPa) = 29.57992 85.51260 55.65447
#
# Poissons Ratio (x) = 0.78685 0.15075
# Poissons Ratio (y) = 0.27218 0.03786
# Poissons Ratio (z) = 0.08012 0.05817
#
# Static dielectric constant tensor:
#      x y z
#    x 1.770490 0.000000 -0.016680 
#    y 0.000000 1.757390 0.000000 
#    z -0.016680 0.000000 1.774520 
# 
# From -- ./inp_files/82457.got.cif
#   From: 2010.05.17/outbox.cif.g08.bks.cpg/sg15_42_cif.got.tgz:82457.got - 2010.06.03 18:47:42.
