data_PCOD9287263
_publ_section_title
;
Structure prediction by ZEFSAII (Michael W. Deem and Ramdas Pophale) SiO2 
 PCOD9287263
Probable space group: C 2/C
;
_chemical_formula_sum "Si O2"
_cell_formula_units_Z 56
_cell_length_a 17.945624
_cell_length_b 17.178062
_cell_length_c 21.355886
_cell_angle_alpha 90.000000
_cell_angle_beta 23.897453
_cell_angle_gamma 90.000000
_cell_volume 2666.942054
_symmetry_space_group_name_H-M "C 2/C"
_symmetry_group_IT_number 15
_symmetry_cell_setting 'monoclinic'
loop_
_space_group_symop_operation_xyz
x,y,z
-x,y,1/2-z
-x,-y,-z
x,-y,1/2+z
1/2+x,1/2+y,z
1/2-x,1/2+y,1/2-z
1/2-x,1/2-y,-z
1/2+x,1/2-y,1/2+z
loop_
_atom_site_type_symbol
_atom_site_label
_atom_site_fract_x
_atom_site_fract_y
_atom_site_fract_z
Si Si1 0.937474 0.639022 0.107518
Si Si2 0.000000 0.265152 0.750000
Si Si3 0.955162 0.137682 0.685653
Si Si4 0.000000 0.542885 0.750000
Si Si5 0.203304 0.998717 0.262325
Si Si6 0.681111 0.903911 0.536996
Si Si7 0.072282 0.201872 0.460088
Si Si8 0.325094 0.419510 0.083921
O O1 0.847584 0.567259 0.138913
O O2 0.027518 0.707121 0.997371
O O3 0.764257 0.676240 0.280488
O O4 0.083128 0.610208 0.046763
O O5 0.091774 0.209939 0.732207
O O6 0.869015 0.324580 0.886748
O O7 0.104471 0.091763 0.612591
O O8 0.047831 0.169354 0.549871
O O9 0.807110 0.075815 0.774236
O O10 0.904809 0.482329 0.870331
O O11 0.843239 0.589259 0.833813
O O12 0.996195 0.033913 0.421952
O O13 0.235349 0.969873 0.309018
O O14 0.913304 0.159055 0.542582
#
# Coordination Sequence:
#
# PCOD9287263 Si02
#       8
#     8   4   8   4   8   8   8   8
#     4  11  21  36  57  84 115 145 189 227 281 328
#     4  11  22  30  50  81 120 142 172 219 292 340
#     4  11  21  34  52  77 119 148 185 219 283 333
#     4  11  16  30  54  79 106 128 188 237 262 310
#     4   9  18  34  51  75 107 150 183 228 265 335
#     4  11  21  29  51  86 112 142 171 228 272 339
#     4  10  22  35  56  80 115 151 183 229 274 336
#     4   9  17  31  52  79 103 139 186 231 274 306
#
# _framework density 20.997831999999999
#
# number of rings (size 3 to 8) (size 9 to 14) (size 15 to 20)
#    0.000    1.714    4.286    3.000    2.000    0.000 
#    0.000    0.000    3.143    6.857    0.000    0.000 
#    0.000    0.000    0.000    0.000    0.000    0.000 
#
# Total GULP energy -156478.625812 kJ/mol
# GULP energy per Si atom -5588.522350 kJ/mol
# Density = 2.095004 g / cm^3
# Si number density = 20.997832 Si / 1000 Ang^3
#
#
#
# Elastic Constant Matrix: (Units=GPa)
#
#
# Indices 1 2 3 4 5 6 
#
# 1 118.8285 48.3748 52.9263 -0.0080 -32.3781 0.0010
# 2 48.3748 96.0314 23.4838 0.0087 -5.1063 0.0099
# 3 52.9263 23.4838 50.8517 0.0033 -7.0265 0.0138
# 4 -0.0080 0.0087 0.0033 29.8306 0.0082 -6.0201
# 5 -32.3781 -5.1063 -7.0265 0.0082 40.2839 -0.0043
# 6 0.0010 0.0099 0.0138 -6.0201 -0.0043 38.3922
#
#
#
# Elastic Compliance Matrix: (Units=1/GPa)
#
#
# Indices 1 2 3 4 5 6 
#
# 1 0.023991 -0.006413 -0.019937 0.000009 0.014992 0.000011
# 2 -0.006413 0.013465 -0.000021 -0.000006 -0.003451 -0.000005
# 3 -0.019937 -0.000021 0.039154 -0.000010 -0.009197 -0.000016
# 4 0.000009 -0.000006 -0.000010 0.034618 -0.000002 0.005428
# 5 0.014992 -0.003451 -0.009197 -0.000002 0.034832 0.000007
# 6 0.000011 -0.000005 -0.000016 0.005428 0.000007 0.026898
#
#
# Mechanical properties :
#
#
# Convention : Reuss Voigt Hill
#
# Bulk Modulus (GPa) = 41.89449 57.25348 49.57399
# Shear Modulus (GPa) = 21.39902 31.09647 26.24774
#
# Velocity S-wave (km/s) = 3.19581 3.85247 3.53940
# Velocity P-wave (km/s) = 5.79765 6.86398 6.35323
#
# Compressibility (1/GPa) = 0.02386949
#
# Stress axis : x y z
#
# Youngs Moduli (GPa) = 41.68240 74.26566 25.54018
#
# Poissons Ratio (x) = 0.47624 0.50919
# Poissons Ratio (y) = 0.26729 0.00054
# Poissons Ratio (z) = 0.83101 0.00156
#
# Static dielectric constant tensor:
#      x y z
#    x 1.739530 0.000000 0.027790 
#    y 0.000000 1.756970 0.000020 
#    z 0.027790 0.000020 1.848680 
# 
# From -- ./inp_files/245147.got.cif
#   From: 2010.05.17/outbox.cif.g08.bks.cpg/sg15_123_cif.got.tgz:245147.got - 2010.06.03 18:47:42.
