data_PCOD9287764
_publ_section_title
;
Structure prediction by ZEFSAII (Michael W. Deem and Ramdas Pophale) SiO2 
 PCOD9287764
Probable space group: C 2/C
;
_chemical_formula_sum "Si O2"
_cell_formula_units_Z 60
_cell_length_a 5.395367
_cell_length_b 18.320827
_cell_length_c 27.292285
_cell_angle_alpha 90.000000
_cell_angle_beta 93.805788
_cell_angle_gamma 90.000000
_cell_volume 2691.827250
_symmetry_space_group_name_H-M "C 2/C"
_symmetry_group_IT_number 15
_symmetry_cell_setting 'monoclinic'
loop_
_space_group_symop_operation_xyz
x,y,z
-x,y,1/2-z
-x,-y,-z
x,-y,1/2+z
1/2+x,1/2+y,z
1/2-x,1/2+y,1/2-z
1/2-x,1/2-y,-z
1/2+x,1/2-y,1/2+z
loop_
_atom_site_type_symbol
_atom_site_label
_atom_site_fract_x
_atom_site_fract_y
_atom_site_fract_z
Si Si1 0.307851 0.820484 0.848032
Si Si2 0.755373 0.081018 0.003679
Si Si3 0.062993 0.821933 0.377225
Si Si4 0.500000 0.824508 0.750000
Si Si5 0.399432 0.787562 0.297331
Si Si6 0.227068 0.548845 0.889453
Si Si7 0.774752 0.028359 0.106350
Si Si8 0.751923 0.835137 0.012072
O O1 0.503707 0.764519 0.874834
O O2 0.406676 0.859193 0.799269
O O3 0.237756 0.885793 0.882351
O O4 0.093962 0.763706 0.828883
O O5 0.742691 0.049780 0.948798
O O6 0.508823 0.129766 0.006137
O O7 0.009662 0.127295 0.009698
O O8 0.757830 0.022425 0.047019
O O9 0.235633 0.834411 0.332480
O O10 0.204656 0.842505 0.428766
O O11 0.810662 0.870087 0.373470
O O12 0.282731 0.771599 0.729371
O O13 0.500000 0.828085 0.250000
O O14 0.458419 0.500834 0.873812
O O15 0.960159 0.514597 0.874380
O O16 0.750000 0.750000 0.000000
#
# Coordination Sequence:
#
# PCOD9287764 Si02
#       8
#     8   8   8   4   8   8   8   8
#     4  10  22  37  70  93 124 163 214 270 320 390
#     4  11  23  41  60  86 130 184 221 255 310 387
#     4  10  23  38  64  91 130 168 213 267 325 382
#     4   8  18  40  60  98 122 158 200 266 326 392
#     4   9  19  37  67  97 123 159 213 265 328 397
#     4  11  25  42  61  93 133 177 214 264 318 373
#     4  12  25  41  66  95 128 174 227 264 312 383
#     4  11  23  36  60  95 133 167 213 275 323 360
#
# _framework density 22.289693
#
# number of rings (size 3 to 8) (size 9 to 14) (size 15 to 20)
#    0.000    1.600    0.000    4.400   11.200    0.000 
#    0.000    0.000    1.467    0.000    0.000    0.000 
#    0.000    0.000    0.000    0.000    0.000    0.000 
#
# Total GULP energy -167599.086619 kJ/mol
# GULP energy per Si atom -5586.636221 kJ/mol
# Density = 2.223896 g / cm^3
# Si number density = 22.289693 Si / 1000 Ang^3
#
#
#
# Elastic Constant Matrix: (Units=GPa)
#
#
# Indices 1 2 3 4 5 6 
#
# 1 148.0737 43.5608 22.7120 0.0000 -14.7076 0.0000
# 2 43.5608 95.6944 18.8739 0.0000 -8.0321 0.0000
# 3 22.7120 18.8739 71.1375 0.0000 -18.6045 0.0000
# 4 0.0000 0.0000 0.0000 19.4602 0.0000 -5.7604
# 5 -14.7076 -8.0321 -18.6045 0.0000 29.6294 0.0000
# 6 0.0000 0.0000 0.0000 -5.7604 0.0000 26.9795
#
#
#
# Elastic Compliance Matrix: (Units=1/GPa)
#
#
# Indices 1 2 3 4 5 6 
#
# 1 0.008129 -0.003280 -0.001080 0.000000 0.002468 0.000000
# 2 -0.003280 0.012398 -0.002140 0.000000 0.000389 0.000000
# 3 -0.001080 -0.002140 0.017562 0.000000 0.009911 0.000000
# 4 0.000000 0.000000 0.000000 0.054854 0.000000 0.011712
# 5 0.002468 0.000389 0.009911 0.000000 0.041304 0.000000
# 6 0.000000 0.000000 0.000000 0.011712 0.000000 0.039566
#
#
# Mechanical properties :
#
#
# Convention : Reuss Voigt Hill
#
# Bulk Modulus (GPa) = 39.85928 53.91097 46.88512
# Shear Modulus (GPa) = 25.61789 30.53108 28.07448
#
# Velocity S-wave (km/s) = 3.39383 3.70501 3.55283
# Velocity P-wave (km/s) = 5.76877 6.52241 6.15713
#
# Compressibility (1/GPa) = 0.02508826
#
# Stress axis : x y z
#
# Youngs Moduli (GPa) = 123.01398 80.65844 56.94151
#
# Poissons Ratio (x) = 0.26459 0.06147
# Poissons Ratio (y) = 0.40353 0.12188
# Poissons Ratio (z) = 0.13280 0.17264
#
# Static dielectric constant tensor:
#      x y z
#    x 1.905370 0.000000 -0.017090 
#    y 0.000000 1.787060 0.000000 
#    z -0.017090 0.000000 1.900140 
# 
# From -- ./inp_files/286081.got.cif
#   From: 2010.05.17/outbox.cif.g08.bks.cpg/sg15_144_cif.got.tgz:286081.got - 2010.06.03 18:47:42.
