data_PCOD9287457
_publ_section_title
;
Structure prediction by ZEFSAII (Michael W. Deem and Ramdas Pophale) SiO2 
 PCOD9287457
Probable space group: C 2/C
;
_chemical_formula_sum "Si O2"
_cell_formula_units_Z 52
_cell_length_a 9.062423
_cell_length_b 23.818935
_cell_length_c 14.960340
_cell_angle_alpha 90.000000
_cell_angle_beta 58.673943
_cell_angle_gamma 90.000000
_cell_volume 2758.538986
_symmetry_space_group_name_H-M "C 2/C"
_symmetry_group_IT_number 15
_symmetry_cell_setting 'monoclinic'
loop_
_space_group_symop_operation_xyz
x,y,z
-x,y,1/2-z
-x,-y,-z
x,-y,1/2+z
1/2+x,1/2+y,z
1/2-x,1/2+y,1/2-z
1/2-x,1/2-y,-z
1/2+x,1/2-y,1/2+z
loop_
_atom_site_type_symbol
_atom_site_label
_atom_site_fract_x
_atom_site_fract_y
_atom_site_fract_z
Si Si1 0.500000 0.598710 0.250000
Si Si2 0.270364 0.824800 0.575847
Si Si3 0.462147 0.091322 0.532483
Si Si4 0.164042 0.880765 0.256227
Si Si5 0.225958 0.501390 0.526150
Si Si6 0.308880 0.200513 0.853393
Si Si7 0.880928 0.008254 0.164255
O O1 0.399916 0.638807 0.350013
O O2 0.366104 0.556852 0.242583
O O3 0.431276 0.862553 0.555310
O O4 0.299541 0.815768 0.460771
O O5 0.254267 0.764964 0.628662
O O6 0.332891 0.120852 0.641535
O O7 0.352030 0.050352 0.504339
O O8 0.599747 0.053273 0.544267
O O9 0.192582 0.842295 0.333326
O O10 0.139766 0.946090 0.289816
O O11 0.000000 0.862844 0.250000
O O12 0.420601 0.513812 0.431576
O O13 0.250035 0.487640 0.622861
O O14 0.500000 0.197834 0.750000
#
# Coordination Sequence:
#
# PCOD9287457 Si02
#       7
#     4   8   8   8   8   8   8
#     4  12  22  40  64  98 140 166 206 270 332 380
#     4  11  24  42  69  95 126 167 222 274 320 381
#     4  11  21  41  62  93 129 167 213 269 318 393
#     4  12  24  41  64  94 130 172 214 267 325 388
#     4  10  22  36  62  93 133 171 210 255 328 393
#     4  11  24  45  70  93 120 174 230 267 318 388
#     4  11  22  38  59  98 132 173 208 259 329 391
#
# _framework density 18.850557999999999
#
# number of rings (size 3 to 8) (size 9 to 14) (size 15 to 20)
#    0.000    0.923    6.154    0.923    4.308    0.000 
#    0.000    2.308    0.000    0.000    0.000    0.000 
#    0.000    0.000    0.000    0.000    0.000    0.000 
#
# Total GULP energy -145260.565098 kJ/mol
# GULP energy per Si atom -5586.944811 kJ/mol
# Density = 1.880765 g / cm^3
# Si number density = 18.850558 Si / 1000 Ang^3
#
#
#
# Elastic Constant Matrix: (Units=GPa)
#
#
# Indices 1 2 3 4 5 6 
#
# 1 84.9783 25.7981 27.0140 0.0000 0.0818 0.0000
# 2 25.7981 108.0136 29.8055 0.0000 0.2942 0.0000
# 3 27.0140 29.8055 79.2413 0.0000 -3.5149 0.0000
# 4 0.0000 0.0000 0.0000 36.0396 0.0000 -2.8034
# 5 0.0818 0.2942 -3.5149 0.0000 23.4374 0.0000
# 6 0.0000 0.0000 0.0000 -2.8034 0.0000 17.9006
#
#
#
# Elastic Compliance Matrix: (Units=1/GPa)
#
#
# Indices 1 2 3 4 5 6 
#
# 1 0.013662 -0.002197 -0.003858 0.000000 -0.000599 0.000000
# 2 -0.002197 0.010696 -0.003302 0.000000 -0.000622 0.000000
# 3 -0.003858 -0.003302 0.015281 0.000000 0.002347 0.000000
# 4 0.000000 0.000000 0.000000 0.028089 0.000000 0.004399
# 5 -0.000599 -0.000622 0.002347 0.000000 0.043029 0.000000
# 6 0.000000 0.000000 0.000000 0.004399 0.000000 0.056553
#
#
# Mechanical properties :
#
#
# Convention : Reuss Voigt Hill
#
# Bulk Modulus (GPa) = 47.78819 48.60762 48.19790
# Shear Modulus (GPa) = 25.90723 28.11654 27.01189
#
# Velocity S-wave (km/s) = 3.71124 3.86625 3.78954
# Velocity P-wave (km/s) = 6.61593 6.76552 6.69114
#
# Compressibility (1/GPa) = 0.02092567
#
# Stress axis : x y z
#
# Youngs Moduli (GPa) = 73.19836 93.49692 65.44196
#
# Poissons Ratio (x) = 0.20540 0.25245
# Poissons Ratio (y) = 0.16080 0.21607
# Poissons Ratio (z) = 0.28237 0.30869
#
# Static dielectric constant tensor:
#      x y z
#    x 1.639700 0.000000 -0.001980 
#    y 0.000000 1.654680 0.000000 
#    z -0.001980 0.000000 1.687690 
# 
# From -- ./inp_files/137224.got.cif
#   From: 2010.05.17/outbox.cif.g08.bks.cpg/sg15_69_cif.got.tgz:137224.got - 2010.06.03 18:47:42.
