data_PCOD9287533
_publ_section_title
;
Structure prediction by ZEFSAII (Michael W. Deem and Ramdas Pophale) SiO2 
 PCOD9287533
Probable space group: C 2/C
;
_chemical_formula_sum "Si O2"
_cell_formula_units_Z 44
_cell_length_a 18.653752
_cell_length_b 5.170768
_cell_length_c 17.645331
_cell_angle_alpha 90.000000
_cell_angle_beta 82.871784
_cell_angle_gamma 90.000000
_cell_volume 1688.812119
_symmetry_space_group_name_H-M "C 2/C"
_symmetry_group_IT_number 15
_symmetry_cell_setting 'monoclinic'
loop_
_space_group_symop_operation_xyz
x,y,z
-x,y,1/2-z
-x,-y,-z
x,-y,1/2+z
1/2+x,1/2+y,z
1/2-x,1/2+y,1/2-z
1/2-x,1/2-y,-z
1/2+x,1/2-y,1/2+z
loop_
_atom_site_type_symbol
_atom_site_label
_atom_site_fract_x
_atom_site_fract_y
_atom_site_fract_z
Si Si1 0.500000 0.122137 0.750000
Si Si2 0.614377 0.220290 0.157298
Si Si3 0.204572 0.028761 0.762672
Si Si4 0.847423 0.606669 0.974985
Si Si5 0.352566 0.597208 0.064340
Si Si6 0.512954 0.607176 0.090957
O O1 0.431087 0.944404 0.776925
O O2 0.511679 0.288226 0.823289
O O3 0.651204 0.451870 0.198207
O O4 0.559553 0.354398 0.105769
O O5 0.669106 0.037289 0.102757
O O6 0.235716 0.316924 0.763702
O O7 0.171097 0.954580 0.847191
O O8 0.932023 0.679252 0.948889
O O9 0.836133 0.385739 0.038813
O O10 0.819681 0.881359 0.011076
O O11 0.439807 0.566904 0.054689
#
# Coordination Sequence:
#
# PCOD9287533 Si02
#       6
#     4   8   8   8   8   8
#     4  10  22  36  70 108 140 190 224 298 348 440
#     4  11  25  46  70 106 144 186 238 288 366 415
#     4  12  30  51  74  98 137 193 254 300 340 412
#     4  11  25  42  73 111 149 182 222 292 362 444
#     4  12  25  45  72 109 144 187 234 285 363 416
#     4  11  23  40  72 110 154 180 226 287 367 437
#
# _framework density 26.053815
#
# number of rings (size 3 to 8) (size 9 to 14) (size 15 to 20)
#    0.000    0.727    1.818    4.909   15.273    0.000 
#    0.000    5.455    0.000    0.000    0.000    0.000 
#    0.000    0.000    0.000    0.000    0.000    0.000 
#
# Total GULP energy -123346.764660 kJ/mol
# GULP energy per Si atom -5606.671121 kJ/mol
# Density = 2.599452 g / cm^3
# Si number density = 26.053815 Si / 1000 Ang^3
#
#
#
# Elastic Constant Matrix: (Units=GPa)
#
#
# Indices 1 2 3 4 5 6 
#
# 1 53.7040 10.9068 11.7076 0.0000 7.9635 0.0000
# 2 10.9068 141.5246 39.0766 0.0000 5.7822 0.0000
# 3 11.7076 39.0766 141.6342 0.0000 -12.4180 0.0000
# 4 0.0000 0.0000 0.0000 59.0949 0.0000 -5.0961
# 5 7.9635 5.7822 -12.4180 0.0000 33.0590 0.0000
# 6 0.0000 0.0000 0.0000 -5.0961 0.0000 36.9093
#
#
#
# Elastic Compliance Matrix: (Units=1/GPa)
#
#
# Indices 1 2 3 4 5 6 
#
# 1 0.019998 -0.000794 -0.001907 0.000000 -0.005394 0.000000
# 2 -0.000794 0.007838 -0.002275 0.000000 -0.002034 0.000000
# 3 -0.001907 -0.002275 0.008191 0.000000 0.003934 0.000000
# 4 0.000000 0.000000 0.000000 0.017126 0.000000 0.002365
# 5 -0.005394 -0.002034 0.003934 0.000000 0.033382 0.000000
# 6 0.000000 0.000000 0.000000 0.002365 0.000000 0.027420
#
#
# Mechanical properties :
#
#
# Convention : Reuss Voigt Hill
#
# Bulk Modulus (GPa) = 38.35254 51.13830 44.74542
# Shear Modulus (GPa) = 37.70778 44.15742 40.93260
#
# Velocity S-wave (km/s) = 3.80847 4.12133 3.96798
# Velocity P-wave (km/s) = 5.83881 6.50520 6.18100
#
# Compressibility (1/GPa) = 0.02607390
#
# Stress axis : x y z
#
# Youngs Moduli (GPa) = 50.00625 127.57575 122.08903
#
# Poissons Ratio (x) = 0.10132 0.23281
# Poissons Ratio (y) = 0.03972 0.27779
# Poissons Ratio (z) = 0.09535 0.29028
#
# Static dielectric constant tensor:
#      x y z
#    x 2.104180 0.000000 0.015700 
#    y 0.000000 1.983360 0.000000 
#    z 0.015700 0.000000 2.077680 
# 
# From -- ./inp_files/212880.got.cif
#   From: 2010.05.17/outbox.cif.g08.bks.cpg/sg15_107_cif.got.tgz:212880.got - 2010.06.03 18:47:42.
