data_PCOD9287563
_publ_section_title
;
Structure prediction by ZEFSAII (Michael W. Deem and Ramdas Pophale) SiO2 
 PCOD9287563
Probable space group: C 2/C
;
_chemical_formula_sum "Si O2"
_cell_formula_units_Z 52
_cell_length_a 23.927503
_cell_length_b 12.682847
_cell_length_c 7.540636
_cell_angle_alpha 90.000000
_cell_angle_beta 67.233455
_cell_angle_gamma 90.000000
_cell_volume 2110.061316
_symmetry_space_group_name_H-M "C 2/C"
_symmetry_group_IT_number 15
_symmetry_cell_setting 'monoclinic'
loop_
_space_group_symop_operation_xyz
x,y,z
-x,y,1/2-z
-x,-y,-z
x,-y,1/2+z
1/2+x,1/2+y,z
1/2-x,1/2+y,1/2-z
1/2-x,1/2-y,-z
1/2+x,1/2-y,1/2+z
loop_
_atom_site_type_symbol
_atom_site_label
_atom_site_fract_x
_atom_site_fract_y
_atom_site_fract_z
Si Si1 0.210123 0.572437 0.625350
Si Si2 0.500000 0.562879 0.750000
Si Si3 0.000000 0.304889 0.250000
Si Si4 0.000000 0.500000 0.500000
Si Si5 0.431681 0.624392 0.492910
Si Si6 0.842488 0.774593 0.332031
Si Si7 0.736472 0.365433 0.784642
Si Si8 0.379525 0.084863 0.469838
O O1 0.249866 0.485870 0.677565
O O2 0.252164 0.636340 0.439167
O O3 0.165567 0.627183 0.820979
O O4 0.161468 0.503821 0.573711
O O5 0.478926 0.624611 0.601859
O O6 0.554134 0.483054 0.627136
O O7 0.993183 0.381144 0.091953
O O8 0.944981 0.224069 0.352052
O O9 0.059615 0.474665 0.553596
O O10 0.367796 0.641859 0.662781
O O11 0.787847 0.709982 0.308833
O O12 0.822845 0.832283 0.535955
O O13 0.890054 0.682122 0.324474
#
# Coordination Sequence:
#
# PCOD9287563 Si02
#       8
#     8   4   4   4   8   8   8   8
#     4   9  19  38  60  81 126 168 208 258 322 380
#     4   9  22  47  68  86 124 161 222 275 326 380
#     4  11  28  37  62  96 132 171 216 255 326 396
#     4  12  26  38  58  98 134 172 214 254 312 424
#     4  10  23  44  65  91 123 169 212 276 327 382
#     4  10  22  38  61  91 125 161 211 269 321 384
#     4   9  20  38  60  89 122 160 212 263 317 388
#     4  10  22  37  56  88 129 174 204 258 320 387
#
# _framework density 24.643832
#
# number of rings (size 3 to 8) (size 9 to 14) (size 15 to 20)
#    0.000    2.154    0.000    0.923   12.923    1.846 
#    0.000    0.000    0.000    0.000    0.000    0.000 
#    0.000    0.000    0.000    0.000    0.000    0.000 
#
# Total GULP energy -144845.342061 kJ/mol
# GULP energy per Si atom -5570.974695 kJ/mol
# Density = 2.458774 g / cm^3
# Si number density = 24.643832 Si / 1000 Ang^3
#
#
#
# Elastic Constant Matrix: (Units=GPa)
#
#
# Indices 1 2 3 4 5 6 
#
# 1 23.4082 18.8377 -4.4073 0.0000 -0.6430 0.0000
# 2 18.8377 92.5707 46.7044 0.0000 -9.0642 0.0000
# 3 -4.4073 46.7044 121.5903 0.0000 -21.3749 0.0000
# 4 0.0000 0.0000 0.0000 53.3954 0.0000 7.1179
# 5 -0.6430 -9.0642 -21.3749 0.0000 26.8250 0.0000
# 6 0.0000 0.0000 0.0000 7.1179 0.0000 15.8679
#
#
#
# Elastic Compliance Matrix: (Units=1/GPa)
#
#
# Indices 1 2 3 4 5 6 
#
# 1 0.057013 -0.015650 0.008592 0.000000 0.002925 0.000000
# 2 -0.015650 0.017701 -0.007420 0.000000 -0.000307 0.000000
# 3 0.008592 -0.007420 0.012770 0.000000 0.007874 0.000000
# 4 0.000000 0.000000 0.000000 0.019919 0.000000 -0.008935
# 5 0.002925 -0.000307 0.007874 0.000000 0.043520 0.000000
# 6 0.000000 0.000000 0.000000 -0.008935 0.000000 0.067028
#
#
# Mechanical properties :
#
#
# Convention : Reuss Voigt Hill
#
# Bulk Modulus (GPa) = 17.08614 39.98209 28.53411
# Shear Modulus (GPa) = 18.76753 30.97998 24.87376
#
# Velocity S-wave (km/s) = 2.76261 3.54942 3.18044
# Velocity P-wave (km/s) = 4.13816 5.74952 5.00906
#
# Compressibility (1/GPa) = 0.05852697
#
# Stress axis : x y z
#
# Youngs Moduli (GPa) = 17.53991 56.49362 78.30659
#
# Poissons Ratio (x) = 0.88415 -0.67283
# Poissons Ratio (y) = 0.27451 0.58107
# Poissons Ratio (z) = -0.15071 0.41921
#
# Static dielectric constant tensor:
#      x y z
#    x 1.920810 0.000000 -0.023900 
#    y 0.000000 1.908440 0.000000 
#    z -0.023900 0.000000 2.076290 
# 
# From -- ./inp_files/65401.got.cif
#   From: 2010.05.17/outbox.cif.g08.bks.cpg/sg15_33_cif.got.tgz:65401.got - 2010.06.03 18:47:42.
