data_PCOD9287360
_publ_section_title
;
Structure prediction by ZEFSAII (Michael W. Deem and Ramdas Pophale) SiO2 
 PCOD9287360
Probable space group: C 2/C
;
_chemical_formula_sum "Si O2"
_cell_formula_units_Z 48
_cell_length_a 23.285451
_cell_length_b 10.276900
_cell_length_c 22.028574
_cell_angle_alpha 90.000000
_cell_angle_beta 22.726565
_cell_angle_gamma 90.000000
_cell_volume 2036.553385
_symmetry_space_group_name_H-M "C 2/C"
_symmetry_group_IT_number 15
_symmetry_cell_setting 'monoclinic'
loop_
_space_group_symop_operation_xyz
x,y,z
-x,y,1/2-z
-x,-y,-z
x,-y,1/2+z
1/2+x,1/2+y,z
1/2-x,1/2+y,1/2-z
1/2-x,1/2-y,-z
1/2+x,1/2-y,1/2+z
loop_
_atom_site_type_symbol
_atom_site_label
_atom_site_fract_x
_atom_site_fract_y
_atom_site_fract_z
Si Si1 0.618782 0.379645 0.958074
Si Si2 0.000000 0.065590 0.250000
Si Si3 0.886606 0.395752 0.485327
Si Si4 0.270935 0.619860 0.014756
Si Si5 0.465430 0.891964 0.584908
Si Si6 0.540924 0.637344 0.347070
Si Si7 0.000000 0.461107 0.250000
O O1 0.644654 0.357682 0.004930
O O2 0.786314 0.387727 0.768137
O O3 0.529076 0.255793 0.019055
O O4 0.531972 0.519021 0.043397
O O5 0.860428 0.971985 0.382468
O O6 0.011528 0.127253 0.172434
O O7 0.985367 0.280745 0.418990
O O8 0.718321 0.374480 0.671182
O O9 0.910064 0.385352 0.389601
O O10 0.944367 0.537288 0.448589
O O11 0.116178 0.547745 0.173659
O O12 0.250000 0.750000 0.000000
O O13 0.500000 0.000000 0.500000
#
# Coordination Sequence:
#
# PCOD9287360 Si02
#       7
#     8   4   8   8   8   8   4
#     4  11  26  48  73 107 143 188 247 304 369 440
#     4  10  22  36  58 100 141 196 229 282 363 426
#     4  12  25  44  69 108 146 201 244 302 368 438
#     4  11  22  36  64 104 148 194 234 292 363 446
#     4  12  28  51  78 105 143 191 247 312 367 434
#     4  11  25  43  69 102 153 189 247 295 363 444
#     4  12  22  38  68 102 155 190 247 294 367 440
#
# _framework density 23.569233000000001
#
# number of rings (size 3 to 8) (size 9 to 14) (size 15 to 20)
#    0.000    0.667    3.333    4.000    7.000    4.000 
#    0.000    2.500    0.000    0.000    0.000    0.000 
#    0.000    0.000    0.000    0.000    0.000    0.000 
#
# Total GULP energy -134063.219123 kJ/mol
# GULP energy per Si atom -5585.967463 kJ/mol
# Density = 2.351559 g / cm^3
# Si number density = 23.569233 Si / 1000 Ang^3
#
#
#
# Elastic Constant Matrix: (Units=GPa)
#
#
# Indices 1 2 3 4 5 6 
#
# 1 45.7798 22.4059 16.3240 0.0001 8.5419 0.0001
# 2 22.4059 142.9439 76.0621 0.0001 -10.9650 -0.0001
# 3 16.3240 76.0621 144.5546 0.0000 -45.4621 0.0002
# 4 0.0001 0.0001 0.0000 26.7465 -0.0001 -4.8396
# 5 8.5419 -10.9650 -45.4621 -0.0001 37.7106 0.0001
# 6 0.0001 -0.0001 0.0002 -4.8396 0.0001 50.3011
#
#
#
# Elastic Compliance Matrix: (Units=1/GPa)
#
#
# Indices 1 2 3 4 5 6 
#
# 1 0.028137 -0.001836 -0.007061 0.000000 -0.015419 0.000000
# 2 -0.001836 0.010564 -0.006852 0.000000 -0.004773 0.000000
# 3 -0.007061 -0.006852 0.018035 0.000000 0.021349 0.000000
# 4 0.000000 0.000000 0.000000 0.038051 0.000000 0.003661
# 5 -0.015419 -0.004773 0.021349 0.000000 0.054360 0.000000
# 6 0.000000 0.000000 0.000000 0.003661 0.000000 0.020233
#
#
# Mechanical properties :
#
#
# Convention : Reuss Voigt Hill
#
# Bulk Modulus (GPa) = 39.62345 62.54025 51.08185
# Shear Modulus (GPa) = 23.89050 37.51739 30.70395
#
# Velocity S-wave (km/s) = 3.18721 3.99406 3.61323
# Velocity P-wave (km/s) = 5.51293 6.91826 6.25519
#
# Compressibility (1/GPa) = 0.02523758
#
# Stress axis : x y z
#
# Youngs Moduli (GPa) = 35.54036 94.66531 55.44842
#
# Poissons Ratio (x) = 0.17382 0.39150
# Poissons Ratio (y) = 0.06526 0.37994
# Poissons Ratio (z) = 0.25094 0.64866
#
# Static dielectric constant tensor:
#      x y z
#    x 1.938050 0.000000 0.038870 
#    y 0.000000 1.880730 0.000000 
#    z 0.038870 0.000000 1.870850 
# 
# From -- ./inp_files/215905.got.cif
#   From: 2010.05.17/outbox.cif.g08.bks.cpg/sg15_108_cif.got.tgz:215905.got - 2010.06.03 18:47:42.
