data_PCOD9287182
_publ_section_title
;
Structure prediction by ZEFSAII (Michael W. Deem and Ramdas Pophale) SiO2 
 PCOD9287182
Probable space group: C 2/C
;
_chemical_formula_sum "Si O2"
_cell_formula_units_Z 44
_cell_length_a 24.429026
_cell_length_b 11.251541
_cell_length_c 9.362768
_cell_angle_alpha 90.000000
_cell_angle_beta 58.770926
_cell_angle_gamma 90.000000
_cell_volume 2200.594279
_symmetry_space_group_name_H-M "C 2/C"
_symmetry_group_IT_number 15
_symmetry_cell_setting 'monoclinic'
loop_
_space_group_symop_operation_xyz
x,y,z
-x,y,1/2-z
-x,-y,-z
x,-y,1/2+z
1/2+x,1/2+y,z
1/2-x,1/2+y,1/2-z
1/2-x,1/2-y,-z
1/2+x,1/2-y,1/2+z
loop_
_atom_site_type_symbol
_atom_site_label
_atom_site_fract_x
_atom_site_fract_y
_atom_site_fract_z
Si Si1 0.674785 0.752415 0.644361
Si Si2 0.217759 0.440479 0.793008
Si Si3 0.083843 0.061536 0.888971
Si Si4 0.142657 0.814621 0.887727
Si Si5 0.500000 0.533653 0.250000
Si Si6 0.799940 0.351535 0.384946
O O1 0.750000 0.750000 0.500000
O O2 0.670975 0.863318 0.755839
O O3 0.646677 0.637440 0.765317
O O4 0.636376 0.751462 0.547287
O O5 0.286593 0.375575 0.701228
O O6 0.225305 0.568467 0.711245
O O7 0.192396 0.435270 0.988500
O O8 0.099134 0.926837 0.915352
O O9 0.042420 0.045853 0.801144
O O10 0.044696 0.107810 0.079722
O O11 0.141373 0.721644 0.759897
O O12 0.750000 0.250000 0.500000
#
# Coordination Sequence:
#
# PCOD9287182 Si02
#       6
#     8   8   8   8   4   8
#     4  10  22  36  58  88 129 170 202 268 338 393
#     4  10  22  34  54  84 129 166 213 250 329 404
#     4  11  22  40  62  93 127 171 228 271 333 382
#     4  10  22  33  59  82 125 167 212 262 327 384
#     4  10  24  40  62  90 128 176 232 280 310 382
#     4  10  22  34  53  81 123 171 211 249 312 399
#
# _framework density 19.994598
#
# number of rings (size 3 to 8) (size 9 to 14) (size 15 to 20)
#    0.000    1.818    1.818    1.091   20.364    0.000 
#    0.000    0.000    0.000    0.000    0.000    7.636 
#    0.000    0.000    0.000    0.000    0.000    0.000 
#
# Total GULP energy -122587.539050 kJ/mol
# GULP energy per Si atom -5572.160866 kJ/mol
# Density = 1.994909 g / cm^3
# Si number density = 19.994598 Si / 1000 Ang^3
#
#
#
# Elastic Constant Matrix: (Units=GPa)
#
#
# Indices 1 2 3 4 5 6 
#
# 1 68.2160 29.3755 38.9227 0.0000 12.9642 0.0000
# 2 29.3755 65.4150 37.9415 0.0000 13.3255 0.0000
# 3 38.9227 37.9415 145.3259 0.0000 23.1549 0.0000
# 4 0.0000 0.0000 0.0000 41.1261 0.0000 10.1270
# 5 12.9642 13.3255 23.1549 0.0000 28.1540 0.0000
# 6 0.0000 0.0000 0.0000 10.1270 0.0000 19.6560
#
#
#
# Elastic Compliance Matrix: (Units=1/GPa)
#
#
# Indices 1 2 3 4 5 6 
#
# 1 0.019851 -0.006401 -0.003075 0.000000 -0.003582 0.000000
# 2 -0.006401 0.020811 -0.003014 0.000000 -0.004423 0.000000
# 3 -0.003075 -0.003014 0.009251 0.000000 -0.004766 0.000000
# 4 0.000000 0.000000 0.000000 0.027848 0.000000 -0.014348
# 5 -0.003582 -0.004423 -0.004766 0.000000 0.043182 0.000000
# 6 0.000000 0.000000 0.000000 -0.014348 0.000000 0.058267
#
#
# Mechanical properties :
#
#
# Convention : Reuss Voigt Hill
#
# Bulk Modulus (GPa) = 40.10783 54.60401 47.35592
# Shear Modulus (GPa) = 23.52930 29.30171 26.41550
#
# Velocity S-wave (km/s) = 3.43415 3.83231 3.63868
# Velocity P-wave (km/s) = 5.98560 6.85207 6.43344
#
# Compressibility (1/GPa) = 0.02493279
#
# Stress axis : x y z
#
# Youngs Moduli (GPa) = 50.37522 48.05187 108.09843
#
# Poissons Ratio (x) = 0.30759 0.33237
# Poissons Ratio (y) = 0.32246 0.32581
# Poissons Ratio (z) = 0.15489 0.14483
#
# Static dielectric constant tensor:
#      x y z
#    x 1.754430 0.000000 0.005230 
#    y 0.000000 1.757530 0.000000 
#    z 0.005230 0.000000 1.804860 
# 
# From -- ./inp_files/60482.got.cif
#   From: 2010.05.17/outbox.cif.g08.bks.cpg/sg15_31_cif.got.tgz:60482.got - 2010.06.03 18:47:42.
