data_PCOD9287511
_publ_section_title
;
Structure prediction by ZEFSAII (Michael W. Deem and Ramdas Pophale) SiO2 
 PCOD9287511
Probable space group: C 2/C
;
_chemical_formula_sum "Si O2"
_cell_formula_units_Z 36
_cell_length_a 7.523723
_cell_length_b 14.348254
_cell_length_c 24.442590
_cell_angle_alpha 90.000000
_cell_angle_beta 142.641429
_cell_angle_gamma 90.000000
_cell_volume 1601.126155
_symmetry_space_group_name_H-M "C 2/C"
_symmetry_group_IT_number 15
_symmetry_cell_setting 'monoclinic'
loop_
_space_group_symop_operation_xyz
x,y,z
-x,y,1/2-z
-x,-y,-z
x,-y,1/2+z
1/2+x,1/2+y,z
1/2-x,1/2+y,1/2-z
1/2-x,1/2-y,-z
1/2+x,1/2-y,1/2+z
loop_
_atom_site_type_symbol
_atom_site_label
_atom_site_fract_x
_atom_site_fract_y
_atom_site_fract_z
Si Si1 0.304526 0.033753 0.537011
Si Si2 0.699328 0.616743 0.923110
Si Si3 0.000000 0.354079 0.750000
Si Si4 0.560358 0.707960 0.058315
Si Si5 0.765123 0.012869 0.741023
O O1 0.541686 0.077517 0.552691
O O2 0.022658 0.100463 0.471815
O O3 0.224223 0.938256 0.486021
O O4 0.471952 0.036898 0.635828
O O5 0.776801 0.725938 0.945110
O O6 0.404441 0.587487 0.817683
O O7 0.220039 0.291042 0.837365
O O8 0.190045 0.421011 0.757282
O O9 0.250000 0.750000 0.000000
O O10 0.000000 0.995329 0.750000
#
# Coordination Sequence:
#
# PCOD9287511 Si02
#       5
#     8   8   4   8   8
#     4   9  18  37  63  91 130 180 222 279 357 412
#     4   9  18  37  62  95 130 175 229 280 348 423
#     4  12  24  42  68 102 130 182 238 286 354 432
#     4  10  22  36  66  97 136 176 233 292 344 425
#     4  10  22  40  69  93 134 185 226 289 359 419
#
# _framework density 22.484173999999999
#
# number of rings (size 3 to 8) (size 9 to 14) (size 15 to 20)
#    0.000    2.222    2.222    0.000   10.889    0.889 
#    0.000    1.111    2.444    0.000    0.000    0.000 
#    0.000    0.000    0.000    0.000    0.000    0.000 
#
# Total GULP energy -100451.447795 kJ/mol
# GULP energy per Si atom -5580.635989 kJ/mol
# Density = 2.243300 g / cm^3
# Si number density = 22.484174 Si / 1000 Ang^3
#
#
#
# Elastic Constant Matrix: (Units=GPa)
#
#
# Indices 1 2 3 4 5 6 
#
# 1 70.5166 25.0770 41.8122 0.0001 -6.6151 -0.0004
# 2 25.0770 111.7977 66.1261 0.0001 -2.8102 -0.0002
# 3 41.8122 66.1261 182.4260 0.0003 3.5154 -0.0008
# 4 0.0001 0.0001 0.0003 34.3453 0.0001 26.5693
# 5 -6.6151 -2.8102 3.5154 0.0001 26.8363 -0.0005
# 6 -0.0004 -0.0002 -0.0008 26.5693 -0.0005 5.3647
#
#
#
# Elastic Compliance Matrix: (Units=1/GPa)
#
#
# Indices 1 2 3 4 5 6 
#
# 1 0.017244 -0.001738 -0.003409 0.000000 0.004515 0.000000
# 2 -0.001738 0.011642 -0.003847 0.000000 0.001295 0.000000
# 3 -0.003409 -0.003847 0.007701 0.000000 -0.002252 0.000000
# 4 0.000000 0.000000 0.000000 -0.010284 0.000001 0.050931
# 5 0.004515 0.001295 -0.002252 0.000001 0.038807 -0.000002
# 6 0.000000 0.000000 0.000000 0.050931 -0.000002 -0.065837
#
#
# Mechanical properties :
#
#
# Convention : Reuss Voigt Hill
#
# Bulk Modulus (GPa) = 53.76541 70.08567 61.92554
# Shear Modulus (GPa) = 213.11418 28.75759 120.93589
#
# Velocity S-wave (km/s) = 9.74627 3.58021 7.34193
# Velocity P-wave (km/s) = 12.27264 6.95193 9.97364
#
# Compressibility (1/GPa) = 0.01859932
#
# Stress axis : x y z
#
# Youngs Moduli (GPa) = 57.99027 85.89303 129.85475
#
# Poissons Ratio (x) = 0.14927 0.44273
# Poissons Ratio (y) = 0.10078 0.49952
# Poissons Ratio (z) = 0.19772 0.33041
#
# Static dielectric constant tensor:
#      x y z
#    x 1.799260 0.000000 0.000030 
#    y 0.000000 1.899750 0.000000 
#    z 0.000030 0.000000 1.812950 
# 
# From -- ./inp_files/132670.got.cif
#   From: 2010.05.17/outbox.cif.g08.bks.cpg/sg15_67_cif.got.tgz:132670.got - 2010.06.03 18:47:42.
