data_PCOD9287316
_publ_section_title
;
Structure prediction by ZEFSAII (Michael W. Deem and Ramdas Pophale) SiO2 
 PCOD9287316
Probable space group: C 2/C
;
_chemical_formula_sum "Si O2"
_cell_formula_units_Z 44
_cell_length_a 10.809017
_cell_length_b 8.996848
_cell_length_c 19.624933
_cell_angle_alpha 90.000000
_cell_angle_beta 117.393899
_cell_angle_gamma 90.000000
_cell_volume 1694.460309
_symmetry_space_group_name_H-M "C 2/C"
_symmetry_group_IT_number 15
_symmetry_cell_setting 'monoclinic'
loop_
_space_group_symop_operation_xyz
x,y,z
-x,y,1/2-z
-x,-y,-z
x,-y,1/2+z
1/2+x,1/2+y,z
1/2-x,1/2+y,1/2-z
1/2-x,1/2-y,-z
1/2+x,1/2-y,1/2+z
loop_
_atom_site_type_symbol
_atom_site_label
_atom_site_fract_x
_atom_site_fract_y
_atom_site_fract_z
Si Si1 0.073710 0.439873 0.889792
Si Si2 0.500000 0.266295 0.250000
Si Si3 0.078690 0.726664 0.607571
Si Si4 0.221931 0.035890 0.940988
Si Si5 0.129425 0.250337 0.563842
Si Si6 0.896192 0.035885 0.834110
O O1 0.070902 0.346953 0.820628
O O2 0.008111 0.604249 0.871810
O O3 0.966352 0.352760 0.912058
O O4 0.216689 0.435988 0.968457
O O5 0.608806 0.375879 0.238364
O O6 0.190799 0.637691 0.589792
O O7 0.970962 0.794058 0.523799
O O8 0.130611 0.861198 0.668102
O O9 0.255950 0.864588 0.933233
O O10 0.059492 0.059932 0.893308
O O11 0.184423 0.119924 0.626001
#
# Coordination Sequence:
#
# PCOD9287316 Si02
#       6
#     8   4   8   8   8   8
#     4   8  17  35  56  79 116 150 179 230 281 331
#     4  10  22  36  52  84 120 148 186 232 278 334
#     4   9  18  35  59  86 113 143 190 237 273 330
#     4   9  19  38  62  83 108 150 190 226 283 335
#     4   8  17  34  55  85 114 134 181 241 270 319
#     4  11  21  36  60  86 114 146 185 235 282 328
#
# _framework density 25.966971999999998
#
# number of rings (size 3 to 8) (size 9 to 14) (size 15 to 20)
#    0.000    2.909    0.000    2.727    0.000   10.182 
#    0.000   10.909    0.000   13.091    0.000    0.000 
#    0.000    0.000    0.000    0.000    0.000    0.000 
#
# Total GULP energy -123264.247714 kJ/mol
# GULP energy per Si atom -5602.920351 kJ/mol
# Density = 2.590787 g / cm^3
# Si number density = 25.966972 Si / 1000 Ang^3
#
#
#
# Elastic Constant Matrix: (Units=GPa)
#
#
# Indices 1 2 3 4 5 6 
#
# 1 91.8264 38.2964 39.4427 0.0000 -13.4473 0.0000
# 2 38.2964 169.3054 65.9867 0.0000 -25.4095 0.0000
# 3 39.4427 65.9867 125.6182 0.0000 -26.3127 0.0000
# 4 0.0000 0.0000 0.0000 48.2610 0.0000 -14.1832
# 5 -13.4473 -25.4095 -26.3127 0.0000 28.7790 0.0000
# 6 0.0000 0.0000 0.0000 -14.1832 0.0000 42.8735
#
#
#
# Elastic Compliance Matrix: (Units=1/GPa)
#
#
# Indices 1 2 3 4 5 6 
#
# 1 0.013065 -0.001520 -0.002852 0.000000 0.002155 0.000000
# 2 -0.001520 0.007937 -0.002935 0.000000 0.003614 0.000000
# 3 -0.002852 -0.002935 0.011844 0.000000 0.006905 0.000000
# 4 0.000000 0.000000 0.000000 0.022952 0.000000 0.007593
# 5 0.002155 0.003614 0.006905 0.000000 0.045258 0.000000
# 6 0.000000 0.000000 0.000000 0.007593 0.000000 0.025836
#
#
# Mechanical properties :
#
#
# Convention : Reuss Voigt Hill
#
# Bulk Modulus (GPa) = 54.85146 74.91131 64.88138
# Shear Modulus (GPa) = 33.87902 40.18432 37.03167
#
# Velocity S-wave (km/s) = 3.61598 3.93812 3.78048
# Velocity P-wave (km/s) = 6.21314 7.04199 6.64051
#
# Compressibility (1/GPa) = 0.01823106
#
# Stress axis : x y z
#
# Youngs Moduli (GPa) = 76.54154 125.99993 84.42896
#
# Poissons Ratio (x) = 0.19154 0.24082
# Poissons Ratio (y) = 0.11636 0.24778
# Poissons Ratio (z) = 0.21832 0.36978
#
# Static dielectric constant tensor:
#      x y z
#    x 2.063460 0.000000 0.006640 
#    y 0.000000 2.076000 0.000000 
#    z 0.006640 0.000000 2.078050 
# 
# From -- ./inp_files/242635.got.cif
#   From: 2010.05.17/outbox.cif.g08.bks.cpg/sg15_122_cif.got.tgz:242635.got - 2010.06.03 18:47:42.
