data_PCOD9287870
_publ_section_title
;
Structure prediction by ZEFSAII (Michael W. Deem and Ramdas Pophale) SiO2 
 PCOD9287870
Probable space group: C 2/C
;
_chemical_formula_sum "Si O2"
_cell_formula_units_Z 40
_cell_length_a 15.525959
_cell_length_b 19.260199
_cell_length_c 9.057519
_cell_angle_alpha 90.000000
_cell_angle_beta 144.091958
_cell_angle_gamma 90.000000
_cell_volume 1588.496066
_symmetry_space_group_name_H-M "C 2/C"
_symmetry_group_IT_number 15
_symmetry_cell_setting 'monoclinic'
loop_
_space_group_symop_operation_xyz
x,y,z
-x,y,1/2-z
-x,-y,-z
x,-y,1/2+z
1/2+x,1/2+y,z
1/2-x,1/2+y,1/2-z
1/2-x,1/2-y,-z
1/2+x,1/2-y,1/2+z
loop_
_atom_site_type_symbol
_atom_site_label
_atom_site_fract_x
_atom_site_fract_y
_atom_site_fract_z
Si Si1 0.307761 0.436066 0.238119
Si Si2 0.239191 0.670964 0.046119
Si Si3 0.018391 0.658508 0.012275
Si Si4 0.972411 0.182021 0.885050
Si Si5 0.500000 0.056171 0.250000
Si Si6 0.000000 0.994691 0.750000
O O1 0.319778 0.352802 0.226704
O O2 0.380659 0.452011 0.494443
O O3 0.412616 0.462854 0.252737
O O4 0.153163 0.476193 0.011921
O O5 0.137382 0.637531 0.778271
O O6 0.250000 0.750000 0.000000
O O7 0.139112 0.663580 0.052328
O O8 0.400498 0.651023 0.329350
O O9 0.017345 0.735767 0.077270
O O10 0.049162 0.603333 0.180714
O O11 0.000000 0.169669 0.750000
#
# Coordination Sequence:
#
# PCOD9287870 Si02
#       6
#     8   8   8   8   4   4
#     4  11  26  45  72  97 127 174 227 282 347 389
#     4   9  21  37  55  88 138 189 223 253 307 391
#     4  10  22  38  59 100 147 174 217 264 320 413
#     4  11  21  36  66  95 134 179 216 264 329 400
#     4  12  26  41  70 108 136 175 214 274 352 410
#     4  10  26  53  70  92 124 167 240 298 326 402
#
# _framework density 25.181051
#
# number of rings (size 3 to 8) (size 9 to 14) (size 15 to 20)
#    0.000    1.600    2.000    1.200    8.400    4.000 
#    0.000    0.000    0.000    0.000    0.000    0.000 
#    0.000    0.000    0.000    0.000    0.000    0.000 
#
# Total GULP energy -111829.151679 kJ/mol
# GULP energy per Si atom -5591.457584 kJ/mol
# Density = 2.512374 g / cm^3
# Si number density = 25.181051 Si / 1000 Ang^3
#
#
#
# Elastic Constant Matrix: (Units=GPa)
#
#
# Indices 1 2 3 4 5 6 
#
# 1 90.9718 17.8702 25.2955 0.0000 -7.3521 0.0000
# 2 17.8702 29.7828 1.4233 0.0000 -6.3744 0.0000
# 3 25.2955 1.4233 164.3329 0.0000 -0.5296 0.0000
# 4 0.0000 0.0000 0.0000 9.9358 0.0000 -19.8911
# 5 -7.3521 -6.3744 -0.5296 0.0000 52.7453 0.0000
# 6 0.0000 0.0000 0.0000 -19.8911 0.0000 -33.2720
#
#
#
# Elastic Compliance Matrix: (Units=1/GPa)
#
#
# Indices 1 2 3 4 5 6 
#
# 1 0.013093 -0.007573 -0.001947 0.000000 0.000890 0.000000
# 2 -0.007573 0.038861 0.000841 0.000000 0.003649 0.000000
# 3 -0.001947 0.000841 0.006377 0.000000 -0.000106 0.000000
# 4 0.000000 0.000000 0.000000 0.045814 0.000000 -0.027389
# 5 0.000890 0.003649 -0.000106 0.000000 0.019523 0.000000
# 6 0.000000 0.000000 0.000000 -0.027389 0.000000 -0.013681
#
#
# Mechanical properties :
#
#
# Convention : Reuss Voigt Hill
#
# Bulk Modulus (GPa) = 24.40570 41.58505 32.99538
# Shear Modulus (GPa) = 35.46026 21.91507 28.68766
#
# Velocity S-wave (km/s) = 3.75669 2.95329 3.37895
# Velocity P-wave (km/s) = 5.34135 5.30843 5.32492
#
# Compressibility (1/GPa) = 0.04097403
#
# Stress axis : x y z
#
# Youngs Moduli (GPa) = 76.37505 25.73278 156.80668
#
# Poissons Ratio (x) = 0.19486 0.30530
# Poissons Ratio (y) = 0.57836 -0.13185
# Poissons Ratio (z) = 0.14870 -0.02164
#
# Static dielectric constant tensor:
#      x y z
#    x 1.830520 0.000000 0.069970 
#    y 0.000000 2.051550 0.000000 
#    z 0.069970 0.000000 2.078190 
# 
# From -- ./inp_files/43314.got.cif
#   From: 2010.05.17/outbox.cif.g08.bks.cpg/sg15_22_cif.got.tgz:43314.got - 2010.06.03 18:47:42.
