data_PCOD9287652
_publ_section_title
;
Structure prediction by ZEFSAII (Michael W. Deem and Ramdas Pophale) SiO2 
 PCOD9287652
Probable space group: C 2/C
;
_chemical_formula_sum "Si O2"
_cell_formula_units_Z 40
_cell_length_a 15.108646
_cell_length_b 25.199630
_cell_length_c 9.049391
_cell_angle_alpha 90.000000
_cell_angle_beta 32.062937
_cell_angle_gamma 90.000000
_cell_volume 1828.989808
_symmetry_space_group_name_H-M "C 2/C"
_symmetry_group_IT_number 15
_symmetry_cell_setting 'monoclinic'
loop_
_space_group_symop_operation_xyz
x,y,z
-x,y,1/2-z
-x,-y,-z
x,-y,1/2+z
1/2+x,1/2+y,z
1/2-x,1/2+y,1/2-z
1/2-x,1/2-y,-z
1/2+x,1/2-y,1/2+z
loop_
_atom_site_type_symbol
_atom_site_label
_atom_site_fract_x
_atom_site_fract_y
_atom_site_fract_z
Si Si1 0.633209 0.072031 0.299263
Si Si2 0.211820 0.829106 0.998969
Si Si3 0.000000 0.832517 0.750000
Si Si4 0.000000 0.493645 0.250000
Si Si5 0.399406 0.273301 0.604448
Si Si6 0.840567 0.347804 0.134188
O O1 0.612595 0.041623 0.482015
O O2 0.468996 0.109298 0.513675
O O3 0.615163 0.030390 0.191329
O O4 0.791149 0.111316 0.063198
O O5 0.330481 0.839490 0.971325
O O6 0.061279 0.798903 0.294742
O O7 0.243930 0.793479 0.807388
O O8 0.090205 0.797343 0.748016
O O9 0.153363 0.862178 0.454080
O O10 0.389860 0.210506 0.620934
#
# Coordination Sequence:
#
# PCOD9287652 Si02
#       6
#     8   8   4   4   8   8
#     4  11  23  41  68  93 121 158 216 262 317 361
#     4  10  22  37  61  93 125 164 206 245 302 378
#     4  10  24  39  52  90 138 166 205 240 302 370
#     4  10  24  43  64  94 118 158 211 282 312 356
#     4  10  23  37  61  89 137 166 202 240 306 381
#     4  11  22  38  62  92 130 172 200 251 303 379
#
# _framework density 21.869996
#
# number of rings (size 3 to 8) (size 9 to 14) (size 15 to 20)
#    0.000    1.600    2.000    1.200   14.000    0.800 
#    0.000    0.000    0.000   15.600    0.000    0.000 
#    0.000    0.000    0.000    0.000    0.000    0.000 
#
# Total GULP energy -111496.899404 kJ/mol
# GULP energy per Si atom -5574.844970 kJ/mol
# Density = 2.182022 g / cm^3
# Si number density = 21.869996 Si / 1000 Ang^3
#
#
#
# Elastic Constant Matrix: (Units=GPa)
#
#
# Indices 1 2 3 4 5 6 
#
# 1 86.8350 27.3214 39.6077 0.0000 27.4974 -0.0001
# 2 27.3214 108.1228 47.9032 0.0000 2.9675 0.0000
# 3 39.6077 47.9032 90.0770 0.0000 4.3889 0.0000
# 4 0.0000 0.0000 0.0000 33.3535 0.0000 -7.8161
# 5 27.4974 2.9675 4.3889 0.0000 41.0086 0.0000
# 6 -0.0001 0.0000 0.0000 -7.8161 0.0000 19.4601
#
#
#
# Elastic Compliance Matrix: (Units=1/GPa)
#
#
# Indices 1 2 3 4 5 6 
#
# 1 0.018875 -0.001339 -0.007012 0.000000 -0.011809 0.000000
# 2 -0.001339 0.012196 -0.005929 0.000000 0.000650 0.000000
# 3 -0.007012 -0.005929 0.017178 0.000000 0.003293 0.000000
# 4 0.000000 0.000000 0.000000 0.033097 0.000000 0.013293
# 5 -0.011809 0.000650 0.003293 0.000000 0.031904 0.000000
# 6 0.000000 0.000000 0.000000 0.013293 0.000000 0.056726
#
#
# Mechanical properties :
#
#
# Convention : Reuss Voigt Hill
#
# Bulk Modulus (GPa) = 50.78974 57.18881 53.98927
# Shear Modulus (GPa) = 24.37850 30.11128 27.24489
#
# Velocity S-wave (km/s) = 3.34234 3.71459 3.53337
# Velocity P-wave (km/s) = 6.17809 6.67861 6.43322
#
# Compressibility (1/GPa) = 0.01968902
#
# Stress axis : x y z
#
# Youngs Moduli (GPa) = 52.97938 81.99452 58.21547
#
# Poissons Ratio (x) = 0.10976 0.40823
# Poissons Ratio (y) = 0.07092 0.34515
# Poissons Ratio (z) = 0.37151 0.48613
#
# Static dielectric constant tensor:
#      x y z
#    x 1.913610 0.000000 -0.086940 
#    y 0.000000 1.785320 0.000000 
#    z -0.086940 0.000000 1.936270 
# 
# From -- ./inp_files/41972.got.cif
#   From: 2010.05.17/outbox.cif.g08.bks.cpg/sg15_21_cif.got.tgz:41972.got - 2010.06.03 18:47:42.
