data_PCOD9287085
_publ_section_title
;
Structure prediction by ZEFSAII (Michael W. Deem and Ramdas Pophale) SiO2 
 PCOD9287085
Probable space group: C 2/C
;
_chemical_formula_sum "Si O2"
_cell_formula_units_Z 56
_cell_length_a 5.544132
_cell_length_b 27.192578
_cell_length_c 17.616495
_cell_angle_alpha 90.000000
_cell_angle_beta 118.152210
_cell_angle_gamma 90.000000
_cell_volume 2341.655263
_symmetry_space_group_name_H-M "C 2/C"
_symmetry_group_IT_number 15
_symmetry_cell_setting 'monoclinic'
loop_
_space_group_symop_operation_xyz
x,y,z
-x,y,1/2-z
-x,-y,-z
x,-y,1/2+z
1/2+x,1/2+y,z
1/2-x,1/2+y,1/2-z
1/2-x,1/2-y,-z
1/2+x,1/2-y,1/2+z
loop_
_atom_site_type_symbol
_atom_site_label
_atom_site_fract_x
_atom_site_fract_y
_atom_site_fract_z
Si Si1 0.322824 0.483807 0.546043
Si Si2 0.515307 0.887864 0.495553
Si Si3 0.015482 0.785959 0.546437
Si Si4 0.810254 0.159578 0.163886
Si Si5 0.931477 0.758746 0.323149
Si Si6 0.514143 0.567903 0.661368
Si Si7 0.254907 0.344910 0.391232
O O1 0.500000 0.500000 0.500000
O O2 0.275923 0.425434 0.532130
O O3 0.493352 0.509524 0.639902
O O4 0.000000 0.500000 0.500000
O O5 0.556842 0.867104 0.585775
O O6 0.243267 0.914661 0.428073
O O7 0.547765 0.850408 0.429966
O O8 0.750000 0.750000 0.500000
O O9 0.971059 0.817027 0.616505
O O10 0.017615 0.825803 0.478772
O O11 0.284573 0.753145 0.592165
O O12 0.705898 0.205574 0.197257
O O13 0.000000 0.129511 0.250000
O O14 0.738503 0.798459 0.334147
O O15 0.000000 0.777065 0.250000
O O16 0.500000 0.576107 0.750000
O O17 0.735826 0.604471 0.655289
#
# Coordination Sequence:
#
# PCOD9287085 Si02
#       7
#     8   8   8   8   8   8   8
#     4  10  21  46  72 100 138 182 224 290 359 426
#     4  10  24  43  70  97 134 177 228 288 347 420
#     4  11  23  39  61  85 120 178 225 279 343 404
#     4  11  23  43  64  91 132 177 236 286 342 408
#     4  12  24  39  59  89 134 175 228 290 341 403
#     4  11  24  43  68 103 139 178 224 282 355 428
#     4  11  23  38  61  92 129 176 223 275 341 412
#
# _framework density 23.914705999999999
#
# number of rings (size 3 to 8) (size 9 to 14) (size 15 to 20)
#    0.000    1.143    4.286    1.714    4.000    1.143 
#    5.143    0.000    0.000    0.000    0.000    0.000 
#    0.000    0.000    0.000    0.000    0.000    0.000 
#
# Total GULP energy -156046.286661 kJ/mol
# GULP energy per Si atom -5573.081666 kJ/mol
# Density = 2.386027 g / cm^3
# Si number density = 23.914706 Si / 1000 Ang^3
#
#
#
# Elastic Constant Matrix: (Units=GPa)
#
#
# Indices 1 2 3 4 5 6 
#
# 1 36.1358 -2.4013 21.4816 0.0000 14.3227 0.0000
# 2 -2.4013 63.4537 15.5008 0.0000 3.0501 0.0000
# 3 21.4816 15.5008 163.7284 0.0000 -6.2734 0.0000
# 4 0.0000 0.0000 0.0000 21.9386 0.0000 -5.8703
# 5 14.3227 3.0501 -6.2734 0.0000 40.5768 0.0000
# 6 0.0000 0.0000 0.0000 -5.8703 0.0000 28.0609
#
#
#
# Elastic Compliance Matrix: (Units=1/GPa)
#
#
# Indices 1 2 3 4 5 6 
#
# 1 0.036922 0.003475 -0.005717 0.000000 -0.014178 0.000000
# 2 0.003475 0.016546 -0.002130 0.000000 -0.002800 0.000000
# 3 -0.005717 -0.002130 0.007185 0.000000 0.003289 0.000000
# 4 0.000000 0.000000 0.000000 0.048285 0.000000 0.010101
# 5 -0.014178 -0.002800 0.003289 0.000000 0.030368 0.000000
# 6 0.000000 0.000000 0.000000 0.010101 0.000000 0.037750
#
#
# Mechanical properties :
#
#
# Convention : Reuss Voigt Hill
#
# Bulk Modulus (GPa) = 19.26366 36.94225 28.10296
# Shear Modulus (GPa) = 24.61824 33.36438 28.99131
#
# Velocity S-wave (km/s) = 3.21194 3.73921 3.48556
# Velocity P-wave (km/s) = 4.67205 5.84152 5.28920
#
# Compressibility (1/GPa) = 0.05191120
#
# Stress axis : x y z
#
# Youngs Moduli (GPa) = 27.08409 60.43805 139.17231
#
# Poissons Ratio (x) = -0.21003 0.79558
# Poissons Ratio (y) = -0.09412 0.29639
# Poissons Ratio (z) = 0.15483 0.12871
#
# Static dielectric constant tensor:
#      x y z
#    x 2.016300 0.000000 0.046360 
#    y 0.000000 2.158990 0.000000 
#    z 0.046360 0.000000 1.964220 
# 
# From -- ./inp_files/186773.got.cif
#   From: 2010.05.17/outbox.cif.g08.bks.cpg/sg15_94_cif.got.tgz:186773.got - 2010.06.03 18:47:42.
