data_PCOD9287649
_publ_section_title
;
Structure prediction by ZEFSAII (Michael W. Deem and Ramdas Pophale) SiO2 
 PCOD9287649
Probable space group: C 2/C
;
_chemical_formula_sum "Si O2"
_cell_formula_units_Z 60
_cell_length_a 5.779306
_cell_length_b 15.041726
_cell_length_c 28.902456
_cell_angle_alpha 90.000000
_cell_angle_beta 88.249054
_cell_angle_gamma 90.000000
_cell_volume 2511.338685
_symmetry_space_group_name_H-M "C 2/C"
_symmetry_group_IT_number 15
_symmetry_cell_setting 'monoclinic'
loop_
_space_group_symop_operation_xyz
x,y,z
-x,y,1/2-z
-x,-y,-z
x,-y,1/2+z
1/2+x,1/2+y,z
1/2-x,1/2+y,1/2-z
1/2-x,1/2-y,-z
1/2+x,1/2-y,1/2+z
loop_
_atom_site_type_symbol
_atom_site_label
_atom_site_fract_x
_atom_site_fract_y
_atom_site_fract_z
Si Si1 0.533370 0.342465 0.125522
Si Si2 0.003308 0.358736 0.979007
Si Si3 0.000000 0.282142 0.250000
Si Si4 0.886278 0.788803 0.652161
Si Si5 0.998971 0.858678 0.021935
Si Si6 0.510842 0.084951 0.198052
Si Si7 0.327015 0.572085 0.716085
Si Si8 0.698030 0.149429 0.382361
O O1 0.787959 0.303794 0.133811
O O2 0.511568 0.385539 0.075765
O O3 0.451889 0.399767 0.168849
O O4 0.380138 0.251774 0.126247
O O5 0.053032 0.386556 0.925690
O O6 0.999400 0.250101 0.979470
O O7 0.244216 0.384866 0.003782
O O8 0.747123 0.387115 0.997937
O O9 0.999224 0.230505 0.201647
O O10 0.772556 0.343886 0.255164
O O11 0.687249 0.856496 0.667487
O O12 0.032087 0.833855 0.610466
O O13 0.500000 0.123337 0.250000
O O14 0.298991 0.090677 0.164305
O O15 0.610855 0.987799 0.203774
O O16 0.500000 0.522265 0.750000
#
# Coordination Sequence:
#
# PCOD9287649 Si02
#       8
#     8   8   4   8   8   8   8   8
#     4  10  22  37  61  92 123 159 215 255 330 373
#     4   9  19  33  58  91 128 158 210 261 334 376
#     4  12  22  38  62  84 124 160 208 260 312 368
#     4  11  23  37  62  89 123 164 209 264 312 387
#     4   9  19  33  58  92 127 160 202 274 322 392
#     4  11  26  40  59  88 124 167 217 251 321 381
#     4  12  25  42  58  90 125 167 208 265 316 390
#     4  10  22  38  61  90 121 166 206 265 312 390
#
# _framework density 23.891639999999999
#
# number of rings (size 3 to 8) (size 9 to 14) (size 15 to 20)
#    0.000    1.600    3.333    0.800   15.867    0.000 
#    0.000    0.000    0.000    1.600    0.000    0.000 
#    0.000    0.000    0.000    0.000    0.000    0.000 
#
# Total GULP energy -167427.074182 kJ/mol
# GULP energy per Si atom -5580.902473 kJ/mol
# Density = 2.383726 g / cm^3
# Si number density = 23.891640 Si / 1000 Ang^3
#
#
#
# Elastic Constant Matrix: (Units=GPa)
#
#
# Indices 1 2 3 4 5 6 
#
# 1 104.6280 8.6134 69.6380 0.0000 -13.7308 0.0000
# 2 8.6134 28.8505 20.0240 0.0000 -3.9027 0.0000
# 3 69.6380 20.0240 179.0072 0.0000 -7.9653 0.0000
# 4 0.0000 0.0000 0.0000 6.0020 0.0000 -0.8484
# 5 -13.7308 -3.9027 -7.9653 0.0000 41.3128 0.0000
# 6 0.0000 0.0000 0.0000 -0.8484 0.0000 17.1558
#
#
#
# Elastic Compliance Matrix: (Units=1/GPa)
#
#
# Indices 1 2 3 4 5 6 
#
# 1 0.013373 -0.000021 -0.005046 0.000000 0.003470 0.000000
# 2 -0.000021 0.037894 -0.004107 0.000000 0.002781 0.000000
# 3 -0.005046 -0.004107 0.007985 0.000000 -0.000525 0.000000
# 4 0.000000 0.000000 0.000000 0.167784 0.000000 0.008297
# 5 0.003470 0.002781 -0.000525 0.000000 0.025520 0.000000
# 6 0.000000 0.000000 0.000000 0.008297 0.000000 0.058699
#
#
# Mechanical properties :
#
#
# Convention : Reuss Voigt Hill
#
# Bulk Modulus (GPa) = 24.44677 56.55964 40.50320
# Shear Modulus (GPa) = 14.56711 27.17481 20.87096
#
# Velocity S-wave (km/s) = 2.47192 3.37622 2.95882
# Velocity P-wave (km/s) = 4.28973 6.23885 5.35374
#
# Compressibility (1/GPa) = 0.04090520
#
# Stress axis : x y z
#
# Youngs Moduli (GPa) = 74.77717 26.38908 125.23032
#
# Poissons Ratio (x) = 0.00056 0.63187
# Poissons Ratio (y) = 0.00158 0.51432
# Poissons Ratio (z) = 0.37730 0.10838
#
# Static dielectric constant tensor:
#      x y z
#    x 2.470600 0.000000 0.238300 
#    y 0.000000 1.892050 0.000000 
#    z 0.238300 0.000000 2.026330 
# 
# From -- ./inp_files/305644.got.cif
#   From: 2010.05.17/outbox.cif.g08.bks.cpg/sg15_153_cif.got.tgz:305644.got - 2010.06.03 18:47:42.
