data_PCOD9287232
_publ_section_title
;
Structure prediction by ZEFSAII (Michael W. Deem and Ramdas Pophale) SiO2 
 PCOD9287232
Probable space group: C 2/C
;
_chemical_formula_sum "Si O2"
_cell_formula_units_Z 44
_cell_length_a 16.061549
_cell_length_b 17.184011
_cell_length_c 18.370853
_cell_angle_alpha 90.000000
_cell_angle_beta 22.937140
_cell_angle_gamma 90.000000
_cell_volume 1976.037097
_symmetry_space_group_name_H-M "C 2/C"
_symmetry_group_IT_number 15
_symmetry_cell_setting 'monoclinic'
loop_
_space_group_symop_operation_xyz
x,y,z
-x,y,1/2-z
-x,-y,-z
x,-y,1/2+z
1/2+x,1/2+y,z
1/2-x,1/2+y,1/2-z
1/2-x,1/2-y,-z
1/2+x,1/2-y,1/2+z
loop_
_atom_site_type_symbol
_atom_site_label
_atom_site_fract_x
_atom_site_fract_y
_atom_site_fract_z
Si Si1 0.000249 0.177731 0.514640
Si Si2 0.710101 0.900505 0.363596
Si Si3 0.500000 0.817715 0.250000
Si Si4 0.159809 0.303293 0.972322
Si Si5 0.789048 0.071565 0.267400
Si Si6 0.794812 0.240335 0.891824
O O1 0.802478 0.149566 0.722151
O O2 0.952800 0.252606 0.501765
O O3 0.066891 0.104075 0.412861
O O4 0.188294 0.202144 0.418602
O O5 0.458682 0.917507 0.557585
O O6 0.756903 0.848590 0.396508
O O7 0.822701 0.984351 0.267241
O O8 0.298925 0.764839 0.393871
O O9 0.544407 0.849183 0.132115
O O10 0.312341 0.366177 0.812680
O O11 0.072913 0.250683 0.636042
#
# Coordination Sequence:
#
# PCOD9287232 Si02
#       6
#     8   8   4   8   8   8
#     4  12  22  43  71  93 126 181 222 264 331 404
#     4  11  24  41  64  97 131 166 214 277 328 384
#     4  10  22  34  62  94 120 152 216 264 304 378
#     4  11  20  40  63  92 123 166 214 263 320 391
#     4  11  23  41  67  95 129 168 216 268 331 396
#     4  12  23  41  68  98 131 175 232 275 318 394
#
# _framework density 22.266787000000001
#
# number of rings (size 3 to 8) (size 9 to 14) (size 15 to 20)
#    0.000    0.727    5.455    3.818    0.000    0.000 
#    1.636    0.000   10.000    0.000    0.000    0.000 
#    0.000    0.000    0.000    0.000    0.000    0.000 
#
# Total GULP energy -122530.832416 kJ/mol
# GULP energy per Si atom -5569.583292 kJ/mol
# Density = 2.221611 g / cm^3
# Si number density = 22.266787 Si / 1000 Ang^3
#
#
#
# Elastic Constant Matrix: (Units=GPa)
#
#
# Indices 1 2 3 4 5 6 
#
# 1 100.9785 30.3837 38.5068 0.0022 21.5141 -0.0131
# 2 30.3837 132.4330 31.9879 -0.0131 16.8629 -0.0366
# 3 38.5068 31.9879 107.6156 -0.0800 26.4278 -0.0213
# 4 0.0022 -0.0131 -0.0800 24.9639 0.0191 0.0736
# 5 21.5141 16.8629 26.4278 0.0191 45.8974 0.0122
# 6 -0.0131 -0.0366 -0.0213 0.0736 0.0122 29.2717
#
#
#
# Elastic Compliance Matrix: (Units=1/GPa)
#
#
# Indices 1 2 3 4 5 6 
#
# 1 0.012293 -0.001646 -0.003078 -0.000009 -0.003385 0.000003
# 2 -0.001646 0.008494 -0.001583 0.000001 -0.001438 0.000009
# 3 -0.003078 -0.001583 0.012075 0.000042 -0.004928 0.000007
# 4 -0.000009 0.000001 0.000042 0.040058 -0.000037 -0.000101
# 5 -0.003385 -0.001438 -0.004928 -0.000037 0.026741 -0.000018
# 6 0.000003 0.000009 0.000007 -0.000101 -0.000018 0.034163
#
#
# Mechanical properties :
#
#
# Convention : Reuss Voigt Hill
#
# Bulk Modulus (GPa) = 49.38706 60.30934 54.84820
# Shear Modulus (GPa) = 32.63987 36.03651 34.33819
#
# Velocity S-wave (km/s) = 3.83280 4.02730 3.93125
# Velocity P-wave (km/s) = 6.46645 6.98349 6.72994
#
# Compressibility (1/GPa) = 0.02024822
#
# Stress axis : x y z
#
# Youngs Moduli (GPa) = 81.34423 117.73050 82.81911
#
# Poissons Ratio (x) = 0.19377 0.25494
# Poissons Ratio (y) = 0.13388 0.13108
# Poissons Ratio (z) = 0.25040 0.18634
#
# Static dielectric constant tensor:
#      x y z
#    x 1.891360 0.000010 0.036420 
#    y 0.000010 1.789770 0.000030 
#    z 0.036420 0.000030 2.618040 
# 
# From -- ./inp_files/216211.got.cif
#   From: 2010.05.17/outbox.cif.g08.bks.cpg/sg15_109_cif.got.tgz:216211.got - 2010.06.03 18:47:42.
