data_PCOD9287189
_publ_section_title
;
Structure prediction by ZEFSAII (Michael W. Deem and Ramdas Pophale) SiO2 
 PCOD9287189
Probable space group: C 2/C
;
_chemical_formula_sum "Si O2"
_cell_formula_units_Z 60
_cell_length_a 8.005162
_cell_length_b 22.556840
_cell_length_c 25.360673
_cell_angle_alpha 90.000000
_cell_angle_beta 42.057789
_cell_angle_gamma 90.000000
_cell_volume 3067.651680
_symmetry_space_group_name_H-M "C 2/C"
_symmetry_group_IT_number 15
_symmetry_cell_setting 'monoclinic'
loop_
_space_group_symop_operation_xyz
x,y,z
-x,y,1/2-z
-x,-y,-z
x,-y,1/2+z
1/2+x,1/2+y,z
1/2-x,1/2+y,1/2-z
1/2-x,1/2-y,-z
1/2+x,1/2-y,1/2+z
loop_
_atom_site_type_symbol
_atom_site_label
_atom_site_fract_x
_atom_site_fract_y
_atom_site_fract_z
Si Si1 0.142152 0.962024 0.615787
Si Si2 0.940745 0.622530 0.603672
Si Si3 0.859013 0.885120 0.490195
Si Si4 0.500000 0.157183 0.750000
Si Si5 0.769760 0.708991 0.902215
Si Si6 0.146236 0.345203 0.939689
Si Si7 0.560975 0.580601 0.825120
Si Si8 0.828710 0.506036 0.958496
O O1 0.136281 0.891859 0.626753
O O2 0.174672 0.973461 0.545878
O O3 0.404830 0.982972 0.580512
O O4 0.937780 0.009481 0.682358
O O5 0.654596 0.605710 0.662050
O O6 0.996350 0.682156 0.621580
O O7 0.048910 0.633858 0.519677
O O8 0.092918 0.565375 0.590823
O O9 0.590922 0.855127 0.542680
O O10 0.041412 0.835193 0.470403
O O11 0.968264 0.904512 0.406953
O O12 0.808156 0.947659 0.531966
O O13 0.330506 0.197492 0.826879
O O14 0.320247 0.114048 0.758769
O O15 0.720005 0.777092 0.924477
#
# Coordination Sequence:
#
# PCOD9287189 Si02
#       8
#     8   8   8   4   8   8   8   8
#     4   7  11  23  47  67  85 112 140 177 222 268
#     4   9  17  28  48  72  92 111 142 193 240 272
#     4   8  15  27  46  69  95 121 146 182 223 269
#     4  10  22  34  46  60  84 126 164 186 210 264
#     4  11  20  29  43  67  97 127 153 180 220 271
#     4   9  16  29  48  71  94 118 147 183 233 278
#     4   8  15  31  49  66  85 114 154 188 223 262
#     4   7  11  23  42  69  93 110 135 172 227 270
#
# _framework density 19.558935000000002
#
# number of rings (size 3 to 8) (size 9 to 14) (size 15 to 20)
#    0.000    3.467    0.000    4.000    0.000    1.067 
#    0.000    0.000    0.000    6.400    0.000    3.733 
#    0.000    0.000    0.000    0.000    0.000    0.000 
#
# Total GULP energy -167025.346836 kJ/mol
# GULP energy per Si atom -5567.511561 kJ/mol
# Density = 1.951442 g / cm^3
# Si number density = 19.558935 Si / 1000 Ang^3
#
#
#
# Elastic Constant Matrix: (Units=GPa)
#
#
# Indices 1 2 3 4 5 6 
#
# 1 37.8135 34.9341 1.6872 0.0001 -10.7548 -0.0002
# 2 34.9341 177.7675 25.5745 0.0000 -19.2596 -0.0001
# 3 1.6872 25.5745 31.4573 0.0000 -5.5944 0.0000
# 4 0.0001 0.0000 0.0000 11.6561 0.0000 -2.7080
# 5 -10.7548 -19.2596 -5.5944 0.0000 13.9679 0.0001
# 6 -0.0002 -0.0001 0.0000 -2.7080 0.0001 23.6306
#
#
#
# Elastic Compliance Matrix: (Units=1/GPa)
#
#
# Indices 1 2 3 4 5 6 
#
# 1 0.038552 -0.005965 0.007104 0.000000 0.024304 0.000000
# 2 -0.005965 0.008051 -0.005457 0.000000 0.004323 0.000000
# 3 0.007104 -0.005457 0.038200 0.000000 0.013246 0.000000
# 4 0.000000 0.000000 0.000000 0.088138 0.000000 0.010101
# 5 0.024304 0.004323 0.013246 0.000000 0.101572 0.000000
# 6 0.000000 0.000000 0.000000 0.010101 0.000000 0.043476
#
#
# Mechanical properties :
#
#
# Convention : Reuss Voigt Hill
#
# Bulk Modulus (GPa) = 13.12889 41.26998 27.19944
# Shear Modulus (GPa) = 14.20403 22.17376 18.18889
#
# Velocity S-wave (km/s) = 2.69777 3.37068 3.05282
# Velocity P-wave (km/s) = 4.05351 6.02452 5.13448
#
# Compressibility (1/GPa) = 0.07616789
#
# Stress axis : x y z
#
# Youngs Moduli (GPa) = 25.93901 124.21032 26.17805
#
# Poissons Ratio (x) = 0.74090 -0.18597
# Poissons Ratio (y) = 0.15472 0.14284
# Poissons Ratio (z) = -0.18427 0.67777
#
# Static dielectric constant tensor:
#      x y z
#    x 1.730210 0.000000 0.007360 
#    y 0.000000 1.704880 0.000000 
#    z 0.007360 0.000000 1.715970 
# 
# From -- ./inp_files/192071.got.cif
#   From: 2010.05.17/outbox.cif.g08.bks.cpg/sg15_97_cif.got.tgz:192071.got - 2010.06.03 18:47:42.
