data_PCOD9287769
_publ_section_title
;
Structure prediction by ZEFSAII (Michael W. Deem and Ramdas Pophale) SiO2 
 PCOD9287769
Probable space group: C 2/C
;
_chemical_formula_sum "Si O2"
_cell_formula_units_Z 56
_cell_length_a 15.270975
_cell_length_b 22.215821
_cell_length_c 9.728650
_cell_angle_alpha 90.000000
_cell_angle_beta 56.682314
_cell_angle_gamma 90.000000
_cell_volume 2758.035272
_symmetry_space_group_name_H-M "C 2/C"
_symmetry_group_IT_number 15
_symmetry_cell_setting 'monoclinic'
loop_
_space_group_symop_operation_xyz
x,y,z
-x,y,1/2-z
-x,-y,-z
x,-y,1/2+z
1/2+x,1/2+y,z
1/2-x,1/2+y,1/2-z
1/2-x,1/2-y,-z
1/2+x,1/2-y,1/2+z
loop_
_atom_site_type_symbol
_atom_site_label
_atom_site_fract_x
_atom_site_fract_y
_atom_site_fract_z
Si Si1 0.433134 0.238037 0.172687
Si Si2 0.925684 0.217512 0.188963
Si Si3 0.705608 0.375605 0.848828
Si Si4 0.299251 0.352189 0.332888
Si Si5 0.879272 0.641476 0.736049
Si Si6 0.991862 0.056906 0.603866
Si Si7 0.110934 0.619102 0.465256
O O1 0.500000 0.220490 0.250000
O O2 0.341617 0.284051 0.288235
O O3 0.394504 0.181995 0.116051
O O4 0.508626 0.275937 0.007526
O O5 0.826987 0.176552 0.233131
O O6 0.897664 0.286884 0.245847
O O7 0.000000 0.195109 0.250000
O O8 0.800137 0.414182 0.700601
O O9 0.736439 0.358887 0.978276
O O10 0.594224 0.406342 0.971694
O O11 0.205802 0.362832 0.308315
O O12 0.392384 0.397803 0.204524
O O13 0.986351 0.608862 0.593413
O O14 0.849054 0.618819 0.912739
O O15 0.000000 0.032054 0.750000
O O16 0.000000 0.000000 0.500000
#
# Coordination Sequence:
#
# PCOD9287769 Si02
#       7
#     8   8   8   8   8   8   8
#     4  11  19  34  53  78 120 156 192 233 280 333
#     4  11  20  34  52  81 120 156 196 235 276 331
#     4  11  23  36  58  84 112 149 194 237 284 344
#     4  11  22  37  58  81 115 151 189 240 287 338
#     4  10  22  38  50  78 121 159 193 236 270 327
#     4  10  23  44  63  90 115 138 185 242 296 347
#     4  10  23  36  51  81 118 158 200 230 269 335
#
# _framework density 20.304309
#
# number of rings (size 3 to 8) (size 9 to 14) (size 15 to 20)
#    0.000    1.429    5.714    1.286    6.000    4.000 
#    0.000    0.000    0.000    0.857    0.000    0.000 
#    0.000    0.000    0.000    0.000    0.000    0.000 
#
# Total GULP energy -155957.012938 kJ/mol
# GULP energy per Si atom -5569.893319 kJ/mol
# Density = 2.025810 g / cm^3
# Si number density = 20.304309 Si / 1000 Ang^3
#
#
#
# Elastic Constant Matrix: (Units=GPa)
#
#
# Indices 1 2 3 4 5 6 
#
# 1 138.9515 1.0845 50.6439 0.0000 23.9492 0.0000
# 2 1.0845 10.9541 3.6833 0.0000 7.5495 0.0000
# 3 50.6439 3.6833 130.1357 0.0000 -5.8360 0.0000
# 4 0.0000 0.0000 0.0000 10.4796 0.0000 8.0399
# 5 23.9492 7.5495 -5.8360 0.0000 30.7211 0.0000
# 6 0.0000 0.0000 0.0000 8.0399 0.0000 1.4075
#
#
#
# Elastic Compliance Matrix: (Units=1/GPa)
#
#
# Indices 1 2 3 4 5 6 
#
# 1 0.010967 0.008618 -0.005033 0.000000 -0.011624 0.000000
# 2 0.008618 0.119183 -0.008413 0.000000 -0.037605 0.000000
# 3 -0.005033 -0.008413 0.010237 0.000000 0.007936 0.000000
# 4 0.000000 0.000000 0.000000 -0.028213 0.000000 0.161154
# 5 -0.011624 -0.037605 0.007936 0.000000 0.052361 0.000000
# 6 0.000000 0.000000 0.000000 0.161154 0.000000 -0.210055
#
#
# Mechanical properties :
#
#
# Convention : Reuss Voigt Hill
#
# Bulk Modulus (GPa) = 7.64940 43.42941 25.53940
# Shear Modulus (GPa) = 648.09547 23.49695 335.79621
#
# Velocity S-wave (km/s) = 17.88530 3.40551 12.87403
# Velocity P-wave (km/s) = 20.74337 6.07446 15.28376
#
# Compressibility (1/GPa) = 0.13072928
#
# Stress axis : x y z
#
# Youngs Moduli (GPa) = 91.17929 8.39047 97.68419
#
# Poissons Ratio (x) = -0.07231 0.49167
# Poissons Ratio (y) = -0.78574 0.82185
# Poissons Ratio (z) = 0.45893 0.07059
#
# Static dielectric constant tensor:
#      x y z
#    x 1.788980 0.000000 -0.051070 
#    y 0.000000 1.764290 0.000000 
#    z -0.051070 0.000000 1.820480 
# 
# From -- ./inp_files/42522.got.cif
#   From: 2010.05.17/outbox.cif.g08.bks.cpg/sg15_22_cif.got.tgz:42522.got - 2010.06.03 18:47:42.
