data_PCOD9287662
_publ_section_title
;
Structure prediction by ZEFSAII (Michael W. Deem and Ramdas Pophale) SiO2 
 PCOD9287662
Probable space group: C 2/C
;
_chemical_formula_sum "Si O2"
_cell_formula_units_Z 64
_cell_length_a 25.599425
_cell_length_b 9.742838
_cell_length_c 15.354245
_cell_angle_alpha 90.000000
_cell_angle_beta 134.772506
_cell_angle_gamma 90.000000
_cell_volume 2718.608724
_symmetry_space_group_name_H-M "C 2/C"
_symmetry_group_IT_number 15
_symmetry_cell_setting 'monoclinic'
loop_
_space_group_symop_operation_xyz
x,y,z
-x,y,1/2-z
-x,-y,-z
x,-y,1/2+z
1/2+x,1/2+y,z
1/2-x,1/2+y,1/2-z
1/2-x,1/2-y,-z
1/2+x,1/2-y,1/2+z
loop_
_atom_site_type_symbol
_atom_site_label
_atom_site_fract_x
_atom_site_fract_y
_atom_site_fract_z
Si Si1 0.525994 0.656679 0.040246
Si Si2 0.443958 0.334581 0.110075
Si Si3 0.241951 0.458312 0.555592
Si Si4 0.412754 0.347816 0.540759
Si Si5 0.584504 0.105112 0.829411
Si Si6 0.724228 0.344950 0.548913
Si Si7 0.225896 0.162916 0.751220
Si Si8 0.665943 0.218688 0.767360
O O1 0.525412 0.722144 0.944615
O O2 0.474346 0.721746 0.051894
O O3 0.500000 0.500000 0.000000
O O4 0.608950 0.665760 0.168494
O O5 0.500000 0.294158 0.250000
O O6 0.439904 0.500666 0.097127
O O7 0.359315 0.303844 0.028856
O O8 0.153190 0.472124 0.455550
O O9 0.268600 0.507740 0.490351
O O10 0.273450 0.553279 0.670052
O O11 0.271142 0.305870 0.609616
O O12 0.408042 0.257909 0.621250
O O13 0.342097 0.353003 0.394638
O O14 0.500000 0.060470 0.750000
O O15 0.616311 0.119293 0.768757
O O16 0.750000 0.250000 0.500000
O O17 0.768831 0.307812 0.689049
O O18 0.296794 0.151072 0.772583
#
# Coordination Sequence:
#
# PCOD9287662 Si02
#       8
#     8   8   8   8   8   8   8   8
#     4  10  22  37  61  98 130 166 204 270 333 374
#     4  11  23  37  64 100 133 164 208 273 340 382
#     4  11  25  43  67  97 131 173 218 264 329 383
#     4  11  23  40  65  96 130 166 212 272 329 377
#     4  12  25  44  64  95 134 174 218 266 317 386
#     4  10  24  43  63  92 130 173 215 265 322 387
#     4  11  25  44  67  97 130 168 221 269 318 394
#     4  12  23  43  69  98 131 167 227 270 321 388
#
# _framework density 23.541453000000001
#
# number of rings (size 3 to 8) (size 9 to 14) (size 15 to 20)
#    0.000    1.000    3.750    3.000   10.500    0.000 
#    0.000    4.375    0.000    0.000    0.000    0.000 
#    0.000    0.000    0.000    0.000    0.000    0.000 
#
# Total GULP energy -178730.242591 kJ/mol
# GULP energy per Si atom -5585.320081 kJ/mol
# Density = 2.348787 g / cm^3
# Si number density = 23.541453 Si / 1000 Ang^3
#
#
#
# Elastic Constant Matrix: (Units=GPa)
#
#
# Indices 1 2 3 4 5 6 
#
# 1 122.1699 -5.7247 14.0049 0.0000 -10.2745 0.0000
# 2 -5.7247 31.2957 -0.2863 0.0000 -5.9561 0.0000
# 3 14.0049 -0.2863 108.4292 0.0000 9.2097 0.0000
# 4 0.0000 0.0000 0.0000 23.3980 0.0000 5.3666
# 5 -10.2745 -5.9561 9.2097 0.0000 48.3552 0.0000
# 6 0.0000 0.0000 0.0000 5.3666 0.0000 15.3027
#
#
#
# Elastic Compliance Matrix: (Units=1/GPa)
#
#
# Indices 1 2 3 4 5 6 
#
# 1 0.008625 0.002009 -0.001307 0.000000 0.002329 0.000000
# 2 0.002009 0.033195 -0.000565 0.000000 0.004623 0.000000
# 3 -0.001307 -0.000565 0.009574 0.000000 -0.002171 0.000000
# 4 0.000000 0.000000 0.000000 0.046477 0.000000 -0.016299
# 5 0.002329 0.004623 -0.002171 0.000000 0.022158 0.000000
# 6 0.000000 0.000000 0.000000 -0.016299 0.000000 0.071064
#
#
# Mechanical properties :
#
#
# Convention : Reuss Voigt Hill
#
# Bulk Modulus (GPa) = 19.35334 30.87587 25.11460
# Shear Modulus (GPa) = 24.03365 34.33791 29.18578
#
# Velocity S-wave (km/s) = 3.19863 3.82332 3.52484
# Velocity P-wave (km/s) = 4.67766 5.71265 5.22087
#
# Compressibility (1/GPa) = 0.05167066
#
# Stress axis : x y z
#
# Youngs Moduli (GPa) = 115.94063 30.12461 104.44696
#
# Poissons Ratio (x) = -0.06052 0.13646
# Poissons Ratio (y) = -0.23293 0.05896
# Poissons Ratio (z) = 0.15148 0.01701
#
# Static dielectric constant tensor:
#      x y z
#    x 1.922700 0.000000 -0.009200 
#    y 0.000000 1.976850 0.000000 
#    z -0.009200 0.000000 1.888240 
# 
# From -- ./inp_files/177838.got.cif
#   From: 2010.05.17/outbox.cif.g08.bks.cpg/sg15_89_cif.got.tgz:177838.got - 2010.06.03 18:47:42.
