data_PCOD9287976
_publ_section_title
;
Structure prediction by ZEFSAII (Michael W. Deem and Ramdas Pophale) SiO2 
 PCOD9287976
Probable space group: C 2/C
;
_chemical_formula_sum "Si O2"
_cell_formula_units_Z 40
_cell_length_a 5.390956
_cell_length_b 18.882410
_cell_length_c 17.564337
_cell_angle_alpha 90.000000
_cell_angle_beta 102.534576
_cell_angle_gamma 90.000000
_cell_volume 1745.332998
_symmetry_space_group_name_H-M "C 2/C"
_symmetry_group_IT_number 15
_symmetry_cell_setting 'monoclinic'
loop_
_space_group_symop_operation_xyz
x,y,z
-x,y,1/2-z
-x,-y,-z
x,-y,1/2+z
1/2+x,1/2+y,z
1/2-x,1/2+y,1/2-z
1/2-x,1/2-y,-z
1/2+x,1/2-y,1/2+z
loop_
_atom_site_type_symbol
_atom_site_label
_atom_site_fract_x
_atom_site_fract_y
_atom_site_fract_z
Si Si1 0.679669 0.334085 0.832959
Si Si2 0.532735 0.299362 0.341085
Si Si3 0.321385 0.446541 0.346543
Si Si4 0.965543 0.758066 0.948552
Si Si5 0.687363 0.005042 0.166819
O O1 0.500000 0.316526 0.750000
O O2 0.506769 0.327068 0.897461
O O3 0.797574 0.410673 0.824898
O O4 0.898878 0.274997 0.851169
O O5 0.500000 0.310219 0.250000
O O6 0.378913 0.364670 0.366026
O O7 0.831365 0.297338 0.381392
O O8 0.251335 0.467232 0.252958
O O9 0.589994 0.484036 0.375392
O O10 0.085755 0.477537 0.375948
O O11 0.750000 0.750000 0.000000
O O12 0.250000 0.750000 0.000000
#
# Coordination Sequence:
#
# PCOD9287976 Si02
#       5
#     8   8   8   8   8
#     4  12  25  41  77 113 137 185 258 311 355 436
#     4  12  25  41  77 113 137 185 258 311 355 436
#     4  10  22  38  61 102 147 177 219 305 381 404
#     4  12  28  48  68 106 156 198 232 304 380 440
#     4  10  22  38  61 102 147 177 219 305 381 404
#
# _framework density 22.918263
#
# number of rings (size 3 to 8) (size 9 to 14) (size 15 to 20)
#    0.000    0.800    8.000    0.000   11.200    0.000 
#    0.000    0.000    0.000    7.200    0.000    0.000 
#    0.000    0.000    0.000    0.000    0.000    0.000 
#
# Total GULP energy -111505.916385 kJ/mol
# GULP energy per Si atom -5575.295819 kJ/mol
# Density = 2.286610 g / cm^3
# Si number density = 22.918263 Si / 1000 Ang^3
#
#
#
# Elastic Constant Matrix: (Units=GPa)
#
#
# Indices 1 2 3 4 5 6 
#
# 1 224.9748 62.5045 37.2544 0.0000 25.4119 0.0000
# 2 62.5045 149.5426 3.5207 0.0000 18.5790 0.0000
# 3 37.2544 3.5207 67.8703 0.0000 24.4764 0.0000
# 4 0.0000 0.0000 0.0000 -6.3604 0.0000 -5.8873
# 5 25.4119 18.5790 24.4764 0.0000 25.8258 0.0000
# 6 0.0000 0.0000 0.0000 -5.8873 0.0000 46.7431
#
#
#
# Elastic Compliance Matrix: (Units=1/GPa)
#
#
# Indices 1 2 3 4 5 6 
#
# 1 0.005608 -0.002059 -0.002303 0.000000 -0.001854 0.000000
# 2 -0.002059 0.008347 0.003239 0.000000 -0.007049 0.000000
# 3 -0.002303 0.003239 0.024085 0.000000 -0.022892 0.000000
# 4 0.000000 0.000000 0.000000 -0.140808 0.000000 -0.017735
# 5 -0.001854 -0.007049 -0.022892 0.000000 0.067312 0.000000
# 6 0.000000 0.000000 0.000000 -0.017735 0.000000 0.019160
#
#
# Mechanical properties :
#
#
# Convention : Reuss Voigt Hill
#
# Bulk Modulus (GPa) = 27.93661 72.10520 50.02090
# Shear Modulus (GPa) = -2359.49165 35.84892 -1161.82136
#
# Velocity S-wave (km/s) = -32.12102 3.95930 -22.53978
# Velocity P-wave (km/s) = 36.92511 7.24097 25.60305
#
# Compressibility (1/GPa) = 0.03579533
#
# Stress axis : x y z
#
# Youngs Moduli (GPa) = 178.32221 119.79946 41.51891
#
# Poissons Ratio (x) = 0.24671 0.09561
# Poissons Ratio (y) = 0.36723 -0.13450
# Poissons Ratio (z) = 0.41062 -0.38808
#
# Static dielectric constant tensor:
#      x y z
#    x 1.929850 0.000000 -0.040940 
#    y 0.000000 1.858480 0.000000 
#    z -0.040940 0.000000 1.919940 
# 
# From -- ./inp_files/184396.got.cif
#   From: 2010.05.17/outbox.cif.g08.bks.cpg/sg15_93_cif.got.tgz:184396.got - 2010.06.03 18:47:42.
