data_PCOD9287004
_publ_section_title
;
Structure prediction by ZEFSAII (Michael W. Deem and Ramdas Pophale) SiO2 
 PCOD9287004
Probable space group: C 2/C
;
_chemical_formula_sum "Si O2"
_cell_formula_units_Z 60
_cell_length_a 8.054081
_cell_length_b 19.792411
_cell_length_c 18.633547
_cell_angle_alpha 90.000000
_cell_angle_beta 59.466223
_cell_angle_gamma 90.000000
_cell_volume 2558.466315
_symmetry_space_group_name_H-M "C 2/C"
_symmetry_group_IT_number 15
_symmetry_cell_setting 'monoclinic'
loop_
_space_group_symop_operation_xyz
x,y,z
-x,y,1/2-z
-x,-y,-z
x,-y,1/2+z
1/2+x,1/2+y,z
1/2-x,1/2+y,1/2-z
1/2-x,1/2-y,-z
1/2+x,1/2-y,1/2+z
loop_
_atom_site_type_symbol
_atom_site_label
_atom_site_fract_x
_atom_site_fract_y
_atom_site_fract_z
Si Si1 0.113909 0.336985 0.499182
Si Si2 0.192759 0.527185 0.825507
Si Si3 0.691944 0.977273 0.540650
Si Si4 0.881126 0.070607 0.396209
Si Si5 0.453769 0.708681 0.607148
Si Si6 0.500000 0.355294 0.250000
Si Si7 0.179890 0.321553 0.042668
Si Si8 0.708327 0.930668 0.695425
O O1 0.094456 0.416273 0.518531
O O2 0.339472 0.322148 0.462812
O O3 0.987967 0.287953 0.579128
O O4 0.043565 0.321297 0.433397
O O5 0.283129 0.464056 0.849332
O O6 0.326469 0.591813 0.804416
O O7 0.192229 0.500137 0.744207
O O8 0.973368 0.531532 0.901520
O O9 0.742638 0.944652 0.604772
O O10 0.863721 0.007361 0.456206
O O11 0.776218 0.126639 0.465875
O O12 0.087618 0.099644 0.327482
O O13 0.444651 0.689388 0.692860
O O14 0.276156 0.675938 0.600723
O O15 0.250000 0.250000 0.000000
O O16 0.500000 0.895979 0.750000
#
# Coordination Sequence:
#
# PCOD9287004 Si02
#       8
#     8   8   8   8   8   4   8   8
#     4  10  21  45  71  97 137 174 246 294 344 401
#     4  11  23  39  60  96 140 176 216 294 355 413
#     4  11  23  38  66 101 127 178 233 291 346 424
#     4  12  21  38  69  97 129 184 233 287 355 413
#     4  10  24  43  68  99 136 193 229 296 340 430
#     4  12  24  42  66  96 150 184 230 276 376 420
#     4  10  23  42  69 100 135 178 243 290 341 410
#     4  10  23  40  58  99 140 173 217 285 360 423
#
# _framework density 23.451552
#
# number of rings (size 3 to 8) (size 9 to 14) (size 15 to 20)
#    0.000    1.333    2.667    2.400    3.733    0.000 
#    3.600    0.667    0.000    0.000    0.000    0.000 
#    0.000    0.000    0.000    0.000    0.000    0.000 
#
# Total GULP energy -167273.962962 kJ/mol
# GULP energy per Si atom -5575.798765 kJ/mol
# Density = 2.339817 g / cm^3
# Si number density = 23.451552 Si / 1000 Ang^3
#
#
#
# Elastic Constant Matrix: (Units=GPa)
#
#
# Indices 1 2 3 4 5 6 
#
# 1 96.2760 -10.4861 19.7586 0.0000 14.4459 0.0000
# 2 -10.4861 60.5618 8.6570 0.0000 6.6641 0.0000
# 3 19.7586 8.6570 71.3221 0.0000 19.3284 0.0000
# 4 0.0000 0.0000 0.0000 25.0583 0.0000 7.7133
# 5 14.4459 6.6641 19.3284 0.0000 60.0098 0.0000
# 6 0.0000 0.0000 0.0000 7.7133 0.0000 18.0119
#
#
#
# Elastic Compliance Matrix: (Units=1/GPa)
#
#
# Indices 1 2 3 4 5 6 
#
# 1 0.011605 0.002668 -0.002960 0.000000 -0.002137 0.000000
# 2 0.002668 0.017513 -0.002371 0.000000 -0.001824 0.000000
# 3 -0.002960 -0.002371 0.016286 0.000000 -0.004270 0.000000
# 4 0.000000 0.000000 0.000000 0.045966 0.000000 -0.019684
# 5 -0.002137 -0.001824 -0.004270 0.000000 0.018756 0.000000
# 6 0.000000 0.000000 0.000000 -0.019684 0.000000 0.063948
#
#
# Mechanical properties :
#
#
# Convention : Reuss Voigt Hill
#
# Bulk Modulus (GPa) = 24.95077 29.33544 27.14311
# Shear Modulus (GPa) = 25.93892 34.63134 30.28513
#
# Velocity S-wave (km/s) = 3.32936 3.84698 3.59749
# Velocity P-wave (km/s) = 5.04400 5.68053 5.37170
#
# Compressibility (1/GPa) = 0.04007892
#
# Stress axis : x y z
#
# Youngs Moduli (GPa) = 86.16683 57.09887 61.40354
#
# Poissons Ratio (x) = -0.15232 0.18174
# Poissons Ratio (y) = -0.22986 0.14557
# Poissons Ratio (z) = 0.25504 0.13536
#
# Static dielectric constant tensor:
#      x y z
#    x 2.054420 0.000000 0.002320 
#    y 0.000000 1.879970 0.000000 
#    z 0.002320 0.000000 1.880960 
# 
# From -- ./inp_files/192509.got.cif
#   From: 2010.05.17/outbox.cif.g08.bks.cpg/sg15_97_cif.got.tgz:192509.got - 2010.06.03 18:47:42.
