data_PCOD9287891
_publ_section_title
;
Structure prediction by ZEFSAII (Michael W. Deem and Ramdas Pophale) SiO2 
 PCOD9287891
Probable space group: C 2/C
;
_chemical_formula_sum "Si O2"
_cell_formula_units_Z 40
_cell_length_a 15.757939
_cell_length_b 9.803335
_cell_length_c 21.540049
_cell_angle_alpha 90.000000
_cell_angle_beta 145.081329
_cell_angle_gamma 90.000000
_cell_volume 1904.712862
_symmetry_space_group_name_H-M "C 2/C"
_symmetry_group_IT_number 15
_symmetry_cell_setting 'monoclinic'
loop_
_space_group_symop_operation_xyz
x,y,z
-x,y,1/2-z
-x,-y,-z
x,-y,1/2+z
1/2+x,1/2+y,z
1/2-x,1/2+y,1/2-z
1/2-x,1/2-y,-z
1/2+x,1/2-y,1/2+z
loop_
_atom_site_type_symbol
_atom_site_label
_atom_site_fract_x
_atom_site_fract_y
_atom_site_fract_z
Si Si1 0.211827 0.622949 0.791716
Si Si2 0.748850 0.016604 0.444771
Si Si3 0.455216 0.721079 0.504661
Si Si4 0.489374 0.297636 0.597364
Si Si5 0.532767 0.998355 0.925825
O O1 0.195987 0.557486 0.849909
O O2 0.380355 0.665882 0.881221
O O3 0.104602 0.753937 0.718931
O O4 0.138792 0.522717 0.696568
O O5 0.872751 0.911556 0.545017
O O6 0.620603 0.044702 0.416537
O O7 0.834876 0.151178 0.475876
O O8 0.428573 0.669599 0.418254
O O9 0.447907 0.883079 0.511301
O O10 0.410925 0.153782 0.530189
#
# Coordination Sequence:
#
# PCOD9287891 Si02
#       5
#     8   8   8   8   8
#     4   9  22  35  61  84 119 155 201 224 293 351
#     4  11  21  40  61  90 118 157 192 245 298 346
#     4  11  22  37  64  88 119 153 199 243 296 342
#     4   9  21  37  61  82 121 157 195 234 286 355
#     4  10  22  38  59  89 121 150 195 248 289 344
#
# _framework density 21.000540000000001
#
# number of rings (size 3 to 8) (size 9 to 14) (size 15 to 20)
#    1.200    0.800    0.000    4.800    5.600    0.000 
#    0.000    0.000    0.000    2.400    0.000    0.000 
#    0.000    0.000    0.000    0.000    0.000    0.000 
#
# Total GULP energy -111477.972990 kJ/mol
# GULP energy per Si atom -5573.898650 kJ/mol
# Density = 2.095274 g / cm^3
# Si number density = 21.000540 Si / 1000 Ang^3
#
#
#
# Elastic Constant Matrix: (Units=GPa)
#
#
# Indices 1 2 3 4 5 6 
#
# 1 49.1587 0.5094 -19.4747 0.0000 8.1013 0.0000
# 2 0.5094 73.7520 0.2981 0.0000 8.4797 0.0000
# 3 -19.4747 0.2981 42.1559 0.0000 -2.8495 0.0000
# 4 0.0000 0.0000 0.0000 21.9998 0.0000 -5.5948
# 5 8.1013 8.4797 -2.8495 0.0000 12.5128 0.0000
# 6 0.0000 0.0000 0.0000 -5.5948 0.0000 25.5270
#
#
#
# Elastic Compliance Matrix: (Units=1/GPa)
#
#
# Indices 1 2 3 4 5 6 
#
# 1 0.027635 0.001642 0.011650 0.000000 -0.016352 0.000000
# 2 0.001642 0.014828 -0.000099 0.000000 -0.011134 0.000000
# 3 0.011650 -0.000099 0.029046 0.000000 -0.000861 0.000000
# 4 0.000000 0.000000 0.000000 0.048138 0.000000 0.010551
# 5 -0.016352 -0.011134 -0.000861 0.000000 0.097854 0.000000
# 6 0.000000 0.000000 0.000000 0.010551 0.000000 0.041487
#
#
# Mechanical properties :
#
#
# Convention : Reuss Voigt Hill
#
# Bulk Modulus (GPa) = 10.21500 14.19245 12.20372
# Shear Modulus (GPa) = 18.85125 24.25683 21.55404
#
# Velocity S-wave (km/s) = 2.99934 3.40230 3.20716
# Velocity P-wave (km/s) = 4.10724 4.71243 4.42021
#
# Compressibility (1/GPa) = 0.09789529
#
# Stress axis : x y z
#
# Youngs Moduli (GPa) = 36.18566 67.43900 34.42838
#
# Poissons Ratio (x) = -0.11074 -0.40108
# Poissons Ratio (y) = -0.05942 0.00340
# Poissons Ratio (z) = -0.42155 0.00667
#
# Static dielectric constant tensor:
#      x y z
#    x 1.772400 0.000000 -0.020310 
#    y 0.000000 1.808110 0.000000 
#    z -0.020310 0.000000 1.759230 
# 
# From -- ./inp_files/243502.got.cif
#   From: 2010.05.17/outbox.cif.g08.bks.cpg/sg15_122_cif.got.tgz:243502.got - 2010.06.03 18:47:42.
