data_PCOD9287867
_publ_section_title
;
Structure prediction by ZEFSAII (Michael W. Deem and Ramdas Pophale) SiO2 
 PCOD9287867
Probable space group: C 2/C
;
_chemical_formula_sum "Si O2"
_cell_formula_units_Z 44
_cell_length_a 20.071251
_cell_length_b 9.019742
_cell_length_c 22.248806
_cell_angle_alpha 90.000000
_cell_angle_beta 150.413933
_cell_angle_gamma 90.000000
_cell_volume 1988.681092
_symmetry_space_group_name_H-M "C 2/C"
_symmetry_group_IT_number 15
_symmetry_cell_setting 'monoclinic'
loop_
_space_group_symop_operation_xyz
x,y,z
-x,y,1/2-z
-x,-y,-z
x,-y,1/2+z
1/2+x,1/2+y,z
1/2-x,1/2+y,1/2-z
1/2-x,1/2-y,-z
1/2+x,1/2-y,1/2+z
loop_
_atom_site_type_symbol
_atom_site_label
_atom_site_fract_x
_atom_site_fract_y
_atom_site_fract_z
Si Si1 0.884385 0.095887 0.104480
Si Si2 0.845890 0.816193 0.353388
Si Si3 0.000000 0.824666 0.250000
Si Si4 0.852197 0.152378 0.388513
Si Si5 0.886415 0.274402 0.232422
Si Si6 0.190425 0.436778 0.873532
O O1 0.865776 0.177578 0.154595
O O2 0.974797 0.203759 0.134665
O O3 0.967547 0.941560 0.172723
O O4 0.745365 0.040118 0.969390
O O5 0.769380 0.748373 0.235516
O O6 0.742440 0.770750 0.325718
O O7 0.000212 0.772581 0.490758
O O8 0.855718 0.995323 0.355907
O O9 0.123834 0.715433 0.339463
O O10 0.809973 0.102847 0.422082
O O11 0.909076 0.448788 0.238059
#
# Coordination Sequence:
#
# PCOD9287867 Si02
#       6
#     8   8   4   8   8   8
#     4  10  22  40  64  92 125 170 210 276 325 383
#     4  10  23  44  65  98 130 175 221 271 333 386
#     4  10  22  38  58  96 124 164 206 266 336 392
#     4  10  25  42  68  95 133 174 219 277 326 397
#     4   9  21  38  63  91 123 168 220 267 317 391
#     4  11  22  40  64  93 128 169 213 273 331 392
#
# _framework density 22.125216000000002
#
# number of rings (size 3 to 8) (size 9 to 14) (size 15 to 20)
#    0.000    2.182    0.000    2.182   10.182    2.182 
#    3.273    0.000    0.000    0.000    0.000    0.000 
#    0.000    0.000    0.000    0.000    0.000    0.000 
#
# Total GULP energy -122582.297214 kJ/mol
# GULP energy per Si atom -5571.922601 kJ/mol
# Density = 2.207486 g / cm^3
# Si number density = 22.125216 Si / 1000 Ang^3
#
#
#
# Elastic Constant Matrix: (Units=GPa)
#
#
# Indices 1 2 3 4 5 6 
#
# 1 52.3103 2.2357 8.6966 0.0000 10.3033 0.0000
# 2 2.2357 95.9747 37.6703 0.0000 8.7605 0.0000
# 3 8.6966 37.6703 92.4567 0.0000 0.3725 0.0000
# 4 0.0000 0.0000 0.0000 49.1523 0.0000 11.0554
# 5 10.3033 8.7605 0.3725 0.0000 29.0435 0.0000
# 6 0.0000 0.0000 0.0000 11.0554 0.0000 12.0142
#
#
#
# Elastic Compliance Matrix: (Units=1/GPa)
#
#
# Indices 1 2 3 4 5 6 
#
# 1 0.021000 0.001170 -0.002421 0.000000 -0.007772 0.000000
# 2 0.001170 0.012874 -0.005338 0.000000 -0.004230 0.000000
# 3 -0.002421 -0.005338 0.013209 0.000000 0.002300 0.000000
# 4 0.000000 0.000000 0.000000 0.025655 0.000000 -0.023607
# 5 -0.007772 -0.004230 0.002300 0.000000 0.038435 0.000000
# 6 0.000000 0.000000 0.000000 -0.023607 0.000000 0.104958
#
#
# Mechanical properties :
#
#
# Convention : Reuss Voigt Hill
#
# Bulk Modulus (GPa) = 29.49380 37.54967 33.52173
# Shear Modulus (GPa) = 20.78057 30.85125 25.81591
#
# Velocity S-wave (km/s) = 3.06800 3.73821 3.41957
# Velocity P-wave (km/s) = 5.09014 5.96997 5.54753
#
# Compressibility (1/GPa) = 0.03390543
#
# Stress axis : x y z
#
# Youngs Moduli (GPa) = 47.61927 77.67893 75.70428
#
# Poissons Ratio (x) = -0.09092 0.18327
# Poissons Ratio (y) = -0.05573 0.40412
# Poissons Ratio (z) = 0.11528 0.41467
#
# Static dielectric constant tensor:
#      x y z
#    x 1.863200 0.000000 -0.044620 
#    y 0.000000 1.777040 0.000000 
#    z -0.044620 0.000000 1.969280 
# 
# From -- ./inp_files/318674.got.cif
#   From: 2010.05.17/outbox.cif.g08.bks.cpg/sg15_160_cif.got.tgz:318674.got - 2010.06.03 18:47:42.
