data_PCOD9287186
_publ_section_title
;
Structure prediction by ZEFSAII (Michael W. Deem and Ramdas Pophale) SiO2 
 PCOD9287186
Probable space group: C 2/C
;
_chemical_formula_sum "Si O2"
_cell_formula_units_Z 40
_cell_length_a 18.098822
_cell_length_b 15.256290
_cell_length_c 5.842451
_cell_angle_alpha 90.000000
_cell_angle_beta 110.917189
_cell_angle_gamma 90.000000
_cell_volume 1506.907139
_symmetry_space_group_name_H-M "C 2/C"
_symmetry_group_IT_number 15
_symmetry_cell_setting 'monoclinic'
loop_
_space_group_symop_operation_xyz
x,y,z
-x,y,1/2-z
-x,-y,-z
x,-y,1/2+z
1/2+x,1/2+y,z
1/2-x,1/2+y,1/2-z
1/2-x,1/2-y,-z
1/2+x,1/2-y,1/2+z
loop_
_atom_site_type_symbol
_atom_site_label
_atom_site_fract_x
_atom_site_fract_y
_atom_site_fract_z
Si Si1 0.394805 0.547850 0.910939
Si Si2 0.000000 0.599776 0.750000
Si Si3 0.741171 0.875200 0.394890
Si Si4 0.392844 0.799671 0.487262
Si Si5 0.000000 0.851677 0.250000
Si Si6 0.154331 0.438907 0.683155
O O1 0.385173 0.504809 0.642611
O O2 0.325774 0.618801 0.876603
O O3 0.478973 0.593720 0.954628
O O4 0.926479 0.547556 0.556602
O O5 0.040130 0.661000 0.604975
O O6 0.726269 0.884871 0.645889
O O7 0.695585 0.967867 0.277305
O O8 0.687509 0.796650 0.245690
O O9 0.425747 0.709687 0.616801
O O10 0.375851 0.871343 0.661305
#
# Coordination Sequence:
#
# PCOD9287186 Si02
#       6
#     8   4   8   8   4   8
#     4  12  27  54  82 109 137 193 260 313 366 430
#     4  10  22  33  61  94 144 186 226 282 356 441
#     4  11  23  40  73 101 144 186 246 302 358 432
#     4  11  23  43  63 106 147 189 237 289 380 435
#     4  12  28  49  75 104 152 190 242 308 366 451
#     4  11  19  38  63  98 141 185 237 297 347 439
#
# _framework density 26.544433999999999
#
# number of rings (size 3 to 8) (size 9 to 14) (size 15 to 20)
#    0.000    0.800    6.000    0.600    0.000    6.400 
#    0.000    1.000    0.000    0.000    0.000    0.000 
#    0.000    0.000    0.000    0.000    0.000    0.000 
#
# Total GULP energy -111786.806168 kJ/mol
# GULP energy per Si atom -5589.340308 kJ/mol
# Density = 2.648402 g / cm^3
# Si number density = 26.544434 Si / 1000 Ang^3
#
#
#
# Elastic Constant Matrix: (Units=GPa)
#
#
# Indices 1 2 3 4 5 6 
#
# 1 143.7014 31.7633 43.8366 0.0000 -54.8362 0.0000
# 2 31.7633 87.9555 27.0639 0.0000 -24.7172 0.0000
# 3 43.8366 27.0639 90.4842 0.0000 -50.3324 0.0000
# 4 0.0000 0.0000 0.0000 20.2636 0.0000 -0.1719
# 5 -54.8362 -24.7172 -50.3324 0.0000 50.6835 0.0000
# 6 0.0000 0.0000 0.0000 -0.1719 0.0000 38.0628
#
#
#
# Elastic Compliance Matrix: (Units=1/GPa)
#
#
# Indices 1 2 3 4 5 6 
#
# 1 0.012321 -0.000924 0.003288 0.000000 0.016145 0.000000
# 2 -0.000924 0.013272 -0.001067 0.000000 0.004412 0.000000
# 3 0.003288 -0.001067 0.025620 0.000000 0.028479 0.000000
# 4 0.000000 0.000000 0.000000 0.049351 0.000000 0.000223
# 5 0.016145 0.004412 0.028479 0.000000 0.067632 0.000000
# 6 0.000000 0.000000 0.000000 0.000223 0.000000 0.026273
#
#
# Mechanical properties :
#
#
# Convention : Reuss Voigt Hill
#
# Bulk Modulus (GPa) = 18.58537 58.60762 38.59649
# Shear Modulus (GPa) = 23.83091 36.43379 30.13235
#
# Velocity S-wave (km/s) = 2.99954 3.70882 3.37288
# Velocity P-wave (km/s) = 4.36040 6.36141 5.45347
#
# Compressibility (1/GPa) = 0.05380577
#
# Stress axis : x y z
#
# Youngs Moduli (GPa) = 81.16152 75.34931 39.03244
#
# Poissons Ratio (x) = 0.06963 -0.12835
# Poissons Ratio (y) = 0.07500 0.04166
# Poissons Ratio (z) = -0.26688 0.08043
#
# Static dielectric constant tensor:
#      x y z
#    x 2.072120 0.000000 -0.000060 
#    y 0.000000 2.101840 0.000000 
#    z -0.000060 0.000000 2.453910 
# 
# From -- ./inp_files/9873.got.cif
#   From: 2010.05.17/outbox.cif.g08.bks.cpg/sg15_5_cif.got.tgz:9873.got - 2010.06.03 18:47:42.
