data_PCOD9287761
_publ_section_title
;
Structure prediction by ZEFSAII (Michael W. Deem and Ramdas Pophale) SiO2 
 PCOD9287761
Probable space group: C 2/C
;
_chemical_formula_sum "Si O2"
_cell_formula_units_Z 56
_cell_length_a 14.115969
_cell_length_b 14.219023
_cell_length_c 19.257959
_cell_angle_alpha 90.000000
_cell_angle_beta 136.325004
_cell_angle_gamma 90.000000
_cell_volume 2669.294129
_symmetry_space_group_name_H-M "C 2/C"
_symmetry_group_IT_number 15
_symmetry_cell_setting 'monoclinic'
loop_
_space_group_symop_operation_xyz
x,y,z
-x,y,1/2-z
-x,-y,-z
x,-y,1/2+z
1/2+x,1/2+y,z
1/2-x,1/2+y,1/2-z
1/2-x,1/2-y,-z
1/2+x,1/2-y,1/2+z
loop_
_atom_site_type_symbol
_atom_site_label
_atom_site_fract_x
_atom_site_fract_y
_atom_site_fract_z
Si Si1 0.886053 0.982154 0.043961
Si Si2 0.648507 0.262698 0.839789
Si Si3 0.174144 0.246633 0.763994
Si Si4 0.846463 0.375509 0.027173
Si Si5 0.385190 0.714066 0.607857
Si Si6 0.164183 0.930623 0.641320
Si Si7 0.154365 0.604263 0.721335
O O1 0.862822 0.934824 0.955785
O O2 0.759168 0.047498 0.998758
O O3 0.901248 0.897537 0.106120
O O4 0.024291 0.042373 0.106554
O O5 0.500000 0.310956 0.750000
O O6 0.641751 0.206221 0.908614
O O7 0.659496 0.182263 0.786465
O O8 0.776461 0.332482 0.920457
O O9 0.138660 0.242788 0.825847
O O10 0.278885 0.330354 0.805456
O O11 0.244296 0.149695 0.780579
O O12 0.024836 0.257661 0.650422
O O13 0.003480 0.409936 0.109131
O O14 0.250000 0.750000 0.500000
O O15 0.280141 0.008445 0.716898
#
# Coordination Sequence:
#
# PCOD9287761 Si02
#       7
#     8   8   8   8   8   8   8
#     4  11  23  43  68  97 129 177 228 277 331 406
#     4   9  20  38  60  96 132 166 210 270 332 399
#     4  11  26  44  68  95 135 181 220 278 346 390
#     4  10  22  37  68  94 130 172 216 271 345 396
#     4  11  24  46  68  94 134 178 227 280 331 398
#     4  11  24  41  70  96 130 176 227 276 331 398
#     4  11  23  43  65 101 134 167 226 281 328 413
#
# _framework density 20.979327999999999
#
# number of rings (size 3 to 8) (size 9 to 14) (size 15 to 20)
#    0.000    1.429    4.286    0.000    8.000    1.143 
#    5.143    0.714    0.000    0.000    0.000    0.000 
#    0.000    0.000    0.000    0.000    0.000    0.000 
#
# Total GULP energy -156296.698032 kJ/mol
# GULP energy per Si atom -5582.024930 kJ/mol
# Density = 2.093158 g / cm^3
# Si number density = 20.979328 Si / 1000 Ang^3
#
#
#
# Elastic Constant Matrix: (Units=GPa)
#
#
# Indices 1 2 3 4 5 6 
#
# 1 42.9412 5.2704 22.9008 0.0000 29.0134 0.0000
# 2 5.2704 48.5108 23.2805 0.0000 6.7574 0.0000
# 3 22.9008 23.2805 98.9855 0.0000 33.9532 0.0000
# 4 0.0000 0.0000 0.0000 7.3528 0.0000 6.8827
# 5 29.0134 6.7574 33.9532 0.0000 30.1721 0.0000
# 6 0.0000 0.0000 0.0000 6.8827 0.0000 31.9735
#
#
#
# Elastic Compliance Matrix: (Units=1/GPa)
#
#
# Indices 1 2 3 4 5 6 
#
# 1 0.074405 -0.002229 0.012509 0.000000 -0.085125 0.000000
# 2 -0.002229 0.023348 -0.006380 0.000000 0.004094 0.000000
# 3 0.012509 -0.006380 0.020105 0.000000 -0.033225 0.000000
# 4 0.000000 0.000000 0.000000 0.170322 0.000000 -0.036664
# 5 -0.085125 0.004094 -0.033225 0.000000 0.151472 0.000000
# 6 0.000000 0.000000 0.000000 -0.036664 0.000000 0.039168
#
#
# Mechanical properties :
#
#
# Convention : Reuss Voigt Hill
#
# Bulk Modulus (GPa) = 7.95804 32.59342 20.27573
# Shear Modulus (GPa) = 9.74837 23.16540 16.45689
#
# Velocity S-wave (km/s) = 2.15795 3.32656 2.80381
# Velocity P-wave (km/s) = 3.16394 5.50675 4.49082
#
# Compressibility (1/GPa) = 0.12565911
#
# Stress axis : x y z
#
# Youngs Moduli (GPa) = 13.43993 42.83110 49.73774
#
# Poissons Ratio (x) = 0.09548 -0.62219
# Poissons Ratio (y) = 0.02996 0.31731
# Poissons Ratio (z) = -0.16812 0.27325
#
# Static dielectric constant tensor:
#      x y z
#    x 1.768290 0.000000 0.029110 
#    y 0.000000 1.766000 0.000000 
#    z 0.029110 0.000000 1.700530 
# 
# From -- ./inp_files/244548.got.cif
#   From: 2010.05.17/outbox.cif.g08.bks.cpg/sg15_123_cif.got.tgz:244548.got - 2010.06.03 18:47:42.
