data_PCOD9287014
_publ_section_title
;
Structure prediction by ZEFSAII (Michael W. Deem and Ramdas Pophale) SiO2 
 PCOD9287014
Probable space group: C 2/C
;
_chemical_formula_sum "Si O2"
_cell_formula_units_Z 48
_cell_length_a 6.480752
_cell_length_b 23.655128
_cell_length_c 13.782719
_cell_angle_alpha 90.000000
_cell_angle_beta 72.344803
_cell_angle_gamma 90.000000
_cell_volume 2013.411046
_symmetry_space_group_name_H-M "C 2/C"
_symmetry_group_IT_number 15
_symmetry_cell_setting 'monoclinic'
loop_
_space_group_symop_operation_xyz
x,y,z
-x,y,1/2-z
-x,-y,-z
x,-y,1/2+z
1/2+x,1/2+y,z
1/2-x,1/2+y,1/2-z
1/2-x,1/2-y,-z
1/2+x,1/2-y,1/2+z
loop_
_atom_site_type_symbol
_atom_site_label
_atom_site_fract_x
_atom_site_fract_y
_atom_site_fract_z
Si Si1 0.667520 0.618340 0.139152
Si Si2 0.959398 0.885721 0.463470
Si Si3 0.234859 0.510662 0.919838
Si Si4 0.000000 0.914039 0.250000
Si Si5 0.826510 0.295777 0.085108
Si Si6 0.500000 0.203990 0.750000
Si Si7 0.583037 0.774086 0.877933
O O1 0.500000 0.627832 0.250000
O O2 0.702135 0.551694 0.123022
O O3 0.864861 0.659544 0.138452
O O4 0.586823 0.631772 0.040879
O O5 0.869313 0.950313 0.478388
O O6 0.067568 0.882281 0.340000
O O7 0.765945 0.842200 0.474594
O O8 0.296507 0.548481 0.816349
O O9 0.000000 0.500000 0.000000
O O10 0.632780 0.252683 0.139715
O O11 0.915451 0.326411 0.166792
O O12 0.014568 0.264770 0.000024
O O13 0.699485 0.242426 0.684152
#
# Coordination Sequence:
#
# PCOD9287014 Si02
#       7
#     8   8   8   4   8   4   8
#     4  12  24  44  73 104 150 197 242 305 373 446
#     4  10  24  44  73 103 145 189 246 303 367 444
#     4  10  21  45  72 105 143 190 246 299 375 439
#     4   8  22  41  68 100 136 179 242 308 350 430
#     4  11  27  46  72 102 145 188 244 313 366 446
#     4  12  26  45  74 100 138 187 248 298 378 432
#     4  11  27  44  66 105 142 187 242 298 363 449
#
# _framework density 23.840138
#
# number of rings (size 3 to 8) (size 9 to 14) (size 15 to 20)
#    1.000    0.333    1.667    2.500    9.333    1.333 
#    0.000    5.000    0.000    0.000    0.000    0.000 
#    0.000    0.000    0.000    0.000    0.000    0.000 
#
# Total GULP energy -133687.343089 kJ/mol
# GULP energy per Si atom -5570.305962 kJ/mol
# Density = 2.378588 g / cm^3
# Si number density = 23.840138 Si / 1000 Ang^3
#
#
#
# Elastic Constant Matrix: (Units=GPa)
#
#
# Indices 1 2 3 4 5 6 
#
# 1 68.6545 30.9563 56.9868 0.0000 -11.9446 0.0000
# 2 30.9563 124.3004 12.2244 0.0000 -7.1552 0.0000
# 3 56.9868 12.2244 167.8530 0.0000 -28.1628 0.0000
# 4 0.0000 0.0000 0.0000 15.3194 0.0000 -16.2907
# 5 -11.9446 -7.1552 -28.1628 0.0000 57.0317 0.0000
# 6 0.0000 0.0000 0.0000 -16.2907 0.0000 18.8214
#
#
#
# Elastic Compliance Matrix: (Units=1/GPa)
#
#
# Indices 1 2 3 4 5 6 
#
# 1 0.023013 -0.004975 -0.007356 0.000000 0.000563 0.000000
# 2 -0.004975 0.009212 0.001131 0.000000 0.000672 0.000000
# 3 -0.007356 0.001131 0.008873 0.000000 0.002983 0.000000
# 4 0.000000 0.000000 0.000000 0.820274 0.000000 0.709983
# 5 0.000563 0.000672 0.002983 0.000000 0.019209 0.000000
# 6 0.000000 0.000000 0.000000 0.709983 0.000000 0.667652
#
#
# Mechanical properties :
#
#
# Convention : Reuss Voigt Hill
#
# Bulk Modulus (GPa) = 53.48525 62.34921 57.91723
# Shear Modulus (GPa) = 3.17084 35.61051 19.39068
#
# Velocity S-wave (km/s) = 1.15453 3.86906 2.85505
# Velocity P-wave (km/s) = 4.92554 6.79480 5.93423
#
# Compressibility (1/GPa) = 0.01869674
#
# Stress axis : x y z
#
# Youngs Moduli (GPa) = 43.45341 108.55895 112.69924
#
# Poissons Ratio (x) = 0.54013 0.82904
# Poissons Ratio (y) = 0.21620 -0.12747
# Poissons Ratio (z) = 0.31965 -0.12279
#
# Static dielectric constant tensor:
#      x y z
#    x 2.004160 0.000000 -0.127030 
#    y 0.000000 1.927870 0.000000 
#    z -0.127030 0.000000 2.373520 
# 
# From -- ./inp_files/130336.got.cif
#   From: 2010.05.17/outbox.cif.g08.bks.cpg/sg15_66_cif.got.tgz:130336.got - 2010.06.03 18:47:42.
