data_PCOD9287227
_publ_section_title
;
Structure prediction by ZEFSAII (Michael W. Deem and Ramdas Pophale) SiO2 
 PCOD9287227
Probable space group: C 2/C
;
_chemical_formula_sum "Si O2"
_cell_formula_units_Z 48
_cell_length_a 10.074966
_cell_length_b 16.592928
_cell_length_c 21.373705
_cell_angle_alpha 90.000000
_cell_angle_beta 132.091602
_cell_angle_gamma 90.000000
_cell_volume 2651.512644
_symmetry_space_group_name_H-M "C 2/C"
_symmetry_group_IT_number 15
_symmetry_cell_setting 'monoclinic'
loop_
_space_group_symop_operation_xyz
x,y,z
-x,y,1/2-z
-x,-y,-z
x,-y,1/2+z
1/2+x,1/2+y,z
1/2-x,1/2+y,1/2-z
1/2-x,1/2-y,-z
1/2+x,1/2-y,1/2+z
loop_
_atom_site_type_symbol
_atom_site_label
_atom_site_fract_x
_atom_site_fract_y
_atom_site_fract_z
Si Si1 0.715516 0.491210 0.926607
Si Si2 0.902844 0.954972 0.912235
Si Si3 0.827890 0.586664 0.730904
Si Si4 0.943887 0.475228 0.881391
Si Si5 0.394863 0.836223 0.650692
Si Si6 0.525662 0.656544 0.832887
O O1 0.550724 0.443469 0.905054
O O2 0.788289 0.461776 0.882997
O O3 0.644626 0.582565 0.894891
O O4 0.882404 0.493139 0.026479
O O5 0.800000 0.875377 0.901157
O O6 0.753360 0.016032 0.838453
O O7 0.000000 0.000000 0.000000
O O8 0.884377 0.541831 0.812459
O O9 0.668157 0.647388 0.696163
O O10 0.000000 0.621285 0.750000
O O11 0.999870 0.394359 0.863310
O O12 0.500000 0.838446 0.750000
O O13 0.391586 0.743822 0.628605
O O14 0.500000 0.647105 0.750000
#
# Coordination Sequence:
#
# PCOD9287227 Si02
#       6
#     8   8   8   8   8   8
#     4  10  22  34  60  86 112 153 190 241 275 338
#     4  11  19  35  58  88 108 146 197 230 277 343
#     4  11  19  36  60  81 110 155 193 237 279 346
#     4  11  19  37  58  84 115 147 199 233 280 334
#     4  11  21  38  58  84 116 152 187 238 287 339
#     4  10  22  37  56  85 117 152 185 237 300 335
#
# _framework density 18.102874
#
# number of rings (size 3 to 8) (size 9 to 14) (size 15 to 20)
#    0.000    1.333    6.667    0.000    0.000    0.667 
#    0.000    3.333    0.000    2.000    0.000    0.000 
#    0.000    0.000    0.000    0.000    0.000    0.000 
#
# Total GULP energy -134019.532627 kJ/mol
# GULP energy per Si atom -5584.147193 kJ/mol
# Density = 1.806167 g / cm^3
# Si number density = 18.102874 Si / 1000 Ang^3
#
#
#
# Elastic Constant Matrix: (Units=GPa)
#
#
# Indices 1 2 3 4 5 6 
#
# 1 168.2684 57.8093 23.1015 0.0000 12.7664 0.0000
# 2 57.8093 95.2240 25.5486 0.0000 8.2748 0.0000
# 3 23.1015 25.5486 71.9574 0.0000 -0.3451 0.0000
# 4 0.0000 0.0000 0.0000 15.3975 0.0000 6.7605
# 5 12.7664 8.2748 -0.3451 0.0000 28.2326 0.0000
# 6 0.0000 0.0000 0.0000 6.7605 0.0000 26.7586
#
#
#
# Elastic Compliance Matrix: (Units=1/GPa)
#
#
# Indices 1 2 3 4 5 6 
#
# 1 0.007697 -0.004212 -0.000986 0.000000 -0.002258 0.000000
# 2 -0.004212 0.014258 -0.003722 0.000000 -0.002320 0.000000
# 3 -0.000986 -0.003722 0.015543 0.000000 0.001727 0.000000
# 4 0.000000 0.000000 0.000000 0.073049 0.000000 -0.018456
# 5 -0.002258 -0.002320 0.001727 0.000000 0.037142 0.000000
# 6 0.000000 0.000000 0.000000 -0.018456 0.000000 0.042034
#
#
# Mechanical properties :
#
#
# Convention : Reuss Voigt Hill
#
# Bulk Modulus (GPa) = 50.86643 60.92984 55.89813
# Shear Modulus (GPa) = 23.35191 29.34378 26.34784
#
# Velocity S-wave (km/s) = 3.59549 4.03047 3.81918
# Velocity P-wave (km/s) = 6.73768 7.44246 7.09882
#
# Compressibility (1/GPa) = 0.01965933
#
# Stress axis : x y z
#
# Youngs Moduli (GPa) = 129.92868 70.13381 64.33600
#
# Poissons Ratio (x) = 0.29538 0.06346
# Poissons Ratio (y) = 0.54721 0.23943
# Poissons Ratio (z) = 0.12816 0.26100
#
# Static dielectric constant tensor:
#      x y z
#    x 1.652970 0.000000 -0.007520 
#    y 0.000000 1.582530 0.000000 
#    z -0.007520 0.000000 1.631550 
# 
# From -- ./inp_files/232861.got.cif
#   From: 2010.05.17/outbox.cif.g08.bks.cpg/sg15_117_cif.got.tgz:232861.got - 2010.06.03 18:47:42.
