data_PCOD9287874
_publ_section_title
;
Structure prediction by ZEFSAII (Michael W. Deem and Ramdas Pophale) SiO2 
 PCOD9287874
Probable space group: C 2/C
;
_chemical_formula_sum "Si O2"
_cell_formula_units_Z 44
_cell_length_a 25.412752
_cell_length_b 18.979972
_cell_length_c 5.024710
_cell_angle_alpha 90.000000
_cell_angle_beta 65.964647
_cell_angle_gamma 90.000000
_cell_volume 2213.446464
_symmetry_space_group_name_H-M "C 2/C"
_symmetry_group_IT_number 15
_symmetry_cell_setting 'monoclinic'
loop_
_space_group_symop_operation_xyz
x,y,z
-x,y,1/2-z
-x,-y,-z
x,-y,1/2+z
1/2+x,1/2+y,z
1/2-x,1/2+y,1/2-z
1/2-x,1/2-y,-z
1/2+x,1/2-y,1/2+z
loop_
_atom_site_type_symbol
_atom_site_label
_atom_site_fract_x
_atom_site_fract_y
_atom_site_fract_z
Si Si1 0.000000 0.769423 0.750000
Si Si2 0.308263 0.296653 0.390955
Si Si3 0.886783 0.234024 0.234736
Si Si4 0.768674 0.954121 0.527075
Si Si5 0.131825 0.456971 0.875328
Si Si6 0.942738 0.343787 0.761728
O O1 0.052952 0.804647 0.804129
O O2 0.032723 0.720507 0.467510
O O3 0.250000 0.250000 0.500000
O O4 0.345588 0.293188 0.584406
O O5 0.293632 0.379097 0.390320
O O6 0.347756 0.266651 0.074982
O O7 0.907695 0.309255 0.076688
O O8 0.699538 0.943745 0.688331
O O9 0.784405 0.985735 0.781343
O O10 0.119313 0.522785 0.704072
O O11 0.095612 0.392827 0.839884
O O12 0.000000 0.381932 0.750000
#
# Coordination Sequence:
#
# PCOD9287874 Si02
#       6
#     4   8   8   8   8   8
#     4  10  22  42  60  88 126 164 202 258 338 370
#     4  12  24  39  65 100 128 161 214 269 312 375
#     4  11  23  39  62  91 124 160 200 259 326 367
#     4  10  22  41  60  86 127 170 202 245 316 384
#     4  10  23  37  55  79 115 167 213 249 293 361
#     4  10  22  38  59  83 124 160 206 263 314 357
#
# _framework density 19.878505000000001
#
# number of rings (size 3 to 8) (size 9 to 14) (size 15 to 20)
#    0.000    1.455    1.818    2.727    5.091    3.636 
#    0.000    0.000    0.000    0.000    0.000   12.727 
#    0.000    0.000    0.000    0.000    0.000    0.000 
#
# Total GULP energy -122793.577467 kJ/mol
# GULP energy per Si atom -5581.526248 kJ/mol
# Density = 1.983326 g / cm^3
# Si number density = 19.878505 Si / 1000 Ang^3
#
#
#
# Elastic Constant Matrix: (Units=GPa)
#
#
# Indices 1 2 3 4 5 6 
#
# 1 113.2988 29.2650 35.0090 0.0000 10.8222 0.0000
# 2 29.2650 55.8032 8.7179 0.0000 -17.6074 0.0000
# 3 35.0090 8.7179 99.6053 0.0000 -2.7827 0.0000
# 4 0.0000 0.0000 0.0000 11.8710 0.0000 5.7737
# 5 10.8222 -17.6074 -2.7827 0.0000 30.8353 0.0000
# 6 0.0000 0.0000 0.0000 5.7737 0.0000 30.9952
#
#
#
# Elastic Compliance Matrix: (Units=1/GPa)
#
#
# Indices 1 2 3 4 5 6 
#
# 1 0.013775 -0.010007 -0.004271 0.000000 -0.010934 0.000000
# 2 -0.010007 0.029375 0.001517 0.000000 0.020423 0.000000
# 3 -0.004271 0.001517 0.011503 0.000000 0.003403 0.000000
# 4 0.000000 0.000000 0.000000 0.092631 0.000000 -0.017255
# 5 -0.010934 0.020423 0.003403 0.000000 0.048237 0.000000
# 6 0.000000 0.000000 0.000000 -0.017255 0.000000 0.035477
#
#
# Mechanical properties :
#
#
# Convention : Reuss Voigt Hill
#
# Bulk Modulus (GPa) = 34.32837 46.07678 40.20257
# Shear Modulus (GPa) = 18.78063 27.78800 23.28431
#
# Velocity S-wave (km/s) = 3.07705 3.74290 3.42618
# Velocity P-wave (km/s) = 5.47091 6.47368 5.99330
#
# Compressibility (1/GPa) = 0.02913043
#
# Stress axis : x y z
#
# Youngs Moduli (GPa) = 72.59383 34.04251 86.93220
#
# Poissons Ratio (x) = 0.34066 0.37131
# Poissons Ratio (y) = 0.72644 -0.13185
# Poissons Ratio (z) = 0.31007 -0.05163
#
# Static dielectric constant tensor:
#      x y z
#    x 1.788190 0.000000 0.027330 
#    y 0.000000 1.690060 0.000000 
#    z 0.027330 0.000000 1.698730 
# 
# From -- ./inp_files/15378.got.cif
#   From: 2010.05.17/outbox.cif.g08.bks.cpg/sg15_8_cif.got.tgz:15378.got - 2010.06.03 18:47:42.
