data_PCOD9287573
_publ_section_title
;
Structure prediction by ZEFSAII (Michael W. Deem and Ramdas Pophale) SiO2 
 PCOD9287573
Probable space group: C 2/C
;
_chemical_formula_sum "Si O2"
_cell_formula_units_Z 56
_cell_length_a 13.607029
_cell_length_b 21.985883
_cell_length_c 17.899676
_cell_angle_alpha 90.000000
_cell_angle_beta 148.981503
_cell_angle_gamma 90.000000
_cell_volume 2759.465595
_symmetry_space_group_name_H-M "C 2/C"
_symmetry_group_IT_number 15
_symmetry_cell_setting 'monoclinic'
loop_
_space_group_symop_operation_xyz
x,y,z
-x,y,1/2-z
-x,-y,-z
x,-y,1/2+z
1/2+x,1/2+y,z
1/2-x,1/2+y,1/2-z
1/2-x,1/2-y,-z
1/2+x,1/2-y,1/2+z
loop_
_atom_site_type_symbol
_atom_site_label
_atom_site_fract_x
_atom_site_fract_y
_atom_site_fract_z
Si Si1 0.234694 0.486017 0.257533
Si Si2 0.571732 0.373973 0.034837
Si Si3 0.067522 0.299432 0.208409
Si Si4 0.588763 0.492663 0.381595
Si Si5 0.129888 0.407918 0.509991
Si Si6 0.923586 0.841589 0.785417
Si Si7 0.699898 0.912841 0.857581
O O1 0.337420 0.437395 0.379301
O O2 0.398710 0.505663 0.306743
O O3 0.169966 0.540130 0.269343
O O4 0.057575 0.450479 0.104375
O O5 0.547569 0.371814 0.930644
O O6 0.365955 0.368591 0.938339
O O7 0.718132 0.323338 0.156011
O O8 0.070411 0.229197 0.187300
O O9 0.000000 0.301616 0.250000
O O10 0.936710 0.348097 0.079804
O O11 0.500000 0.461250 0.250000
O O12 0.716246 0.548287 0.431732
O O13 0.718738 0.451330 0.519338
O O14 0.224672 0.377713 0.645212
O O15 0.000000 0.842910 0.750000
O O16 0.500000 0.884539 0.750000
#
# Coordination Sequence:
#
# PCOD9287573 Si02
#       7
#     8   8   8   8   8   8   8
#     4  10  24  39  56  85 117 164 195 227 291 354
#     4  10  22  38  60  81 120 155 196 236 287 348
#     4  10  22  37  57  86 120 155 191 235 297 359
#     4  11  24  37  57  87 121 157 197 238 281 346
#     4  11  23  35  60  83 122 159 191 238 292 332
#     4  11  23  36  58  91 119 151 196 241 293 352
#     4  11  23  40  58  83 113 159 202 236 282 346
#
# _framework density 20.293785
#
# number of rings (size 3 to 8) (size 9 to 14) (size 15 to 20)
#    0.000    1.429    1.429    3.857   14.000    4.000 
#    0.000    0.000    0.000    0.857    0.000    5.000 
#    0.000    0.000    0.000    0.000    0.000    0.000 
#
# Total GULP energy -156362.117660 kJ/mol
# GULP energy per Si atom -5584.361345 kJ/mol
# Density = 2.024759 g / cm^3
# Si number density = 20.293785 Si / 1000 Ang^3
#
#
#
# Elastic Constant Matrix: (Units=GPa)
#
#
# Indices 1 2 3 4 5 6 
#
# 1 82.6230 25.9166 35.2348 -0.0008 21.4523 -0.0007
# 2 25.9166 74.9849 30.5066 0.0037 4.0903 0.0023
# 3 35.2348 30.5066 93.6254 0.0024 4.9908 0.0026
# 4 -0.0008 0.0037 0.0024 18.0782 0.0008 -3.0484
# 5 21.4523 4.0903 4.9908 0.0008 48.3820 0.0009
# 6 -0.0007 0.0023 0.0026 -3.0484 0.0009 14.8830
#
#
#
# Elastic Compliance Matrix: (Units=1/GPa)
#
#
# Indices 1 2 3 4 5 6 
#
# 1 0.017059 -0.003530 -0.004909 0.000003 -0.006759 0.000003
# 2 -0.003530 0.016134 -0.003961 -0.000003 0.000610 -0.000003
# 3 -0.004909 -0.003961 0.013761 -0.000002 0.001092 -0.000002
# 4 0.000003 -0.000003 -0.000002 0.057294 -0.000002 0.011735
# 5 -0.006759 0.000610 0.001092 -0.000002 0.023502 -0.000002
# 6 0.000003 -0.000003 -0.000002 0.011735 -0.000002 0.069594
#
#
# Mechanical properties :
#
#
# Convention : Reuss Voigt Hill
#
# Bulk Modulus (GPa) = 45.14051 48.28326 46.71188
# Shear Modulus (GPa) = 21.78367 26.90700 24.34533
#
# Velocity S-wave (km/s) = 3.27986 3.64521 3.46735
# Velocity P-wave (km/s) = 6.05269 6.44674 6.25282
#
# Compressibility (1/GPa) = 0.02215305
#
# Stress axis : x y z
#
# Youngs Moduli (GPa) = 58.62012 61.97956 72.66932
#
# Poissons Ratio (x) = 0.21878 0.35677
# Poissons Ratio (y) = 0.20693 0.28786
# Poissons Ratio (z) = 0.28779 0.24551
#
# Static dielectric constant tensor:
#      x y z
#    x 1.738980 0.000000 0.011400 
#    y 0.000000 1.729600 0.000000 
#    z 0.011400 0.000000 1.770760 
# 
# From -- ./inp_files/206974.got.cif
#   From: 2010.05.17/outbox.cif.g08.bks.cpg/sg15_104_cif.got.tgz:206974.got - 2010.06.03 18:47:42.
