data_PCOD9287619
_publ_section_title
;
Structure prediction by ZEFSAII (Michael W. Deem and Ramdas Pophale) SiO2 
 PCOD9287619
Probable space group: C 2/C
;
_chemical_formula_sum "Si O2"
_cell_formula_units_Z 48
_cell_length_a 6.521403
_cell_length_b 26.674160
_cell_length_c 16.754367
_cell_angle_alpha 90.000000
_cell_angle_beta 59.011711
_cell_angle_gamma 90.000000
_cell_volume 2498.496440
_symmetry_space_group_name_H-M "C 2/C"
_symmetry_group_IT_number 15
_symmetry_cell_setting 'monoclinic'
loop_
_space_group_symop_operation_xyz
x,y,z
-x,y,1/2-z
-x,-y,-z
x,-y,1/2+z
1/2+x,1/2+y,z
1/2-x,1/2+y,1/2-z
1/2-x,1/2-y,-z
1/2+x,1/2-y,1/2+z
loop_
_atom_site_type_symbol
_atom_site_label
_atom_site_fract_x
_atom_site_fract_y
_atom_site_fract_z
Si Si1 0.993181 0.582354 0.986024
Si Si2 0.500000 0.937891 0.750000
Si Si3 0.745049 0.670308 0.650422
Si Si4 0.000000 0.294164 0.250000
Si Si5 0.510565 0.765246 0.842011
Si Si6 0.779445 0.495466 0.934381
Si Si7 0.764758 0.635519 0.168396
O O1 0.175450 0.624704 0.919943
O O2 0.899936 0.548486 0.932061
O O3 0.121083 0.544715 0.021810
O O4 0.779021 0.607841 0.080181
O O5 0.646719 0.902770 0.781203
O O6 0.338318 0.973734 0.836251
O O7 0.500000 0.661539 0.750000
O O8 0.694317 0.722263 0.611276
O O9 0.945364 0.677099 0.678787
O O10 0.760300 0.262199 0.310445
O O11 0.500000 0.777867 0.750000
O O12 0.543672 0.818929 0.876120
O O13 0.500000 0.500000 0.000000
O O14 0.500000 0.652279 0.250000
#
# Coordination Sequence:
#
# PCOD9287619 Si02
#       7
#     8   4   8   4   8   8   8
#     4  10  23  38  55  87 114 143 192 241 282 340
#     4  10  22  37  60  86 108 152 193 226 296 340
#     4   9  20  36  56  81 116 150 188 233 279 333
#     4   8  16  33  54  76 110 150 183 218 272 328
#     4   9  17  32  56  79 112 148 188 230 272 327
#     4  10  22  41  59  81 116 145 188 243 287 338
#     4  11  20  35  59  83 114 151 189 231 285 338
#
# _framework density 19.211554
#
# number of rings (size 3 to 8) (size 9 to 14) (size 15 to 20)
#    0.000    2.667    1.667    1.000    0.000    5.333 
#    0.000    2.500    0.000    0.000    0.000    0.000 
#    0.000    0.000    0.000    0.000    0.000    0.000 
#
# Total GULP energy -133654.975644 kJ/mol
# GULP energy per Si atom -5568.957318 kJ/mol
# Density = 1.916783 g / cm^3
# Si number density = 19.211554 Si / 1000 Ang^3
#
#
#
# Elastic Constant Matrix: (Units=GPa)
#
#
# Indices 1 2 3 4 5 6 
#
# 1 62.9433 18.1135 15.3927 0.0000 -4.3384 0.0000
# 2 18.1135 120.1205 49.3924 0.0000 -1.2642 0.0000
# 3 15.3927 49.3924 73.0535 0.0000 -7.5846 0.0000
# 4 0.0000 0.0000 0.0000 21.3404 0.0000 -6.9281
# 5 -4.3384 -1.2642 -7.5846 0.0000 19.7697 0.0000
# 6 0.0000 0.0000 0.0000 -6.9281 0.0000 6.5394
#
#
#
# Elastic Compliance Matrix: (Units=1/GPa)
#
#
# Indices 1 2 3 4 5 6 
#
# 1 0.017091 -0.001644 -0.002199 0.000000 0.002802 0.000000
# 2 -0.001644 0.011794 -0.007902 0.000000 -0.002638 0.000000
# 3 -0.002199 -0.007902 0.020196 0.000000 0.006760 0.000000
# 4 0.000000 0.000000 0.000000 0.071426 0.000000 0.075671
# 5 0.002802 -0.002638 0.006760 0.000000 0.053622 0.000000
# 6 0.000000 0.000000 0.000000 0.075671 0.000000 0.233087
#
#
# Mechanical properties :
#
#
# Convention : Reuss Voigt Hill
#
# Bulk Modulus (GPa) = 39.07330 46.87939 42.97634
# Shear Modulus (GPa) = 11.38339 21.07783 16.23061
#
# Velocity S-wave (km/s) = 2.43683 3.31591 2.90976
# Velocity P-wave (km/s) = 5.31979 6.25420 5.80582
#
# Compressibility (1/GPa) = 0.02559293
#
# Stress axis : x y z
#
# Youngs Moduli (GPa) = 58.50972 84.78763 49.51399
#
# Poissons Ratio (x) = 0.13935 0.10888
# Poissons Ratio (y) = 0.09616 0.39125
# Poissons Ratio (z) = 0.12867 0.66997
#
# Static dielectric constant tensor:
#      x y z
#    x 1.665100 0.000000 -0.013460 
#    y 0.000000 1.705780 0.000000 
#    z -0.013460 0.000000 1.649170 
# 
# From -- ./inp_files/130330.got.cif
#   From: 2010.05.17/outbox.cif.g08.bks.cpg/sg15_66_cif.got.tgz:130330.got - 2010.06.03 18:47:42.
