data_PCOD9287966
_publ_section_title
;
Structure prediction by ZEFSAII (Michael W. Deem and Ramdas Pophale) SiO2 
 PCOD9287966
Probable space group: C 2/C
;
_chemical_formula_sum "Si O2"
_cell_formula_units_Z 44
_cell_length_a 14.685546
_cell_length_b 17.605774
_cell_length_c 6.960142
_cell_angle_alpha 90.000000
_cell_angle_beta 96.140671
_cell_angle_gamma 90.000000
_cell_volume 1789.222195
_symmetry_space_group_name_H-M "C 2/C"
_symmetry_group_IT_number 15
_symmetry_cell_setting 'monoclinic'
loop_
_space_group_symop_operation_xyz
x,y,z
-x,y,1/2-z
-x,-y,-z
x,-y,1/2+z
1/2+x,1/2+y,z
1/2-x,1/2+y,1/2-z
1/2-x,1/2-y,-z
1/2+x,1/2-y,1/2+z
loop_
_atom_site_type_symbol
_atom_site_label
_atom_site_fract_x
_atom_site_fract_y
_atom_site_fract_z
Si Si1 0.000000 0.051497 0.250000
Si Si2 0.853655 0.323209 0.974807
Si Si3 0.855263 0.048380 0.944326
Si Si4 0.215967 0.195009 0.775242
Si Si5 0.524153 0.087696 0.474338
Si Si6 0.272985 0.901191 0.598867
O O1 0.082808 0.092251 0.380608
O O2 0.064112 0.995442 0.144862
O O3 0.857519 0.255930 0.817333
O O4 0.948466 0.360920 0.060436
O O5 0.796990 0.386153 0.830643
O O6 0.803335 0.292143 0.153950
O O7 0.812892 0.112089 0.805205
O O8 0.782260 0.979151 0.950303
O O9 0.225223 0.175124 0.003472
O O10 0.500000 0.106373 0.250000
O O11 0.633093 0.095914 0.504077
O O12 0.500000 0.000000 0.500000
#
# Coordination Sequence:
#
# PCOD9287966 Si02
#       6
#     4   8   8   8   8   8
#     4  10  22  38  60  94 124 158 222 276 322 388
#     4  10  24  43  61  99 137 171 229 263 333 398
#     4  11  21  40  62  97 123 168 222 272 332 391
#     4  11  23  42  68  92 134 181 212 282 331 390
#     4  10  23  39  63  99 132 172 224 273 321 397
#     4  11  23  41  69  96 132 175 222 273 331 397
#
# _framework density 24.591692999999999
#
# number of rings (size 3 to 8) (size 9 to 14) (size 15 to 20)
#    0.000    1.455    1.818    2.727    7.636    0.000 
#    4.909    5.455    0.000    0.000    0.000    0.000 
#    0.000    0.000    0.000    0.000    0.000    0.000 
#
# Total GULP energy -122511.683891 kJ/mol
# GULP energy per Si atom -5568.712904 kJ/mol
# Density = 2.453572 g / cm^3
# Si number density = 24.591693 Si / 1000 Ang^3
#
#
#
# Elastic Constant Matrix: (Units=GPa)
#
#
# Indices 1 2 3 4 5 6 
#
# 1 124.0351 33.1291 18.4073 0.0000 9.0893 0.0000
# 2 33.1291 99.7963 -5.2033 0.0000 10.2784 0.0000
# 3 18.4073 -5.2033 79.7532 0.0000 12.0230 0.0000
# 4 0.0000 0.0000 0.0000 23.7768 0.0000 2.1360
# 5 9.0893 10.2784 12.0230 0.0000 28.6967 0.0000
# 6 0.0000 0.0000 0.0000 2.1360 0.0000 41.4900
#
#
#
# Elastic Compliance Matrix: (Units=1/GPa)
#
#
# Indices 1 2 3 4 5 6 
#
# 1 0.009286 -0.003105 -0.002210 0.000000 -0.000903 0.000000
# 2 -0.003105 0.011575 0.002080 0.000000 -0.004034 0.000000
# 3 -0.002210 0.002080 0.014080 0.000000 -0.005944 0.000000
# 4 0.000000 0.000000 0.000000 0.042253 0.000000 -0.002175
# 5 -0.000903 -0.004034 -0.005944 0.000000 0.039069 0.000000
# 6 0.000000 0.000000 0.000000 -0.002175 0.000000 0.024214
#
#
# Mechanical properties :
#
#
# Convention : Reuss Voigt Hill
#
# Bulk Modulus (GPa) = 35.12173 44.02786 39.57480
# Shear Modulus (GPa) = 31.96184 35.94280 33.95232
#
# Velocity S-wave (km/s) = 3.60905 3.82721 3.71973
# Velocity P-wave (km/s) = 5.62849 6.12148 5.88015
#
# Compressibility (1/GPa) = 0.02847240
#
# Stress axis : x y z
#
# Youngs Moduli (GPa) = 107.69396 86.39332 71.02029
#
# Poissons Ratio (x) = 0.26822 0.15692
# Poissons Ratio (y) = 0.33435 -0.14771
# Poissons Ratio (z) = 0.23795 -0.17969
#
# Static dielectric constant tensor:
#      x y z
#    x 2.418070 0.000000 0.464260 
#    y 0.000000 2.104050 0.000000 
#    z 0.464260 0.000000 2.852210 
# 
# From -- ./inp_files/39277.got.cif
#   From: 2010.05.17/outbox.cif.g08.bks.cpg/sg15_20_cif.got.tgz:39277.got - 2010.06.03 18:47:42.
