data_PCOD9287485
_publ_section_title
;
Structure prediction by ZEFSAII (Michael W. Deem and Ramdas Pophale) SiO2 
 PCOD9287485
Probable space group: C 2/C
;
_chemical_formula_sum "Si O2"
_cell_formula_units_Z 44
_cell_length_a 17.729168
_cell_length_b 8.662522
_cell_length_c 18.446387
_cell_angle_alpha 90.000000
_cell_angle_beta 125.600077
_cell_angle_gamma 90.000000
_cell_volume 2303.498700
_symmetry_space_group_name_H-M "C 2/C"
_symmetry_group_IT_number 15
_symmetry_cell_setting 'monoclinic'
loop_
_space_group_symop_operation_xyz
x,y,z
-x,y,1/2-z
-x,-y,-z
x,-y,1/2+z
1/2+x,1/2+y,z
1/2-x,1/2+y,1/2-z
1/2-x,1/2-y,-z
1/2+x,1/2-y,1/2+z
loop_
_atom_site_type_symbol
_atom_site_label
_atom_site_fract_x
_atom_site_fract_y
_atom_site_fract_z
Si Si1 0.730825 0.693527 0.406247
Si Si2 0.500000 0.816059 0.750000
Si Si3 0.608769 0.982999 0.074345
Si Si4 0.835257 0.483273 0.226992
Si Si5 0.295505 0.314561 0.920798
Si Si6 0.133454 0.899150 0.396032
O O1 0.750000 0.750000 0.500000
O O2 0.823992 0.610711 0.426217
O O3 0.652044 0.559378 0.366088
O O4 0.693227 0.829875 0.333423
O O5 0.580287 0.927206 0.765203
O O6 0.460634 0.695929 0.668040
O O7 0.635767 0.970105 0.173827
O O8 0.632553 0.816974 0.055349
O O9 0.500000 0.000000 0.000000
O O10 0.745056 0.592842 0.169065
O O11 0.209408 0.220804 0.907132
O O12 0.339359 0.424855 0.005521
#
# Coordination Sequence:
#
# PCOD9287485 Si02
#       6
#     8   4   8   8   8   8
#     4  11  23  41  67  95 127 171 218 274 329 392
#     4  10  22  36  64  94 124 168 210 268 320 394
#     4  11  24  40  62  92 130 171 215 269 328 388
#     4  11  22  39  64  93 129 167 219 264 333 389
#     4   9  18  36  60  80 120 169 204 249 321 391
#     4   9  18  36  59  88 120 161 210 251 318 385
#
# _framework density 19.101378
#
# number of rings (size 3 to 8) (size 9 to 14) (size 15 to 20)
#    0.000    1.818    1.818    2.182    5.091    0.727 
#    0.000    0.909    0.000    0.000    0.000    0.000 
#    0.000    0.000    0.000    0.000    0.000    0.000 
#
# Total GULP energy -122555.519190 kJ/mol
# GULP energy per Si atom -5570.705418 kJ/mol
# Density = 1.905790 g / cm^3
# Si number density = 19.101378 Si / 1000 Ang^3
#
#
#
# Elastic Constant Matrix: (Units=GPa)
#
#
# Indices 1 2 3 4 5 6 
#
# 1 78.4946 49.6090 43.3959 0.0000 8.7111 0.0000
# 2 49.6090 109.5477 54.8513 0.0000 14.9013 0.0000
# 3 43.3959 54.8513 127.0360 0.0000 -4.5157 0.0000
# 4 0.0000 0.0000 0.0000 33.8849 0.0000 -4.2400
# 5 8.7111 14.9013 -4.5157 0.0000 30.0270 0.0000
# 6 0.0000 0.0000 0.0000 -4.2400 0.0000 15.6332
#
#
#
# Elastic Compliance Matrix: (Units=1/GPa)
#
#
# Indices 1 2 3 4 5 6 
#
# 1 0.019265 -0.006329 -0.003956 0.000000 -0.003043 0.000000
# 2 -0.006329 0.015176 -0.004618 0.000000 -0.006389 0.000000
# 3 -0.003956 -0.004618 0.011400 0.000000 0.005154 0.000000
# 4 0.000000 0.000000 0.000000 0.030548 0.000000 0.008285
# 5 -0.003043 -0.006389 0.005154 0.000000 0.038132 0.000000
# 6 0.000000 0.000000 0.000000 0.008285 0.000000 0.066214
#
#
# Mechanical properties :
#
#
# Convention : Reuss Voigt Hill
#
# Bulk Modulus (GPa) = 62.36508 67.86560 65.11534
# Shear Modulus (GPa) = 23.16035 27.05715 25.10875
#
# Velocity S-wave (km/s) = 3.48587 3.76773 3.62954
# Velocity P-wave (km/s) = 6.99443 7.38471 7.19222
#
# Compressibility (1/GPa) = 0.01603461
#
# Stress axis : x y z
#
# Youngs Moduli (GPa) = 51.90822 65.89401 87.71754
#
# Poissons Ratio (x) = 0.41706 0.34703
# Poissons Ratio (y) = 0.32854 0.40505
# Poissons Ratio (z) = 0.20536 0.30427
#
# Static dielectric constant tensor:
#      x y z
#    x 1.683390 0.000000 -0.026710 
#    y 0.000000 1.666390 0.000000 
#    z -0.026710 0.000000 1.734870 
# 
# From -- ./inp_files/159820.got.cif
#   From: 2010.05.17/outbox.cif.g08.bks.cpg/sg15_80_cif.got.tgz:159820.got - 2010.06.03 18:47:42.
