data_PCOD9288260
_publ_section_title
;
Structure prediction by ZEFSAII (Michael W. Deem and Ramdas Pophale) SiO2 
 PCOD9288260
Probable space group: C 2/C
;
_chemical_formula_sum "Si O2"
_cell_formula_units_Z 48
_cell_length_a 17.749905
_cell_length_b 26.458213
_cell_length_c 5.316819
_cell_angle_alpha 90.000000
_cell_angle_beta 120.747418
_cell_angle_gamma 90.000000
_cell_volume 2145.945310
_symmetry_space_group_name_H-M "C 2/C"
_symmetry_group_IT_number 15
_symmetry_cell_setting 'monoclinic'
loop_
_space_group_symop_operation_xyz
x,y,z
-x,y,1/2-z
-x,-y,-z
x,-y,1/2+z
1/2+x,1/2+y,z
1/2-x,1/2+y,1/2-z
1/2-x,1/2-y,-z
1/2+x,1/2-y,1/2+z
loop_
_atom_site_type_symbol
_atom_site_label
_atom_site_fract_x
_atom_site_fract_y
_atom_site_fract_z
Si Si1 0.321240 0.684876 0.459904
Si Si2 0.870321 0.294623 0.685635
Si Si3 0.640315 0.108203 0.663720
Si Si4 0.000000 0.466453 0.750000
Si Si5 0.000000 0.651413 0.750000
Si Si6 0.901953 0.019524 0.275766
Si Si7 0.663706 0.379020 0.006446
O O1 0.216928 0.697931 0.291485
O O2 0.370242 0.737388 0.594647
O O3 0.343566 0.662111 0.227429
O O4 0.340833 0.646443 0.725738
O O5 0.856204 0.335393 0.443519
O O6 0.958340 0.312310 0.970979
O O7 0.585140 0.069928 0.399338
O O8 0.579498 0.115641 0.801661
O O9 0.740831 0.094629 0.866451
O O10 0.000000 0.500000 0.500000
O O11 0.901812 0.075907 0.168639
O O12 0.859872 0.014340 0.481492
O O13 0.000000 0.000000 0.500000
#
# Coordination Sequence:
#
# PCOD9288260 Si02
#       7
#     8   8   8   4   4   8   8
#     4  10  23  39  64 102 131 169 220 278 312 393
#     4  10  22  38  66  91 135 178 220 257 334 395
#     4  11  24  40  66  92 132 180 220 265 334 404
#     4  12  27  42  60  92 130 166 220 287 324 374
#     4  12  19  40  64  90 128 188 220 259 324 396
#     4  10  22  43  71  94 124 173 215 272 337 393
#     4  11  23  42  68  99 131 170 223 275 328 392
#
# _framework density 22.367763
#
# number of rings (size 3 to 8) (size 9 to 14) (size 15 to 20)
#    0.000    1.333    3.333    1.500    2.333    3.333 
#    0.000    5.000    0.000    0.000    0.000    0.000 
#    0.000    0.000    0.000    0.000    0.000    0.000 
#
# Total GULP energy -134092.879105 kJ/mol
# GULP energy per Si atom -5587.203296 kJ/mol
# Density = 2.231685 g / cm^3
# Si number density = 22.367763 Si / 1000 Ang^3
#
#
#
# Elastic Constant Matrix: (Units=GPa)
#
#
# Indices 1 2 3 4 5 6 
#
# 1 55.0850 17.4026 24.0287 0.0000 7.7577 0.0000
# 2 17.4026 104.5246 40.1122 0.0000 12.5966 0.0000
# 3 24.0287 40.1122 115.4213 0.0000 -10.6748 0.0000
# 4 0.0000 0.0000 0.0000 -17.6177 0.0000 -12.4948
# 5 7.7577 12.5966 -10.6748 0.0000 32.6817 0.0000
# 6 0.0000 0.0000 0.0000 -12.4948 0.0000 18.4978
#
#
#
# Elastic Compliance Matrix: (Units=1/GPa)
#
#
# Indices 1 2 3 4 5 6 
#
# 1 0.021389 -0.001019 -0.004673 0.000000 -0.006211 0.000000
# 2 -0.001019 0.012215 -0.004584 0.000000 -0.005963 0.000000
# 3 -0.004673 -0.004584 0.011854 0.000000 0.006748 0.000000
# 4 0.000000 0.000000 0.000000 -0.038376 0.000000 -0.025922
# 5 -0.006211 -0.005963 0.006748 0.000000 0.036575 0.000000
# 6 0.000000 0.000000 0.000000 -0.025922 0.000000 0.036551
#
#
# Mechanical properties :
#
#
# Convention : Reuss Voigt Hill
#
# Bulk Modulus (GPa) = 40.15345 48.67975 44.41660
# Shear Modulus (GPa) = 45.84580 19.61153 32.72866
#
# Velocity S-wave (km/s) = 4.53220 2.96425 3.82934
# Velocity P-wave (km/s) = 6.73634 5.79019 6.28111
#
# Compressibility (1/GPa) = 0.02490446
#
# Stress axis : x y z
#
# Youngs Moduli (GPa) = 46.75338 81.86818 84.35968
#
# Poissons Ratio (x) = 0.08345 0.39421
# Poissons Ratio (y) = 0.04766 0.38673
# Poissons Ratio (z) = 0.21847 0.37531
#
# Static dielectric constant tensor:
#      x y z
#    x 1.966420 0.000000 -0.039190 
#    y 0.000000 1.825340 0.000000 
#    z -0.039190 0.000000 1.853110 
# 
# From -- ./inp_files/13982.got.cif
#   From: 2010.05.17/outbox.cif.g08.bks.cpg/sg15_7_cif.got.tgz:13982.got - 2010.06.03 18:47:42.
