data_PCOD9288628
_publ_section_title
;
Structure prediction by ZEFSAII (Michael W. Deem and Ramdas Pophale) SiO2 
 PCOD9288628
Probable space group: C 2/C
;
_chemical_formula_sum "Si O2"
_cell_formula_units_Z 44
_cell_length_a 13.858511
_cell_length_b 7.524755
_cell_length_c 24.876600
_cell_angle_alpha 90.000000
_cell_angle_beta 135.732033
_cell_angle_gamma 90.000000
_cell_volume 1810.776052
_symmetry_space_group_name_H-M "C 2/C"
_symmetry_group_IT_number 15
_symmetry_cell_setting 'monoclinic'
loop_
_space_group_symop_operation_xyz
x,y,z
-x,y,1/2-z
-x,-y,-z
x,-y,1/2+z
1/2+x,1/2+y,z
1/2-x,1/2+y,1/2-z
1/2-x,1/2-y,-z
1/2+x,1/2-y,1/2+z
loop_
_atom_site_type_symbol
_atom_site_label
_atom_site_fract_x
_atom_site_fract_y
_atom_site_fract_z
Si Si1 0.000000 0.065304 0.750000
Si Si2 0.502097 0.794624 0.017812
Si Si3 0.872173 0.878829 0.031591
Si Si4 0.131122 0.104965 0.701904
Si Si5 0.683530 0.676952 0.400591
Si Si6 0.071772 0.303984 0.169714
O O1 0.081558 0.182694 0.738903
O O2 0.120974 0.948405 0.828129
O O3 0.593786 0.662548 0.017504
O O4 0.337645 0.755661 0.952227
O O5 0.561188 0.800752 0.101486
O O6 0.500000 0.000000 0.000000
O O7 0.023424 0.824467 0.115650
O O8 0.830997 0.057638 0.049782
O O9 0.750000 0.750000 0.000000
O O10 0.292053 0.104378 0.755047
O O11 0.097725 0.898777 0.696457
O O12 0.578305 0.842117 0.366042
#
# Coordination Sequence:
#
# PCOD9288628 Si02
#       6
#     4   8   8   8   8   8
#     4   8  18  38  64  88 122 168 216 254 320 390
#     4  12  23  38  72  93 130 178 218 266 343 388
#     4  10  22  39  62  95 125 166 221 270 317 400
#     4  10  23  40  67  89 133 166 216 270 323 393
#     4  10  22  40  65  97 131 168 220 276 325 402
#     4  10  24  41  64  98 127 169 219 268 327 399
#
# _framework density 24.298974000000001
#
# number of rings (size 3 to 8) (size 9 to 14) (size 15 to 20)
#    0.000    2.182    1.818    1.636   10.182    2.909 
#    0.000    0.000    8.000    0.000    0.000    0.000 
#    0.000    0.000    0.000    0.000    0.000    0.000 
#
# Total GULP energy -122607.679785 kJ/mol
# GULP energy per Si atom -5573.076354 kJ/mol
# Density = 2.424367 g / cm^3
# Si number density = 24.298974 Si / 1000 Ang^3
#
#
#
# Elastic Constant Matrix: (Units=GPa)
#
#
# Indices 1 2 3 4 5 6 
#
# 1 91.2313 25.9518 10.1028 0.0000 27.0965 0.0000
# 2 25.9518 34.0876 -7.1196 0.0000 0.4511 0.0000
# 3 10.1028 -7.1196 62.5869 0.0000 20.7893 0.0000
# 4 0.0000 0.0000 0.0000 19.4186 0.0000 9.5979
# 5 27.0965 0.4511 20.7893 0.0000 45.5772 0.0000
# 6 0.0000 0.0000 0.0000 9.5979 0.0000 27.4770
#
#
#
# Elastic Compliance Matrix: (Units=1/GPa)
#
#
# Indices 1 2 3 4 5 6 
#
# 1 0.017998 -0.013808 -0.001140 0.000000 -0.010044 0.000000
# 2 -0.013808 0.040829 0.005045 0.000000 0.005503 0.000000
# 3 -0.001140 0.005045 0.019478 0.000000 -0.008257 0.000000
# 4 0.000000 0.000000 0.000000 0.062243 0.000000 -0.021742
# 5 -0.010044 0.005503 -0.008257 0.000000 0.031624 0.000000
# 6 0.000000 0.000000 0.000000 -0.021742 0.000000 0.043989
#
#
# Mechanical properties :
#
#
# Convention : Reuss Voigt Hill
#
# Bulk Modulus (GPa) = 17.09355 27.30842 22.20099
# Shear Modulus (GPa) = 19.57206 29.09262 24.33234
#
# Velocity S-wave (km/s) = 2.84116 3.46392 3.16788
# Velocity P-wave (km/s) = 4.22053 5.22123 4.74732
#
# Compressibility (1/GPa) = 0.05850159
#
# Stress axis : x y z
#
# Youngs Moduli (GPa) = 55.56113 24.49227 51.33887
#
# Poissons Ratio (x) = 0.33818 0.05851
# Poissons Ratio (y) = 0.76717 -0.25902
# Poissons Ratio (z) = 0.06333 -0.12357
#
# Static dielectric constant tensor:
#      x y z
#    x 2.415250 0.000000 -0.066590 
#    y 0.000000 2.045410 0.000000 
#    z -0.066590 0.000000 2.118250 
# 
# From -- ./inp_files/295316.got.cif
#   From: 2010.05.17/outbox.cif.g08.bks.cpg/sg15_148_cif.got.tgz:295316.got - 2010.06.03 18:47:42.
