data_PCOD9288746
_publ_section_title
;
Structure prediction by ZEFSAII (Michael W. Deem and Ramdas Pophale) SiO2 
 PCOD9288746
Probable space group: C 2/C
;
_chemical_formula_sum "Si O2"
_cell_formula_units_Z 56
_cell_length_a 10.871272
_cell_length_b 16.113092
_cell_length_c 18.601763
_cell_angle_alpha 90.000000
_cell_angle_beta 61.117494
_cell_angle_gamma 90.000000
_cell_volume 2853.153143
_symmetry_space_group_name_H-M "C 2/C"
_symmetry_group_IT_number 15
_symmetry_cell_setting 'monoclinic'
loop_
_space_group_symop_operation_xyz
x,y,z
-x,y,1/2-z
-x,-y,-z
x,-y,1/2+z
1/2+x,1/2+y,z
1/2-x,1/2+y,1/2-z
1/2-x,1/2-y,-z
1/2+x,1/2-y,1/2+z
loop_
_atom_site_type_symbol
_atom_site_label
_atom_site_fract_x
_atom_site_fract_y
_atom_site_fract_z
Si Si1 0.385363 0.425552 0.099744
Si Si2 0.842234 0.892671 0.273867
Si Si3 0.641984 0.389580 0.936254
Si Si4 0.906412 0.292577 0.084637
Si Si5 0.091383 0.398845 0.547181
Si Si6 0.787702 0.345707 0.481471
Si Si7 0.201411 0.532896 0.398463
O O1 0.334013 0.394316 0.190539
O O2 0.384433 0.525365 0.098519
O O3 0.287866 0.390631 0.063199
O O4 0.542787 0.397055 0.034940
O O5 0.730124 0.830387 0.339834
O O6 0.000000 0.870166 0.250000
O O7 0.805014 0.983065 0.317859
O O8 0.595693 0.306469 0.908540
O O9 0.802985 0.389019 0.916866
O O10 0.043137 0.342341 0.074303
O O11 0.909535 0.314342 0.998707
O O12 0.151478 0.466567 0.473341
O O13 0.934282 0.431554 0.605637
O O14 0.750000 0.250000 0.500000
O O15 0.745028 0.392430 0.566893
#
# Coordination Sequence:
#
# PCOD9288746 Si02
#       7
#     8   8   8   8   8   8   8
#     4  11  24  39  66  94 128 170 216 265 325 389
#     4  11  25  43  62  91 134 168 208 278 341 380
#     4  11  21  39  65  93 123 164 225 259 314 395
#     4  10  22  39  64  92 128 167 214 265 335 379
#     4   9  17  34  63  88 115 163 210 257 299 383
#     4  11  21  41  68  95 126 170 225 265 314 407
#     4   9  19  38  61  89 123 165 209 257 323 377
#
# _framework density 19.627407000000002
#
# number of rings (size 3 to 8) (size 9 to 14) (size 15 to 20)
#    0.000    1.714    2.857    3.000    2.000    0.571 
#    2.571    0.000    0.000    0.000    0.000    0.000 
#    0.000    0.000    0.000    0.000    0.000    0.000 
#
# Total GULP energy -156295.846304 kJ/mol
# GULP energy per Si atom -5581.994511 kJ/mol
# Density = 1.958273 g / cm^3
# Si number density = 19.627407 Si / 1000 Ang^3
#
#
#
# Elastic Constant Matrix: (Units=GPa)
#
#
# Indices 1 2 3 4 5 6 
#
# 1 82.0415 13.7859 21.8859 0.0000 -6.1104 0.0000
# 2 13.7859 114.1912 16.3493 0.0000 -1.8770 0.0000
# 3 21.8859 16.3493 58.6413 0.0000 -8.7211 0.0000
# 4 0.0000 0.0000 0.0000 12.8400 0.0000 -3.2579
# 5 -6.1104 -1.8770 -8.7211 0.0000 23.9559 0.0000
# 6 0.0000 0.0000 0.0000 -3.2579 0.0000 25.8943
#
#
#
# Elastic Compliance Matrix: (Units=1/GPa)
#
#
# Indices 1 2 3 4 5 6 
#
# 1 0.013705 -0.000969 -0.004584 0.000000 0.001751 0.000000
# 2 -0.000969 0.009191 -0.002252 0.000000 -0.000347 0.000000
# 3 -0.004584 -0.002252 0.020290 0.000000 0.006041 0.000000
# 4 0.000000 0.000000 0.000000 0.080450 0.000000 0.010122
# 5 0.001751 -0.000347 0.006041 0.000000 0.044362 0.000000
# 6 0.000000 0.000000 0.000000 0.010122 0.000000 0.039892
#
#
# Mechanical properties :
#
#
# Convention : Reuss Voigt Hill
#
# Bulk Modulus (GPa) = 36.26574 39.87956 38.07265
# Shear Modulus (GPa) = 21.48751 26.06158 23.77455
#
# Velocity S-wave (km/s) = 3.31232 3.64787 3.48414
# Velocity P-wave (km/s) = 5.75724 6.17293 5.96871
#
# Compressibility (1/GPa) = 0.02757423
#
# Stress axis : x y z
#
# Youngs Moduli (GPa) = 72.96497 108.80162 49.28517
#
# Poissons Ratio (x) = 0.10548 0.22594
# Poissons Ratio (y) = 0.07073 0.11100
# Poissons Ratio (z) = 0.33450 0.24505
#
# Static dielectric constant tensor:
#      x y z
#    x 1.746590 0.000000 -0.012090 
#    y 0.000000 1.722300 0.000000 
#    z -0.012090 0.000000 1.654690 
# 
# From -- ./inp_files/198203.got.cif
#   From: 2010.05.17/outbox.cif.g08.bks.cpg/sg15_100_cif.got.tgz:198203.got - 2010.06.03 18:47:42.
