data_PCOD9288174
_publ_section_title
;
Structure prediction by ZEFSAII (Michael W. Deem and Ramdas Pophale) SiO2 
 PCOD9288174
Probable space group: C 2/C
;
_chemical_formula_sum "Si O2"
_cell_formula_units_Z 48
_cell_length_a 12.047636
_cell_length_b 8.242478
_cell_length_c 31.310978
_cell_angle_alpha 90.000000
_cell_angle_beta 142.687636
_cell_angle_gamma 90.000000
_cell_volume 1884.705824
_symmetry_space_group_name_H-M "C 2/C"
_symmetry_group_IT_number 15
_symmetry_cell_setting 'monoclinic'
loop_
_space_group_symop_operation_xyz
x,y,z
-x,y,1/2-z
-x,-y,-z
x,-y,1/2+z
1/2+x,1/2+y,z
1/2-x,1/2+y,1/2-z
1/2-x,1/2-y,-z
1/2+x,1/2-y,1/2+z
loop_
_atom_site_type_symbol
_atom_site_label
_atom_site_fract_x
_atom_site_fract_y
_atom_site_fract_z
Si Si1 0.952308 0.748124 0.082361
Si Si2 0.000000 0.625674 0.750000
Si Si3 0.500000 0.631351 0.750000
Si Si4 0.423038 0.613351 0.288615
Si Si5 0.472557 0.063976 0.540013
Si Si6 0.541756 0.116977 0.198308
Si Si7 0.037576 0.114635 0.417535
O O1 0.042741 0.587781 0.089564
O O2 0.943832 0.709285 0.130163
O O3 0.032914 0.928300 0.099339
O O4 0.750000 0.750000 0.000000
O O5 0.120449 0.745623 0.758465
O O6 0.924173 0.510004 0.689417
O O7 0.441322 0.508751 0.694585
O O8 0.386592 0.756232 0.744013
O O9 0.226089 0.535413 0.237436
O O10 0.504790 0.666986 0.358381
O O11 0.257548 0.088338 0.486420
O O12 0.539061 0.245566 0.574119
O O13 0.500000 0.000000 0.500000
#
# Coordination Sequence:
#
# PCOD9288174 Si02
#       7
#     8   4   4   8   8   8   8
#     4  10  22  44  67  91 135 176 214 282 334 391
#     4  10  24  36  62  98 124 174 210 266 332 400
#     4  10  22  38  64  96 124 170 212 266 332 406
#     4  11  22  40  63  96 129 167 216 274 333 392
#     4  10  23  42  66  97 129 179 227 271 329 404
#     4  11  22  42  62  94 132 166 216 272 334 392
#     4  10  22  43  65  93 137 172 218 282 331 394
#
# _framework density 25.468166
#
# number of rings (size 3 to 8) (size 9 to 14) (size 15 to 20)
#    0.000    1.667    1.667    2.000    0.000    4.667 
#    3.000    0.000    0.000    0.000    0.000    0.000 
#    0.000    0.000    0.000    0.000    0.000    0.000 
#
# Total GULP energy -133680.751713 kJ/mol
# GULP energy per Si atom -5570.031321 kJ/mol
# Density = 2.541020 g / cm^3
# Si number density = 25.468166 Si / 1000 Ang^3
#
#
#
# Elastic Constant Matrix: (Units=GPa)
#
#
# Indices 1 2 3 4 5 6 
#
# 1 94.6294 83.2677 42.3282 0.0000 -23.7321 0.0000
# 2 83.2677 225.2572 57.1333 0.0000 -46.8969 0.0000
# 3 42.3282 57.1333 99.9364 0.0000 -30.7386 0.0000
# 4 0.0000 0.0000 0.0000 43.3396 0.0000 -33.8623
# 5 -23.7321 -46.8969 -30.7386 0.0000 46.4553 0.0000
# 6 0.0000 0.0000 0.0000 -33.8623 0.0000 52.5715
#
#
#
# Elastic Compliance Matrix: (Units=1/GPa)
#
#
# Indices 1 2 3 4 5 6 
#
# 1 0.017096 -0.005106 -0.004044 0.000000 0.000903 0.000000
# 2 -0.005106 0.007430 -0.000729 0.000000 0.004410 0.000000
# 3 -0.004044 -0.000729 0.014155 0.000000 0.006565 0.000000
# 4 0.000000 0.000000 0.000000 0.046451 0.000000 0.029920
# 5 0.000903 0.004410 0.006565 0.000000 0.030783 0.000000
# 6 0.000000 0.000000 0.000000 0.029920 0.000000 0.038294
#
#
# Mechanical properties :
#
#
# Convention : Reuss Voigt Hill
#
# Bulk Modulus (GPa) = 52.84469 87.25350 70.04909
# Shear Modulus (GPa) = 27.73583 44.27955 36.00769
#
# Velocity S-wave (km/s) = 3.30364 4.17420 3.76417
# Velocity P-wave (km/s) = 5.94528 7.58724 6.81588
#
# Compressibility (1/GPa) = 0.01892338
#
# Stress axis : x y z
#
# Youngs Moduli (GPa) = 58.49398 134.59604 70.64679
#
# Poissons Ratio (x) = 0.68722 0.28571
# Poissons Ratio (y) = 0.29866 0.05147
# Poissons Ratio (z) = 0.23656 0.09806
#
# Static dielectric constant tensor:
#      x y z
#    x 1.966480 0.000000 0.040420 
#    y 0.000000 2.128040 0.000000 
#    z 0.040420 0.000000 2.021660 
# 
# From -- ./inp_files/291314.got.cif
#   From: 2010.05.17/outbox.cif.g08.bks.cpg/sg15_146_cif.got.tgz:291314.got - 2010.06.03 18:47:42.
