data_PCOD9288031
_publ_section_title
;
Structure prediction by ZEFSAII (Michael W. Deem and Ramdas Pophale) SiO2 
 PCOD9288031
Probable space group: C 2/C
;
_chemical_formula_sum "Si O2"
_cell_formula_units_Z 52
_cell_length_a 29.330838
_cell_length_b 7.908659
_cell_length_c 10.490260
_cell_angle_alpha 90.000000
_cell_angle_beta 74.102010
_cell_angle_gamma 90.000000
_cell_volume 2340.325066
_symmetry_space_group_name_H-M "C 2/C"
_symmetry_group_IT_number 15
_symmetry_cell_setting 'monoclinic'
loop_
_space_group_symop_operation_xyz
x,y,z
-x,y,1/2-z
-x,-y,-z
x,-y,1/2+z
1/2+x,1/2+y,z
1/2-x,1/2+y,1/2-z
1/2-x,1/2-y,-z
1/2+x,1/2-y,1/2+z
loop_
_atom_site_type_symbol
_atom_site_label
_atom_site_fract_x
_atom_site_fract_y
_atom_site_fract_z
Si Si1 0.050415 0.450312 0.525383
Si Si2 0.357926 0.463316 0.722069
Si Si3 0.500000 0.837884 0.250000
Si Si4 0.694633 0.564387 0.988350
Si Si5 0.454976 0.605375 0.070092
Si Si6 0.145488 0.561023 0.816224
Si Si7 0.199064 0.529552 0.525506
O O1 0.055585 0.247892 0.528859
O O2 0.096015 0.509193 0.410225
O O3 0.000000 0.500000 0.500000
O O4 0.042303 0.545479 0.663049
O O5 0.321999 0.525673 0.641439
O O6 0.341139 0.506979 0.876726
O O7 0.410867 0.511660 0.640059
O O8 0.360515 0.259052 0.710581
O O9 0.472326 0.717724 0.174776
O O10 0.696006 0.767179 0.006721
O O11 0.746775 0.493719 0.978431
O O12 0.500000 0.500000 0.000000
O O13 0.165862 0.480744 0.671056
O O14 0.182294 0.549023 0.905418
#
# Coordination Sequence:
#
# PCOD9288031 Si02
#       7
#     8   8   4   8   8   8   8
#     4   9  21  38  59  89 120 165 205 253 309 370
#     4  10  23  40  60  90 125 161 205 256 312 374
#     4  10  22  40  66  82 134 164 208 264 310 378
#     4  10  22  40  61  89 127 160 205 257 314 371
#     4  10  23  40  61  95 125 165 213 261 317 375
#     4  10  22  38  62  90 123 156 212 252 306 374
#     4  10  22  39  63  91 120 164 206 257 311 370
#
# _framework density 22.219135999999999
#
# number of rings (size 3 to 8) (size 9 to 14) (size 15 to 20)
#    0.000    2.154    0.000    0.923   10.769    3.692 
#    2.769    0.000    0.000    0.000    0.000    0.000 
#    0.000    0.000    0.000    0.000    0.000    0.000 
#
# Total GULP energy -145193.282957 kJ/mol
# GULP energy per Si atom -5584.357037 kJ/mol
# Density = 2.216856 g / cm^3
# Si number density = 22.219136 Si / 1000 Ang^3
#
#
#
# Elastic Constant Matrix: (Units=GPa)
#
#
# Indices 1 2 3 4 5 6 
#
# 1 50.8469 -3.2273 -13.6701 0.0000 -13.2764 0.0000
# 2 -3.2273 16.9200 14.5727 0.0000 -10.9153 0.0000
# 3 -13.6701 14.5727 74.1178 0.0000 -4.6851 0.0000
# 4 0.0000 0.0000 0.0000 18.4725 0.0000 8.9024
# 5 -13.2764 -10.9153 -4.6851 0.0000 41.6996 0.0000
# 6 0.0000 0.0000 0.0000 8.9024 0.0000 24.6826
#
#
#
# Elastic Compliance Matrix: (Units=1/GPa)
#
#
# Indices 1 2 3 4 5 6 
#
# 1 0.023722 0.008054 0.003427 0.000000 0.010046 0.000000
# 2 0.008054 0.088627 -0.014414 0.000000 0.024144 0.000000
# 3 0.003427 -0.014414 0.016909 0.000000 -0.000782 0.000000
# 4 0.000000 0.000000 0.000000 0.065524 0.000000 -0.023633
# 5 0.010046 0.024144 -0.000782 0.000000 0.033412 0.000000
# 6 0.000000 0.000000 0.000000 -0.023633 0.000000 0.049038
#
#
# Mechanical properties :
#
#
# Convention : Reuss Voigt Hill
#
# Bulk Modulus (GPa) = 8.10419 15.24837 11.67628
# Shear Modulus (GPa) = 15.42120 26.58489 21.00304
#
# Velocity S-wave (km/s) = 2.63734 3.46278 3.07786
# Velocity P-wave (km/s) = 3.59575 4.78178 4.23053
#
# Compressibility (1/GPa) = 0.12339293
#
# Stress axis : x y z
#
# Youngs Moduli (GPa) = 42.15412 11.28319 59.14151
#
# Poissons Ratio (x) = -0.09088 -0.20266
# Poissons Ratio (y) = -0.33952 0.85246
# Poissons Ratio (z) = -0.14445 0.16263
#
# Static dielectric constant tensor:
#      x y z
#    x 1.876520 0.000000 0.034220 
#    y 0.000000 1.894770 0.000000 
#    z 0.034220 0.000000 1.911430 
# 
# From -- ./inp_files/121443.got.cif
#   From: 2010.05.17/outbox.cif.g08.bks.cpg/sg15_61_cif.got.tgz:121443.got - 2010.06.03 18:47:42.
