data_PCOD9288001
_publ_section_title
;
Structure prediction by ZEFSAII (Michael W. Deem and Ramdas Pophale) SiO2 
 PCOD9288001
Probable space group: C 2/C
;
_chemical_formula_sum "Si O2"
_cell_formula_units_Z 56
_cell_length_a 14.299544
_cell_length_b 19.319709
_cell_length_c 18.015188
_cell_angle_alpha 90.000000
_cell_angle_beta 31.444945
_cell_angle_gamma 90.000000
_cell_volume 2596.360222
_symmetry_space_group_name_H-M "C 2/C"
_symmetry_group_IT_number 15
_symmetry_cell_setting 'monoclinic'
loop_
_space_group_symop_operation_xyz
x,y,z
-x,y,1/2-z
-x,-y,-z
x,-y,1/2+z
1/2+x,1/2+y,z
1/2-x,1/2+y,1/2-z
1/2-x,1/2-y,-z
1/2+x,1/2-y,1/2+z
loop_
_atom_site_type_symbol
_atom_site_label
_atom_site_fract_x
_atom_site_fract_y
_atom_site_fract_z
Si Si1 0.454438 0.391065 0.953953
Si Si2 0.125674 0.700509 0.037002
Si Si3 0.245432 0.574208 0.344546
Si Si4 0.772000 0.229744 0.184585
Si Si5 0.209459 0.632712 0.749563
Si Si6 0.357137 0.931499 0.045339
Si Si7 0.199111 0.671422 0.507542
O O1 0.584957 0.441787 0.821335
O O2 0.589774 0.326836 0.879102
O O3 0.303350 0.371866 0.997643
O O4 0.345548 0.404951 0.102341
O O5 0.137297 0.731047 0.945754
O O6 0.201535 0.623113 0.976525
O O7 0.250000 0.750000 0.000000
O O8 0.922644 0.699801 0.203924
O O9 0.203399 0.509511 0.426484
O O10 0.263858 0.644068 0.381840
O O11 0.071912 0.576543 0.408879
O O12 0.728714 0.289436 0.273423
O O13 0.203055 0.591628 0.831355
O O14 0.010169 0.649193 0.852677
O O15 0.250000 0.750000 0.500000
#
# Coordination Sequence:
#
# PCOD9288001 Si02
#       7
#     8   8   8   8   8   8   8
#     4  12  22  35  63  91 132 164 214 264 316 387
#     4  11  22  40  66  96 125 161 216 276 326 375
#     4  10  22  41  64  93 124 178 219 252 319 391
#     4  11  21  37  59  94 127 162 211 262 329 376
#     4  10  22  38  61  96 132 172 208 268 324 377
#     4   9  21  43  67  86 131 174 213 260 320 391
#     4  11  23  37  61  97 134 172 215 266 320 379
#
# _framework density 21.568656000000001
#
# number of rings (size 3 to 8) (size 9 to 14) (size 15 to 20)
#    0.000    1.429    4.286    1.286    2.000    1.714 
#    0.000    5.714    3.143    1.714    0.000    0.000 
#    0.000    0.000    0.000    0.000    0.000    0.000 
#
# Total GULP energy -156163.781088 kJ/mol
# GULP energy per Si atom -5577.277896 kJ/mol
# Density = 2.151956 g / cm^3
# Si number density = 21.568656 Si / 1000 Ang^3
#
#
#
# Elastic Constant Matrix: (Units=GPa)
#
#
# Indices 1 2 3 4 5 6 
#
# 1 46.4448 21.4511 12.6849 -0.0138 -1.0701 -0.0018
# 2 21.4511 85.1751 5.8131 0.0089 -7.0150 0.0073
# 3 12.6849 5.8131 120.7011 -0.0010 0.5184 0.0028
# 4 -0.0138 0.0089 -0.0010 17.0748 0.0176 -2.2604
# 5 -1.0701 -7.0150 0.5184 0.0176 8.0707 0.0028
# 6 -0.0018 0.0073 0.0028 -2.2604 0.0028 27.8992
#
#
#
# Elastic Compliance Matrix: (Units=1/GPa)
#
#
# Indices 1 2 3 4 5 6 
#
# 1 0.025033 -0.006313 -0.002318 0.000026 -0.002019 0.000006
# 2 -0.006313 0.014290 -0.000075 -0.000026 0.011588 -0.000007
# 3 -0.002318 -0.000075 0.008536 0.000000 -0.000920 -0.000001
# 4 0.000026 -0.000026 0.000000 0.059201 -0.000150 0.004796
# 5 -0.002019 0.011588 -0.000920 -0.000150 0.133769 -0.000029
# 6 0.000006 -0.000007 -0.000001 0.004796 -0.000029 0.036232
#
#
# Mechanical properties :
#
#
# Convention : Reuss Voigt Hill
#
# Bulk Modulus (GPa) = 32.84237 36.91324 34.87781
# Shear Modulus (GPa) = 16.41385 24.76708 20.59047
#
# Velocity S-wave (km/s) = 2.76162 3.39232 3.09309
# Velocity P-wave (km/s) = 5.04269 5.70046 5.38163
#
# Compressibility (1/GPa) = 0.03044847
#
# Stress axis : x y z
#
# Youngs Moduli (GPa) = 39.94714 69.97987 117.14960
#
# Poissons Ratio (x) = 0.44175 0.27157
# Poissons Ratio (y) = 0.25217 0.00874
# Poissons Ratio (z) = 0.09260 0.00522
#
# Static dielectric constant tensor:
#      x y z
#    x 1.771500 0.000000 0.013410 
#    y 0.000000 1.829180 0.000000 
#    z 0.013410 0.000000 1.861480 
# 
# From -- ./inp_files/206927.got.cif
#   From: 2010.05.17/outbox.cif.g08.bks.cpg/sg15_104_cif.got.tgz:206927.got - 2010.06.03 18:47:42.
