data_PCOD9288903
_publ_section_title
;
Structure prediction by ZEFSAII (Michael W. Deem and Ramdas Pophale) SiO2 
 PCOD9288903
Probable space group: C 2/C
;
_chemical_formula_sum "Si O2"
_cell_formula_units_Z 48
_cell_length_a 5.042829
_cell_length_b 26.900678
_cell_length_c 19.541862
_cell_angle_alpha 90.000000
_cell_angle_beta 44.804172
_cell_angle_gamma 90.000000
_cell_volume 1868.095080
_symmetry_space_group_name_H-M "C 2/C"
_symmetry_group_IT_number 15
_symmetry_cell_setting 'monoclinic'
loop_
_space_group_symop_operation_xyz
x,y,z
-x,y,1/2-z
-x,-y,-z
x,-y,1/2+z
1/2+x,1/2+y,z
1/2-x,1/2+y,1/2-z
1/2-x,1/2-y,-z
1/2+x,1/2-y,1/2+z
loop_
_atom_site_type_symbol
_atom_site_label
_atom_site_fract_x
_atom_site_fract_y
_atom_site_fract_z
Si Si1 0.146126 0.065589 0.407560
Si Si2 0.942294 0.306559 0.179651
Si Si3 0.423206 0.874918 0.062823
Si Si4 0.974240 0.334701 0.834238
Si Si5 0.613945 0.467555 0.069889
Si Si6 0.226537 0.294830 0.928299
O O1 0.470753 0.105509 0.337712
O O2 0.089036 0.053627 0.497906
O O3 0.768045 0.097153 0.460429
O O4 0.179940 0.012315 0.365918
O O5 0.500000 0.293288 0.250000
O O6 0.000000 0.311663 0.250000
O O7 0.999574 0.356566 0.125237
O O8 0.195790 0.262547 0.101351
O O9 0.120522 0.919285 0.116508
O O10 0.374123 0.823609 0.028633
O O11 0.559408 0.310958 0.919423
O O12 0.000000 0.320795 0.750000
O O13 0.222574 0.316599 0.851704
O O14 0.000000 0.500000 0.000000
#
# Coordination Sequence:
#
# PCOD9288903 Si02
#       6
#     8   8   8   8   8   8
#     4   9  19  35  63  93 121 161 213 262 317 380
#     4  12  27  43  63  91 136 173 210 265 332 382
#     4  10  22  39  67  90 121 167 222 261 310 391
#     4  11  21  36  62  93 131 160 203 266 331 374
#     4   9  17  36  63  89 119 157 213 264 313 371
#     4  11  22  41  63  94 119 170 216 264 307 379
#
# _framework density 25.694626
#
# number of rings (size 3 to 8) (size 9 to 14) (size 15 to 20)
#    0.000    1.667    1.667    3.500    2.333    0.000 
#    0.000    4.167   11.000    0.000    0.000    0.000 
#    0.000    0.000    0.000    0.000    0.000    0.000 
#
# Total GULP energy -133847.134469 kJ/mol
# GULP energy per Si atom -5576.963936 kJ/mol
# Density = 2.563614 g / cm^3
# Si number density = 25.694626 Si / 1000 Ang^3
#
#
#
# Elastic Constant Matrix: (Units=GPa)
#
#
# Indices 1 2 3 4 5 6 
#
# 1 126.8817 58.4028 23.5822 0.0000 29.1248 0.0000
# 2 58.4028 197.1485 54.0780 0.0000 23.6146 0.0000
# 3 23.5822 54.0780 83.5457 0.0000 27.2475 0.0000
# 4 0.0000 0.0000 0.0000 12.7998 0.0000 8.4260
# 5 29.1248 23.6146 27.2475 0.0000 28.1977 0.0000
# 6 0.0000 0.0000 0.0000 8.4260 0.0000 47.0847
#
#
#
# Elastic Compliance Matrix: (Units=1/GPa)
#
#
# Indices 1 2 3 4 5 6 
#
# 1 0.011348 -0.002584 0.002316 0.000000 -0.011795 0.000000
# 2 -0.002584 0.006827 -0.003936 0.000000 0.000755 0.000000
# 3 0.002316 -0.003936 0.019812 0.000000 -0.018241 0.000000
# 4 0.000000 0.000000 0.000000 0.088559 0.000000 -0.015848
# 5 -0.011795 0.000755 -0.018241 0.000000 0.064641 0.000000
# 6 0.000000 0.000000 0.000000 -0.015848 0.000000 0.024074
#
#
# Mechanical properties :
#
#
# Convention : Reuss Voigt Hill
#
# Bulk Modulus (GPa) = 33.80647 75.52243 54.66445
# Shear Modulus (GPa) = 21.41063 35.71730 28.56396
#
# Velocity S-wave (km/s) = 2.88978 3.73241 3.33779
# Velocity P-wave (km/s) = 4.93153 6.93041 6.01459
#
# Compressibility (1/GPa) = 0.02958014
#
# Stress axis : x y z
#
# Youngs Moduli (GPa) = 88.12275 146.47660 50.47326
#
# Poissons Ratio (x) = 0.37853 -0.11692
# Poissons Ratio (y) = 0.22773 0.19865
# Poissons Ratio (z) = -0.20413 0.57651
#
# Static dielectric constant tensor:
#      x y z
#    x 2.119870 0.000000 -0.182470 
#    y 0.000000 2.153620 0.000000 
#    z -0.182470 0.000000 2.225610 
# 
# From -- ./inp_files/228394.got.cif
#   From: 2010.05.17/outbox.cif.g08.bks.cpg/sg15_115_cif.got.tgz:228394.got - 2010.06.03 18:47:42.
