data_PCOD9288449
_publ_section_title
;
Structure prediction by ZEFSAII (Michael W. Deem and Ramdas Pophale) SiO2 
 PCOD9288449
Probable space group: C 2/C
;
_chemical_formula_sum "Si O2"
_cell_formula_units_Z 64
_cell_length_a 23.700603
_cell_length_b 21.569694
_cell_length_c 5.653511
_cell_angle_alpha 90.000000
_cell_angle_beta 76.970828
_cell_angle_gamma 90.000000
_cell_volume 2815.752284
_symmetry_space_group_name_H-M "C 2/C"
_symmetry_group_IT_number 15
_symmetry_cell_setting 'monoclinic'
loop_
_space_group_symop_operation_xyz
x,y,z
-x,y,1/2-z
-x,-y,-z
x,-y,1/2+z
1/2+x,1/2+y,z
1/2-x,1/2+y,1/2-z
1/2-x,1/2-y,-z
1/2+x,1/2-y,1/2+z
loop_
_atom_site_type_symbol
_atom_site_label
_atom_site_fract_x
_atom_site_fract_y
_atom_site_fract_z
Si Si1 0.235576 0.650599 0.099516
Si Si2 0.522833 0.070556 0.977026
Si Si3 0.148618 0.836607 0.825643
Si Si4 0.272977 0.977809 0.642998
Si Si5 0.068111 0.750695 0.166897
Si Si6 0.158234 0.264625 0.952300
Si Si7 0.861748 0.977090 0.773991
Si Si8 0.633831 0.137098 0.855324
O O1 0.304354 0.655741 0.007790
O O2 0.228446 0.595035 0.296501
O O3 0.207001 0.713592 0.223458
O O4 0.196656 0.631095 0.914205
O O5 0.500000 0.099461 0.750000
O O6 0.591945 0.078128 0.899628
O O7 0.500000 0.096620 0.250000
O O8 0.500000 0.000000 0.000000
O O9 0.177366 0.787307 0.619196
O O10 0.138690 0.902812 0.719986
O O11 0.090784 0.804941 0.974857
O O12 0.205780 0.999313 0.678353
O O13 0.298556 0.992660 0.360503
O O14 0.100711 0.760685 0.382800
O O15 0.000000 0.747496 0.250000
O O16 0.097097 0.687532 0.042550
O O17 0.140433 0.327858 0.102385
O O18 0.887160 0.997147 0.495115
#
# Coordination Sequence:
#
# PCOD9288449 Si02
#       8
#     8   8   8   8   8   8   8   8
#     4  10  22  39  59  90 136 170 222 278 354 411
#     4  10  23  43  66  91 125 177 239 298 345 389
#     4  10  22  39  65  97 130 174 216 279 336 419
#     4   9  19  36  55  83 121 175 221 264 315 389
#     4  10  23  41  64  92 124 164 223 276 339 409
#     4  10  23  38  62  95 125 176 218 280 347 416
#     4   9  19  36  63  92 127 171 213 250 313 394
#     4  10  23  38  61  90 128 174 222 280 348 406
#
# _framework density 22.729272000000002
#
# number of rings (size 3 to 8) (size 9 to 14) (size 15 to 20)
#    0.000    2.250    0.000    0.750    8.750    7.000 
#    4.500    0.000    0.000    0.750    0.000    0.000 
#    0.000    0.000    0.000    0.000    0.000    0.000 
#
# Total GULP energy -178673.451540 kJ/mol
# GULP energy per Si atom -5583.545361 kJ/mol
# Density = 2.267754 g / cm^3
# Si number density = 22.729272 Si / 1000 Ang^3
#
#
#
# Elastic Constant Matrix: (Units=GPa)
#
#
# Indices 1 2 3 4 5 6 
#
# 1 70.8098 6.9016 15.6595 0.0000 0.5307 0.0000
# 2 6.9016 78.6928 22.0165 0.0000 -10.1247 0.0000
# 3 15.6595 22.0165 110.5039 0.0000 20.5259 0.0000
# 4 0.0000 0.0000 0.0000 26.6737 0.0000 0.4820
# 5 0.5307 -10.1247 20.5259 0.0000 20.8014 0.0000
# 6 0.0000 0.0000 0.0000 0.4820 0.0000 29.0889
#
#
#
# Elastic Compliance Matrix: (Units=1/GPa)
#
#
# Indices 1 2 3 4 5 6 
#
# 1 0.014661 -0.000421 -0.002310 0.000000 0.001700 0.000000
# 2 -0.000421 0.016034 -0.005616 0.000000 0.013357 0.000000
# 3 -0.002310 -0.005616 0.013459 0.000000 -0.015956 0.000000
# 4 0.000000 0.000000 0.000000 0.037501 0.000000 -0.000621
# 5 0.001700 0.013357 -0.015956 0.000000 0.070276 0.000000
# 6 0.000000 0.000000 0.000000 -0.000621 0.000000 0.034388
#
#
# Mechanical properties :
#
#
# Convention : Reuss Voigt Hill
#
# Bulk Modulus (GPa) = 36.41382 38.79573 37.60478
# Shear Modulus (GPa) = 23.56640 29.67474 26.62057
#
# Velocity S-wave (km/s) = 3.22348 3.61719 3.42600
# Velocity P-wave (km/s) = 5.46899 5.87802 5.67719
#
# Compressibility (1/GPa) = 0.02746210
#
# Stress axis : x y z
#
# Youngs Moduli (GPa) = 68.20635 62.36648 74.29759
#
# Poissons Ratio (x) = 0.02625 0.17160
# Poissons Ratio (y) = 0.02871 0.41725
# Poissons Ratio (z) = 0.15753 0.35025
#
# Static dielectric constant tensor:
#      x y z
#    x 1.816690 0.000000 0.029100 
#    y 0.000000 1.720030 0.000000 
#    z 0.029100 0.000000 1.904230 
# 
# From -- ./inp_files/16229.got.cif
#   From: 2010.05.17/outbox.cif.g08.bks.cpg/sg15_9_cif.got.tgz:16229.got - 2010.06.03 18:47:42.
