data_PCOD9288788
_publ_section_title
;
Structure prediction by ZEFSAII (Michael W. Deem and Ramdas Pophale) SiO2 
 PCOD9288788
Probable space group: C 2/C
;
_chemical_formula_sum "Si O2"
_cell_formula_units_Z 56
_cell_length_a 16.054063
_cell_length_b 17.928683
_cell_length_c 19.128368
_cell_angle_alpha 90.000000
_cell_angle_beta 30.537722
_cell_angle_gamma 90.000000
_cell_volume 2797.468392
_symmetry_space_group_name_H-M "C 2/C"
_symmetry_group_IT_number 15
_symmetry_cell_setting 'monoclinic'
loop_
_space_group_symop_operation_xyz
x,y,z
-x,y,1/2-z
-x,-y,-z
x,-y,1/2+z
1/2+x,1/2+y,z
1/2-x,1/2+y,1/2-z
1/2-x,1/2-y,-z
1/2+x,1/2-y,1/2+z
loop_
_atom_site_type_symbol
_atom_site_label
_atom_site_fract_x
_atom_site_fract_y
_atom_site_fract_z
Si Si1 0.651830 0.979402 0.086669
Si Si2 0.821775 0.170545 0.200889
Si Si3 0.284481 0.931376 0.184638
Si Si4 0.020023 0.039864 0.318049
Si Si5 0.525476 0.073650 0.393133
Si Si6 0.829820 0.680692 0.905193
Si Si7 0.155211 0.813770 0.388829
O O1 0.500000 0.979284 0.250000
O O2 0.605554 0.046051 0.068574
O O3 0.649411 0.892681 0.061723
O O4 0.840132 0.985907 0.974830
O O5 0.903070 0.109527 0.194940
O O6 0.668471 0.131556 0.272695
O O7 0.747870 0.238703 0.298548
O O8 0.963033 0.195139 0.044770
O O9 0.199013 0.874582 0.298829
O O10 0.147626 0.973118 0.237551
O O11 0.379322 0.997046 0.156967
O O12 0.423342 0.897681 0.033761
O O13 0.000000 0.056862 0.250000
O O14 0.728095 0.659384 0.910118
O O15 0.000000 0.705249 0.750000
O O16 0.750000 0.750000 0.000000
#
# Coordination Sequence:
#
# PCOD9288788 Si02
#       7
#     8   8   8   8   8   8   8
#     4  11  23  39  62  94 129 166 218 264 322 378
#     4  11  26  40  65  90 131 169 216 264 321 388
#     4  10  22  39  65  87 128 169 220 263 321 382
#     4  11  23  42  63  97 126 172 212 269 322 386
#     4  10  22  41  61  91 126 173 215 269 318 384
#     4  11  24  37  58  91 132 172 205 260 317 390
#     4  12  24  42  62  95 128 174 214 264 324 393
#
# _framework density 20.018098999999999
#
# number of rings (size 3 to 8) (size 9 to 14) (size 15 to 20)
#    0.000    1.143    2.857    3.429    4.000    1.143 
#    0.000    0.000    0.000    1.714    0.000    0.000 
#    0.000    0.000    0.000    0.000    0.000    0.000 
#
# Total GULP energy -156259.312695 kJ/mol
# GULP energy per Si atom -5580.689739 kJ/mol
# Density = 1.997254 g / cm^3
# Si number density = 20.018099 Si / 1000 Ang^3
#
#
#
# Elastic Constant Matrix: (Units=GPa)
#
#
# Indices 1 2 3 4 5 6 
#
# 1 49.4745 42.6035 25.4111 -0.0024 -7.0252 0.0025
# 2 42.6035 62.9877 52.2262 0.0028 -0.2844 -0.0021
# 3 25.4111 52.2262 162.4857 0.0017 -21.8587 -0.0014
# 4 -0.0024 0.0028 0.0017 42.4033 0.0004 1.3308
# 5 -7.0252 -0.2844 -21.8587 0.0004 28.9336 -0.0009
# 6 0.0025 -0.0021 -0.0014 1.3308 -0.0009 17.3104
#
#
#
# Elastic Compliance Matrix: (Units=1/GPa)
#
#
# Indices 1 2 3 4 5 6 
#
# 1 0.059330 -0.047210 0.008650 0.000006 0.020477 -0.000013
# 2 -0.047210 0.060061 -0.014898 -0.000006 -0.022128 0.000012
# 3 0.008650 -0.014898 0.010968 0.000001 0.010240 -0.000002
# 4 0.000006 -0.000006 0.000001 0.023640 0.000002 -0.001817
# 5 0.020477 -0.022128 0.010240 0.000002 0.047052 -0.000002
# 6 -0.000013 0.000012 -0.000002 -0.001817 -0.000002 0.057909
#
#
# Mechanical properties :
#
#
# Convention : Reuss Voigt Hill
#
# Bulk Modulus (GPa) = 42.65643 57.26996 49.96320
# Shear Modulus (GPa) = 13.38007 28.04325 20.71166
#
# Velocity S-wave (km/s) = 2.58815 3.74691 3.22008
# Velocity P-wave (km/s) = 5.50332 6.88406 6.23205
#
# Compressibility (1/GPa) = 0.02344312
#
# Stress axis : x y z
#
# Youngs Moduli (GPa) = 16.85478 16.64979 91.17599
#
# Poissons Ratio (x) = 0.78603 -0.78868
# Poissons Ratio (y) = 0.79571 1.35838
# Poissons Ratio (z) = -0.14580 0.24806
#
# Static dielectric constant tensor:
#      x y z
#    x 1.733280 0.000000 -0.012660 
#    y 0.000000 1.695090 0.000000 
#    z -0.012660 0.000000 1.745380 
# 
# From -- ./inp_files/249229.got.cif
#   From: 2010.05.17/outbox.cif.g08.bks.cpg/sg15_125_cif.got.tgz:249229.got - 2010.06.03 18:47:42.
