data_PCOD9288452
_publ_section_title
;
Structure prediction by ZEFSAII (Michael W. Deem and Ramdas Pophale) SiO2 
 PCOD9288452
Probable space group: C 2/C
;
_chemical_formula_sum "Si O2"
_cell_formula_units_Z 52
_cell_length_a 12.217371
_cell_length_b 24.075485
_cell_length_c 8.900228
_cell_angle_alpha 90.000000
_cell_angle_beta 67.056612
_cell_angle_gamma 90.000000
_cell_volume 2410.804085
_symmetry_space_group_name_H-M "C 2/C"
_symmetry_group_IT_number 15
_symmetry_cell_setting 'monoclinic'
loop_
_space_group_symop_operation_xyz
x,y,z
-x,y,1/2-z
-x,-y,-z
x,-y,1/2+z
1/2+x,1/2+y,z
1/2-x,1/2+y,1/2-z
1/2-x,1/2-y,-z
1/2+x,1/2-y,1/2+z
loop_
_atom_site_type_symbol
_atom_site_label
_atom_site_fract_x
_atom_site_fract_y
_atom_site_fract_z
Si Si1 0.173426 0.038403 0.409703
Si Si2 0.874489 0.444765 0.252215
Si Si3 0.193876 0.323908 0.120633
Si Si4 0.388054 0.898327 0.907822
Si Si5 0.000000 0.989286 0.750000
Si Si6 0.137470 0.724592 0.979816
Si Si7 0.936967 0.223157 0.441699
O O1 0.262620 0.088470 0.395807
O O2 0.088843 0.044460 0.310581
O O3 0.264994 0.986646 0.336329
O O4 0.085418 0.025316 0.595552
O O5 0.850572 0.386450 0.350179
O O6 0.000000 0.465281 0.250000
O O7 0.885550 0.429481 0.070153
O O8 0.168525 0.294407 0.293399
O O9 0.126584 0.284016 0.039264
O O10 0.333940 0.320676 0.021816
O O11 0.500000 0.916299 0.750000
O O12 0.399586 0.832744 0.925203
O O13 0.033053 0.769468 0.019904
O O14 0.250000 0.750000 0.000000
O O15 0.000000 0.211590 0.250000
#
# Coordination Sequence:
#
# PCOD9288452 Si02
#       7
#     8   8   8   8   4   8   8
#     4  11  23  46  69  96 130 175 216 269 328 395
#     4  11  23  42  67  98 132 170 221 274 332 379
#     4   9  19  38  62  85 123 167 203 259 322 376
#     4  11  25  42  68  98 131 169 223 277 325 390
#     4  10  24  46  68  88 136 170 214 264 320 398
#     4  10  22  39  59  92 125 165 206 266 322 381
#     4   9  18  38  61  86 124 162 212 262 316 381
#
# _framework density 21.569565000000001
#
# number of rings (size 3 to 8) (size 9 to 14) (size 15 to 20)
#    0.000    1.846    1.538    2.769    4.308    1.231 
#    9.692    0.000    0.000    0.000    0.000    0.000 
#    0.000    0.000    0.000    0.000    0.000    0.000 
#
# Total GULP energy -145370.129888 kJ/mol
# GULP energy per Si atom -5591.158842 kJ/mol
# Density = 2.152047 g / cm^3
# Si number density = 21.569565 Si / 1000 Ang^3
#
#
#
# Elastic Constant Matrix: (Units=GPa)
#
#
# Indices 1 2 3 4 5 6 
#
# 1 177.9824 15.2973 43.7458 0.0000 -4.3462 0.0000
# 2 15.2973 42.4207 26.6526 0.0000 -6.7200 0.0000
# 3 43.7458 26.6526 86.3544 0.0000 -25.0404 0.0000
# 4 0.0000 0.0000 0.0000 -40.5546 0.0000 13.0518
# 5 -4.3462 -6.7200 -25.0404 0.0000 38.4352 0.0000
# 6 0.0000 0.0000 0.0000 13.0518 0.0000 17.0977
#
#
#
# Elastic Compliance Matrix: (Units=1/GPa)
#
#
# Indices 1 2 3 4 5 6 
#
# 1 0.006514 -0.000291 -0.003712 0.000000 -0.001733 0.000000
# 2 -0.000291 0.029285 -0.009143 0.000000 -0.000870 0.000000
# 3 -0.003712 -0.009143 0.019354 0.000000 0.010591 0.000000
# 4 0.000000 0.000000 0.000000 -0.019795 0.000000 0.015111
# 5 -0.001733 -0.000870 0.010591 0.000000 0.032570 0.000000
# 6 0.000000 0.000000 0.000000 0.015111 0.000000 0.046952
#
#
# Mechanical properties :
#
#
# Convention : Reuss Voigt Hill
#
# Bulk Modulus (GPa) = 34.65096 53.12764 43.88930
# Shear Modulus (GPa) = 33.15796 17.73309 25.44553
#
# Velocity S-wave (km/s) = 3.92504 2.87040 3.43840
# Velocity P-wave (km/s) = 6.05317 5.97243 6.01294
#
# Compressibility (1/GPa) = 0.02885923
#
# Stress axis : x y z
#
# Youngs Moduli (GPa) = 153.52274 34.14684 51.66922
#
# Poissons Ratio (x) = 0.00993 0.19182
# Poissons Ratio (y) = 0.04466 0.47243
# Poissons Ratio (z) = 0.56995 0.31222
#
# Static dielectric constant tensor:
#      x y z
#    x 1.747800 0.000000 0.071940 
#    y 0.000000 1.759970 0.000000 
#    z 0.071940 0.000000 1.665530 
# 
# From -- ./inp_files/34068.got.cif
#   From: 2010.05.17/outbox.cif.g08.bks.cpg/sg15_18_cif.got.tgz:34068.got - 2010.06.03 18:47:42.
