data_PCOD9288890
_publ_section_title
;
Structure prediction by ZEFSAII (Michael W. Deem and Ramdas Pophale) SiO2 
 PCOD9288890
Probable space group: C 2/C
;
_chemical_formula_sum "Si O2"
_cell_formula_units_Z 44
_cell_length_a 26.513540
_cell_length_b 17.568472
_cell_length_c 14.676024
_cell_angle_alpha 90.000000
_cell_angle_beta 17.661716
_cell_angle_gamma 90.000000
_cell_volume 2074.056604
_symmetry_space_group_name_H-M "C 2/C"
_symmetry_group_IT_number 15
_symmetry_cell_setting 'monoclinic'
loop_
_space_group_symop_operation_xyz
x,y,z
-x,y,1/2-z
-x,-y,-z
x,-y,1/2+z
1/2+x,1/2+y,z
1/2-x,1/2+y,1/2-z
1/2-x,1/2-y,-z
1/2+x,1/2-y,1/2+z
loop_
_atom_site_type_symbol
_atom_site_label
_atom_site_fract_x
_atom_site_fract_y
_atom_site_fract_z
Si Si1 0.747117 0.826306 0.194824
Si Si2 0.110369 0.623433 0.743320
Si Si3 0.243920 0.671679 0.065711
Si Si4 0.000000 0.698662 0.750000
Si Si5 0.500000 0.542445 0.250000
Si Si6 0.000000 0.251154 0.750000
Si Si7 0.352113 0.482006 0.323265
O O1 0.720490 0.832063 0.130687
O O2 0.426799 0.863411 0.600788
O O3 0.578848 0.807064 0.537655
O O4 0.863370 0.756533 0.023164
O O5 0.349944 0.597713 0.541956
O O6 0.195949 0.540336 0.588148
O O7 0.090384 0.653353 0.674932
O O8 0.250000 0.750000 0.000000
O O9 0.366121 0.694191 0.937042
O O10 0.306418 0.605524 0.891700
O O11 0.427119 0.493311 0.294586
O O12 0.500000 0.500000 0.000000
#
# Coordination Sequence:
#
# PCOD9288890 Si02
#       7
#     8   8   8   4   4   4   8
#     4  10  22  39  67 103 134 180 228 290 350 417
#     4  11  24  44  66 100 143 183 235 289 350 421
#     4  12  26  44  70 101 139 181 237 292 349 423
#     4  11  22  38  66 101 138 182 230 285 346 411
#     4   9  23  46  68  93 145 180 230 287 355 428
#     4  12  23  40  72 102 137 176 234 286 355 411
#     4  11  27  45  71 100 142 187 231 289 360 419
#
# _framework density 21.214465000000001
#
# number of rings (size 3 to 8) (size 9 to 14) (size 15 to 20)
#    0.000    1.091    3.636    1.636    5.091    2.909 
#    0.000    0.909    0.000    0.000    0.000    0.000 
#    0.000    0.000    0.000    0.000    0.000    0.000 
#
# Total GULP energy -122696.413547 kJ/mol
# GULP energy per Si atom -5577.109707 kJ/mol
# Density = 2.116618 g / cm^3
# Si number density = 21.214465 Si / 1000 Ang^3
#
#
#
# Elastic Constant Matrix: (Units=GPa)
#
#
# Indices 1 2 3 4 5 6 
#
# 1 49.5162 35.3378 5.9438 -0.0029 -15.1693 -0.0003
# 2 35.3378 152.0040 52.1651 -0.0051 6.7800 0.0007
# 3 5.9438 52.1651 102.1622 -0.0034 7.7990 0.0028
# 4 -0.0029 -0.0051 -0.0034 2.0624 0.0011 -5.7425
# 5 -15.1693 6.7800 7.7990 0.0011 44.6565 -0.0012
# 6 -0.0003 0.0007 0.0028 -5.7425 -0.0012 11.6052
#
#
#
# Elastic Compliance Matrix: (Units=1/GPa)
#
#
# Indices 1 2 3 4 5 6 
#
# 1 0.028756 -0.007648 0.001417 -0.000060 0.010682 -0.000028
# 2 -0.007648 0.010022 -0.004417 -0.000023 -0.003348 -0.000011
# 3 0.001417 -0.004417 0.012034 -0.000010 -0.000950 -0.000008
# 4 -0.000060 -0.000023 -0.000010 -1.283585 0.000001 -0.635144
# 5 0.010682 -0.003348 -0.000950 0.000001 0.026696 0.000004
# 6 -0.000028 -0.000011 -0.000008 -0.635144 0.000004 -0.228113
#
#
# Mechanical properties :
#
#
# Convention : Reuss Voigt Hill
#
# Bulk Modulus (GPa) = 33.88067 54.50843 44.19455
# Shear Modulus (GPa) = -3.56365 25.68053 11.05844
#
# Velocity S-wave (km/s) = -1.29748 3.48303 2.28561
# Velocity P-wave (km/s) = 3.70953 6.47496 5.27663
#
# Compressibility (1/GPa) = 0.02951536
#
# Stress axis : x y z
#
# Youngs Moduli (GPa) = 34.77595 99.78280 83.10020
#
# Poissons Ratio (x) = 0.76310 -0.11772
# Poissons Ratio (y) = 0.26595 0.36703
# Poissons Ratio (z) = -0.04926 0.44071
#
# Static dielectric constant tensor:
#      x y z
#    x 1.782960 0.000000 0.019730 
#    y 0.000000 1.737560 0.000000 
#    z 0.019730 0.000000 1.782920 
# 
# From -- ./inp_files/174418.got.cif
#   From: 2010.05.17/outbox.cif.g08.bks.cpg/sg15_88_cif.got.tgz:174418.got - 2010.06.03 18:47:42.
