data_PCOD9288876
_publ_section_title
;
Structure prediction by ZEFSAII (Michael W. Deem and Ramdas Pophale) SiO2 
 PCOD9288876
Probable space group: C 2/C
;
_chemical_formula_sum "Si O2"
_cell_formula_units_Z 60
_cell_length_a 13.670747
_cell_length_b 22.323952
_cell_length_c 9.677412
_cell_angle_alpha 90.000000
_cell_angle_beta 76.865817
_cell_angle_gamma 90.000000
_cell_volume 2876.142643
_symmetry_space_group_name_H-M "C 2/C"
_symmetry_group_IT_number 15
_symmetry_cell_setting 'monoclinic'
loop_
_space_group_symop_operation_xyz
x,y,z
-x,y,1/2-z
-x,-y,-z
x,-y,1/2+z
1/2+x,1/2+y,z
1/2-x,1/2+y,1/2-z
1/2-x,1/2-y,-z
1/2+x,1/2-y,1/2+z
loop_
_atom_site_type_symbol
_atom_site_label
_atom_site_fract_x
_atom_site_fract_y
_atom_site_fract_z
Si Si1 0.466865 0.159155 0.417039
Si Si2 0.699203 0.064232 0.000738
Si Si3 0.500000 0.548115 0.250000
Si Si4 0.943126 0.747223 0.909070
Si Si5 0.388386 0.012810 0.746322
Si Si6 0.110396 0.067995 0.741692
Si Si7 0.860558 0.621216 0.957750
Si Si8 0.357433 0.375308 0.983082
O O1 0.500000 0.169350 0.250000
O O2 0.360665 0.126640 0.467326
O O3 0.480550 0.219736 0.501635
O O4 0.550836 0.115405 0.459235
O O5 0.688188 0.030121 0.148643
O O6 0.641153 0.024153 0.902464
O O7 0.811975 0.070957 0.908911
O O8 0.417509 0.501336 0.218139
O O9 0.445957 0.588277 0.380886
O O10 0.000000 0.761630 0.750000
O O11 0.870722 0.690256 0.906057
O O12 0.885699 0.805832 0.975822
O O13 0.500000 0.990296 0.750000
O O14 0.381126 0.077097 0.825188
O O15 0.156104 0.099883 0.858810
O O16 0.000000 0.095468 0.750000
O O17 0.749838 0.613205 0.053803
#
# Coordination Sequence:
#
# PCOD9288876 Si02
#       8
#     8   8   4   8   8   8   8   8
#     4  10  24  44  63 101 145 172 216 280 337 401
#     4  12  24  40  66  93 137 183 221 270 345 393
#     4  10  24  44  62  98 128 174 228 280 328 396
#     4  10  22  41  70 100 130 169 228 276 321 401
#     4  12  22  37  62 101 134 176 218 272 332 404
#     4  10  26  43  62  92 137 174 218 286 328 399
#     4  10  22  39  66  97 136 170 220 276 323 401
#     4  12  21  44  73  94 130 179 227 271 340 393
#
# _framework density 20.861274000000002
#
# number of rings (size 3 to 8) (size 9 to 14) (size 15 to 20)
#    1.200    0.000    3.333    3.600    1.867    0.533 
#    2.400    0.000    0.000    2.400    0.000    0.000 
#    0.000    0.000    0.000    0.000    0.000    0.000 
#
# Total GULP energy -167521.158668 kJ/mol
# GULP energy per Si atom -5584.038622 kJ/mol
# Density = 2.081379 g / cm^3
# Si number density = 20.861274 Si / 1000 Ang^3
#
#
#
# Elastic Constant Matrix: (Units=GPa)
#
#
# Indices 1 2 3 4 5 6 
#
# 1 87.2239 12.7049 10.7034 0.0000 -26.1661 0.0000
# 2 12.7049 86.1107 8.7091 0.0000 -12.0571 0.0000
# 3 10.7034 8.7091 62.7712 0.0000 -17.2955 0.0000
# 4 0.0000 0.0000 0.0000 -14.3938 0.0000 15.8716
# 5 -26.1661 -12.0571 -17.2955 0.0000 39.9594 0.0000
# 6 0.0000 0.0000 0.0000 15.8716 0.0000 -12.0092
#
#
#
# Elastic Compliance Matrix: (Units=1/GPa)
#
#
# Indices 1 2 3 4 5 6 
#
# 1 0.014327 -0.000845 0.000215 0.000000 0.009220 0.000000
# 2 -0.000845 0.012208 -0.000780 0.000000 0.002793 0.000000
# 3 0.000215 -0.000780 0.018140 0.000000 0.007756 0.000000
# 4 0.000000 0.000000 0.000000 0.151921 0.000000 0.200782
# 5 0.009220 0.002793 0.007756 0.000000 0.035263 0.000000
# 6 0.000000 0.000000 0.000000 0.200782 0.000000 0.182088
#
#
# Mechanical properties :
#
#
# Convention : Reuss Voigt Hill
#
# Bulk Modulus (GPa) = 23.89271 33.37119 28.63195
# Shear Modulus (GPa) = 11.60854 16.31049 13.95951
#
# Velocity S-wave (km/s) = 2.36151 2.79920 2.58962
# Velocity P-wave (km/s) = 4.34898 5.14576 4.76405
#
# Compressibility (1/GPa) = 0.04185378
#
# Stress axis : x y z
#
# Youngs Moduli (GPa) = 69.79700 81.91682 55.12768
#
# Poissons Ratio (x) = 0.06919 -0.01183
# Poissons Ratio (y) = 0.05895 0.04301
# Poissons Ratio (z) = -0.01497 0.06392
#
# Static dielectric constant tensor:
#      x y z
#    x 1.827370 0.000000 -0.001830 
#    y 0.000000 1.740040 0.000000 
#    z -0.001830 0.000000 1.721960 
# 
# From -- ./inp_files/42595.got.cif
#   From: 2010.05.17/outbox.cif.g08.bks.cpg/sg15_22_cif.got.tgz:42595.got - 2010.06.03 18:47:42.
