data_PCOD9288635
_publ_section_title
;
Structure prediction by ZEFSAII (Michael W. Deem and Ramdas Pophale) SiO2 
 PCOD9288635
Probable space group: C 2/C
;
_chemical_formula_sum "Si O2"
_cell_formula_units_Z 60
_cell_length_a 18.674265
_cell_length_b 18.387459
_cell_length_c 9.217369
_cell_angle_alpha 90.000000
_cell_angle_beta 52.340055
_cell_angle_gamma 90.000000
_cell_volume 2505.566264
_symmetry_space_group_name_H-M "C 2/C"
_symmetry_group_IT_number 15
_symmetry_cell_setting 'monoclinic'
loop_
_space_group_symop_operation_xyz
x,y,z
-x,y,1/2-z
-x,-y,-z
x,-y,1/2+z
1/2+x,1/2+y,z
1/2-x,1/2+y,1/2-z
1/2-x,1/2-y,-z
1/2+x,1/2-y,1/2+z
loop_
_atom_site_type_symbol
_atom_site_label
_atom_site_fract_x
_atom_site_fract_y
_atom_site_fract_z
Si Si1 0.500000 0.901451 0.750000
Si Si2 0.585658 0.794323 0.879360
Si Si3 0.155648 0.373503 0.385347
Si Si4 0.903830 0.391871 0.366104
Si Si5 0.801650 0.084227 0.307585
Si Si6 0.801597 0.209380 0.100252
Si Si7 0.568062 0.358857 0.289168
Si Si8 0.845435 0.052831 0.579546
O O1 0.541949 0.853838 0.828984
O O2 0.592700 0.926751 0.559043
O O3 0.693400 0.788044 0.720277
O O4 0.540407 0.718025 0.895299
O O5 0.578485 0.823293 0.051203
O O6 0.115601 0.370946 0.274116
O O7 0.160211 0.291084 0.438924
O O8 0.255578 0.404570 0.243984
O O9 0.807498 0.423880 0.538493
O O10 0.000000 0.434983 0.250000
O O11 0.819809 0.165228 0.226702
O O12 0.848345 0.065266 0.403396
O O13 0.832475 0.029767 0.143624
O O14 0.844103 0.163540 0.915519
O O15 0.500000 0.384810 0.250000
O O16 0.579450 0.413217 0.408269
#
# Coordination Sequence:
#
# PCOD9288635 Si02
#       8
#     4   8   8   8   8   8   8   8
#     4  12  20  34  56 100 128 164 206 260 326 376
#     4  11  20  34  60  91 135 165 204 265 323 382
#     4  11  22  38  66  96 132 167 213 265 328 391
#     4  10  22  39  62  95 136 168 207 268 323 387
#     4  10  25  45  69  89 129 177 220 262 327 393
#     4  11  22  40  64  96 130 168 216 269 328 389
#     4  12  23  39  64  99 131 167 219 274 324 381
#     4  11  24  46  65  92 128 178 220 265 324 390
#
# _framework density 23.946683
#
# number of rings (size 3 to 8) (size 9 to 14) (size 15 to 20)
#    0.000    1.067    4.667    2.000    1.867    2.667 
#    1.200    4.667    0.000    0.000    0.000    0.000 
#    0.000    0.000    0.000    0.000    0.000    0.000 
#
# Total GULP energy -167677.848149 kJ/mol
# GULP energy per Si atom -5589.261605 kJ/mol
# Density = 2.389218 g / cm^3
# Si number density = 23.946683 Si / 1000 Ang^3
#
#
#
# Elastic Constant Matrix: (Units=GPa)
#
#
# Indices 1 2 3 4 5 6 
#
# 1 115.4446 12.4842 18.4725 0.0000 28.1645 0.0000
# 2 12.4842 44.0575 23.5324 0.0000 19.5608 0.0000
# 3 18.4725 23.5324 96.4555 0.0000 19.9030 0.0000
# 4 0.0000 0.0000 0.0000 35.6169 0.0000 -3.8296
# 5 28.1645 19.5608 19.9030 0.0000 43.7891 0.0000
# 6 0.0000 0.0000 0.0000 -3.8296 0.0000 3.1600
#
#
#
# Elastic Compliance Matrix: (Units=1/GPa)
#
#
# Indices 1 2 3 4 5 6 
#
# 1 0.010317 0.000329 -0.000724 0.000000 -0.006453 0.000000
# 2 0.000329 0.030436 -0.005120 0.000000 -0.011480 0.000000
# 3 -0.000724 -0.005120 0.012345 0.000000 -0.002858 0.000000
# 4 0.000000 0.000000 0.000000 0.032283 0.000000 0.039124
# 5 -0.006453 -0.011480 -0.002858 0.000000 0.033415 0.000000
# 6 0.000000 0.000000 0.000000 0.039124 0.000000 0.363865
#
#
# Mechanical properties :
#
#
# Convention : Reuss Voigt Hill
#
# Bulk Modulus (GPa) = 23.77147 40.54841 32.15994
# Shear Modulus (GPa) = 9.84806 29.94444 19.89625
#
# Velocity S-wave (km/s) = 2.03013 3.54003 2.88558
# Velocity P-wave (km/s) = 3.92984 5.80333 4.95592
#
# Compressibility (1/GPa) = 0.04206723
#
# Stress axis : x y z
#
# Youngs Moduli (GPa) = 96.92837 32.85578 81.00437
#
# Poissons Ratio (x) = -0.01080 0.05868
# Poissons Ratio (y) = -0.03185 0.41471
# Poissons Ratio (z) = 0.07022 0.16821
#
# Static dielectric constant tensor:
#      x y z
#    x 1.955620 0.000000 -0.085250 
#    y 0.000000 1.933330 0.000000 
#    z -0.085250 0.000000 1.947790 
# 
# From -- ./inp_files/50658.got.cif
#   From: 2010.05.17/outbox.cif.g08.bks.cpg/sg15_26_cif.got.tgz:50658.got - 2010.06.03 18:47:42.
