data_PCOD9288871
_publ_section_title
;
Structure prediction by ZEFSAII (Michael W. Deem and Ramdas Pophale) SiO2 
 PCOD9288871
Probable space group: C 2/C
;
_chemical_formula_sum "Si O2"
_cell_formula_units_Z 56
_cell_length_a 23.885875
_cell_length_b 13.836039
_cell_length_c 7.876576
_cell_angle_alpha 90.000000
_cell_angle_beta 107.161569
_cell_angle_gamma 90.000000
_cell_volume 2487.198271
_symmetry_space_group_name_H-M "C 2/C"
_symmetry_group_IT_number 15
_symmetry_cell_setting 'monoclinic'
loop_
_space_group_symop_operation_xyz
x,y,z
-x,y,1/2-z
-x,-y,-z
x,-y,1/2+z
1/2+x,1/2+y,z
1/2-x,1/2+y,1/2-z
1/2-x,1/2-y,-z
1/2+x,1/2-y,1/2+z
loop_
_atom_site_type_symbol
_atom_site_label
_atom_site_fract_x
_atom_site_fract_y
_atom_site_fract_z
Si Si1 0.159262 0.111205 0.834521
Si Si2 0.000000 0.233582 0.250000
Si Si3 0.709413 0.793390 0.722552
Si Si4 0.000000 0.441333 0.750000
Si Si5 0.694029 0.159149 0.846470
Si Si6 0.471460 0.401051 0.406227
Si Si7 0.071204 0.391284 0.128828
Si Si8 0.229382 0.986291 0.640804
O O1 0.176313 0.222809 0.822469
O O2 0.096917 0.090589 0.698713
O O3 0.208925 0.048356 0.784012
O O4 0.169669 0.067847 0.028890
O O5 0.019349 0.172049 0.429909
O O6 0.050687 0.303935 0.229104
O O7 0.674986 0.800057 0.512947
O O8 0.770195 0.740430 0.723122
O O9 0.724479 0.899214 0.802591
O O10 0.961298 0.382963 0.580686
O O11 0.954719 0.510756 0.811178
O O12 0.641036 0.114288 0.692330
O O13 0.739503 0.073617 0.932289
O O14 0.500000 0.373201 0.250000
O O15 0.500000 0.500000 0.500000
#
# Coordination Sequence:
#
# PCOD9288871 Si02
#       8
#     8   4   8   4   8   8   8   8
#     4  11  24  42  67  96 138 174 216 289 334 399
#     4  11  26  46  69 100 136 176 239 288 340 409
#     4  10  22  41  62 101 134 168 226 271 342 414
#     4   9  22  42  63  98 134 178 227 278 342 409
#     4  10  22  39  66  96 132 177 216 278 342 408
#     4  12  26  47  69 100 136 186 240 281 343 408
#     4  10  22  42  67  96 137 177 226 286 340 409
#     4  11  22  41  65  99 131 172 223 268 345 414
#
# _framework density 22.515293
#
# number of rings (size 3 to 8) (size 9 to 14) (size 15 to 20)
#    0.000    1.429    2.143    2.143    3.000    2.286 
#    2.571    0.000    0.000    0.000    0.000    0.000 
#    0.000    0.000    0.000    0.000    0.000    0.000 
#
# Total GULP energy -156345.442597 kJ/mol
# GULP energy per Si atom -5583.765807 kJ/mol
# Density = 2.246405 g / cm^3
# Si number density = 22.515293 Si / 1000 Ang^3
#
#
#
# Elastic Constant Matrix: (Units=GPa)
#
#
# Indices 1 2 3 4 5 6 
#
# 1 42.8077 11.0660 22.2693 0.0000 19.4065 0.0000
# 2 11.0660 103.8674 23.0085 0.0000 -3.0428 0.0000
# 3 22.2693 23.0085 104.4482 0.0000 7.9260 0.0000
# 4 0.0000 0.0000 0.0000 0.9802 0.0000 4.9403
# 5 19.4065 -3.0428 7.9260 0.0000 33.6322 0.0000
# 6 0.0000 0.0000 0.0000 4.9403 0.0000 -33.6372
#
#
#
# Elastic Compliance Matrix: (Units=1/GPa)
#
#
# Indices 1 2 3 4 5 6 
#
# 1 0.035997 -0.003203 -0.005469 0.000000 -0.019772 0.000000
# 2 -0.003203 0.010478 -0.001871 0.000000 0.003237 0.000000
# 3 -0.005469 -0.001871 0.011125 0.000000 0.000365 0.000000
# 4 0.000000 0.000000 0.000000 0.586244 0.000000 0.086101
# 5 -0.019772 0.003237 0.000365 0.000000 0.041349 0.000000
# 6 0.000000 0.000000 0.000000 0.086101 0.000000 -0.017083
#
#
# Mechanical properties :
#
#
# Convention : Reuss Voigt Hill
#
# Bulk Modulus (GPa) = 27.38678 40.42343 33.90510
# Shear Modulus (GPa) = 7.12895 13.18035 10.15465
#
# Velocity S-wave (km/s) = 1.78133 2.42212 2.12601
# Velocity P-wave (km/s) = 4.05227 5.08084 4.59542
#
# Compressibility (1/GPa) = 0.03651397
#
# Stress axis : x y z
#
# Youngs Moduli (GPa) = 27.78044 95.43651 89.89076
#
# Poissons Ratio (x) = 0.30567 0.49160
# Poissons Ratio (y) = 0.08898 0.16818
# Poissons Ratio (z) = 0.15193 0.17856
#
# Static dielectric constant tensor:
#      x y z
#    x 1.866670 0.000000 -0.029980 
#    y 0.000000 1.810970 0.000000 
#    z -0.029980 0.000000 1.961280 
# 
# From -- ./inp_files/65556.got.cif
#   From: 2010.05.17/outbox.cif.g08.bks.cpg/sg15_33_cif.got.tgz:65556.got - 2010.06.03 18:47:42.
