data_PCOD9288283
_publ_section_title
;
Structure prediction by ZEFSAII (Michael W. Deem and Ramdas Pophale) SiO2 
 PCOD9288283
Probable space group: C 2/C
;
_chemical_formula_sum "Si O2"
_cell_formula_units_Z 48
_cell_length_a 9.845707
_cell_length_b 23.976077
_cell_length_c 10.119604
_cell_angle_alpha 90.000000
_cell_angle_beta 119.735350
_cell_angle_gamma 90.000000
_cell_volume 2074.298185
_symmetry_space_group_name_H-M "C 2/C"
_symmetry_group_IT_number 15
_symmetry_cell_setting 'monoclinic'
loop_
_space_group_symop_operation_xyz
x,y,z
-x,y,1/2-z
-x,-y,-z
x,-y,1/2+z
1/2+x,1/2+y,z
1/2-x,1/2+y,1/2-z
1/2-x,1/2-y,-z
1/2+x,1/2-y,1/2+z
loop_
_atom_site_type_symbol
_atom_site_label
_atom_site_fract_x
_atom_site_fract_y
_atom_site_fract_z
Si Si1 0.955495 0.869380 0.088086
Si Si2 0.931426 0.747459 0.417319
Si Si3 0.412117 0.866498 0.572716
Si Si4 0.571144 0.545113 0.432753
Si Si5 0.161296 0.807286 0.869839
Si Si6 0.106684 0.405887 0.431317
O O1 0.000000 0.896144 0.250000
O O2 0.021106 0.806221 0.119745
O O3 0.770218 0.871797 0.993452
O O4 0.026685 0.899950 0.996525
O O5 0.902486 0.761891 0.557138
O O6 0.759097 0.722555 0.299207
O O7 0.050676 0.698028 0.446999
O O8 0.500000 0.878940 0.750000
O O9 0.486396 0.905208 0.495251
O O10 0.500000 0.541031 0.250000
O O11 0.500000 0.500000 0.500000
O O12 0.760909 0.546170 0.512331
O O13 0.000000 0.835500 0.750000
O O14 0.285542 0.850878 0.989534
O O15 0.000000 0.402095 0.250000
#
# Coordination Sequence:
#
# PCOD9288283 Si02
#       6
#     8   8   8   8   8   8
#     4  12  25  43  68 103 145 189 238 298 356 418
#     4  10  23  35  61  99 148 192 247 289 342 402
#     4  11  25  41  63 102 148 191 237 289 350 413
#     4  12  27  52  81 107 137 179 238 296 370 445
#     4  10  22  38  67 100 146 200 257 290 347 414
#     4  11  24  47  75 107 142 189 240 299 357 434
#
# _framework density 23.140357000000002
#
# number of rings (size 3 to 8) (size 9 to 14) (size 15 to 20)
#    0.000    1.000    1.667    4.000    7.000    4.667 
#    0.000    4.167    0.000    0.000    0.000    0.000 
#    0.000    0.000    0.000    0.000    0.000    0.000 
#
# Total GULP energy -134075.256428 kJ/mol
# GULP energy per Si atom -5586.469018 kJ/mol
# Density = 2.308769 g / cm^3
# Si number density = 23.140357 Si / 1000 Ang^3
#
#
#
# Elastic Constant Matrix: (Units=GPa)
#
#
# Indices 1 2 3 4 5 6 
#
# 1 136.7869 23.6102 52.2569 0.0000 -3.5226 0.0000
# 2 23.6102 40.4706 15.1392 0.0000 -4.1210 0.0000
# 3 52.2569 15.1392 165.9534 0.0000 -3.5121 0.0000
# 4 0.0000 0.0000 0.0000 2.1858 0.0000 -22.2625
# 5 -3.5226 -4.1210 -3.5121 0.0000 55.8370 0.0000
# 6 0.0000 0.0000 0.0000 -22.2625 0.0000 34.7250
#
#
#
# Elastic Compliance Matrix: (Units=1/GPa)
#
#
# Indices 1 2 3 4 5 6 
#
# 1 0.008989 -0.004324 -0.002434 0.000000 0.000095 0.000000
# 2 -0.004324 0.027833 -0.001141 0.000000 0.001710 0.000000
# 3 -0.002434 -0.001141 0.006901 0.000000 0.000196 0.000000
# 4 0.000000 0.000000 0.000000 -0.082734 0.000000 -0.053041
# 5 0.000095 0.001710 0.000196 0.000000 0.018054 0.000000
# 6 0.000000 0.000000 0.000000 -0.053041 0.000000 -0.005208
#
#
# Mechanical properties :
#
#
# Convention : Reuss Voigt Hill
#
# Bulk Modulus (GPa) = 35.81177 58.35817 47.08497
# Shear Modulus (GPa) = -4727.11952 35.36319 -2345.87817
#
# Velocity S-wave (km/s) = -45.24641 3.91347 -31.87415
# Velocity P-wave (km/s) = 52.09742 6.75975 36.52702
#
# Compressibility (1/GPa) = 0.02792378
#
# Stress axis : x y z
#
# Youngs Moduli (GPa) = 111.24230 35.92858 144.91589
#
# Poissons Ratio (x) = 0.15536 0.35275
# Poissons Ratio (y) = 0.48102 0.16539
# Poissons Ratio (z) = 0.27078 0.04101
#
# Static dielectric constant tensor:
#      x y z
#    x 1.864150 0.000000 0.040940 
#    y 0.000000 2.029750 0.000000 
#    z 0.040940 0.000000 1.974990 
# 
# From -- ./inp_files/80929.got.cif
#   From: 2010.05.17/outbox.cif.g08.bks.cpg/sg15_41_cif.got.tgz:80929.got - 2010.06.03 18:47:42.
