data_PCOD9288358
_publ_section_title
;
Structure prediction by ZEFSAII (Michael W. Deem and Ramdas Pophale) SiO2 
 PCOD9288358
Probable space group: C 2/C
;
_chemical_formula_sum "Si O2"
_cell_formula_units_Z 52
_cell_length_a 16.619327
_cell_length_b 15.633870
_cell_length_c 19.568988
_cell_angle_alpha 90.000000
_cell_angle_beta 152.625294
_cell_angle_gamma 90.000000
_cell_volume 2337.893009
_symmetry_space_group_name_H-M "C 2/C"
_symmetry_group_IT_number 15
_symmetry_cell_setting 'monoclinic'
loop_
_space_group_symop_operation_xyz
x,y,z
-x,y,1/2-z
-x,-y,-z
x,-y,1/2+z
1/2+x,1/2+y,z
1/2-x,1/2+y,1/2-z
1/2-x,1/2-y,-z
1/2+x,1/2-y,1/2+z
loop_
_atom_site_type_symbol
_atom_site_label
_atom_site_fract_x
_atom_site_fract_y
_atom_site_fract_z
Si Si1 0.689868 0.157228 0.758594
Si Si2 0.204203 0.727099 0.043266
Si Si3 0.248164 0.527669 0.496959
Si Si4 0.500000 0.607777 0.250000
Si Si5 0.380271 0.214958 0.300801
Si Si6 0.230880 0.200427 0.915153
Si Si7 0.334343 0.968835 0.721525
O O1 0.772846 0.189988 0.892534
O O2 0.483521 0.181078 0.597196
O O3 0.785106 0.214755 0.774090
O O4 0.717888 0.055253 0.778597
O O5 0.362558 0.665826 0.187796
O O6 0.250000 0.750000 0.000000
O O7 0.371855 0.448732 0.607424
O O8 0.311039 0.605417 0.592083
O O9 0.251587 0.542563 0.418216
O O10 0.042861 0.519052 0.362583
O O11 0.577426 0.202004 0.474685
O O12 0.386550 0.252114 0.228492
O O13 0.302135 0.119503 0.237399
O O14 0.250000 0.250000 0.000000
#
# Coordination Sequence:
#
# PCOD9288358 Si02
#       7
#     8   8   8   4   8   8   8
#     4  12  25  45  68  97 146 182 224 288 343 416
#     4  12  24  43  68  99 135 182 235 278 334 408
#     4  10  22  38  70 105 132 172 236 289 330 402
#     4  12  22  38  64 112 128 162 240 282 336 394
#     4  11  25  45  66 104 137 186 224 278 362 405
#     4  11  22  44  70  99 137 175 233 289 333 409
#     4  10  22  44  69  96 139 185 224 277 353 408
#
# _framework density 22.242251
#
# number of rings (size 3 to 8) (size 9 to 14) (size 15 to 20)
#    0.000    0.923    4.615    2.308    4.308    0.000 
#    2.769    5.385    0.000    0.000    0.000    0.000 
#    0.000    0.000    0.000    0.000    0.000    0.000 
#
# Total GULP energy -145310.925287 kJ/mol
# GULP energy per Si atom -5588.881742 kJ/mol
# Density = 2.219163 g / cm^3
# Si number density = 22.242251 Si / 1000 Ang^3
#
#
#
# Elastic Constant Matrix: (Units=GPa)
#
#
# Indices 1 2 3 4 5 6 
#
# 1 85.4751 48.8049 21.0214 -0.0010 -2.5982 -0.0006
# 2 48.8049 169.4596 34.0685 -0.0032 -1.0474 0.0011
# 3 21.0214 34.0685 90.5168 0.0015 -5.6254 0.0047
# 4 -0.0010 -0.0032 0.0015 36.1322 0.0058 -3.0316
# 5 -2.5982 -1.0474 -5.6254 0.0058 21.9807 0.0041
# 6 -0.0006 0.0011 0.0047 -3.0316 0.0041 34.3904
#
#
#
# Elastic Compliance Matrix: (Units=1/GPa)
#
#
# Indices 1 2 3 4 5 6 
#
# 1 0.014326 -0.003747 -0.001852 0.000000 0.001041 0.000000
# 2 -0.003747 0.007366 -0.001939 0.000001 -0.000588 0.000000
# 3 -0.001852 -0.001939 0.012385 -0.000001 0.002858 -0.000002
# 4 0.000000 0.000001 -0.000001 0.027882 -0.000008 0.002458
# 5 0.001041 -0.000588 0.002858 -0.000008 0.046321 -0.000007
# 6 0.000000 0.000000 -0.000002 0.002458 -0.000007 0.029295
#
#
# Mechanical properties :
#
#
# Convention : Reuss Voigt Hill
#
# Bulk Modulus (GPa) = 52.62735 61.47124 57.04930
# Shear Modulus (GPa) = 31.44940 34.60444 33.02692
#
# Velocity S-wave (km/s) = 3.76433 3.94864 3.85759
# Velocity P-wave (km/s) = 6.52732 6.96320 6.74878
#
# Compressibility (1/GPa) = 0.01900153
#
# Stress axis : x y z
#
# Youngs Moduli (GPa) = 69.80312 135.75020 80.74167
#
# Poissons Ratio (x) = 0.50868 0.14953
# Poissons Ratio (y) = 0.26156 0.15655
# Poissons Ratio (z) = 0.12928 0.26320
#
# Static dielectric constant tensor:
#      x y z
#    x 1.850180 0.000000 0.004300 
#    y 0.000000 1.318690 -0.000030 
#    z 0.004300 -0.000030 1.916740 
# 
# From -- ./inp_files/249126.got.cif
#   From: 2010.05.17/outbox.cif.g08.bks.cpg/sg15_125_cif.got.tgz:249126.got - 2010.06.03 18:47:42.
