data_PCOD9288601
_publ_section_title
;
Structure prediction by ZEFSAII (Michael W. Deem and Ramdas Pophale) SiO2 
 PCOD9288601
Probable space group: C 2/C
;
_chemical_formula_sum "Si O2"
_cell_formula_units_Z 64
_cell_length_a 19.058894
_cell_length_b 6.755498
_cell_length_c 27.254574
_cell_angle_alpha 90.000000
_cell_angle_beta 89.653439
_cell_angle_gamma 90.000000
_cell_volume 3509.025450
_symmetry_space_group_name_H-M "C 2/C"
_symmetry_group_IT_number 15
_symmetry_cell_setting 'monoclinic'
loop_
_space_group_symop_operation_xyz
x,y,z
-x,y,1/2-z
-x,-y,-z
x,-y,1/2+z
1/2+x,1/2+y,z
1/2-x,1/2+y,1/2-z
1/2-x,1/2-y,-z
1/2+x,1/2-y,1/2+z
loop_
_atom_site_type_symbol
_atom_site_label
_atom_site_fract_x
_atom_site_fract_y
_atom_site_fract_z
Si Si1 0.828262 0.813941 0.368333
Si Si2 0.669747 0.655297 0.944830
Si Si3 0.428189 0.567261 0.691011
Si Si4 0.175596 0.164579 0.060959
Si Si5 0.172674 0.809890 0.874816
Si Si6 0.923331 0.570746 0.869936
Si Si7 0.079493 0.075476 0.196834
Si Si8 0.420135 0.922497 0.624785
O O1 0.752210 0.725544 0.359258
O O2 0.882275 0.634514 0.367969
O O3 0.826506 0.941364 0.418353
O O4 0.854217 0.970794 0.328066
O O5 0.746006 0.747924 0.930316
O O6 0.670439 0.429375 0.925995
O O7 0.607766 0.771409 0.916763
O O8 0.662393 0.671323 0.003072
O O9 0.369057 0.449075 0.662273
O O10 0.422581 0.495144 0.747050
O O11 0.506563 0.505139 0.673908
O O12 0.420393 0.796471 0.675625
O O13 0.117437 0.291481 0.090591
O O14 0.134263 0.601153 0.875501
O O15 0.920224 0.694126 0.818650
O O16 0.003220 0.516992 0.882725
#
# Coordination Sequence:
#
# PCOD9288601 Si02
#       8
#     8   8   8   8   8   8   8   8
#     4  11  22  40  61  91 122 161 200 254 307 358
#     4  10  22  39  62  91 123 161 207 250 299 368
#     4  10  22  41  62  89 118 158 206 246 300 372
#     4  10  22  39  62  91 123 161 207 250 299 368
#     4  11  22  40  61  91 122 161 200 254 307 358
#     4  11  22  40  64  88 124 160 199 253 308 356
#     4  10  22  41  62  89 118 158 206 246 300 372
#     4  11  22  40  64  88 124 160 199 253 308 356
#
# _framework density 18.238681
#
# number of rings (size 3 to 8) (size 9 to 14) (size 15 to 20)
#    0.000    1.500    5.000    0.000    0.000    3.000 
#    4.500    1.250    0.000    0.000    0.000    0.000 
#    0.000    0.000    0.000    0.000    0.000    0.000 
#
# Total GULP energy -178460.557519 kJ/mol
# GULP energy per Si atom -5576.892422 kJ/mol
# Density = 1.819717 g / cm^3
# Si number density = 18.238681 Si / 1000 Ang^3
#
#
#
# Elastic Constant Matrix: (Units=GPa)
#
#
# Indices 1 2 3 4 5 6 
#
# 1 47.0229 2.8128 30.3351 0.0000 6.2906 0.0000
# 2 2.8128 90.0737 31.1039 0.0000 1.9556 0.0000
# 3 30.3351 31.1039 79.4643 0.0000 0.8299 0.0000
# 4 0.0000 0.0000 0.0000 19.3293 0.0000 -0.6663
# 5 6.2906 1.9556 0.8299 0.0000 20.2945 0.0000
# 6 0.0000 0.0000 0.0000 -0.6663 0.0000 41.9968
#
#
#
# Elastic Compliance Matrix: (Units=1/GPa)
#
#
# Indices 1 2 3 4 5 6 
#
# 1 0.030757 0.003774 -0.013121 0.000000 -0.009361 0.000000
# 2 0.003774 0.013322 -0.006632 0.000000 -0.002182 0.000000
# 3 -0.013121 -0.006632 0.020148 0.000000 0.003882 0.000000
# 4 0.000000 0.000000 0.000000 0.051763 0.000000 0.000821
# 5 -0.009361 -0.002182 0.003882 0.000000 0.052227 0.000000
# 6 0.000000 0.000000 0.000000 0.000821 0.000000 0.023824
#
#
# Mechanical properties :
#
#
# Convention : Reuss Voigt Hill
#
# Bulk Modulus (GPa) = 30.98977 38.34052 34.66515
# Shear Modulus (GPa) = 21.29863 26.47807 23.88835
#
# Velocity S-wave (km/s) = 3.42098 3.81432 3.62299
# Velocity P-wave (km/s) = 5.71246 6.36128 6.04558
#
# Compressibility (1/GPa) = 0.03226871
#
# Stress axis : x y z
#
# Youngs Moduli (GPa) = 32.51289 75.06524 49.63168
#
# Poissons Ratio (x) = -0.28326 0.65120
# Poissons Ratio (y) = -0.12269 0.32916
# Poissons Ratio (z) = 0.42659 0.49784
#
# Static dielectric constant tensor:
#      x y z
#    x 1.612910 0.000000 -0.002530 
#    y 0.000000 1.640680 0.000000 
#    z -0.002530 0.000000 1.626400 
# 
# From -- ./inp_files/315102.got.cif
#   From: 2010.05.17/outbox.cif.g08.bks.cpg/sg15_158_cif.got.tgz:315102.got - 2010.06.03 18:47:42.
