data_PCOD9288543
_publ_section_title
;
Structure prediction by ZEFSAII (Michael W. Deem and Ramdas Pophale) SiO2 
 PCOD9288543
Probable space group: C 2/C
;
_chemical_formula_sum "Si O2"
_cell_formula_units_Z 56
_cell_length_a 19.278041
_cell_length_b 11.605603
_cell_length_c 11.914377
_cell_angle_alpha 90.000000
_cell_angle_beta 80.069914
_cell_angle_gamma 90.000000
_cell_volume 2625.708537
_symmetry_space_group_name_H-M "C 2/C"
_symmetry_group_IT_number 15
_symmetry_cell_setting 'monoclinic'
loop_
_space_group_symop_operation_xyz
x,y,z
-x,y,1/2-z
-x,-y,-z
x,-y,1/2+z
1/2+x,1/2+y,z
1/2-x,1/2+y,1/2-z
1/2-x,1/2-y,-z
1/2+x,1/2-y,1/2+z
loop_
_atom_site_type_symbol
_atom_site_label
_atom_site_fract_x
_atom_site_fract_y
_atom_site_fract_z
Si Si1 0.642678 0.551177 0.340200
Si Si2 0.329351 0.331829 0.892386
Si Si3 0.500000 0.234715 0.250000
Si Si4 0.089196 0.447574 0.594332
Si Si5 0.916870 0.728842 0.593664
Si Si6 0.555338 0.348883 0.453880
Si Si7 0.500000 0.121438 0.750000
Si Si8 0.228864 0.416008 0.102501
O O1 0.635621 0.586017 0.211232
O O2 0.645064 0.677611 0.396737
O O3 0.580369 0.479243 0.418880
O O4 0.711954 0.474409 0.336850
O O5 0.295945 0.212502 0.856973
O O6 0.383185 0.304334 0.979733
O O7 0.265790 0.399778 0.970908
O O8 0.440798 0.156293 0.323593
O O9 0.542697 0.302801 0.332071
O O10 0.094852 0.388597 0.471323
O O11 0.162361 0.500969 0.611680
O O12 0.031538 0.546100 0.638817
O O13 0.937847 0.695387 0.714199
O O14 0.985100 0.799810 0.531715
#
# Coordination Sequence:
#
# PCOD9288543 Si02
#       8
#     8   8   4   8   8   8   4   8
#     4  11  24  39  62  90 120 165 207 248 307 365
#     4  10  23  42  62  88 120 164 211 251 301 367
#     4   9  22  39  64  96 124 157 198 251 314 368
#     4  10  22  39  61  90 122 156 201 258 310 360
#     4  11  22  38  62  92 124 156 204 256 307 370
#     4  10  22  42  64  91 126 159 200 256 309 362
#     4  11  22  39  66  92 118 161 204 251 312 368
#     4  10  23  41  61  86 122 162 205 254 303 360
#
# _framework density 21.327577000000002
#
# number of rings (size 3 to 8) (size 9 to 14) (size 15 to 20)
#    0.000    1.714    0.000    3.429    0.000   14.857 
#    0.000    0.000    0.000    0.000    0.000    0.000 
#    0.000    0.000    0.000    0.000    0.000    0.000 
#
# Total GULP energy -155990.694466 kJ/mol
# GULP energy per Si atom -5571.096231 kJ/mol
# Density = 2.127903 g / cm^3
# Si number density = 21.327577 Si / 1000 Ang^3
#
#
#
# Elastic Constant Matrix: (Units=GPa)
#
#
# Indices 1 2 3 4 5 6 
#
# 1 63.5966 31.2317 9.5723 0.0000 12.1080 0.0000
# 2 31.2317 106.2968 30.6388 0.0000 22.8465 0.0000
# 3 9.5723 30.6388 59.9291 0.0000 14.9066 0.0000
# 4 0.0000 0.0000 0.0000 8.6687 0.0000 6.4634
# 5 12.1080 22.8465 14.9066 0.0000 30.7814 0.0000
# 6 0.0000 0.0000 0.0000 6.4634 0.0000 18.7248
#
#
#
# Elastic Compliance Matrix: (Units=1/GPa)
#
#
# Indices 1 2 3 4 5 6 
#
# 1 0.018773 -0.004773 0.000452 0.000000 -0.004060 0.000000
# 2 -0.004773 0.013398 -0.004640 0.000000 -0.005820 0.000000
# 3 0.000452 -0.004640 0.020663 0.000000 -0.006740 0.000000
# 4 0.000000 0.000000 0.000000 0.155335 0.000000 -0.053619
# 5 -0.004060 -0.005820 -0.006740 0.000000 0.041668 0.000000
# 6 0.000000 0.000000 0.000000 -0.053619 0.000000 0.071913
#
#
# Mechanical properties :
#
#
# Convention : Reuss Voigt Hill
#
# Bulk Modulus (GPa) = 28.64370 41.41202 35.02786
# Shear Modulus (GPa) = 14.23237 22.19363 18.21300
#
# Velocity S-wave (km/s) = 2.58606 3.22934 2.92544
# Velocity P-wave (km/s) = 4.73038 5.77617 5.27923
#
# Compressibility (1/GPa) = 0.03491169
#
# Stress axis : x y z
#
# Youngs Moduli (GPa) = 53.26703 74.63583 48.39581
#
# Poissons Ratio (x) = 0.35627 -0.02186
# Poissons Ratio (y) = 0.25427 0.22455
# Poissons Ratio (z) = -0.02407 0.34630
#
# Static dielectric constant tensor:
#      x y z
#    x 1.786990 0.000000 -0.030530 
#    y 0.000000 1.774650 0.000000 
#    z -0.030530 0.000000 1.820510 
# 
# From -- ./inp_files/111024.got.cif
#   From: 2010.05.17/outbox.cif.g08.bks.cpg/sg15_56_cif.got.tgz:111024.got - 2010.06.03 18:47:42.
