data_PCOD9288472
_publ_section_title
;
Structure prediction by ZEFSAII (Michael W. Deem and Ramdas Pophale) SiO2 
 PCOD9288472
Probable space group: C 2/C
;
_chemical_formula_sum "Si O2"
_cell_formula_units_Z 44
_cell_length_a 17.439048
_cell_length_b 21.972476
_cell_length_c 13.091111
_cell_angle_alpha 90.000000
_cell_angle_beta 155.476542
_cell_angle_gamma 90.000000
_cell_volume 2082.069343
_symmetry_space_group_name_H-M "C 2/C"
_symmetry_group_IT_number 15
_symmetry_cell_setting 'monoclinic'
loop_
_space_group_symop_operation_xyz
x,y,z
-x,y,1/2-z
-x,-y,-z
x,-y,1/2+z
1/2+x,1/2+y,z
1/2-x,1/2+y,1/2-z
1/2-x,1/2-y,-z
1/2+x,1/2-y,1/2+z
loop_
_atom_site_type_symbol
_atom_site_label
_atom_site_fract_x
_atom_site_fract_y
_atom_site_fract_z
Si Si1 0.341564 0.169593 0.198282
Si Si2 0.994828 0.571114 0.522071
Si Si3 0.098736 0.907723 0.068018
Si Si4 0.732857 0.305462 0.345851
Si Si5 0.000000 0.538659 0.750000
Si Si6 0.384165 0.511151 0.706866
O O1 0.349669 0.110857 0.280754
O O2 0.286244 0.233184 0.182791
O O3 0.556961 0.177871 0.428452
O O4 0.220589 0.169731 0.947878
O O5 0.203997 0.590579 0.750141
O O6 0.952612 0.575924 0.590991
O O7 0.000000 0.500000 0.500000
O O8 0.087282 0.839458 0.096739
O O9 0.102103 0.947757 0.175962
O O10 0.957056 0.943387 0.824789
O O11 0.830574 0.495921 0.576097
O O12 0.500000 0.532309 0.750000
#
# Coordination Sequence:
#
# PCOD9288472 Si02
#       6
#     8   8   8   8   4   8
#     4   9  20  36  59  89 121 160 205 251 314 368
#     4  11  22  37  63  90 124 167 209 262 315 376
#     4  10  22  39  60  87 125 161 202 259 309 373
#     4   9  19  38  60  86 122 159 200 256 307 373
#     4  12  24  38  62  88 128 162 206 260 314 380
#     4  11  23  39  59  93 124 161 205 252 314 373
#
# _framework density 21.132821
#
# number of rings (size 3 to 8) (size 9 to 14) (size 15 to 20)
#    0.000    1.818    3.636    0.000    2.545    1.455 
#    6.545    0.000    2.000    3.273    0.000    0.000 
#    0.000    0.000    0.000    0.000    0.000    0.000 
#
# Total GULP energy -122825.945543 kJ/mol
# GULP energy per Si atom -5582.997525 kJ/mol
# Density = 2.108472 g / cm^3
# Si number density = 21.132821 Si / 1000 Ang^3
#
#
#
# Elastic Constant Matrix: (Units=GPa)
#
#
# Indices 1 2 3 4 5 6 
#
# 1 110.6969 14.3200 19.8480 0.0000 -13.0222 0.0000
# 2 14.3200 95.6708 21.2266 0.0000 -27.2458 0.0000
# 3 19.8480 21.2266 49.3355 0.0001 -4.8357 0.0000
# 4 0.0000 0.0000 0.0001 32.4809 0.0000 -7.3324
# 5 -13.0222 -27.2458 -4.8357 0.0000 33.7818 0.0000
# 6 0.0000 0.0000 0.0000 -7.3324 0.0000 26.5940
#
#
#
# Elastic Compliance Matrix: (Units=1/GPa)
#
#
# Indices 1 2 3 4 5 6 
#
# 1 0.010108 0.000387 -0.003875 0.000000 0.003654 0.000000
# 2 0.000387 0.014824 -0.005424 0.000000 0.011329 0.000000
# 3 -0.003875 -0.005424 0.023922 0.000000 -0.002444 0.000000
# 4 0.000000 0.000000 0.000000 0.032831 0.000000 0.009052
# 5 0.003654 0.011329 -0.002444 0.000000 0.039798 0.000000
# 6 0.000000 0.000000 0.000000 0.009052 0.000000 0.040098
#
#
# Mechanical properties :
#
#
# Convention : Reuss Voigt Hill
#
# Bulk Modulus (GPa) = 32.22442 40.72136 36.47289
# Shear Modulus (GPa) = 26.35072 31.92526 29.13799
#
# Velocity S-wave (km/s) = 3.53499 3.89098 3.71725
# Velocity P-wave (km/s) = 5.65183 6.28470 5.97665
#
# Compressibility (1/GPa) = 0.03103237
#
# Stress axis : x y z
#
# Youngs Moduli (GPa) = 98.92900 67.45709 41.80197
#
# Poissons Ratio (x) = -0.02614 0.16199
# Poissons Ratio (y) = -0.03833 0.22672
# Poissons Ratio (z) = 0.38336 0.36586
#
# Static dielectric constant tensor:
#      x y z
#    x 1.779450 0.000000 -0.000880 
#    y 0.000000 1.789850 0.000000 
#    z -0.000880 0.000000 1.797110 
# 
# From -- ./inp_files/108000.got.cif
#   From: 2010.05.17/outbox.cif.g08.bks.cpg/sg15_54_cif.got.tgz:108000.got - 2010.06.03 18:47:42.
