data_PCOD9288414
_publ_section_title
;
Structure prediction by ZEFSAII (Michael W. Deem and Ramdas Pophale) SiO2 
 PCOD9288414
Probable space group: C 2/C
;
_chemical_formula_sum "Si O2"
_cell_formula_units_Z 40
_cell_length_a 5.028302
_cell_length_b 19.128247
_cell_length_c 17.120498
_cell_angle_alpha 90.000000
_cell_angle_beta 98.098271
_cell_angle_gamma 90.000000
_cell_volume 1630.273074
_symmetry_space_group_name_H-M "C 2/C"
_symmetry_group_IT_number 15
_symmetry_cell_setting 'monoclinic'
loop_
_space_group_symop_operation_xyz
x,y,z
-x,y,1/2-z
-x,-y,-z
x,-y,1/2+z
1/2+x,1/2+y,z
1/2-x,1/2+y,1/2-z
1/2-x,1/2-y,-z
1/2+x,1/2-y,1/2+z
loop_
_atom_site_type_symbol
_atom_site_label
_atom_site_fract_x
_atom_site_fract_y
_atom_site_fract_z
Si Si1 0.107236 0.209422 0.844404
Si Si2 0.429288 0.994832 0.657925
Si Si3 0.277418 0.357519 0.808025
Si Si4 0.727008 0.539214 0.459928
Si Si5 0.152686 0.641262 0.917329
O O1 0.244447 0.285660 0.853043
O O2 0.343931 0.159276 0.885705
O O3 0.000000 0.197805 0.750000
O O4 0.850564 0.198216 0.888890
O O5 0.500000 0.005608 0.750000
O O6 0.231419 0.927611 0.640402
O O7 0.709577 0.974293 0.627870
O O8 0.303022 0.067796 0.625813
O O9 0.500000 0.353398 0.750000
O O10 0.000000 0.362135 0.750000
O O11 0.500000 0.500000 0.500000
O O12 0.767644 0.619069 0.491166
O O13 0.000000 0.500000 0.500000
#
# Coordination Sequence:
#
# PCOD9288414 Si02
#       5
#     8   8   8   8   8
#     4  11  21  38  60  88 123 161 204 256 310 365
#     4  10  22  40  65  93 119 162 215 257 303 379
#     4  10  22  39  58  87 126 162 199 258 321 366
#     4  10  22  40  60  90 133 164 196 262 329 364
#     4  11  22  37  62  92 120 159 207 255 308 370
#
# _framework density 24.535768000000001
#
# number of rings (size 3 to 8) (size 9 to 14) (size 15 to 20)
#    0.000    1.600    0.000    6.600    0.000   10.400 
#    0.000    2.000    0.000    0.000    0.000    0.000 
#    0.000    0.000    0.000    0.000    0.000    0.000 
#
# Total GULP energy -111666.148002 kJ/mol
# GULP energy per Si atom -5583.307400 kJ/mol
# Density = 2.447992 g / cm^3
# Si number density = 24.535768 Si / 1000 Ang^3
#
#
#
# Elastic Constant Matrix: (Units=GPa)
#
#
# Indices 1 2 3 4 5 6 
#
# 1 163.5226 7.0136 11.4822 0.0000 -36.3667 0.0000
# 2 7.0136 103.1798 5.4520 0.0000 -7.8116 0.0000
# 3 11.4822 5.4520 78.5980 0.0000 -22.2584 0.0000
# 4 0.0000 0.0000 0.0000 60.5702 0.0000 -1.6462
# 5 -36.3667 -7.8116 -22.2584 0.0000 39.4537 0.0000
# 6 0.0000 0.0000 0.0000 -1.6462 0.0000 39.0317
#
#
#
# Elastic Compliance Matrix: (Units=1/GPa)
#
#
# Indices 1 2 3 4 5 6 
#
# 1 0.007766 0.000003 0.001062 0.000000 0.007758 0.000000
# 2 0.000003 0.009841 -0.000155 0.000000 0.001864 0.000000
# 3 0.001062 -0.000155 0.015290 0.000000 0.009575 0.000000
# 4 0.000000 0.000000 0.000000 0.016529 0.000000 0.000697
# 5 0.007758 0.001864 0.009575 0.000000 0.038268 0.000000
# 6 0.000000 0.000000 0.000000 0.000697 0.000000 0.025650
#
#
# Mechanical properties :
#
#
# Convention : Reuss Voigt Hill
#
# Bulk Modulus (GPa) = 28.80359 43.68846 36.24603
# Shear Modulus (GPa) = 40.61896 49.23464 44.92680
#
# Velocity S-wave (km/s) = 4.07320 4.48442 4.28375
# Velocity P-wave (km/s) = 5.82118 6.68267 6.26675
#
# Compressibility (1/GPa) = 0.03471789
#
# Stress axis : x y z
#
# Youngs Moduli (GPa) = 128.76543 101.61662 65.40222
#
# Poissons Ratio (x) = -0.00034 -0.06948
# Poissons Ratio (y) = -0.00043 0.01015
# Poissons Ratio (z) = -0.13680 0.01578
#
# Static dielectric constant tensor:
#      x y z
#    x 2.041850 0.000000 -0.024580 
#    y 0.000000 2.079820 0.000000 
#    z -0.024580 0.000000 2.281300 
# 
# From -- ./inp_files/184688.got.cif
#   From: 2010.05.17/outbox.cif.g08.bks.cpg/sg15_93_cif.got.tgz:184688.got - 2010.06.03 18:47:42.
