data_PCOD9288181
_publ_section_title
;
Structure prediction by ZEFSAII (Michael W. Deem and Ramdas Pophale) SiO2 
 PCOD9288181
Probable space group: C 2/C
;
_chemical_formula_sum "Si O2"
_cell_formula_units_Z 44
_cell_length_a 25.904624
_cell_length_b 13.361975
_cell_length_c 10.977742
_cell_angle_alpha 90.000000
_cell_angle_beta 148.357960
_cell_angle_gamma 90.000000
_cell_volume 1993.416820
_symmetry_space_group_name_H-M "C 2/C"
_symmetry_group_IT_number 15
_symmetry_cell_setting 'monoclinic'
loop_
_space_group_symop_operation_xyz
x,y,z
-x,y,1/2-z
-x,-y,-z
x,-y,1/2+z
1/2+x,1/2+y,z
1/2-x,1/2+y,1/2-z
1/2-x,1/2-y,-z
1/2+x,1/2-y,1/2+z
loop_
_atom_site_type_symbol
_atom_site_label
_atom_site_fract_x
_atom_site_fract_y
_atom_site_fract_z
Si Si1 0.182283 0.722887 0.703234
Si Si2 0.853007 0.271738 0.642848
Si Si3 0.500000 0.687975 0.250000
Si Si4 0.591199 0.569908 0.646056
Si Si5 0.040629 0.335739 0.121290
Si Si6 0.262428 0.084781 0.480428
O O1 0.164718 0.694857 0.529858
O O2 0.082820 0.715104 0.583026
O O3 0.225047 0.834073 0.806437
O O4 0.251579 0.855762 0.087626
O O5 0.750000 0.250000 0.500000
O O6 0.902568 0.161789 0.747717
O O7 0.924802 0.344644 0.863905
O O8 0.570109 0.619620 0.472510
O O9 0.551923 0.760996 0.257503
O O10 0.500000 0.500000 0.500000
O O11 0.692878 0.509707 0.844002
O O12 0.119303 0.424796 0.299013
#
# Coordination Sequence:
#
# PCOD9288181 Si02
#       6
#     8   8   4   8   8   8
#     4   9  20  39  65  85 131 176 217 244 343 407
#     4  11  24  39  65 101 131 169 222 275 332 402
#     4  10  22  38  64  96 136 160 224 280 334 394
#     4  11  25  40  64 104 132 166 213 293 333 381
#     4   9  20  39  67  86 129 181 215 262 334 405
#     4   9  20  38  63  90 124 181 215 259 331 401
#
# _framework density 22.072655000000001
#
# number of rings (size 3 to 8) (size 9 to 14) (size 15 to 20)
#    1.091    1.091    0.000    2.727    7.636    0.000 
#    0.000    0.909    0.000    0.000    0.000    0.000 
#    0.000    0.182    0.000    0.000    0.000    0.000 
#
# Total GULP energy -122678.445319 kJ/mol
# GULP energy per Si atom -5576.292969 kJ/mol
# Density = 2.202242 g / cm^3
# Si number density = 22.072655 Si / 1000 Ang^3
#
#
#
# Elastic Constant Matrix: (Units=GPa)
#
#
# Indices 1 2 3 4 5 6 
#
# 1 107.4374 7.2973 40.9257 0.0000 -1.9348 0.0000
# 2 7.2973 80.9704 35.0258 0.0000 5.2506 0.0000
# 3 40.9257 35.0258 123.4208 0.0000 11.7893 0.0000
# 4 0.0000 0.0000 0.0000 41.3869 0.0000 9.5746
# 5 -1.9348 5.2506 11.7893 0.0000 47.3834 0.0000
# 6 0.0000 0.0000 0.0000 9.5746 0.0000 15.5112
#
#
#
# Elastic Compliance Matrix: (Units=1/GPa)
#
#
# Indices 1 2 3 4 5 6 
#
# 1 0.010765 0.000618 -0.003873 0.000000 0.001335 0.000000
# 2 0.000618 0.014130 -0.004167 0.000000 -0.000504 0.000000
# 3 -0.003873 -0.004167 0.010797 0.000000 -0.002383 0.000000
# 4 0.000000 0.000000 0.000000 0.028187 0.000000 -0.017399
# 5 0.001335 -0.000504 -0.002383 0.000000 0.021808 0.000000
# 6 0.000000 0.000000 0.000000 -0.017399 0.000000 0.075210
#
#
# Mechanical properties :
#
#
# Convention : Reuss Voigt Hill
#
# Bulk Modulus (GPa) = 47.96338 53.14736 50.55537
# Shear Modulus (GPa) = 27.36916 36.09495 31.73205
#
# Velocity S-wave (km/s) = 3.52512 4.04825 3.79571
# Velocity P-wave (km/s) = 6.19238 6.78098 6.49335
#
# Compressibility (1/GPa) = 0.02084924
#
# Stress axis : x y z
#
# Youngs Moduli (GPa) = 92.89412 70.77345 92.62176
#
# Poissons Ratio (x) = -0.04377 0.35869
# Poissons Ratio (y) = -0.05745 0.38594
# Poissons Ratio (z) = 0.35974 0.29490
#
# Static dielectric constant tensor:
#      x y z
#    x 1.794930 0.000000 0.040630 
#    y 0.000000 1.834530 0.000000 
#    z 0.040630 0.000000 1.884120 
# 
# From -- ./inp_files/123394.got.cif
#   From: 2010.05.17/outbox.cif.g08.bks.cpg/sg15_62_cif.got.tgz:123394.got - 2010.06.03 18:47:42.
