data_PCOD9288411
_publ_section_title
;
Structure prediction by ZEFSAII (Michael W. Deem and Ramdas Pophale) SiO2 
 PCOD9288411
Probable space group: C 2/C
;
_chemical_formula_sum "Si O2"
_cell_formula_units_Z 40
_cell_length_a 8.251358
_cell_length_b 22.861604
_cell_length_c 9.783176
_cell_angle_alpha 90.000000
_cell_angle_beta 78.312200
_cell_angle_gamma 90.000000
_cell_volume 1807.226792
_symmetry_space_group_name_H-M "C 2/C"
_symmetry_group_IT_number 15
_symmetry_cell_setting 'monoclinic'
loop_
_space_group_symop_operation_xyz
x,y,z
-x,y,1/2-z
-x,-y,-z
x,-y,1/2+z
1/2+x,1/2+y,z
1/2-x,1/2+y,1/2-z
1/2-x,1/2-y,-z
1/2+x,1/2-y,1/2+z
loop_
_atom_site_type_symbol
_atom_site_label
_atom_site_fract_x
_atom_site_fract_y
_atom_site_fract_z
Si Si1 0.619004 0.826717 0.603868
Si Si2 0.205410 0.057509 0.481545
Si Si3 0.469067 0.262049 0.594736
Si Si4 0.083875 0.143253 0.882251
Si Si5 0.804994 0.541918 0.767974
O O1 0.500000 0.814872 0.750000
O O2 0.656465 0.894941 0.583161
O O3 0.545887 0.799950 0.477531
O O4 0.792113 0.793996 0.602971
O O5 0.251059 0.033248 0.621697
O O6 0.039450 0.095663 0.527855
O O7 0.207492 0.005556 0.374240
O O8 0.500000 0.259168 0.750000
O O9 0.593718 0.302448 0.483630
O O10 0.248313 0.107233 0.820597
O O11 0.000000 0.160649 0.750000
O O12 0.000000 0.534221 0.750000
#
# Coordination Sequence:
#
# PCOD9288411 Si02
#       5
#     8   8   8   8   8
#     4  10  22  41  61  86 124 161 198 250 304 359
#     4  10  22  39  58  85 122 162 199 244 303 360
#     4  10  22  39  63  92 119 156 204 250 303 365
#     4   9  20  39  61  86 123 162 196 246 306 364
#     4  11  22  36  58  87 120 158 203 248 294 356
#
# _framework density 22.133358000000001
#
# number of rings (size 3 to 8) (size 9 to 14) (size 15 to 20)
#    0.000    2.000    0.000    2.400    0.000    8.000 
#    0.000    1.000    0.000    0.000    0.000    0.000 
#    0.000    0.000    0.000    0.000    0.000    0.000 
#
# Total GULP energy -111915.519506 kJ/mol
# GULP energy per Si atom -5595.775975 kJ/mol
# Density = 2.208298 g / cm^3
# Si number density = 22.133358 Si / 1000 Ang^3
#
#
#
# Elastic Constant Matrix: (Units=GPa)
#
#
# Indices 1 2 3 4 5 6 
#
# 1 21.3165 6.1842 10.5065 0.0000 1.9771 0.0000
# 2 6.1842 77.4845 42.9112 0.0000 14.6521 0.0000
# 3 10.5065 42.9112 123.9676 0.0000 12.8764 0.0000
# 4 0.0000 0.0000 0.0000 -21.0994 0.0000 27.6444
# 5 1.9771 14.6521 12.8764 0.0000 32.8712 0.0000
# 6 0.0000 0.0000 0.0000 27.6444 0.0000 2.0435
#
#
#
# Elastic Compliance Matrix: (Units=1/GPa)
#
#
# Indices 1 2 3 4 5 6 
#
# 1 0.049225 -0.001876 -0.003442 0.000000 -0.000776 0.000000
# 2 -0.001876 0.016925 -0.005137 0.000000 -0.005419 0.000000
# 3 -0.003442 -0.005137 0.010296 0.000000 -0.001536 0.000000
# 4 0.000000 0.000000 0.000000 -0.002531 0.000000 0.034242
# 5 -0.000776 -0.005419 -0.001536 0.000000 0.033486 0.000000
# 6 0.000000 0.000000 0.000000 0.034242 0.000000 0.026135
#
#
# Mechanical properties :
#
#
# Convention : Reuss Voigt Hill
#
# Bulk Modulus (GPa) = 18.00606 37.99693 28.00149
# Shear Modulus (GPa) = 28.90904 13.64085 21.27494
#
# Velocity S-wave (km/s) = 3.61796 2.48524 3.10371
# Velocity P-wave (km/s) = 5.06022 5.04378 5.05201
#
# Compressibility (1/GPa) = 0.05553685
#
# Stress axis : x y z
#
# Youngs Moduli (GPa) = 20.31500 59.08423 97.12514
#
# Poissons Ratio (x) = 0.11083 0.33430
# Poissons Ratio (y) = 0.03811 0.49890
# Poissons Ratio (z) = 0.06992 0.30350
#
# Static dielectric constant tensor:
#      x y z
#    x 1.845440 0.000000 -0.045870 
#    y 0.000000 1.797350 0.000000 
#    z -0.045870 0.000000 1.775650 
# 
# From -- ./inp_files/23399.got.cif
#   From: 2010.05.17/outbox.cif.g08.bks.cpg/sg15_12_cif.got.tgz:23399.got - 2010.06.03 18:47:42.
