data_PCOD9288465
_publ_section_title
;
Structure prediction by ZEFSAII (Michael W. Deem and Ramdas Pophale) SiO2 
 PCOD9288465
Probable space group: C 2/C
;
_chemical_formula_sum "Si O2"
_cell_formula_units_Z 24
_cell_length_a 12.431084
_cell_length_b 5.038836
_cell_length_c 20.138064
_cell_angle_alpha 90.000000
_cell_angle_beta 63.058085
_cell_angle_gamma 90.000000
_cell_volume 1124.506258
_symmetry_space_group_name_H-M "C 2/C"
_symmetry_group_IT_number 15
_symmetry_cell_setting 'monoclinic'
loop_
_space_group_symop_operation_xyz
x,y,z
-x,y,1/2-z
-x,-y,-z
x,-y,1/2+z
1/2+x,1/2+y,z
1/2-x,1/2+y,1/2-z
1/2-x,1/2-y,-z
1/2+x,1/2-y,1/2+z
loop_
_atom_site_type_symbol
_atom_site_label
_atom_site_fract_x
_atom_site_fract_y
_atom_site_fract_z
Si Si1 0.206162 0.958302 0.456687
Si Si2 0.497928 0.680215 0.912739
Si Si3 0.960600 0.350984 0.336382
O O1 0.250000 0.750000 0.500000
O O2 0.325006 0.974598 0.378137
O O3 0.100464 0.846414 0.439174
O O4 0.131756 0.198992 0.512694
O O5 0.479785 0.421673 0.871477
O O6 0.531492 0.926641 0.857680
O O7 0.000000 0.318846 0.250000
#
# Coordination Sequence:
#
# PCOD9288465 Si02
#       3
#     8   8   8
#     4   9  21  39  61  85 114 150 192 235 280 336
#     4  10  22  39  60  84 113 152 192 231 281 338
#     4  11  23  38  58  86 117 149 188 235 285 336
#
# _framework density 21.342701999999999
#
# number of rings (size 3 to 8) (size 9 to 14) (size 15 to 20)
#    0.000    2.000    0.000    2.000    0.000   20.000 
#    0.000    0.000    0.000    0.000    0.000    0.000 
#    0.000    0.000    0.000    0.000    0.000    0.000 
#
# Total GULP energy -66916.038743 kJ/mol
# GULP energy per Si atom -5576.336562 kJ/mol
# Density = 2.129412 g / cm^3
# Si number density = 21.342702 Si / 1000 Ang^3
#
#
#
# Elastic Constant Matrix: (Units=GPa)
#
#
# Indices 1 2 3 4 5 6 
#
# 1 95.1636 -9.9532 51.3941 0.0002 11.4802 0.0016
# 2 -9.9532 79.0416 22.3245 0.0005 -1.4692 0.0005
# 3 51.3941 22.3245 134.7034 0.0000 0.2871 0.0004
# 4 0.0002 0.0005 0.0000 27.7489 -0.0001 12.5898
# 5 11.4802 -1.4692 0.2871 -0.0001 14.5919 0.0007
# 6 0.0016 0.0005 0.0004 12.5898 0.0007 -10.8134
#
#
#
# Elastic Compliance Matrix: (Units=1/GPa)
#
#
# Indices 1 2 3 4 5 6 
#
# 1 0.015944 0.003666 -0.006665 -0.000001 -0.012044 0.000001
# 2 0.003666 0.014144 -0.003740 0.000000 -0.001387 0.000000
# 3 -0.006665 -0.003740 0.010577 0.000000 0.004659 0.000000
# 4 -0.000001 0.000000 0.000000 0.023581 -0.000001 0.027455
# 5 -0.012044 -0.001387 0.004659 -0.000001 0.077775 0.000002
# 6 0.000001 0.000000 0.000000 0.027455 0.000002 -0.060513
#
#
# Mechanical properties :
#
#
# Convention : Reuss Voigt Hill
#
# Bulk Modulus (GPa) = 36.78222 48.49327 42.63774
# Shear Modulus (GPa) = 48.05456 22.64836 35.35146
#
# Velocity S-wave (km/s) = 4.75022 3.26110 4.07427
# Velocity P-wave (km/s) = 6.88169 6.07868 6.49261
#
# Compressibility (1/GPa) = 0.02718705
#
# Stress axis : x y z
#
# Youngs Moduli (GPa) = 62.71851 70.70244 94.54790
#
# Poissons Ratio (x) = -0.25922 0.63019
# Poissons Ratio (y) = -0.22995 0.35361
# Poissons Ratio (z) = 0.41804 0.26442
#
# Static dielectric constant tensor:
#      x y z
#    x 1.906480 0.000000 -0.029720 
#    y 0.000000 1.817630 0.000000 
#    z -0.029720 0.000000 1.791750 
# 
# From -- ./inp_files/149347.got.cif
#   From: 2010.05.17/outbox.cif.g08.bks.cpg/sg15_75_cif.got.tgz:149347.got - 2010.06.03 18:47:42.
