data_PCOD9288363
_publ_section_title
;
Structure prediction by ZEFSAII (Michael W. Deem and Ramdas Pophale) SiO2 
 PCOD9288363
Probable space group: C 2/C
;
_chemical_formula_sum "Si O2"
_cell_formula_units_Z 56
_cell_length_a 25.020936
_cell_length_b 9.206523
_cell_length_c 18.237534
_cell_angle_alpha 90.000000
_cell_angle_beta 40.582339
_cell_angle_gamma 90.000000
_cell_volume 2732.998619
_symmetry_space_group_name_H-M "C 2/C"
_symmetry_group_IT_number 15
_symmetry_cell_setting 'monoclinic'
loop_
_space_group_symop_operation_xyz
x,y,z
-x,y,1/2-z
-x,-y,-z
x,-y,1/2+z
1/2+x,1/2+y,z
1/2-x,1/2+y,1/2-z
1/2-x,1/2-y,-z
1/2+x,1/2-y,1/2+z
loop_
_atom_site_type_symbol
_atom_site_label
_atom_site_fract_x
_atom_site_fract_y
_atom_site_fract_z
Si Si1 0.740897 0.503400 0.181010
Si Si2 0.766965 0.840283 0.654539
Si Si3 0.000000 0.573973 0.750000
Si Si4 0.597395 0.880934 0.755683
Si Si5 0.598214 0.486514 0.557480
Si Si6 0.089602 0.036919 0.737811
Si Si7 0.500000 0.000000 0.500000
Si Si8 0.897267 0.322273 0.488588
O O1 0.755306 0.331718 0.175733
O O2 0.734174 0.583296 0.265615
O O3 0.659080 0.523465 0.218943
O O4 0.819665 0.572854 0.059730
O O5 0.690731 0.901274 0.686223
O O6 0.851941 0.877318 0.525947
O O7 0.930745 0.474468 0.784460
O O8 0.957692 0.668158 0.856526
O O9 0.590226 0.711839 0.742565
O O10 0.537118 0.931415 0.883986
O O11 0.606724 0.487856 0.636648
O O12 0.501367 0.492305 0.643382
O O13 0.632033 0.344074 0.481007
O O14 0.445319 0.879648 0.509547
#
# Coordination Sequence:
#
# PCOD9288363 Si02
#       8
#     8   8   4   8   8   8   4   8
#     4  11  25  45  66  98 133 176 225 279 344 408
#     4  11  25  42  68  97 135 175 226 281 341 409
#     4  10  22  38  70  94 130 176 222 276 340 400
#     4  10  22  42  67 101 133 175 231 278 342 410
#     4  11  25  45  66  98 136 176 225 282 342 409
#     4  10  25  43  67  95 137 176 225 279 346 407
#     4  10  22  42  70  96 138 176 220 290 330 408
#     4  11  24  44  67 101 137 173 231 277 343 412
#
# _framework density 20.490313
#
# number of rings (size 3 to 8) (size 9 to 14) (size 15 to 20)
#    0.000    1.429    1.429    2.571   10.000    3.429 
#    7.714    0.000    0.000    0.000    0.000    0.000 
#    0.000    0.000    0.000    0.000    0.000    0.000 
#
# Total GULP energy -155992.277878 kJ/mol
# GULP energy per Si atom -5571.152781 kJ/mol
# Density = 2.044368 g / cm^3
# Si number density = 20.490313 Si / 1000 Ang^3
#
#
#
# Elastic Constant Matrix: (Units=GPa)
#
#
# Indices 1 2 3 4 5 6 
#
# 1 122.6034 54.7907 39.9221 0.0002 -2.5097 0.0001
# 2 54.7907 62.0571 20.6281 0.0009 -5.0456 0.0002
# 3 39.9221 20.6281 66.8929 0.0003 -5.9525 0.0000
# 4 0.0002 0.0009 0.0003 29.6880 0.0000 -2.4309
# 5 -2.5097 -5.0456 -5.9525 0.0000 20.6178 -0.0002
# 6 0.0001 0.0002 0.0000 -2.4309 -0.0002 19.3263
#
#
#
# Elastic Compliance Matrix: (Units=1/GPa)
#
#
# Indices 1 2 3 4 5 6 
#
# 1 0.015206 -0.011751 -0.005688 0.000000 -0.002667 0.000000
# 2 -0.011751 0.027203 -0.000934 -0.000001 0.004957 0.000000
# 3 -0.005688 -0.000934 0.019039 0.000000 0.004576 0.000000
# 4 0.000000 -0.000001 0.000000 0.034034 0.000000 0.004281
# 5 -0.002667 0.004957 0.004576 0.000000 0.050711 0.000000
# 6 0.000000 0.000000 0.000000 0.004281 0.000000 0.052281
#
#
# Mechanical properties :
#
#
# Convention : Reuss Voigt Hill
#
# Bulk Modulus (GPa) = 40.48565 53.58169 47.03367
# Shear Modulus (GPa) = 20.53759 23.00726 21.77242
#
# Velocity S-wave (km/s) = 3.16936 3.35451 3.26325
# Velocity P-wave (km/s) = 5.76146 6.41952 6.09937
#
# Compressibility (1/GPa) = 0.02470011
#
# Stress axis : x y z
#
# Youngs Moduli (GPa) = 65.76556 36.76063 52.52253
#
# Poissons Ratio (x) = 0.43198 0.29877
# Poissons Ratio (y) = 0.77282 0.04908
# Poissons Ratio (z) = 0.37410 0.03435
#
# Static dielectric constant tensor:
#      x y z
#    x 1.707650 0.000000 -0.019060 
#    y 0.000000 1.812440 0.000000 
#    z -0.019060 0.000000 1.726980 
# 
# From -- ./inp_files/222051.got.cif
#   From: 2010.05.17/outbox.cif.g08.bks.cpg/sg15_112_cif.got.tgz:222051.got - 2010.06.03 18:47:42.
