data_PCOD9288038
_publ_section_title
;
Structure prediction by ZEFSAII (Michael W. Deem and Ramdas Pophale) SiO2 
 PCOD9288038
Probable space group: C 2/C
;
_chemical_formula_sum "Si O2"
_cell_formula_units_Z 52
_cell_length_a 29.360101
_cell_length_b 8.198639
_cell_length_c 10.434687
_cell_angle_alpha 90.000000
_cell_angle_beta 72.522365
_cell_angle_gamma 90.000000
_cell_volume 2395.806019
_symmetry_space_group_name_H-M "C 2/C"
_symmetry_group_IT_number 15
_symmetry_cell_setting 'monoclinic'
loop_
_space_group_symop_operation_xyz
x,y,z
-x,y,1/2-z
-x,-y,-z
x,-y,1/2+z
1/2+x,1/2+y,z
1/2-x,1/2+y,1/2-z
1/2-x,1/2-y,-z
1/2+x,1/2-y,1/2+z
loop_
_atom_site_type_symbol
_atom_site_label
_atom_site_fract_x
_atom_site_fract_y
_atom_site_fract_z
Si Si1 0.200023 0.952043 0.983385
Si Si2 0.145578 0.461069 0.300012
Si Si3 0.500000 0.163129 0.750000
Si Si4 0.802340 0.561446 0.491955
Si Si5 0.147018 0.932565 0.776161
Si Si6 0.950578 0.449384 0.973656
Si Si7 0.043738 0.884847 0.933824
O O1 0.202005 0.755390 0.984126
O O2 0.163363 0.009387 0.123450
O O3 0.252719 0.009501 0.980026
O O4 0.182318 0.999375 0.856848
O O5 0.158847 0.536058 0.152580
O O6 0.182334 0.508662 0.383166
O O7 0.147822 0.264883 0.280474
O O8 0.094225 0.502339 0.403540
O O9 0.525988 0.278412 0.829166
O O10 0.457551 0.048331 0.838253
O O11 0.092748 0.975662 0.859921
O O12 0.947531 0.253648 0.964991
O O13 0.000000 0.500000 0.000000
O O14 0.000000 0.000000 0.000000
#
# Coordination Sequence:
#
# PCOD9288038 Si02
#       7
#     8   8   4   8   8   8   8
#     4  10  22  41  60  87 125 158 205 254 314 366
#     4  10  22  38  62  91 120 155 209 250 308 370
#     4  10  22  40  64  84 130 164 210 256 314 372
#     4  10  22  39  62  90 118 161 205 257 306 371
#     4  10  23  40  60  89 124 160 202 254 309 373
#     4   9  21  39  59  87 121 161 204 253 304 375
#     4  10  23  40  60  95 125 162 212 258 314 372
#
# _framework density 21.704595000000001
#
# number of rings (size 3 to 8) (size 9 to 14) (size 15 to 20)
#    0.000    2.154    0.000    0.923    8.615    4.923 
#    2.769    0.000    0.000    0.000    0.000    0.000 
#    0.000    0.000    0.000    0.000    0.000    0.000 
#
# Total GULP energy -145207.366180 kJ/mol
# GULP energy per Si atom -5584.898699 kJ/mol
# Density = 2.165519 g / cm^3
# Si number density = 21.704595 Si / 1000 Ang^3
#
#
#
# Elastic Constant Matrix: (Units=GPa)
#
#
# Indices 1 2 3 4 5 6 
#
# 1 55.1469 -3.7910 -16.8258 0.0000 -7.9102 0.0000
# 2 -3.7910 11.5682 3.8324 0.0000 -1.8491 0.0000
# 3 -16.8258 3.8324 54.7877 0.0000 5.3941 0.0000
# 4 0.0000 0.0000 0.0000 44.3009 0.0000 -5.3462
# 5 -7.9102 -1.8491 5.3941 0.0000 42.0329 0.0000
# 6 0.0000 0.0000 0.0000 -5.3462 0.0000 18.1226
#
#
#
# Elastic Compliance Matrix: (Units=1/GPa)
#
#
# Indices 1 2 3 4 5 6 
#
# 1 0.020721 0.005466 0.005645 0.000000 0.003416 0.000000
# 2 0.005466 0.090882 -0.005240 0.000000 0.005699 0.000000
# 3 0.005645 -0.005240 0.020530 0.000000 -0.001803 0.000000
# 4 0.000000 0.000000 0.000000 0.023406 0.000000 0.006905
# 5 0.003416 0.005699 -0.001803 0.000000 0.024916 0.000000
# 6 0.000000 0.000000 0.000000 0.006905 0.000000 0.057217
#
#
# Mechanical properties :
#
#
# Convention : Reuss Voigt Hill
#
# Bulk Modulus (GPa) = 6.95038 9.77045 8.36042
# Shear Modulus (GPa) = 18.25568 30.11043 24.18305
#
# Velocity S-wave (km/s) = 2.90331 3.72867 3.34157
# Velocity P-wave (km/s) = 3.80108 4.80090 4.32994
#
# Compressibility (1/GPa) = 0.14387697
#
# Stress axis : x y z
#
# Youngs Moduli (GPa) = 48.25920 11.00328 48.70933
#
# Poissons Ratio (x) = -0.06015 -0.27497
# Poissons Ratio (y) = -0.26380 0.25522
# Poissons Ratio (z) = -0.27243 0.05765
#
# Static dielectric constant tensor:
#      x y z
#    x 1.862010 0.000000 0.062280 
#    y 0.000000 1.798770 0.000000 
#    z 0.062280 0.000000 1.815810 
# 
# From -- ./inp_files/121435.got.cif
#   From: 2010.05.17/outbox.cif.g08.bks.cpg/sg15_61_cif.got.tgz:121435.got - 2010.06.03 18:47:42.
