data_PCOD9288189
_publ_section_title
;
Structure prediction by ZEFSAII (Michael W. Deem and Ramdas Pophale) SiO2 
 PCOD9288189
Probable space group: C 2/C
;
_chemical_formula_sum "Si O2"
_cell_formula_units_Z 40
_cell_length_a 10.625866
_cell_length_b 21.377968
_cell_length_c 10.840858
_cell_angle_alpha 90.000000
_cell_angle_beta 127.471896
_cell_angle_gamma 90.000000
_cell_volume 1954.449460
_symmetry_space_group_name_H-M "C 2/C"
_symmetry_group_IT_number 15
_symmetry_cell_setting 'monoclinic'
loop_
_space_group_symop_operation_xyz
x,y,z
-x,y,1/2-z
-x,-y,-z
x,-y,1/2+z
1/2+x,1/2+y,z
1/2-x,1/2+y,1/2-z
1/2-x,1/2-y,-z
1/2+x,1/2-y,1/2+z
loop_
_atom_site_type_symbol
_atom_site_label
_atom_site_fract_x
_atom_site_fract_y
_atom_site_fract_z
Si Si1 0.576579 0.686202 0.659135
Si Si2 0.433630 0.929742 0.577266
Si Si3 0.640275 0.792668 0.021501
Si Si4 0.738597 0.048418 0.098589
Si Si5 0.479080 0.568844 0.043097
O O1 0.500000 0.681234 0.750000
O O2 0.514839 0.750000 0.559141
O O3 0.521089 0.625679 0.551741
O O4 0.763625 0.691991 0.797154
O O5 0.500000 0.952748 0.750000
O O6 0.384960 0.858151 0.561295
O O7 0.571856 0.930639 0.556491
O O8 0.292310 0.974295 0.444706
O O9 0.750000 0.750000 0.000000
O O10 0.810946 0.072688 0.014006
O O11 0.872609 0.069486 0.275037
O O12 0.500000 0.500000 0.000000
#
# Coordination Sequence:
#
# PCOD9288189 Si02
#       5
#     8   8   8   8   8
#     4  10  23  39  66  95 124 168 219 260 324 366
#     4  11  22  41  65  93 132 163 219 268 324 378
#     4  10  22  38  64  98 124 165 218 266 316 381
#     4  10  25  39  63  97 125 173 208 264 329 383
#     4  11  23  40  65  90 136 165 217 264 322 390
#
# _framework density 20.46612
#
# number of rings (size 3 to 8) (size 9 to 14) (size 15 to 20)
#    0.000    1.600    0.000    4.200   16.800    1.600 
#    0.000    1.000    0.000    0.000    0.000    0.000 
#    0.000    0.000    0.000    0.000    0.000    0.000 
#
# Total GULP energy -111535.564114 kJ/mol
# GULP energy per Si atom -5576.778206 kJ/mol
# Density = 2.041954 g / cm^3
# Si number density = 20.466120 Si / 1000 Ang^3
#
#
#
# Elastic Constant Matrix: (Units=GPa)
#
#
# Indices 1 2 3 4 5 6 
#
# 1 74.0714 11.5787 11.5543 0.0000 -0.5386 0.0000
# 2 11.5787 120.4528 53.3690 0.0000 -12.6591 0.0000
# 3 11.5543 53.3690 111.3407 0.0000 -1.3619 0.0000
# 4 0.0000 0.0000 0.0000 43.7648 0.0000 3.9100
# 5 -0.5386 -12.6591 -1.3619 0.0000 18.8981 0.0000
# 6 0.0000 0.0000 0.0000 3.9100 0.0000 10.3332
#
#
#
# Elastic Compliance Matrix: (Units=1/GPa)
#
#
# Indices 1 2 3 4 5 6 
#
# 1 0.013797 -0.000915 -0.000997 0.000000 -0.000292 0.000000
# 2 -0.000915 0.011524 -0.005339 0.000000 0.007308 0.000000
# 3 -0.000997 -0.005339 0.011610 0.000000 -0.002768 0.000000
# 4 0.000000 0.000000 0.000000 0.023649 0.000000 -0.008949
# 5 -0.000292 0.007308 -0.002768 0.000000 0.057603 0.000000
# 6 0.000000 0.000000 0.000000 -0.008949 0.000000 0.100161
#
#
# Mechanical properties :
#
#
# Convention : Reuss Voigt Hill
#
# Bulk Modulus (GPa) = 44.58616 50.98545 47.78581
# Shear Modulus (GPa) = 20.80536 29.89010 25.34773
#
# Velocity S-wave (km/s) = 3.19184 3.82575 3.52308
# Velocity P-wave (km/s) = 5.95117 6.66944 6.32051
#
# Compressibility (1/GPa) = 0.02242848
#
# Stress axis : x y z
#
# Youngs Moduli (GPa) = 72.47999 86.77715 86.13049
#
# Poissons Ratio (x) = 0.07943 0.08584
# Poissons Ratio (y) = 0.06635 0.45988
# Poissons Ratio (z) = 0.07223 0.46333
#
# Static dielectric constant tensor:
#      x y z
#    x 1.902250 0.000000 0.260090 
#    y 0.000000 1.719220 0.000000 
#    z 0.260090 0.000000 2.208730 
# 
# From -- ./inp_files/89866.got.cif
#   From: 2010.05.17/outbox.cif.g08.bks.cpg/sg15_45_cif.got.tgz:89866.got - 2010.06.03 18:47:42.
