data_PCOD9288115
_publ_section_title
;
Structure prediction by ZEFSAII (Michael W. Deem and Ramdas Pophale) SiO2 
 PCOD9288115
Probable space group: C 2/C
;
_chemical_formula_sum "Si O2"
_cell_formula_units_Z 52
_cell_length_a 22.694590
_cell_length_b 5.227318
_cell_length_c 27.309005
_cell_angle_alpha 90.000000
_cell_angle_beta 144.947863
_cell_angle_gamma 90.000000
_cell_volume 1860.639714
_symmetry_space_group_name_H-M "C 2/C"
_symmetry_group_IT_number 15
_symmetry_cell_setting 'monoclinic'
loop_
_space_group_symop_operation_xyz
x,y,z
-x,y,1/2-z
-x,-y,-z
x,-y,1/2+z
1/2+x,1/2+y,z
1/2-x,1/2+y,1/2-z
1/2-x,1/2-y,-z
1/2+x,1/2-y,1/2+z
loop_
_atom_site_type_symbol
_atom_site_label
_atom_site_fract_x
_atom_site_fract_y
_atom_site_fract_z
Si Si1 0.110055 0.217356 0.032976
Si Si2 0.263236 0.341548 0.790464
Si Si3 0.000000 0.355190 0.750000
Si Si4 0.322055 0.410520 0.140021
Si Si5 0.120732 0.681276 0.750603
Si Si6 0.107940 0.347803 0.382117
Si Si7 0.967220 0.295005 0.064511
O O1 0.213567 0.266327 0.072097
O O2 0.032164 0.437993 0.963148
O O3 0.139514 0.226594 0.109991
O O4 0.069193 0.939376 0.991922
O O5 0.228764 0.100356 0.735573
O O6 0.177806 0.427605 0.772012
O O7 0.938007 0.146911 0.741853
O O8 0.876744 0.395108 0.639270
O O9 0.300890 0.642948 0.168000
O O10 0.341187 0.604074 0.106418
O O11 0.019614 0.614407 0.717128
O O12 0.067366 0.774898 0.664679
O O13 0.109381 0.341499 0.440552
#
# Coordination Sequence:
#
# PCOD9288115 Si02
#       7
#     8   8   4   8   8   8   8
#     4  12  27  46  69 108 151 181 236 311 368 419
#     4  12  27  51  81 106 131 184 253 313 373 436
#     4  12  18  36  64 102 136 198 262 276 314 426
#     4  12  23  40  71 104 148 202 252 289 333 427
#     4  10  22  48  71 103 143 191 243 299 345 435
#     4  10  22  38  64 101 145 195 245 265 347 423
#     4  10  26  45  68 104 159 190 227 293 373 426
#
# _framework density 27.947375999999998
#
# number of rings (size 3 to 8) (size 9 to 14) (size 15 to 20)
#    0.923    0.000    3.077    3.692    6.462    2.462 
#    0.000    4.615    0.000    0.000    0.000    0.000 
#    0.000    0.000    0.000    0.000    0.000    0.000 
#
# Total GULP energy -145212.404559 kJ/mol
# GULP energy per Si atom -5585.092483 kJ/mol
# Density = 2.788377 g / cm^3
# Si number density = 27.947376 Si / 1000 Ang^3
#
#
#
# Elastic Constant Matrix: (Units=GPa)
#
#
# Indices 1 2 3 4 5 6 
#
# 1 88.8176 0.4834 10.1202 0.0032 14.4737 -0.0300
# 2 0.4834 114.9608 25.1484 0.0405 -0.6240 -0.1248
# 3 10.1202 25.1484 66.8333 -0.0017 -21.3246 0.0042
# 4 0.0032 0.0405 -0.0017 39.2976 0.0006 20.7180
# 5 14.4737 -0.6240 -21.3246 0.0006 56.5115 -0.0084
# 6 -0.0300 -0.1248 0.0042 20.7180 -0.0084 -25.9529
#
#
#
# Elastic Compliance Matrix: (Units=1/GPa)
#
#
# Indices 1 2 3 4 5 6 
#
# 1 0.012401 0.000708 -0.003587 0.000005 -0.004522 -0.000013
# 2 0.000708 0.009619 -0.004264 0.000010 -0.001684 -0.000039
# 3 -0.003587 -0.004264 0.019769 -0.000006 0.008331 0.000021
# 4 0.000005 0.000010 -0.000006 0.017909 -0.000001 0.014297
# 5 -0.004522 -0.001684 0.008331 -0.000001 0.021979 0.000007
# 6 -0.000013 -0.000039 0.000021 0.014297 0.000007 -0.027118
#
#
# Mechanical properties :
#
#
# Convention : Reuss Voigt Hill
#
# Bulk Modulus (GPa) = 36.36063 38.01286 37.18675
# Shear Modulus (GPa) = 64.09224 29.62856 46.86040
#
# Velocity S-wave (km/s) = 4.79406 3.25953 4.09924
# Velocity P-wave (km/s) = 6.60928 5.27231 5.97829
#
# Compressibility (1/GPa) = 0.02750227
#
# Stress axis : x y z
#
# Youngs Moduli (GPa) = 80.64024 103.95801 50.58530
#
# Poissons Ratio (x) = -0.07360 0.18145
# Poissons Ratio (y) = -0.05709 0.21570
# Poissons Ratio (z) = 0.28925 0.44330
#
# Static dielectric constant tensor:
#      x y z
#    x 2.669900 -0.000010 0.083530 
#    y -0.000010 2.338670 -0.000040 
#    z 0.083530 -0.000040 2.203480 
# 
# From -- ./inp_files/302844.got.cif
#   From: 2010.05.17/outbox.cif.g08.bks.cpg/sg15_152_cif.got.tgz:302844.got - 2010.06.03 18:47:42.
