data_PCOD9288322
_publ_section_title
;
Structure prediction by ZEFSAII (Michael W. Deem and Ramdas Pophale) SiO2 
 PCOD9288322
Probable space group: C 2/C
;
_chemical_formula_sum "Si O2"
_cell_formula_units_Z 52
_cell_length_a 9.615079
_cell_length_b 15.030062
_cell_length_c 30.666791
_cell_angle_alpha 90.000000
_cell_angle_beta 36.684500
_cell_angle_gamma 90.000000
_cell_volume 2647.604796
_symmetry_space_group_name_H-M "C 2/C"
_symmetry_group_IT_number 15
_symmetry_cell_setting 'monoclinic'
loop_
_space_group_symop_operation_xyz
x,y,z
-x,y,1/2-z
-x,-y,-z
x,-y,1/2+z
1/2+x,1/2+y,z
1/2-x,1/2+y,1/2-z
1/2-x,1/2-y,-z
1/2+x,1/2-y,1/2+z
loop_
_atom_site_type_symbol
_atom_site_label
_atom_site_fract_x
_atom_site_fract_y
_atom_site_fract_z
Si Si1 0.250121 0.473820 0.694291
Si Si2 0.500000 0.857919 0.250000
Si Si3 0.982160 0.943502 0.960174
Si Si4 0.025379 0.432476 0.452625
Si Si5 0.115518 0.259148 0.889559
Si Si6 0.152357 0.237824 0.454877
Si Si7 0.117296 0.060279 0.173480
O O1 0.828267 0.571843 0.769323
O O2 0.378866 0.485161 0.615683
O O3 0.422198 0.429781 0.685200
O O4 0.000000 0.426818 0.750000
O O5 0.659326 0.797755 0.179590
O O6 0.089816 0.845791 0.940744
O O7 0.713849 0.936466 0.013808
O O8 0.000000 0.000000 0.000000
O O9 0.000000 0.500000 0.500000
O O10 0.074555 0.332444 0.455491
O O11 0.240665 0.470426 0.371005
O O12 0.199912 0.359426 0.875925
O O13 0.923397 0.258239 0.899736
O O14 0.989100 0.223635 0.964449
O O15 0.000000 0.062488 0.250000
#
# Coordination Sequence:
#
# PCOD9288322 Si02
#       7
#     8   4   8   8   8   8   8
#     4  10  25  43  64  97 143 173 217 279 341 395
#     4  10  22  38  68  92 136 180 220 272 338 400
#     4  12  25  43  72 104 134 181 232 280 341 407
#     4  12  24  45  69  97 141 178 223 288 343 398
#     4  11  22  40  69 102 133 172 234 277 336 407
#     4  11  25  41  69 102 135 175 230 285 339 398
#     4  12  25  43  69 101 134 183 225 276 342 412
#
# _framework density 19.640394000000001
#
# number of rings (size 3 to 8) (size 9 to 14) (size 15 to 20)
#    0.462    0.308    3.846    3.231    6.462    0.000 
#    0.000    0.769    0.000    0.000    0.000    0.000 
#    0.000    0.000    0.000    0.000    0.000    0.000 
#
# Total GULP energy -145266.303186 kJ/mol
# GULP energy per Si atom -5587.165507 kJ/mol
# Density = 1.959569 g / cm^3
# Si number density = 19.640394 Si / 1000 Ang^3
#
#
#
# Elastic Constant Matrix: (Units=GPa)
#
#
# Indices 1 2 3 4 5 6 
#
# 1 146.4055 43.6787 42.2447 -0.0004 -20.3918 0.0001
# 2 43.6787 100.9411 9.7735 0.0003 -9.5997 -0.0008
# 3 42.2447 9.7735 95.9897 -0.0024 -8.2724 0.0020
# 4 -0.0004 0.0003 -0.0024 39.4895 0.0005 -7.9272
# 5 -20.3918 -9.5997 -8.2724 0.0005 32.1141 0.0003
# 6 0.0001 -0.0008 0.0020 -7.9272 0.0003 28.6453
#
#
#
# Elastic Compliance Matrix: (Units=1/GPa)
#
#
# Indices 1 2 3 4 5 6 
#
# 1 0.009388 -0.003341 -0.003440 0.000000 0.004076 0.000000
# 2 -0.003341 0.011445 0.000427 0.000000 0.001409 0.000000
# 3 -0.003440 0.000427 0.011977 0.000001 0.001028 -0.000001
# 4 0.000000 0.000000 0.000001 0.026813 0.000000 0.007420
# 5 0.004076 0.001409 0.001028 0.000000 0.034413 -0.000001
# 6 0.000000 0.000000 -0.000001 0.007420 -0.000001 0.036963
#
#
# Mechanical properties :
#
#
# Convention : Reuss Voigt Hill
#
# Bulk Modulus (GPa) = 49.75025 59.41446 54.58236
# Shear Modulus (GPa) = 33.24285 36.55910 34.90097
#
# Velocity S-wave (km/s) = 4.11856 4.31910 4.22002
# Velocity P-wave (km/s) = 6.92836 7.42898 7.18303
#
# Compressibility (1/GPa) = 0.02010040
#
# Stress axis : x y z
#
# Youngs Moduli (GPa) = 106.52460 87.37152 83.49431
#
# Poissons Ratio (x) = 0.29194 0.28721
# Poissons Ratio (y) = 0.35594 -0.03562
# Poissons Ratio (z) = 0.36644 -0.03728
#
# Static dielectric constant tensor:
#      x y z
#    x 1.687550 0.000000 0.000010 
#    y 0.000000 1.685210 0.000000 
#    z 0.000010 0.000000 1.685410 
# 
# From -- ./inp_files/308186.got.cif
#   From: 2010.05.17/outbox.cif.g08.bks.cpg/sg15_155_cif.got.tgz:308186.got - 2010.06.03 18:47:42.
