data_PCOD9288998
_publ_section_title
;
Structure prediction by ZEFSAII (Michael W. Deem and Ramdas Pophale) SiO2 
 PCOD9288998
Probable space group: C 2/C
;
_chemical_formula_sum "Si O2"
_cell_formula_units_Z 56
_cell_length_a 19.181854
_cell_length_b 8.614776
_cell_length_c 17.849751
_cell_angle_alpha 90.000000
_cell_angle_beta 129.451224
_cell_angle_gamma 90.000000
_cell_volume 2277.599161
_symmetry_space_group_name_H-M "C 2/C"
_symmetry_group_IT_number 15
_symmetry_cell_setting 'monoclinic'
loop_
_space_group_symop_operation_xyz
x,y,z
-x,y,1/2-z
-x,-y,-z
x,-y,1/2+z
1/2+x,1/2+y,z
1/2-x,1/2+y,1/2-z
1/2-x,1/2-y,-z
1/2+x,1/2-y,1/2+z
loop_
_atom_site_type_symbol
_atom_site_label
_atom_site_fract_x
_atom_site_fract_y
_atom_site_fract_z
Si Si1 0.802804 0.938568 0.452658
Si Si2 0.368443 0.808341 0.104535
Si Si3 0.822336 0.107010 0.310428
Si Si4 0.647478 0.703377 0.911471
Si Si5 0.091627 0.979341 0.767369
Si Si6 0.973654 0.540190 0.103439
Si Si7 0.354225 0.969235 0.371145
O O1 0.699645 0.939652 0.411921
O O2 0.833309 0.770993 0.503652
O O3 0.809307 0.995468 0.372858
O O4 0.863920 0.057397 0.540802
O O5 0.369407 0.676022 0.167469
O O6 0.461501 0.886753 0.145260
O O7 0.907938 0.051287 0.320017
O O8 0.833036 0.287787 0.338412
O O9 0.735948 0.070728 0.198854
O O10 0.646454 0.633762 0.827312
O O11 0.566869 0.819737 0.875638
O O12 0.750000 0.750000 0.000000
O O13 0.000000 0.002235 0.750000
O O14 0.073318 0.540422 0.138160
O O15 0.904309 0.529796 0.985521
#
# Coordination Sequence:
#
# PCOD9288998 Si02
#       7
#     8   8   8   8   8   8   8
#     4  10  22  39  71 103 134 186 233 285 349 429
#     4  10  22  42  71 100 137 189 237 280 356 434
#     4  12  25  46  69 106 144 185 240 299 364 425
#     4  11  21  44  70  98 133 186 234 286 349 435
#     4  11  26  45  67 100 139 182 236 299 362 423
#     4  11  23  47  69 102 144 185 241 292 355 434
#     4  11  27  42  71 105 144 188 232 305 362 420
#
# _framework density 24.587294
#
# number of rings (size 3 to 8) (size 9 to 14) (size 15 to 20)
#    0.000    1.143    2.857    2.571    6.000    1.143 
#    2.571    2.857    0.000    0.000    0.000    0.000 
#    0.000    0.000    0.000    0.000    0.000    0.000 
#
# Total GULP energy -156603.080493 kJ/mol
# GULP energy per Si atom -5592.967160 kJ/mol
# Density = 2.453133 g / cm^3
# Si number density = 24.587294 Si / 1000 Ang^3
#
#
#
# Elastic Constant Matrix: (Units=GPa)
#
#
# Indices 1 2 3 4 5 6 
#
# 1 108.8204 63.9393 25.2621 0.0000 -2.9636 0.0000
# 2 63.9393 97.8708 26.3691 0.0000 -15.2886 0.0000
# 3 25.2621 26.3691 75.2705 0.0000 -11.0692 0.0000
# 4 0.0000 0.0000 0.0000 30.3541 0.0000 -5.0470
# 5 -2.9636 -15.2886 -11.0692 0.0000 28.7755 0.0000
# 6 0.0000 0.0000 0.0000 -5.0470 0.0000 39.0588
#
#
#
# Elastic Compliance Matrix: (Units=1/GPa)
#
#
# Indices 1 2 3 4 5 6 
#
# 1 0.015697 -0.010374 -0.002339 0.000000 -0.004795 0.000000
# 2 -0.010374 0.018784 -0.001895 0.000000 0.008182 0.000000
# 3 -0.002339 -0.001895 0.015423 0.000000 0.004685 0.000000
# 4 0.000000 0.000000 0.000000 0.033668 0.000000 0.004350
# 5 -0.004795 0.008182 0.004685 0.000000 0.040407 0.000000
# 6 0.000000 0.000000 0.000000 0.004350 0.000000 0.026165
#
#
# Mechanical properties :
#
#
# Convention : Reuss Voigt Hill
#
# Bulk Modulus (GPa) = 48.33845 57.01139 52.67492
# Shear Modulus (GPa) = 26.84464 30.73043 28.78753
#
# Velocity S-wave (km/s) = 3.30784 3.53916 3.42545
# Velocity P-wave (km/s) = 5.85591 6.31969 6.09222
#
# Compressibility (1/GPa) = 0.02068747
#
# Stress axis : x y z
#
# Youngs Moduli (GPa) = 63.70562 53.23779 64.83613
#
# Poissons Ratio (x) = 0.55228 0.15166
# Poissons Ratio (y) = 0.66087 0.12289
# Poissons Ratio (z) = 0.14902 0.10091
#
# Static dielectric constant tensor:
#      x y z
#    x 1.977420 0.000000 0.039700 
#    y 0.000000 2.015930 0.000000 
#    z 0.039700 0.000000 2.006760 
# 
# From -- ./inp_files/247590.got.cif
#   From: 2010.05.17/outbox.cif.g08.bks.cpg/sg15_124_cif.got.tgz:247590.got - 2010.06.03 18:47:42.
