data_PCOD9288735
_publ_section_title
;
Structure prediction by ZEFSAII (Michael W. Deem and Ramdas Pophale) SiO2 
 PCOD9288735
Probable space group: C 2/C
;
_chemical_formula_sum "Si O2"
_cell_formula_units_Z 48
_cell_length_a 17.654090
_cell_length_b 7.548045
_cell_length_c 20.858536
_cell_angle_alpha 90.000000
_cell_angle_beta 138.492814
_cell_angle_gamma 90.000000
_cell_volume 1842.000612
_symmetry_space_group_name_H-M "C 2/C"
_symmetry_group_IT_number 15
_symmetry_cell_setting 'monoclinic'
loop_
_space_group_symop_operation_xyz
x,y,z
-x,y,1/2-z
-x,-y,-z
x,-y,1/2+z
1/2+x,1/2+y,z
1/2-x,1/2+y,1/2-z
1/2-x,1/2-y,-z
1/2+x,1/2-y,1/2+z
loop_
_atom_site_type_symbol
_atom_site_label
_atom_site_fract_x
_atom_site_fract_y
_atom_site_fract_z
Si Si1 0.879107 0.317511 0.646561
Si Si2 0.692506 0.259929 0.626456
Si Si3 0.960436 0.405918 0.563939
Si Si4 0.842235 0.766393 0.468392
Si Si5 0.712324 0.127843 0.191560
Si Si6 0.395691 0.601649 0.136977
O O1 0.778101 0.357254 0.631463
O O2 0.879653 0.386627 0.574732
O O3 0.000000 0.381208 0.750000
O O4 0.882457 0.105662 0.642699
O O5 0.579117 0.236805 0.513376
O O6 0.688956 0.338667 0.694823
O O7 0.733702 0.056428 0.667677
O O8 0.928394 0.598971 0.518790
O O9 0.095139 0.390186 0.658283
O O10 0.811477 0.787432 0.373464
O O11 0.717071 0.708899 0.414671
O O12 0.899969 0.879932 0.562017
O O13 0.500000 0.661609 0.250000
#
# Coordination Sequence:
#
# PCOD9288735 Si02
#       6
#     8   8   8   8   8   8
#     4  11  21  42  65  91 126 161 212 260 311 367
#     4  11  23  43  64  91 127 167 205 260 312 373
#     4  11  23  42  65  90 126 164 210 258 312 373
#     4  10  22  41  62  92 125 163 207 256 315 372
#     4  11  24  44  62  92 128 164 208 256 315 377
#     4  10  22  39  64  91 126 161 206 260 312 366
#
# _framework density 26.058623999999998
#
# number of rings (size 3 to 8) (size 9 to 14) (size 15 to 20)
#    0.000    1.333    5.000    2.500    0.000    4.667 
#    3.000    1.667    0.000    0.000    0.000    0.000 
#    0.000    0.000    0.000    0.000    0.000    0.000 
#
# Total GULP energy -134140.653126 kJ/mol
# GULP energy per Si atom -5589.193880 kJ/mol
# Density = 2.599931 g / cm^3
# Si number density = 26.058624 Si / 1000 Ang^3
#
#
#
# Elastic Constant Matrix: (Units=GPa)
#
#
# Indices 1 2 3 4 5 6 
#
# 1 120.9877 11.5888 29.2053 0.0000 -13.1109 0.0000
# 2 11.5888 41.1480 11.4598 0.0000 -6.8388 0.0000
# 3 29.2053 11.4598 111.0022 0.0000 -18.6588 0.0000
# 4 0.0000 0.0000 0.0000 29.6236 0.0000 -16.2434
# 5 -13.1109 -6.8388 -18.6588 0.0000 50.2954 0.0000
# 6 0.0000 0.0000 0.0000 -16.2434 0.0000 27.4908
#
#
#
# Elastic Compliance Matrix: (Units=1/GPa)
#
#
# Indices 1 2 3 4 5 6 
#
# 1 0.009061 -0.001773 -0.001967 0.000000 0.001391 0.000000
# 2 -0.001773 0.025693 -0.001788 0.000000 0.002368 0.000000
# 3 -0.001967 -0.001788 0.010221 0.000000 0.003036 0.000000
# 4 0.000000 0.000000 0.000000 0.049936 0.000000 0.029505
# 5 0.001391 0.002368 0.003036 0.000000 0.021693 0.000000
# 6 0.000000 0.000000 0.000000 0.029505 0.000000 0.053810
#
#
# Mechanical properties :
#
#
# Convention : Reuss Voigt Hill
#
# Bulk Modulus (GPa) = 29.48153 41.96064 35.72109
# Shear Modulus (GPa) = 25.93677 36.20755 31.07216
#
# Velocity S-wave (km/s) = 3.15830 3.73160 3.45685
# Velocity P-wave (km/s) = 4.96366 5.89099 5.44709
#
# Compressibility (1/GPa) = 0.03391954
#
# Stress axis : x y z
#
# Youngs Moduli (GPa) = 110.36687 38.92053 97.83480
#
# Poissons Ratio (x) = 0.06900 0.19245
# Poissons Ratio (y) = 0.19566 0.17494
# Poissons Ratio (z) = 0.21710 0.06959
#
# Static dielectric constant tensor:
#      x y z
#    x 2.045540 0.000000 -0.068330 
#    y 0.000000 2.066920 0.000000 
#    z -0.068330 0.000000 2.118380 
# 
# From -- ./inp_files/252004.got.cif
#   From: 2010.05.17/outbox.cif.g08.bks.cpg/sg15_127_cif.got.tgz:252004.got - 2010.06.03 18:47:42.
