data_PCOD9288783
_publ_section_title
;
Structure prediction by ZEFSAII (Michael W. Deem and Ramdas Pophale) SiO2 
 PCOD9288783
Probable space group: C 2/C
;
_chemical_formula_sum "Si O2"
_cell_formula_units_Z 60
_cell_length_a 15.463549
_cell_length_b 15.062781
_cell_length_c 13.785042
_cell_angle_alpha 90.000000
_cell_angle_beta 121.186240
_cell_angle_gamma 90.000000
_cell_volume 2746.860973
_symmetry_space_group_name_H-M "C 2/C"
_symmetry_group_IT_number 15
_symmetry_cell_setting 'monoclinic'
loop_
_space_group_symop_operation_xyz
x,y,z
-x,y,1/2-z
-x,-y,-z
x,-y,1/2+z
1/2+x,1/2+y,z
1/2-x,1/2+y,1/2-z
1/2-x,1/2-y,-z
1/2+x,1/2-y,1/2+z
loop_
_atom_site_type_symbol
_atom_site_label
_atom_site_fract_x
_atom_site_fract_y
_atom_site_fract_z
Si Si1 0.500000 0.229245 0.250000
Si Si2 0.515191 0.061090 0.648225
Si Si3 0.288226 0.640146 0.231855
Si Si4 0.630633 0.696440 0.653083
Si Si5 0.738012 0.973077 0.313251
Si Si6 0.200284 0.515889 0.017626
Si Si7 0.331409 0.181346 0.007895
Si Si8 0.462768 0.745279 0.405475
O O1 0.436149 0.287225 0.289536
O O2 0.420583 0.172707 0.140176
O O3 0.500000 0.033033 0.750000
O O4 0.630385 0.034761 0.696047
O O5 0.420594 0.023561 0.534979
O O6 0.505215 0.166798 0.632348
O O7 0.209856 0.721853 0.193208
O O8 0.276708 0.571997 0.314806
O O9 0.400126 0.679846 0.300991
O O10 0.260666 0.580946 0.122847
O O11 0.688674 0.603485 0.683151
O O12 0.555978 0.703579 0.517489
O O13 0.721384 0.958513 0.418023
O O14 0.222177 0.412055 0.041410
O O15 0.250000 0.250000 0.000000
O O16 0.384822 0.219912 0.943277
#
# Coordination Sequence:
#
# PCOD9288783 Si02
#       8
#     4   8   8   8   8   8   8   8
#     4  10  24  40  68 102 132 182 230 284 354 408
#     4  10  22  39  65 100 135 171 226 287 344 402
#     4  12  25  43  70 101 139 185 231 284 356 411
#     4  11  24  44  69  96 140 181 231 291 346 418
#     4  11  25  43  69  99 141 177 232 287 348 421
#     4  11  25  41  70 105 138 179 234 290 348 417
#     4  11  24  42  70 102 140 177 230 288 357 410
#     4  11  23  42  64  96 134 183 226 284 337 418
#
# _framework density 21.843115000000001
#
# number of rings (size 3 to 8) (size 9 to 14) (size 15 to 20)
#    0.000    1.067    2.667    3.200    8.400    3.200 
#    0.000    0.000    1.467    0.000    0.000    0.000 
#    0.000    0.000    0.000    0.000    0.000    0.000 
#
# Total GULP energy -167918.009330 kJ/mol
# GULP energy per Si atom -5597.266978 kJ/mol
# Density = 2.179340 g / cm^3
# Si number density = 21.843115 Si / 1000 Ang^3
#
#
#
# Elastic Constant Matrix: (Units=GPa)
#
#
# Indices 1 2 3 4 5 6 
#
# 1 56.4904 34.2665 23.0929 0.0000 6.0367 0.0000
# 2 34.2665 109.3638 37.0623 0.0000 26.4872 0.0000
# 3 23.0929 37.0623 115.4319 0.0000 5.7123 0.0000
# 4 0.0000 0.0000 0.0000 34.8921 0.0000 5.2602
# 5 6.0367 26.4872 5.7123 0.0000 27.2112 0.0000
# 6 0.0000 0.0000 0.0000 5.2602 0.0000 29.8133
#
#
#
# Elastic Compliance Matrix: (Units=1/GPa)
#
#
# Indices 1 2 3 4 5 6 
#
# 1 0.022574 -0.006743 -0.002454 0.000000 0.002071 0.000000
# 2 -0.006743 0.015366 -0.002949 0.000000 -0.012843 0.000000
# 3 -0.002454 -0.002949 0.010036 0.000000 0.001308 0.000000
# 4 0.000000 0.000000 0.000000 0.029443 0.000000 -0.005195
# 5 0.002071 -0.012843 0.001308 0.000000 0.048516 0.000000
# 6 0.000000 0.000000 0.000000 -0.005195 0.000000 0.034459
#
#
# Mechanical properties :
#
#
# Convention : Reuss Voigt Hill
#
# Bulk Modulus (GPa) = 42.22091 52.23660 47.22875
# Shear Modulus (GPa) = 25.96304 30.84095 28.40199
#
# Velocity S-wave (km/s) = 3.45137 3.76164 3.60984
# Velocity P-wave (km/s) = 5.93748 6.54469 6.24847
#
# Compressibility (1/GPa) = 0.02368495
#
# Stress axis : x y z
#
# Youngs Moduli (GPa) = 44.29851 65.07687 99.63980
#
# Poissons Ratio (x) = 0.43882 0.24447
# Poissons Ratio (y) = 0.29871 0.29386
# Poissons Ratio (z) = 0.10869 0.19193
#
# Static dielectric constant tensor:
#      x y z
#    x 1.796430 0.000000 -0.017560 
#    y 0.000000 1.752480 0.000000 
#    z -0.017560 0.000000 1.832980 
# 
# From -- ./inp_files/154267.got.cif
#   From: 2010.05.17/outbox.cif.g08.bks.cpg/sg15_78_cif.got.tgz:154267.got - 2010.06.03 18:47:42.
