data_PCOD9288578
_publ_section_title
;
Structure prediction by ZEFSAII (Michael W. Deem and Ramdas Pophale) SiO2 
 PCOD9288578
Probable space group: C 2/C
;
_chemical_formula_sum "Si O2"
_cell_formula_units_Z 44
_cell_length_a 22.366539
_cell_length_b 12.929167
_cell_length_c 10.534184
_cell_angle_alpha 90.000000
_cell_angle_beta 41.478190
_cell_angle_gamma 90.000000
_cell_volume 2017.659491
_symmetry_space_group_name_H-M "C 2/C"
_symmetry_group_IT_number 15
_symmetry_cell_setting 'monoclinic'
loop_
_space_group_symop_operation_xyz
x,y,z
-x,y,1/2-z
-x,-y,-z
x,-y,1/2+z
1/2+x,1/2+y,z
1/2-x,1/2+y,1/2-z
1/2-x,1/2-y,-z
1/2+x,1/2-y,1/2+z
loop_
_atom_site_type_symbol
_atom_site_label
_atom_site_fract_x
_atom_site_fract_y
_atom_site_fract_z
Si Si1 0.619040 0.707962 0.702680
Si Si2 0.162771 0.734621 0.856612
Si Si3 0.559504 0.423906 0.993395
Si Si4 0.501445 0.878601 0.507574
Si Si5 0.500000 0.233322 0.750000
Si Si6 0.659031 0.620582 0.901867
O O1 0.669105 0.722055 0.490407
O O2 0.523971 0.648815 0.830957
O O3 0.666841 0.642612 0.737507
O O4 0.589844 0.820052 0.804213
O O5 0.078782 0.657082 0.981061
O O6 0.249670 0.666687 0.684130
O O7 0.131101 0.837585 0.828932
O O8 0.500000 0.500000 0.000000
O O9 0.620621 0.503922 0.978339
O O10 0.525685 0.834514 0.330226
O O11 0.500000 0.000000 0.500000
O O12 0.580124 0.306682 0.578082
#
# Coordination Sequence:
#
# PCOD9288578 Si02
#       6
#     8   8   8   8   4   8
#     4   9  20  40  64  93 121 166 220 258 311 398
#     4  11  22  39  65 100 125 159 227 269 306 397
#     4   9  19  38  63  89 125 176 208 252 323 387
#     4  10  22  39  62  86 124 174 206 257 332 382
#     4  10  24  40  60  84 132 168 212 260 328 396
#     4  10  22  39  63  95 130 161 213 273 324 371
#
# _framework density 21.807445999999999
#
# number of rings (size 3 to 8) (size 9 to 14) (size 15 to 20)
#    0.000    2.182    0.000    3.818    5.091    3.636 
#    0.000    0.000    0.000    0.000    0.000    0.000 
#    0.000    0.000    0.000    0.000    0.000    0.000 
#
# Total GULP energy -122535.685365 kJ/mol
# GULP energy per Si atom -5569.803880 kJ/mol
# Density = 2.175781 g / cm^3
# Si number density = 21.807446 Si / 1000 Ang^3
#
#
#
# Elastic Constant Matrix: (Units=GPa)
#
#
# Indices 1 2 3 4 5 6 
#
# 1 42.9605 12.8904 5.7538 0.0000 -6.3298 0.0000
# 2 12.8904 171.8129 16.4139 0.0000 -16.0452 0.0000
# 3 5.7538 16.4139 43.7022 0.0000 -9.2894 0.0000
# 4 0.0000 0.0000 0.0000 20.2121 0.0000 -12.1807
# 5 -6.3298 -16.0452 -9.2894 0.0000 45.2445 0.0000
# 6 0.0000 0.0000 0.0000 -12.1807 0.0000 37.3157
#
#
#
# Elastic Compliance Matrix: (Units=1/GPa)
#
#
# Indices 1 2 3 4 5 6 
#
# 1 0.024347 -0.001390 -0.002159 0.000000 0.002470 0.000000
# 2 -0.001390 0.006252 -0.001814 0.000000 0.001650 0.000000
# 3 -0.002159 -0.001814 0.024726 0.000000 0.004131 0.000000
# 4 0.000000 0.000000 0.000000 0.061591 0.000000 0.020105
# 5 0.002470 0.001650 0.004131 0.000000 0.023881 0.000000
# 6 0.000000 0.000000 0.000000 0.020105 0.000000 0.033361
#
#
# Mechanical properties :
#
#
# Convention : Reuss Voigt Hill
#
# Bulk Modulus (GPa) = 22.42164 36.51021 29.46593
# Shear Modulus (GPa) = 25.03122 35.44898 30.24010
#
# Velocity S-wave (km/s) = 3.39164 4.03618 3.72786
# Velocity P-wave (km/s) = 5.06375 6.20479 5.66308
#
# Compressibility (1/GPa) = 0.04459976
#
# Stress axis : x y z
#
# Youngs Moduli (GPa) = 41.07243 159.94891 40.44340
#
# Poissons Ratio (x) = 0.22229 0.08730
# Poissons Ratio (y) = 0.05708 0.07338
# Poissons Ratio (z) = 0.08866 0.29021
#
# Static dielectric constant tensor:
#      x y z
#    x 1.923590 0.000000 0.080880 
#    y 0.000000 1.796950 0.000000 
#    z 0.080880 0.000000 1.923310 
# 
# From -- ./inp_files/117885.got.cif
#   From: 2010.05.17/outbox.cif.g08.bks.cpg/sg15_59_cif.got.tgz:117885.got - 2010.06.03 18:47:42.
