data_PCOD9288597
_publ_section_title
;
Structure prediction by ZEFSAII (Michael W. Deem and Ramdas Pophale) SiO2 
 PCOD9288597
Probable space group: C 2/C
;
_chemical_formula_sum "Si O2"
_cell_formula_units_Z 64
_cell_length_a 11.786363
_cell_length_b 17.692870
_cell_length_c 14.047888
_cell_angle_alpha 90.000000
_cell_angle_beta 84.896056
_cell_angle_gamma 90.000000
_cell_volume 2917.855026
_symmetry_space_group_name_H-M "C 2/C"
_symmetry_group_IT_number 15
_symmetry_cell_setting 'monoclinic'
loop_
_space_group_symop_operation_xyz
x,y,z
-x,y,1/2-z
-x,-y,-z
x,-y,1/2+z
1/2+x,1/2+y,z
1/2-x,1/2+y,1/2-z
1/2-x,1/2-y,-z
1/2+x,1/2-y,1/2+z
loop_
_atom_site_type_symbol
_atom_site_label
_atom_site_fract_x
_atom_site_fract_y
_atom_site_fract_z
Si Si1 0.189186 0.627275 0.338741
Si Si2 0.927939 0.201497 0.352282
Si Si3 0.483417 0.085799 0.472189
Si Si4 0.437419 0.274964 0.164173
Si Si5 0.119490 0.511862 0.193783
Si Si6 0.606261 0.694930 0.494050
Si Si7 0.796978 0.664933 0.607208
Si Si8 0.709283 0.850858 0.164127
O O1 0.315487 0.651561 0.352699
O O2 0.126038 0.699327 0.295522
O O3 0.186515 0.553615 0.273128
O O4 0.107968 0.615843 0.435903
O O5 0.879166 0.287574 0.367699
O O6 0.000000 0.201693 0.250000
O O7 0.009112 0.169495 0.428657
O O8 0.410642 0.076452 0.380493
O O9 0.408981 0.125427 0.557669
O O10 0.500000 0.000000 0.500000
O O11 0.500000 0.311068 0.250000
O O12 0.533880 0.259015 0.078724
O O13 0.336976 0.325674 0.126973
O O14 0.177319 0.437436 0.146540
O O15 0.000000 0.486765 0.250000
O O16 0.687413 0.641724 0.551592
O O17 0.685124 0.747196 0.421312
O O18 0.789129 0.654813 0.719980
#
# Coordination Sequence:
#
# PCOD9288597 Si02
#       8
#     8   8   8   8   8   8   8   8
#     4  10  23  39  62  90 124 163 211 255 324 378
#     4  11  24  40  65  96 131 166 212 272 326 380
#     4  11  23  38  64  91 126 163 215 271 318 380
#     4  11  21  40  64  92 127 164 213 266 316 385
#     4  10  22  39  62  90 123 167 209 261 317 380
#     4  11  24  38  65  95 129 164 214 265 325 386
#     4  11  22  39  64  94 126 168 217 266 321 388
#     4  11  23  40  66  92 132 169 215 264 330 380
#
# _framework density 21.933921999999999
#
# number of rings (size 3 to 8) (size 9 to 14) (size 15 to 20)
#    0.000    1.250    3.750    3.000    3.500    3.000 
#    0.000    0.625    0.000    2.250    0.000    0.000 
#    0.000    0.000    0.000    0.000    0.000    0.000 
#
# Total GULP energy -178763.261635 kJ/mol
# GULP energy per Si atom -5586.351926 kJ/mol
# Density = 2.188400 g / cm^3
# Si number density = 21.933922 Si / 1000 Ang^3
#
#
#
# Elastic Constant Matrix: (Units=GPa)
#
#
# Indices 1 2 3 4 5 6 
#
# 1 135.2383 31.0863 22.9076 0.0000 11.4004 0.0000
# 2 31.0863 63.2333 -8.0667 0.0000 1.6566 0.0000
# 3 22.9076 -8.0667 66.3055 0.0000 4.2649 0.0000
# 4 0.0000 0.0000 0.0000 23.6490 0.0000 -0.0042
# 5 11.4004 1.6566 4.2649 0.0000 35.1162 0.0000
# 6 0.0000 0.0000 0.0000 -0.0042 0.0000 19.3189
#
#
#
# Elastic Compliance Matrix: (Units=1/GPa)
#
#
# Indices 1 2 3 4 5 6 
#
# 1 0.009373 -0.005018 -0.003697 0.000000 -0.002357 0.000000
# 2 -0.005018 0.018785 0.004002 0.000000 0.000257 0.000000
# 3 -0.003697 0.004002 0.016913 0.000000 -0.001043 0.000000
# 4 0.000000 0.000000 0.000000 0.042285 0.000000 0.000009
# 5 -0.002357 0.000257 -0.001043 0.000000 0.029357 0.000000
# 6 0.000000 0.000000 0.000000 0.000009 0.000000 0.051763
#
#
# Mechanical properties :
#
#
# Convention : Reuss Voigt Hill
#
# Bulk Modulus (GPa) = 28.05339 39.62572 33.83955
# Shear Modulus (GPa) = 26.34610 30.20681 28.27645
#
# Velocity S-wave (km/s) = 3.46953 3.71505 3.59439
# Velocity P-wave (km/s) = 5.37289 6.04213 5.71731
#
# Compressibility (1/GPa) = 0.03564632
#
# Stress axis : x y z
#
# Youngs Moduli (GPa) = 106.69370 53.23386 59.12632
#
# Poissons Ratio (x) = 0.26711 0.21859
# Poissons Ratio (y) = 0.53534 -0.23665
# Poissons Ratio (z) = 0.39444 -0.21306
#
# Static dielectric constant tensor:
#      x y z
#    x 1.836080 0.000000 0.058220 
#    y 0.000000 1.814490 0.000000 
#    z 0.058220 0.000000 1.880740 
# 
# From -- ./inp_files/146093.got.cif
#   From: 2010.05.17/outbox.cif.g08.bks.cpg/sg15_74_cif.got.tgz:146093.got - 2010.06.03 18:47:42.
