data_PCOD9288435
_publ_section_title
;
Structure prediction by ZEFSAII (Michael W. Deem and Ramdas Pophale) SiO2 
 PCOD9288435
Probable space group: C 2/C
;
_chemical_formula_sum "Si O2"
_cell_formula_units_Z 44
_cell_length_a 9.808194
_cell_length_b 27.427338
_cell_length_c 9.413214
_cell_angle_alpha 90.000000
_cell_angle_beta 58.253763
_cell_angle_gamma 90.000000
_cell_volume 2153.412054
_symmetry_space_group_name_H-M "C 2/C"
_symmetry_group_IT_number 15
_symmetry_cell_setting 'monoclinic'
loop_
_space_group_symop_operation_xyz
x,y,z
-x,y,1/2-z
-x,-y,-z
x,-y,1/2+z
1/2+x,1/2+y,z
1/2-x,1/2+y,1/2-z
1/2-x,1/2-y,-z
1/2+x,1/2-y,1/2+z
loop_
_atom_site_type_symbol
_atom_site_label
_atom_site_fract_x
_atom_site_fract_y
_atom_site_fract_z
Si Si1 0.165535 0.151987 0.736403
Si Si2 0.000000 0.504253 0.750000
Si Si3 0.882067 0.646679 0.182336
Si Si4 0.528304 0.664971 0.400222
Si Si5 0.966939 0.719918 0.600984
Si Si6 0.891171 0.565580 0.545014
O O1 0.299019 0.194085 0.654919
O O2 0.245545 0.103200 0.632696
O O3 0.000000 0.164943 0.750000
O O4 0.113950 0.143944 0.927495
O O5 0.908234 0.536580 0.683163
O O6 0.110873 0.469991 0.589594
O O7 0.702262 0.642834 0.335839
O O8 0.000000 0.655049 0.250000
O O9 0.899390 0.692135 0.065265
O O10 0.950308 0.599230 0.064844
O O11 0.500000 0.658155 0.250000
O O12 0.533822 0.722869 0.428086
O O13 0.000000 0.712650 0.750000
#
# Coordination Sequence:
#
# PCOD9288435 Si02
#       6
#     8   4   8   8   8   8
#     4  11  24  39  61  95 132 160 202 261 311 355
#     4  10  22  44  74  90 114 158 208 248 308 398
#     4  11  22  37  62  89 125 164 207 253 298 373
#     4  11  23  37  59  92 130 167 210 260 300 345
#     4  10  22  39  59  87 125 178 222 240 285 368
#     4  10  23  42  69  93 118 157 207 248 311 388
#
# _framework density 20.432690000000001
#
# number of rings (size 3 to 8) (size 9 to 14) (size 15 to 20)
#    0.000    1.455    0.909    4.364    7.636    7.273 
#    0.000    0.909    0.000    0.000    0.000    0.000 
#    0.000    0.000    0.000    0.000    0.000    0.000 
#
# Total GULP energy -123018.450306 kJ/mol
# GULP energy per Si atom -5591.747741 kJ/mol
# Density = 2.038618 g / cm^3
# Si number density = 20.432690 Si / 1000 Ang^3
#
#
#
# Elastic Constant Matrix: (Units=GPa)
#
#
# Indices 1 2 3 4 5 6 
#
# 1 68.6568 29.9653 18.6185 0.0000 4.9750 0.0000
# 2 29.9653 68.5083 38.7729 0.0000 15.5996 0.0000
# 3 18.6185 38.7729 117.7529 0.0000 12.7960 0.0000
# 4 0.0000 0.0000 0.0000 39.8799 0.0000 6.3795
# 5 4.9750 15.5996 12.7960 0.0000 37.2282 0.0000
# 6 0.0000 0.0000 0.0000 6.3795 0.0000 13.2687
#
#
#
# Elastic Compliance Matrix: (Units=1/GPa)
#
#
# Indices 1 2 3 4 5 6 
#
# 1 0.018047 -0.007928 -0.000355 0.000000 0.001032 0.000000
# 2 -0.007928 0.022668 -0.005499 0.000000 -0.006549 0.000000
# 3 -0.000355 -0.005499 0.010496 0.000000 -0.001256 0.000000
# 4 0.000000 0.000000 0.000000 0.027165 0.000000 -0.013060
# 5 0.001032 -0.006549 -0.001256 0.000000 0.029899 0.000000
# 6 0.000000 0.000000 0.000000 -0.013060 0.000000 0.081645
#
#
# Mechanical properties :
#
#
# Convention : Reuss Voigt Hill
#
# Bulk Modulus (GPa) = 42.28914 47.73683 45.01298
# Shear Modulus (GPa) = 22.18636 29.24612 25.71624
#
# Velocity S-wave (km/s) = 3.29876 3.78741 3.55150
# Velocity P-wave (km/s) = 5.93724 6.52224 6.23661
#
# Compressibility (1/GPa) = 0.02364673
#
# Stress axis : x y z
#
# Youngs Moduli (GPa) = 55.41162 44.11599 95.27808
#
# Poissons Ratio (x) = 0.34973 0.03385
# Poissons Ratio (y) = 0.43928 0.52390
# Poissons Ratio (z) = 0.01969 0.24258
#
# Static dielectric constant tensor:
#      x y z
#    x 1.724330 0.000000 0.032610 
#    y 0.000000 1.716850 0.000000 
#    z 0.032610 0.000000 1.764480 
# 
# From -- ./inp_files/25997.got.cif
#   From: 2010.05.17/outbox.cif.g08.bks.cpg/sg15_13_cif.got.tgz:25997.got - 2010.06.03 18:47:42.
