data_PCOD9288739
_publ_section_title
;
Structure prediction by ZEFSAII (Michael W. Deem and Ramdas Pophale) SiO2 
 PCOD9288739
Probable space group: C 2/C
;
_chemical_formula_sum "Si O2"
_cell_formula_units_Z 36
_cell_length_a 14.139012
_cell_length_b 5.009317
_cell_length_c 26.235429
_cell_angle_alpha 90.000000
_cell_angle_beta 132.847202
_cell_angle_gamma 90.000000
_cell_volume 1362.355215
_symmetry_space_group_name_H-M "C 2/C"
_symmetry_group_IT_number 15
_symmetry_cell_setting 'monoclinic'
loop_
_space_group_symop_operation_xyz
x,y,z
-x,y,1/2-z
-x,-y,-z
x,-y,1/2+z
1/2+x,1/2+y,z
1/2-x,1/2+y,1/2-z
1/2-x,1/2-y,-z
1/2+x,1/2-y,1/2+z
loop_
_atom_site_type_symbol
_atom_site_label
_atom_site_fract_x
_atom_site_fract_y
_atom_site_fract_z
Si Si1 0.957068 0.910592 0.149332
Si Si2 0.000000 0.704171 0.750000
Si Si3 0.672204 0.932502 0.701944
Si Si4 0.169071 0.005197 0.490870
Si Si5 0.759774 0.250151 0.881750
O O1 0.814961 0.999035 0.118144
O O2 0.035411 0.088376 0.217767
O O3 0.957727 0.005344 0.090665
O O4 0.027860 0.624832 0.171672
O O5 0.862964 0.578157 0.684811
O O6 0.760530 0.710733 0.762184
O O7 0.667479 0.867648 0.639998
O O8 0.250000 0.250000 0.500000
O O9 0.164050 0.072154 0.549035
O O10 0.250000 0.750000 0.500000
#
# Coordination Sequence:
#
# PCOD9288739 Si02
#       5
#     8   4   8   8   8
#     4   9  20  40  63  94 128 171 218 271 335 393
#     4   8  16  38  66  92 122 180 210 272 334 386
#     4  12  24  41  66 101 134 172 230 284 336 403
#     4  10  22  39  64  91 131 176 220 271 337 407
#     4   9  20  40  63  94 128 171 218 271 335 393
#
# _framework density 26.424828000000002
#
# number of rings (size 3 to 8) (size 9 to 14) (size 15 to 20)
#    1.333    0.889    2.222    0.000    0.000   11.556 
#    0.000    2.222    0.000   13.333    0.000    0.000 
#    0.000    0.000    0.000    0.000    0.000    0.000 
#
# Total GULP energy -100261.260585 kJ/mol
# GULP energy per Si atom -5570.070032 kJ/mol
# Density = 2.636468 g / cm^3
# Si number density = 26.424828 Si / 1000 Ang^3
#
#
#
# Elastic Constant Matrix: (Units=GPa)
#
#
# Indices 1 2 3 4 5 6 
#
# 1 126.3564 24.8280 17.0867 0.0001 -19.5921 -0.0001
# 2 24.8280 89.8664 7.9091 0.0007 -6.7696 0.0017
# 3 17.0867 7.9091 144.7866 0.0005 -47.2821 -0.0001
# 4 0.0001 0.0007 0.0005 -0.1549 -0.0001 -21.1972
# 5 -19.5921 -6.7696 -47.2821 -0.0001 38.9076 0.0002
# 6 -0.0001 0.0017 -0.0001 -21.1972 0.0002 14.0386
#
#
#
# Elastic Compliance Matrix: (Units=1/GPa)
#
#
# Indices 1 2 3 4 5 6 
#
# 1 0.009024 -0.002177 0.000687 0.000000 0.005000 0.000000
# 2 -0.002177 0.011801 -0.000125 0.000001 0.000805 0.000000
# 3 0.000687 -0.000125 0.011504 0.000000 0.014304 0.000000
# 4 0.000000 0.000001 0.000000 -0.031093 0.000001 -0.046949
# 5 0.005000 0.000805 0.014304 0.000001 0.045742 0.000000
# 6 0.000000 0.000000 0.000000 -0.046949 0.000000 0.000343
#
#
# Mechanical properties :
#
#
# Convention : Reuss Voigt Hill
#
# Bulk Modulus (GPa) = 34.36573 51.18413 42.77493
# Shear Modulus (GPa) = 82.98752 31.30395 57.14573
#
# Velocity S-wave (km/s) = 5.61011 3.44560 4.65540
# Velocity P-wave (km/s) = 7.41605 5.93644 6.71711
#
# Compressibility (1/GPa) = 0.02909875
#
# Stress axis : x y z
#
# Youngs Moduli (GPa) = 110.81203 84.74056 86.92967
#
# Poissons Ratio (x) = 0.18448 -0.05970
# Poissons Ratio (y) = 0.24124 0.01084
# Poissons Ratio (z) = -0.07610 0.01057
#
# Static dielectric constant tensor:
#      x y z
#    x 2.214050 0.000000 0.051590 
#    y 0.000000 2.064780 0.000000 
#    z 0.051590 0.000000 2.337070 
# 
# From -- ./inp_files/311967.got.cif
#   From: 2010.05.17/outbox.cif.g08.bks.cpg/sg15_156_cif.got.tgz:311967.got - 2010.06.03 18:47:42.
