data_PCOD9288575
_publ_section_title
;
Structure prediction by ZEFSAII (Michael W. Deem and Ramdas Pophale) SiO2 
 PCOD9288575
Probable space group: C 2/C
;
_chemical_formula_sum "Si O2"
_cell_formula_units_Z 28
_cell_length_a 12.857971
_cell_length_b 17.894990
_cell_length_c 5.244618
_cell_angle_alpha 90.000000
_cell_angle_beta 58.900229
_cell_angle_gamma 90.000000
_cell_volume 1033.303880
_symmetry_space_group_name_H-M "C 2/C"
_symmetry_group_IT_number 15
_symmetry_cell_setting 'monoclinic'
loop_
_space_group_symop_operation_xyz
x,y,z
-x,y,1/2-z
-x,-y,-z
x,-y,1/2+z
1/2+x,1/2+y,z
1/2-x,1/2+y,1/2-z
1/2-x,1/2-y,-z
1/2+x,1/2-y,1/2+z
loop_
_atom_site_type_symbol
_atom_site_label
_atom_site_fract_x
_atom_site_fract_y
_atom_site_fract_z
Si Si1 0.679776 0.811832 0.414393
Si Si2 0.113556 0.173160 0.265037
Si Si3 0.643216 0.464021 0.053424
Si Si4 0.000000 0.445397 0.750000
O O1 0.750000 0.750000 0.500000
O O2 0.583652 0.756421 0.395512
O O3 0.612420 0.884963 0.607561
O O4 0.773626 0.830543 0.068872
O O5 0.143067 0.121310 0.468599
O O6 0.000000 0.143158 0.250000
O O7 0.500000 0.518476 0.750000
O O8 0.696952 0.509545 0.749821
O O9 0.000000 0.500000 0.500000
#
# Coordination Sequence:
#
# PCOD9288575 Si02
#       4
#     8   8   8   4
#     4  11  28  50  80 117 160 217 293 343 424 507
#     4  11  25  44  78 111 156 211 272 348 426 504
#     4  10  22  39  62 102 148 190 237 305 399 481
#     4  12  32  58  88 120 176 232 290 352 430 520
#
# _framework density 27.097543999999999
#
# number of rings (size 3 to 8) (size 9 to 14) (size 15 to 20)
#    0.000    1.143    0.000    4.286   20.000    2.286 
#    0.000    0.000    0.000    0.000    0.000    0.000 
#    0.000    0.000    0.000    0.000    0.000    0.000 
#
# Total GULP energy -78404.842860 kJ/mol
# GULP energy per Si atom -5600.345919 kJ/mol
# Density = 2.703587 g / cm^3
# Si number density = 27.097544 Si / 1000 Ang^3
#
#
#
# Elastic Constant Matrix: (Units=GPa)
#
#
# Indices 1 2 3 4 5 6 
#
# 1 89.5545 65.1830 37.2120 0.0000 -2.3240 0.0000
# 2 65.1830 266.6502 102.0590 0.0000 9.6348 0.0000
# 3 37.2120 102.0590 186.9168 0.0000 27.2878 0.0000
# 4 0.0000 0.0000 0.0000 74.8921 0.0000 6.2915
# 5 -2.3240 9.6348 27.2878 0.0000 42.6432 0.0000
# 6 0.0000 0.0000 0.0000 6.2915 0.0000 48.5806
#
#
#
# Elastic Compliance Matrix: (Units=1/GPa)
#
#
# Indices 1 2 3 4 5 6 
#
# 1 0.013994 -0.002916 -0.001545 0.000000 0.002411 0.000000
# 2 -0.002916 0.005365 -0.002370 0.000000 0.000145 0.000000
# 3 -0.001545 -0.002370 0.007595 0.000000 -0.004409 0.000000
# 4 0.000000 0.000000 0.000000 0.013499 0.000000 -0.001748
# 5 0.002411 0.000145 -0.004409 0.000000 0.026370 0.000000
# 6 0.000000 0.000000 0.000000 -0.001748 0.000000 0.020811
#
#
# Mechanical properties :
#
#
# Convention : Reuss Voigt Hill
#
# Bulk Modulus (GPa) = 75.24157 105.78105 90.51131
# Shear Modulus (GPa) = 47.29089 55.80101 51.54595
#
# Velocity S-wave (km/s) = 4.18210 4.54283 4.36620
# Velocity P-wave (km/s) = 7.15173 8.16323 7.67416
#
# Compressibility (1/GPa) = 0.01329053
#
# Stress axis : x y z
#
# Youngs Moduli (GPa) = 71.46000 186.39343 131.65901
#
# Poissons Ratio (x) = 0.54360 0.20347
# Poissons Ratio (y) = 0.20841 0.31203
# Poissons Ratio (z) = 0.11044 0.44175
#
# Static dielectric constant tensor:
#      x y z
#    x 2.274870 0.000000 0.037520 
#    y 0.000000 2.167830 0.000000 
#    z 0.037520 0.000000 2.089020 
# 
# From -- ./inp_files/6341.got.cif
#   From: 2010.05.17/outbox.cif.g08.bks.cpg/sg15_4_cif.got.tgz:6341.got - 2010.06.03 18:47:42.
