data_PCOD9288105
_publ_section_title
;
Structure prediction by ZEFSAII (Michael W. Deem and Ramdas Pophale) SiO2 
 PCOD9288105
Probable space group: C 2/C
;
_chemical_formula_sum "Si O2"
_cell_formula_units_Z 32
_cell_length_a 13.475184
_cell_length_b 7.519422
_cell_length_c 21.824807
_cell_angle_alpha 90.000000
_cell_angle_beta 142.840943
_cell_angle_gamma 90.000000
_cell_volume 1335.758409
_symmetry_space_group_name_H-M "C 2/C"
_symmetry_group_IT_number 15
_symmetry_cell_setting 'monoclinic'
loop_
_space_group_symop_operation_xyz
x,y,z
-x,y,1/2-z
-x,-y,-z
x,-y,1/2+z
1/2+x,1/2+y,z
1/2-x,1/2+y,1/2-z
1/2-x,1/2-y,-z
1/2+x,1/2-y,1/2+z
loop_
_atom_site_type_symbol
_atom_site_label
_atom_site_fract_x
_atom_site_fract_y
_atom_site_fract_z
Si Si1 0.447586 0.247272 0.292113
Si Si2 0.156674 0.997898 0.462695
Si Si3 0.306401 0.546818 0.817568
Si Si4 0.817288 0.729625 0.634055
O O1 0.500000 0.287764 0.250000
O O2 0.595120 0.303364 0.410250
O O3 0.308100 0.379608 0.249639
O O4 0.357174 0.061842 0.251477
O O5 0.203787 0.111369 0.425461
O O6 0.285021 0.049268 0.578274
O O7 0.978788 0.060194 0.404243
O O8 0.300662 0.704411 0.865107
O O9 0.000000 0.747467 0.750000
#
# Coordination Sequence:
#
# PCOD9288105 Si02
#       4
#     8   8   8   8
#     4  10  22  38  63  99 129 167 217 258 315 388
#     4   9  23  38  67  98 126 171 216 263 318 382
#     4  10  22  39  65  93 131 170 207 263 320 376
#     4  11  20  40  70  92 126 177 212 262 328 370
#
# _framework density 23.956429
#
# number of rings (size 3 to 8) (size 9 to 14) (size 15 to 20)
#    1.500    0.500    0.000    3.750    3.500    0.000 
#    0.000    5.000    0.000   10.500    0.000    0.000 
#    0.000    0.000    0.000    0.000    0.000    0.000 
#
# Total GULP energy -89094.162988 kJ/mol
# GULP energy per Si atom -5568.385187 kJ/mol
# Density = 2.390190 g / cm^3
# Si number density = 23.956429 Si / 1000 Ang^3
#
#
#
# Elastic Constant Matrix: (Units=GPa)
#
#
# Indices 1 2 3 4 5 6 
#
# 1 175.4644 31.3662 50.3710 0.0000 -36.4257 0.0000
# 2 31.3662 24.2260 -1.0296 0.0000 -5.8350 0.0000
# 3 50.3710 -1.0296 89.3461 0.0000 6.4640 0.0000
# 4 0.0000 0.0000 0.0000 30.4161 0.0000 -3.0485
# 5 -36.4257 -5.8350 6.4640 0.0000 29.0417 0.0000
# 6 0.0000 0.0000 0.0000 -3.0485 0.0000 36.0938
#
#
#
# Elastic Compliance Matrix: (Units=1/GPa)
#
#
# Indices 1 2 3 4 5 6 
#
# 1 0.015114 -0.015649 -0.010007 0.000000 0.018040 0.000000
# 2 -0.015649 0.059582 0.010228 0.000000 -0.009933 0.000000
# 3 -0.010007 0.010228 0.018001 0.000000 -0.014502 0.000000
# 4 0.000000 0.000000 0.000000 0.033158 0.000000 0.002801
# 5 0.018040 -0.009933 -0.014502 0.000000 0.058292 0.000000
# 6 0.000000 0.000000 0.000000 0.002801 0.000000 0.027942
#
#
# Mechanical properties :
#
#
# Convention : Reuss Voigt Hill
#
# Bulk Modulus (GPa) = 16.17048 50.05021 33.11034
# Shear Modulus (GPa) = 18.97109 32.99890 25.98500
#
# Velocity S-wave (km/s) = 2.81712 3.71543 3.29702
# Velocity P-wave (km/s) = 4.16488 6.27244 5.32399
#
# Compressibility (1/GPa) = 0.06184108
#
# Stress axis : x y z
#
# Youngs Moduli (GPa) = 66.16248 16.78371 55.55256
#
# Poissons Ratio (x) = 0.26265 0.55589
# Poissons Ratio (y) = 1.03539 -0.56818
# Poissons Ratio (z) = 0.66206 -0.17166
#
# Static dielectric constant tensor:
#      x y z
#    x 1.944790 0.000000 0.036970 
#    y 0.000000 2.051200 0.000000 
#    z 0.036970 0.000000 1.937020 
# 
# From -- ./inp_files/150074.got.cif
#   From: 2010.05.17/outbox.cif.g08.bks.cpg/sg15_76_cif.got.tgz:150074.got - 2010.06.03 18:47:42.
