data_PCOD9288279
_publ_section_title
;
Structure prediction by ZEFSAII (Michael W. Deem and Ramdas Pophale) SiO2 
 PCOD9288279
Probable space group: C 2/C
;
_chemical_formula_sum "Si O2"
_cell_formula_units_Z 60
_cell_length_a 21.004124
_cell_length_b 8.852623
_cell_length_c 23.281544
_cell_angle_alpha 90.000000
_cell_angle_beta 37.737449
_cell_angle_gamma 90.000000
_cell_volume 2649.543226
_symmetry_space_group_name_H-M "C 2/C"
_symmetry_group_IT_number 15
_symmetry_cell_setting 'monoclinic'
loop_
_space_group_symop_operation_xyz
x,y,z
-x,y,1/2-z
-x,-y,-z
x,-y,1/2+z
1/2+x,1/2+y,z
1/2-x,1/2+y,1/2-z
1/2-x,1/2-y,-z
1/2+x,1/2-y,1/2+z
loop_
_atom_site_type_symbol
_atom_site_label
_atom_site_fract_x
_atom_site_fract_y
_atom_site_fract_z
Si Si1 0.008931 0.260950 0.833296
Si Si2 0.323613 0.806476 0.877980
Si Si3 0.565628 0.417387 0.819176
Si Si4 0.288101 0.183854 0.133741
Si Si5 0.127483 0.373443 0.473380
Si Si6 0.493191 0.325938 0.989522
Si Si7 0.000000 0.756096 0.750000
Si Si8 0.213445 0.362916 0.075797
O O1 0.106103 0.329941 0.729298
O O2 0.909555 0.245233 0.861314
O O3 0.040703 0.095958 0.834951
O O4 0.965095 0.366561 0.914560
O O5 0.231767 0.693648 0.927163
O O6 0.267390 0.958911 0.940452
O O7 0.687527 0.374873 0.739809
O O8 0.501015 0.330268 0.914469
O O9 0.537244 0.358789 0.775962
O O10 0.250815 0.294869 0.109523
O O11 0.343519 0.038686 0.067077
O O12 0.384449 0.268571 0.093487
O O13 0.086465 0.270398 0.450279
O O14 0.500000 0.500000 0.000000
O O15 0.910063 0.650105 0.836801
O O16 0.250000 0.250000 0.000000
#
# Coordination Sequence:
#
# PCOD9288279 Si02
#       8
#     8   8   8   8   8   8   4   8
#     4  11  23  42  72 101 148 182 247 296 368 433
#     4  11  24  42  70 110 138 193 239 299 366 441
#     4  11  24  45  73 104 143 191 237 310 368 442
#     4  11  26  45  67 106 138 189 245 297 367 441
#     4  12  25  44  72 104 142 188 246 304 364 441
#     4  12  26  47  72 101 144 192 248 301 375 446
#     4  10  22  38  66  98 138 178 226 292 358 424
#     4  11  23  40  66 103 146 181 233 291 363 429
#
# _framework density 22.645413999999999
#
# number of rings (size 3 to 8) (size 9 to 14) (size 15 to 20)
#    0.000    0.800    2.667    4.800    3.733    4.267 
#    0.000    0.000    0.000    0.000    0.000    0.000 
#    0.000    0.000    0.000    0.000    0.000    0.000 
#
# Total GULP energy -167796.560634 kJ/mol
# GULP energy per Si atom -5593.218688 kJ/mol
# Density = 2.259387 g / cm^3
# Si number density = 22.645414 Si / 1000 Ang^3
#
#
#
# Elastic Constant Matrix: (Units=GPa)
#
#
# Indices 1 2 3 4 5 6 
#
# 1 62.5243 20.2825 2.9239 0.0000 -7.5227 0.0001
# 2 20.2825 101.5158 -0.0477 -0.0001 -18.2221 0.0008
# 3 2.9239 -0.0477 74.5695 0.0000 1.3925 0.0002
# 4 0.0000 -0.0001 0.0000 36.5773 0.0000 -4.1244
# 5 -7.5227 -18.2221 1.3925 0.0000 35.5813 -0.0001
# 6 0.0001 0.0008 0.0002 -4.1244 -0.0001 35.9201
#
#
#
# Elastic Compliance Matrix: (Units=1/GPa)
#
#
# Indices 1 2 3 4 5 6 
#
# 1 0.017278 -0.003074 -0.000719 0.000000 0.002107 0.000000
# 2 -0.003074 0.011396 0.000031 0.000000 0.005185 0.000000
# 3 -0.000719 0.000031 0.013451 0.000000 -0.000663 0.000000
# 4 0.000000 0.000000 0.000000 0.027698 0.000000 0.003180
# 5 0.002107 0.005185 -0.000663 0.000000 0.031231 0.000000
# 6 0.000000 0.000000 0.000000 0.003180 0.000000 0.028205
#
#
# Mechanical properties :
#
#
# Convention : Reuss Voigt Hill
#
# Bulk Modulus (GPa) = 28.90132 31.65854 30.27993
# Shear Modulus (GPa) = 33.71175 35.97914 34.84544
#
# Velocity S-wave (km/s) = 3.86253 3.99031 3.92694
# Velocity P-wave (km/s) = 5.71685 5.93637 5.82765
#
# Compressibility (1/GPa) = 0.03460049
#
# Stress axis : x y z
#
# Youngs Moduli (GPa) = 57.87660 87.75314 74.34454
#
# Poissons Ratio (x) = 0.26978 0.05344
# Poissons Ratio (y) = 0.17793 -0.00231
# Poissons Ratio (z) = 0.04160 -0.00272
#
# Static dielectric constant tensor:
#      x y z
#    x 1.862760 0.000000 -0.006440 
#    y 0.000000 1.814670 0.000000 
#    z -0.006440 0.000000 1.854030 
# 
# From -- ./inp_files/279690.got.cif
#   From: 2010.05.17/outbox.cif.g08.bks.cpg/sg15_140_cif.got.tgz:279690.got - 2010.06.03 18:47:42.
