data_PCOD9288555
_publ_section_title
;
Structure prediction by ZEFSAII (Michael W. Deem and Ramdas Pophale) SiO2 
 PCOD9288555
Probable space group: C 2/C
;
_chemical_formula_sum "Si O2"
_cell_formula_units_Z 32
_cell_length_a 23.225209
_cell_length_b 12.315258
_cell_length_c 5.264060
_cell_angle_alpha 90.000000
_cell_angle_beta 106.365325
_cell_angle_gamma 90.000000
_cell_volume 1444.647919
_symmetry_space_group_name_H-M "C 2/C"
_symmetry_group_IT_number 15
_symmetry_cell_setting 'monoclinic'
loop_
_space_group_symop_operation_xyz
x,y,z
-x,y,1/2-z
-x,-y,-z
x,-y,1/2+z
1/2+x,1/2+y,z
1/2-x,1/2+y,1/2-z
1/2-x,1/2-y,-z
1/2+x,1/2-y,1/2+z
loop_
_atom_site_type_symbol
_atom_site_label
_atom_site_fract_x
_atom_site_fract_y
_atom_site_fract_z
Si Si1 0.398252 0.746779 0.649268
Si Si2 0.500000 0.074229 0.250000
Si Si3 0.500000 0.426439 0.250000
Si Si4 0.666219 0.434319 0.131057
Si Si5 0.274959 0.807359 0.280235
O O1 0.442349 0.848793 0.731083
O O2 0.444009 0.652615 0.627118
O O3 0.364910 0.681643 0.840470
O O4 0.345743 0.789865 0.398426
O O5 0.500000 0.000000 0.500000
O O6 0.500000 0.500000 0.500000
O O7 0.650024 0.516802 0.338637
O O8 0.738769 0.420265 0.232088
O O9 0.250000 0.750000 0.500000
O O10 0.250000 0.750000 0.000000
#
# Coordination Sequence:
#
# PCOD9288555 Si02
#       5
#     8   4   4   8   8
#     4  10  24  44  68  95 135 174 217 274 331 388
#     4  11  28  47  68  94 126 177 236 277 318 382
#     4  11  24  41  66 100 132 171 216 271 332 392
#     4  11  22  38  64 100 132 165 208 262 329 400
#     4  10  22  39  61  92 131 175 212 257 319 388
#
# _framework density 22.150722999999999
#
# number of rings (size 3 to 8) (size 9 to 14) (size 15 to 20)
#    0.000    1.500    0.000    4.500    0.000   16.000 
#    0.000    0.000    0.000    0.000    0.000    0.000 
#    0.000    0.000    0.000    0.000    0.000    0.000 
#
# Total GULP energy -89168.996623 kJ/mol
# GULP energy per Si atom -5573.062289 kJ/mol
# Density = 2.210031 g / cm^3
# Si number density = 22.150723 Si / 1000 Ang^3
#
#
#
# Elastic Constant Matrix: (Units=GPa)
#
#
# Indices 1 2 3 4 5 6 
#
# 1 144.0674 76.9715 71.0985 0.0000 32.9929 0.0000
# 2 76.9715 137.3638 80.8890 0.0000 7.2173 0.0000
# 3 71.0985 80.8890 166.7156 0.0000 -3.9544 0.0000
# 4 0.0000 0.0000 0.0000 34.4439 0.0000 2.6210
# 5 32.9929 7.2173 -3.9544 0.0000 46.3892 0.0000
# 6 0.0000 0.0000 0.0000 2.6210 0.0000 57.1030
#
#
#
# Elastic Compliance Matrix: (Units=1/GPa)
#
#
# Indices 1 2 3 4 5 6 
#
# 1 0.013407 -0.004960 -0.003526 0.000000 -0.009064 0.000000
# 2 -0.004960 0.012218 -0.003782 0.000000 0.001304 0.000000
# 3 -0.003526 -0.003782 0.009429 0.000000 0.003900 0.000000
# 4 0.000000 0.000000 0.000000 0.029134 0.000000 -0.001337
# 5 -0.009064 0.001304 0.003900 0.000000 0.028133 0.000000
# 6 0.000000 0.000000 0.000000 -0.001337 0.000000 0.017574
#
#
# Mechanical properties :
#
#
# Convention : Reuss Voigt Hill
#
# Bulk Modulus (GPa) = 95.07037 100.67385 97.87211
# Shear Modulus (GPa) = 36.24838 42.19973 39.22405
#
# Velocity S-wave (km/s) = 4.04968 4.36950 4.21263
# Velocity P-wave (km/s) = 8.05478 8.42644 8.24271
#
# Compressibility (1/GPa) = 0.01051852
#
# Stress axis : x y z
#
# Youngs Moduli (GPa) = 74.58670 81.84888 106.05151
#
# Poissons Ratio (x) = 0.40597 0.37396
# Poissons Ratio (y) = 0.36995 0.40105
# Poissons Ratio (z) = 0.26301 0.30953
#
# Static dielectric constant tensor:
#      x y z
#    x 1.971700 0.000000 0.013800 
#    y 0.000000 1.835470 0.000000 
#    z 0.013800 0.000000 1.772690 
# 
# From -- ./inp_files/14843.got.cif
#   From: 2010.05.17/outbox.cif.g08.bks.cpg/sg15_8_cif.got.tgz:14843.got - 2010.06.03 18:47:42.
