data_PCOD9288629
_publ_section_title
;
Structure prediction by ZEFSAII (Michael W. Deem and Ramdas Pophale) SiO2 
 PCOD9288629
Probable space group: C 2/C
;
_chemical_formula_sum "Si O2"
_cell_formula_units_Z 64
_cell_length_a 9.323400
_cell_length_b 17.311002
_cell_length_c 29.099377
_cell_angle_alpha 90.000000
_cell_angle_beta 143.272641
_cell_angle_gamma 90.000000
_cell_volume 2808.582323
_symmetry_space_group_name_H-M "C 2/C"
_symmetry_group_IT_number 15
_symmetry_cell_setting 'monoclinic'
loop_
_space_group_symop_operation_xyz
x,y,z
-x,y,1/2-z
-x,-y,-z
x,-y,1/2+z
1/2+x,1/2+y,z
1/2-x,1/2+y,1/2-z
1/2-x,1/2-y,-z
1/2+x,1/2-y,1/2+z
loop_
_atom_site_type_symbol
_atom_site_label
_atom_site_fract_x
_atom_site_fract_y
_atom_site_fract_z
Si Si1 0.289516 0.644263 0.925108
Si Si2 0.276492 0.705839 0.820410
Si Si3 0.276715 0.391803 0.834396
Si Si4 0.065501 0.872334 0.318348
Si Si5 0.796464 0.312895 0.552428
Si Si6 0.851570 0.527267 0.106842
Si Si7 0.589776 0.541967 0.226256
Si Si8 0.488048 0.229635 0.913545
O O1 0.312445 0.656210 0.876398
O O2 0.256224 0.556157 0.931979
O O3 0.058330 0.688192 0.883852
O O4 0.531774 0.684101 0.006554
O O5 0.357326 0.652046 0.799536
O O6 0.460847 0.777813 0.864118
O O7 0.000000 0.728822 0.750000
O O8 0.287879 0.444067 0.882981
O O9 0.419772 0.415811 0.825230
O O10 0.344738 0.306116 0.865677
O O11 0.000000 0.393822 0.750000
O O12 0.314661 0.830338 0.395587
O O13 0.000000 0.846708 0.250000
O O14 0.070425 0.964703 0.318979
O O15 0.750000 0.250000 0.500000
O O16 0.838981 0.406259 0.564039
O O17 0.131533 0.519498 0.193032
O O18 0.500000 0.582904 0.250000
O O19 0.750000 0.250000 0.000000
#
# Coordination Sequence:
#
# PCOD9288629 Si02
#       8
#     8   8   8   8   8   8   8   8
#     4  11  23  41  66  94 126 168 215 263 318 384
#     4  11  22  39  64  94 126 166 214 265 318 380
#     4  10  23  42  66  93 127 169 215 263 322 390
#     4  11  22  41  65  94 130 168 212 268 326 384
#     4  10  24  41  61  94 131 165 210 267 322 378
#     4  11  21  40  67  93 124 168 216 264 317 386
#     4  10  22  39  62  95 128 163 213 272 323 374
#     4  12  25  43  65  95 133 175 216 264 327 392
#
# _framework density 22.787296999999999
#
# number of rings (size 3 to 8) (size 9 to 14) (size 15 to 20)
#    0.000    1.250    0.000    6.750    0.000    6.500 
#    0.000    0.625    0.000    0.000    0.000    0.000 
#    0.000    0.000    0.000    0.000    0.000    0.000 
#
# Total GULP energy -178563.122628 kJ/mol
# GULP energy per Si atom -5580.097582 kJ/mol
# Density = 2.273543 g / cm^3
# Si number density = 22.787297 Si / 1000 Ang^3
#
#
#
# Elastic Constant Matrix: (Units=GPa)
#
#
# Indices 1 2 3 4 5 6 
#
# 1 137.1980 26.5922 16.4150 0.0000 -13.1854 0.0001
# 2 26.5922 94.7207 12.3820 0.0001 -11.9249 0.0000
# 3 16.4150 12.3820 68.5376 0.0003 -0.3503 0.0000
# 4 0.0000 0.0001 0.0003 22.4970 0.0001 8.9357
# 5 -13.1854 -11.9249 -0.3503 0.0001 31.2016 0.0001
# 6 0.0001 0.0000 0.0000 8.9357 0.0001 32.9222
#
#
#
# Elastic Compliance Matrix: (Units=1/GPa)
#
#
# Indices 1 2 3 4 5 6 
#
# 1 0.008077 -0.001712 -0.001611 0.000000 0.002741 0.000000
# 2 -0.001712 0.011730 -0.001690 0.000000 0.003741 0.000000
# 3 -0.001611 -0.001690 0.015276 0.000000 -0.001155 0.000000
# 4 0.000000 0.000000 0.000000 0.049821 0.000000 -0.013522
# 5 0.002741 0.003741 -0.001155 0.000000 0.034624 0.000000
# 6 0.000000 0.000000 0.000000 -0.013522 0.000000 0.034045
#
#
# Mechanical properties :
#
#
# Convention : Reuss Voigt Hill
#
# Bulk Modulus (GPa) = 39.90996 45.69274 42.80135
# Shear Modulus (GPa) = 29.07805 33.66197 31.37001
#
# Velocity S-wave (km/s) = 3.57608 3.84764 3.71434
# Velocity P-wave (km/s) = 5.88245 6.31146 6.10073
#
# Compressibility (1/GPa) = 0.02505640
#
# Stress axis : x y z
#
# Youngs Moduli (GPa) = 123.81311 85.25310 65.46292
#
# Poissons Ratio (x) = 0.14594 0.10547
# Poissons Ratio (y) = 0.21195 0.11063
# Poissons Ratio (z) = 0.19948 0.14408
#
# Static dielectric constant tensor:
#      x y z
#    x 1.883620 0.000000 -0.047730 
#    y 0.000000 2.052640 0.000000 
#    z -0.047730 0.000000 1.926970 
# 
# From -- ./inp_files/308804.got.cif
#   From: 2010.05.17/outbox.cif.g08.bks.cpg/sg15_155_cif.got.tgz:308804.got - 2010.06.03 18:47:42.
