data_PCOD9288208
_publ_section_title
;
Structure prediction by ZEFSAII (Michael W. Deem and Ramdas Pophale) SiO2 
 PCOD9288208
Probable space group: C 2/C
;
_chemical_formula_sum "Si O2"
_cell_formula_units_Z 56
_cell_length_a 8.337915
_cell_length_b 27.567404
_cell_length_c 12.658912
_cell_angle_alpha 90.000000
_cell_angle_beta 58.104438
_cell_angle_gamma 90.000000
_cell_volume 2470.380549
_symmetry_space_group_name_H-M "C 2/C"
_symmetry_group_IT_number 15
_symmetry_cell_setting 'monoclinic'
loop_
_space_group_symop_operation_xyz
x,y,z
-x,y,1/2-z
-x,-y,-z
x,-y,1/2+z
1/2+x,1/2+y,z
1/2-x,1/2+y,1/2-z
1/2-x,1/2-y,-z
1/2+x,1/2-y,1/2+z
loop_
_atom_site_type_symbol
_atom_site_label
_atom_site_fract_x
_atom_site_fract_y
_atom_site_fract_z
Si Si1 0.824251 0.036395 0.050156
Si Si2 0.223188 0.391964 0.406640
Si Si3 0.846586 0.448316 0.466757
Si Si4 0.269991 0.130917 0.828403
Si Si5 0.221004 0.258931 0.133531
Si Si6 0.022325 0.673411 0.368370
Si Si7 0.195329 0.914560 0.718632
O O1 0.832742 0.074459 0.951589
O O2 0.802234 0.064551 0.166294
O O3 0.648657 0.999907 0.091196
O O4 0.000000 0.000000 0.000000
O O5 0.304345 0.379528 0.263267
O O6 0.044781 0.425207 0.430214
O O7 0.154230 0.343402 0.495200
O O8 0.736124 0.409699 0.429860
O O9 0.734880 0.454671 0.615377
O O10 0.500000 0.131860 0.750000
O O11 0.214683 0.185574 0.873084
O O12 0.363569 0.221137 0.138206
O O13 0.000000 0.253712 0.250000
O O14 0.250000 0.250000 0.000000
O O15 0.153289 0.627114 0.342663
O O16 0.000000 0.675728 0.250000
O O17 0.000000 0.891650 0.750000
#
# Coordination Sequence:
#
# PCOD9288208 Si02
#       7
#     8   8   8   8   8   8   8
#     4  12  24  39  60  92 128 178 223 290 354 417
#     4  10  22  44  63  90 135 176 228 285 345 423
#     4  10  22  38  65  89 123 175 224 270 344 408
#     4   9  20  41  65  97 131 174 225 284 337 423
#     4  11  22  43  75 107 142 189 240 288 365 436
#     4  11  22  41  67  99 133 178 227 292 351 422
#     4  11  22  40  60  89 130 168 225 281 340 417
#
# _framework density 22.668574
#
# number of rings (size 3 to 8) (size 9 to 14) (size 15 to 20)
#    0.000    1.429    2.857    4.286    2.000    0.000 
#    7.714    4.286    0.000    0.000    0.000    0.000 
#    0.000    0.000    0.000    0.000    0.000    0.000 
#
# Total GULP energy -156391.388996 kJ/mol
# GULP energy per Si atom -5585.406750 kJ/mol
# Density = 2.261698 g / cm^3
# Si number density = 22.668574 Si / 1000 Ang^3
#
#
#
# Elastic Constant Matrix: (Units=GPa)
#
#
# Indices 1 2 3 4 5 6 
#
# 1 72.6911 33.5876 46.3660 0.0000 33.9963 0.0000
# 2 33.5876 133.5901 61.9925 0.0000 21.7822 0.0000
# 3 46.3660 61.9925 152.0858 0.0000 40.7719 0.0000
# 4 0.0000 0.0000 0.0000 19.2093 0.0000 33.2239
# 5 33.9963 21.7822 40.7719 0.0000 41.5392 0.0000
# 6 0.0000 0.0000 0.0000 33.2239 0.0000 -16.8987
#
#
#
# Elastic Compliance Matrix: (Units=1/GPa)
#
#
# Indices 1 2 3 4 5 6 
#
# 1 0.023683 -0.002436 -0.001864 0.000000 -0.016276 0.000000
# 2 -0.002436 0.009557 -0.003181 0.000000 0.000104 0.000000
# 3 -0.001864 -0.003181 0.010292 0.000000 -0.006908 0.000000
# 4 0.000000 0.000000 0.000000 0.011830 0.000000 0.023259
# 5 -0.016276 0.000104 -0.006908 0.000000 0.044120 0.000000
# 6 0.000000 0.000000 0.000000 0.023259 0.000000 -0.013448
#
#
# Mechanical properties :
#
#
# Convention : Reuss Voigt Hill
#
# Bulk Modulus (GPa) = 35.00053 71.36214 53.18133
# Shear Modulus (GPa) = 45.24054 23.19802 34.21928
#
# Velocity S-wave (km/s) = 4.47222 3.20246 3.88950
# Velocity P-wave (km/s) = 6.49163 6.72483 6.60926
#
# Compressibility (1/GPa) = 0.02857100
#
# Stress axis : x y z
#
# Youngs Moduli (GPa) = 42.22407 104.63393 97.16087
#
# Poissons Ratio (x) = 0.25485 0.18112
# Poissons Ratio (y) = 0.10284 0.30907
# Poissons Ratio (z) = 0.07871 0.33284
#
# Static dielectric constant tensor:
#      x y z
#    x 1.849300 0.000000 0.032420 
#    y 0.000000 1.983160 0.000000 
#    z 0.032420 0.000000 1.813930 
# 
# From -- ./inp_files/81287.got.cif
#   From: 2010.05.17/outbox.cif.g08.bks.cpg/sg15_41_cif.got.tgz:81287.got - 2010.06.03 18:47:42.
