data_PCOD9288987
_publ_section_title
;
Structure prediction by ZEFSAII (Michael W. Deem and Ramdas Pophale) SiO2 
 PCOD9288987
Probable space group: C 2/C
;
_chemical_formula_sum "Si O2"
_cell_formula_units_Z 40
_cell_length_a 13.576532
_cell_length_b 4.784535
_cell_length_c 22.725090
_cell_angle_alpha 90.000000
_cell_angle_beta 84.150961
_cell_angle_gamma 90.000000
_cell_volume 1468.477469
_symmetry_space_group_name_H-M "C 2/C"
_symmetry_group_IT_number 15
_symmetry_cell_setting 'monoclinic'
loop_
_space_group_symop_operation_xyz
x,y,z
-x,y,1/2-z
-x,-y,-z
x,-y,1/2+z
1/2+x,1/2+y,z
1/2-x,1/2+y,1/2-z
1/2-x,1/2-y,-z
1/2+x,1/2-y,1/2+z
loop_
_atom_site_type_symbol
_atom_site_label
_atom_site_fract_x
_atom_site_fract_y
_atom_site_fract_z
Si Si1 0.316923 0.280031 0.734250
Si Si2 0.991478 0.188418 0.943191
Si Si3 0.171558 0.521356 0.478939
Si Si4 0.621524 0.430982 0.651512
Si Si5 0.742032 0.577393 0.380981
O O1 0.396045 0.327427 0.781273
O O2 0.337017 0.385885 0.667188
O O3 0.277389 0.964980 0.737388
O O4 0.292559 0.226026 0.878767
O O5 0.905012 0.409836 0.965910
O O6 0.098336 0.333014 0.935416
O O7 0.961746 0.988062 0.891687
O O8 0.000000 0.000000 0.000000
O O9 0.250000 0.750000 0.500000
O O10 0.331123 0.263475 0.348943
O O11 0.287763 0.252884 0.558103
#
# Coordination Sequence:
#
# PCOD9288987 Si02
#       5
#     8   8   8   8   8
#     4   8  16  36  62 104 132 176 244 298 360 430
#     4  11  27  46  69 108 150 194 244 305 368 442
#     4  11  27  48  70 109 151 198 249 299 374 452
#     4  10  22  39  70 106 139 188 243 307 361 433
#     4  10  22  39  71 105 138 191 244 303 363 441
#
# _framework density 27.239097999999998
#
# number of rings (size 3 to 8) (size 9 to 14) (size 15 to 20)
#    0.000    2.000    0.000    1.200   11.200    2.400 
#    0.000    0.000    0.000    1.200   46.800    0.000 
#    0.000    0.000    0.000    0.000    0.000    0.000 
#
# Total GULP energy -111792.189428 kJ/mol
# GULP energy per Si atom -5589.609471 kJ/mol
# Density = 2.717710 g / cm^3
# Si number density = 27.239098 Si / 1000 Ang^3
#
#
#
# Elastic Constant Matrix: (Units=GPa)
#
#
# Indices 1 2 3 4 5 6 
#
# 1 166.3871 56.3350 65.7250 0.0000 15.1713 0.0000
# 2 56.3350 154.4091 49.9606 0.0000 16.5402 0.0000
# 3 65.7250 49.9606 228.8772 0.0000 45.1384 0.0000
# 4 0.0000 0.0000 0.0000 58.7063 0.0000 14.4332
# 5 15.1713 16.5402 45.1384 0.0000 34.7841 0.0000
# 6 0.0000 0.0000 0.0000 14.4332 0.0000 34.7483
#
#
#
# Elastic Compliance Matrix: (Units=1/GPa)
#
#
# Indices 1 2 3 4 5 6 
#
# 1 0.007395 -0.002160 -0.001638 0.000000 -0.000073 0.000000
# 2 -0.002160 0.007685 -0.000702 0.000000 -0.001801 0.000000
# 3 -0.001638 -0.000702 0.006432 0.000000 -0.007299 0.000000
# 4 0.000000 0.000000 0.000000 0.018971 0.000000 -0.007880
# 5 -0.000073 -0.001801 -0.007299 0.000000 0.039108 0.000000
# 6 0.000000 0.000000 0.000000 -0.007880 0.000000 0.032051
#
#
# Mechanical properties :
#
#
# Convention : Reuss Voigt Hill
#
# Bulk Modulus (GPa) = 79.92323 99.30164 89.61243
# Shear Modulus (GPa) = 40.05995 50.82459 45.44227
#
# Velocity S-wave (km/s) = 3.83910 4.32426 4.08888
# Velocity P-wave (km/s) = 7.00405 7.84009 7.43383
#
# Compressibility (1/GPa) = 0.01251201
#
# Stress axis : x y z
#
# Youngs Moduli (GPa) = 135.22540 130.13199 155.47157
#
# Poissons Ratio (x) = 0.28113 0.25460
# Poissons Ratio (y) = 0.29213 0.10912
# Poissons Ratio (z) = 0.22145 0.09133
#
# Static dielectric constant tensor:
#      x y z
#    x 2.196020 0.000000 0.108490 
#    y 0.000000 2.154550 0.000000 
#    z 0.108490 0.000000 2.359840 
# 
# From -- ./inp_files/241796.got.cif
#   From: 2010.05.17/outbox.cif.g08.bks.cpg/sg15_121_cif.got.tgz:241796.got - 2010.06.03 18:47:42.
