data_PCOD9288431
_publ_section_title
;
Structure prediction by ZEFSAII (Michael W. Deem and Ramdas Pophale) SiO2 
 PCOD9288431
Probable space group: C 2/C
;
_chemical_formula_sum "Si O2"
_cell_formula_units_Z 48
_cell_length_a 5.340691
_cell_length_b 26.087028
_cell_length_c 19.074565
_cell_angle_alpha 90.000000
_cell_angle_beta 67.048891
_cell_angle_gamma 90.000000
_cell_volume 2447.146106
_symmetry_space_group_name_H-M "C 2/C"
_symmetry_group_IT_number 15
_symmetry_cell_setting 'monoclinic'
loop_
_space_group_symop_operation_xyz
x,y,z
-x,y,1/2-z
-x,-y,-z
x,-y,1/2+z
1/2+x,1/2+y,z
1/2-x,1/2+y,1/2-z
1/2-x,1/2-y,-z
1/2+x,1/2-y,1/2+z
loop_
_atom_site_type_symbol
_atom_site_label
_atom_site_fract_x
_atom_site_fract_y
_atom_site_fract_z
Si Si1 0.697675 0.975549 0.036090
Si Si2 0.567811 0.378133 0.547923
Si Si3 0.587890 0.949082 0.660080
Si Si4 0.251153 0.646338 0.330127
Si Si5 0.326890 0.253651 0.201496
Si Si6 0.035497 0.221118 0.970158
O O1 0.591450 0.996123 0.122201
O O2 0.726481 0.915946 0.014863
O O3 0.500000 0.000000 0.000000
O O4 0.000000 0.000000 0.000000
O O5 0.360522 0.416897 0.610841
O O6 0.674243 0.342333 0.598698
O O7 0.468209 0.336718 0.503180
O O8 0.500000 0.952764 0.750000
O O9 0.373719 0.909738 0.651080
O O10 0.500000 0.642278 0.250000
O O11 0.078892 0.694006 0.320352
O O12 0.500000 0.272821 0.250000
O O13 0.366394 0.279877 0.121642
O O14 0.000000 0.253233 0.250000
O O15 0.250000 0.250000 0.000000
O O16 0.750000 0.250000 0.000000
#
# Coordination Sequence:
#
# PCOD9288431 Si02
#       6
#     8   8   8   8   8   8
#     4  10  22  39  59  85 123 159 195 244 308 372
#     4  11  23  39  60  92 126 163 208 264 315 376
#     4  11  21  36  60  91 123 157 201 257 320 377
#     4  11  20  32  61  91 125 155 199 264 324 369
#     4  11  24  41  60  89 130 168 209 260 320 382
#     4  12  25  41  64  95 128 170 218 264 324 386
#
# _framework density 19.614685000000001
#
# number of rings (size 3 to 8) (size 9 to 14) (size 15 to 20)
#    0.000    1.000    5.000    2.500    4.667    0.000 
#    0.000    0.833    0.000    0.000    0.000    0.000 
#    0.000    0.000    0.000    0.000    0.000    0.000 
#
# Total GULP energy -133668.945692 kJ/mol
# GULP energy per Si atom -5569.539404 kJ/mol
# Density = 1.957004 g / cm^3
# Si number density = 19.614685 Si / 1000 Ang^3
#
#
#
# Elastic Constant Matrix: (Units=GPa)
#
#
# Indices 1 2 3 4 5 6 
#
# 1 97.4261 16.2192 38.5936 0.0000 14.5408 0.0000
# 2 16.2192 73.5729 53.4671 0.0000 9.5737 0.0000
# 3 38.5936 53.4671 154.6838 0.0000 11.8159 0.0000
# 4 0.0000 0.0000 0.0000 25.7771 0.0000 2.6454
# 5 14.5408 9.5737 11.8159 0.0000 26.6399 0.0000
# 6 0.0000 0.0000 0.0000 2.6454 0.0000 27.1224
#
#
#
# Elastic Compliance Matrix: (Units=1/GPa)
#
#
# Indices 1 2 3 4 5 6 
#
# 1 0.012111 -0.000091 -0.002575 0.000000 -0.005435 0.000000
# 2 -0.000091 0.018546 -0.006089 0.000000 -0.003915 0.000000
# 3 -0.002575 -0.006089 0.009251 0.000000 -0.000510 0.000000
# 4 0.000000 0.000000 0.000000 0.039186 0.000000 -0.003822
# 5 -0.005435 -0.003915 -0.000510 0.000000 0.042137 0.000000
# 6 0.000000 0.000000 0.000000 -0.003822 0.000000 0.037243
#
#
# Mechanical properties :
#
#
# Convention : Reuss Voigt Hill
#
# Bulk Modulus (GPa) = 44.64722 60.24917 52.44820
# Shear Modulus (GPa) = 27.25540 30.40141 28.82840
#
# Velocity S-wave (km/s) = 3.73170 3.94119 3.83787
# Velocity P-wave (km/s) = 6.43265 7.17591 6.81442
#
# Compressibility (1/GPa) = 0.02239781
#
# Stress axis : x y z
#
# Youngs Moduli (GPa) = 82.57230 53.91895 108.09916
#
# Poissons Ratio (x) = 0.00492 0.27834
# Poissons Ratio (y) = 0.00754 0.65820
# Poissons Ratio (z) = 0.21261 0.32830
#
# Static dielectric constant tensor:
#      x y z
#    x 1.765980 0.000000 -0.007720 
#    y 0.000000 1.702030 0.000000 
#    z -0.007720 0.000000 1.760790 
# 
# From -- ./inp_files/185464.got.cif
#   From: 2010.05.17/outbox.cif.g08.bks.cpg/sg15_93_cif.got.tgz:185464.got - 2010.06.03 18:47:42.
