data_PCOD9288916
_publ_section_title
;
Structure prediction by ZEFSAII (Michael W. Deem and Ramdas Pophale) SiO2 
 PCOD9288916
Probable space group: C 2/C
;
_chemical_formula_sum "Si O2"
_cell_formula_units_Z 56
_cell_length_a 13.582437
_cell_length_b 14.618654
_cell_length_c 15.016077
_cell_angle_alpha 90.000000
_cell_angle_beta 121.843382
_cell_angle_gamma 90.000000
_cell_volume 2532.804172
_symmetry_space_group_name_H-M "C 2/C"
_symmetry_group_IT_number 15
_symmetry_cell_setting 'monoclinic'
loop_
_space_group_symop_operation_xyz
x,y,z
-x,y,1/2-z
-x,-y,-z
x,-y,1/2+z
1/2+x,1/2+y,z
1/2-x,1/2+y,1/2-z
1/2-x,1/2-y,-z
1/2+x,1/2-y,1/2+z
loop_
_atom_site_type_symbol
_atom_site_label
_atom_site_fract_x
_atom_site_fract_y
_atom_site_fract_z
Si Si1 0.337150 0.621632 0.715851
Si Si2 0.781216 0.963428 0.015567
Si Si3 0.502957 0.396630 0.465689
Si Si4 0.987105 0.414470 0.594190
Si Si5 0.000000 0.272425 0.750000
Si Si6 0.570689 0.886495 0.131888
Si Si7 0.343580 0.331111 0.539484
Si Si8 0.000000 0.755444 0.750000
O O1 0.332855 0.542292 0.640272
O O2 0.388281 0.708457 0.688299
O O3 0.205918 0.634168 0.683478
O O4 0.422679 0.607857 0.839641
O O5 0.861216 0.894316 0.995958
O O6 0.786057 0.070308 0.992487
O O7 0.648900 0.933174 0.954727
O O8 0.500000 0.500000 0.500000
O O9 0.445385 0.330777 0.512165
O O10 0.022139 0.333490 0.674879
O O11 0.996698 0.387100 0.495070
O O12 0.055139 0.507048 0.651319
O O13 0.526679 0.814079 0.182110
O O14 0.250000 0.250000 0.500000
O O15 0.402487 0.321661 0.663987
#
# Coordination Sequence:
#
# PCOD9288916 Si02
#       8
#     8   8   8   8   4   8   8   4
#     4  11  23  44  69 100 135 178 224 297 347 416
#     4  10  22  45  69  93 141 179 231 277 359 418
#     4  10  22  39  67  94 135 183 227 277 348 420
#     4  10  24  45  72  98 132 191 224 287 347 427
#     4  12  25  41  76 104 140 164 244 297 347 408
#     4  10  24  47  67  96 140 183 231 274 360 422
#     4  11  25  41  65 101 136 182 233 291 341 422
#     4  12  25  39  68  96 140 172 226 293 341 412
#
# _framework density 22.109881999999999
#
# number of rings (size 3 to 8) (size 9 to 14) (size 15 to 20)
#    0.000    1.429    1.429    2.143    6.000    6.857 
#    7.714    0.000    0.000    0.000    0.000    0.000 
#    0.000    0.000    0.000    0.000    0.000    0.000 
#
# Total GULP energy -156315.803357 kJ/mol
# GULP energy per Si atom -5582.707263 kJ/mol
# Density = 2.205956 g / cm^3
# Si number density = 22.109882 Si / 1000 Ang^3
#
#
#
# Elastic Constant Matrix: (Units=GPa)
#
#
# Indices 1 2 3 4 5 6 
#
# 1 97.0451 46.7879 0.0166 0.0000 -5.5286 0.0000
# 2 46.7879 94.9394 7.3727 0.0000 0.4109 0.0000
# 3 0.0166 7.3727 26.6157 0.0000 3.2067 0.0000
# 4 0.0000 0.0000 0.0000 36.6997 0.0000 -8.3117
# 5 -5.5286 0.4109 3.2067 0.0000 27.2610 0.0000
# 6 0.0000 0.0000 0.0000 -8.3117 0.0000 48.9413
#
#
#
# Elastic Compliance Matrix: (Units=1/GPa)
#
#
# Indices 1 2 3 4 5 6 
#
# 1 0.013804 -0.006938 0.001586 0.000000 0.002717 0.000000
# 2 -0.006938 0.014252 -0.003802 0.000000 -0.001175 0.000000
# 3 0.001586 -0.003802 0.039133 0.000000 -0.004224 0.000000
# 4 0.000000 0.000000 0.000000 0.028338 0.000000 0.004813
# 5 0.002717 -0.001175 -0.004224 0.000000 0.037748 0.000000
# 6 0.000000 0.000000 0.000000 0.004813 0.000000 0.021250
#
#
# Mechanical properties :
#
#
# Convention : Reuss Voigt Hill
#
# Bulk Modulus (GPa) = 20.45784 36.32829 28.39307
# Shear Modulus (GPa) = 26.43720 33.54193 29.98957
#
# Velocity S-wave (km/s) = 3.46167 3.89917 3.68691
# Velocity P-wave (km/s) = 5.02498 6.06117 5.56723
#
# Compressibility (1/GPa) = 0.04888102
#
# Stress axis : x y z
#
# Youngs Moduli (GPa) = 72.44340 70.16349 25.55390
#
# Poissons Ratio (x) = 0.48677 -0.04052
# Poissons Ratio (y) = 0.50259 0.09716
# Poissons Ratio (z) = -0.11488 0.26677
#
# Static dielectric constant tensor:
#      x y z
#    x 1.861420 0.000000 -0.008670 
#    y 0.000000 1.819450 0.000000 
#    z -0.008670 0.000000 1.788930 
# 
# From -- ./inp_files/205506.got.cif
#   From: 2010.05.17/outbox.cif.g08.bks.cpg/sg15_103_cif.got.tgz:205506.got - 2010.06.03 18:47:42.
