data_PCOD9288274
_publ_section_title
;
Structure prediction by ZEFSAII (Michael W. Deem and Ramdas Pophale) SiO2 
 PCOD9288274
Probable space group: C 2/C
;
_chemical_formula_sum "Si O2"
_cell_formula_units_Z 60
_cell_length_a 14.226138
_cell_length_b 14.699130
_cell_length_c 13.839356
_cell_angle_alpha 90.000000
_cell_angle_beta 68.192414
_cell_angle_gamma 90.000000
_cell_volume 2686.870931
_symmetry_space_group_name_H-M "C 2/C"
_symmetry_group_IT_number 15
_symmetry_cell_setting 'monoclinic'
loop_
_space_group_symop_operation_xyz
x,y,z
-x,y,1/2-z
-x,-y,-z
x,-y,1/2+z
1/2+x,1/2+y,z
1/2-x,1/2+y,1/2-z
1/2-x,1/2-y,-z
1/2+x,1/2-y,1/2+z
loop_
_atom_site_type_symbol
_atom_site_label
_atom_site_fract_x
_atom_site_fract_y
_atom_site_fract_z
Si Si1 0.546697 0.098156 0.015691
Si Si2 0.204924 0.463557 0.151234
Si Si3 0.091042 0.256552 0.035822
Si Si4 0.964794 0.045179 0.414382
Si Si5 0.679928 0.593186 0.279850
Si Si6 0.749074 0.493463 0.070538
Si Si7 0.000000 0.558324 0.250000
Si Si8 0.219105 0.272008 0.171642
O O1 0.519975 0.109935 0.140643
O O2 0.496534 0.178100 0.971658
O O3 0.500000 0.000000 0.000000
O O4 0.668588 0.087231 0.957793
O O5 0.275824 0.550692 0.140274
O O6 0.242463 0.374931 0.192513
O O7 0.095760 0.493435 0.226312
O O8 0.209098 0.446720 0.035194
O O9 0.068009 0.148771 0.049712
O O10 0.125957 0.278435 0.131725
O O11 0.185846 0.263812 0.926281
O O12 0.870908 0.987900 0.407336
O O13 0.065754 0.059042 0.312914
O O14 0.000000 0.000000 0.500000
O O15 0.748297 0.548187 0.170362
O O16 0.690415 0.700449 0.264176
#
# Coordination Sequence:
#
# PCOD9288274 Si02
#       8
#     8   8   8   8   8   8   4   8
#     4  11  23  40  69 102 141 178 219 284 353 409
#     4  11  22  41  65  99 138 176 222 279 343 408
#     4  11  22  41  68  99 128 176 227 285 345 401
#     4  12  24  45  69  94 135 186 230 284 337 406
#     4  12  24  39  69 100 132 179 231 276 342 406
#     4  11  22  43  65  96 135 179 221 281 342 403
#     4  10  22  38  66  96 144 182 220 274 354 418
#     4  11  21  38  67  98 133 167 227 287 335 401
#
# _framework density 22.330808000000001
#
# number of rings (size 3 to 8) (size 9 to 14) (size 15 to 20)
#    0.000    0.800    4.000    5.200    0.000    3.200 
#    0.000    0.667   11.733    0.000    0.000    0.000 
#    0.000    0.000    0.000    0.000    0.000    0.000 
#
# Total GULP energy -167559.003412 kJ/mol
# GULP energy per Si atom -5585.300114 kJ/mol
# Density = 2.227998 g / cm^3
# Si number density = 22.330808 Si / 1000 Ang^3
#
#
#
# Elastic Constant Matrix: (Units=GPa)
#
#
# Indices 1 2 3 4 5 6 
#
# 1 118.0860 44.0755 16.9763 0.0000 -22.0043 0.0000
# 2 44.0755 91.0322 23.4483 0.0000 3.4938 0.0000
# 3 16.9763 23.4483 89.6898 0.0000 -15.7071 0.0000
# 4 0.0000 0.0000 0.0000 8.2097 0.0000 -4.8766
# 5 -22.0043 3.4938 -15.7071 0.0000 40.0872 0.0000
# 6 0.0000 0.0000 0.0000 -4.8766 0.0000 39.1907
#
#
#
# Elastic Compliance Matrix: (Units=1/GPa)
#
#
# Indices 1 2 3 4 5 6 
#
# 1 0.012127 -0.006330 0.000668 0.000000 0.007470 0.000000
# 2 -0.006330 0.015301 -0.003913 0.000000 -0.006342 0.000000
# 3 0.000668 -0.003913 0.013067 0.000000 0.005827 0.000000
# 4 0.000000 0.000000 0.000000 0.131529 0.000000 0.016366
# 5 0.007470 -0.006342 0.005827 0.000000 0.031882 0.000000
# 6 0.000000 0.000000 0.000000 0.016366 0.000000 0.027553
#
#
# Mechanical properties :
#
#
# Convention : Reuss Voigt Hill
#
# Bulk Modulus (GPa) = 46.85031 51.97868 49.41450
# Shear Modulus (GPa) = 19.40053 31.78472 25.59262
#
# Velocity S-wave (km/s) = 2.95070 3.77683 3.38904
# Velocity P-wave (km/s) = 5.71266 6.50742 6.12295
#
# Compressibility (1/GPa) = 0.02134458
#
# Stress axis : x y z
#
# Youngs Moduli (GPa) = 82.45919 65.35358 76.53098
#
# Poissons Ratio (x) = 0.41371 -0.05111
# Poissons Ratio (y) = 0.52200 0.29944
# Poissons Ratio (z) = -0.05507 0.25571
#
# Static dielectric constant tensor:
#      x y z
#    x 1.865250 0.000000 -0.007380 
#    y 0.000000 1.866570 0.000000 
#    z -0.007380 0.000000 1.859770 
# 
# From -- ./inp_files/154251.got.cif
#   From: 2010.05.17/outbox.cif.g08.bks.cpg/sg15_78_cif.got.tgz:154251.got - 2010.06.03 18:47:42.
