data_PCOD9288960
_publ_section_title
;
Structure prediction by ZEFSAII (Michael W. Deem and Ramdas Pophale) SiO2 
 PCOD9288960
Probable space group: C 2/C
;
_chemical_formula_sum "Si O2"
_cell_formula_units_Z 40
_cell_length_a 25.222780
_cell_length_b 11.423429
_cell_length_c 11.630041
_cell_angle_alpha 90.000000
_cell_angle_beta 150.105246
_cell_angle_gamma 90.000000
_cell_volume 1670.152034
_symmetry_space_group_name_H-M "C 2/C"
_symmetry_group_IT_number 15
_symmetry_cell_setting 'monoclinic'
loop_
_space_group_symop_operation_xyz
x,y,z
-x,y,1/2-z
-x,-y,-z
x,-y,1/2+z
1/2+x,1/2+y,z
1/2-x,1/2+y,1/2-z
1/2-x,1/2-y,-z
1/2+x,1/2-y,1/2+z
loop_
_atom_site_type_symbol
_atom_site_label
_atom_site_fract_x
_atom_site_fract_y
_atom_site_fract_z
Si Si1 0.000000 0.876647 0.250000
Si Si2 0.000000 0.663920 0.750000
Si Si3 0.828718 0.701582 0.049395
Si Si4 0.871445 0.475624 0.818741
Si Si5 0.207046 0.994217 0.193699
Si Si6 0.834339 0.671822 0.599168
O O1 0.917272 0.789509 0.163226
O O2 0.084469 0.964845 0.471133
O O3 0.940282 0.578860 0.549250
O O4 0.917926 0.734442 0.673018
O O5 0.883838 0.601265 0.228319
O O6 0.750000 0.750000 0.000000
O O7 0.751634 0.634976 0.812436
O O8 0.753185 0.480079 0.652666
O O9 0.891855 0.604723 0.811168
O O10 0.270144 0.080335 0.399182
O O11 0.750000 0.750000 0.500000
#
# Coordination Sequence:
#
# PCOD9288960 Si02
#       6
#     4   4   8   8   8   8
#     4  12  26  49  85 108 150 216 243 309 406 430
#     4  10  22  39  69 100 134 190 245 293 372 444
#     4  11  25  47  77 107 155 201 252 316 384 451
#     4  10  22  44  67 106 147 182 250 314 360 461
#     4  10  25  45  71 112 146 191 266 304 363 480
#     4  10  23  41  65 100 148 185 240 316 371 437
#
# _framework density 23.949915000000001
#
# number of rings (size 3 to 8) (size 9 to 14) (size 15 to 20)
#    0.000    1.600    2.000    0.600    5.600    8.000 
#    0.000    2.000    0.000    0.000    0.000    0.000 
#    0.000    0.000    0.000    0.000    0.000    0.000 
#
# Total GULP energy -111547.249320 kJ/mol
# GULP energy per Si atom -5577.362466 kJ/mol
# Density = 2.389540 g / cm^3
# Si number density = 23.949915 Si / 1000 Ang^3
#
#
#
# Elastic Constant Matrix: (Units=GPa)
#
#
# Indices 1 2 3 4 5 6 
#
# 1 190.2708 58.5123 52.3831 0.0000 42.5241 0.0000
# 2 58.5123 55.1116 41.0636 0.0000 20.7399 0.0000
# 3 52.3831 41.0636 127.9145 0.0000 17.4274 0.0000
# 4 0.0000 0.0000 0.0000 34.2482 0.0000 6.4077
# 5 42.5241 20.7399 17.4274 0.0000 44.8769 0.0000
# 6 0.0000 0.0000 0.0000 6.4077 0.0000 34.6082
#
#
#
# Elastic Compliance Matrix: (Units=1/GPa)
#
#
# Indices 1 2 3 4 5 6 
#
# 1 0.008606 -0.006852 -0.000681 0.000000 -0.004724 0.000000
# 2 -0.006852 0.032828 -0.006916 0.000000 -0.005993 0.000000
# 3 -0.000681 -0.006916 0.010341 0.000000 -0.000174 0.000000
# 4 0.000000 0.000000 0.000000 0.030246 0.000000 -0.005600
# 5 -0.004724 -0.005993 -0.000174 0.000000 0.029596 0.000000
# 6 0.000000 0.000000 0.000000 -0.005600 0.000000 0.029932
#
#
# Mechanical properties :
#
#
# Convention : Reuss Voigt Hill
#
# Bulk Modulus (GPa) = 43.71296 75.24610 59.47953
# Shear Modulus (GPa) = 28.07831 37.50252 32.79042
#
# Velocity S-wave (km/s) = 3.42771 3.96140 3.70418
# Velocity P-wave (km/s) = 5.82727 7.23947 6.57142
#
# Compressibility (1/GPa) = 0.02287651
#
# Stress axis : x y z
#
# Youngs Moduli (GPa) = 116.19802 30.46153 96.70613
#
# Poissons Ratio (x) = 0.20872 0.06587
# Poissons Ratio (y) = 0.79618 0.66884
# Poissons Ratio (z) = 0.07914 0.21068
#
# Static dielectric constant tensor:
#      x y z
#    x 1.936830 0.000000 0.060150 
#    y 0.000000 2.098160 0.000000 
#    z 0.060150 0.000000 2.003670 
# 
# From -- ./inp_files/122858.got.cif
#   From: 2010.05.17/outbox.cif.g08.bks.cpg/sg15_62_cif.got.tgz:122858.got - 2010.06.03 18:47:42.
