data_PCOD9288227
_publ_section_title
;
Structure prediction by ZEFSAII (Michael W. Deem and Ramdas Pophale) SiO2 
 PCOD9288227
Probable space group: C 2/C
;
_chemical_formula_sum "Si O2"
_cell_formula_units_Z 40
_cell_length_a 7.469143
_cell_length_b 23.388935
_cell_length_c 11.817085
_cell_angle_alpha 90.000000
_cell_angle_beta 55.475173
_cell_angle_gamma 90.000000
_cell_volume 1700.810387
_symmetry_space_group_name_H-M "C 2/C"
_symmetry_group_IT_number 15
_symmetry_cell_setting 'monoclinic'
loop_
_space_group_symop_operation_xyz
x,y,z
-x,y,1/2-z
-x,-y,-z
x,-y,1/2+z
1/2+x,1/2+y,z
1/2-x,1/2+y,1/2-z
1/2-x,1/2-y,-z
1/2+x,1/2-y,1/2+z
loop_
_atom_site_type_symbol
_atom_site_label
_atom_site_fract_x
_atom_site_fract_y
_atom_site_fract_z
Si Si1 0.273604 0.948576 0.426318
Si Si2 0.195018 0.926543 0.961125
Si Si3 0.258542 0.215882 0.788498
Si Si4 0.180021 0.796264 0.930222
Si Si5 0.805563 0.599385 0.661660
O O1 0.436148 0.913291 0.448197
O O2 0.283142 0.927155 0.293831
O O3 0.017398 0.939127 0.539861
O O4 0.332177 0.015465 0.403198
O O5 0.170266 0.924478 0.106379
O O6 0.262649 0.861249 0.913510
O O7 0.500000 0.212243 0.750000
O O8 0.246982 0.273081 0.718168
O O9 0.245779 0.165021 0.701604
O O10 0.080867 0.204553 0.949710
O O11 0.250000 0.750000 0.000000
#
# Coordination Sequence:
#
# PCOD9288227 Si02
#       5
#     8   8   8   8   8
#     4  10  22  38  65  96 126 172 225 274 337 407
#     4  11  22  41  65  96 135 170 227 281 339 408
#     4  12  24  45  71 100 139 185 233 287 343 420
#     4  12  25  43  70 103 138 182 233 283 351 410
#     4  11  20  41  67  92 130 178 224 271 347 408
#
# _framework density 23.5182
#
# number of rings (size 3 to 8) (size 9 to 14) (size 15 to 20)
#    0.000    0.800    6.000    2.400    0.000    0.000 
#    7.200    4.000    0.000    0.000    0.000    0.000 
#    0.000    0.000    0.000    0.000    0.000    0.000 
#
# Total GULP energy -111539.890209 kJ/mol
# GULP energy per Si atom -5576.994510 kJ/mol
# Density = 2.346467 g / cm^3
# Si number density = 23.518200 Si / 1000 Ang^3
#
#
#
# Elastic Constant Matrix: (Units=GPa)
#
#
# Indices 1 2 3 4 5 6 
#
# 1 99.6838 2.7923 -6.7009 0.0000 -0.8554 0.0000
# 2 2.7923 161.6785 17.5446 0.0000 6.2060 0.0000
# 3 -6.7009 17.5446 43.5240 0.0000 1.2659 0.0000
# 4 0.0000 0.0000 0.0000 30.1629 0.0000 9.2761
# 5 -0.8554 6.2060 1.2659 0.0000 22.2204 0.0000
# 6 0.0000 0.0000 0.0000 9.2761 0.0000 0.7817
#
#
#
# Elastic Compliance Matrix: (Units=1/GPa)
#
#
# Indices 1 2 3 4 5 6 
#
# 1 0.010160 -0.000376 0.001704 0.000000 0.000399 0.000000
# 2 -0.000376 0.006544 -0.002646 0.000000 -0.001691 0.000000
# 3 0.001704 -0.002646 0.024322 0.000000 -0.000581 0.000000
# 4 0.000000 0.000000 0.000000 -0.012514 0.000000 0.148495
# 5 0.000399 -0.001691 -0.000581 0.000000 0.045524 0.000000
# 6 0.000000 0.000000 0.000000 0.148495 0.000000 -0.482859
#
#
# Mechanical properties :
#
#
# Convention : Reuss Voigt Hill
#
# Bulk Modulus (GPa) = 26.04866 36.90648 31.47757
# Shear Modulus (GPa) = -12.71004 30.04970 8.66983
#
# Velocity S-wave (km/s) = -2.32725 3.57840 1.92209
# Velocity P-wave (km/s) = 1.96941 5.72713 4.28244
#
# Compressibility (1/GPa) = 0.03838970
#
# Stress axis : x y z
#
# Youngs Moduli (GPa) = 98.42309 152.81873 41.11530
#
# Poissons Ratio (x) = 0.05742 -0.07006
# Poissons Ratio (y) = 0.03698 0.10881
# Poissons Ratio (z) = -0.16772 0.40442
#
# Static dielectric constant tensor:
#      x y z
#    x 2.041790 0.000000 -0.200050 
#    y 0.000000 1.916560 0.000000 
#    z -0.200050 0.000000 2.060830 
# 
# From -- ./inp_files/78974.got.cif
#   From: 2010.05.17/outbox.cif.g08.bks.cpg/sg15_40_cif.got.tgz:78974.got - 2010.06.03 18:47:42.
