data_PCOD9288110
_publ_section_title
;
Structure prediction by ZEFSAII (Michael W. Deem and Ramdas Pophale) SiO2 
 PCOD9288110
Probable space group: C 2/C
;
_chemical_formula_sum "Si O2"
_cell_formula_units_Z 56
_cell_length_a 28.619666
_cell_length_b 11.196317
_cell_length_c 8.957045
_cell_angle_alpha 90.000000
_cell_angle_beta 112.047579
_cell_angle_gamma 90.000000
_cell_volume 2660.262426
_symmetry_space_group_name_H-M "C 2/C"
_symmetry_group_IT_number 15
_symmetry_cell_setting 'monoclinic'
loop_
_space_group_symop_operation_xyz
x,y,z
-x,y,1/2-z
-x,-y,-z
x,-y,1/2+z
1/2+x,1/2+y,z
1/2-x,1/2+y,1/2-z
1/2-x,1/2-y,-z
1/2+x,1/2-y,1/2+z
loop_
_atom_site_type_symbol
_atom_site_label
_atom_site_fract_x
_atom_site_fract_y
_atom_site_fract_z
Si Si1 0.104159 0.160685 0.115742
Si Si2 0.300796 0.658289 0.784173
Si Si3 0.838781 0.606231 0.479282
Si Si4 0.487078 0.807644 0.568357
Si Si5 0.850645 0.011060 0.583173
Si Si6 0.688560 0.136853 0.722095
Si Si7 0.451856 0.072254 0.586951
O O1 0.144756 0.266686 0.147179
O O2 0.120714 0.082825 0.277014
O O3 0.048605 0.215063 0.057336
O O4 0.110688 0.080369 0.976459
O O5 0.328720 0.779576 0.863874
O O6 0.320517 0.601712 0.654128
O O7 0.241271 0.680695 0.717994
O O8 0.313764 0.561129 0.928358
O O9 0.807702 0.618207 0.594845
O O10 0.825117 0.487200 0.373399
O O11 0.897975 0.598458 0.591784
O O12 0.500000 0.766942 0.750000
O O13 0.537734 0.844122 0.542657
O O14 0.456715 0.933567 0.546273
O O15 0.500000 0.093294 0.750000
#
# Coordination Sequence:
#
# PCOD9288110 Si02
#       7
#     8   8   8   8   8   8   8
#     4  11  23  46  67  96 133 177 222 279 323 400
#     4  11  25  44  66  95 136 178 226 274 328 397
#     4  12  26  41  69 101 134 174 226 273 342 400
#     4  10  22  40  67  93 132 163 211 276 339 384
#     4  10  25  44  69  88 134 182 225 263 333 384
#     4  12  26  41  67 101 136 172 222 280 336 396
#     4  10  22  38  64 100 132 167 209 272 345 390
#
# _framework density 21.050554000000002
#
# number of rings (size 3 to 8) (size 9 to 14) (size 15 to 20)
#    0.000    1.143    2.857    2.143   12.000    0.571 
#    0.000    0.714    0.000    0.000    0.000    0.000 
#    0.000    0.000    0.000    0.000    0.000    0.000 
#
# Total GULP energy -156665.003012 kJ/mol
# GULP energy per Si atom -5595.178679 kJ/mol
# Density = 2.100264 g / cm^3
# Si number density = 21.050554 Si / 1000 Ang^3
#
#
#
# Elastic Constant Matrix: (Units=GPa)
#
#
# Indices 1 2 3 4 5 6 
#
# 1 52.6456 4.3256 -7.8715 0.0000 7.0681 0.0000
# 2 4.3256 72.6228 5.9022 0.0000 8.6293 0.0000
# 3 -7.8715 5.9022 49.0588 0.0000 -5.9562 0.0000
# 4 0.0000 0.0000 0.0000 27.7785 0.0000 -4.3561
# 5 7.0681 8.6293 -5.9562 0.0000 23.1350 0.0000
# 6 0.0000 0.0000 0.0000 -4.3561 0.0000 18.9769
#
#
#
# Elastic Compliance Matrix: (Units=1/GPa)
#
#
# Indices 1 2 3 4 5 6 
#
# 1 0.020159 -0.000807 0.002705 0.000000 -0.005161 0.000000
# 2 -0.000807 0.014735 -0.002622 0.000000 -0.005924 0.000000
# 3 0.002705 -0.002622 0.021834 0.000000 0.005773 0.000000
# 4 0.000000 0.000000 0.000000 0.037343 0.000000 0.008572
# 5 -0.005161 -0.005924 0.005773 0.000000 0.048497 0.000000
# 6 0.000000 0.000000 0.000000 0.008572 0.000000 0.054663
#
#
# Mechanical properties :
#
#
# Convention : Reuss Voigt Hill
#
# Bulk Modulus (GPa) = 18.08979 19.89331 18.99155
# Shear Modulus (GPa) = 23.03025 25.44280 24.23653
#
# Velocity S-wave (km/s) = 3.31122 3.48034 3.39683
# Velocity P-wave (km/s) = 4.81986 5.06173 4.94228
#
# Compressibility (1/GPa) = 0.05527980
#
# Stress axis : x y z
#
# Youngs Moduli (GPa) = 49.60653 67.86627 45.80022
#
# Poissons Ratio (x) = 0.05479 -0.12389
# Poissons Ratio (y) = 0.04005 0.12007
# Poissons Ratio (z) = -0.13418 0.17791
#
# Static dielectric constant tensor:
#      x y z
#    x 1.739320 0.000000 -0.018950 
#    y 0.000000 1.737790 0.000000 
#    z -0.018950 0.000000 1.775890 
# 
# From -- ./inp_files/65535.got.cif
#   From: 2010.05.17/outbox.cif.g08.bks.cpg/sg15_33_cif.got.tgz:65535.got - 2010.06.03 18:47:42.
