data_PCOD9288693
_publ_section_title
;
Structure prediction by ZEFSAII (Michael W. Deem and Ramdas Pophale) SiO2 
 PCOD9288693
Probable space group: C 2/C
;
_chemical_formula_sum "Si O2"
_cell_formula_units_Z 64
_cell_length_a 22.659744
_cell_length_b 12.726845
_cell_length_c 9.846385
_cell_angle_alpha 90.000000
_cell_angle_beta 66.192454
_cell_angle_gamma 90.000000
_cell_volume 2597.941011
_symmetry_space_group_name_H-M "C 2/C"
_symmetry_group_IT_number 15
_symmetry_cell_setting 'monoclinic'
loop_
_space_group_symop_operation_xyz
x,y,z
-x,y,1/2-z
-x,-y,-z
x,-y,1/2+z
1/2+x,1/2+y,z
1/2-x,1/2+y,1/2-z
1/2-x,1/2-y,-z
1/2+x,1/2-y,1/2+z
loop_
_atom_site_type_symbol
_atom_site_label
_atom_site_fract_x
_atom_site_fract_y
_atom_site_fract_z
Si Si1 0.927727 0.947142 0.757528
Si Si2 0.684468 0.959170 0.487098
Si Si3 0.876245 0.351400 0.556353
Si Si4 0.059970 0.484120 0.798203
Si Si5 0.806195 0.995370 0.571668
Si Si6 0.567211 0.787551 0.269279
Si Si7 0.362618 0.364170 0.220391
Si Si8 0.813154 0.772375 0.532893
O O1 0.921595 0.831562 0.694121
O O2 0.000000 0.953469 0.750000
O O3 0.917110 0.046158 0.667846
O O4 0.869105 0.964246 0.923329
O O5 0.623039 0.960687 0.647322
O O6 0.676554 0.844418 0.424367
O O7 0.675318 0.055462 0.392784
O O8 0.746910 0.984932 0.521711
O O9 0.936128 0.404756 0.579440
O O10 0.882859 0.317791 0.394794
O O11 0.866162 0.242353 0.636822
O O12 0.063814 0.603188 0.852107
O O13 0.000000 0.474684 0.750000
O O14 0.803747 0.073791 0.701788
O O15 0.807769 0.875583 0.628874
O O16 0.500000 0.780482 0.250000
O O17 0.360865 0.319549 0.374870
O O18 0.750000 0.750000 0.500000
#
# Coordination Sequence:
#
# PCOD9288693 Si02
#       8
#     8   8   8   8   8   8   8   8
#     4  10  22  42  64  91 130 165 210 266 311 372
#     4  10  22  40  64  92 127 166 210 266 309 373
#     4  11  22  40  65  91 126 170 209 252 317 378
#     4  10  22  39  63  94 128 165 210 261 313 376
#     4  10  22  41  64  95 126 166 213 262 315 371
#     4   9  20  40  60  90 130 158 206 267 303 369
#     4  11  22  40  64  93 124 168 211 255 318 376
#     4   9  20  42  60  88 130 156 207 270 304 373
#
# _framework density 24.634895
#
# number of rings (size 3 to 8) (size 9 to 14) (size 15 to 20)
#    0.000    2.000    2.500    0.000    0.000   10.000 
#    0.000    0.000    0.000    0.000    0.000    0.000 
#    0.000    0.000    0.000    0.000    0.000    0.000 
#
# Total GULP energy -178279.983939 kJ/mol
# GULP energy per Si atom -5571.249498 kJ/mol
# Density = 2.457883 g / cm^3
# Si number density = 24.634895 Si / 1000 Ang^3
#
#
#
# Elastic Constant Matrix: (Units=GPa)
#
#
# Indices 1 2 3 4 5 6 
#
# 1 133.1545 51.0067 8.2713 0.0000 8.8517 0.0000
# 2 51.0067 284.7044 15.5151 0.0000 13.1668 0.0000
# 3 8.2713 15.5151 47.0747 0.0000 -6.3211 0.0000
# 4 0.0000 0.0000 0.0000 22.1576 0.0000 16.6489
# 5 8.8517 13.1668 -6.3211 0.0000 35.7328 0.0000
# 6 0.0000 0.0000 0.0000 16.6489 0.0000 47.4899
#
#
#
# Elastic Compliance Matrix: (Units=1/GPa)
#
#
# Indices 1 2 3 4 5 6 
#
# 1 0.008211 -0.001322 -0.001244 0.000000 -0.001767 0.000000
# 2 -0.001322 0.003877 -0.001222 0.000000 -0.001317 0.000000
# 3 -0.001244 -0.001222 0.022501 0.000000 0.004739 0.000000
# 4 0.000000 0.000000 0.000000 0.061271 0.000000 -0.021480
# 5 -0.001767 -0.001317 0.004739 0.000000 0.029747 0.000000
# 6 0.000000 0.000000 0.000000 -0.021480 0.000000 0.028588
#
#
# Mechanical properties :
#
#
# Convention : Reuss Voigt Hill
#
# Bulk Modulus (GPa) = 37.02096 68.27998 52.65047
# Shear Modulus (GPa) = 29.27824 47.08543 38.18184
#
# Velocity S-wave (km/s) = 3.45118 4.37662 3.94116
# Velocity P-wave (km/s) = 5.56250 7.30183 6.49069
#
# Compressibility (1/GPa) = 0.02701173
#
# Stress axis : x y z
#
# Youngs Moduli (GPa) = 121.78658 257.95039 44.44301
#
# Poissons Ratio (x) = 0.34089 0.05531
# Poissons Ratio (y) = 0.16094 0.05433
# Poissons Ratio (z) = 0.15156 0.31532
#
# Static dielectric constant tensor:
#      x y z
#    x 2.016440 0.000000 0.001750 
#    y 0.000000 2.033690 0.000000 
#    z 0.001750 0.000000 1.503750 
# 
# From -- ./inp_files/118006.got.cif
#   From: 2010.05.17/outbox.cif.g08.bks.cpg/sg15_60_cif.got.tgz:118006.got - 2010.06.03 18:47:42.
