data_PCOD9288973
_publ_section_title
;
Structure prediction by ZEFSAII (Michael W. Deem and Ramdas Pophale) SiO2 
 PCOD9288973
Probable space group: C 2/C
;
_chemical_formula_sum "Si O2"
_cell_formula_units_Z 56
_cell_length_a 18.645252
_cell_length_b 8.700740
_cell_length_c 16.118548
_cell_angle_alpha 90.000000
_cell_angle_beta 107.781757
_cell_angle_gamma 90.000000
_cell_volume 2489.950481
_symmetry_space_group_name_H-M "C 2/C"
_symmetry_group_IT_number 15
_symmetry_cell_setting 'monoclinic'
loop_
_space_group_symop_operation_xyz
x,y,z
-x,y,1/2-z
-x,-y,-z
x,-y,1/2+z
1/2+x,1/2+y,z
1/2-x,1/2+y,1/2-z
1/2-x,1/2-y,-z
1/2+x,1/2-y,1/2+z
loop_
_atom_site_type_symbol
_atom_site_label
_atom_site_fract_x
_atom_site_fract_y
_atom_site_fract_z
Si Si1 0.977886 0.873087 0.331342
Si Si2 0.603202 0.882978 0.480695
Si Si3 0.114016 0.981345 0.971042
Si Si4 0.038596 0.474343 0.639035
Si Si5 0.242346 0.596278 0.553125
Si Si6 0.812848 0.353190 0.276597
Si Si7 0.827139 0.982044 0.831210
O O1 0.985739 0.690130 0.335261
O O2 0.000000 0.936602 0.250000
O O3 0.891614 0.909394 0.318393
O O4 0.033387 0.950601 0.417517
O O5 0.614203 0.700910 0.484897
O O6 0.571446 0.935714 0.559052
O O7 0.535946 0.923680 0.394316
O O8 0.678950 0.981270 0.493605
O O9 0.175316 0.021237 0.923009
O O10 0.143574 0.057983 0.066532
O O11 0.107369 0.562724 0.706250
O O12 0.250000 0.750000 0.500000
O O13 0.218463 0.623388 0.640032
O O14 0.820035 0.170383 0.273639
O O15 0.751231 0.428069 0.195139
#
# Coordination Sequence:
#
# PCOD9288973 Si02
#       7
#     8   8   8   8   8   8   8
#     4  12  26  46  68  99 136 176 226 282 342 403
#     4  10  22  39  69  98 131 170 226 275 329 402
#     4  12  24  43  70 101 136 177 226 277 342 402
#     4  10  22  43  69  95 130 177 223 274 336 402
#     4  11  22  42  66  99 134 177 223 275 337 402
#     4  11  25  44  67  98 137 179 226 277 337 403
#     4  12  25  44  70  98 137 181 225 279 340 402
#
# _framework density 22.490407999999999
#
# number of rings (size 3 to 8) (size 9 to 14) (size 15 to 20)
#    0.000    0.857    2.857    4.286    6.000    0.000 
#    5.143    1.429    0.000    0.000    0.000    0.000 
#    0.000    0.000    0.000    0.000    0.000    0.000 
#
# Total GULP energy -156715.606478 kJ/mol
# GULP energy per Si atom -5596.985946 kJ/mol
# Density = 2.243922 g / cm^3
# Si number density = 22.490408 Si / 1000 Ang^3
#
#
#
# Elastic Constant Matrix: (Units=GPa)
#
#
# Indices 1 2 3 4 5 6 
#
# 1 54.9095 7.2600 5.3752 0.0000 27.5302 0.0000
# 2 7.2600 100.6713 1.6688 0.0000 26.7622 0.0000
# 3 5.3752 1.6688 71.1496 0.0000 22.2612 0.0000
# 4 0.0000 0.0000 0.0000 21.2870 0.0000 8.5832
# 5 27.5302 26.7622 22.2612 0.0000 47.1240 0.0000
# 6 0.0000 0.0000 0.0000 8.5832 0.0000 43.8137
#
#
#
# Elastic Compliance Matrix: (Units=1/GPa)
#
#
# Indices 1 2 3 4 5 6 
#
# 1 0.027229 0.003182 0.004002 0.000000 -0.019605 0.000000
# 2 0.003182 0.012350 0.002635 0.000000 -0.010117 0.000000
# 3 0.004002 0.002635 0.017473 0.000000 -0.012089 0.000000
# 4 0.000000 0.000000 0.000000 0.051006 0.000000 -0.009992
# 5 -0.019605 -0.010117 -0.012089 0.000000 0.044130 0.000000
# 6 0.000000 0.000000 0.000000 -0.009992 0.000000 0.024781
#
#
# Mechanical properties :
#
#
# Convention : Reuss Voigt Hill
#
# Bulk Modulus (GPa) = 13.03944 28.37090 20.70517
# Shear Modulus (GPa) = 27.33824 36.60670 31.97247
#
# Velocity S-wave (km/s) = 3.49026 4.03880 3.77451
# Velocity P-wave (km/s) = 4.69605 5.86441 5.31245
#
# Compressibility (1/GPa) = 0.07669038
#
# Stress axis : x y z
#
# Youngs Moduli (GPa) = 36.72597 80.97332 57.23078
#
# Poissons Ratio (x) = -0.25764 -0.22905
# Poissons Ratio (y) = -0.11685 -0.15083
# Poissons Ratio (z) = -0.14699 -0.21340
#
# Static dielectric constant tensor:
#      x y z
#    x 1.799080 0.000000 -0.038080 
#    y 0.000000 1.783860 0.000000 
#    z -0.038080 0.000000 1.870260 
# 
# From -- ./inp_files/209619.got.cif
#   From: 2010.05.17/outbox.cif.g08.bks.cpg/sg15_105_cif.got.tgz:209619.got - 2010.06.03 18:47:42.
