data_PCOD9288837
_publ_section_title
;
Structure prediction by ZEFSAII (Michael W. Deem and Ramdas Pophale) SiO2 
 PCOD9288837
Probable space group: C 2/C
;
_chemical_formula_sum "Si O2"
_cell_formula_units_Z 60
_cell_length_a 18.918091
_cell_length_b 17.438366
_cell_length_c 17.618306
_cell_angle_alpha 90.000000
_cell_angle_beta 28.634065
_cell_angle_gamma 90.000000
_cell_volume 2785.329255
_symmetry_space_group_name_H-M "C 2/C"
_symmetry_group_IT_number 15
_symmetry_cell_setting 'monoclinic'
loop_
_space_group_symop_operation_xyz
x,y,z
-x,y,1/2-z
-x,-y,-z
x,-y,1/2+z
1/2+x,1/2+y,z
1/2-x,1/2+y,1/2-z
1/2-x,1/2-y,-z
1/2+x,1/2-y,1/2+z
loop_
_atom_site_type_symbol
_atom_site_label
_atom_site_fract_x
_atom_site_fract_y
_atom_site_fract_z
Si Si1 0.816747 0.852882 0.321082
Si Si2 0.163198 0.682981 0.626531
Si Si3 0.594467 0.423202 0.548737
Si Si4 0.559005 0.751072 0.518009
Si Si5 0.148894 0.200210 0.265541
Si Si6 0.088639 0.616848 0.434526
Si Si7 0.220418 0.542240 0.771220
Si Si8 0.000000 0.052917 0.750000
O O1 0.690056 0.788639 0.442721
O O2 0.764017 0.914838 0.307807
O O3 0.862105 0.894948 0.355298
O O4 0.962358 0.811001 0.152178
O O5 0.250000 0.750000 0.500000
O O6 0.270247 0.610555 0.529766
O O7 0.146611 0.718908 0.726013
O O8 0.000000 0.668426 0.750000
O O9 0.472676 0.356566 0.654498
O O10 0.657279 0.442331 0.406848
O O11 0.532873 0.497521 0.648340
O O12 0.619227 0.715038 0.382370
O O13 0.457586 0.822429 0.586223
O O14 0.310610 0.163926 0.102424
O O15 0.192562 0.547629 0.308954
O O16 0.938138 0.577349 0.603958
#
# Coordination Sequence:
#
# PCOD9288837 Si02
#       8
#     8   8   8   8   8   8   8   4
#     4  11  24  46  70 102 136 178 229 290 344 408
#     4  12  25  41  61  93 137 178 216 272 344 413
#     4  12  25  45  67  99 133 189 227 277 340 418
#     4  11  22  42  73 102 126 174 234 294 337 392
#     4  12  22  40  71 101 132 169 231 294 339 401
#     4  10  22  39  66 106 134 163 224 302 333 398
#     4  10  23  43  69 100 134 178 231 281 345 397
#     4  12  30  46  64  98 152 184 230 270 352 418
#
# _framework density 21.541440000000001
#
# number of rings (size 3 to 8) (size 9 to 14) (size 15 to 20)
#    0.000    0.800    4.000    4.000    3.733    1.600 
#    4.800    0.000    0.000    0.000    0.000    0.000 
#    0.000    0.000    0.000    0.000    0.000    0.000 
#
# Total GULP energy -167894.230113 kJ/mol
# GULP energy per Si atom -5596.474337 kJ/mol
# Density = 2.149241 g / cm^3
# Si number density = 21.541440 Si / 1000 Ang^3
#
#
#
# Elastic Constant Matrix: (Units=GPa)
#
#
# Indices 1 2 3 4 5 6 
#
# 1 52.4375 26.7184 12.5805 0.0001 -38.5020 -0.0002
# 2 26.7184 83.6004 19.0673 -0.0015 -12.9407 -0.0006
# 3 12.5805 19.0673 51.0791 -0.0040 -23.2796 0.0006
# 4 0.0001 -0.0015 -0.0040 33.1145 0.0018 -10.4795
# 5 -38.5020 -12.9407 -23.2796 0.0018 37.1142 0.0002
# 6 -0.0002 -0.0006 0.0006 -10.4795 0.0002 24.6025
#
#
#
# Elastic Compliance Matrix: (Units=1/GPa)
#
#
# Indices 1 2 3 4 5 6 
#
# 1 0.195412 -0.043224 0.074955 -0.000008 0.234663 -0.000007
# 2 -0.043224 0.022754 -0.020540 0.000002 -0.049791 0.000002
# 3 0.074955 -0.020540 0.057354 -0.000001 0.106571 -0.000003
# 4 -0.000008 0.000002 -0.000001 0.034903 -0.000010 0.014867
# 5 0.234663 -0.049791 0.106571 -0.000010 0.319867 -0.000010
# 6 -0.000007 0.000002 -0.000003 0.014867 -0.000010 0.046979
#
#
# Mechanical properties :
#
#
# Convention : Reuss Voigt Hill
#
# Bulk Modulus (GPa) = 3.35682 33.76103 18.55892
# Shear Modulus (GPa) = 6.62965 27.54962 17.08963
#
# Velocity S-wave (km/s) = 1.75622 3.58007 2.81968
# Velocity P-wave (km/s) = 2.38204 5.72676 4.38577
#
# Compressibility (1/GPa) = 0.29790087
#
# Stress axis : x y z
#
# Youngs Moduli (GPa) = 5.11740 43.94924 17.43547
#
# Poissons Ratio (x) = 1.89968 -1.30688
# Poissons Ratio (y) = 0.22120 0.35813
# Poissons Ratio (z) = -0.38358 0.90273
#
# Static dielectric constant tensor:
#      x y z
#    x 1.790810 0.000000 0.001750 
#    y 0.000000 1.777570 0.000000 
#    z 0.001750 0.000000 1.790590 
# 
# From -- ./inp_files/211741.got.cif
#   From: 2010.05.17/outbox.cif.g08.bks.cpg/sg15_106_cif.got.tgz:211741.got - 2010.06.03 18:47:42.
