data_PCOD9288324
_publ_section_title
;
Structure prediction by ZEFSAII (Michael W. Deem and Ramdas Pophale) SiO2 
 PCOD9288324
Probable space group: C 2/C
;
_chemical_formula_sum "Si O2"
_cell_formula_units_Z 56
_cell_length_a 25.357859
_cell_length_b 4.919693
_cell_length_c 19.410988
_cell_angle_alpha 90.000000
_cell_angle_beta 74.126813
_cell_angle_gamma 90.000000
_cell_volume 2329.240537
_symmetry_space_group_name_H-M "C 2/C"
_symmetry_group_IT_number 15
_symmetry_cell_setting 'monoclinic'
loop_
_space_group_symop_operation_xyz
x,y,z
-x,y,1/2-z
-x,-y,-z
x,-y,1/2+z
1/2+x,1/2+y,z
1/2-x,1/2+y,1/2-z
1/2-x,1/2-y,-z
1/2+x,1/2-y,1/2+z
loop_
_atom_site_type_symbol
_atom_site_label
_atom_site_fract_x
_atom_site_fract_y
_atom_site_fract_z
Si Si1 0.722640 0.459641 0.848071
Si Si2 0.588588 0.882192 0.062859
Si Si3 0.097941 0.092758 0.652086
Si Si4 0.029578 0.485545 0.881669
Si Si5 0.293639 0.464075 0.809872
Si Si6 0.500000 0.500000 0.000000
Si Si7 0.000000 0.261349 0.250000
Si Si8 0.884551 0.750329 0.561755
O O1 0.708639 0.476196 0.771968
O O2 0.771326 0.673500 0.842683
O O3 0.664900 0.451294 0.907056
O O4 0.748011 0.168009 0.853722
O O5 0.587168 0.110276 0.124407
O O6 0.522808 0.841717 0.064017
O O7 0.613105 0.610945 0.084630
O O8 0.624266 0.012243 0.990267
O O9 0.147839 0.069265 0.686656
O O10 0.045896 0.940929 0.703511
O O11 0.088962 0.601382 0.881105
O O12 0.022653 0.549987 0.803731
O O13 0.020400 0.195256 0.919729
O O14 0.438048 0.604065 0.013887
#
# Coordination Sequence:
#
# PCOD9288324 Si02
#       8
#     8   8   8   8   8   4   4   8
#     4  10  23  42  70  96 126 176 234 280 343 411
#     4  10  24  39  64  93 137 174 221 272 348 410
#     4  11  23  44  64  95 137 179 215 292 344 408
#     4  10  23  41  63  99 141 179 224 288 345 420
#     4  10  22  45  65  95 132 172 225 293 341 401
#     4  10  22  38  68  92 142 178 226 278 348 408
#     4  10  24  42  64 104 136 174 238 276 364 424
#     4  11  24  41  66 101 131 186 228 287 336 429
#
# _framework density 24.042169000000001
#
# number of rings (size 3 to 8) (size 9 to 14) (size 15 to 20)
#    0.000    1.714    0.000    3.429   14.000    2.286 
#    7.714    4.286    0.000    0.000    0.000    0.000 
#    0.000    0.000    0.000    0.000    0.000    0.000 
#
# Total GULP energy -156211.559416 kJ/mol
# GULP energy per Si atom -5578.984265 kJ/mol
# Density = 2.398745 g / cm^3
# Si number density = 24.042169 Si / 1000 Ang^3
#
#
#
# Elastic Constant Matrix: (Units=GPa)
#
#
# Indices 1 2 3 4 5 6 
#
# 1 63.4022 -11.1222 16.0163 0.0000 1.7747 0.0000
# 2 -11.1222 67.8556 12.2905 0.0000 -0.5908 0.0000
# 3 16.0163 12.2905 85.1814 0.0000 3.2352 0.0000
# 4 0.0000 0.0000 0.0000 33.1689 0.0000 1.3312
# 5 1.7747 -0.5908 3.2352 0.0000 41.0934 0.0000
# 6 0.0000 0.0000 0.0000 1.3312 0.0000 20.4824
#
#
#
# Elastic Compliance Matrix: (Units=1/GPa)
#
#
# Indices 1 2 3 4 5 6 
#
# 1 0.017350 0.003520 -0.003755 0.000000 -0.000403 0.000000
# 2 0.003520 0.015853 -0.002961 0.000000 0.000309 0.000000
# 3 -0.003755 -0.002961 0.012907 0.000000 -0.000897 0.000000
# 4 0.000000 0.000000 0.000000 0.030228 0.000000 -0.001965
# 5 -0.000403 0.000309 -0.000897 0.000000 0.024427 0.000000
# 6 0.000000 0.000000 0.000000 -0.001965 0.000000 0.048950
#
#
# Mechanical properties :
#
#
# Convention : Reuss Voigt Hill
#
# Bulk Modulus (GPa) = 25.17698 27.86760 26.52229
# Shear Modulus (GPa) = 29.52544 32.23256 30.87900
#
# Velocity S-wave (km/s) = 3.50818 3.66549 3.58770
# Velocity P-wave (km/s) = 5.18696 5.43421 5.31202
#
# Compressibility (1/GPa) = 0.03971882
#
# Stress axis : x y z
#
# Youngs Moduli (GPa) = 57.63799 63.07864 77.47762
#
# Poissons Ratio (x) = -0.22206 0.29091
# Poissons Ratio (y) = -0.20291 0.22942
# Poissons Ratio (z) = 0.21642 0.18678
#
# Static dielectric constant tensor:
#      x y z
#    x 1.888590 0.000000 0.032310 
#    y 0.000000 1.846940 0.000000 
#    z 0.032310 0.000000 1.963760 
# 
# From -- ./inp_files/254349.got.cif
#   From: 2010.05.17/outbox.cif.g08.bks.cpg/sg15_128_cif.got.tgz:254349.got - 2010.06.03 18:47:42.
