data_PCOD9288171
_publ_section_title
;
Structure prediction by ZEFSAII (Michael W. Deem and Ramdas Pophale) SiO2 
 PCOD9288171
Probable space group: C 2/C
;
_chemical_formula_sum "Si O2"
_cell_formula_units_Z 64
_cell_length_a 29.081322
_cell_length_b 16.728384
_cell_length_c 9.476642
_cell_angle_alpha 90.000000
_cell_angle_beta 35.923070
_cell_angle_gamma 90.000000
_cell_volume 2704.814991
_symmetry_space_group_name_H-M "C 2/C"
_symmetry_group_IT_number 15
_symmetry_cell_setting 'monoclinic'
loop_
_space_group_symop_operation_xyz
x,y,z
-x,y,1/2-z
-x,-y,-z
x,-y,1/2+z
1/2+x,1/2+y,z
1/2-x,1/2+y,1/2-z
1/2-x,1/2-y,-z
1/2+x,1/2-y,1/2+z
loop_
_atom_site_type_symbol
_atom_site_label
_atom_site_fract_x
_atom_site_fract_y
_atom_site_fract_z
Si Si1 0.869155 0.426105 0.770876
Si Si2 0.730199 0.369578 0.743397
Si Si3 0.698749 0.453270 0.259321
Si Si4 0.597315 0.923098 0.123646
Si Si5 0.557281 0.480630 0.982519
Si Si6 0.606706 0.234199 0.119367
Si Si7 0.178294 0.849633 0.572952
Si Si8 0.563898 0.784154 0.402816
O O1 0.917731 0.431100 0.505319
O O2 0.897988 0.491013 0.813293
O O3 0.870546 0.338489 0.835450
O O4 0.777748 0.451186 0.971456
O O5 0.693607 0.458704 0.842521
O O6 0.815948 0.382282 0.590783
O O7 0.736986 0.347082 0.559251
O O8 0.672370 0.303193 0.951152
O O9 0.616603 0.448217 0.381740
O O10 0.709792 0.387666 0.352527
O O11 0.551413 0.863927 0.342974
O O12 0.613041 0.410126 0.793921
O O13 0.500000 0.456596 0.250000
O O14 0.500000 0.500000 0.000000
O O15 0.519593 0.261174 0.382782
O O16 0.592371 0.203609 0.993692
O O17 0.131258 0.769048 0.664880
#
# Coordination Sequence:
#
# PCOD9288171 Si02
#       8
#     8   8   8   8   8   8   8   8
#     4  11  26  44  73  95 135 172 230 277 343 402
#     4   9  23  38  68  95 139 176 225 275 333 401
#     4  10  23  39  63 100 134 180 229 272 328 407
#     4  11  25  45  68 103 130 176 222 288 336 406
#     4  11  22  37  59  92 136 181 223 271 328 395
#     4  10  23  46  69  99 132 182 221 281 337 407
#     4  10  22  38  64  95 135 181 224 272 328 411
#     4  10  24  43  69  98 135 174 231 275 343 405
#
# _framework density 23.661508000000001
#
# number of rings (size 3 to 8) (size 9 to 14) (size 15 to 20)
#    0.000    1.750    1.250    0.750   19.250    2.500 
#    0.000    1.250    0.000    0.000    0.000    0.000 
#    0.000    0.000    0.000    0.000    0.000    0.000 
#
# Total GULP energy -178982.529282 kJ/mol
# GULP energy per Si atom -5593.204040 kJ/mol
# Density = 2.360765 g / cm^3
# Si number density = 23.661508 Si / 1000 Ang^3
#
#
#
# Elastic Constant Matrix: (Units=GPa)
#
#
# Indices 1 2 3 4 5 6 
#
# 1 63.4534 24.6243 17.3099 0.0000 8.0348 0.0000
# 2 24.6243 90.6704 27.5974 0.0000 15.9047 0.0000
# 3 17.3099 27.5974 102.7579 0.0000 8.5126 0.0000
# 4 0.0000 0.0000 0.0000 43.7145 0.0000 1.1118
# 5 8.0348 15.9047 8.5126 0.0000 34.1632 0.0000
# 6 0.0000 0.0000 0.0000 1.1118 0.0000 24.4913
#
#
#
# Elastic Compliance Matrix: (Units=1/GPa)
#
#
# Indices 1 2 3 4 5 6 
#
# 1 0.018054 -0.004016 -0.001803 0.000000 -0.001927 0.000000
# 2 -0.004016 0.013761 -0.002621 0.000000 -0.004809 0.000000
# 3 -0.001803 -0.002621 0.010826 0.000000 -0.001054 0.000000
# 4 0.000000 0.000000 0.000000 0.022902 0.000000 -0.001040
# 5 -0.001927 -0.004809 -0.001054 0.000000 0.032226 0.000000
# 6 0.000000 0.000000 0.000000 -0.001040 0.000000 0.040878
#
#
# Mechanical properties :
#
#
# Convention : Reuss Voigt Hill
#
# Bulk Modulus (GPa) = 38.81797 43.99387 41.40592
# Shear Modulus (GPa) = 30.46651 32.96381 31.71516
#
# Velocity S-wave (km/s) = 3.59220 3.73653 3.66508
# Velocity P-wave (km/s) = 5.80055 6.10319 5.95379
#
# Compressibility (1/GPa) = 0.02576126
#
# Stress axis : x y z
#
# Youngs Moduli (GPa) = 55.38912 72.66953 92.36620
#
# Poissons Ratio (x) = 0.29186 0.16653
# Poissons Ratio (y) = 0.22246 0.24207
# Poissons Ratio (z) = 0.09987 0.19045
#
# Static dielectric constant tensor:
#      x y z
#    x 1.958340 0.000000 0.032410 
#    y 0.000000 1.324970 0.000000 
#    z 0.032410 0.000000 1.988600 
# 
# From -- ./inp_files/70589.got.cif
#   From: 2010.05.17/outbox.cif.g08.bks.cpg/sg15_36_cif.got.tgz:70589.got - 2010.06.03 18:47:42.
