data_PCOD9288720
_publ_section_title
;
Structure prediction by ZEFSAII (Michael W. Deem and Ramdas Pophale) SiO2 
 PCOD9288720
Probable space group: C 2/C
;
_chemical_formula_sum "Si O2"
_cell_formula_units_Z 56
_cell_length_a 15.663523
_cell_length_b 14.075095
_cell_length_c 11.422474
_cell_angle_alpha 90.000000
_cell_angle_beta 84.760836
_cell_angle_gamma 90.000000
_cell_volume 2507.741531
_symmetry_space_group_name_H-M "C 2/C"
_symmetry_group_IT_number 15
_symmetry_cell_setting 'monoclinic'
loop_
_space_group_symop_operation_xyz
x,y,z
-x,y,1/2-z
-x,-y,-z
x,-y,1/2+z
1/2+x,1/2+y,z
1/2-x,1/2+y,1/2-z
1/2-x,1/2-y,-z
1/2+x,1/2-y,1/2+z
loop_
_atom_site_type_symbol
_atom_site_label
_atom_site_fract_x
_atom_site_fract_y
_atom_site_fract_z
Si Si1 0.532118 0.283497 0.006298
Si Si2 0.677124 0.939247 0.725117
Si Si3 0.796564 0.887536 0.503783
Si Si4 0.000000 0.334234 0.750000
Si Si5 0.683622 0.335457 0.660516
Si Si6 0.000000 0.800088 0.750000
Si Si7 0.744189 0.134377 0.748951
Si Si8 0.378822 0.589514 0.555457
O O1 0.632111 0.307072 0.989915
O O2 0.511210 0.223816 0.126205
O O3 0.477049 0.380769 0.031332
O O4 0.507041 0.248393 0.876745
O O5 0.722718 0.890109 0.609253
O O6 0.584347 0.897565 0.755174
O O7 0.743421 0.911264 0.819306
O O8 0.681370 0.052129 0.710320
O O9 0.752734 0.873484 0.385454
O O10 0.848397 0.986851 0.515131
O O11 0.589409 0.358300 0.727362
O O12 0.713011 0.235655 0.708735
O O13 0.668763 0.335776 0.524446
O O14 0.838379 0.108986 0.686503
#
# Coordination Sequence:
#
# PCOD9288720 Si02
#       8
#     8   8   8   4   8   4   8   8
#     4  11  22  41  67 107 132 182 219 283 352 410
#     4  11  25  46  66 100 138 178 230 286 331 400
#     4  11  22  41  70 100 135 177 224 276 351 407
#     4  12  28  45  69  96 142 180 238 283 333 398
#     4  11  21  43  68  94 139 176 223 278 336 411
#     4  10  24  39  67 104 136 176 228 275 349 402
#     4  11  24  40  69  96 132 188 226 273 337 397
#     4  10  22  39  64 104 139 170 217 282 343 408
#
# _framework density 22.330850000000002
#
# number of rings (size 3 to 8) (size 9 to 14) (size 15 to 20)
#    0.000    1.143    2.857    3.429    2.000    2.857 
#    0.000    2.143    0.000    0.000    0.000    0.000 
#    0.000    0.000    0.000    0.000    0.000    0.000 
#
# Total GULP energy -156445.887710 kJ/mol
# GULP energy per Si atom -5587.353132 kJ/mol
# Density = 2.228002 g / cm^3
# Si number density = 22.330850 Si / 1000 Ang^3
#
#
#
# Elastic Constant Matrix: (Units=GPa)
#
#
# Indices 1 2 3 4 5 6 
#
# 1 108.2184 24.3837 23.2610 0.0000 -8.6773 0.0000
# 2 24.3837 86.0441 -2.2340 0.0000 -4.6170 0.0000
# 3 23.2610 -2.2340 115.7935 0.0000 -10.6659 0.0000
# 4 0.0000 0.0000 0.0000 16.9842 0.0000 -2.4308
# 5 -8.6773 -4.6170 -10.6659 0.0000 19.7943 0.0000
# 6 0.0000 0.0000 0.0000 -2.4308 0.0000 23.4454
#
#
#
# Elastic Compliance Matrix: (Units=1/GPa)
#
#
# Indices 1 2 3 4 5 6 
#
# 1 0.010532 -0.002877 -0.001902 0.000000 0.002921 0.000000
# 2 -0.002877 0.012583 0.001026 0.000000 0.002227 0.000000
# 3 -0.001902 0.001026 0.009452 0.000000 0.004499 0.000000
# 4 0.000000 0.000000 0.000000 0.059765 0.000000 0.006196
# 5 0.002921 0.002227 0.004499 0.000000 0.054743 0.000000
# 6 0.000000 0.000000 0.000000 0.006196 0.000000 0.043295
#
#
# Mechanical properties :
#
#
# Convention : Reuss Voigt Hill
#
# Bulk Modulus (GPa) = 39.90329 44.54192 42.22260
# Shear Modulus (GPa) = 24.24459 29.68780 26.96619
#
# Velocity S-wave (km/s) = 3.29857 3.65012 3.47879
# Velocity P-wave (km/s) = 5.69345 6.14444 5.92324
#
# Compressibility (1/GPa) = 0.02506059
#
# Stress axis : x y z
#
# Youngs Moduli (GPa) = 94.94923 79.46955 105.79376
#
# Poissons Ratio (x) = 0.22866 0.20124
# Poissons Ratio (y) = 0.27319 -0.10853
# Poissons Ratio (z) = 0.18061 -0.08152
#
# Static dielectric constant tensor:
#      x y z
#    x 1.801040 0.000000 -0.010070 
#    y 0.000000 1.836000 0.000000 
#    z -0.010070 0.000000 1.844350 
# 
# From -- ./inp_files/97093.got.cif
#   From: 2010.05.17/outbox.cif.g08.bks.cpg/sg15_49_cif.got.tgz:97093.got - 2010.06.03 18:47:42.
