data_PCOD9288806
_publ_section_title
;
Structure prediction by ZEFSAII (Michael W. Deem and Ramdas Pophale) SiO2 
 PCOD9288806
Probable space group: C 2/C
;
_chemical_formula_sum "Si O2"
_cell_formula_units_Z 52
_cell_length_a 23.279477
_cell_length_b 12.222898
_cell_length_c 11.457847
_cell_angle_alpha 90.000000
_cell_angle_beta 50.715271
_cell_angle_gamma 90.000000
_cell_volume 2523.460053
_symmetry_space_group_name_H-M "C 2/C"
_symmetry_group_IT_number 15
_symmetry_cell_setting 'monoclinic'
loop_
_space_group_symop_operation_xyz
x,y,z
-x,y,1/2-z
-x,-y,-z
x,-y,1/2+z
1/2+x,1/2+y,z
1/2-x,1/2+y,1/2-z
1/2-x,1/2-y,-z
1/2+x,1/2-y,1/2+z
loop_
_atom_site_type_symbol
_atom_site_label
_atom_site_fract_x
_atom_site_fract_y
_atom_site_fract_z
Si Si1 0.721138 0.390163 0.961550
Si Si2 0.728170 0.744243 0.213987
Si Si3 0.601897 0.089113 0.949599
Si Si4 0.543917 0.859345 0.998354
Si Si5 0.839060 0.870189 0.927220
Si Si6 0.126089 0.306200 0.655554
Si Si7 0.000000 0.187969 0.250000
O O1 0.733065 0.332878 0.820561
O O2 0.798485 0.377767 0.930381
O O3 0.695690 0.513754 0.995891
O O4 0.657331 0.315957 0.102041
O O5 0.676715 0.850530 0.309751
O O6 0.690410 0.676863 0.157667
O O7 0.806881 0.786816 0.065951
O O8 0.595171 0.958979 0.979691
O O9 0.539241 0.103596 0.931327
O O10 0.585290 0.151860 0.091993
O O11 0.580247 0.819850 0.831479
O O12 0.529472 0.765817 0.109732
O O13 0.927497 0.878601 0.807122
#
# Coordination Sequence:
#
# PCOD9288806 Si02
#       7
#     8   8   8   8   8   8   4
#     4  10  23  42  66  94 122 167 218 258 321 374
#     4  10  22  43  67  94 124 166 219 268 309 382
#     4  10  22  39  65  95 125 160 212 268 326 365
#     4  11  23  38  63  92 132 166 204 263 324 379
#     4  11  24  43  65  91 133 171 211 261 319 379
#     4  10  22  41  65  94 124 163 215 271 312 378
#     4  12  26  42  60 100 132 174 210 254 316 398
#
# _framework density 20.606625999999999
#
# number of rings (size 3 to 8) (size 9 to 14) (size 15 to 20)
#    0.000    1.538    1.538    2.308    4.308    8.615 
#    5.538    1.538    0.000    0.000    0.000    0.000 
#    0.000    0.000    0.000    0.000    0.000    0.000 
#
# Total GULP energy -145242.644882 kJ/mol
# GULP energy per Si atom -5586.255572 kJ/mol
# Density = 2.055972 g / cm^3
# Si number density = 20.606626 Si / 1000 Ang^3
#
#
#
# Elastic Constant Matrix: (Units=GPa)
#
#
# Indices 1 2 3 4 5 6 
#
# 1 66.4400 27.8402 9.7234 0.0000 -15.8290 0.0000
# 2 27.8402 82.2698 19.4899 0.0000 -10.1258 0.0000
# 3 9.7234 19.4899 72.0908 0.0000 -4.8165 0.0000
# 4 0.0000 0.0000 0.0000 47.3321 0.0000 40.3563
# 5 -15.8290 -10.1258 -4.8165 0.0000 24.6495 0.0000
# 6 0.0000 0.0000 0.0000 40.3563 0.0000 31.2333
#
#
#
# Elastic Compliance Matrix: (Units=1/GPa)
#
#
# Indices 1 2 3 4 5 6 
#
# 1 0.019843 -0.005298 -0.000545 0.000000 0.010459 0.000000
# 2 -0.005298 0.014965 -0.003189 0.000000 0.002122 0.000000
# 3 -0.000545 -0.003189 0.014891 0.000000 0.001249 0.000000
# 4 0.000000 0.000000 0.000000 -0.207823 0.000000 0.268526
# 5 0.010459 0.002122 0.001249 0.000000 0.048401 0.000000
# 6 0.000000 0.000000 0.000000 0.268526 0.000000 -0.314943
#
#
# Mechanical properties :
#
#
# Convention : Reuss Voigt Hill
#
# Bulk Modulus (GPa) = 31.61286 37.21194 34.41240
# Shear Modulus (GPa) = -12.62449 31.55947 9.46749
#
# Velocity S-wave (km/s) = -2.47785 3.91771 2.14578
# Velocity P-wave (km/s) = 2.68107 6.20983 4.78279
#
# Compressibility (1/GPa) = 0.03163270
#
# Stress axis : x y z
#
# Youngs Moduli (GPa) = 50.39546 66.82330 67.15630
#
# Poissons Ratio (x) = 0.35406 0.03661
# Poissons Ratio (y) = 0.26702 0.21419
# Poissons Ratio (z) = 0.02747 0.21312
#
# Static dielectric constant tensor:
#      x y z
#    x 1.728610 0.000000 -0.002730 
#    y 0.000000 1.734900 0.000000 
#    z -0.002730 0.000000 1.728960 
# 
# From -- ./inp_files/117922.got.cif
#   From: 2010.05.17/outbox.cif.g08.bks.cpg/sg15_59_cif.got.tgz:117922.got - 2010.06.03 18:47:42.
