data_PCOD9288418
_publ_section_title
;
Structure prediction by ZEFSAII (Michael W. Deem and Ramdas Pophale) SiO2 
 PCOD9288418
Probable space group: C 2/C
;
_chemical_formula_sum "Si O2"
_cell_formula_units_Z 40
_cell_length_a 17.669746
_cell_length_b 7.225781
_cell_length_c 14.967352
_cell_angle_alpha 90.000000
_cell_angle_beta 91.720929
_cell_angle_gamma 90.000000
_cell_volume 1910.135360
_symmetry_space_group_name_H-M "C 2/C"
_symmetry_group_IT_number 15
_symmetry_cell_setting 'monoclinic'
loop_
_space_group_symop_operation_xyz
x,y,z
-x,y,1/2-z
-x,-y,-z
x,-y,1/2+z
1/2+x,1/2+y,z
1/2-x,1/2+y,1/2-z
1/2-x,1/2-y,-z
1/2+x,1/2-y,1/2+z
loop_
_atom_site_type_symbol
_atom_site_label
_atom_site_fract_x
_atom_site_fract_y
_atom_site_fract_z
Si Si1 0.420053 0.195997 0.064335
Si Si2 0.082182 0.401254 0.582926
Si Si3 0.733713 0.009146 0.172704
Si Si4 0.759094 0.588154 0.126773
Si Si5 0.345885 0.417134 0.530291
O O1 0.500163 0.159810 0.113975
O O2 0.348057 0.101010 0.108474
O O3 0.401038 0.411778 0.053980
O O4 0.426101 0.097684 0.967666
O O5 0.150016 0.410581 0.655744
O O6 0.109230 0.254114 0.508852
O O7 0.734021 0.802842 0.132185
O O8 0.755072 0.002728 0.276736
O O9 0.795285 0.120613 0.116206
O O10 0.713042 0.489248 0.046951
#
# Coordination Sequence:
#
# PCOD9288418 Si02
#       5
#     8   8   8   8   8
#     4  10  22  39  58  89 119 154 190 247 294 354
#     4  11  21  37  64  85 118 155 195 237 305 348
#     4  11  22  37  62  91 118 158 201 248 293 349
#     4  11  22  39  61  87 124 153 204 248 293 351
#     4  11  21  41  62  90 117 157 201 248 291 354
#
# _framework density 20.940923999999999
#
# number of rings (size 3 to 8) (size 9 to 14) (size 15 to 20)
#    0.000    1.200    4.000    3.600    2.800    0.800 
#    0.000    0.000    0.000    3.600    0.000    0.000 
#    0.000    0.000    0.000    0.000    0.000    0.000 
#
# Total GULP energy -111866.071064 kJ/mol
# GULP energy per Si atom -5593.303553 kJ/mol
# Density = 2.089326 g / cm^3
# Si number density = 20.940924 Si / 1000 Ang^3
#
#
#
# Elastic Constant Matrix: (Units=GPa)
#
#
# Indices 1 2 3 4 5 6 
#
# 1 149.3291 18.7594 21.3745 0.0000 -1.3858 0.0000
# 2 18.7594 55.7728 -7.6320 0.0000 -3.8521 0.0000
# 3 21.3745 -7.6320 80.6934 0.0000 -2.2753 0.0000
# 4 0.0000 0.0000 0.0000 15.0535 0.0000 2.9458
# 5 -1.3858 -3.8521 -2.2753 0.0000 10.4185 0.0000
# 6 0.0000 0.0000 0.0000 2.9458 0.0000 29.7352
#
#
#
# Elastic Compliance Matrix: (Units=1/GPa)
#
#
# Indices 1 2 3 4 5 6 
#
# 1 0.007366 -0.002821 -0.002233 0.000000 -0.000551 0.000000
# 2 -0.002821 0.019788 0.002832 0.000000 0.007560 0.000000
# 3 -0.002233 0.002832 0.013355 0.000000 0.003667 0.000000
# 4 0.000000 0.000000 0.000000 0.067743 0.000000 -0.006711
# 5 -0.000551 0.007560 0.003667 0.000000 0.099506 0.000000
# 6 0.000000 0.000000 0.000000 -0.006711 0.000000 0.034295
#
#
# Mechanical properties :
#
#
# Convention : Reuss Voigt Hill
#
# Bulk Modulus (GPa) = 27.72808 38.97766 33.35287
# Shear Modulus (GPa) = 19.34085 27.92767 23.63426
#
# Velocity S-wave (km/s) = 3.04236 3.65587 3.36313
# Velocity P-wave (km/s) = 5.06074 6.03937 5.57159
#
# Compressibility (1/GPa) = 0.03606453
#
# Stress axis : x y z
#
# Youngs Moduli (GPa) = 135.76648 50.53443 74.87593
#
# Poissons Ratio (x) = 0.14256 0.16723
# Poissons Ratio (y) = 0.38301 -0.21205
# Poissons Ratio (z) = 0.30322 -0.14312
#
# Static dielectric constant tensor:
#      x y z
#    x 1.750480 0.000000 -0.009360 
#    y 0.000000 1.792960 0.000000 
#    z -0.009360 0.000000 1.724100 
# 
# From -- ./inp_files/102673.got.cif
#   From: 2010.05.17/outbox.cif.g08.bks.cpg/sg15_52_cif.got.tgz:102673.got - 2010.06.03 18:47:42.
