data_PCOD9288807
_publ_section_title
;
Structure prediction by ZEFSAII (Michael W. Deem and Ramdas Pophale) SiO2 
 PCOD9288807
Probable space group: C 2/C
;
_chemical_formula_sum "Si O2"
_cell_formula_units_Z 48
_cell_length_a 8.118511
_cell_length_b 29.244282
_cell_length_c 16.668865
_cell_angle_alpha 90.000000
_cell_angle_beta 146.443589
_cell_angle_gamma 90.000000
_cell_volume 2187.551054
_symmetry_space_group_name_H-M "C 2/C"
_symmetry_group_IT_number 15
_symmetry_cell_setting 'monoclinic'
loop_
_space_group_symop_operation_xyz
x,y,z
-x,y,1/2-z
-x,-y,-z
x,-y,1/2+z
1/2+x,1/2+y,z
1/2-x,1/2+y,1/2-z
1/2-x,1/2-y,-z
1/2+x,1/2-y,1/2+z
loop_
_atom_site_type_symbol
_atom_site_label
_atom_site_fract_x
_atom_site_fract_y
_atom_site_fract_z
Si Si1 0.253751 0.636363 0.420706
Si Si2 0.325793 0.734746 0.400440
Si Si3 0.507961 0.418725 0.156180
Si Si4 0.837721 0.393633 0.064290
Si Si5 0.302725 0.309299 0.595958
Si Si6 0.817215 0.982470 0.597756
O O1 0.269707 0.691225 0.435159
O O2 0.254321 0.609277 0.505010
O O3 0.566157 0.621069 0.509725
O O4 0.000000 0.626717 0.250000
O O5 0.477596 0.713597 0.381339
O O6 0.563382 0.771560 0.525809
O O7 0.000000 0.754838 0.250000
O O8 0.500000 0.414782 0.250000
O O9 0.473167 0.472663 0.123794
O O10 0.836871 0.401409 0.267757
O O11 0.858575 0.351945 0.010058
O O12 0.737294 0.440665 0.982571
O O13 0.500000 0.324962 0.750000
O O14 0.000000 0.967445 0.750000
O O15 0.500000 0.000000 0.500000
#
# Coordination Sequence:
#
# PCOD9288807 Si02
#       6
#     8   8   8   8   8   8
#     4  10  24  42  67  97 134 175 217 272 327 388
#     4   9  21  42  61  92 134 166 213 273 326 382
#     4  11  24  42  66  98 126 176 219 266 330 390
#     4  11  23  41  64  94 131 171 220 270 326 393
#     4  10  22  39  65  95 125 176 219 263 328 390
#     4  11  22  41  63  94 135 174 215 275 325 388
#
# _framework density 21.942343999999999
#
# number of rings (size 3 to 8) (size 9 to 14) (size 15 to 20)
#    0.000    1.667    3.333    1.000    2.333   10.000 
#    0.000    0.000    0.000    0.000    0.000    0.000 
#    0.000    0.000    0.000    0.000    0.000    0.000 
#
# Total GULP energy -134125.245757 kJ/mol
# GULP energy per Si atom -5588.551907 kJ/mol
# Density = 2.189240 g / cm^3
# Si number density = 21.942344 Si / 1000 Ang^3
#
#
#
# Elastic Constant Matrix: (Units=GPa)
#
#
# Indices 1 2 3 4 5 6 
#
# 1 35.7164 12.1071 17.5564 0.0000 5.3737 0.0000
# 2 12.1071 86.9130 56.8648 0.0000 -12.1874 0.0000
# 3 17.5564 56.8648 148.0650 0.0000 0.8548 0.0000
# 4 0.0000 0.0000 0.0000 -145.1587 0.0000 34.7090
# 5 5.3737 -12.1874 0.8548 0.0000 40.6775 0.0000
# 6 0.0000 0.0000 0.0000 34.7090 0.0000 -34.7046
#
#
#
# Elastic Compliance Matrix: (Units=1/GPa)
#
#
# Indices 1 2 3 4 5 6 
#
# 1 0.031100 -0.003549 -0.002295 0.000000 -0.005124 0.000000
# 2 -0.003549 0.016739 -0.006040 0.000000 0.005611 0.000000
# 3 -0.002295 -0.006040 0.009355 0.000000 -0.001703 0.000000
# 4 0.000000 0.000000 0.000000 -0.009054 0.000000 -0.009055
# 5 -0.005124 0.005611 -0.001703 0.000000 0.026977 0.000000
# 6 0.000000 0.000000 0.000000 -0.009055 0.000000 -0.037871
#
#
# Mechanical properties :
#
#
# Convention : Reuss Voigt Hill
#
# Bulk Modulus (GPa) = 29.91685 49.30566 39.61125
# Shear Modulus (GPa) = 69.29286 -15.55943 26.86672
#
# Velocity S-wave (km/s) = 5.62566 -2.66579 3.50297
# Velocity P-wave (km/s) = 7.47404 3.61166 5.86964
#
# Compressibility (1/GPa) = 0.03342598
#
# Stress axis : x y z
#
# Youngs Moduli (GPa) = 32.15395 59.74115 106.88920
#
# Poissons Ratio (x) = 0.21204 0.24531
# Poissons Ratio (y) = 0.11412 0.64563
# Poissons Ratio (z) = 0.07379 0.36085
#
# Static dielectric constant tensor:
#      x y z
#    x 1.914700 0.000000 -0.033120 
#    y 0.000000 1.796350 0.000000 
#    z -0.033120 0.000000 1.801650 
# 
# From -- ./inp_files/194315.got.cif
#   From: 2010.05.17/outbox.cif.g08.bks.cpg/sg15_98_cif.got.tgz:194315.got - 2010.06.03 18:47:42.
