data_PCOD9288125
_publ_section_title
;
Structure prediction by ZEFSAII (Michael W. Deem and Ramdas Pophale) SiO2 
 PCOD9288125
Probable space group: C 2/C
;
_chemical_formula_sum "Si O2"
_cell_formula_units_Z 52
_cell_length_a 13.525597
_cell_length_b 6.062089
_cell_length_c 31.155122
_cell_angle_alpha 90.000000
_cell_angle_beta 65.618913
_cell_angle_gamma 90.000000
_cell_volume 2326.701951
_symmetry_space_group_name_H-M "C 2/C"
_symmetry_group_IT_number 15
_symmetry_cell_setting 'monoclinic'
loop_
_space_group_symop_operation_xyz
x,y,z
-x,y,1/2-z
-x,-y,-z
x,-y,1/2+z
1/2+x,1/2+y,z
1/2-x,1/2+y,1/2-z
1/2-x,1/2-y,-z
1/2+x,1/2-y,1/2+z
loop_
_atom_site_type_symbol
_atom_site_label
_atom_site_fract_x
_atom_site_fract_y
_atom_site_fract_z
Si Si1 0.931319 0.596418 0.895542
Si Si2 0.177914 0.453426 0.326885
Si Si3 0.500000 0.531565 0.750000
Si Si4 0.637598 0.183634 0.171366
Si Si5 0.591763 0.144806 0.009372
Si Si6 0.193452 0.310447 0.227072
Si Si7 0.314871 0.549907 0.465099
O O1 0.871818 0.465619 0.868508
O O2 0.919329 0.455501 0.940992
O O3 0.882100 0.835670 0.915160
O O4 0.056426 0.605892 0.860127
O O5 0.260246 0.346914 0.346027
O O6 0.206706 0.361156 0.274458
O O7 0.202271 0.712322 0.316193
O O8 0.469058 0.677426 0.796899
O O9 0.398244 0.376107 0.759913
O O10 0.652543 0.020541 0.208864
O O11 0.604834 0.408919 0.017905
O O12 0.500000 0.000000 0.000000
O O13 0.712002 0.095738 0.968886
O O14 0.250000 0.750000 0.500000
#
# Coordination Sequence:
#
# PCOD9288125 Si02
#       7
#     8   8   4   8   8   8   8
#     4  11  25  39  63 100 130 169 223 282 345 413
#     4  11  24  39  64  93 131 177 230 274 332 404
#     4  10  22  38  64  84 124 176 222 270 342 386
#     4  11  24  40  61  93 132 173 228 285 335 401
#     4  10  23  44  71  96 131 175 218 279 357 431
#     4  11  22  41  60  86 124 179 221 275 329 391
#     4   9  22  44  67  96 132 167 215 273 347 422
#
# _framework density 22.349229000000001
#
# number of rings (size 3 to 8) (size 9 to 14) (size 15 to 20)
#    0.000    1.538    1.538    2.308    2.154   13.538 
#    0.000    0.000    0.000    0.000    0.000    0.000 
#    0.000    0.000    0.000    0.000    0.000    0.000 
#
# Total GULP energy -145123.761873 kJ/mol
# GULP energy per Si atom -5581.683149 kJ/mol
# Density = 2.229836 g / cm^3
# Si number density = 22.349229 Si / 1000 Ang^3
#
#
#
# Elastic Constant Matrix: (Units=GPa)
#
#
# Indices 1 2 3 4 5 6 
#
# 1 94.8053 14.0616 30.1919 0.0002 0.2684 0.0001
# 2 14.0616 69.0480 9.4309 0.0007 6.2254 0.0002
# 3 30.1919 9.4309 68.8029 0.0002 3.9396 0.0001
# 4 0.0002 0.0007 0.0002 33.1233 0.0000 10.1578
# 5 0.2684 6.2254 3.9396 0.0000 35.8116 0.0000
# 6 0.0001 0.0002 0.0001 10.1578 0.0000 34.7912
#
#
#
# Elastic Compliance Matrix: (Units=1/GPa)
#
#
# Indices 1 2 3 4 5 6 
#
# 1 0.012507 -0.001900 -0.005275 0.000000 0.000817 0.000000
# 2 -0.001900 0.015248 -0.001112 0.000000 -0.002514 0.000000
# 3 -0.005275 -0.001112 0.017096 0.000000 -0.001648 0.000000
# 4 0.000000 0.000000 0.000000 0.033159 0.000000 -0.009681
# 5 0.000817 -0.002514 -0.001648 0.000000 0.028536 0.000000
# 6 0.000000 0.000000 0.000000 -0.009681 0.000000 0.031569
#
#
# Mechanical properties :
#
#
# Convention : Reuss Voigt Hill
#
# Bulk Modulus (GPa) = 35.36476 37.78054 36.57265
# Shear Modulus (GPa) = 30.46625 32.67669 31.57147
#
# Velocity S-wave (km/s) = 3.69615 3.82788 3.76259
# Velocity P-wave (km/s) = 5.83724 6.03972 5.93934
#
# Compressibility (1/GPa) = 0.02827673
#
# Stress axis : x y z
#
# Youngs Moduli (GPa) = 79.95358 65.58125 58.49425
#
# Poissons Ratio (x) = 0.12462 0.30854
# Poissons Ratio (y) = 0.15194 0.06506
# Poissons Ratio (z) = 0.42173 0.07294
#
# Static dielectric constant tensor:
#      x y z
#    x 1.831940 0.000000 -0.012670 
#    y 0.000000 1.950290 0.000000 
#    z -0.012670 0.000000 1.799390 
# 
# From -- ./inp_files/312305.got.cif
#   From: 2010.05.17/outbox.cif.g08.bks.cpg/sg15_157_cif.got.tgz:312305.got - 2010.06.03 18:47:42.
