data_PCOD9288638
_publ_section_title
;
Structure prediction by ZEFSAII (Michael W. Deem and Ramdas Pophale) SiO2 
 PCOD9288638
Probable space group: C 2/C
;
_chemical_formula_sum "Si O2"
_cell_formula_units_Z 64
_cell_length_a 25.570032
_cell_length_b 8.656439
_cell_length_c 17.287426
_cell_angle_alpha 90.000000
_cell_angle_beta 46.815521
_cell_angle_gamma 90.000000
_cell_volume 2790.102541
_symmetry_space_group_name_H-M "C 2/C"
_symmetry_group_IT_number 15
_symmetry_cell_setting 'monoclinic'
loop_
_space_group_symop_operation_xyz
x,y,z
-x,y,1/2-z
-x,-y,-z
x,-y,1/2+z
1/2+x,1/2+y,z
1/2-x,1/2+y,1/2-z
1/2-x,1/2-y,-z
1/2+x,1/2-y,1/2+z
loop_
_atom_site_type_symbol
_atom_site_label
_atom_site_fract_x
_atom_site_fract_y
_atom_site_fract_z
Si Si1 0.569217 0.989234 0.313091
Si Si2 0.316295 0.491739 0.250773
Si Si3 0.140575 0.344944 0.608330
Si Si4 0.908435 0.156446 0.397166
Si Si5 0.188185 0.359886 0.797183
Si Si6 0.289997 0.489638 0.454401
Si Si7 0.450527 0.623852 0.180485
Si Si8 0.911192 0.467345 0.467429
O O1 0.578174 0.096352 0.227825
O O2 0.637963 0.036747 0.293191
O O3 0.569206 0.804288 0.306473
O O4 0.487644 0.015356 0.424536
O O5 0.267201 0.579224 0.238206
O O6 0.308090 0.310395 0.242291
O O7 0.289000 0.537576 0.365002
O O8 0.400544 0.532809 0.171909
O O9 0.210043 0.446930 0.559173
O O10 0.164263 0.169060 0.591426
O O11 0.123248 0.384558 0.537318
O O12 0.930422 0.092132 0.290450
O O13 0.920991 0.339976 0.389224
O O14 0.963759 0.096719 0.406329
O O15 0.825928 0.107267 0.478513
O O16 0.141127 0.375773 0.922841
#
# Coordination Sequence:
#
# PCOD9288638 Si02
#       8
#     8   8   8   8   8   8   8   8
#     4  11  22  41  65  92 127 168 209 263 319 377
#     4  11  23  42  61  88 127 170 214 255 320 381
#     4  11  21  40  66  93 127 159 212 266 320 365
#     4   9  19  37  62  91 125 156 208 262 315 369
#     4  12  25  42  61  92 130 174 209 259 319 387
#     4  10  22  39  62  96 127 158 208 269 313 375
#     4   9  19  38  63  90 120 163 210 261 310 377
#     4  11  23  41  63  96 125 166 215 260 318 386
#
# _framework density 22.938226
#
# number of rings (size 3 to 8) (size 9 to 14) (size 15 to 20)
#    0.000    1.500    3.750    1.500    0.000    3.500 
#    4.500    2.500    0.000    0.000    0.000    0.000 
#    0.000    0.000    0.000    0.000    0.000    0.000 
#
# Total GULP energy -178509.645306 kJ/mol
# GULP energy per Si atom -5578.426416 kJ/mol
# Density = 2.288602 g / cm^3
# Si number density = 22.938226 Si / 1000 Ang^3
#
#
#
# Elastic Constant Matrix: (Units=GPa)
#
#
# Indices 1 2 3 4 5 6 
#
# 1 174.4799 62.0651 12.8349 -0.0005 -23.8066 0.0004
# 2 62.0651 40.2803 -5.2285 0.0005 -9.3700 0.0006
# 3 12.8349 -5.2285 27.7876 0.0005 -0.1446 0.0002
# 4 -0.0005 0.0005 0.0005 15.2999 0.0003 -4.6811
# 5 -23.8066 -9.3700 -0.1446 0.0003 21.5097 -0.0003
# 6 0.0004 0.0006 0.0002 -4.6811 -0.0003 47.3905
#
#
#
# Elastic Compliance Matrix: (Units=1/GPa)
#
#
# Indices 1 2 3 4 5 6 
#
# 1 0.016905 -0.025992 -0.012661 0.000002 0.007302 0.000000
# 2 -0.025992 0.068381 0.024879 -0.000004 0.001188 -0.000001
# 3 -0.012661 0.024879 0.046502 -0.000003 -0.002863 -0.000001
# 4 0.000002 -0.000004 -0.000003 0.067397 -0.000001 0.006657
# 5 0.007302 0.001188 -0.002863 -0.000001 0.055071 0.000000
# 6 0.000000 -0.000001 -0.000001 0.006657 0.000000 0.021759
#
#
# Mechanical properties :
#
#
# Convention : Reuss Voigt Hill
#
# Bulk Modulus (GPa) = 9.59341 42.43230 26.01286
# Shear Modulus (GPa) = 14.77935 28.36511 21.57223
#
# Velocity S-wave (km/s) = 2.54108 3.52033 3.07000
# Velocity P-wave (km/s) = 3.57782 5.92134 4.89199
#
# Compressibility (1/GPa) = 0.10423824
#
# Stress axis : x y z
#
# Youngs Moduli (GPa) = 59.15462 14.62387 21.50465
#
# Poissons Ratio (x) = 0.38011 0.27227
# Poissons Ratio (y) = 1.53757 -0.53500
# Poissons Ratio (z) = 0.74895 -0.36382
#
# Static dielectric constant tensor:
#      x y z
#    x 1.921540 0.000000 -0.001240 
#    y 0.000000 1.834320 0.000000 
#    z -0.001240 0.000000 1.970080 
# 
# From -- ./inp_files/255015.got.cif
#   From: 2010.05.17/outbox.cif.g08.bks.cpg/sg15_128_cif.got.tgz:255015.got - 2010.06.03 18:47:42.
