data_PCOD9288140
_publ_section_title
;
Structure prediction by ZEFSAII (Michael W. Deem and Ramdas Pophale) SiO2 
 PCOD9288140
Probable space group: C 2/C
;
_chemical_formula_sum "Si O2"
_cell_formula_units_Z 64
_cell_length_a 28.954451
_cell_length_b 14.855886
_cell_length_c 11.226419
_cell_angle_alpha 90.000000
_cell_angle_beta 43.817522
_cell_angle_gamma 90.000000
_cell_volume 3343.409217
_symmetry_space_group_name_H-M "C 2/C"
_symmetry_group_IT_number 15
_symmetry_cell_setting 'monoclinic'
loop_
_space_group_symop_operation_xyz
x,y,z
-x,y,1/2-z
-x,-y,-z
x,-y,1/2+z
1/2+x,1/2+y,z
1/2-x,1/2+y,1/2-z
1/2-x,1/2-y,-z
1/2+x,1/2-y,1/2+z
loop_
_atom_site_type_symbol
_atom_site_label
_atom_site_fract_x
_atom_site_fract_y
_atom_site_fract_z
Si Si1 0.397024 0.297004 0.859251
Si Si2 0.248261 0.135239 0.381507
Si Si3 0.643478 0.212706 0.139327
Si Si4 0.723023 0.570128 0.942653
Si Si5 0.466143 0.968445 0.440549
Si Si6 0.037122 0.746925 0.518923
Si Si7 0.192581 0.623147 0.491516
Si Si8 0.153174 0.555068 0.952478
O O1 0.464678 0.292448 0.656474
O O2 0.420737 0.289126 0.951660
O O3 0.347483 0.381055 0.941109
O O4 0.357149 0.205958 0.902209
O O5 0.312439 0.159947 0.342796
O O6 0.192182 0.209511 0.504804
O O7 0.269951 0.136075 0.203755
O O8 0.220850 0.037000 0.466457
O O9 0.578168 0.252698 0.321756
O O10 0.626180 0.142678 0.068061
O O11 0.773832 0.579021 0.735907
O O12 0.758499 0.616226 0.988904
O O13 0.500000 0.993228 0.250000
O O14 0.466412 0.859987 0.445231
O O15 0.500000 0.000000 0.500000
O O16 0.393564 0.015116 0.564286
O O17 0.157236 0.526748 0.539006
#
# Coordination Sequence:
#
# PCOD9288140 Si02
#       8
#     8   8   8   8   8   8   8   8
#     4  11  22  38  59  91 124 166 210 258 312 378
#     4  10  22  38  64  92 123 163 210 259 317 376
#     4  11  21  40  64  91 125 166 208 257 317 384
#     4  11  24  38  63  94 125 160 214 268 313 369
#     4  12  24  40  64  95 136 173 210 261 319 399
#     4  11  22  39  63  87 127 171 214 252 314 391
#     4  11  20  39  59  92 129 158 202 264 318 378
#     4  11  23  37  65  98 125 165 208 254 332 379
#
# _framework density 19.142137999999999
#
# number of rings (size 3 to 8) (size 9 to 14) (size 15 to 20)
#    0.000    1.000    5.000    2.625    5.250    0.000 
#    0.000    0.625    0.000    0.000    0.000    0.000 
#    0.000    0.000    0.000    0.000    0.000    0.000 
#
# Total GULP energy -178828.684584 kJ/mol
# GULP energy per Si atom -5588.396393 kJ/mol
# Density = 1.909857 g / cm^3
# Si number density = 19.142138 Si / 1000 Ang^3
#
#
#
# Elastic Constant Matrix: (Units=GPa)
#
#
# Indices 1 2 3 4 5 6 
#
# 1 59.7002 13.3204 10.5785 0.0000 -13.3930 0.0000
# 2 13.3204 47.5544 23.5347 0.0000 -17.9690 0.0000
# 3 10.5785 23.5347 63.0525 0.0000 -13.4397 0.0000
# 4 0.0000 0.0000 0.0000 17.2871 0.0000 -4.5248
# 5 -13.3930 -17.9690 -13.4397 0.0000 27.6627 0.0000
# 6 0.0000 0.0000 0.0000 -4.5248 0.0000 28.4452
#
#
#
# Elastic Compliance Matrix: (Units=1/GPa)
#
#
# Indices 1 2 3 4 5 6 
#
# 1 0.019038 -0.002114 -0.000818 0.000000 0.007447 0.000000
# 2 -0.002114 0.031480 -0.008093 0.000000 0.015493 0.000000
# 3 -0.000818 -0.008093 0.019871 0.000000 0.004001 0.000000
# 4 0.000000 0.000000 0.000000 0.060360 0.000000 0.009602
# 5 0.007447 0.015493 0.004001 0.000000 0.051763 0.000000
# 6 0.000000 0.000000 0.000000 0.009602 0.000000 0.036683
#
#
# Mechanical properties :
#
#
# Convention : Reuss Voigt Hill
#
# Bulk Modulus (GPa) = 20.68737 29.46384 25.07561
# Shear Modulus (GPa) = 19.42828 22.87054 21.14941
#
# Velocity S-wave (km/s) = 3.18928 3.46030 3.32755
# Velocity P-wave (km/s) = 4.93890 5.60272 5.28125
#
# Compressibility (1/GPa) = 0.04833867
#
# Stress axis : x y z
#
# Youngs Moduli (GPa) = 52.52788 31.76587 50.32562
#
# Poissons Ratio (x) = 0.06716 0.04115
# Poissons Ratio (y) = 0.11105 0.40729
# Poissons Ratio (z) = 0.04295 0.25708
#
# Static dielectric constant tensor:
#      x y z
#    x 1.674930 0.000000 -0.009530 
#    y 0.000000 1.657410 0.000000 
#    z -0.009530 0.000000 1.704220 
# 
# From -- ./inp_files/126862.got.cif
#   From: 2010.05.17/outbox.cif.g08.bks.cpg/sg15_64_cif.got.tgz:126862.got - 2010.06.03 18:47:42.
