data_PCOD9288064
_publ_section_title
;
Structure prediction by ZEFSAII (Michael W. Deem and Ramdas Pophale) SiO2 
 PCOD9288064
Probable space group: C 2/C
;
_chemical_formula_sum "Si O2"
_cell_formula_units_Z 48
_cell_length_a 33.160738
_cell_length_b 5.078971
_cell_length_c 15.980604
_cell_angle_alpha 90.000000
_cell_angle_beta 123.367308
_cell_angle_gamma 90.000000
_cell_volume 2247.831451
_symmetry_space_group_name_H-M "C 2/C"
_symmetry_group_IT_number 15
_symmetry_cell_setting 'monoclinic'
loop_
_space_group_symop_operation_xyz
x,y,z
-x,y,1/2-z
-x,-y,-z
x,-y,1/2+z
1/2+x,1/2+y,z
1/2-x,1/2+y,1/2-z
1/2-x,1/2-y,-z
1/2+x,1/2-y,1/2+z
loop_
_atom_site_type_symbol
_atom_site_label
_atom_site_fract_x
_atom_site_fract_y
_atom_site_fract_z
Si Si1 0.860099 0.235026 0.530810
Si Si2 0.284549 0.998983 0.030655
Si Si3 0.446880 0.004954 0.224487
Si Si4 0.892740 0.108024 0.392147
Si Si5 0.637227 0.339922 0.816838
Si Si6 0.449971 0.127491 0.415306
O O1 0.817096 0.448615 0.485133
O O2 0.911774 0.359968 0.616258
O O3 0.865060 0.101100 0.447404
O O4 0.847842 0.033842 0.591806
O O5 0.250000 0.250000 0.000000
O O6 0.250000 0.750000 0.000000
O O7 0.328400 0.917749 0.143549
O O8 0.500000 0.954497 0.250000
O O9 0.450560 0.164969 0.315644
O O10 0.416778 0.749844 0.219517
O O11 0.862843 0.035583 0.274778
O O12 0.910772 0.405845 0.396214
O O13 0.936749 0.901300 0.443907
O O14 0.500000 0.000000 0.500000
#
# Coordination Sequence:
#
# PCOD9288064 Si02
#       6
#     8   8   8   8   8   8
#     4  11  23  42  69  95 133 182 225 270 356 406
#     4  11  23  43  74  97 127 167 215 279 344 413
#     4  10  22  38  62  96 134 182 231 276 333 405
#     4  11  25  41  64  93 137 175 225 281 334 406
#     4  10  23  44  65  98 136 176 224 281 347 399
#     4  11  23  40  59  93 133 178 231 285 331 381
#
# _framework density 21.353915000000001
#
# number of rings (size 3 to 8) (size 9 to 14) (size 15 to 20)
#    0.000    1.333    3.333    1.500    7.000    0.667 
#    0.000    1.667    0.000    0.000    0.000    0.000 
#    0.000    0.000    0.000    0.000    0.000    0.000 
#
# Total GULP energy -133893.538174 kJ/mol
# GULP energy per Si atom -5578.897424 kJ/mol
# Density = 2.130531 g / cm^3
# Si number density = 21.353915 Si / 1000 Ang^3
#
#
#
# Elastic Constant Matrix: (Units=GPa)
#
#
# Indices 1 2 3 4 5 6 
#
# 1 146.0454 47.7124 71.8787 0.0001 8.9786 -0.0002
# 2 47.7124 103.4377 33.9715 0.0005 1.3563 -0.0005
# 3 71.8787 33.9715 82.2050 -0.0001 -27.5404 0.0000
# 4 0.0001 0.0005 -0.0001 31.1459 0.0000 7.3326
# 5 8.9786 1.3563 -27.5404 0.0000 39.8440 0.0001
# 6 -0.0002 -0.0005 0.0000 7.3326 0.0001 37.8861
#
#
#
# Elastic Compliance Matrix: (Units=1/GPa)
#
#
# Indices 1 2 3 4 5 6 
#
# 1 0.021149 -0.001070 -0.025551 0.000000 -0.022390 0.000000
# 2 -0.001070 0.011945 -0.005278 0.000000 -0.003814 0.000000
# 3 -0.025551 -0.005278 0.050332 0.000000 0.040727 0.000000
# 4 0.000000 0.000000 0.000000 0.033640 0.000000 -0.006511
# 5 -0.022390 -0.003814 0.040727 0.000000 0.058424 0.000000
# 6 0.000000 0.000000 0.000000 -0.006511 0.000000 0.027655
#
#
# Mechanical properties :
#
#
# Convention : Reuss Voigt Hill
#
# Bulk Modulus (GPa) = 50.95170 70.97927 60.96549
# Shear Modulus (GPa) = 18.28250 33.65023 25.96636
#
# Velocity S-wave (km/s) = 2.92921 3.97398 3.49090
# Velocity P-wave (km/s) = 5.94582 7.37349 6.69780
#
# Compressibility (1/GPa) = 0.01962643
#
# Stress axis : x y z
#
# Youngs Moduli (GPa) = 47.28424 83.71865 19.86806
#
# Poissons Ratio (x) = 0.08958 0.50765
# Poissons Ratio (y) = 0.05059 0.10487
# Poissons Ratio (z) = 1.20817 0.44190
#
# Static dielectric constant tensor:
#      x y z
#    x 1.765770 0.000000 0.028180 
#    y 0.000000 1.880350 0.000000 
#    z 0.028180 0.000000 1.826160 
# 
# From -- ./inp_files/179790.got.cif
#   From: 2010.05.17/outbox.cif.g08.bks.cpg/sg15_90_cif.got.tgz:179790.got - 2010.06.03 18:47:42.
