data_PCOD9288170
_publ_section_title
;
Structure prediction by ZEFSAII (Michael W. Deem and Ramdas Pophale) SiO2 
 PCOD9288170
Probable space group: C 2/C
;
_chemical_formula_sum "Si O2"
_cell_formula_units_Z 24
_cell_length_a 17.200331
_cell_length_b 13.467032
_cell_length_c 8.237094
_cell_angle_alpha 90.000000
_cell_angle_beta 27.013774
_cell_angle_gamma 90.000000
_cell_volume 866.631218
_symmetry_space_group_name_H-M "C 2/C"
_symmetry_group_IT_number 15
_symmetry_cell_setting 'monoclinic'
loop_
_space_group_symop_operation_xyz
x,y,z
-x,y,1/2-z
-x,-y,-z
x,-y,1/2+z
1/2+x,1/2+y,z
1/2-x,1/2+y,1/2-z
1/2-x,1/2-y,-z
1/2+x,1/2-y,1/2+z
loop_
_atom_site_type_symbol
_atom_site_label
_atom_site_fract_x
_atom_site_fract_y
_atom_site_fract_z
Si Si1 0.731281 0.042283 0.196173
Si Si2 0.362782 0.864574 0.295074
Si Si3 0.565595 0.297175 0.304421
O O1 0.734375 0.092254 0.367533
O O2 0.553805 0.087087 0.456846
O O3 0.717427 0.923756 0.208632
O O4 0.886444 0.087831 0.804230
O O5 0.418233 0.748440 0.192938
O O6 0.500000 0.261593 0.250000
O O7 0.750000 0.250000 0.000000
#
# Coordination Sequence:
#
# PCOD9288170 Si02
#       3
#     8   8   8
#     4   9  19  36  62  95 123 171 223 261 325 395
#     4   9  19  35  65  90 127 174 213 268 328 387
#     4  10  22  38  64  95 132 169 219 270 325 394
#
# _framework density 27.693439000000001
#
# number of rings (size 3 to 8) (size 9 to 14) (size 15 to 20)
#    0.000    2.667    0.000    0.000   14.000    1.333 
#    0.000    1.667    0.000    0.000    0.000    0.000 
#    0.000    0.000    0.000    0.000    0.000    0.000 
#
# Total GULP energy -66963.172315 kJ/mol
# GULP energy per Si atom -5580.264360 kJ/mol
# Density = 2.763041 g / cm^3
# Si number density = 27.693439 Si / 1000 Ang^3
#
#
#
# Elastic Constant Matrix: (Units=GPa)
#
#
# Indices 1 2 3 4 5 6 
#
# 1 95.7840 12.7897 7.1444 -0.0003 -8.0463 0.0001
# 2 12.7897 158.8424 53.0042 -0.0002 35.6461 0.0001
# 3 7.1444 53.0042 169.8541 -0.0003 -9.7871 0.0003
# 4 -0.0003 -0.0002 -0.0003 40.6782 0.0003 5.5863
# 5 -8.0463 35.6461 -9.7871 0.0003 33.0530 -0.0002
# 6 0.0001 0.0001 0.0003 5.5863 -0.0002 27.2622
#
#
#
# Elastic Compliance Matrix: (Units=1/GPa)
#
#
# Indices 1 2 3 4 5 6 
#
# 1 0.011151 -0.002278 0.000549 0.000000 0.005334 0.000000
# 2 -0.002278 0.010860 -0.004069 0.000000 -0.013472 0.000000
# 3 0.000549 -0.004069 0.007523 0.000000 0.006750 0.000000
# 4 0.000000 0.000000 0.000000 0.025295 0.000000 -0.005183
# 5 0.005334 -0.013472 0.006750 0.000000 0.048080 0.000000
# 6 0.000000 0.000000 0.000000 -0.005183 0.000000 0.037743
#
#
# Mechanical properties :
#
#
# Convention : Reuss Voigt Hill
#
# Bulk Modulus (GPa) = 55.74777 63.37303 59.56040
# Shear Modulus (GPa) = 31.59979 43.63483 37.61731
#
# Velocity S-wave (km/s) = 3.38162 3.97374 3.68957
# Velocity P-wave (km/s) = 5.95157 6.63231 6.30114
#
# Compressibility (1/GPa) = 0.01793794
#
# Stress axis : x y z
#
# Youngs Moduli (GPa) = 89.67408 92.08024 132.92355
#
# Poissons Ratio (x) = 0.20978 -0.07301
# Poissons Ratio (y) = 0.20430 0.54092
# Poissons Ratio (z) = -0.04925 0.37471
#
# Static dielectric constant tensor:
#      x y z
#    x 2.248120 0.000000 0.127440 
#    y 0.000000 2.228130 0.000000 
#    z 0.127440 0.000000 2.477560 
# 
# From -- ./inp_files/21163.got.cif
#   From: 2010.05.17/outbox.cif.g08.bks.cpg/sg15_11_cif.got.tgz:21163.got - 2010.06.03 18:47:42.
