data_PCOD9288309
_publ_section_title
;
Structure prediction by ZEFSAII (Michael W. Deem and Ramdas Pophale) SiO2 
 PCOD9288309
Probable space group: C 2/C
;
_chemical_formula_sum "Si O2"
_cell_formula_units_Z 40
_cell_length_a 14.861608
_cell_length_b 17.402961
_cell_length_c 9.687075
_cell_angle_alpha 90.000000
_cell_angle_beta 137.170353
_cell_angle_gamma 90.000000
_cell_volume 1703.241012
_symmetry_space_group_name_H-M "C 2/C"
_symmetry_group_IT_number 15
_symmetry_cell_setting 'monoclinic'
loop_
_space_group_symop_operation_xyz
x,y,z
-x,y,1/2-z
-x,-y,-z
x,-y,1/2+z
1/2+x,1/2+y,z
1/2-x,1/2+y,1/2-z
1/2-x,1/2-y,-z
1/2+x,1/2-y,1/2+z
loop_
_atom_site_type_symbol
_atom_site_label
_atom_site_fract_x
_atom_site_fract_y
_atom_site_fract_z
Si Si1 0.156314 0.892637 0.181562
Si Si2 0.000000 0.082422 0.250000
Si Si3 0.778702 0.526420 0.453121
Si Si4 0.405064 0.791468 0.429117
Si Si5 0.000000 0.411134 0.750000
Si Si6 0.500000 0.155722 0.750000
Si Si7 0.000000 0.833130 0.250000
O O1 0.256394 0.823401 0.264943
O O2 0.100387 0.882194 0.272474
O O3 0.229843 0.975913 0.264964
O O4 0.038024 0.883460 0.941014
O O5 0.142999 0.046197 0.376149
O O6 0.874111 0.464409 0.631350
O O7 0.876150 0.601117 0.560652
O O8 0.483693 0.858298 0.598743
O O9 0.453100 0.792987 0.326091
O O10 0.425333 0.719162 0.551965
#
# Coordination Sequence:
#
# PCOD9288309 Si02
#       7
#     8   4   8   8   4   4   4
#     4  11  24  44  66 102 139 185 226 278 353 403
#     4  12  23  41  61 105 143 179 220 280 350 416
#     4  10  22  38  68 101 146 173 218 282 349 419
#     4  10  22  45  70  99 130 184 233 287 327 410
#     4   8  20  38  67  95 132 182 226 268 342 396
#     4  11  22  42  74 108 134 176 231 284 350 399
#     4  11  25  49  68  94 135 183 241 286 336 407
#
# _framework density 23.484638
#
# number of rings (size 3 to 8) (size 9 to 14) (size 15 to 20)
#    0.000    1.600    2.000    1.800    2.800    3.200 
#   10.800    2.000    0.000    0.000    0.000    0.000 
#    0.000    0.000    0.000    0.000    0.000    0.000 
#
# Total GULP energy -111550.149043 kJ/mol
# GULP energy per Si atom -5577.507452 kJ/mol
# Density = 2.343119 g / cm^3
# Si number density = 23.484638 Si / 1000 Ang^3
#
#
#
# Elastic Constant Matrix: (Units=GPa)
#
#
# Indices 1 2 3 4 5 6 
#
# 1 152.4281 33.8697 74.7861 0.0000 -5.6400 0.0000
# 2 33.8697 50.8148 42.1970 0.0000 -5.9621 0.0000
# 3 74.7861 42.1970 154.3912 0.0000 -1.6742 0.0000
# 4 0.0000 0.0000 0.0000 -10.1232 0.0000 6.4268
# 5 -5.6400 -5.9621 -1.6742 0.0000 48.2463 0.0000
# 6 0.0000 0.0000 0.0000 6.4268 0.0000 12.1778
#
#
#
# Elastic Compliance Matrix: (Units=1/GPa)
#
#
# Indices 1 2 3 4 5 6 
#
# 1 0.008974 -0.002990 -0.003524 0.000000 0.000557 0.000000
# 2 -0.002990 0.026867 -0.005865 0.000000 0.002767 0.000000
# 3 -0.003524 -0.005865 0.009778 0.000000 -0.000797 0.000000
# 4 0.000000 0.000000 0.000000 -0.073992 0.000000 0.039049
# 5 0.000557 0.002767 -0.000797 0.000000 0.021106 0.000000
# 6 0.000000 0.000000 0.000000 0.039049 0.000000 0.061508
#
#
# Mechanical properties :
#
#
# Convention : Reuss Voigt Hill
#
# Bulk Modulus (GPa) = 47.93316 73.25996 60.59656
# Shear Modulus (GPa) = 58.17098 23.84561 41.00830
#
# Velocity S-wave (km/s) = 4.98233 3.18995 4.18326
# Velocity P-wave (km/s) = 7.31798 6.69554 7.01367
#
# Compressibility (1/GPa) = 0.02086239
#
# Stress axis : x y z
#
# Youngs Moduli (GPa) = 111.42770 37.22027 102.26785
#
# Poissons Ratio (x) = 0.11129 0.36038
# Poissons Ratio (y) = 0.33318 0.59977
# Poissons Ratio (z) = 0.39266 0.21829
#
# Static dielectric constant tensor:
#      x y z
#    x 1.889980 0.000000 -0.027270 
#    y 0.000000 1.941090 0.000000 
#    z -0.027270 0.000000 1.906350 
# 
# From -- ./inp_files/42469.got.cif
#   From: 2010.05.17/outbox.cif.g08.bks.cpg/sg15_22_cif.got.tgz:42469.got - 2010.06.03 18:47:42.
