data_PCOD9288050
_publ_section_title
;
Structure prediction by ZEFSAII (Michael W. Deem and Ramdas Pophale) SiO2 
 PCOD9288050
Probable space group: C 2/C
;
_chemical_formula_sum "Si O2"
_cell_formula_units_Z 48
_cell_length_a 26.456833
_cell_length_b 19.577802
_cell_length_c 9.903041
_cell_angle_alpha 90.000000
_cell_angle_beta 29.574709
_cell_angle_gamma 90.000000
_cell_volume 2531.678613
_symmetry_space_group_name_H-M "C 2/C"
_symmetry_group_IT_number 15
_symmetry_cell_setting 'monoclinic'
loop_
_space_group_symop_operation_xyz
x,y,z
-x,y,1/2-z
-x,-y,-z
x,-y,1/2+z
1/2+x,1/2+y,z
1/2-x,1/2+y,1/2-z
1/2-x,1/2-y,-z
1/2+x,1/2-y,1/2+z
loop_
_atom_site_type_symbol
_atom_site_label
_atom_site_fract_x
_atom_site_fract_y
_atom_site_fract_z
Si Si1 0.213731 0.552845 0.072705
Si Si2 0.503442 0.881561 0.456091
Si Si3 0.603222 0.680895 0.577325
Si Si4 0.330076 0.309470 0.277283
Si Si5 0.500000 0.237440 0.750000
Si Si6 0.500000 0.813885 0.750000
Si Si7 0.273008 0.928527 0.645974
O O1 0.236963 0.546241 0.177163
O O2 0.092330 0.567879 0.339329
O O3 0.269107 0.621357 0.892437
O O4 0.251270 0.488027 0.902517
O O5 0.486737 0.812682 0.407984
O O6 0.513737 0.859695 0.587044
O O7 0.608926 0.910619 0.154510
O O8 0.604034 0.679126 0.738429
O O9 0.594195 0.760555 0.554588
O O10 0.701606 0.638476 0.300904
O O11 0.500000 0.650574 0.750000
O O12 0.250000 0.250000 0.500000
O O13 0.400364 0.284671 0.991132
#
# Coordination Sequence:
#
# PCOD9288050 Si02
#       7
#     8   8   8   8   4   4   8
#     4  11  24  43  61  93 128 164 209 264 306 381
#     4  12  22  38  66  93 125 161 207 264 322 377
#     4   9  20  43  59  88 132 159 201 270 309 361
#     4  11  20  40  67  92 128 160 214 267 312 377
#     4  12  18  38  66  94 114 168 202 258 332 356
#     4  10  22  38  62  94 126 156 200 264 314 360
#     4  11  24  42  63  88 124 173 208 251 321 382
#
# _framework density 18.959752000000002
#
# number of rings (size 3 to 8) (size 9 to 14) (size 15 to 20)
#    0.500    0.667    5.000    1.500    2.333    0.667 
#    7.500    1.667    0.000    0.000    0.000    0.000 
#    0.000    0.000    0.000    0.000    0.000    0.000 
#
# Total GULP energy -133922.218073 kJ/mol
# GULP energy per Si atom -5580.092420 kJ/mol
# Density = 1.891660 g / cm^3
# Si number density = 18.959752 Si / 1000 Ang^3
#
#
#
# Elastic Constant Matrix: (Units=GPa)
#
#
# Indices 1 2 3 4 5 6 
#
# 1 46.0141 -4.3291 -4.3307 0.0000 8.5751 0.0000
# 2 -4.3291 42.5558 9.8175 0.0000 9.9140 0.0000
# 3 -4.3307 9.8175 61.7330 0.0000 10.1619 0.0000
# 4 0.0000 0.0000 0.0000 31.0891 0.0000 14.8966
# 5 8.5751 9.9140 10.1619 0.0000 30.2518 0.0000
# 6 0.0000 0.0000 0.0000 14.8966 0.0000 12.5566
#
#
#
# Elastic Compliance Matrix: (Units=1/GPa)
#
#
# Indices 1 2 3 4 5 6 
#
# 1 0.024009 0.003943 0.002530 0.000000 -0.008948 0.000000
# 2 0.003943 0.026564 -0.002467 0.000000 -0.008995 0.000000
# 3 0.002530 -0.002467 0.017734 0.000000 -0.005866 0.000000
# 4 0.000000 0.000000 0.000000 0.074535 0.000000 -0.088425
# 5 -0.008948 -0.008995 -0.005866 0.000000 0.040510 0.000000
# 6 0.000000 0.000000 0.000000 -0.088425 0.000000 0.184543
#
#
# Mechanical properties :
#
#
# Convention : Reuss Voigt Hill
#
# Bulk Modulus (GPa) = 13.10280 16.95758 15.03019
# Shear Modulus (GPa) = 12.97610 24.72252 18.84931
#
# Velocity S-wave (km/s) = 2.61895 3.61494 3.15647
# Velocity P-wave (km/s) = 4.00887 5.13684 4.60750
#
# Compressibility (1/GPa) = 0.07631954
#
# Stress axis : x y z
#
# Youngs Moduli (GPa) = 41.65093 37.64454 56.38813
#
# Poissons Ratio (x) = -0.14844 -0.14267
# Poissons Ratio (y) = -0.16424 0.13913
# Poissons Ratio (z) = -0.10538 0.09288
#
# Static dielectric constant tensor:
#      x y z
#    x 1.690410 0.000000 -0.018760 
#    y 0.000000 1.672080 0.000000 
#    z -0.018760 0.000000 1.633700 
# 
# From -- ./inp_files/67491.got.cif
#   From: 2010.05.17/outbox.cif.g08.bks.cpg/sg15_34_cif.got.tgz:67491.got - 2010.06.03 18:47:42.
