data_PCOD9288501
_publ_section_title
;
Structure prediction by ZEFSAII (Michael W. Deem and Ramdas Pophale) SiO2 
 PCOD9288501
Probable space group: C 2/C
;
_chemical_formula_sum "Si O2"
_cell_formula_units_Z 48
_cell_length_a 13.823516
_cell_length_b 5.161655
_cell_length_c 25.489356
_cell_angle_alpha 90.000000
_cell_angle_beta 85.752548
_cell_angle_gamma 90.000000
_cell_volume 1813.726992
_symmetry_space_group_name_H-M "C 2/C"
_symmetry_group_IT_number 15
_symmetry_cell_setting 'monoclinic'
loop_
_space_group_symop_operation_xyz
x,y,z
-x,y,1/2-z
-x,-y,-z
x,-y,1/2+z
1/2+x,1/2+y,z
1/2-x,1/2+y,1/2-z
1/2-x,1/2-y,-z
1/2+x,1/2-y,1/2+z
loop_
_atom_site_type_symbol
_atom_site_label
_atom_site_fract_x
_atom_site_fract_y
_atom_site_fract_z
Si Si1 0.209751 0.012524 0.077162
Si Si2 0.118192 0.807041 0.804519
Si Si3 0.047699 0.247924 0.024940
Si Si4 0.373565 0.215559 0.130403
Si Si5 0.078901 0.600535 0.111641
Si Si6 0.110870 0.781961 0.687862
O O1 0.158351 0.154008 0.030861
O O2 0.318825 0.105845 0.081367
O O3 0.168754 0.085176 0.137761
O O4 0.170605 0.717057 0.076999
O O5 0.128028 0.520577 0.828204
O O6 0.155026 0.819323 0.743352
O O7 0.002238 0.861141 0.805057
O O8 0.164142 0.022558 0.840964
O O9 0.034911 0.343266 0.085865
O O10 0.000000 0.500000 0.000000
O O11 0.000000 0.000000 0.000000
O O12 0.484988 0.277978 0.112034
O O13 0.105876 0.518595 0.169158
#
# Coordination Sequence:
#
# PCOD9288501 Si02
#       6
#     8   8   8   8   8   8
#     4  11  23  41  69  91 131 166 213 269 329 384
#     4  10  22  39  60  93 133 171 223 259 307 380
#     4  11  23  43  71  96 121 166 213 265 337 405
#     4  11  25  39  63  97 129 172 216 264 318 383
#     4  10  22  44  67  94 132 171 215 268 331 389
#     4   9  21  37  64  90 129 180 212 263 318 365
#
# _framework density 26.464845
#
# number of rings (size 3 to 8) (size 9 to 14) (size 15 to 20)
#    0.000    1.667    3.333    0.000    7.000    2.667 
#    0.000    1.667    0.000    0.000    0.000    0.000 
#    0.000    0.000    0.000    0.000    0.000    0.000 
#
# Total GULP energy -133808.495673 kJ/mol
# GULP energy per Si atom -5575.353986 kJ/mol
# Density = 2.640461 g / cm^3
# Si number density = 26.464845 Si / 1000 Ang^3
#
#
#
# Elastic Constant Matrix: (Units=GPa)
#
#
# Indices 1 2 3 4 5 6 
#
# 1 85.5174 14.3521 8.6553 0.0000 25.5843 0.0000
# 2 14.3521 152.1843 42.3558 0.0000 11.3291 0.0000
# 3 8.6553 42.3558 110.6861 0.0000 15.4047 0.0000
# 4 0.0000 0.0000 0.0000 30.5120 0.0000 2.3876
# 5 25.5843 11.3291 15.4047 0.0000 42.8023 0.0000
# 6 0.0000 0.0000 0.0000 2.3876 0.0000 19.0010
#
#
#
# Elastic Compliance Matrix: (Units=1/GPa)
#
#
# Indices 1 2 3 4 5 6 
#
# 1 0.014332 -0.000825 0.000376 0.000000 -0.008484 0.000000
# 2 -0.000825 0.007441 -0.002713 0.000000 -0.000500 0.000000
# 3 0.000376 -0.002713 0.010501 0.000000 -0.003286 0.000000
# 4 0.000000 0.000000 0.000000 0.033099 0.000000 -0.004159
# 5 -0.008484 -0.000500 -0.003286 0.000000 0.029749 0.000000
# 6 0.000000 0.000000 0.000000 -0.004159 0.000000 0.053151
#
#
# Mechanical properties :
#
#
# Convention : Reuss Voigt Hill
#
# Bulk Modulus (GPa) = 38.53714 53.23491 45.88602
# Shear Modulus (GPa) = 30.62820 37.33137 33.97978
#
# Velocity S-wave (km/s) = 3.40563 3.75987 3.58713
# Velocity P-wave (km/s) = 5.48248 6.24563 5.87646
#
# Compressibility (1/GPa) = 0.02594899
#
# Stress axis : x y z
#
# Youngs Moduli (GPa) = 69.77420 134.38758 95.23104
#
# Poissons Ratio (x) = 0.11081 -0.03576
# Poissons Ratio (y) = 0.05753 0.25840
# Poissons Ratio (z) = -0.02620 0.36465
#
# Static dielectric constant tensor:
#      x y z
#    x 2.306310 0.000000 -0.046150 
#    y 0.000000 2.290850 0.000000 
#    z -0.046150 0.000000 2.075700 
# 
# From -- ./inp_files/312148.got.cif
#   From: 2010.05.17/outbox.cif.g08.bks.cpg/sg15_157_cif.got.tgz:312148.got - 2010.06.03 18:47:42.
