data_PCOD9288368
_publ_section_title
;
Structure prediction by ZEFSAII (Michael W. Deem and Ramdas Pophale) SiO2 
 PCOD9288368
Probable space group: C 2/C
;
_chemical_formula_sum "Si O2"
_cell_formula_units_Z 56
_cell_length_a 9.565041
_cell_length_b 18.234069
_cell_length_c 16.272451
_cell_angle_alpha 90.000000
_cell_angle_beta 113.159000
_cell_angle_gamma 90.000000
_cell_volume 2609.371612
_symmetry_space_group_name_H-M "C 2/C"
_symmetry_group_IT_number 15
_symmetry_cell_setting 'monoclinic'
loop_
_space_group_symop_operation_xyz
x,y,z
-x,y,1/2-z
-x,-y,-z
x,-y,1/2+z
1/2+x,1/2+y,z
1/2-x,1/2+y,1/2-z
1/2-x,1/2-y,-z
1/2+x,1/2-y,1/2+z
loop_
_atom_site_type_symbol
_atom_site_label
_atom_site_fract_x
_atom_site_fract_y
_atom_site_fract_z
Si Si1 0.317899 0.239362 0.303262
Si Si2 0.319719 0.103397 0.699122
Si Si3 0.174253 0.709029 0.372984
Si Si4 0.319009 0.520409 0.690513
Si Si5 0.211036 0.137776 0.953904
Si Si6 0.875821 0.137933 0.149750
Si Si7 0.930950 0.916925 0.482579
O O1 0.257850 0.322004 0.285110
O O2 0.498158 0.230565 0.341140
O O3 0.273555 0.198195 0.208093
O O4 0.243742 0.203104 0.366219
O O5 0.500000 0.111604 0.750000
O O6 0.266633 0.038361 0.746090
O O7 0.240410 0.087010 0.592932
O O8 0.252144 0.784261 0.422583
O O9 0.204122 0.640790 0.439242
O O10 0.500000 0.531447 0.750000
O O11 0.263812 0.574707 0.606171
O O12 0.296826 0.438087 0.656554
O O13 0.036874 0.127186 0.943095
O O14 0.000000 0.151557 0.250000
O O15 0.937486 0.121791 0.072948
O O16 0.000000 0.000000 0.500000
#
# Coordination Sequence:
#
# PCOD9288368 Si02
#       7
#     8   8   8   8   8   8   8
#     4  11  22  45  63  95 140 178 218 287 348 399
#     4  12  26  43  70 103 138 178 230 291 347 408
#     4  10  22  38  70  97 125 173 237 272 327 414
#     4  11  20  44  70  90 132 186 232 270 338 420
#     4  11  20  39  70  97 121 171 237 276 322 404
#     4  11  24  41  66  98 136 180 226 284 351 406
#     4  12  23  44  71 100 134 183 233 281 339 418
#
# _framework density 21.461105
#
# number of rings (size 3 to 8) (size 9 to 14) (size 15 to 20)
#    0.000    0.857    5.714    2.143    0.000    1.714 
#    5.143    1.429    0.000    0.000    0.000    0.000 
#    0.000    0.000    0.000    0.000    0.000    0.000 
#
# Total GULP energy -156271.874737 kJ/mol
# GULP energy per Si atom -5581.138383 kJ/mol
# Density = 2.141226 g / cm^3
# Si number density = 21.461105 Si / 1000 Ang^3
#
#
#
# Elastic Constant Matrix: (Units=GPa)
#
#
# Indices 1 2 3 4 5 6 
#
# 1 60.6739 -12.8666 15.2163 0.0000 6.5927 0.0000
# 2 -12.8666 26.5022 -4.1781 0.0000 2.6400 0.0000
# 3 15.2163 -4.1781 92.8214 0.0000 3.3210 0.0000
# 4 0.0000 0.0000 0.0000 26.2641 0.0000 -6.1430
# 5 6.5927 2.6400 3.3210 0.0000 37.4667 0.0000
# 6 0.0000 0.0000 0.0000 -6.1430 0.0000 19.8251
#
#
#
# Elastic Compliance Matrix: (Units=1/GPa)
#
#
# Indices 1 2 3 4 5 6 
#
# 1 0.019575 0.009473 -0.002644 0.000000 -0.003878 0.000000
# 2 0.009473 0.042890 0.000547 0.000000 -0.004737 0.000000
# 3 -0.002644 0.000547 0.011252 0.000000 -0.000571 0.000000
# 4 0.000000 0.000000 0.000000 0.041050 0.000000 0.012720
# 5 -0.003878 -0.004737 -0.000571 0.000000 0.027757 0.000000
# 6 0.000000 0.000000 0.000000 0.012720 0.000000 0.054382
#
#
# Mechanical properties :
#
#
# Convention : Reuss Voigt Hill
#
# Bulk Modulus (GPa) = 11.30342 19.59342 15.44842
# Shear Modulus (GPa) = 23.62470 28.83290 26.22880
#
# Velocity S-wave (km/s) = 3.32145 3.66935 3.49973
# Velocity P-wave (km/s) = 4.47077 5.20593 4.85229
#
# Compressibility (1/GPa) = 0.08846877
#
# Stress axis : x y z
#
# Youngs Moduli (GPa) = 51.08634 23.31554 88.87446
#
# Poissons Ratio (x) = -0.22086 0.23496
# Poissons Ratio (y) = -0.48393 -0.04863
# Poissons Ratio (z) = 0.13506 -0.01276
#
# Static dielectric constant tensor:
#      x y z
#    x 1.775130 0.000000 0.032260 
#    y 0.000000 1.765620 0.000000 
#    z 0.032260 0.000000 1.862040 
# 
# From -- ./inp_files/191036.got.cif
#   From: 2010.05.17/outbox.cif.g08.bks.cpg/sg15_96_cif.got.tgz:191036.got - 2010.06.03 18:47:42.
