data_PCOD9288380
_publ_section_title
;
Structure prediction by ZEFSAII (Michael W. Deem and Ramdas Pophale) SiO2 
 PCOD9288380
Probable space group: C 2/C
;
_chemical_formula_sum "Si O2"
_cell_formula_units_Z 56
_cell_length_a 18.179972
_cell_length_b 8.965300
_cell_length_c 16.653186
_cell_angle_alpha 90.000000
_cell_angle_beta 122.151199
_cell_angle_gamma 90.000000
_cell_volume 2298.040111
_symmetry_space_group_name_H-M "C 2/C"
_symmetry_group_IT_number 15
_symmetry_cell_setting 'monoclinic'
loop_
_space_group_symop_operation_xyz
x,y,z
-x,y,1/2-z
-x,-y,-z
x,-y,1/2+z
1/2+x,1/2+y,z
1/2-x,1/2+y,1/2-z
1/2-x,1/2-y,-z
1/2+x,1/2-y,1/2+z
loop_
_atom_site_type_symbol
_atom_site_label
_atom_site_fract_x
_atom_site_fract_y
_atom_site_fract_z
Si Si1 0.500000 0.084159 0.750000
Si Si2 0.790816 0.182334 0.444825
Si Si3 0.250524 0.917653 0.973779
Si Si4 0.611487 0.357546 0.760308
Si Si5 0.500000 0.395563 0.250000
Si Si6 0.768825 0.307366 0.274386
Si Si7 0.540344 0.160851 0.406807
Si Si8 0.855729 0.390377 0.883607
O O1 0.575696 0.199744 0.770195
O O2 0.466393 0.984662 0.656247
O O3 0.750000 0.250000 0.500000
O O4 0.734748 0.245767 0.339028
O O5 0.884498 0.264010 0.493528
O O6 0.774312 0.012113 0.461282
O O7 0.174978 0.929213 0.863341
O O8 0.336292 0.934097 0.965676
O O9 0.250000 0.750000 0.000000
O O10 0.542272 0.486453 0.712681
O O11 0.657381 0.312938 0.705556
O O12 0.544311 0.284764 0.338055
O O13 0.809900 0.471437 0.307785
O O14 0.695534 0.263599 0.167185
O O15 0.454106 0.136378 0.411900
#
# Coordination Sequence:
#
# PCOD9288380 Si02
#       8
#     4   8   8   8   4   8   8   8
#     4  10  22  38  74 100 130 184 230 292 344 422
#     4  12  27  46  69 103 146 190 234 302 363 425
#     4  11  26  46  70 102 140 190 233 297 358 432
#     4  10  22  45  66 101 136 181 234 289 352 426
#     4  10  22  42  70  98 138 178 238 288 346 428
#     4  11  26  44  73 100 144 187 241 292 369 425
#     4  11  25  43  72 105 139 185 237 292 360 421
#     4  11  26  47  73 105 142 189 241 297 354 442
#
# _framework density 24.368590000000001
#
# number of rings (size 3 to 8) (size 9 to 14) (size 15 to 20)
#    0.000    1.143    4.286    0.000   14.000    0.571 
#    5.143    1.429    0.000    0.000    0.000    0.000 
#    0.000    0.000    0.000    0.000    0.000    0.000 
#
# Total GULP energy -155915.541617 kJ/mol
# GULP energy per Si atom -5568.412201 kJ/mol
# Density = 2.431313 g / cm^3
# Si number density = 24.368590 Si / 1000 Ang^3
#
#
#
# Elastic Constant Matrix: (Units=GPa)
#
#
# Indices 1 2 3 4 5 6 
#
# 1 113.0187 44.8849 12.4684 0.0000 -7.5164 0.0000
# 2 44.8849 151.6621 12.7117 0.0000 4.3743 0.0000
# 3 12.4684 12.7117 61.6457 0.0000 -3.9754 0.0000
# 4 0.0000 0.0000 0.0000 31.3454 0.0000 1.5592
# 5 -7.5164 4.3743 -3.9754 0.0000 23.5131 0.0000
# 6 0.0000 0.0000 0.0000 1.5592 0.0000 -140.1908
#
#
#
# Elastic Compliance Matrix: (Units=1/GPa)
#
#
# Indices 1 2 3 4 5 6 
#
# 1 0.010463 -0.003100 -0.001238 0.000000 0.003712 0.000000
# 2 -0.003100 0.007681 -0.001125 0.000000 -0.002610 0.000000
# 3 -0.001238 -0.001125 0.016876 0.000000 0.002667 0.000000
# 4 0.000000 0.000000 0.000000 0.031885 0.000000 0.000355
# 5 0.003712 -0.002610 0.002667 0.000000 0.044653 0.000000
# 6 0.000000 0.000000 0.000000 0.000355 0.000000 -0.007129
#
#
# Mechanical properties :
#
#
# Convention : Reuss Voigt Hill
#
# Bulk Modulus (GPa) = 41.50374 51.82851 46.66612
# Shear Modulus (GPa) = 40.52394 0.01764 20.27079
#
# Velocity S-wave (km/s) = 4.08236 0.08518 2.88729
# Velocity P-wave (km/s) = 6.26814 4.61784 5.50518
#
# Compressibility (1/GPa) = 0.02409421
#
# Stress axis : x y z
#
# Youngs Moduli (GPa) = 95.57899 130.19870 59.25558
#
# Poissons Ratio (x) = 0.40358 0.07333
# Poissons Ratio (y) = 0.29627 0.06667
# Poissons Ratio (z) = 0.11829 0.14649
#
# Static dielectric constant tensor:
#      x y z
#    x 2.119220 0.000000 0.293650 
#    y 0.000000 1.823300 0.000000 
#    z 0.293650 0.000000 3.399780 
# 
# From -- ./inp_files/214060.got.cif
#   From: 2010.05.17/outbox.cif.g08.bks.cpg/sg15_108_cif.got.tgz:214060.got - 2010.06.03 18:47:42.
