data_PCOD9288124
_publ_section_title
;
Structure prediction by ZEFSAII (Michael W. Deem and Ramdas Pophale) SiO2 
 PCOD9288124
Probable space group: C 2/C
;
_chemical_formula_sum "Si O2"
_cell_formula_units_Z 52
_cell_length_a 30.700754
_cell_length_b 8.011728
_cell_length_c 11.523045
_cell_angle_alpha 90.000000
_cell_angle_beta 120.107892
_cell_angle_gamma 90.000000
_cell_volume 2451.884111
_symmetry_space_group_name_H-M "C 2/C"
_symmetry_group_IT_number 15
_symmetry_cell_setting 'monoclinic'
loop_
_space_group_symop_operation_xyz
x,y,z
-x,y,1/2-z
-x,-y,-z
x,-y,1/2+z
1/2+x,1/2+y,z
1/2-x,1/2+y,1/2-z
1/2-x,1/2-y,-z
1/2+x,1/2-y,1/2+z
loop_
_atom_site_type_symbol
_atom_site_label
_atom_site_fract_x
_atom_site_fract_y
_atom_site_fract_z
Si Si1 0.172611 0.795649 0.471072
Si Si2 0.863053 0.495882 0.935432
Si Si3 0.456152 0.376585 0.477400
Si Si4 0.716774 0.795243 0.782261
Si Si5 0.642966 0.380506 0.034054
Si Si6 0.051331 0.457109 0.637130
Si Si7 0.500000 0.163964 0.750000
O O1 0.138167 0.654709 0.483961
O O2 0.224655 0.800394 0.614009
O O3 0.188183 0.736997 0.365022
O O4 0.149822 0.981550 0.445106
O O5 0.807975 0.461596 0.805376
O O6 0.870916 0.314289 0.008169
O O7 0.902798 0.514185 0.883671
O O8 0.500000 0.500000 0.500000
O O9 0.401906 0.446144 0.442932
O O10 0.446107 0.243007 0.361729
O O11 0.477161 0.278830 0.618658
O O12 0.695682 0.648277 0.671351
O O13 0.000000 0.500000 0.500000
O O14 0.041882 0.545224 0.746546
#
# Coordination Sequence:
#
# PCOD9288124 Si02
#       7
#     8   8   8   8   8   8   4
#     4  11  20  40  65  80 124 159 184 257 298 336
#     4   9  21  39  59  87 118 151 198 240 292 354
#     4  10  22  40  58  90 122 150 201 249 290 359
#     4   9  22  40  56  95 114 149 212 231 295 369
#     4   9  22  40  57  90 120 148 204 242 290 357
#     4   9  20  39  58  86 116 149 202 237 286 364
#     4  10  22  38  64  82 120 166 192 236 310 344
#
# _framework density 21.208181
#
# number of rings (size 3 to 8) (size 9 to 14) (size 15 to 20)
#    0.923    1.538    0.000    0.923    4.308    5.538 
#    2.769    1.538    0.000    0.000    0.000    0.000 
#    0.000    0.000    0.000    0.000    0.000    0.000 
#
# Total GULP energy -144825.243134 kJ/mol
# GULP energy per Si atom -5570.201659 kJ/mol
# Density = 2.115991 g / cm^3
# Si number density = 21.208181 Si / 1000 Ang^3
#
#
#
# Elastic Constant Matrix: (Units=GPa)
#
#
# Indices 1 2 3 4 5 6 
#
# 1 80.1498 34.4173 -3.5767 0.0000 -6.6682 0.0000
# 2 34.4173 74.7777 35.6085 0.0000 -29.2237 0.0000
# 3 -3.5767 35.6085 42.4123 0.0000 -2.4479 0.0000
# 4 0.0000 0.0000 0.0000 30.5392 0.0000 -4.5830
# 5 -6.6682 -29.2237 -2.4479 0.0000 32.8485 0.0000
# 6 0.0000 0.0000 0.0000 -4.5830 0.0000 37.9212
#
#
#
# Elastic Compliance Matrix: (Units=1/GPa)
#
#
# Indices 1 2 3 4 5 6 
#
# 1 0.029993 -0.042623 0.036635 0.000000 -0.029101 0.000000
# 2 -0.042623 0.105386 -0.087539 0.000000 0.078581 0.000000
# 3 0.036635 -0.087539 0.096513 0.000000 -0.063250 0.000000
# 4 0.000000 0.000000 0.000000 0.033350 0.000000 0.004030
# 5 -0.029101 0.078581 -0.063250 0.000000 0.089732 0.000000
# 6 0.000000 0.000000 0.000000 0.004030 0.000000 0.026858
#
#
# Mechanical properties :
#
#
# Convention : Reuss Voigt Hill
#
# Bulk Modulus (GPa) = 22.30230 36.69311 29.49771
# Shear Modulus (GPa) = 8.56412 28.98782 18.77597
#
# Velocity S-wave (km/s) = 2.01169 3.70107 2.97866
# Velocity P-wave (km/s) = 3.99181 5.96681 5.07629
#
# Compressibility (1/GPa) = 0.04483843
#
# Stress axis : x y z
#
# Youngs Moduli (GPa) = 33.34096 9.48891 10.36133
#
# Poissons Ratio (x) = 0.40444 -0.37959
# Poissons Ratio (y) = 1.42109 0.90702
# Poissons Ratio (z) = -1.22145 0.83065
#
# Static dielectric constant tensor:
#      x y z
#    x 1.771460 0.000000 0.045780 
#    y 0.000000 1.800660 0.000000 
#    z 0.045780 0.000000 1.806070 
# 
# From -- ./inp_files/121560.got.cif
#   From: 2010.05.17/outbox.cif.g08.bks.cpg/sg15_61_cif.got.tgz:121560.got - 2010.06.03 18:47:42.
