data_PCOD9288302
_publ_section_title
;
Structure prediction by ZEFSAII (Michael W. Deem and Ramdas Pophale) SiO2 
 PCOD9288302
Probable space group: C 2/C
;
_chemical_formula_sum "Si O2"
_cell_formula_units_Z 60
_cell_length_a 18.409940
_cell_length_b 15.420083
_cell_length_c 23.815195
_cell_angle_alpha 90.000000
_cell_angle_beta 22.549575
_cell_angle_gamma 90.000000
_cell_volume 2592.620628
_symmetry_space_group_name_H-M "C 2/C"
_symmetry_group_IT_number 15
_symmetry_cell_setting 'monoclinic'
loop_
_space_group_symop_operation_xyz
x,y,z
-x,y,1/2-z
-x,-y,-z
x,-y,1/2+z
1/2+x,1/2+y,z
1/2-x,1/2+y,1/2-z
1/2-x,1/2-y,-z
1/2+x,1/2-y,1/2+z
loop_
_atom_site_type_symbol
_atom_site_label
_atom_site_fract_x
_atom_site_fract_y
_atom_site_fract_z
Si Si1 0.370259 0.451290 0.786662
Si Si2 0.880058 0.210992 0.065570
Si Si3 0.927829 0.691921 0.970358
Si Si4 0.094905 0.425832 0.796843
Si Si5 0.167183 0.874329 0.491756
Si Si6 0.210493 0.899843 0.329531
Si Si7 0.000000 0.492370 0.250000
Si Si8 0.293506 0.628585 0.870416
O O1 0.500000 0.457162 0.750000
O O2 0.485775 0.403764 0.655739
O O3 0.317730 0.550091 0.808366
O O4 0.195078 0.392174 0.929535
O O5 0.722330 0.158794 0.212961
O O6 0.776429 0.278583 0.099996
O O7 0.004188 0.268465 0.019173
O O8 0.022707 0.140837 0.935873
O O9 0.816594 0.770350 0.019658
O O10 0.115246 0.665658 0.802888
O O11 0.205118 0.506538 0.746585
O O12 0.086482 0.449236 0.736903
O O13 0.879571 0.409118 0.968794
O O14 0.156858 0.902518 0.433871
O O15 0.345896 0.927721 0.387332
O O16 0.500000 0.639830 0.750000
#
# Coordination Sequence:
#
# PCOD9288302 Si02
#       8
#     8   8   8   8   8   8   4   8
#     4  11  24  43  69 103 140 182 225 289 356 409
#     4  11  25  44  70 103 133 187 235 288 343 412
#     4  11  23  45  67 100 137 180 235 284 347 412
#     4  11  23  46  69 100 138 180 233 289 347 416
#     4  10  22  38  67  99 137 173 230 278 337 420
#     4  10  22  46  69  98 138 183 231 287 344 405
#     4  10  22  40  66 102 134 178 222 278 354 400
#     4  11  25  47  71 104 143 182 230 289 350 421
#
# _framework density 23.142607999999999
#
# number of rings (size 3 to 8) (size 9 to 14) (size 15 to 20)
#    0.000    1.333    1.333    4.400    3.733    2.667 
#   16.800    0.000    0.000    0.000    0.000    0.000 
#    0.000    0.000    0.000    0.000    0.000    0.000 
#
# Total GULP energy -167763.158706 kJ/mol
# GULP energy per Si atom -5592.105290 kJ/mol
# Density = 2.308993 g / cm^3
# Si number density = 23.142608 Si / 1000 Ang^3
#
#
#
# Elastic Constant Matrix: (Units=GPa)
#
#
# Indices 1 2 3 4 5 6 
#
# 1 38.2792 30.4882 30.5162 -0.0105 -14.6255 0.0034
# 2 30.4882 126.9892 47.1750 -0.0402 -16.5537 0.0027
# 3 30.5162 47.1750 145.8491 -0.0004 -5.4680 -0.0097
# 4 -0.0105 -0.0402 -0.0004 34.3833 0.0034 -3.7500
# 5 -14.6255 -16.5537 -5.4680 0.0034 33.4362 0.0050
# 6 0.0034 0.0027 -0.0097 -3.7500 0.0050 25.7397
#
#
#
# Elastic Compliance Matrix: (Units=1/GPa)
#
#
# Indices 1 2 3 4 5 6 
#
# 1 0.040996 -0.005700 -0.006206 0.000003 0.014096 -0.000009
# 2 -0.005700 0.010302 -0.002055 0.000010 0.002271 0.000000
# 3 -0.006206 -0.002055 0.008733 -0.000004 -0.002303 0.000004
# 4 0.000003 0.000010 -0.000004 0.029554 0.000002 0.004306
# 5 0.014096 0.002271 -0.002303 0.000002 0.036821 -0.000010
# 6 -0.000009 0.000000 0.000004 0.004306 -0.000010 0.039478
#
#
# Mechanical properties :
#
#
# Convention : Reuss Voigt Hill
#
# Bulk Modulus (GPa) = 31.14128 58.60846 44.87487
# Shear Modulus (GPa) = 24.44887 32.24105 28.34496
#
# Velocity S-wave (km/s) = 3.25382 3.73654 3.50350
# Velocity P-wave (km/s) = 5.25376 6.63291 5.98320
#
# Compressibility (1/GPa) = 0.03211172
#
# Stress axis : x y z
#
# Youngs Moduli (GPa) = 24.39240 97.06399 114.50789
#
# Poissons Ratio (x) = 0.55325 0.71060
# Poissons Ratio (y) = 0.13903 0.23527
# Poissons Ratio (z) = 0.15137 0.19943
#
# Static dielectric constant tensor:
#      x y z
#    x 1.885450 0.000000 -0.015620 
#    y 0.000000 1.879930 0.000010 
#    z -0.015620 0.000010 1.859590 
# 
# From -- ./inp_files/301178.got.cif
#   From: 2010.05.17/outbox.cif.g08.bks.cpg/sg15_151_cif.got.tgz:301178.got - 2010.06.03 18:47:42.
