data_PCOD9288797
_publ_section_title
;
Structure prediction by ZEFSAII (Michael W. Deem and Ramdas Pophale) SiO2 
 PCOD9288797
Probable space group: C 2/C
;
_chemical_formula_sum "Si O2"
_cell_formula_units_Z 40
_cell_length_a 13.711722
_cell_length_b 6.919488
_cell_length_c 19.839622
_cell_angle_alpha 90.000000
_cell_angle_beta 57.526194
_cell_angle_gamma 90.000000
_cell_volume 1588.016351
_symmetry_space_group_name_H-M "C 2/C"
_symmetry_group_IT_number 15
_symmetry_cell_setting 'monoclinic'
loop_
_space_group_symop_operation_xyz
x,y,z
-x,y,1/2-z
-x,-y,-z
x,-y,1/2+z
1/2+x,1/2+y,z
1/2-x,1/2+y,1/2-z
1/2-x,1/2-y,-z
1/2+x,1/2-y,1/2+z
loop_
_atom_site_type_symbol
_atom_site_label
_atom_site_fract_x
_atom_site_fract_y
_atom_site_fract_z
Si Si1 0.076779 0.098979 0.413833
Si Si2 0.683275 0.059970 0.645703
Si Si3 0.187762 0.571422 0.411246
Si Si4 0.470866 0.981539 0.916998
Si Si5 0.113536 0.911894 0.750432
O O1 0.086393 0.018091 0.334475
O O2 0.017297 0.304146 0.418558
O O3 0.211204 0.085588 0.385025
O O4 0.000000 0.000000 0.500000
O O5 0.742841 0.244118 0.585586
O O6 0.579876 0.976552 0.638973
O O7 0.643905 0.180363 0.727547
O O8 0.135721 0.450562 0.491864
O O9 0.279739 0.483748 0.325234
O O10 0.080672 0.637397 0.403195
O O11 0.000000 0.943556 0.750000
#
# Coordination Sequence:
#
# PCOD9288797 Si02
#       5
#     8   8   8   8   8
#     4  12  23  38  68  99 128 172 226 268 326 396
#     4  10  23  41  67  91 128 171 218 263 332 389
#     4   9  22  39  67  96 132 165 218 261 331 398
#     4  11  21  44  67  96 129 173 209 275 330 394
#     4  10  22  39  65  92 129 172 215 271 323 385
#
# _framework density 25.188656999999999
#
# number of rings (size 3 to 8) (size 9 to 14) (size 15 to 20)
#    1.200    0.400    4.000    0.600    5.600    0.000 
#    0.000    8.000    0.000    1.200    0.000    0.000 
#    0.000    0.000    0.000    0.000    0.000    0.000 
#
# Total GULP energy -111483.267420 kJ/mol
# GULP energy per Si atom -5574.163371 kJ/mol
# Density = 2.513133 g / cm^3
# Si number density = 25.188657 Si / 1000 Ang^3
#
#
#
# Elastic Constant Matrix: (Units=GPa)
#
#
# Indices 1 2 3 4 5 6 
#
# 1 128.7802 6.9923 51.9273 0.0000 -3.6079 0.0000
# 2 6.9923 53.5775 43.2075 0.0001 1.1577 0.0000
# 3 51.9273 43.2075 172.2726 0.0000 -17.6329 0.0000
# 4 0.0000 0.0001 0.0000 24.4878 0.0000 -3.2184
# 5 -3.6079 1.1577 -17.6329 0.0000 38.1337 0.0000
# 6 0.0000 0.0000 0.0000 -3.2184 0.0000 37.8995
#
#
#
# Elastic Compliance Matrix: (Units=1/GPa)
#
#
# Indices 1 2 3 4 5 6 
#
# 1 0.008920 0.001340 -0.003089 0.000000 -0.000625 0.000000
# 2 0.001340 0.024077 -0.006828 0.000000 -0.003761 0.000000
# 3 -0.003089 -0.006828 0.008859 0.000000 0.004011 0.000000
# 4 0.000000 0.000000 0.000000 0.041298 0.000000 0.003507
# 5 -0.000625 -0.003761 0.004011 0.000000 0.028133 0.000000
# 6 0.000000 0.000000 0.000000 0.003507 0.000000 0.026683
#
#
# Mechanical properties :
#
#
# Convention : Reuss Voigt Hill
#
# Bulk Modulus (GPa) = 40.47961 62.09827 51.28894
# Shear Modulus (GPa) = 30.60760 36.93777 33.77268
#
# Velocity S-wave (km/s) = 3.48966 3.83357 3.66565
# Velocity P-wave (km/s) = 5.68704 6.65596 6.19049
#
# Compressibility (1/GPa) = 0.02470379
#
# Stress axis : x y z
#
# Youngs Moduli (GPa) = 112.10211 41.53312 112.88060
#
# Poissons Ratio (x) = -0.05567 0.34869
# Poissons Ratio (y) = -0.15027 0.77073
# Poissons Ratio (z) = 0.34629 0.28358
#
# Static dielectric constant tensor:
#      x y z
#    x 1.971780 0.000000 -0.024330 
#    y 0.000000 2.146300 0.000000 
#    z -0.024330 0.000000 2.047050 
# 
# From -- ./inp_files/195557.got.cif
#   From: 2010.05.17/outbox.cif.g08.bks.cpg/sg15_98_cif.got.tgz:195557.got - 2010.06.03 18:47:42.
