data_PCOD9288818
_publ_section_title
;
Structure prediction by ZEFSAII (Michael W. Deem and Ramdas Pophale) SiO2 
 PCOD9288818
Probable space group: C 2/C
;
_chemical_formula_sum "Si O2"
_cell_formula_units_Z 44
_cell_length_a 13.006342
_cell_length_b 19.849127
_cell_length_c 8.197331
_cell_angle_alpha 90.000000
_cell_angle_beta 99.014979
_cell_angle_gamma 90.000000
_cell_volume 2090.118845
_symmetry_space_group_name_H-M "C 2/C"
_symmetry_group_IT_number 15
_symmetry_cell_setting 'monoclinic'
loop_
_space_group_symop_operation_xyz
x,y,z
-x,y,1/2-z
-x,-y,-z
x,-y,1/2+z
1/2+x,1/2+y,z
1/2-x,1/2+y,1/2-z
1/2-x,1/2-y,-z
1/2+x,1/2-y,1/2+z
loop_
_atom_site_type_symbol
_atom_site_label
_atom_site_fract_x
_atom_site_fract_y
_atom_site_fract_z
Si Si1 0.356885 0.287267 0.483709
Si Si2 0.118780 0.923698 0.833761
Si Si3 0.000000 0.299921 0.250000
Si Si4 0.844578 0.071349 0.522764
Si Si5 0.500000 0.666602 0.750000
Si Si6 0.000000 0.468288 0.750000
Si Si7 0.883365 0.415559 0.408855
O O1 0.250000 0.250000 0.500000
O O2 0.344789 0.363824 0.541919
O O3 0.441248 0.247984 0.611328
O O4 0.409487 0.291425 0.318325
O O5 0.177032 0.923124 0.675013
O O6 0.000000 0.913123 0.750000
O O7 0.127073 0.994720 0.926132
O O8 0.077836 0.349650 0.174756
O O9 0.738774 0.087955 0.590718
O O10 0.938752 0.119059 0.605899
O O11 0.084466 0.518753 0.689291
O O12 0.945837 0.425509 0.594224
#
# Coordination Sequence:
#
# PCOD9288818 Si02
#       7
#     8   8   4   8   4   4   8
#     4  12  27  46  68  94 134 183 222 265 331 397
#     4  12  23  44  65  97 138 166 211 278 326 388
#     4  11  24  45  62  91 138 171 220 276 310 399
#     4  12  23  39  72 101 130 169 215 279 344 383
#     4  12  24  44  68  98 132 170 224 278 328 396
#     4   9  20  41  60  93 138 169 218 280 318 389
#     4  10  22  39  65  96 129 173 219 267 334 388
#
# _framework density 21.051434
#
# number of rings (size 3 to 8) (size 9 to 14) (size 15 to 20)
#    0.000    0.727    3.636    3.818    0.000    8.000 
#    0.000    3.636    0.000    0.000    0.000    0.000 
#    0.000    0.000    0.000    0.000    0.000    0.000 
#
# Total GULP energy -123094.777635 kJ/mol
# GULP energy per Si atom -5595.217165 kJ/mol
# Density = 2.100352 g / cm^3
# Si number density = 21.051434 Si / 1000 Ang^3
#
#
#
# Elastic Constant Matrix: (Units=GPa)
#
#
# Indices 1 2 3 4 5 6 
#
# 1 110.4048 25.8150 2.4689 0.0000 -29.4672 0.0000
# 2 25.8150 74.4108 18.6691 0.0000 -8.1275 0.0000
# 3 2.4689 18.6691 71.8906 0.0000 -28.3851 0.0000
# 4 0.0000 0.0000 0.0000 -0.8067 0.0000 -16.0357
# 5 -29.4672 -8.1275 -28.3851 0.0000 30.2539 0.0000
# 6 0.0000 0.0000 0.0000 -16.0357 0.0000 9.7141
#
#
#
# Elastic Compliance Matrix: (Units=1/GPa)
#
#
# Indices 1 2 3 4 5 6 
#
# 1 0.016840 -0.005823 0.010789 0.000000 0.024960 0.000000
# 2 -0.005823 0.016395 -0.007240 0.000000 -0.008059 0.000000
# 3 0.010789 -0.007240 0.029864 0.000000 0.036583 0.000000
# 4 0.000000 0.000000 0.000000 -0.036660 0.000000 -0.060517
# 5 0.024960 -0.008059 0.036583 0.000000 0.089522 0.000000
# 6 0.000000 0.000000 0.000000 -0.060517 0.000000 0.003044
#
#
# Mechanical properties :
#
#
# Convention : Reuss Voigt Hill
#
# Bulk Modulus (GPa) = 17.07902 38.95689 28.01795
# Shear Modulus (GPa) = 34.94799 21.81580 28.38190
#
# Velocity S-wave (km/s) = 4.07888 3.22267 3.67579
# Velocity P-wave (km/s) = 5.50578 5.69150 5.59941
#
# Compressibility (1/GPa) = 0.05855138
#
# Stress axis : x y z
#
# Youngs Moduli (GPa) = 59.38354 60.99394 33.48541
#
# Poissons Ratio (x) = 0.35515 -0.36127
# Poissons Ratio (y) = 0.34577 0.24243
# Poissons Ratio (z) = -0.64069 0.44158
#
# Static dielectric constant tensor:
#      x y z
#    x 1.770030 0.000000 -0.032600 
#    y 0.000000 1.723650 0.000000 
#    z -0.032600 0.000000 1.773470 
# 
# From -- ./inp_files/30881.got.cif
#   From: 2010.05.17/outbox.cif.g08.bks.cpg/sg15_16_cif.got.tgz:30881.got - 2010.06.03 18:47:42.
