data_PCOD9288749
_publ_section_title
;
Structure prediction by ZEFSAII (Michael W. Deem and Ramdas Pophale) SiO2 
 PCOD9288749
Probable space group: C 2/C
;
_chemical_formula_sum "Si O2"
_cell_formula_units_Z 64
_cell_length_a 19.208566
_cell_length_b 13.282571
_cell_length_c 13.912364
_cell_angle_alpha 90.000000
_cell_angle_beta 114.650396
_cell_angle_gamma 90.000000
_cell_volume 3226.113204
_symmetry_space_group_name_H-M "C 2/C"
_symmetry_group_IT_number 15
_symmetry_cell_setting 'monoclinic'
loop_
_space_group_symop_operation_xyz
x,y,z
-x,y,1/2-z
-x,-y,-z
x,-y,1/2+z
1/2+x,1/2+y,z
1/2-x,1/2+y,1/2-z
1/2-x,1/2-y,-z
1/2+x,1/2-y,1/2+z
loop_
_atom_site_type_symbol
_atom_site_label
_atom_site_fract_x
_atom_site_fract_y
_atom_site_fract_z
Si Si1 0.213542 0.342928 0.770266
Si Si2 0.485355 0.677104 0.131074
Si Si3 0.765731 0.016164 0.141327
Si Si4 0.114980 0.199509 0.053966
Si Si5 0.013015 0.934441 0.369951
Si Si6 0.816494 0.829845 0.518669
Si Si7 0.849903 0.128457 0.833949
Si Si8 0.809413 0.345711 0.531181
O O1 0.211257 0.421605 0.681886
O O2 0.303891 0.325655 0.848401
O O3 0.175509 0.238642 0.715333
O O4 0.175806 0.373147 0.849921
O O5 0.500000 0.702536 0.250000
O O6 0.552237 0.713120 0.100107
O O7 0.485004 0.554920 0.122759
O O8 0.400812 0.717174 0.058049
O O9 0.820113 0.951114 0.240024
O O10 0.814203 0.093990 0.106033
O O11 0.724588 0.939437 0.045771
O O12 0.123076 0.298333 0.992890
O O13 0.087472 0.112283 0.964296
O O14 0.940737 0.889238 0.386490
O O15 0.000000 0.907249 0.250000
O O16 0.750000 0.750000 0.500000
O O17 0.809001 0.886893 0.412882
O O18 0.750000 0.250000 0.500000
#
# Coordination Sequence:
#
# PCOD9288749 Si02
#       8
#     8   8   8   8   8   8   8   8
#     4  11  23  40  64  93 135 175 230 266 335 396
#     4  11  24  39  63  96 137 177 214 274 352 400
#     4  12  23  40  66  92 135 175 222 277 326 392
#     4  11  21  40  58  94 132 170 214 268 331 399
#     4  11  23  37  63  97 134 169 214 278 353 392
#     4  12  26  43  65  98 140 176 221 272 334 410
#     4  12  23  42  64  99 134 176 218 278 334 401
#     4  10  22  39  64  92 129 176 223 271 322 398
#
# _framework density 19.838113
#
# number of rings (size 3 to 8) (size 9 to 14) (size 15 to 20)
#    0.000    0.750    5.000    4.875    7.000    0.000 
#    0.000    0.000    0.000    3.000    0.000    5.250 
#    0.000    0.000    0.000    0.000    0.000    0.000 
#
# Total GULP energy -178890.370707 kJ/mol
# GULP energy per Si atom -5590.324085 kJ/mol
# Density = 1.979296 g / cm^3
# Si number density = 19.838113 Si / 1000 Ang^3
#
#
#
# Elastic Constant Matrix: (Units=GPa)
#
#
# Indices 1 2 3 4 5 6 
#
# 1 121.3111 34.6380 35.3344 0.0000 -22.8850 0.0000
# 2 34.6380 57.0186 21.1306 0.0000 -3.8538 0.0000
# 3 35.3344 21.1306 86.8278 0.0000 -28.0176 0.0000
# 4 0.0000 0.0000 0.0000 39.2009 0.0000 -8.8107
# 5 -22.8850 -3.8538 -28.0176 0.0000 44.7007 0.0000
# 6 0.0000 0.0000 0.0000 -8.8107 0.0000 26.7495
#
#
#
# Elastic Compliance Matrix: (Units=1/GPa)
#
#
# Indices 1 2 3 4 5 6 
#
# 1 0.011221 -0.005867 -0.001815 0.000000 0.004101 0.000000
# 2 -0.005867 0.022436 -0.004284 0.000000 -0.003754 0.000000
# 3 -0.001815 -0.004284 0.016145 0.000000 0.008820 0.000000
# 4 0.000000 0.000000 0.000000 0.027549 0.000000 0.009074
# 5 0.004101 -0.003754 0.008820 0.000000 0.029675 0.000000
# 6 0.000000 0.000000 0.000000 0.009074 0.000000 0.040373
#
#
# Mechanical properties :
#
#
# Convention : Reuss Voigt Hill
#
# Bulk Modulus (GPa) = 38.65586 49.70708 44.18147
# Shear Modulus (GPa) = 27.78498 33.73384 30.75941
#
# Velocity S-wave (km/s) = 3.74650 4.12813 3.94194
# Velocity P-wave (km/s) = 6.18409 6.91612 6.56032
#
# Compressibility (1/GPa) = 0.02586930
#
# Stress axis : x y z
#
# Youngs Moduli (GPa) = 89.12087 44.57143 61.94051
#
# Poissons Ratio (x) = 0.26148 0.11244
# Poissons Ratio (y) = 0.52283 0.26536
# Poissons Ratio (z) = 0.16177 0.19095
#
# Static dielectric constant tensor:
#      x y z
#    x 1.733440 0.000000 -0.015120 
#    y 0.000000 1.688430 0.000000 
#    z -0.015120 0.000000 1.769380 
# 
# From -- ./inp_files/162290.got.cif
#   From: 2010.05.17/outbox.cif.g08.bks.cpg/sg15_82_cif.got.tgz:162290.got - 2010.06.03 18:47:42.
