data_PCOD9288563
_publ_section_title
;
Structure prediction by ZEFSAII (Michael W. Deem and Ramdas Pophale) SiO2 
 PCOD9288563
Probable space group: C 2/C
;
_chemical_formula_sum "Si O2"
_cell_formula_units_Z 52
_cell_length_a 28.496555
_cell_length_b 9.414624
_cell_length_c 8.949828
_cell_angle_alpha 90.000000
_cell_angle_beta 59.762843
_cell_angle_gamma 90.000000
_cell_volume 2074.425474
_symmetry_space_group_name_H-M "C 2/C"
_symmetry_group_IT_number 15
_symmetry_cell_setting 'monoclinic'
loop_
_space_group_symop_operation_xyz
x,y,z
-x,y,1/2-z
-x,-y,-z
x,-y,1/2+z
1/2+x,1/2+y,z
1/2-x,1/2+y,1/2-z
1/2-x,1/2-y,-z
1/2+x,1/2-y,1/2+z
loop_
_atom_site_type_symbol
_atom_site_label
_atom_site_fract_x
_atom_site_fract_y
_atom_site_fract_z
Si Si1 0.295409 0.060389 0.346881
Si Si2 0.877674 0.343054 0.498099
Si Si3 0.000000 0.028888 0.750000
Si Si4 0.039263 0.428336 0.561556
Si Si5 0.824148 0.849323 0.472782
Si Si6 0.425180 0.623441 0.613931
Si Si7 0.862240 0.264900 0.221303
O O1 0.230784 0.060065 0.450637
O O2 0.312071 0.185203 0.437676
O O3 0.325010 0.907590 0.306967
O O4 0.318501 0.116886 0.152072
O O5 0.916524 0.477671 0.412179
O O6 0.910598 0.279221 0.583676
O O7 0.871136 0.226654 0.379979
O O8 0.045817 0.946342 0.577224
O O9 0.967959 0.110504 0.675140
O O10 0.077730 0.313849 0.423324
O O11 0.000000 0.372666 0.750000
O O12 0.000000 0.500000 0.500000
O O13 0.868452 0.915021 0.288289
O O14 0.841228 0.830494 0.619046
#
# Coordination Sequence:
#
# PCOD9288563 Si02
#       7
#     8   8   4   8   8   8   8
#     4   9  20  42  63  92 136 175 220 283 331 396
#     4  10  22  39  61  94 132 169 220 274 328 400
#     4  10  24  48  70  92 134 178 222 286 320 390
#     4  11  22  35  56  94 134 177 214 260 334 389
#     4  10  22  42  67  97 130 177 228 274 341 402
#     4  10  24  45  68  94 128 173 227 269 336 395
#     4  11  22  39  65  99 136 176 220 278 338 401
#
# _framework density 25.067181999999999
#
# number of rings (size 3 to 8) (size 9 to 14) (size 15 to 20)
#    0.000    1.846    1.538    1.846    5.385    4.308 
#   11.077    0.000    0.000    0.000    0.000    0.000 
#    0.000    0.000    0.000    0.000    0.000    0.000 
#
# Total GULP energy -145067.165751 kJ/mol
# GULP energy per Si atom -5579.506375 kJ/mol
# Density = 2.501013 g / cm^3
# Si number density = 25.067182 Si / 1000 Ang^3
#
#
#
# Elastic Constant Matrix: (Units=GPa)
#
#
# Indices 1 2 3 4 5 6 
#
# 1 114.5098 15.1584 70.7944 0.0000 -24.2979 0.0000
# 2 15.1584 29.7479 28.1379 0.0000 -15.1216 0.0000
# 3 70.7944 28.1379 156.6524 0.0000 -14.5369 0.0000
# 4 0.0000 0.0000 0.0000 10.2056 0.0000 -2.7007
# 5 -24.2979 -15.1216 -14.5369 0.0000 58.6090 0.0000
# 6 0.0000 0.0000 0.0000 -2.7007 0.0000 13.2241
#
#
#
# Elastic Compliance Matrix: (Units=1/GPa)
#
#
# Indices 1 2 3 4 5 6 
#
# 1 0.012998 0.000847 -0.005636 0.000000 0.004209 0.000000
# 2 0.000847 0.045592 -0.007623 0.000000 0.010223 0.000000
# 3 -0.005636 -0.007623 0.010134 0.000000 -0.001790 0.000000
# 4 0.000000 0.000000 0.000000 0.103584 0.000000 0.021155
# 5 0.004209 0.010223 -0.001790 0.000000 0.021001 0.000000
# 6 0.000000 0.000000 0.000000 0.021155 0.000000 0.079940
#
#
# Mechanical properties :
#
#
# Convention : Reuss Voigt Hill
#
# Bulk Modulus (GPa) = 22.77919 58.78795 40.78357
# Shear Modulus (GPa) = 15.98951 28.86237 22.42594
#
# Velocity S-wave (km/s) = 2.52834 3.39691 2.99429
# Velocity P-wave (km/s) = 4.19885 6.23606 5.31595
#
# Compressibility (1/GPa) = 0.04389972
#
# Stress axis : x y z
#
# Youngs Moduli (GPa) = 76.93421 21.93380 98.68140
#
# Poissons Ratio (x) = -0.01858 0.55613
# Poissons Ratio (y) = -0.06516 0.75227
# Poissons Ratio (z) = 0.43357 0.16721
#
# Static dielectric constant tensor:
#      x y z
#    x 2.014210 0.000000 0.061880 
#    y 0.000000 2.061300 0.000000 
#    z 0.061880 0.000000 2.044190 
# 
# From -- ./inp_files/68997.got.cif
#   From: 2010.05.17/outbox.cif.g08.bks.cpg/sg15_35_cif.got.tgz:68997.got - 2010.06.03 18:47:42.
