data_PCOD9288592
_publ_section_title
;
Structure prediction by ZEFSAII (Michael W. Deem and Ramdas Pophale) SiO2 
 PCOD9288592
Probable space group: C 2/C
;
_chemical_formula_sum "Si O2"
_cell_formula_units_Z 48
_cell_length_a 20.441555
_cell_length_b 11.688487
_cell_length_c 8.237360
_cell_angle_alpha 90.000000
_cell_angle_beta 89.155967
_cell_angle_gamma 90.000000
_cell_volume 1967.945877
_symmetry_space_group_name_H-M "C 2/C"
_symmetry_group_IT_number 15
_symmetry_cell_setting 'monoclinic'
loop_
_space_group_symop_operation_xyz
x,y,z
-x,y,1/2-z
-x,-y,-z
x,-y,1/2+z
1/2+x,1/2+y,z
1/2-x,1/2+y,1/2-z
1/2-x,1/2-y,-z
1/2+x,1/2-y,1/2+z
loop_
_atom_site_type_symbol
_atom_site_label
_atom_site_fract_x
_atom_site_fract_y
_atom_site_fract_z
Si Si1 0.548122 0.057344 0.627562
Si Si2 0.359586 0.059590 0.126167
Si Si3 0.913796 0.895676 0.131538
Si Si4 0.162877 0.297945 0.413124
Si Si5 0.288370 0.268831 0.239114
Si Si6 0.951671 0.145494 0.007633
O O1 0.500000 0.119088 0.750000
O O2 0.601914 0.119885 0.520854
O O3 0.500000 0.000000 0.500000
O O4 0.588128 0.963351 0.731906
O O5 0.302042 0.140480 0.180631
O O6 0.339120 0.934617 0.067703
O O7 0.837813 0.851848 0.136934
O O8 0.934089 0.866257 0.316282
O O9 0.969266 0.844742 0.006132
O O10 0.925590 0.030357 0.096952
O O11 0.210977 0.285523 0.257485
O O12 0.189932 0.232615 0.571720
O O13 0.090308 0.246795 0.411730
#
# Coordination Sequence:
#
# PCOD9288592 Si02
#       6
#     8   8   8   8   8   8
#     4   9  20  36  60  88 122 160 195 252 314 381
#     4  11  20  40  60  91 125 161 208 255 320 378
#     4   9  19  38  62  85 116 157 207 254 303 361
#     4  10  22  39  62  90 123 168 207 254 315 381
#     4  10  22  39  62  89 123 169 206 251 321 378
#     4   9  19  38  62  87 117 158 207 255 302 358
#
# _framework density 24.390913999999999
#
# number of rings (size 3 to 8) (size 9 to 14) (size 15 to 20)
#    0.000    2.333    1.667    0.000    2.333    4.000 
#    6.000    0.833    3.667    0.000    0.000    0.000 
#    0.000    0.000    0.000    0.000    0.000    0.000 
#
# Total GULP energy -133778.228998 kJ/mol
# GULP energy per Si atom -5574.092875 kJ/mol
# Density = 2.433540 g / cm^3
# Si number density = 24.390914 Si / 1000 Ang^3
#
#
#
# Elastic Constant Matrix: (Units=GPa)
#
#
# Indices 1 2 3 4 5 6 
#
# 1 93.4538 40.9518 67.0180 0.0000 -49.8405 0.0000
# 2 40.9518 78.4435 10.6095 0.0000 -37.1636 0.0000
# 3 67.0180 10.6095 76.7612 0.0000 -36.6980 0.0000
# 4 0.0000 0.0000 0.0000 19.9145 0.0000 -14.5464
# 5 -49.8405 -37.1636 -36.6980 0.0000 66.0301 0.0000
# 6 0.0000 0.0000 0.0000 -14.5464 0.0000 29.8629
#
#
#
# Elastic Compliance Matrix: (Units=1/GPa)
#
#
# Indices 1 2 3 4 5 6 
#
# 1 0.046955 -0.016771 -0.035742 0.000000 0.006139 0.000000
# 2 -0.016771 0.023931 0.015963 0.000000 0.009683 0.000000
# 3 -0.035742 0.015963 0.045519 0.000000 0.007304 0.000000
# 4 0.000000 0.000000 0.000000 0.077949 0.000000 0.037970
# 5 0.006139 0.009683 0.007304 0.000000 0.029287 0.000000
# 6 0.000000 0.000000 0.000000 0.037970 0.000000 0.051982
#
#
# Mechanical properties :
#
#
# Convention : Reuss Voigt Hill
#
# Bulk Modulus (GPa) = 23.09171 53.97968 38.53569
# Shear Modulus (GPa) = 13.76814 31.83347 22.80080
#
# Velocity S-wave (km/s) = 2.37845 3.61659 3.06078
# Velocity P-wave (km/s) = 4.12682 6.29434 5.32209
#
# Compressibility (1/GPa) = 0.04330559
#
# Stress axis : x y z
#
# Youngs Moduli (GPa) = 21.29702 41.78607 21.96909
#
# Poissons Ratio (x) = 0.70078 0.78523
# Poissons Ratio (y) = 0.35716 -0.35070
# Poissons Ratio (z) = 0.76121 -0.66705
#
# Static dielectric constant tensor:
#      x y z
#    x 2.025310 0.000000 0.011820 
#    y 0.000000 1.907370 0.000000 
#    z 0.011820 0.000000 2.005540 
# 
# From -- ./inp_files/60542.got.cif
#   From: 2010.05.17/outbox.cif.g08.bks.cpg/sg15_31_cif.got.tgz:60542.got - 2010.06.03 18:47:42.
