data_PCOD9288738
_publ_section_title
;
Structure prediction by ZEFSAII (Michael W. Deem and Ramdas Pophale) SiO2 
 PCOD9288738
Probable space group: C 2/C
;
_chemical_formula_sum "Si O2"
_cell_formula_units_Z 56
_cell_length_a 17.357735
_cell_length_b 5.470989
_cell_length_c 27.108630
_cell_angle_alpha 90.000000
_cell_angle_beta 105.062582
_cell_angle_gamma 90.000000
_cell_volume 2485.895456
_symmetry_space_group_name_H-M "C 2/C"
_symmetry_group_IT_number 15
_symmetry_cell_setting 'monoclinic'
loop_
_space_group_symop_operation_xyz
x,y,z
-x,y,1/2-z
-x,-y,-z
x,-y,1/2+z
1/2+x,1/2+y,z
1/2-x,1/2+y,1/2-z
1/2-x,1/2-y,-z
1/2+x,1/2-y,1/2+z
loop_
_atom_site_type_symbol
_atom_site_label
_atom_site_fract_x
_atom_site_fract_y
_atom_site_fract_z
Si Si1 0.963183 0.965579 0.290731
Si Si2 0.156955 0.742044 0.974429
Si Si3 0.672477 0.827040 0.681520
Si Si4 0.554007 0.009565 0.088026
Si Si5 0.076030 0.322956 0.360740
Si Si6 0.571599 0.738746 0.995057
Si Si7 0.652480 0.134541 0.777354
O O1 0.897904 0.863334 0.317612
O O2 0.000000 0.816637 0.250000
O O3 0.912064 0.174912 0.254429
O O4 0.035519 0.077265 0.333583
O O5 0.139302 0.735976 0.913248
O O6 0.121978 0.483989 0.988926
O O7 0.115213 0.987298 0.989015
O O8 0.250000 0.750000 0.000000
O O9 0.762593 0.740206 0.691284
O O10 0.640269 0.951755 0.626408
O O11 0.671878 0.974262 0.732942
O O12 0.495717 0.962139 0.124332
O O13 0.510475 0.222758 0.049424
O O14 0.555199 0.783050 0.050210
O O15 0.113373 0.466332 0.320922
#
# Coordination Sequence:
#
# PCOD9288738 Si02
#       7
#     8   8   8   8   8   8   8
#     4  10  22  39  64  91 126 178 224 281 327 415
#     4  11  24  46  70 104 144 183 229 296 361 419
#     4  12  23  41  64  96 134 182 219 285 347 409
#     4  10  23  41  74  99 132 185 232 292 351 422
#     4  10  23  44  66  97 132 178 231 284 346 418
#     4  10  24  46  71 107 137 184 241 292 348 436
#     4  11  24  42  60  96 138 166 232 275 342 409
#
# _framework density 22.527093000000001
#
# number of rings (size 3 to 8) (size 9 to 14) (size 15 to 20)
#    0.000    1.429    2.857    1.286    4.000    6.286 
#    5.143    0.000    0.000    0.000    0.000    0.000 
#    0.000    0.000    0.000    0.000    0.000    0.000 
#
# Total GULP energy -156325.284248 kJ/mol
# GULP energy per Si atom -5583.045866 kJ/mol
# Density = 2.247582 g / cm^3
# Si number density = 22.527093 Si / 1000 Ang^3
#
#
#
# Elastic Constant Matrix: (Units=GPa)
#
#
# Indices 1 2 3 4 5 6 
#
# 1 82.9765 38.8019 78.6457 0.0000 16.0059 0.0000
# 2 38.8019 86.4364 34.6451 0.0000 -0.1242 0.0000
# 3 78.6457 34.6451 132.4875 0.0000 19.1566 0.0000
# 4 0.0000 0.0000 0.0000 19.3433 0.0000 -6.1072
# 5 16.0059 -0.1242 19.1566 0.0000 53.8076 0.0000
# 6 0.0000 0.0000 0.0000 -6.1072 0.0000 55.7509
#
#
#
# Elastic Compliance Matrix: (Units=1/GPa)
#
#
# Indices 1 2 3 4 5 6 
#
# 1 0.031928 -0.007769 -0.016389 0.000000 -0.003681 0.000000
# 2 -0.007769 0.014901 0.000397 0.000000 0.002204 0.000000
# 3 -0.016389 0.000397 0.017362 0.000000 -0.001305 0.000000
# 4 0.000000 0.000000 0.000000 0.053550 0.000000 0.005866
# 5 -0.003681 0.002204 -0.001305 0.000000 0.020149 0.000000
# 6 0.000000 0.000000 0.000000 0.005866 0.000000 0.018580
#
#
# Mechanical properties :
#
#
# Convention : Reuss Voigt Hill
#
# Bulk Modulus (GPa) = 59.99694 67.34288 63.66991
# Shear Modulus (GPa) = 23.86077 35.76754 29.81416
#
# Velocity S-wave (km/s) = 3.25807 3.98899 3.64191
# Velocity P-wave (km/s) = 6.39096 7.15368 6.78305
#
# Compressibility (1/GPa) = 0.01666752
#
# Stress axis : x y z
#
# Youngs Moduli (GPa) = 31.32008 67.10937 57.59830
#
# Poissons Ratio (x) = 0.52138 0.94399
# Poissons Ratio (y) = 0.24333 -0.02284
# Poissons Ratio (z) = 0.51331 -0.02661
#
# Static dielectric constant tensor:
#      x y z
#    x 1.839240 0.000000 -0.070020 
#    y 0.000000 1.921040 0.000000 
#    z -0.070020 0.000000 1.887710 
# 
# From -- ./inp_files/297793.got.cif
#   From: 2010.05.17/outbox.cif.g08.bks.cpg/sg15_149_cif.got.tgz:297793.got - 2010.06.03 18:47:42.
