data_PCOD9288866
_publ_section_title
;
Structure prediction by ZEFSAII (Michael W. Deem and Ramdas Pophale) SiO2 
 PCOD9288866
Probable space group: C 2/C
;
_chemical_formula_sum "Si O2"
_cell_formula_units_Z 48
_cell_length_a 20.531103
_cell_length_b 11.781258
_cell_length_c 15.059257
_cell_angle_alpha 90.000000
_cell_angle_beta 146.123309
_cell_angle_gamma 90.000000
_cell_volume 2030.393536
_symmetry_space_group_name_H-M "C 2/C"
_symmetry_group_IT_number 15
_symmetry_cell_setting 'monoclinic'
loop_
_space_group_symop_operation_xyz
x,y,z
-x,y,1/2-z
-x,-y,-z
x,-y,1/2+z
1/2+x,1/2+y,z
1/2-x,1/2+y,1/2-z
1/2-x,1/2-y,-z
1/2+x,1/2-y,1/2+z
loop_
_atom_site_type_symbol
_atom_site_label
_atom_site_fract_x
_atom_site_fract_y
_atom_site_fract_z
Si Si1 0.703736 0.313304 0.644526
Si Si2 0.621569 0.553838 0.560588
Si Si3 0.572300 0.069424 0.009083
Si Si4 0.261359 0.910065 0.400957
Si Si5 0.413989 0.728659 0.312535
Si Si6 0.141560 0.071934 0.396863
O O1 0.619801 0.420711 0.533967
O O2 0.825018 0.365540 0.819355
O O3 0.716505 0.224382 0.579508
O O4 0.649170 0.247732 0.666584
O O5 0.681669 0.567341 0.723300
O O6 0.503338 0.624072 0.433057
O O7 0.687825 0.599139 0.547506
O O8 0.625875 0.985254 0.996590
O O9 0.490727 0.164269 0.872907
O O10 0.500000 0.000000 0.000000
O O11 0.199551 0.962384 0.416984
O O12 0.338349 0.673989 0.149209
O O13 0.000000 0.060114 0.250000
#
# Coordination Sequence:
#
# PCOD9288866 Si02
#       6
#     8   8   8   8   8   8
#     4  11  22  38  70  91 129 180 217 273 343 396
#     4  10  22  39  66  96 127 170 225 277 322 402
#     4  11  22  37  65  98 132 170 222 279 334 398
#     4  11  22  42  65 100 131 178 223 271 349 393
#     4  11  20  39  65  98 124 173 222 278 326 396
#     4  10  23  39  65 101 127 173 227 274 327 399
#
# _framework density 23.640737999999999
#
# number of rings (size 3 to 8) (size 9 to 14) (size 15 to 20)
#    0.000    1.333    6.667    0.500    2.333    0.667 
#    0.000    9.167    0.000    0.000    0.000    0.000 
#    0.000    0.000    0.000    0.000    0.000    0.000 
#
# Total GULP energy -134133.567222 kJ/mol
# GULP energy per Si atom -5588.898634 kJ/mol
# Density = 2.358693 g / cm^3
# Si number density = 23.640738 Si / 1000 Ang^3
#
#
#
# Elastic Constant Matrix: (Units=GPa)
#
#
# Indices 1 2 3 4 5 6 
#
# 1 103.2699 6.0239 -0.0695 0.0000 -3.5184 0.0000
# 2 6.0239 119.3462 11.0064 0.0000 16.4683 0.0000
# 3 -0.0695 11.0064 27.7469 0.0000 -9.8924 0.0000
# 4 0.0000 0.0000 0.0000 30.9671 0.0000 12.9869
# 5 -3.5184 16.4683 -9.8924 0.0000 24.3576 0.0000
# 6 0.0000 0.0000 0.0000 12.9869 0.0000 37.1401
#
#
#
# Elastic Compliance Matrix: (Units=1/GPa)
#
#
# Indices 1 2 3 4 5 6 
#
# 1 0.009832 -0.000985 0.001355 0.000000 0.002637 0.000000
# 2 -0.000985 0.010623 -0.007984 0.000000 -0.010567 0.000000
# 3 0.001355 -0.007984 0.048181 0.000000 0.025161 0.000000
# 4 0.000000 0.000000 0.000000 0.037842 0.000000 -0.013232
# 5 0.002637 -0.010567 0.025161 0.000000 0.058799 0.000000
# 6 0.000000 0.000000 0.000000 -0.013232 0.000000 0.031552
#
#
# Mechanical properties :
#
#
# Convention : Reuss Voigt Hill
#
# Bulk Modulus (GPa) = 18.72352 31.58720 25.15536
# Shear Modulus (GPa) = 21.75257 34.05313 27.90285
#
# Velocity S-wave (km/s) = 3.03666 3.79943 3.43926
# Velocity P-wave (km/s) = 4.49803 5.71296 5.14151
#
# Compressibility (1/GPa) = 0.05340877
#
# Stress axis : x y z
#
# Youngs Moduli (GPa) = 101.71322 94.13450 20.75510
#
# Poissons Ratio (x) = 0.09273 -0.02813
# Poissons Ratio (y) = 0.10019 0.16570
# Poissons Ratio (z) = -0.13786 0.75154
#
# Static dielectric constant tensor:
#      x y z
#    x 1.898460 0.000000 0.021270 
#    y 0.000000 1.934590 0.000000 
#    z 0.021270 0.000000 1.969290 
# 
# From -- ./inp_files/167923.got.cif
#   From: 2010.05.17/outbox.cif.g08.bks.cpg/sg15_84_cif.got.tgz:167923.got - 2010.06.03 18:47:42.
