data_PCOD9288795
_publ_section_title
;
Structure prediction by ZEFSAII (Michael W. Deem and Ramdas Pophale) SiO2 
 PCOD9288795
Probable space group: C 2/C
;
_chemical_formula_sum "Si O2"
_cell_formula_units_Z 56
_cell_length_a 19.421994
_cell_length_b 16.660302
_cell_length_c 9.717753
_cell_angle_alpha 90.000000
_cell_angle_beta 124.812347
_cell_angle_gamma 90.000000
_cell_volume 2581.663054
_symmetry_space_group_name_H-M "C 2/C"
_symmetry_group_IT_number 15
_symmetry_cell_setting 'monoclinic'
loop_
_space_group_symop_operation_xyz
x,y,z
-x,y,1/2-z
-x,-y,-z
x,-y,1/2+z
1/2+x,1/2+y,z
1/2-x,1/2+y,1/2-z
1/2-x,1/2-y,-z
1/2+x,1/2-y,1/2+z
loop_
_atom_site_type_symbol
_atom_site_label
_atom_site_fract_x
_atom_site_fract_y
_atom_site_fract_z
Si Si1 0.449796 0.946136 0.553087
Si Si2 0.155477 0.303130 0.074652
Si Si3 0.262457 0.660483 0.958868
Si Si4 0.424949 0.414587 0.233493
Si Si5 0.614064 0.553568 0.525282
Si Si6 0.261008 0.656512 0.430592
Si Si7 0.224605 0.537493 0.162180
O O1 0.500000 0.955779 0.750000
O O2 0.432587 0.850081 0.512633
O O3 0.500000 0.000000 0.500000
O O4 0.355958 0.982927 0.457069
O O5 0.206598 0.342790 0.258082
O O6 0.183666 0.209575 0.114891
O O7 0.192017 0.313131 0.960767
O O8 0.354189 0.634550 0.010952
O O9 0.250000 0.750000 0.000000
O O10 0.239115 0.592977 0.044823
O O11 0.500000 0.364867 0.250000
O O12 0.446038 0.427296 0.416519
O O13 0.416258 0.493366 0.127050
O O14 0.334145 0.375847 0.113035
O O15 0.691855 0.509893 0.693969
O O16 0.211772 0.594098 0.279605
#
# Coordination Sequence:
#
# PCOD9288795 Si02
#       7
#     8   8   8   8   8   8   8
#     4  12  25  40  63  96 135 175 216 276 340 402
#     4  11  22  41  63  92 128 166 229 271 323 390
#     4  12  22  39  65  97 123 161 219 280 321 367
#     4  11  22  38  63  96 131 165 207 262 335 394
#     4  11  22  40  64  93 125 169 221 270 311 395
#     4  10  22  39  65  92 123 173 220 275 316 389
#     4  11  22  40  66  91 123 171 226 266 324 390
#
# _framework density 21.691444000000001
#
# number of rings (size 3 to 8) (size 9 to 14) (size 15 to 20)
#    0.000    0.857    5.714    2.143    2.000    0.571 
#    0.000    1.429    0.000    0.857    0.000    0.000 
#    0.000    0.000    0.000    0.000    0.000    0.000 
#
# Total GULP energy -155970.264417 kJ/mol
# GULP energy per Si atom -5570.366586 kJ/mol
# Density = 2.164207 g / cm^3
# Si number density = 21.691444 Si / 1000 Ang^3
#
#
#
# Elastic Constant Matrix: (Units=GPa)
#
#
# Indices 1 2 3 4 5 6 
#
# 1 57.5659 13.2405 3.9352 0.0000 -12.6226 0.0000
# 2 13.2405 74.2296 20.0200 0.0000 -3.9935 0.0000
# 3 3.9352 20.0200 69.3825 0.0000 -2.7382 0.0000
# 4 0.0000 0.0000 0.0000 32.5105 0.0000 -8.4552
# 5 -12.6226 -3.9935 -2.7382 0.0000 37.8982 0.0000
# 6 0.0000 0.0000 0.0000 -8.4552 0.0000 37.2095
#
#
#
# Elastic Compliance Matrix: (Units=1/GPa)
#
#
# Indices 1 2 3 4 5 6 
#
# 1 0.019440 -0.003150 0.000049 0.000000 0.006147 0.000000
# 2 -0.003150 0.015177 -0.004191 0.000000 0.000247 0.000000
# 3 0.000049 -0.004191 0.015647 0.000000 0.000705 0.000000
# 4 0.000000 0.000000 0.000000 0.032691 0.000000 0.007429
# 5 0.006147 0.000247 0.000705 0.000000 0.028511 0.000000
# 6 0.000000 0.000000 0.000000 0.007429 0.000000 0.028563
#
#
# Mechanical properties :
#
#
# Convention : Reuss Voigt Hill
#
# Bulk Modulus (GPa) = 28.02649 30.61883 29.32266
# Shear Modulus (GPa) = 30.02872 32.45580 31.24226
#
# Velocity S-wave (km/s) = 3.72473 3.87233 3.79925
# Velocity P-wave (km/s) = 5.60774 5.84291 5.72653
#
# Compressibility (1/GPa) = 0.03568053
#
# Stress axis : x y z
#
# Youngs Moduli (GPa) = 51.43939 65.88822 63.90931
#
# Poissons Ratio (x) = 0.20756 -0.00313
# Poissons Ratio (y) = 0.16204 0.26784
# Poissons Ratio (z) = -0.00252 0.27613
#
# Static dielectric constant tensor:
#      x y z
#    x 1.840430 0.000000 -0.006000 
#    y 0.000000 2.020900 0.000000 
#    z -0.006000 0.000000 1.778640 
# 
# From -- ./inp_files/56703.got.cif
#   From: 2010.05.17/outbox.cif.g08.bks.cpg/sg15_29_cif.got.tgz:56703.got - 2010.06.03 18:47:42.
