data_PCOD9288494
_publ_section_title
;
Structure prediction by ZEFSAII (Michael W. Deem and Ramdas Pophale) SiO2 
 PCOD9288494
Probable space group: C 2/C
;
_chemical_formula_sum "Si O2"
_cell_formula_units_Z 56
_cell_length_a 15.778833
_cell_length_b 17.779112
_cell_length_c 11.846596
_cell_angle_alpha 90.000000
_cell_angle_beta 117.187592
_cell_angle_gamma 90.000000
_cell_volume 2956.187434
_symmetry_space_group_name_H-M "C 2/C"
_symmetry_group_IT_number 15
_symmetry_cell_setting 'monoclinic'
loop_
_space_group_symop_operation_xyz
x,y,z
-x,y,1/2-z
-x,-y,-z
x,-y,1/2+z
1/2+x,1/2+y,z
1/2-x,1/2+y,1/2-z
1/2-x,1/2-y,-z
1/2+x,1/2-y,1/2+z
loop_
_atom_site_type_symbol
_atom_site_label
_atom_site_fract_x
_atom_site_fract_y
_atom_site_fract_z
Si Si1 0.105202 0.795370 0.475963
Si Si2 0.607181 0.854959 0.828607
Si Si3 0.404676 0.494627 0.866976
Si Si4 0.784075 0.941253 0.996765
Si Si5 0.741285 0.208028 0.229696
Si Si6 0.893107 0.843915 0.412877
Si Si7 0.651239 0.403748 0.866075
O O1 0.106753 0.724258 0.394730
O O2 0.147083 0.869537 0.439139
O O3 0.176405 0.781336 0.625042
O O4 0.997549 0.810534 0.450641
O O5 0.500000 0.881761 0.750000
O O6 0.677244 0.911627 0.934587
O O7 0.657910 0.838801 0.740541
O O8 0.319452 0.463153 0.892040
O O9 0.382163 0.581420 0.829259
O O10 0.417663 0.436721 0.773410
O O11 0.500000 0.500000 0.000000
O O12 0.795840 0.017810 0.072220
O O13 0.690935 0.285010 0.161631
O O14 0.785573 0.160184 0.154840
O O15 0.886660 0.871000 0.539222
#
# Coordination Sequence:
#
# PCOD9288494 Si02
#       7
#     8   8   8   8   8   8   8
#     4  11  22  40  61  98 124 164 212 262 315 380
#     4  11  22  40  66  88 123 166 217 266 304 374
#     4  11  21  39  59  96 129 162 199 254 329 380
#     4  10  22  39  60  92 123 161 209 254 323 366
#     4  11  22  43  62  91 128 165 214 257 320 381
#     4  11  24  39  65  97 127 170 210 253 330 381
#     4  11  24  40  65  90 136 163 203 267 315 387
#
# _framework density 18.94332
#
# number of rings (size 3 to 8) (size 9 to 14) (size 15 to 20)
#    0.000    1.143    5.714    2.143    4.000    5.143 
#    0.000    0.714    6.286    0.000    0.000    0.000 
#    0.000    0.000    0.000    0.000    0.000    0.000 
#
# Total GULP energy -156314.283302 kJ/mol
# GULP energy per Si atom -5582.652975 kJ/mol
# Density = 1.890020 g / cm^3
# Si number density = 18.943320 Si / 1000 Ang^3
#
#
#
# Elastic Constant Matrix: (Units=GPa)
#
#
# Indices 1 2 3 4 5 6 
#
# 1 116.2287 49.3420 34.5646 0.0000 8.9651 0.0000
# 2 49.3420 110.7295 39.2497 0.0000 19.1772 0.0000
# 3 34.5646 39.2497 63.0317 0.0000 -1.3108 0.0000
# 4 0.0000 0.0000 0.0000 33.1807 0.0000 -3.7204
# 5 8.9651 19.1772 -1.3108 0.0000 21.7109 0.0000
# 6 0.0000 0.0000 0.0000 -3.7204 0.0000 29.5498
#
#
#
# Elastic Compliance Matrix: (Units=1/GPa)
#
#
# Indices 1 2 3 4 5 6 
#
# 1 0.011404 -0.003175 -0.004322 0.000000 -0.002166 0.000000
# 2 -0.003175 0.015621 -0.008257 0.000000 -0.012986 0.000000
# 3 -0.004322 -0.008257 0.023595 0.000000 0.010502 0.000000
# 4 0.000000 0.000000 0.000000 0.030570 0.000000 0.003849
# 5 -0.002166 -0.012986 0.010502 0.000000 0.059059 0.000000
# 6 0.000000 0.000000 0.000000 0.003849 0.000000 0.034326
#
#
# Mechanical properties :
#
#
# Convention : Reuss Voigt Hill
#
# Bulk Modulus (GPa) = 52.31764 59.58916 55.95340
# Shear Modulus (GPa) = 23.53492 28.01052 25.77272
#
# Velocity S-wave (km/s) = 3.52857 3.84949 3.69252
# Velocity P-wave (km/s) = 6.65425 7.16121 6.91238
#
# Compressibility (1/GPa) = 0.01911401
#
# Stress axis : x y z
#
# Youngs Moduli (GPa) = 87.69115 64.01506 42.38266
#
# Poissons Ratio (x) = 0.20322 0.18316
# Poissons Ratio (y) = 0.27839 0.34993
# Poissons Ratio (z) = 0.37897 0.52854
#
# Static dielectric constant tensor:
#      x y z
#    x 1.647660 0.000000 -0.001660 
#    y 0.000000 1.674300 0.000000 
#    z -0.001660 0.000000 1.730340 
# 
# From -- ./inp_files/98386.got.cif
#   From: 2010.05.17/outbox.cif.g08.bks.cpg/sg15_50_cif.got.tgz:98386.got - 2010.06.03 18:47:42.
