data_PCOD9288122
_publ_section_title
;
Structure prediction by ZEFSAII (Michael W. Deem and Ramdas Pophale) SiO2 
 PCOD9288122
Probable space group: C 2/C
;
_chemical_formula_sum "Si O2"
_cell_formula_units_Z 44
_cell_length_a 7.837491
_cell_length_b 11.014702
_cell_length_c 20.310374
_cell_angle_alpha 90.000000
_cell_angle_beta 98.754483
_cell_angle_gamma 90.000000
_cell_volume 1732.919229
_symmetry_space_group_name_H-M "C 2/C"
_symmetry_group_IT_number 15
_symmetry_cell_setting 'monoclinic'
loop_
_space_group_symop_operation_xyz
x,y,z
-x,y,1/2-z
-x,-y,-z
x,-y,1/2+z
1/2+x,1/2+y,z
1/2-x,1/2+y,1/2-z
1/2-x,1/2-y,-z
1/2+x,1/2-y,1/2+z
loop_
_atom_site_type_symbol
_atom_site_label
_atom_site_fract_x
_atom_site_fract_y
_atom_site_fract_z
Si Si1 0.555720 0.821015 0.917939
Si Si2 0.702798 0.918850 0.392109
Si Si3 0.334059 0.142080 0.286738
Si Si4 0.431076 0.749525 0.431840
Si Si5 0.000000 0.000000 0.500000
Si Si6 0.297578 0.608701 0.749488
O O1 0.399060 0.799415 0.859278
O O2 0.723758 0.739334 0.908599
O O3 0.602633 0.960110 0.907915
O O4 0.536816 0.809837 0.994753
O O5 0.562056 0.812293 0.390594
O O6 0.863060 0.910974 0.451628
O O7 0.759733 0.936174 0.320884
O O8 0.500000 0.120126 0.250000
O O9 0.228388 0.251208 0.244401
O O10 0.259151 0.008475 0.295896
O O11 0.465845 0.607361 0.443615
O O12 0.500000 0.623076 0.750000
#
# Coordination Sequence:
#
# PCOD9288122 Si02
#       6
#     8   8   8   8   4   8
#     4  10  22  42  68 102 142 184 246 305 367 450
#     4  11  22  41  67 101 140 193 241 303 380 446
#     4  11  24  48  70 102 145 194 250 309 373 446
#     4  10  22  40  70 104 144 190 237 306 382 441
#     4  10  22  38  64 106 142 176 242 294 372 458
#     4  11  27  46  72 103 143 195 254 309 371 445
#
# _framework density 25.390681000000001
#
# number of rings (size 3 to 8) (size 9 to 14) (size 15 to 20)
#    0.000    1.455    1.818    2.182    0.000    8.000 
#    0.000    0.000    0.000    0.000    0.000    0.000 
#    0.000    0.000    0.000    0.000    0.000    0.000 
#
# Total GULP energy -122511.008503 kJ/mol
# GULP energy per Si atom -5568.682205 kJ/mol
# Density = 2.533289 g / cm^3
# Si number density = 25.390681 Si / 1000 Ang^3
#
#
#
# Elastic Constant Matrix: (Units=GPa)
#
#
# Indices 1 2 3 4 5 6 
#
# 1 72.5724 16.6923 40.6527 0.0000 -7.9066 0.0000
# 2 16.6923 138.7398 1.6077 0.0000 5.9507 0.0000
# 3 40.6527 1.6077 77.5125 0.0000 11.8269 0.0000
# 4 0.0000 0.0000 0.0000 28.9928 0.0000 3.0620
# 5 -7.9066 5.9507 11.8269 0.0000 40.2637 0.0000
# 6 0.0000 0.0000 0.0000 3.0620 0.0000 37.5668
#
#
#
# Elastic Compliance Matrix: (Units=1/GPa)
#
#
# Indices 1 2 3 4 5 6 
#
# 1 0.022862 -0.002975 -0.013276 0.000000 0.008829 0.000000
# 2 -0.002975 0.007641 0.001742 0.000000 -0.002225 0.000000
# 3 -0.013276 0.001742 0.021216 0.000000 -0.009096 0.000000
# 4 0.000000 0.000000 0.000000 0.034791 0.000000 -0.002836
# 5 0.008829 -0.002225 -0.009096 0.000000 0.029571 0.000000
# 6 0.000000 0.000000 0.000000 -0.002836 0.000000 0.026850
#
#
# Mechanical properties :
#
#
# Convention : Reuss Voigt Hill
#
# Bulk Modulus (GPa) = 44.05412 45.19223 44.62318
# Shear Modulus (GPa) = 27.85250 36.68946 32.27098
#
# Velocity S-wave (km/s) = 3.31563 3.80544 3.56894
# Velocity P-wave (km/s) = 5.66092 6.09474 5.88183
#
# Compressibility (1/GPa) = 0.02269935
#
# Stress axis : x y z
#
# Youngs Moduli (GPa) = 43.74006 130.87316 47.13493
#
# Poissons Ratio (x) = 0.38941 0.62576
# Poissons Ratio (y) = 0.13015 -0.08209
# Poissons Ratio (z) = 0.58069 -0.22792
#
# Static dielectric constant tensor:
#      x y z
#    x 2.014570 0.000000 0.028770 
#    y 0.000000 2.002590 0.000000 
#    z 0.028770 0.000000 2.014600 
# 
# From -- ./inp_files/230270.got.cif
#   From: 2010.05.17/outbox.cif.g08.bks.cpg/sg15_116_cif.got.tgz:230270.got - 2010.06.03 18:47:42.
