data_PCOD9288351
_publ_section_title
;
Structure prediction by ZEFSAII (Michael W. Deem and Ramdas Pophale) SiO2 
 PCOD9288351
Probable space group: C 2/C
;
_chemical_formula_sum "Si O2"
_cell_formula_units_Z 44
_cell_length_a 19.118028
_cell_length_b 10.670485
_cell_length_c 9.073080
_cell_angle_alpha 90.000000
_cell_angle_beta 75.336296
_cell_angle_gamma 90.000000
_cell_volume 1790.609092
_symmetry_space_group_name_H-M "C 2/C"
_symmetry_group_IT_number 15
_symmetry_cell_setting 'monoclinic'
loop_
_space_group_symop_operation_xyz
x,y,z
-x,y,1/2-z
-x,-y,-z
x,-y,1/2+z
1/2+x,1/2+y,z
1/2-x,1/2+y,1/2-z
1/2-x,1/2-y,-z
1/2+x,1/2-y,1/2+z
loop_
_atom_site_type_symbol
_atom_site_label
_atom_site_fract_x
_atom_site_fract_y
_atom_site_fract_z
Si Si1 0.299601 0.330038 0.155723
Si Si2 0.785015 0.910231 0.505296
Si Si3 0.000000 0.224584 0.250000
Si Si4 0.849517 0.762413 0.728864
Si Si5 0.873913 0.518577 0.334895
Si Si6 0.068266 0.645485 0.449794
O O1 0.291569 0.383093 0.328094
O O2 0.302957 0.449796 0.047955
O O3 0.232582 0.234607 0.165127
O O4 0.371518 0.252485 0.092585
O O5 0.835942 0.817253 0.573112
O O6 0.700789 0.906215 0.603210
O O7 0.919553 0.168645 0.263584
O O8 0.991763 0.301290 0.408207
O O9 0.861668 0.614167 0.756375
O O10 0.932647 0.597040 0.214980
O O11 0.901425 0.472884 0.476576
#
# Coordination Sequence:
#
# PCOD9288351 Si02
#       6
#     8   8   4   8   8   8
#     4  11  25  41  75 102 138 174 235 292 339 399
#     4  11  23  41  71 109 132 176 232 296 339 395
#     4  10  26  44  70  96 148 182 224 278 348 416
#     4  10  22  42  68 100 139 177 228 277 340 411
#     4  10  22  38  69  99 136 170 223 283 340 395
#     4  11  24  44  66 103 134 184 223 279 343 408
#
# _framework density 24.572644
#
# number of rings (size 3 to 8) (size 9 to 14) (size 15 to 20)
#    0.000    1.455    1.818    2.727    7.636    6.545 
#    0.000    1.818    0.000    0.000    0.000    0.000 
#    0.000    0.000    0.000    0.000    0.000    0.000 
#
# Total GULP energy -122730.008906 kJ/mol
# GULP energy per Si atom -5578.636768 kJ/mol
# Density = 2.451672 g / cm^3
# Si number density = 24.572644 Si / 1000 Ang^3
#
#
#
# Elastic Constant Matrix: (Units=GPa)
#
#
# Indices 1 2 3 4 5 6 
#
# 1 125.9886 27.3528 60.4027 0.0000 3.5860 0.0000
# 2 27.3528 41.9667 44.1928 0.0000 -1.3266 0.0000
# 3 60.4027 44.1928 182.3783 0.0000 -9.8183 0.0000
# 4 0.0000 0.0000 0.0000 49.9478 0.0000 1.5000
# 5 3.5860 -1.3266 -9.8183 0.0000 28.2797 0.0000
# 6 0.0000 0.0000 0.0000 1.5000 0.0000 30.3445
#
#
#
# Elastic Compliance Matrix: (Units=1/GPa)
#
#
# Indices 1 2 3 4 5 6 
#
# 1 0.010068 -0.004017 -0.002486 0.000000 -0.002328 0.000000
# 2 -0.004017 0.033636 -0.006835 0.000000 -0.000286 0.000000
# 3 -0.002486 -0.006835 0.008114 0.000000 0.002812 0.000000
# 4 0.000000 0.000000 0.000000 0.020051 0.000000 -0.000991
# 5 -0.002328 -0.000286 0.002812 0.000000 0.036619 0.000000
# 6 0.000000 0.000000 0.000000 -0.000991 0.000000 0.033004
#
#
# Mechanical properties :
#
#
# Convention : Reuss Voigt Hill
#
# Bulk Modulus (GPa) = 39.77753 68.24779 54.01266
# Shear Modulus (GPa) = 28.32081 36.27341 32.29711
#
# Velocity S-wave (km/s) = 3.39858 3.84626 3.62933
# Velocity P-wave (km/s) = 5.62346 6.89632 6.29216
#
# Compressibility (1/GPa) = 0.02513982
#
# Stress axis : x y z
#
# Youngs Moduli (GPa) = 99.32800 29.73044 123.24100
#
# Poissons Ratio (x) = 0.11944 0.30641
# Poissons Ratio (y) = 0.39903 0.84238
# Poissons Ratio (z) = 0.24695 0.20321
#
# Static dielectric constant tensor:
#      x y z
#    x 2.034650 0.000000 0.024950 
#    y 0.000000 1.976400 0.000000 
#    z 0.024950 0.000000 1.977600 
# 
# From -- ./inp_files/54361.got.cif
#   From: 2010.05.17/outbox.cif.g08.bks.cpg/sg15_28_cif.got.tgz:54361.got - 2010.06.03 18:47:42.
