data_PCOD9288291
_publ_section_title
;
Structure prediction by ZEFSAII (Michael W. Deem and Ramdas Pophale) SiO2 
 PCOD9288291
Probable space group: C 2/C
;
_chemical_formula_sum "Si O2"
_cell_formula_units_Z 48
_cell_length_a 13.076209
_cell_length_b 13.306627
_cell_length_c 14.990071
_cell_angle_alpha 90.000000
_cell_angle_beta 131.700842
_cell_angle_gamma 90.000000
_cell_volume 1947.412869
_symmetry_space_group_name_H-M "C 2/C"
_symmetry_group_IT_number 15
_symmetry_cell_setting 'monoclinic'
loop_
_space_group_symop_operation_xyz
x,y,z
-x,y,1/2-z
-x,-y,-z
x,-y,1/2+z
1/2+x,1/2+y,z
1/2-x,1/2+y,1/2-z
1/2-x,1/2-y,-z
1/2+x,1/2-y,1/2+z
loop_
_atom_site_type_symbol
_atom_site_label
_atom_site_fract_x
_atom_site_fract_y
_atom_site_fract_z
Si Si1 0.452204 0.843792 0.128405
Si Si2 0.013343 0.122429 0.165679
Si Si3 0.806716 0.566977 0.832385
Si Si4 0.861947 0.825307 0.110815
Si Si5 0.439404 0.372901 0.426813
Si Si6 0.677249 0.147371 0.114297
O O1 0.500000 0.890418 0.250000
O O2 0.431577 0.726393 0.133308
O O3 0.576772 0.857735 0.132060
O O4 0.326141 0.877022 0.994383
O O5 0.172357 0.152048 0.257417
O O6 0.000000 0.059815 0.250000
O O7 0.970980 0.089007 0.043833
O O8 0.729988 0.606020 0.876464
O O9 0.689036 0.570316 0.689800
O O10 0.875923 0.457244 0.875848
O O11 0.000000 0.789838 0.250000
O O12 0.935066 0.876139 0.068680
O O13 0.750000 0.750000 0.000000
O O14 0.394546 0.253894 0.408697
#
# Coordination Sequence:
#
# PCOD9288291 Si02
#       6
#     8   8   8   8   8   8
#     4  10  22  40  66  96 130 175 224 282 342 410
#     4  10  22  38  67  94 129 174 225 274 349 403
#     4  11  23  44  66  98 142 174 229 286 338 414
#     4  10  22  41  69  98 137 187 229 284 345 414
#     4  10  23  42  68  99 138 179 231 282 350 410
#     4  11  23  41  67  97 137 179 225 285 343 415
#
# _framework density 24.648085999999999
#
# number of rings (size 3 to 8) (size 9 to 14) (size 15 to 20)
#    0.000    1.667    1.667    2.500    4.667    4.667 
#    3.000    3.333    0.000    0.000    0.000    0.000 
#    0.000    0.000    0.000    0.000    0.000    0.000 
#
# Total GULP energy -133927.869826 kJ/mol
# GULP energy per Si atom -5580.327909 kJ/mol
# Density = 2.459199 g / cm^3
# Si number density = 24.648086 Si / 1000 Ang^3
#
#
#
# Elastic Constant Matrix: (Units=GPa)
#
#
# Indices 1 2 3 4 5 6 
#
# 1 118.0284 35.4172 43.2612 0.0000 -12.1331 0.0000
# 2 35.4172 103.9919 56.6598 0.0000 -2.2592 0.0000
# 3 43.2612 56.6598 195.3911 0.0000 -30.0725 0.0000
# 4 0.0000 0.0000 0.0000 40.0471 0.0000 2.9139
# 5 -12.1331 -2.2592 -30.0725 0.0000 51.0743 0.0000
# 6 0.0000 0.0000 0.0000 2.9139 0.0000 14.9280
#
#
#
# Elastic Compliance Matrix: (Units=1/GPa)
#
#
# Indices 1 2 3 4 5 6 
#
# 1 0.009866 -0.002691 -0.001168 0.000000 0.001537 0.000000
# 2 -0.002691 0.012273 -0.003275 0.000000 -0.002024 0.000000
# 3 -0.001168 -0.003275 0.006885 0.000000 0.003632 0.000000
# 4 0.000000 0.000000 0.000000 0.025330 0.000000 -0.004944
# 5 0.001537 -0.002024 0.003632 0.000000 0.021993 0.000000
# 6 0.000000 0.000000 0.000000 -0.004944 0.000000 0.067953
#
#
# Mechanical properties :
#
#
# Convention : Reuss Voigt Hill
#
# Bulk Modulus (GPa) = 67.76035 76.45421 72.10728
# Shear Modulus (GPa) = 30.58373 40.01476 35.29925
#
# Velocity S-wave (km/s) = 3.52634 4.03357 3.78845
# Velocity P-wave (km/s) = 6.64311 7.26488 6.96094
#
# Compressibility (1/GPa) = 0.01475789
#
# Stress axis : x y z
#
# Youngs Moduli (GPa) = 101.35942 81.48151 145.24304
#
# Poissons Ratio (x) = 0.21923 0.16958
# Poissons Ratio (y) = 0.27271 0.47563
# Poissons Ratio (z) = 0.11835 0.26683
#
# Static dielectric constant tensor:
#      x y z
#    x 1.979750 0.000000 0.037920 
#    y 0.000000 1.989310 0.000000 
#    z 0.037920 0.000000 2.050210 
# 
# From -- ./inp_files/154102.got.cif
#   From: 2010.05.17/outbox.cif.g08.bks.cpg/sg15_78_cif.got.tgz:154102.got - 2010.06.03 18:47:42.
