data_PCOD9288565
_publ_section_title
;
Structure prediction by ZEFSAII (Michael W. Deem and Ramdas Pophale) SiO2 
 PCOD9288565
Probable space group: C 2/C
;
_chemical_formula_sum "Si O2"
_cell_formula_units_Z 64
_cell_length_a 23.158266
_cell_length_b 20.312249
_cell_length_c 9.392357
_cell_angle_alpha 90.000000
_cell_angle_beta 44.036732
_cell_angle_gamma 90.000000
_cell_volume 3071.128908
_symmetry_space_group_name_H-M "C 2/C"
_symmetry_group_IT_number 15
_symmetry_cell_setting 'monoclinic'
loop_
_space_group_symop_operation_xyz
x,y,z
-x,y,1/2-z
-x,-y,-z
x,-y,1/2+z
1/2+x,1/2+y,z
1/2-x,1/2+y,1/2-z
1/2-x,1/2-y,-z
1/2+x,1/2-y,1/2+z
loop_
_atom_site_type_symbol
_atom_site_label
_atom_site_fract_x
_atom_site_fract_y
_atom_site_fract_z
Si Si1 0.799400 0.391347 0.837451
Si Si2 0.596658 0.878094 0.102860
Si Si3 0.189389 0.994845 0.858259
Si Si4 0.576250 0.316733 0.706761
Si Si5 0.078153 0.036668 0.297074
Si Si6 0.940790 0.477314 0.735288
Si Si7 0.332192 0.785081 0.290611
Si Si8 0.765287 0.145527 0.764500
O O1 0.850983 0.353639 0.625290
O O2 0.744219 0.442485 0.845397
O O3 0.869126 0.430996 0.803095
O O4 0.744577 0.351363 0.047892
O O5 0.500000 0.862689 0.250000
O O6 0.597801 0.957157 0.123910
O O7 0.638245 0.845811 0.165582
O O8 0.232495 0.066641 0.771778
O O9 0.157776 0.970134 0.761123
O O10 0.107065 0.005588 0.097849
O O11 0.500000 0.291184 0.750000
O O12 0.556847 0.388036 0.804836
O O13 0.599315 0.269847 0.797341
O O14 0.652432 0.327162 0.460072
O O15 0.000000 0.000000 0.500000
O O16 0.000000 0.445602 0.750000
O O17 0.000000 0.500000 0.500000
O O18 0.250000 0.750000 0.500000
O O19 0.309167 0.814653 0.178939
#
# Coordination Sequence:
#
# PCOD9288565 Si02
#       8
#     8   8   8   8   8   8   8   8
#     4  12  23  36  60  93 133 162 207 271 318 386
#     4  11  23  39  62  88 123 170 212 255 320 377
#     4  11  22  36  61  95 132 166 208 262 332 385
#     4  10  22  42  68  92 128 170 220 264 321 392
#     4  11  22  39  64  97 130 166 209 266 337 391
#     4  11  22  38  57  96 131 167 204 261 324 382
#     4  10  23  42  67  88 120 172 222 260 305 383
#     4  10  22  39  61  96 126 171 213 262 319 380
#
# _framework density 20.839241000000001
#
# number of rings (size 3 to 8) (size 9 to 14) (size 15 to 20)
#    0.000    1.250    3.750    3.750    7.000    0.000 
#    0.000    2.500    0.000    3.000    0.000    0.000 
#    0.000    0.000    0.000    0.000    0.000    0.000 
#
# Total GULP energy -178736.173651 kJ/mol
# GULP energy per Si atom -5585.505427 kJ/mol
# Density = 2.079181 g / cm^3
# Si number density = 20.839241 Si / 1000 Ang^3
#
#
#
# Elastic Constant Matrix: (Units=GPa)
#
#
# Indices 1 2 3 4 5 6 
#
# 1 89.9929 8.1488 -15.3550 0.0000 4.7073 0.0000
# 2 8.1488 36.3076 -4.2003 0.0000 -5.6938 0.0000
# 3 -15.3550 -4.2003 92.3180 0.0000 11.2077 0.0000
# 4 0.0000 0.0000 0.0000 -9.0669 0.0000 7.8900
# 5 4.7073 -5.6938 11.2077 0.0000 26.8030 0.0000
# 6 0.0000 0.0000 0.0000 7.8900 0.0000 29.0584
#
#
#
# Elastic Compliance Matrix: (Units=1/GPa)
#
#
# Indices 1 2 3 4 5 6 
#
# 1 0.011971 -0.003001 0.002304 0.000000 -0.003703 0.000000
# 2 -0.003001 0.029275 0.000015 0.000000 0.006740 0.000000
# 3 0.002304 0.000015 0.011867 0.000000 -0.005364 0.000000
# 4 0.000000 0.000000 0.000000 -0.089212 0.000000 0.024223
# 5 -0.003703 0.006740 -0.005364 0.000000 0.041634 0.000000
# 6 0.000000 0.000000 0.000000 0.024223 0.000000 0.027836
#
#
# Mechanical properties :
#
#
# Convention : Reuss Voigt Hill
#
# Bulk Modulus (GPa) = 19.32443 21.75617 20.54030
# Shear Modulus (GPa) = 96.18301 24.69389 60.43845
#
# Velocity S-wave (km/s) = 6.80110 3.44608 5.39121
# Velocity P-wave (km/s) = 8.42416 5.12802 6.97363
#
# Compressibility (1/GPa) = 0.05174796
#
# Stress axis : x y z
#
# Youngs Moduli (GPa) = 83.53831 34.15938 84.26573
#
# Poissons Ratio (x) = 0.10251 -0.19416
# Poissons Ratio (y) = 0.25068 -0.00123
# Poissons Ratio (z) = -0.19248 -0.00050
#
# Static dielectric constant tensor:
#      x y z
#    x 1.763760 0.000000 -0.030600 
#    y 0.000000 1.747350 0.000000 
#    z -0.030600 0.000000 1.784180 
# 
# From -- ./inp_files/63410.got.cif
#   From: 2010.05.17/outbox.cif.g08.bks.cpg/sg15_32_cif.got.tgz:63410.got - 2010.06.03 18:47:42.
