data_PCOD9288845
_publ_section_title
;
Structure prediction by ZEFSAII (Michael W. Deem and Ramdas Pophale) SiO2 
 PCOD9288845
Probable space group: C 2/C
;
_chemical_formula_sum "Si O2"
_cell_formula_units_Z 48
_cell_length_a 5.081244
_cell_length_b 13.800289
_cell_length_c 28.251153
_cell_angle_alpha 90.000000
_cell_angle_beta 83.492149
_cell_angle_gamma 90.000000
_cell_volume 1968.280116
_symmetry_space_group_name_H-M "C 2/C"
_symmetry_group_IT_number 15
_symmetry_cell_setting 'monoclinic'
loop_
_space_group_symop_operation_xyz
x,y,z
-x,y,1/2-z
-x,-y,-z
x,-y,1/2+z
1/2+x,1/2+y,z
1/2-x,1/2+y,1/2-z
1/2-x,1/2-y,-z
1/2+x,1/2-y,1/2+z
loop_
_atom_site_type_symbol
_atom_site_label
_atom_site_fract_x
_atom_site_fract_y
_atom_site_fract_z
Si Si1 0.500000 0.129051 0.750000
Si Si2 0.367207 0.440089 0.650822
Si Si3 0.672491 0.250248 0.102473
Si Si4 0.500000 0.491748 0.750000
Si Si5 0.677951 0.881572 0.518009
Si Si6 0.845875 0.981617 0.942606
Si Si7 0.637702 0.153382 0.646223
O O1 0.254869 0.061479 0.738606
O O2 0.594344 0.185723 0.701550
O O3 0.218089 0.347541 0.632885
O O4 0.446187 0.431751 0.703759
O O5 0.625581 0.459499 0.612996
O O6 0.203999 0.539768 0.648425
O O7 0.724543 0.215084 0.047402
O O8 0.382009 0.291792 0.116964
O O9 0.883069 0.322800 0.120821
O O10 0.762728 0.913312 0.463556
O O11 0.371131 0.908785 0.531204
O O12 0.862663 0.957998 0.543266
#
# Coordination Sequence:
#
# PCOD9288845 Si02
#       7
#     4   8   8   4   8   8   8
#     4  10  22  43  62  87 126 164 200 253 308 363
#     4  10  23  43  64  91 125 161 202 253 305 359
#     4  11  23  39  64  92 122 160 205 251 303 364
#     4  10  22  39  66  91 120 160 206 251 300 363
#     4   9  18  35  57  89 120 154 203 246 294 365
#     4   9  18  34  61  85 119 164 194 242 311 354
#     4  11  24  41  62  89 123 161 202 252 306 361
#
# _framework density 24.386773999999999
#
# number of rings (size 3 to 8) (size 9 to 14) (size 15 to 20)
#    0.000    2.000    0.000    4.000    0.000   12.667 
#    0.000    6.667    0.000    0.000    0.000    0.000 
#    0.000    0.000    0.000    0.000    0.000    0.000 
#
# Total GULP energy -134256.401619 kJ/mol
# GULP energy per Si atom -5594.016734 kJ/mol
# Density = 2.433127 g / cm^3
# Si number density = 24.386774 Si / 1000 Ang^3
#
#
#
# Elastic Constant Matrix: (Units=GPa)
#
#
# Indices 1 2 3 4 5 6 
#
# 1 56.6038 -11.0803 -3.9272 0.0000 -9.3027 0.0000
# 2 -11.0803 76.9251 -15.2664 0.0000 14.6039 0.0000
# 3 -3.9272 -15.2664 123.0295 0.0000 1.1445 0.0000
# 4 0.0000 0.0000 0.0000 27.1828 0.0000 12.6268
# 5 -9.3027 14.6039 1.1445 0.0000 38.0879 0.0000
# 6 0.0000 0.0000 0.0000 12.6268 0.0000 13.9323
#
#
#
# Elastic Compliance Matrix: (Units=1/GPa)
#
#
# Indices 1 2 3 4 5 6 
#
# 1 0.018760 0.002159 0.000832 0.000000 0.003729 0.000000
# 2 0.002159 0.014674 0.001938 0.000000 -0.005157 0.000000
# 3 0.000832 0.001938 0.008403 0.000000 -0.000792 0.000000
# 4 0.000000 0.000000 0.000000 0.063536 0.000000 -0.057582
# 5 0.003729 -0.005157 -0.000792 0.000000 0.029167 0.000000
# 6 0.000000 0.000000 0.000000 -0.057582 0.000000 0.123962
#
#
# Mechanical properties :
#
#
# Convention : Reuss Voigt Hill
#
# Bulk Modulus (GPa) = 19.34407 21.77895 20.56151
# Shear Modulus (GPa) = 18.80580 34.96275 26.88428
#
# Velocity S-wave (km/s) = 2.77997 3.79050 3.32386
# Velocity P-wave (km/s) = 4.27244 5.30162 4.81461
#
# Compressibility (1/GPa) = 0.05169543
#
# Stress axis : x y z
#
# Youngs Moduli (GPa) = 53.30509 68.14601 119.01186
#
# Poissons Ratio (x) = -0.14715 -0.09903
# Poissons Ratio (y) = -0.11511 -0.23062
# Poissons Ratio (z) = -0.04435 -0.13205
#
# Static dielectric constant tensor:
#      x y z
#    x 1.853470 0.000000 -0.015080 
#    y 0.000000 1.990630 0.000000 
#    z -0.015080 0.000000 2.012580 
# 
# From -- ./inp_files/305177.got.cif
#   From: 2010.05.17/outbox.cif.g08.bks.cpg/sg15_153_cif.got.tgz:305177.got - 2010.06.03 18:47:42.
