data_PCOD9288940
_publ_section_title
;
Structure prediction by ZEFSAII (Michael W. Deem and Ramdas Pophale) SiO2 
 PCOD9288940
Probable space group: C 2/C
;
_chemical_formula_sum "Si O2"
_cell_formula_units_Z 52
_cell_length_a 8.841821
_cell_length_b 16.943479
_cell_length_c 17.124139
_cell_angle_alpha 90.000000
_cell_angle_beta 64.384840
_cell_angle_gamma 90.000000
_cell_volume 2313.256930
_symmetry_space_group_name_H-M "C 2/C"
_symmetry_group_IT_number 15
_symmetry_cell_setting 'monoclinic'
loop_
_space_group_symop_operation_xyz
x,y,z
-x,y,1/2-z
-x,-y,-z
x,-y,1/2+z
1/2+x,1/2+y,z
1/2-x,1/2+y,1/2-z
1/2-x,1/2-y,-z
1/2+x,1/2-y,1/2+z
loop_
_atom_site_type_symbol
_atom_site_label
_atom_site_fract_x
_atom_site_fract_y
_atom_site_fract_z
Si Si1 0.671682 0.030128 0.019658
Si Si2 0.403293 0.381033 0.352910
Si Si3 0.337004 0.535813 0.628838
Si Si4 0.108099 0.273549 0.378149
Si Si5 0.597099 0.127609 0.465271
Si Si6 0.509693 0.616461 0.157192
Si Si7 0.000000 0.376455 0.250000
O O1 0.808307 0.007679 0.053433
O O2 0.533973 0.096911 0.071274
O O3 0.765449 0.058823 0.919826
O O4 0.581359 0.946634 0.027853
O O5 0.500000 0.397965 0.250000
O O6 0.545235 0.386757 0.388248
O O7 0.291867 0.303749 0.362394
O O8 0.430026 0.469006 0.658971
O O9 0.157539 0.566842 0.697395
O O10 0.977997 0.297244 0.475367
O O11 0.096077 0.181618 0.364968
O O12 0.050276 0.321389 0.312861
O O13 0.793508 0.128574 0.405613
O O14 0.500000 0.633165 0.250000
#
# Coordination Sequence:
#
# PCOD9288940 Si02
#       7
#     8   8   8   8   8   8   4
#     4  10  22  39  68 104 130 171 228 279 330 395
#     4  11  22  41  68  97 130 177 224 278 324 403
#     4  12  25  40  68 103 134 169 229 280 336 395
#     4  11  24  47  64  97 132 181 225 268 341 407
#     4  10  22  41  71  92 135 175 224 274 337 397
#     4  12  27  43  66 102 140 174 218 285 344 390
#     4  12  24  42  70  94 128 178 232 264 328 414
#
# _framework density 22.479127999999999
#
# number of rings (size 3 to 8) (size 9 to 14) (size 15 to 20)
#    0.000    0.923    5.385    1.385    2.154    0.000 
#    1.385    4.615    0.000    0.000    0.000    0.000 
#    0.000    0.000    0.000    0.000    0.000    0.000 
#
# Total GULP energy -145020.746218 kJ/mol
# GULP energy per Si atom -5577.721008 kJ/mol
# Density = 2.242796 g / cm^3
# Si number density = 22.479128 Si / 1000 Ang^3
#
#
#
# Elastic Constant Matrix: (Units=GPa)
#
#
# Indices 1 2 3 4 5 6 
#
# 1 141.0164 33.0137 34.1151 0.0000 -27.7260 0.0000
# 2 33.0137 76.3472 9.7109 0.0000 -12.3001 0.0000
# 3 34.1151 9.7109 57.2531 0.0000 -25.3938 0.0000
# 4 0.0000 0.0000 0.0000 50.6956 0.0000 5.9622
# 5 -27.7260 -12.3001 -25.3938 0.0000 32.1277 0.0000
# 6 0.0000 0.0000 0.0000 5.9622 0.0000 35.4947
#
#
#
# Elastic Compliance Matrix: (Units=1/GPa)
#
#
# Indices 1 2 3 4 5 6 
#
# 1 0.009427 -0.002948 -0.003094 0.000000 0.004561 0.000000
# 2 -0.002948 0.014881 0.000972 0.000000 0.003921 0.000000
# 3 -0.003094 0.000972 0.027910 0.000000 0.019762 0.000000
# 4 0.000000 0.000000 0.000000 0.020123 0.000000 -0.003380
# 5 0.004561 0.003921 0.019762 0.000000 0.052183 0.000000
# 6 0.000000 0.000000 0.000000 -0.003380 0.000000 0.028741
#
#
# Mechanical properties :
#
#
# Convention : Reuss Voigt Hill
#
# Bulk Modulus (GPa) = 23.76565 47.58847 35.67706
# Shear Modulus (GPa) = 28.17982 36.84873 32.51428
#
# Velocity S-wave (km/s) = 3.54446 4.05315 3.80731
# Velocity P-wave (km/s) = 5.22936 6.56658 5.93575
#
# Compressibility (1/GPa) = 0.04207753
#
# Stress axis : x y z
#
# Youngs Moduli (GPa) = 106.08008 67.20016 35.82895
#
# Poissons Ratio (x) = 0.19810 0.11086
# Poissons Ratio (y) = 0.31272 -0.03482
# Poissons Ratio (z) = 0.32822 -0.06530
#
# Static dielectric constant tensor:
#      x y z
#    x 2.042630 0.000000 0.021060 
#    y 0.000000 1.799860 0.000000 
#    z 0.021060 0.000000 1.856300 
# 
# From -- ./inp_files/190850.got.cif
#   From: 2010.05.17/outbox.cif.g08.bks.cpg/sg15_96_cif.got.tgz:190850.got - 2010.06.03 18:47:42.
