data_PCOD9288156
_publ_section_title
;
Structure prediction by ZEFSAII (Michael W. Deem and Ramdas Pophale) SiO2 
 PCOD9288156
Probable space group: C 2/C
;
_chemical_formula_sum "Si O2"
_cell_formula_units_Z 52
_cell_length_a 12.145589
_cell_length_b 19.823714
_cell_length_c 21.664426
_cell_angle_alpha 90.000000
_cell_angle_beta 153.595221
_cell_angle_gamma 90.000000
_cell_volume 2319.677325
_symmetry_space_group_name_H-M "C 2/C"
_symmetry_group_IT_number 15
_symmetry_cell_setting 'monoclinic'
loop_
_space_group_symop_operation_xyz
x,y,z
-x,y,1/2-z
-x,-y,-z
x,-y,1/2+z
1/2+x,1/2+y,z
1/2-x,1/2+y,1/2-z
1/2-x,1/2-y,-z
1/2+x,1/2-y,1/2+z
loop_
_atom_site_type_symbol
_atom_site_label
_atom_site_fract_x
_atom_site_fract_y
_atom_site_fract_z
Si Si1 0.500000 0.128901 0.750000
Si Si2 0.849941 0.502075 0.618994
Si Si3 0.887957 0.342055 0.448920
Si Si4 0.000000 0.280041 0.750000
Si Si5 0.175871 0.337057 0.719519
Si Si6 0.999188 0.706976 0.623957
Si Si7 0.500000 0.539957 0.750000
Si Si8 0.354955 0.482953 0.806465
O O1 0.298225 0.075139 0.624605
O O2 0.553894 0.171705 0.716549
O O3 0.583809 0.481991 0.458602
O O4 0.000000 0.465671 0.750000
O O5 0.074670 0.507656 0.682056
O O6 0.727477 0.272953 0.371969
O O7 0.998769 0.340786 0.435234
O O8 0.722022 0.408134 0.374581
O O9 0.068395 0.343404 0.597270
O O10 0.005408 0.327701 0.813215
O O11 0.301113 0.264707 0.784295
O O12 0.344671 0.402767 0.813705
O O13 0.750000 0.750000 0.500000
O O14 0.422273 0.496508 0.769571
#
# Coordination Sequence:
#
# PCOD9288156 Si02
#       8
#     4   8   8   4   8   8   4   8
#     4  10  22  38  64  94 128 174 218 278 334 398
#     4  10  25  45  69  97 132 177 229 288 340 401
#     4  10  22  44  65  94 132 180 228 276 346 412
#     4   9  22  43  66  97 128 171 230 284 344 403
#     4  11  24  39  68  95 132 173 221 285 337 417
#     4  11  22  40  63  96 133 169 220 277 348 407
#     4  11  26  43  68  93 140 185 226 280 338 427
#     4  12  25  46  67 103 135 181 232 282 348 409
#
# _framework density 22.416912
#
# number of rings (size 3 to 8) (size 9 to 14) (size 15 to 20)
#    0.462    0.923    0.000    4.615    1.077    6.769 
#    2.769    0.000    0.000    0.000    0.000    0.000 
#    0.000    0.000    0.000    0.000    0.000    0.000 
#
# Total GULP energy -144897.807286 kJ/mol
# GULP energy per Si atom -5572.992588 kJ/mol
# Density = 2.236589 g / cm^3
# Si number density = 22.416912 Si / 1000 Ang^3
#
#
#
# Elastic Constant Matrix: (Units=GPa)
#
#
# Indices 1 2 3 4 5 6 
#
# 1 163.7414 36.4812 31.7804 -0.0086 -20.0953 -0.0025
# 2 36.4812 64.5984 -3.7031 -0.0072 -14.7380 0.0012
# 3 31.7804 -3.7031 96.6560 -0.0459 -10.8456 0.0021
# 4 -0.0086 -0.0072 -0.0459 -5.8094 -0.0018 -5.7856
# 5 -20.0953 -14.7380 -10.8456 -0.0018 26.4700 -0.0014
# 6 -0.0025 0.0012 0.0021 -5.7856 -0.0014 40.6009
#
#
#
# Elastic Compliance Matrix: (Units=1/GPa)
#
#
# Indices 1 2 3 4 5 6 
#
# 1 0.007780 -0.003904 -0.002399 0.000009 0.002750 0.000002
# 2 -0.003904 0.020021 0.003112 -0.000040 0.009459 -0.000006
# 3 -0.002399 0.003112 0.011786 -0.000083 0.004740 -0.000012
# 4 0.000009 -0.000040 -0.000083 -0.150741 -0.000060 -0.021480
# 5 0.002750 0.009459 0.004740 -0.000060 0.047075 -0.000007
# 6 0.000002 -0.000006 -0.000012 -0.021480 -0.000007 0.021569
#
#
# Mechanical properties :
#
#
# Convention : Reuss Voigt Hill
#
# Bulk Modulus (GPa) = 30.11557 50.45696 40.28626
# Shear Modulus (GPa) = -199.52762 29.61479 -84.95641
#
# Velocity S-wave (km/s) = -9.44462 3.63863 -6.16284
# Velocity P-wave (km/s) = 10.26991 6.34114 5.71231
#
# Compressibility (1/GPa) = 0.03320542
#
# Stress axis : x y z
#
# Youngs Moduli (GPa) = 128.53350 49.94671 84.84712
#
# Poissons Ratio (x) = 0.19499 0.20356
# Poissons Ratio (y) = 0.50178 -0.26404
# Poissons Ratio (z) = 0.30836 -0.15543
#
# Static dielectric constant tensor:
#      x y z
#    x 1.969860 -0.000020 0.031400 
#    y -0.000020 1.797420 -0.000050 
#    z 0.031400 -0.000050 1.854390 
# 
# From -- ./inp_files/240570.got.cif
#   From: 2010.05.17/outbox.cif.g08.bks.cpg/sg15_121_cif.got.tgz:240570.got - 2010.06.03 18:47:42.
