data_PCOD9288287
_publ_section_title
;
Structure prediction by ZEFSAII (Michael W. Deem and Ramdas Pophale) SiO2 
 PCOD9288287
Probable space group: C 2/C
;
_chemical_formula_sum "Si O2"
_cell_formula_units_Z 40
_cell_length_a 22.078279
_cell_length_b 5.248732
_cell_length_c 13.118091
_cell_angle_alpha 90.000000
_cell_angle_beta 108.755455
_cell_angle_gamma 90.000000
_cell_volume 1439.441939
_symmetry_space_group_name_H-M "C 2/C"
_symmetry_group_IT_number 15
_symmetry_cell_setting 'monoclinic'
loop_
_space_group_symop_operation_xyz
x,y,z
-x,y,1/2-z
-x,-y,-z
x,-y,1/2+z
1/2+x,1/2+y,z
1/2-x,1/2+y,1/2-z
1/2-x,1/2-y,-z
1/2+x,1/2-y,1/2+z
loop_
_atom_site_type_symbol
_atom_site_label
_atom_site_fract_x
_atom_site_fract_y
_atom_site_fract_z
Si Si1 0.027624 0.264653 0.153022
Si Si2 0.805486 0.774797 0.613840
Si Si3 0.921175 0.657750 0.452167
Si Si4 0.167491 0.064032 0.162544
Si Si5 0.147118 0.723376 0.448923
O O1 0.045783 0.555172 0.131662
O O2 0.096033 0.136962 0.166591
O O3 0.000000 0.237898 0.250000
O O4 0.970839 0.183414 0.045984
O O5 0.750000 0.750000 0.500000
O O6 0.788696 0.858410 0.719298
O O7 0.834726 0.491661 0.623121
O O8 0.852913 0.001906 0.603175
O O9 0.909492 0.415086 0.520665
O O10 0.853440 0.786268 0.389987
O O11 0.190141 0.215465 0.073574
#
# Coordination Sequence:
#
# PCOD9288287 Si02
#       5
#     8   8   8   8   8
#     4  10  22  38  67 107 149 194 246 291 360 437
#     4  12  28  47  77 108 141 191 250 309 377 441
#     4  10  22  43  68 108 145 199 235 300 364 445
#     4  11  25  44  75 100 154 191 249 299 378 431
#     4  11  25  48  73 105 148 183 240 307 366 443
#
# _framework density 27.788544000000002
#
# number of rings (size 3 to 8) (size 9 to 14) (size 15 to 20)
#    0.000    1.200    2.000    2.400    8.400    2.400 
#    0.000    0.000    0.000    0.000    0.000    0.000 
#    0.000    0.000    0.000    0.000    0.000    0.000 
#
# Total GULP energy -111641.629448 kJ/mol
# GULP energy per Si atom -5582.081472 kJ/mol
# Density = 2.772530 g / cm^3
# Si number density = 27.788544 Si / 1000 Ang^3
#
#
#
# Elastic Constant Matrix: (Units=GPa)
#
#
# Indices 1 2 3 4 5 6 
#
# 1 79.5779 53.7002 33.5858 0.0000 8.2464 0.0000
# 2 53.7002 152.4054 42.7519 0.0000 -9.0184 0.0000
# 3 33.5858 42.7519 156.4244 0.0000 4.0557 0.0000
# 4 0.0000 0.0000 0.0000 33.5564 0.0000 -12.3003
# 5 8.2464 -9.0184 4.0557 0.0000 51.9587 0.0000
# 6 0.0000 0.0000 0.0000 -12.3003 0.0000 32.9030
#
#
#
# Elastic Compliance Matrix: (Units=1/GPa)
#
#
# Indices 1 2 3 4 5 6 
#
# 1 0.017828 -0.005906 -0.002118 0.000000 -0.003689 0.000000
# 2 -0.005906 0.009164 -0.001305 0.000000 0.002630 0.000000
# 3 -0.002118 -0.001305 0.007216 0.000000 -0.000454 0.000000
# 4 0.000000 0.000000 0.000000 0.034533 0.000000 0.012909
# 5 -0.003689 0.002630 -0.000454 0.000000 0.020323 0.000000
# 6 0.000000 0.000000 0.000000 0.012909 0.000000 0.035218
#
#
# Mechanical properties :
#
#
# Convention : Reuss Voigt Hill
#
# Bulk Modulus (GPa) = 64.30620 72.05372 68.17996
# Shear Modulus (GPa) = 33.75574 40.90826 37.33200
#
# Velocity S-wave (km/s) = 3.48909 3.84099 3.66926
# Velocity P-wave (km/s) = 6.27879 6.75696 6.52226
#
# Compressibility (1/GPa) = 0.01555060
#
# Stress axis : x y z
#
# Youngs Moduli (GPa) = 56.09207 109.12299 138.58126
#
# Poissons Ratio (x) = 0.64446 0.29352
# Poissons Ratio (y) = 0.33127 0.18081
# Poissons Ratio (z) = 0.11881 0.14238
#
# Static dielectric constant tensor:
#      x y z
#    x 2.249810 0.000000 0.054610 
#    y 0.000000 2.368200 0.000000 
#    z 0.054610 0.000000 2.181290 
# 
# From -- ./inp_files/125092.got.cif
#   From: 2010.05.17/outbox.cif.g08.bks.cpg/sg15_63_cif.got.tgz:125092.got - 2010.06.03 18:47:42.
