data_PCOD9288487
_publ_section_title
;
Structure prediction by ZEFSAII (Michael W. Deem and Ramdas Pophale) SiO2 
 PCOD9288487
Probable space group: C 2/C
;
_chemical_formula_sum "Si O2"
_cell_formula_units_Z 56
_cell_length_a 5.314919
_cell_length_b 26.216110
_cell_length_c 22.483243
_cell_angle_alpha 90.000000
_cell_angle_beta 122.365222
_cell_angle_gamma 90.000000
_cell_volume 2646.075247
_symmetry_space_group_name_H-M "C 2/C"
_symmetry_group_IT_number 15
_symmetry_cell_setting 'monoclinic'
loop_
_space_group_symop_operation_xyz
x,y,z
-x,y,1/2-z
-x,-y,-z
x,-y,1/2+z
1/2+x,1/2+y,z
1/2-x,1/2+y,1/2-z
1/2-x,1/2-y,-z
1/2+x,1/2-y,1/2+z
loop_
_atom_site_type_symbol
_atom_site_label
_atom_site_fract_x
_atom_site_fract_y
_atom_site_fract_z
Si Si1 0.537383 0.065315 0.564547
Si Si2 0.863416 0.841119 0.794953
Si Si3 0.773494 0.461311 0.528226
Si Si4 0.536747 0.380909 0.568202
Si Si5 0.138897 0.382053 0.203299
Si Si6 0.317432 0.771009 0.321427
Si Si7 0.596487 0.735348 0.041580
O O1 0.765115 0.070822 0.537821
O O2 0.253645 0.095101 0.500119
O O3 0.571009 0.085312 0.635389
O O4 0.532694 0.003190 0.564559
O O5 0.500000 0.842254 0.750000
O O6 0.964894 0.782191 0.819996
O O7 0.000000 0.856959 0.750000
O O8 0.988008 0.874276 0.864778
O O9 0.500000 0.500000 0.500000
O O10 0.788506 0.421227 0.582698
O O11 0.616263 0.325076 0.554365
O O12 0.500000 0.381427 0.250000
O O13 0.028149 0.323951 0.176215
O O14 0.000000 0.397764 0.250000
O O15 0.267199 0.765539 0.385404
O O16 0.000000 0.771848 0.250000
O O17 0.750000 0.750000 0.000000
O O18 0.250000 0.750000 0.000000
#
# Coordination Sequence:
#
# PCOD9288487 Si02
#       7
#     8   8   8   8   8   8   8
#     4  10  22  42  69  93 127 164 221 271 326 392
#     4  10  22  39  60  89 131 169 212 258 312 378
#     4   9  21  41  69  92 118 163 215 265 332 387
#     4  10  23  37  69  91 126 170 217 263 320 384
#     4  11  25  40  65  95 131 170 212 261 325 381
#     4   9  21  40  60  88 129 177 210 250 316 393
#     4  11  25  39  60  99 134 166 214 273 314 366
#
# _framework density 21.163419000000001
#
# number of rings (size 3 to 8) (size 9 to 14) (size 15 to 20)
#    0.000    2.000    0.000    1.286   10.000    9.143 
#    0.000    0.714    0.000    0.000    0.000    0.000 
#    0.000    0.000    0.000    0.000    0.000    0.000 
#
# Total GULP energy -156076.309569 kJ/mol
# GULP energy per Si atom -5574.153913 kJ/mol
# Density = 2.111525 g / cm^3
# Si number density = 21.163419 Si / 1000 Ang^3
#
#
#
# Elastic Constant Matrix: (Units=GPa)
#
#
# Indices 1 2 3 4 5 6 
#
# 1 92.0829 19.6032 61.2082 0.0000 -33.1308 0.0000
# 2 19.6032 92.1768 65.1541 0.0000 -24.0239 0.0000
# 3 61.2082 65.1541 195.5803 0.0000 -46.7318 0.0000
# 4 0.0000 0.0000 0.0000 21.4629 0.0000 -7.4468
# 5 -33.1308 -24.0239 -46.7318 0.0000 43.4304 0.0000
# 6 0.0000 0.0000 0.0000 -7.4468 0.0000 17.1128
#
#
#
# Elastic Compliance Matrix: (Units=1/GPa)
#
#
# Indices 1 2 3 4 5 6 
#
# 1 0.016169 0.001335 -0.003205 0.000000 0.009624 0.000000
# 2 0.001335 0.014761 -0.004228 0.000000 0.004635 0.000000
# 3 -0.003205 -0.004228 0.008590 0.000000 0.004459 0.000000
# 4 0.000000 0.000000 0.000000 0.054878 0.000000 0.023880
# 5 0.009624 0.004635 0.004459 0.000000 0.037729 0.000000
# 6 0.000000 0.000000 0.000000 0.023880 0.000000 0.068827
#
#
# Mechanical properties :
#
#
# Convention : Reuss Voigt Hill
#
# Bulk Modulus (GPa) = 36.59790 74.64123 55.61956
# Shear Modulus (GPa) = 22.49643 31.99286 27.24465
#
# Velocity S-wave (km/s) = 3.26388 3.89228 3.59185
# Velocity P-wave (km/s) = 5.61556 7.45288 6.59848
#
# Compressibility (1/GPa) = 0.02732397
#
# Stress axis : x y z
#
# Youngs Moduli (GPa) = 61.84750 67.74560 116.41349
#
# Poissons Ratio (x) = -0.09047 0.37316
# Poissons Ratio (y) = -0.08259 0.49219
# Poissons Ratio (z) = 0.19825 0.28642
#
# Static dielectric constant tensor:
#      x y z
#    x 2.092030 0.000000 -0.064330 
#    y 0.000000 1.822090 0.000000 
#    z -0.064330 0.000000 1.799540 
# 
# From -- ./inp_files/186212.got.cif
#   From: 2010.05.17/outbox.cif.g08.bks.cpg/sg15_94_cif.got.tgz:186212.got - 2010.06.03 18:47:42.
