data_PCOD9288194
_publ_section_title
;
Structure prediction by ZEFSAII (Michael W. Deem and Ramdas Pophale) SiO2 
 PCOD9288194
Probable space group: C 2/C
;
_chemical_formula_sum "Si O2"
_cell_formula_units_Z 60
_cell_length_a 16.267847
_cell_length_b 12.762272
_cell_length_c 12.930437
_cell_angle_alpha 90.000000
_cell_angle_beta 108.419554
_cell_angle_gamma 90.000000
_cell_volume 2547.014471
_symmetry_space_group_name_H-M "C 2/C"
_symmetry_group_IT_number 15
_symmetry_cell_setting 'monoclinic'
loop_
_space_group_symop_operation_xyz
x,y,z
-x,y,1/2-z
-x,-y,-z
x,-y,1/2+z
1/2+x,1/2+y,z
1/2-x,1/2+y,1/2-z
1/2-x,1/2-y,-z
1/2+x,1/2-y,1/2+z
loop_
_atom_site_type_symbol
_atom_site_label
_atom_site_fract_x
_atom_site_fract_y
_atom_site_fract_z
Si Si1 0.745975 0.175805 0.597919
Si Si2 0.919296 0.111165 0.578227
Si Si3 0.686839 0.629809 0.169150
Si Si4 0.923895 0.428861 0.426922
Si Si5 0.059522 0.672080 0.875458
Si Si6 0.865484 0.468630 0.687590
Si Si7 0.908163 0.110515 0.159314
Si Si8 0.000000 0.724215 0.250000
O O1 0.750000 0.250000 0.500000
O O2 0.840278 0.127469 0.630211
O O3 0.723139 0.250439 0.685139
O O4 0.664242 0.100030 0.551002
O O5 0.886622 0.129755 0.448719
O O6 0.990719 0.193253 0.649979
O O7 0.928779 0.986497 0.593291
O O8 0.764889 0.559395 0.156100
O O9 0.657176 0.594932 0.270442
O O10 0.893102 0.483175 0.309147
O O11 0.000000 0.500000 0.500000
O O12 0.983829 0.327614 0.430547
O O13 0.112658 0.563065 0.884013
O O14 0.113896 0.778091 0.902097
O O15 0.000000 0.668709 0.750000
O O16 0.921013 0.359948 0.702341
O O17 0.000000 0.127183 0.250000
#
# Coordination Sequence:
#
# PCOD9288194 Si02
#       8
#     8   8   8   8   8   8   8   4
#     4  10  22  38  64  98 133 174 226 284 349 421
#     4  11  25  42  68  99 139 176 237 286 357 424
#     4  11  24  41  72  94 135 185 225 289 370 423
#     4  11  23  38  70 103 133 179 235 289 364 418
#     4   9  20  40  65  91 133 177 225 281 347 415
#     4  11  22  41  68  99 136 172 235 295 354 418
#     4  11  23  45  65  92 135 186 231 283 349 437
#     4  12  22  44  66 106 132 176 228 308 336 422
#
# _framework density 23.556992000000001
#
# number of rings (size 3 to 8) (size 9 to 14) (size 15 to 20)
#    0.000    1.333    4.000    3.200    7.467    0.533 
#    0.000    0.667    0.000    0.000    0.000    0.000 
#    0.000    0.000    0.000    0.000    0.000    0.000 
#
# Total GULP energy -167179.427072 kJ/mol
# GULP energy per Si atom -5572.647569 kJ/mol
# Density = 2.350338 g / cm^3
# Si number density = 23.556992 Si / 1000 Ang^3
#
#
#
# Elastic Constant Matrix: (Units=GPa)
#
#
# Indices 1 2 3 4 5 6 
#
# 1 69.2539 21.1022 -9.0079 0.0000 -1.7514 0.0000
# 2 21.1022 148.2397 20.1956 0.0000 4.2083 0.0000
# 3 -9.0079 20.1956 43.3812 0.0000 5.5644 0.0000
# 4 0.0000 0.0000 0.0000 21.2971 0.0000 1.5170
# 5 -1.7514 4.2083 5.5644 0.0000 22.8142 0.0000
# 6 0.0000 0.0000 0.0000 1.5170 0.0000 41.2274
#
#
#
# Elastic Compliance Matrix: (Units=1/GPa)
#
#
# Indices 1 2 3 4 5 6 
#
# 1 0.015939 -0.002912 0.004583 0.000000 0.000643 0.000000
# 2 -0.002912 0.007741 -0.004125 0.000000 -0.000645 0.000000
# 3 0.004583 -0.004125 0.026613 0.000000 -0.005378 0.000000
# 4 0.000000 0.000000 0.000000 0.047078 0.000000 -0.001732
# 5 0.000643 -0.000645 -0.005378 0.000000 0.045313 0.000000
# 6 0.000000 0.000000 0.000000 -0.001732 0.000000 0.024319
#
#
# Mechanical properties :
#
#
# Convention : Reuss Voigt Hill
#
# Bulk Modulus (GPa) = 22.03387 36.16161 29.09774
# Shear Modulus (GPa) = 26.73224 32.30673 29.51948
#
# Velocity S-wave (km/s) = 3.37232 3.70730 3.54377
# Velocity P-wave (km/s) = 4.95350 5.80598 5.39660
#
# Compressibility (1/GPa) = 0.04538467
#
# Stress axis : x y z
#
# Youngs Moduli (GPa) = 62.73872 129.18836 37.57501
#
# Poissons Ratio (x) = 0.37614 -0.17219
# Poissons Ratio (y) = 0.18267 0.15501
# Poissons Ratio (z) = -0.28751 0.53295
#
# Static dielectric constant tensor:
#      x y z
#    x 1.941580 0.000000 -0.052250 
#    y 0.000000 2.261540 0.000000 
#    z -0.052250 0.000000 1.937520 
# 
# From -- ./inp_files/161382.got.cif
#   From: 2010.05.17/outbox.cif.g08.bks.cpg/sg15_81_cif.got.tgz:161382.got - 2010.06.03 18:47:42.
