data_PCOD9288369
_publ_section_title
;
Structure prediction by ZEFSAII (Michael W. Deem and Ramdas Pophale) SiO2 
 PCOD9288369
Probable space group: C 2/C
;
_chemical_formula_sum "Si O2"
_cell_formula_units_Z 56
_cell_length_a 13.733325
_cell_length_b 13.546142
_cell_length_c 26.117631
_cell_angle_alpha 90.000000
_cell_angle_beta 31.768055
_cell_angle_gamma 90.000000
_cell_volume 2558.046974
_symmetry_space_group_name_H-M "C 2/C"
_symmetry_group_IT_number 15
_symmetry_cell_setting 'monoclinic'
loop_
_space_group_symop_operation_xyz
x,y,z
-x,y,1/2-z
-x,-y,-z
x,-y,1/2+z
1/2+x,1/2+y,z
1/2-x,1/2+y,1/2-z
1/2-x,1/2-y,-z
1/2+x,1/2-y,1/2+z
loop_
_atom_site_type_symbol
_atom_site_label
_atom_site_fract_x
_atom_site_fract_y
_atom_site_fract_z
Si Si1 0.549933 0.719759 0.109594
Si Si2 0.000000 0.932019 0.250000
Si Si3 0.095376 0.366976 0.402840
Si Si4 0.000000 0.729927 0.750000
Si Si5 0.807429 0.850641 0.502909
Si Si6 0.600216 0.245939 0.423236
Si Si7 0.952246 0.007895 0.160327
Si Si8 0.559801 0.065414 0.363647
O O1 0.409503 0.795576 0.144572
O O2 0.520921 0.721675 0.183886
O O3 0.530533 0.606972 0.101427
O O4 0.750000 0.750000 0.000000
O O5 0.195788 0.873706 0.167481
O O6 0.999078 0.997812 0.301295
O O7 0.029637 0.477161 0.417556
O O8 0.945261 0.322988 0.508508
O O9 0.211397 0.691417 0.659528
O O10 0.750000 0.750000 0.500000
O O11 0.621961 0.914221 0.588233
O O12 0.920564 0.815364 0.501072
O O13 0.958435 0.911536 0.403549
O O14 0.607219 0.167013 0.372798
O O15 0.733048 0.023616 0.255112
#
# Coordination Sequence:
#
# PCOD9288369 Si02
#       8
#     8   4   8   4   8   8   8   8
#     4  12  25  43  68 100 139 182 238 294 344 414
#     4  10  23  40  70 103 142 174 227 296 356 417
#     4  11  24  40  70 105 137 179 232 292 349 420
#     4  12  25  42  68  99 144 180 241 290 358 409
#     4  10  23  42  64  97 139 181 226 282 351 420
#     4  11  23  41  67 100 137 181 233 293 357 414
#     4  11  23  40  65 100 135 181 233 281 347 414
#     4  10  22  38  70  98 140 181 229 290 353 417
#
# _framework density 21.891701999999999
#
# number of rings (size 3 to 8) (size 9 to 14) (size 15 to 20)
#    0.000    1.143    2.857    3.429    6.000    1.143 
#    0.000    0.714    0.000    0.857    0.000    0.000 
#    0.000    0.000    0.000    0.000    0.000    0.000 
#
# Total GULP energy -156073.660350 kJ/mol
# GULP energy per Si atom -5574.059298 kJ/mol
# Density = 2.184188 g / cm^3
# Si number density = 21.891702 Si / 1000 Ang^3
#
#
#
# Elastic Constant Matrix: (Units=GPa)
#
#
# Indices 1 2 3 4 5 6 
#
# 1 57.3756 27.8807 39.9720 0.0004 -38.7734 0.0003
# 2 27.8807 71.2329 42.6540 0.0000 -17.5780 0.0001
# 3 39.9720 42.6540 129.2205 0.0000 -36.1409 0.0004
# 4 0.0004 0.0000 0.0000 6.2156 0.0004 -41.8375
# 5 -38.7734 -17.5780 -36.1409 0.0004 42.1090 0.0003
# 6 0.0003 0.0001 0.0004 -41.8375 0.0003 -45.3001
#
#
#
# Elastic Compliance Matrix: (Units=1/GPa)
#
#
# Indices 1 2 3 4 5 6 
#
# 1 0.051278 -0.008963 -0.000979 0.000000 0.042634 0.000001
# 2 -0.008963 0.019374 -0.004828 0.000000 -0.004309 0.000000
# 3 -0.000979 -0.004828 0.011605 0.000000 0.007043 0.000000
# 4 0.000000 0.000000 0.000000 0.022294 0.000000 -0.020590
# 5 0.042634 -0.004309 0.007043 0.000000 0.067251 0.000001
# 6 0.000001 0.000000 0.000000 -0.020590 0.000001 -0.003059
#
#
# Mechanical properties :
#
#
# Convention : Reuss Voigt Hill
#
# Bulk Modulus (GPa) = 18.96930 53.20471 36.08701
# Shear Modulus (GPa) = 23.16366 10.42640 16.79503
#
# Velocity S-wave (km/s) = 3.25638 2.18473 2.77282
# Velocity P-wave (km/s) = 4.77729 5.54260 5.17412
#
# Compressibility (1/GPa) = 0.05271676
#
# Stress axis : x y z
#
# Youngs Moduli (GPa) = 19.50161 51.61517 86.16903
#
# Poissons Ratio (x) = 0.46264 0.08438
# Poissons Ratio (y) = 0.17480 0.41600
# Poissons Ratio (z) = 0.01910 0.24919
#
# Static dielectric constant tensor:
#      x y z
#    x 1.879080 0.000000 -0.027940 
#    y 0.000000 1.820000 0.000000 
#    z -0.027940 0.000000 1.789160 
# 
# From -- ./inp_files/313739.got.cif
#   From: 2010.05.17/outbox.cif.g08.bks.cpg/sg15_157_cif.got.tgz:313739.got - 2010.06.03 18:47:42.
