data_PCOD9288846
_publ_section_title
;
Structure prediction by ZEFSAII (Michael W. Deem and Ramdas Pophale) SiO2 
 PCOD9288846
Probable space group: C 2/C
;
_chemical_formula_sum "Si O2"
_cell_formula_units_Z 40
_cell_length_a 9.063236
_cell_length_b 24.091255
_cell_length_c 9.500670
_cell_angle_alpha 90.000000
_cell_angle_beta 103.085891
_cell_angle_gamma 90.000000
_cell_volume 2020.552134
_symmetry_space_group_name_H-M "C 2/C"
_symmetry_group_IT_number 15
_symmetry_cell_setting 'monoclinic'
loop_
_space_group_symop_operation_xyz
x,y,z
-x,y,1/2-z
-x,-y,-z
x,-y,1/2+z
1/2+x,1/2+y,z
1/2-x,1/2+y,1/2-z
1/2-x,1/2-y,-z
1/2+x,1/2-y,1/2+z
loop_
_atom_site_type_symbol
_atom_site_label
_atom_site_fract_x
_atom_site_fract_y
_atom_site_fract_z
Si Si1 0.371161 0.916991 0.600389
Si Si2 0.110963 0.640909 0.970282
Si Si3 0.709656 0.465633 0.047915
Si Si4 0.000000 0.264429 0.250000
Si Si5 0.500000 0.493608 0.750000
Si Si6 0.659851 0.658779 0.226772
O O1 0.500000 0.920318 0.750000
O O2 0.454000 0.885423 0.491609
O O3 0.230038 0.879553 0.621529
O O4 0.312444 0.978982 0.560257
O O5 0.195354 0.590010 0.913790
O O6 0.087994 0.694748 0.871899
O O7 0.214594 0.657935 0.124705
O O8 0.598474 0.472847 0.156502
O O9 0.619576 0.463677 0.880093
O O10 0.888412 0.222677 0.311123
O O11 0.500000 0.636435 0.250000
#
# Coordination Sequence:
#
# PCOD9288846 Si02
#       6
#     8   8   8   4   4   8
#     4  10  22  39  66  91 128 168 202 258 321 381
#     4  11  23  39  64  93 126 161 204 269 314 367
#     4  11  24  39  64  96 135 162 212 253 331 381
#     4  10  24  39  66  88 124 165 216 262 296 370
#     4  10  24  37  60  92 132 175 198 258 306 392
#     4   9  22  42  64  85 122 171 213 248 311 374
#
# _framework density 19.796567
#
# number of rings (size 3 to 8) (size 9 to 14) (size 15 to 20)
#    0.600    1.200    0.000    3.600   12.600    0.800 
#    0.000    0.000    6.600    0.000    0.000    0.000 
#    0.000    0.000    0.000    0.000    0.000    0.000 
#
# Total GULP energy -111571.976983 kJ/mol
# GULP energy per Si atom -5578.598849 kJ/mol
# Density = 1.975151 g / cm^3
# Si number density = 19.796567 Si / 1000 Ang^3
#
#
#
# Elastic Constant Matrix: (Units=GPa)
#
#
# Indices 1 2 3 4 5 6 
#
# 1 106.4834 51.7236 19.0537 0.0000 -3.8317 0.0000
# 2 51.7236 163.2906 27.4394 0.0000 8.9087 0.0000
# 3 19.0537 27.4394 61.9338 0.0000 3.3439 0.0000
# 4 0.0000 0.0000 0.0000 -42.8967 0.0000 -29.7325
# 5 -3.8317 8.9087 3.3439 0.0000 17.4712 0.0000
# 6 0.0000 0.0000 0.0000 -29.7325 0.0000 -26.3123
#
#
#
# Elastic Compliance Matrix: (Units=1/GPa)
#
#
# Indices 1 2 3 4 5 6 
#
# 1 0.011718 -0.003593 -0.002274 0.000000 0.004837 0.000000
# 2 -0.003593 0.007861 -0.002141 0.000000 -0.004387 0.000000
# 3 -0.002274 -0.002141 0.017948 0.000000 -0.002842 0.000000
# 4 0.000000 0.000000 0.000000 -0.107534 0.000000 0.121512
# 5 0.004837 -0.004387 -0.002842 0.000000 0.061079 0.000000
# 6 0.000000 0.000000 0.000000 0.121512 0.000000 -0.175311
#
#
# Mechanical properties :
#
#
# Convention : Reuss Voigt Hill
#
# Bulk Modulus (GPa) = 46.48864 58.68235 52.58550
# Shear Modulus (GPa) = -31.04559 5.21852 -12.91354
#
# Velocity S-wave (km/s) = -3.96439 1.62536 -2.55681
# Velocity P-wave (km/s) = 1.60593 5.76450 4.23134
#
# Compressibility (1/GPa) = 0.02151063
#
# Stress axis : x y z
#
# Youngs Moduli (GPa) = 85.34177 127.20487 55.71751
#
# Poissons Ratio (x) = 0.45710 0.12670
# Poissons Ratio (y) = 0.30667 0.11927
# Poissons Ratio (z) = 0.19407 0.27229
#
# Static dielectric constant tensor:
#      x y z
#    x 1.703620 0.000000 -0.006460 
#    y 0.000000 1.700410 0.000000 
#    z -0.006460 0.000000 1.686520 
# 
# From -- ./inp_files/23821.got.cif
#   From: 2010.05.17/outbox.cif.g08.bks.cpg/sg15_12_cif.got.tgz:23821.got - 2010.06.03 18:47:42.
