data_PCOD9288567
_publ_section_title
;
Structure prediction by ZEFSAII (Michael W. Deem and Ramdas Pophale) SiO2 
 PCOD9288567
Probable space group: C 2/C
;
_chemical_formula_sum "Si O2"
_cell_formula_units_Z 32
_cell_length_a 15.103508
_cell_length_b 10.424933
_cell_length_c 9.303920
_cell_angle_alpha 90.000000
_cell_angle_beta 124.863298
_cell_angle_gamma 90.000000
_cell_volume 1202.002283
_symmetry_space_group_name_H-M "C 2/C"
_symmetry_group_IT_number 15
_symmetry_cell_setting 'monoclinic'
loop_
_space_group_symop_operation_xyz
x,y,z
-x,y,1/2-z
-x,-y,-z
x,-y,1/2+z
1/2+x,1/2+y,z
1/2-x,1/2+y,1/2-z
1/2-x,1/2-y,-z
1/2+x,1/2-y,1/2+z
loop_
_atom_site_type_symbol
_atom_site_label
_atom_site_fract_x
_atom_site_fract_y
_atom_site_fract_z
Si Si1 0.874174 0.246699 0.072496
Si Si2 0.655809 0.507661 0.092483
Si Si3 0.283303 0.109528 0.976709
Si Si4 0.962843 0.280060 0.467859
O O1 0.923013 0.292662 0.267366
O O2 0.911087 0.306746 0.952589
O O3 0.750000 0.250000 0.000000
O O4 0.903220 0.100299 0.056660
O O5 0.698344 0.447757 0.281258
O O6 0.582462 0.636368 0.032257
O O7 0.764703 0.529644 0.102110
O O8 0.401069 0.125206 0.016923
O O9 0.250000 0.250000 0.000000
#
# Coordination Sequence:
#
# PCOD9288567 Si02
#       4
#     8   8   8   8
#     4  11  21  37  66  92 128 169 212 272 320 374
#     4  11  20  40  66  93 127 166 214 267 319 381
#     4  10  22  39  65  96 130 162 214 269 319 384
#     4  10  22  39  61  96 129 165 218 262 322 383
#
# _framework density 26.622246000000001
#
# number of rings (size 3 to 8) (size 9 to 14) (size 15 to 20)
#    0.000    1.500    5.000    0.750    0.000    0.000 
#    0.000    1.250    5.500    0.000    0.000    0.000 
#    0.000    0.000    0.000    0.000    0.000    0.000 
#
# Total GULP energy -89170.229929 kJ/mol
# GULP energy per Si atom -5573.139371 kJ/mol
# Density = 2.656165 g / cm^3
# Si number density = 26.622246 Si / 1000 Ang^3
#
#
#
# Elastic Constant Matrix: (Units=GPa)
#
#
# Indices 1 2 3 4 5 6 
#
# 1 229.2952 15.9974 22.8026 0.0000 -55.9700 0.0000
# 2 15.9974 94.9714 22.1470 0.0000 -12.2701 0.0000
# 3 22.8026 22.1470 95.9377 0.0000 -14.1876 0.0000
# 4 0.0000 0.0000 0.0000 20.3241 0.0000 -1.5602
# 5 -55.9700 -12.2701 -14.1876 0.0000 38.0046 0.0000
# 6 0.0000 0.0000 0.0000 -1.5602 0.0000 21.7492
#
#
#
# Elastic Compliance Matrix: (Units=1/GPa)
#
#
# Indices 1 2 3 4 5 6 
#
# 1 0.006814 0.000190 -0.000180 0.000000 0.010029 0.000000
# 2 0.000190 0.011420 -0.002217 0.000000 0.003139 0.000000
# 3 -0.000180 -0.002217 0.011466 0.000000 0.003299 0.000000
# 4 0.000000 0.000000 0.000000 0.049475 0.000000 0.003549
# 5 0.010029 0.003139 0.003299 0.000000 0.043327 0.000000
# 6 0.000000 0.000000 0.000000 0.003549 0.000000 0.046233
#
#
# Mechanical properties :
#
#
# Convention : Reuss Voigt Hill
#
# Bulk Modulus (GPa) = 39.54919 60.23313 49.89116
# Shear Modulus (GPa) = 27.53619 39.96608 33.75113
#
# Velocity S-wave (km/s) = 3.21959 3.87877 3.56445
# Velocity P-wave (km/s) = 5.35807 6.53713 5.97675
#
# Compressibility (1/GPa) = 0.02528497
#
# Stress axis : x y z
#
# Youngs Moduli (GPa) = 146.75920 87.56481 87.21438
#
# Poissons Ratio (x) = -0.01664 0.01572
# Poissons Ratio (y) = -0.02788 0.19337
# Poissons Ratio (z) = 0.02646 0.19415
#
# Static dielectric constant tensor:
#      x y z
#    x 5.400720 0.000000 1.908000 
#    y 0.000000 2.281130 0.000000 
#    z 1.908000 0.000000 3.111710 
# 
# From -- ./inp_files/36876.got.cif
#   From: 2010.05.17/outbox.cif.g08.bks.cpg/sg15_19_cif.got.tgz:36876.got - 2010.06.03 18:47:42.
