data_PCOD9288066
_publ_section_title
;
Structure prediction by ZEFSAII (Michael W. Deem and Ramdas Pophale) SiO2 
 PCOD9288066
Probable space group: C 2/C
;
_chemical_formula_sum "Si O2"
_cell_formula_units_Z 56
_cell_length_a 13.863415
_cell_length_b 20.798929
_cell_length_c 23.161397
_cell_angle_alpha 90.000000
_cell_angle_beta 156.160332
_cell_angle_gamma 90.000000
_cell_volume 2699.288640
_symmetry_space_group_name_H-M "C 2/C"
_symmetry_group_IT_number 15
_symmetry_cell_setting 'monoclinic'
loop_
_space_group_symop_operation_xyz
x,y,z
-x,y,1/2-z
-x,-y,-z
x,-y,1/2+z
1/2+x,1/2+y,z
1/2-x,1/2+y,1/2-z
1/2-x,1/2-y,-z
1/2+x,1/2-y,1/2+z
loop_
_atom_site_type_symbol
_atom_site_label
_atom_site_fract_x
_atom_site_fract_y
_atom_site_fract_z
Si Si1 0.116142 0.973131 0.941392
Si Si2 0.000000 0.935162 0.750000
Si Si3 0.738011 0.264532 0.366002
Si Si4 0.326722 0.850866 0.861635
Si Si5 0.000000 0.356817 0.750000
Si Si6 0.648515 0.840788 0.389490
Si Si7 0.440493 0.251399 0.859262
Si Si8 0.388582 0.948692 0.791628
O O1 0.048322 0.971782 0.836204
O O2 0.864586 0.986929 0.837805
O O3 0.198681 0.902813 0.009200
O O4 0.361447 0.013675 0.080323
O O5 0.776101 0.889211 0.640526
O O6 0.500000 0.303200 0.250000
O O7 0.702537 0.195741 0.378497
O O8 0.744760 0.251384 0.301593
O O9 0.961992 0.304292 0.506709
O O10 0.126880 0.804648 0.724812
O O11 0.400819 0.903390 0.854688
O O12 0.117377 0.401149 0.766143
O O13 0.500000 0.851646 0.250000
O O14 0.483026 0.816170 0.351401
O O15 0.826075 0.779708 0.480921
#
# Coordination Sequence:
#
# PCOD9288066 Si02
#       8
#     8   4   8   8   4   8   8   8
#     4  11  25  48  67 101 129 185 228 286 332 403
#     4  10  22  44  73  89 138 170 230 280 338 392
#     4  10  22  38  62  97 133 170 216 266 340 408
#     4  11  21  42  67  97 132 176 215 282 336 409
#     4  10  22  44  65  93 138 182 208 282 342 406
#     4  11  23  39  66 102 132 169 227 278 337 410
#     4  11  21  39  64  98 133 171 218 272 351 391
#     4  11  25  47  68  93 137 176 237 272 342 394
#
# _framework density 20.746206999999998
#
# number of rings (size 3 to 8) (size 9 to 14) (size 15 to 20)
#    0.429    0.857    4.286    1.714    4.000    5.143 
#   11.571    0.000    0.000    0.000    0.000    0.000 
#    0.000    0.000    0.000    0.000    0.000    0.000 
#
# Total GULP energy -156057.316832 kJ/mol
# GULP energy per Si atom -5573.475601 kJ/mol
# Density = 2.069899 g / cm^3
# Si number density = 20.746207 Si / 1000 Ang^3
#
#
#
# Elastic Constant Matrix: (Units=GPa)
#
#
# Indices 1 2 3 4 5 6 
#
# 1 85.2525 4.5301 2.1289 0.0131 30.6240 0.0116
# 2 4.5301 45.1952 29.7538 0.0246 19.1680 -0.0076
# 3 2.1289 29.7538 73.5964 0.0090 19.8729 -0.0514
# 4 0.0131 0.0246 0.0090 18.1979 -0.0053 -1.4074
# 5 30.6240 19.1680 19.8729 -0.0053 35.4260 -0.0134
# 6 0.0116 -0.0076 -0.0514 -1.4074 -0.0134 9.9702
#
#
#
# Elastic Compliance Matrix: (Units=1/GPa)
#
#
# Indices 1 2 3 4 5 6 
#
# 1 0.018784 0.004825 0.003059 -0.000030 -0.020565 -0.000034
# 2 0.004825 0.035672 -0.009691 -0.000057 -0.018036 -0.000061
# 3 0.003059 -0.009691 0.019699 0.000005 -0.008451 0.000080
# 4 -0.000030 -0.000057 0.000005 0.055558 0.000065 0.007843
# 5 -0.020565 -0.018036 -0.008451 0.000065 0.060505 0.000057
# 6 -0.000034 -0.000061 0.000080 0.007843 0.000057 0.101407
#
#
# Mechanical properties :
#
#
# Convention : Reuss Voigt Hill
#
# Bulk Modulus (GPa) = 14.17594 30.76328 22.46961
# Shear Modulus (GPa) = 15.68612 23.89423 19.79017
#
# Velocity S-wave (km/s) = 2.75270 3.39741 3.09191
# Velocity P-wave (km/s) = 4.11716 5.50004 4.85806
#
# Compressibility (1/GPa) = 0.07054205
#
# Stress axis : x y z
#
# Youngs Moduli (GPa) = 53.23577 28.03319 50.76349
#
# Poissons Ratio (x) = -0.13527 -0.15528
# Poissons Ratio (y) = -0.25688 0.49195
# Poissons Ratio (z) = -0.16284 0.27167
#
# Static dielectric constant tensor:
#      x y z
#    x 1.783050 0.000000 0.067780 
#    y 0.000000 1.738730 -0.000110 
#    z 0.067780 -0.000110 1.286980 
# 
# From -- ./inp_files/275281.got.cif
#   From: 2010.05.17/outbox.cif.g08.bks.cpg/sg15_138_cif.got.tgz:275281.got - 2010.06.03 18:47:42.
