data_PCOD9288200
_publ_section_title
;
Structure prediction by ZEFSAII (Michael W. Deem and Ramdas Pophale) SiO2 
 PCOD9288200
Probable space group: C 2/C
;
_chemical_formula_sum "Si O2"
_cell_formula_units_Z 64
_cell_length_a 27.920169
_cell_length_b 8.929318
_cell_length_c 13.626889
_cell_angle_alpha 90.000000
_cell_angle_beta 134.377769
_cell_angle_gamma 90.000000
_cell_volume 2428.195382
_symmetry_space_group_name_H-M "C 2/C"
_symmetry_group_IT_number 15
_symmetry_cell_setting 'monoclinic'
loop_
_space_group_symop_operation_xyz
x,y,z
-x,y,1/2-z
-x,-y,-z
x,-y,1/2+z
1/2+x,1/2+y,z
1/2-x,1/2+y,1/2-z
1/2-x,1/2-y,-z
1/2+x,1/2-y,1/2+z
loop_
_atom_site_type_symbol
_atom_site_label
_atom_site_fract_x
_atom_site_fract_y
_atom_site_fract_z
Si Si1 0.674929 0.197852 0.723216
Si Si2 0.423435 0.661121 0.113532
Si Si3 0.455853 0.124528 0.318079
Si Si4 0.311142 0.018847 0.097296
Si Si5 0.578026 0.476229 0.581178
Si Si6 0.417213 0.061582 0.483095
Si Si7 0.263382 0.756135 0.386228
Si Si8 0.882917 0.097202 0.676053
O O1 0.613437 0.315084 0.640237
O O2 0.728833 0.247883 0.719153
O O3 0.703098 0.135949 0.867032
O O4 0.641104 0.050756 0.628100
O O5 0.500000 0.695122 0.250000
O O6 0.394676 0.809132 0.023889
O O7 0.392128 0.575138 0.159511
O O8 0.419400 0.533992 0.024999
O O9 0.390488 0.029637 0.192953
O O10 0.449419 0.129888 0.428539
O O11 0.445810 0.289381 0.259464
O O12 0.523424 0.041122 0.389308
O O13 0.294659 0.154462 0.150688
O O14 0.270791 0.077281 0.944446
O O15 0.500000 0.500000 0.500000
O O16 0.623460 0.581386 0.715867
O O17 0.327285 0.670041 0.527322
#
# Coordination Sequence:
#
# PCOD9288200 Si02
#       8
#     8   8   8   8   8   8   8   8
#     4  11  24  44  74 106 139 191 237 300 365 436
#     4  12  25  38  60 102 138 182 226 282 352 432
#     4   9  19  39  70  94 134 186 222 281 359 417
#     4   9  22  44  70  98 136 186 238 301 355 421
#     4  12  24  42  67  99 146 183 233 289 363 439
#     4  10  22  38  65 104 135 177 234 282 349 431
#     4  10  22  47  69 101 142 186 245 295 368 425
#     4  11  22  40  67  95 139 186 226 291 356 429
#
# _framework density 26.357023000000002
#
# number of rings (size 3 to 8) (size 9 to 14) (size 15 to 20)
#    0.000    1.500    3.750    0.750    3.500    3.000 
#   11.250    0.625    0.000    0.000    0.000    0.000 
#    0.000    0.000    0.000    0.000    0.000    0.000 
#
# Total GULP energy -179021.111807 kJ/mol
# GULP energy per Si atom -5594.409744 kJ/mol
# Density = 2.629703 g / cm^3
# Si number density = 26.357023 Si / 1000 Ang^3
#
#
#
# Elastic Constant Matrix: (Units=GPa)
#
#
# Indices 1 2 3 4 5 6 
#
# 1 83.3492 17.8221 16.3151 0.0000 -12.0670 0.0000
# 2 17.8221 131.8891 36.9456 0.0000 -7.5476 0.0000
# 3 16.3151 36.9456 86.3748 0.0000 3.6917 0.0000
# 4 0.0000 0.0000 0.0000 51.5443 0.0000 -20.5532
# 5 -12.0670 -7.5476 3.6917 0.0000 35.1480 0.0000
# 6 0.0000 0.0000 0.0000 -20.5532 0.0000 30.5654
#
#
#
# Elastic Compliance Matrix: (Units=1/GPa)
#
#
# Indices 1 2 3 4 5 6 
#
# 1 0.013313 -0.000880 -0.002336 0.000000 0.004627 0.000000
# 2 -0.000880 0.008853 -0.003705 0.000000 0.001988 0.000000
# 3 -0.002336 -0.003705 0.013734 0.000000 -0.003040 0.000000
# 4 0.000000 0.000000 0.000000 0.026509 0.000000 0.017825
# 5 0.004627 0.001988 -0.003040 0.000000 0.030786 0.000000
# 6 0.000000 0.000000 0.000000 0.017825 0.000000 0.044703
#
#
# Mechanical properties :
#
#
# Convention : Reuss Voigt Hill
#
# Bulk Modulus (GPa) = 45.33766 49.30875 47.32320
# Shear Modulus (GPa) = 31.42836 38.82021 35.12429
#
# Velocity S-wave (km/s) = 3.45687 3.84195 3.65449
# Velocity P-wave (km/s) = 5.75951 6.19914 5.98337
#
# Compressibility (1/GPa) = 0.02205672
#
# Stress axis : x y z
#
# Youngs Moduli (GPa) = 75.11454 112.95878 72.81408
#
# Poissons Ratio (x) = 0.09938 0.17010
# Poissons Ratio (y) = 0.06608 0.26981
# Poissons Ratio (z) = 0.17548 0.41856
#
# Static dielectric constant tensor:
#      x y z
#    x 2.192680 0.000000 -0.017630 
#    y 0.000000 2.092480 0.000000 
#    z -0.017630 0.000000 2.054910 
# 
# From -- ./inp_files/181179.got.cif
#   From: 2010.05.17/outbox.cif.g08.bks.cpg/sg15_91_cif.got.tgz:181179.got - 2010.06.03 18:47:42.
