data_PCOD9288733
_publ_section_title
;
Structure prediction by ZEFSAII (Michael W. Deem and Ramdas Pophale) SiO2 
 PCOD9288733
Probable space group: C 2/C
;
_chemical_formula_sum "Si O2"
_cell_formula_units_Z 56
_cell_length_a 6.430536
_cell_length_b 18.110892
_cell_length_c 27.586326
_cell_angle_alpha 90.000000
_cell_angle_beta 56.470619
_cell_angle_gamma 90.000000
_cell_volume 2678.181353
_symmetry_space_group_name_H-M "C 2/C"
_symmetry_group_IT_number 15
_symmetry_cell_setting 'monoclinic'
loop_
_space_group_symop_operation_xyz
x,y,z
-x,y,1/2-z
-x,-y,-z
x,-y,1/2+z
1/2+x,1/2+y,z
1/2-x,1/2+y,1/2-z
1/2-x,1/2-y,-z
1/2+x,1/2-y,1/2+z
loop_
_atom_site_type_symbol
_atom_site_label
_atom_site_fract_x
_atom_site_fract_y
_atom_site_fract_z
Si Si1 0.459411 0.798049 0.647622
Si Si2 0.283594 0.474458 0.462616
Si Si3 0.500000 0.070731 0.750000
Si Si4 0.966836 0.868475 0.353796
Si Si5 0.023609 0.895120 0.689217
Si Si6 0.712495 0.565344 0.428871
Si Si7 0.644544 0.966942 0.337368
Si Si8 0.500000 0.844708 0.750000
O O1 0.539601 0.715344 0.627371
O O2 0.204104 0.826058 0.654824
O O3 0.653675 0.861282 0.606758
O O4 0.433676 0.800775 0.709780
O O5 0.369108 0.420151 0.409541
O O6 0.451511 0.547939 0.437476
O O7 0.328841 0.435259 0.508422
O O8 0.000000 0.500000 0.500000
O O9 0.747232 0.114065 0.699198
O O10 0.398082 0.029021 0.714984
O O11 0.772020 0.889678 0.335643
O O12 0.000000 0.891046 0.750000
O O13 0.747164 0.890456 0.704414
O O14 0.165275 0.972080 0.665508
O O15 0.885743 0.493802 0.394075
#
# Coordination Sequence:
#
# PCOD9288733 Si02
#       8
#     8   8   4   8   8   8   8   4
#     4  10  25  40  62  99 140 177 228 275 347 414
#     4  11  23  46  75  95 131 175 236 296 338 402
#     4  12  26  41  66 100 153 176 224 288 347 424
#     4  12  26  41  68 102 137 185 227 286 347 408
#     4   9  20  37  60  89 127 179 225 267 327 403
#     4  10  23  45  69  99 127 177 231 286 348 405
#     4  11  23  41  66 101 133 178 235 275 345 415
#     4  10  22  39  64  90 147 186 222 274 343 414
#
# _framework density 20.909711000000001
#
# number of rings (size 3 to 8) (size 9 to 14) (size 15 to 20)
#    0.000    1.429    2.857    1.286    7.000    7.429 
#    0.000    0.714    0.000    0.000    0.000    0.000 
#    0.000    0.000    0.000    0.000    0.000    0.000 
#
# Total GULP energy -156270.158095 kJ/mol
# GULP energy per Si atom -5581.077075 kJ/mol
# Density = 2.086212 g / cm^3
# Si number density = 20.909711 Si / 1000 Ang^3
#
#
#
# Elastic Constant Matrix: (Units=GPa)
#
#
# Indices 1 2 3 4 5 6 
#
# 1 117.8852 49.1573 30.5405 0.0000 -24.6157 0.0001
# 2 49.1573 115.0730 36.4819 0.0000 -13.0670 0.0000
# 3 30.5405 36.4819 103.5705 0.0000 -7.0861 0.0000
# 4 0.0000 0.0000 0.0000 18.3531 0.0000 3.8549
# 5 -24.6157 -13.0670 -7.0861 0.0000 51.0381 0.0000
# 6 0.0001 0.0000 0.0000 3.8549 0.0000 15.4814
#
#
#
# Elastic Compliance Matrix: (Units=1/GPa)
#
#
# Indices 1 2 3 4 5 6 
#
# 1 0.011429 -0.003850 -0.001721 0.000000 0.004288 0.000000
# 2 -0.003850 0.011296 -0.002799 0.000000 0.000646 0.000000
# 3 -0.001721 -0.002799 0.011149 0.000000 0.000001 0.000000
# 4 0.000000 0.000000 0.000000 0.057494 0.000000 -0.014316
# 5 0.004288 0.000646 0.000001 0.000000 0.021827 0.000000
# 6 0.000000 0.000000 0.000000 -0.014316 0.000000 0.068158
#
#
# Mechanical properties :
#
#
# Convention : Reuss Voigt Hill
#
# Bulk Modulus (GPa) = 58.36449 63.20979 60.78714
# Shear Modulus (GPa) = 24.53337 31.66445 28.09891
#
# Velocity S-wave (km/s) = 3.42906 3.89568 3.66979
# Velocity P-wave (km/s) = 6.60690 7.10849 6.86228
#
# Compressibility (1/GPa) = 0.01713370
#
# Stress axis : x y z
#
# Youngs Moduli (GPa) = 87.49375 88.52947 89.69576
#
# Poissons Ratio (x) = 0.34084 0.15434
# Poissons Ratio (y) = 0.33685 0.25109
# Poissons Ratio (z) = 0.15056 0.24782
#
# Static dielectric constant tensor:
#      x y z
#    x 1.829180 0.000000 -0.005560 
#    y 0.000000 1.785510 0.000000 
#    z -0.005560 0.000000 1.787880 
# 
# From -- ./inp_files/286140.got.cif
#   From: 2010.05.17/outbox.cif.g08.bks.cpg/sg15_144_cif.got.tgz:286140.got - 2010.06.03 18:47:42.
