data_PCOD9288223
_publ_section_title
;
Structure prediction by ZEFSAII (Michael W. Deem and Ramdas Pophale) SiO2 
 PCOD9288223
Probable space group: C 2/C
;
_chemical_formula_sum "Si O2"
_cell_formula_units_Z 48
_cell_length_a 12.349064
_cell_length_b 16.593056
_cell_length_c 11.960362
_cell_angle_alpha 90.000000
_cell_angle_beta 131.016899
_cell_angle_gamma 90.000000
_cell_volume 1849.154615
_symmetry_space_group_name_H-M "C 2/C"
_symmetry_group_IT_number 15
_symmetry_cell_setting 'monoclinic'
loop_
_space_group_symop_operation_xyz
x,y,z
-x,y,1/2-z
-x,-y,-z
x,-y,1/2+z
1/2+x,1/2+y,z
1/2-x,1/2+y,1/2-z
1/2-x,1/2-y,-z
1/2+x,1/2-y,1/2+z
loop_
_atom_site_type_symbol
_atom_site_label
_atom_site_fract_x
_atom_site_fract_y
_atom_site_fract_z
Si Si1 0.981043 0.622093 0.461946
Si Si2 0.315721 0.996103 0.991535
Si Si3 0.806282 0.620742 0.684257
Si Si4 0.408774 0.718020 0.578310
Si Si5 0.500000 0.492915 0.250000
Si Si6 0.000000 0.752125 0.750000
Si Si7 0.012823 0.122102 0.061380
O O1 0.054646 0.557376 0.431444
O O2 0.089193 0.621911 0.640793
O O3 0.996488 0.709406 0.415780
O O4 0.839717 0.578011 0.417456
O O5 0.162967 0.038296 0.867263
O O6 0.319421 0.956124 0.114758
O O7 0.641839 0.626635 0.602631
O O8 0.861559 0.695341 0.647518
O O9 0.500000 0.694506 0.750000
O O10 0.250000 0.750000 0.500000
O O11 0.385421 0.646918 0.470947
O O12 0.512932 0.544557 0.141821
O O13 0.980074 0.807027 0.843299
#
# Coordination Sequence:
#
# PCOD9288223 Si02
#       7
#     8   8   8   8   4   4   8
#     4  11  23  41  67  90 130 171 215 262 320 396
#     4  10  22  41  66  96 122 167 218 275 323 378
#     4  11  19  39  62  95 123 161 211 272 320 375
#     4  12  27  44  64  96 139 179 214 257 326 414
#     4   9  22  42  70  96 126 155 224 286 324 367
#     4  11  18  34  68  94 124 151 214 274 318 361
#     4  10  22  38  65  94 124 163 212 268 328 371
#
# _framework density 25.957809999999998
#
# number of rings (size 3 to 8) (size 9 to 14) (size 15 to 20)
#    0.000    1.333    3.333    1.500    2.333    4.000 
#    4.500    1.667    0.000    0.000    0.000    0.000 
#    0.000    0.000    0.000    0.000    0.000    0.000 
#
# Total GULP energy -134280.247366 kJ/mol
# GULP energy per Si atom -5595.010307 kJ/mol
# Density = 2.589873 g / cm^3
# Si number density = 25.957810 Si / 1000 Ang^3
#
#
#
# Elastic Constant Matrix: (Units=GPa)
#
#
# Indices 1 2 3 4 5 6 
#
# 1 114.3982 16.5346 37.7122 0.0000 -7.8593 0.0000
# 2 16.5346 64.0107 6.8400 0.0000 -17.2156 0.0000
# 3 37.7122 6.8400 104.6653 0.0000 -11.7260 0.0000
# 4 0.0000 0.0000 0.0000 45.4179 0.0000 -6.4849
# 5 -7.8593 -17.2156 -11.7260 0.0000 47.1217 0.0000
# 6 0.0000 0.0000 0.0000 -6.4849 0.0000 48.9941
#
#
#
# Elastic Compliance Matrix: (Units=1/GPa)
#
#
# Indices 1 2 3 4 5 6 
#
# 1 0.010236 -0.002266 -0.003540 0.000000 -0.000002 0.000000
# 2 -0.002266 0.017846 0.000348 0.000000 0.006228 0.000000
# 3 -0.003540 0.000348 0.011064 0.000000 0.002290 0.000000
# 4 0.000000 0.000000 0.000000 0.022442 0.000000 0.002970
# 5 -0.000002 0.006228 0.002290 0.000000 0.024067 0.000000
# 6 0.000000 0.000000 0.000000 0.002970 0.000000 0.020804
#
#
# Mechanical properties :
#
#
# Convention : Reuss Voigt Hill
#
# Bulk Modulus (GPa) = 35.42506 45.02755 40.22630
# Shear Modulus (GPa) = 39.43724 43.10590 41.27157
#
# Velocity S-wave (km/s) = 3.90203 4.07948 3.99174
# Velocity P-wave (km/s) = 5.82905 6.29076 6.06430
#
# Compressibility (1/GPa) = 0.02822860
#
# Stress axis : x y z
#
# Youngs Moduli (GPa) = 97.69561 56.03593 90.38622
#
# Poissons Ratio (x) = 0.12699 0.31999
# Poissons Ratio (y) = 0.22140 -0.03146
# Poissons Ratio (z) = 0.34586 -0.01951
#
# Static dielectric constant tensor:
#      x y z
#    x 2.069910 0.000000 -0.018580 
#    y 0.000000 2.163130 0.000000 
#    z -0.018580 0.000000 2.006720 
# 
# From -- ./inp_files/89831.got.cif
#   From: 2010.05.17/outbox.cif.g08.bks.cpg/sg15_45_cif.got.tgz:89831.got - 2010.06.03 18:47:42.
