data_PCOD9288509
_publ_section_title
;
Structure prediction by ZEFSAII (Michael W. Deem and Ramdas Pophale) SiO2 
 PCOD9288509
Probable space group: C 2/C
;
_chemical_formula_sum "Si O2"
_cell_formula_units_Z 52
_cell_length_a 5.961278
_cell_length_b 31.754903
_cell_length_c 13.899631
_cell_angle_alpha 90.000000
_cell_angle_beta 105.876603
_cell_angle_gamma 90.000000
_cell_volume 2530.825413
_symmetry_space_group_name_H-M "C 2/C"
_symmetry_group_IT_number 15
_symmetry_cell_setting 'monoclinic'
loop_
_space_group_symop_operation_xyz
x,y,z
-x,y,1/2-z
-x,-y,-z
x,-y,1/2+z
1/2+x,1/2+y,z
1/2-x,1/2+y,1/2-z
1/2-x,1/2-y,-z
1/2+x,1/2-y,1/2+z
loop_
_atom_site_type_symbol
_atom_site_label
_atom_site_fract_x
_atom_site_fract_y
_atom_site_fract_z
Si Si1 0.552056 0.544295 0.146357
Si Si2 0.146752 0.660034 0.857301
Si Si3 0.925091 0.106281 0.511738
Si Si4 0.500000 0.001345 0.250000
Si Si5 0.806851 0.472728 0.419300
Si Si6 0.897278 0.760287 0.420036
Si Si7 0.142859 0.316523 0.983338
O O1 0.500000 0.555529 0.250000
O O2 0.422007 0.501486 0.104553
O O3 0.822075 0.532243 0.174759
O O4 0.473481 0.579710 0.064214
O O5 0.364702 0.629452 0.907423
O O6 0.244961 0.706842 0.841727
O O7 0.000000 0.643892 0.750000
O O8 0.991544 0.668306 0.935233
O O9 0.768219 0.072978 0.552706
O O10 0.752722 0.141992 0.451263
O O11 0.381408 0.973008 0.316810
O O12 0.000000 0.500000 0.500000
O O13 0.750000 0.750000 0.500000
O O14 0.978715 0.713607 0.399914
O O15 0.132602 0.787347 0.465726
#
# Coordination Sequence:
#
# PCOD9288509 Si02
#       7
#     8   8   8   4   8   8   8
#     4  10  23  42  63  86 119 173 221 268 323 391
#     4  10  22  39  60  97 136 167 204 262 324 398
#     4  11  23  38  62  93 128 167 218 270 330 381
#     4  10  22  42  62  88 118 168 228 272 324 396
#     4  11  23  41  63  88 122 175 223 267 332 390
#     4   8  16  36  63  84 116 161 207 242 318 392
#     4   9  19  36  62  89 118 165 205 262 315 376
#
# _framework density 20.546657
#
# number of rings (size 3 to 8) (size 9 to 14) (size 15 to 20)
#    0.000    2.154    1.538    0.462    2.154    2.462 
#   11.077    0.000    0.000   53.538    0.000    0.000 
#    0.000    0.000    0.000    0.000    0.000    0.000 
#
# Total GULP energy -144865.008167 kJ/mol
# GULP energy per Si atom -5571.731083 kJ/mol
# Density = 2.049989 g / cm^3
# Si number density = 20.546657 Si / 1000 Ang^3
#
#
#
# Elastic Constant Matrix: (Units=GPa)
#
#
# Indices 1 2 3 4 5 6 
#
# 1 72.4490 35.2636 14.6777 0.0000 11.3809 0.0000
# 2 35.2636 137.2183 35.5447 0.0000 2.2444 0.0000
# 3 14.6777 35.5447 54.8140 0.0000 9.5177 0.0000
# 4 0.0000 0.0000 0.0000 19.2779 0.0000 2.2092
# 5 11.3809 2.2444 9.5177 0.0000 35.6623 0.0000
# 6 0.0000 0.0000 0.0000 2.2092 0.0000 30.8641
#
#
#
# Elastic Compliance Matrix: (Units=1/GPa)
#
#
# Indices 1 2 3 4 5 6 
#
# 1 0.016688 -0.003928 -0.001090 0.000000 -0.004787 0.000000
# 2 -0.003928 0.009718 -0.005622 0.000000 0.002142 0.000000
# 3 -0.001090 -0.005622 0.023131 0.000000 -0.005472 0.000000
# 4 0.000000 0.000000 0.000000 0.052302 0.000000 -0.003744
# 5 -0.004787 0.002142 -0.005472 0.000000 0.030894 0.000000
# 6 0.000000 0.000000 0.000000 -0.003744 0.000000 0.032668
#
#
# Mechanical properties :
#
#
# Convention : Reuss Voigt Hill
#
# Bulk Modulus (GPa) = 35.38971 48.38370 41.88670
# Shear Modulus (GPa) = 25.49712 29.09388 27.29550
#
# Velocity S-wave (km/s) = 3.52652 3.76705 3.64876
# Velocity P-wave (km/s) = 5.81749 6.52075 6.17913
#
# Compressibility (1/GPa) = 0.02825680
#
# Stress axis : x y z
#
# Youngs Moduli (GPa) = 59.92498 102.89774 43.23151
#
# Poissons Ratio (x) = 0.40416 0.04713
# Poissons Ratio (y) = 0.23537 0.24306
# Poissons Ratio (z) = 0.06533 0.57851
#
# Static dielectric constant tensor:
#      x y z
#    x 1.805950 0.000000 0.008390 
#    y 0.000000 1.746720 0.000000 
#    z 0.008390 0.000000 1.774670 
# 
# From -- ./inp_files/130855.got.cif
#   From: 2010.05.17/outbox.cif.g08.bks.cpg/sg15_66_cif.got.tgz:130855.got - 2010.06.03 18:47:42.
