data_PCOD9288842
_publ_section_title
;
Structure prediction by ZEFSAII (Michael W. Deem and Ramdas Pophale) SiO2 
 PCOD9288842
Probable space group: C 2/C
;
_chemical_formula_sum "Si O2"
_cell_formula_units_Z 48
_cell_length_a 12.715458
_cell_length_b 17.802437
_cell_length_c 20.126852
_cell_angle_alpha 90.000000
_cell_angle_beta 150.955471
_cell_angle_gamma 90.000000
_cell_volume 2211.907185
_symmetry_space_group_name_H-M "C 2/C"
_symmetry_group_IT_number 15
_symmetry_cell_setting 'monoclinic'
loop_
_space_group_symop_operation_xyz
x,y,z
-x,y,1/2-z
-x,-y,-z
x,-y,1/2+z
1/2+x,1/2+y,z
1/2-x,1/2+y,1/2-z
1/2-x,1/2-y,-z
1/2+x,1/2-y,1/2+z
loop_
_atom_site_type_symbol
_atom_site_label
_atom_site_fract_x
_atom_site_fract_y
_atom_site_fract_z
Si Si1 0.455833 0.055026 0.347754
Si Si2 0.062495 0.111254 0.071009
Si Si3 0.565144 0.536631 0.926662
Si Si4 0.746646 0.603825 0.366300
Si Si5 0.141212 0.399869 0.184679
Si Si6 0.280340 0.220713 0.666559
O O1 0.314377 0.115820 0.230117
O O2 0.710595 0.058106 0.482952
O O3 0.368008 0.060215 0.374214
O O4 0.394023 0.971924 0.285708
O O5 0.058530 0.075130 0.995699
O O6 0.964337 0.051846 0.070869
O O7 0.920077 0.185724 0.985443
O O8 0.366263 0.572863 0.775938
O O9 0.500000 0.579798 0.250000
O O10 0.729632 0.690213 0.333181
O O11 0.919956 0.603452 0.521704
O O12 0.194826 0.322838 0.250642
O O13 0.500000 0.201147 0.750000
#
# Coordination Sequence:
#
# PCOD9288842 Si02
#       6
#     8   8   8   8   8   8
#     4  11  22  38  66  92 126 164 204 256 307 373
#     4   9  19  36  63  97 121 151 208 261 307 360
#     4   9  19  37  64  96 120 158 202 260 312 351
#     4  11  27  40  60  94 126 168 205 251 314 376
#     4  10  23  41  61  91 125 157 209 257 305 373
#     4  10  22  39  66  90 123 163 204 266 315 360
#
# _framework density 21.70073
#
# number of rings (size 3 to 8) (size 9 to 14) (size 15 to 20)
#    0.000    2.000    0.000    3.000    9.333    2.000 
#    0.000    3.333    7.333    0.000    0.000    0.000 
#    0.000    0.000    0.000    0.000    0.000    0.000 
#
# Total GULP energy -133837.950599 kJ/mol
# GULP energy per Si atom -5576.581275 kJ/mol
# Density = 2.165134 g / cm^3
# Si number density = 21.700730 Si / 1000 Ang^3
#
#
#
# Elastic Constant Matrix: (Units=GPa)
#
#
# Indices 1 2 3 4 5 6 
#
# 1 82.9727 29.7282 53.2908 -0.0019 27.8689 -0.0002
# 2 29.7282 57.6380 19.1347 -0.0019 14.9442 0.0000
# 3 53.2908 19.1347 180.0106 -0.0061 35.0099 0.0000
# 4 -0.0019 -0.0019 -0.0061 32.8902 -0.0015 0.3021
# 5 27.8689 14.9442 35.0099 -0.0015 45.5671 0.0002
# 6 -0.0002 0.0000 0.0000 0.3021 0.0002 21.1733
#
#
#
# Elastic Compliance Matrix: (Units=1/GPa)
#
#
# Indices 1 2 3 4 5 6 
#
# 1 0.019084 -0.006924 -0.003627 0.000000 -0.006614 0.000000
# 2 -0.006924 0.021613 0.000361 0.000001 -0.003131 0.000000
# 3 -0.003627 0.000361 0.007268 0.000001 -0.003484 0.000000
# 4 0.000000 0.000001 0.000001 0.030408 0.000000 -0.000434
# 5 -0.006614 -0.003131 -0.003484 0.000000 0.029695 0.000000
# 6 0.000000 0.000000 0.000000 -0.000434 0.000000 0.047235
#
#
# Mechanical properties :
#
#
# Convention : Reuss Voigt Hill
#
# Bulk Modulus (GPa) = 36.25122 58.32540 47.28831
# Shear Modulus (GPa) = 27.04472 34.49064 30.76768
#
# Velocity S-wave (km/s) = 3.53407 3.99102 3.76948
# Velocity P-wave (km/s) = 5.77877 6.94069 6.38621
#
# Compressibility (1/GPa) = 0.02758528
#
# Stress axis : x y z
#
# Youngs Moduli (GPa) = 52.39918 46.26905 137.58295
#
# Poissons Ratio (x) = 0.32037 0.49906
# Poissons Ratio (y) = 0.36281 -0.04972
# Poissons Ratio (z) = 0.19007 -0.01672
#
# Static dielectric constant tensor:
#      x y z
#    x 1.851600 0.000000 -0.013540 
#    y 0.000000 1.810030 0.000000 
#    z -0.013540 0.000000 1.880300 
# 
# From -- ./inp_files/99290.got.cif
#   From: 2010.05.17/outbox.cif.g08.bks.cpg/sg15_50_cif.got.tgz:99290.got - 2010.06.03 18:47:42.
