data_PCOD9288491
_publ_section_title
;
Structure prediction by ZEFSAII (Michael W. Deem and Ramdas Pophale) SiO2 
 PCOD9288491
Probable space group: C 2/C
;
_chemical_formula_sum "Si O2"
_cell_formula_units_Z 52
_cell_length_a 20.807129
_cell_length_b 16.096206
_cell_length_c 9.038614
_cell_angle_alpha 90.000000
_cell_angle_beta 78.194463
_cell_angle_gamma 90.000000
_cell_volume 2963.143003
_symmetry_space_group_name_H-M "C 2/C"
_symmetry_group_IT_number 15
_symmetry_cell_setting 'monoclinic'
loop_
_space_group_symop_operation_xyz
x,y,z
-x,y,1/2-z
-x,-y,-z
x,-y,1/2+z
1/2+x,1/2+y,z
1/2-x,1/2+y,1/2-z
1/2-x,1/2-y,-z
1/2+x,1/2-y,1/2+z
loop_
_atom_site_type_symbol
_atom_site_label
_atom_site_fract_x
_atom_site_fract_y
_atom_site_fract_z
Si Si1 0.690186 0.304444 0.970232
Si Si2 0.250104 0.615463 0.503126
Si Si3 0.002472 0.902996 0.022829
Si Si4 0.610252 0.603909 0.726872
Si Si5 0.500000 0.710191 0.250000
Si Si6 0.210788 0.023632 0.285495
Si Si7 0.147855 0.250972 0.167767
O O1 0.700180 0.398012 0.899297
O O2 0.659225 0.257991 0.841152
O O3 0.750000 0.250000 0.000000
O O4 0.655208 0.323700 0.143140
O O5 0.240691 0.557148 0.363895
O O6 0.265897 0.554753 0.630913
O O7 0.189136 0.672664 0.579249
O O8 0.313088 0.672308 0.424877
O O9 0.930417 0.875338 0.108296
O O10 0.055953 0.897089 0.124753
O O11 0.020881 0.849940 0.873660
O O12 0.000000 0.000000 0.000000
O O13 0.646445 0.515527 0.734520
O O14 0.569122 0.755398 0.178920
#
# Coordination Sequence:
#
# PCOD9288491 Si02
#       7
#     8   8   8   8   4   8   8
#     4  11  22  37  59  88 119 156 198 251 297 354
#     4  10  22  39  60  91 117 158 199 251 298 357
#     4  11  24  32  54  81 121 162 189 228 284 372
#     4  11  21  37  53  85 119 155 198 232 287 355
#     4  12  22  40  58  84 120 166 196 240 306 354
#     4  11  21  36  62  87 117 156 198 248 298 353
#     4  10  23  39  60  88 123 158 201 247 304 354
#
# _framework density 17.548932000000001
#
# number of rings (size 3 to 8) (size 9 to 14) (size 15 to 20)
#    0.000    1.231    3.077    3.692    6.462    2.462 
#    0.000    0.000    0.000    0.923    0.000    0.000 
#    0.000    0.000    0.000    0.000    0.000    0.000 
#
# Total GULP energy -144774.471741 kJ/mol
# GULP energy per Si atom -5568.248913 kJ/mol
# Density = 1.750899 g / cm^3
# Si number density = 17.548932 Si / 1000 Ang^3
#
#
#
# Elastic Constant Matrix: (Units=GPa)
#
#
# Indices 1 2 3 4 5 6 
#
# 1 100.8894 40.7687 30.0643 0.0000 -13.1968 0.0000
# 2 40.7687 58.7465 36.4650 0.0000 -9.6947 0.0000
# 3 30.0643 36.4650 80.8398 0.0000 -11.6200 0.0000
# 4 0.0000 0.0000 0.0000 37.4471 0.0000 -0.1074
# 5 -13.1968 -9.6947 -11.6200 0.0000 32.0887 0.0000
# 6 0.0000 0.0000 0.0000 -0.1074 0.0000 20.3066
#
#
#
# Elastic Compliance Matrix: (Units=1/GPa)
#
#
# Indices 1 2 3 4 5 6 
#
# 1 0.014084 -0.008762 -0.000879 0.000000 0.002827 0.000000
# 2 -0.008762 0.029463 -0.009779 0.000000 0.001757 0.000000
# 3 -0.000879 -0.009779 0.017545 0.000000 0.003037 0.000000
# 4 0.000000 0.000000 0.000000 0.026705 0.000000 0.000141
# 5 0.002827 0.001757 0.003037 0.000000 0.033957 0.000000
# 6 0.000000 0.000000 0.000000 0.000141 0.000000 0.049246
#
#
# Mechanical properties :
#
#
# Convention : Reuss Voigt Hill
#
# Bulk Modulus (GPa) = 44.94068 50.56352 47.75210
# Shear Modulus (GPa) = 23.01432 26.84700 24.93066
#
# Velocity S-wave (km/s) = 3.62531 3.91556 3.77322
# Velocity P-wave (km/s) = 6.57177 7.02264 6.80094
#
# Compressibility (1/GPa) = 0.02225155
#
# Stress axis : x y z
#
# Youngs Moduli (GPa) = 71.00155 33.94138 56.99701
#
# Poissons Ratio (x) = 0.29739 0.05012
# Poissons Ratio (y) = 0.62210 0.55737
# Poissons Ratio (z) = 0.06244 0.33191
#
# Static dielectric constant tensor:
#      x y z
#    x 1.821560 0.000000 0.802950 
#    y 0.000000 1.561080 0.000000 
#    z 0.802950 0.000000 5.600240 
# 
# From -- ./inp_files/48517.got.cif
#   From: 2010.05.17/outbox.cif.g08.bks.cpg/sg15_25_cif.got.tgz:48517.got - 2010.06.03 18:47:42.
