data_PCOD9288251
_publ_section_title
;
Structure prediction by ZEFSAII (Michael W. Deem and Ramdas Pophale) SiO2 
 PCOD9288251
Probable space group: C 2/C
;
_chemical_formula_sum "Si O2"
_cell_formula_units_Z 40
_cell_length_a 5.233330
_cell_length_b 17.847819
_cell_length_c 17.811566
_cell_angle_alpha 90.000000
_cell_angle_beta 74.159998
_cell_angle_gamma 90.000000
_cell_volume 1600.489902
_symmetry_space_group_name_H-M "C 2/C"
_symmetry_group_IT_number 15
_symmetry_cell_setting 'monoclinic'
loop_
_space_group_symop_operation_xyz
x,y,z
-x,y,1/2-z
-x,-y,-z
x,-y,1/2+z
1/2+x,1/2+y,z
1/2-x,1/2+y,1/2-z
1/2-x,1/2-y,-z
1/2+x,1/2-y,1/2+z
loop_
_atom_site_type_symbol
_atom_site_label
_atom_site_fract_x
_atom_site_fract_y
_atom_site_fract_z
Si Si1 0.553792 0.734594 0.825643
Si Si2 0.695352 0.454336 0.803684
Si Si3 0.916597 0.932883 0.061088
Si Si4 0.509656 0.821704 0.387224
Si Si5 0.311490 0.329670 0.566689
O O1 0.500000 0.773829 0.750000
O O2 0.824155 0.698411 0.830544
O O3 0.479287 0.796005 0.894728
O O4 0.316362 0.673218 0.839291
O O5 0.500000 0.441579 0.750000
O O6 0.613346 0.529670 0.855357
O O7 0.652165 0.388858 0.868999
O O8 0.000000 0.458520 0.750000
O O9 0.631836 0.894010 0.067086
O O10 0.119341 0.867782 0.017390
O O11 0.000000 0.000000 0.000000
O O12 0.516656 0.745326 0.435081
#
# Coordination Sequence:
#
# PCOD9288251 Si02
#       5
#     8   8   8   8   8
#     4  10  22  38  66 105 136 176 225 297 344 395
#     4  11  26  45  69  98 141 186 232 283 355 426
#     4  10  23  50  67 103 138 191 224 285 346 424
#     4  10  23  40  69  98 135 173 237 286 341 404
#     4   9  23  42  73  98 136 178 240 287 344 406
#
# _framework density 24.992348
#
# number of rings (size 3 to 8) (size 9 to 14) (size 15 to 20)
#    1.200    0.800    0.000    1.800    5.600    4.800 
#    3.600    6.000    0.000    0.000    0.000    0.000 
#    0.000    0.000    0.000    0.000    0.000    0.000 
#
# Total GULP energy -111568.309310 kJ/mol
# GULP energy per Si atom -5578.415465 kJ/mol
# Density = 2.493546 g / cm^3
# Si number density = 24.992348 Si / 1000 Ang^3
#
#
#
# Elastic Constant Matrix: (Units=GPa)
#
#
# Indices 1 2 3 4 5 6 
#
# 1 94.6971 23.6784 55.2106 0.0000 8.6594 0.0000
# 2 23.6784 133.6776 37.6723 0.0000 -2.9949 0.0000
# 3 55.2106 37.6723 142.1109 0.0000 -1.3715 0.0000
# 4 0.0000 0.0000 0.0000 52.8120 0.0000 0.8247
# 5 8.6594 -2.9949 -1.3715 0.0000 37.1693 0.0000
# 6 0.0000 0.0000 0.0000 0.8247 0.0000 29.6345
#
#
#
# Elastic Compliance Matrix: (Units=1/GPa)
#
#
# Indices 1 2 3 4 5 6 
#
# 1 0.014242 -0.001118 -0.005272 0.000000 -0.003603 0.000000
# 2 -0.001118 0.008185 -0.001727 0.000000 0.000856 0.000000
# 3 -0.005272 -0.001727 0.009557 0.000000 0.001442 0.000000
# 4 0.000000 0.000000 0.000000 0.018943 0.000000 -0.000527
# 5 -0.003603 0.000856 0.001442 0.000000 0.027865 0.000000
# 6 0.000000 0.000000 0.000000 -0.000527 0.000000 0.033759
#
#
# Mechanical properties :
#
#
# Convention : Reuss Voigt Hill
#
# Bulk Modulus (GPa) = 63.49068 67.06757 65.27912
# Shear Modulus (GPa) = 37.30372 40.85145 39.07759
#
# Velocity S-wave (km/s) = 3.86762 4.04735 3.95851
# Velocity P-wave (km/s) = 6.73823 6.98104 6.86071
#
# Compressibility (1/GPa) = 0.01575034
#
# Stress axis : x y z
#
# Youngs Moduli (GPa) = 70.21267 122.18078 104.64002
#
# Poissons Ratio (x) = 0.13658 0.55163
# Poissons Ratio (y) = 0.07849 0.18072
# Poissons Ratio (z) = 0.37014 0.21102
#
# Static dielectric constant tensor:
#      x y z
#    x 1.996200 0.000000 -0.031360 
#    y 0.000000 2.012610 0.000000 
#    z -0.031360 0.000000 2.056320 
# 
# From -- ./inp_files/184630.got.cif
#   From: 2010.05.17/outbox.cif.g08.bks.cpg/sg15_93_cif.got.tgz:184630.got - 2010.06.03 18:47:42.
