data_PCOD9288993
_publ_section_title
;
Structure prediction by ZEFSAII (Michael W. Deem and Ramdas Pophale) SiO2 
 PCOD9288993
Probable space group: C 2/C
;
_chemical_formula_sum "Si O2"
_cell_formula_units_Z 60
_cell_length_a 17.786510
_cell_length_b 11.635769
_cell_length_c 26.805887
_cell_angle_alpha 90.000000
_cell_angle_beta 150.118766
_cell_angle_gamma 90.000000
_cell_volume 2763.904495
_symmetry_space_group_name_H-M "C 2/C"
_symmetry_group_IT_number 15
_symmetry_cell_setting 'monoclinic'
loop_
_space_group_symop_operation_xyz
x,y,z
-x,y,1/2-z
-x,-y,-z
x,-y,1/2+z
1/2+x,1/2+y,z
1/2-x,1/2+y,1/2-z
1/2-x,1/2-y,-z
1/2+x,1/2-y,1/2+z
loop_
_atom_site_type_symbol
_atom_site_label
_atom_site_fract_x
_atom_site_fract_y
_atom_site_fract_z
Si Si1 0.000000 0.563244 0.250000
Si Si2 0.908070 0.355332 0.416004
Si Si3 0.796997 0.073562 0.195679
Si Si4 0.237606 0.360057 0.557226
Si Si5 0.053085 0.000299 0.119595
Si Si6 0.063494 0.732360 0.101967
Si Si7 0.266158 0.904882 0.057819
Si Si8 0.683640 0.844797 0.767269
O O1 0.893363 0.482695 0.155310
O O2 0.896811 0.638820 0.226793
O O3 0.838800 0.481715 0.377267
O O4 0.783120 0.270547 0.321692
O O5 0.062955 0.353036 0.474356
O O6 0.945269 0.308846 0.492684
O O7 0.826565 0.082060 0.154083
O O8 0.727021 0.195907 0.172947
O O9 0.918612 0.031614 0.305693
O O10 0.295259 0.229793 0.583669
O O11 0.241721 0.420732 0.506344
O O12 0.045464 0.866010 0.103398
O O13 0.197940 0.053561 0.175203
O O14 0.897644 0.061072 0.014562
O O15 0.061891 0.663522 0.152959
#
# Coordination Sequence:
#
# PCOD9288993 Si02
#       8
#     4   8   8   8   8   8   8   8
#     4  12  30  42  64  96 138 182 216 278 348 390
#     4  11  21  44  73 100 134 177 227 274 338 401
#     4  10  23  40  72 103 130 180 227 275 339 395
#     4  10  23  43  68 102 138 169 230 279 333 399
#     4  11  23  45  72 101 133 179 227 276 336 404
#     4  10  22  39  70  98 130 177 225 277 330 394
#     4  11  26  44  66 103 137 177 220 281 341 394
#     4  11  25  45  67  99 137 173 229 277 330 408
#
# _framework density 21.708418999999999
#
# number of rings (size 3 to 8) (size 9 to 14) (size 15 to 20)
#    0.000    1.333    2.667    2.400    9.333    3.733 
#    2.400    1.333    0.000    0.000    0.000    0.000 
#    0.000    0.000    0.000    0.000    0.000    0.000 
#
# Total GULP energy -167783.259959 kJ/mol
# GULP energy per Si atom -5592.775332 kJ/mol
# Density = 2.165901 g / cm^3
# Si number density = 21.708419 Si / 1000 Ang^3
#
#
#
# Elastic Constant Matrix: (Units=GPa)
#
#
# Indices 1 2 3 4 5 6 
#
# 1 104.9490 2.7583 16.6763 0.0000 -8.8736 0.0000
# 2 2.7583 45.9063 3.4509 0.0000 -1.9164 0.0000
# 3 16.6763 3.4509 69.2903 -0.0001 -4.6369 -0.0001
# 4 0.0000 0.0000 -0.0001 26.1366 0.0001 -14.9440
# 5 -8.8736 -1.9164 -4.6369 0.0001 28.3087 0.0000
# 6 0.0000 0.0000 -0.0001 -14.9440 0.0000 7.5166
#
#
#
# Elastic Compliance Matrix: (Units=1/GPa)
#
#
# Indices 1 2 3 4 5 6 
#
# 1 0.010128 -0.000324 -0.002235 0.000000 0.002787 0.000000
# 2 -0.000324 0.021924 -0.000932 0.000001 0.001230 0.000002
# 3 -0.002235 -0.000932 0.015131 -0.000001 0.001715 -0.000002
# 4 0.000000 0.000001 -0.000001 -0.279783 0.000000 -0.556248
# 5 0.002787 0.001230 0.001715 0.000000 0.036562 0.000001
# 6 0.000000 0.000002 -0.000002 -0.556248 0.000001 -0.972859
#
#
# Mechanical properties :
#
#
# Convention : Reuss Voigt Hill
#
# Bulk Modulus (GPa) = 24.87446 29.54629 27.21037
# Shear Modulus (GPa) = -4.35345 25.54307 10.59481
#
# Velocity S-wave (km/s) = -1.41766 3.43394 2.21158
# Velocity P-wave (km/s) = 2.96709 5.41874 4.36843
#
# Compressibility (1/GPa) = 0.04020188
#
# Stress axis : x y z
#
# Youngs Moduli (GPa) = 98.73931 45.61140 66.08926
#
# Poissons Ratio (x) = 0.01479 0.14770
# Poissons Ratio (y) = 0.03201 0.06157
# Poissons Ratio (z) = 0.22067 0.04249
#
# Static dielectric constant tensor:
#      x y z
#    x 1.795090 0.000000 -0.026930 
#    y 0.000000 1.767400 0.000000 
#    z -0.026930 0.000000 1.803750 
# 
# From -- ./inp_files/298987.got.cif
#   From: 2010.05.17/outbox.cif.g08.bks.cpg/sg15_150_cif.got.tgz:298987.got - 2010.06.03 18:47:42.
