data_PCOD9288664
_publ_section_title
;
Structure prediction by ZEFSAII (Michael W. Deem and Ramdas Pophale) SiO2 
 PCOD9288664
Probable space group: C 2/C
;
_chemical_formula_sum "Si O2"
_cell_formula_units_Z 48
_cell_length_a 13.021457
_cell_length_b 23.052753
_cell_length_c 8.404882
_cell_angle_alpha 90.000000
_cell_angle_beta 131.089648
_cell_angle_gamma 90.000000
_cell_volume 1901.525832
_symmetry_space_group_name_H-M "C 2/C"
_symmetry_group_IT_number 15
_symmetry_cell_setting 'monoclinic'
loop_
_space_group_symop_operation_xyz
x,y,z
-x,y,1/2-z
-x,-y,-z
x,-y,1/2+z
1/2+x,1/2+y,z
1/2-x,1/2+y,1/2-z
1/2-x,1/2-y,-z
1/2+x,1/2-y,1/2+z
loop_
_atom_site_type_symbol
_atom_site_label
_atom_site_fract_x
_atom_site_fract_y
_atom_site_fract_z
Si Si1 0.119485 0.425535 0.618135
Si Si2 0.177857 0.215842 0.569119
Si Si3 0.130493 0.134442 0.995028
Si Si4 0.656640 0.946952 0.278382
Si Si5 0.933393 0.732304 0.022902
Si Si6 0.064569 0.089403 0.454437
O O1 0.213555 0.385349 0.825179
O O2 0.166241 0.433518 0.478233
O O3 0.118551 0.486505 0.710245
O O4 0.961898 0.409047 0.424853
O O5 0.250000 0.250000 0.500000
O O6 0.121282 0.153229 0.462208
O O7 0.054458 0.253346 0.519471
O O8 0.298570 0.202936 0.816928
O O9 0.067363 0.103843 0.082823
O O10 0.124594 0.203603 0.992395
O O11 0.000000 0.119293 0.750000
O O12 0.801875 0.939402 0.341464
O O13 0.000000 0.707714 0.250000
O O14 0.000000 0.051025 0.250000
#
# Coordination Sequence:
#
# PCOD9288664 Si02
#       6
#     8   8   8   8   8   8
#     4  10  22  42  60  90 122 163 200 251 308 368
#     4  11  22  38  63  91 125 164 208 261 316 372
#     4  10  22  39  63  91 124 162 205 251 305 365
#     4  10  23  40  64  86 125 159 203 253 306 367
#     4  10  22  41  62  89 126 166 208 258 311 377
#     4  11  22  41  59  91 125 156 206 261 303 363
#
# _framework density 25.242885999999999
#
# number of rings (size 3 to 8) (size 9 to 14) (size 15 to 20)
#    0.000    1.667    1.667    3.000    2.333    2.667 
#    3.000    0.000    0.000    0.000    0.000    0.000 
#    0.000    0.000    0.000    0.000    0.000    0.000 
#
# Total GULP energy -133860.619632 kJ/mol
# GULP energy per Si atom -5577.525818 kJ/mol
# Density = 2.518543 g / cm^3
# Si number density = 25.242886 Si / 1000 Ang^3
#
#
#
# Elastic Constant Matrix: (Units=GPa)
#
#
# Indices 1 2 3 4 5 6 
#
# 1 52.2552 5.4341 18.1563 0.0000 26.2324 0.0000
# 2 5.4341 24.1207 24.2956 0.0000 16.4121 0.0000
# 3 18.1563 24.2956 214.2609 0.0000 39.7980 0.0000
# 4 0.0000 0.0000 0.0000 27.3316 0.0000 -5.6681
# 5 26.2324 16.4121 39.7980 0.0000 43.9995 0.0000
# 6 0.0000 0.0000 0.0000 -5.6681 0.0000 -69.2601
#
#
#
# Elastic Compliance Matrix: (Units=1/GPa)
#
#
# Indices 1 2 3 4 5 6 
#
# 1 0.028168 0.006528 0.000534 0.000000 -0.019712 0.000000
# 2 0.006528 0.058663 -0.002906 0.000000 -0.023145 0.000000
# 3 0.000534 -0.002906 0.005780 0.000000 -0.004463 0.000000
# 4 0.000000 0.000000 0.000000 0.035977 0.000000 -0.002944
# 5 -0.019712 -0.023145 -0.004463 0.000000 0.047150 0.000000
# 6 0.000000 0.000000 0.000000 -0.002944 0.000000 -0.014197
#
#
# Mechanical properties :
#
#
# Convention : Reuss Voigt Hill
#
# Bulk Modulus (GPa) = 9.90840 42.93430 26.42135
# Shear Modulus (GPa) = 26.75663 16.59758 21.67711
#
# Velocity S-wave (km/s) = 3.25925 2.56699 2.93361
# Velocity P-wave (km/s) = 4.25409 5.08245 4.68661
#
# Compressibility (1/GPa) = 0.10092451
#
# Stress axis : x y z
#
# Youngs Moduli (GPa) = 35.50143 17.04650 172.99713
#
# Poissons Ratio (x) = -0.11129 -0.09242
# Poissons Ratio (y) = -0.23176 0.50273
# Poissons Ratio (z) = -0.01897 0.04954
#
# Static dielectric constant tensor:
#      x y z
#    x 2.445790 0.000000 -1.440370 
#    y 0.000000 1.950280 0.000000 
#    z -1.440370 0.000000 8.325220 
# 
# From -- ./inp_files/43912.got.cif
#   From: 2010.05.17/outbox.cif.g08.bks.cpg/sg15_22_cif.got.tgz:43912.got - 2010.06.03 18:47:42.
