data_PCOD9288687
_publ_section_title
;
Structure prediction by ZEFSAII (Michael W. Deem and Ramdas Pophale) SiO2 
 PCOD9288687
Probable space group: C 2/C
;
_chemical_formula_sum "Si O2"
_cell_formula_units_Z 56
_cell_length_a 20.119134
_cell_length_b 18.682530
_cell_length_c 7.839061
_cell_angle_alpha 90.000000
_cell_angle_beta 53.389079
_cell_angle_gamma 90.000000
_cell_volume 2365.180789
_symmetry_space_group_name_H-M "C 2/C"
_symmetry_group_IT_number 15
_symmetry_cell_setting 'monoclinic'
loop_
_space_group_symop_operation_xyz
x,y,z
-x,y,1/2-z
-x,-y,-z
x,-y,1/2+z
1/2+x,1/2+y,z
1/2-x,1/2+y,1/2-z
1/2-x,1/2-y,-z
1/2+x,1/2-y,1/2+z
loop_
_atom_site_type_symbol
_atom_site_label
_atom_site_fract_x
_atom_site_fract_y
_atom_site_fract_z
Si Si1 0.231902 0.476860 0.667459
Si Si2 0.378609 0.601517 0.070590
Si Si3 0.548604 0.932981 0.002204
Si Si4 0.190536 0.257577 0.253636
Si Si5 0.494461 0.215258 0.554120
Si Si6 0.548449 0.372219 0.408019
Si Si7 0.773753 0.890475 0.258743
O O1 0.307731 0.457005 0.676978
O O2 0.245243 0.431264 0.474935
O O3 0.236874 0.562957 0.658852
O O4 0.143509 0.454199 0.876553
O O5 0.332957 0.677776 0.153042
O O6 0.418942 0.599048 0.821823
O O7 0.456564 0.595978 0.079594
O O8 0.500000 0.919026 0.250000
O O9 0.540680 0.856388 0.922166
O O10 0.500000 0.000000 0.000000
O O11 0.102015 0.291475 0.341907
O O12 0.236975 0.310703 0.311119
O O13 0.250000 0.250000 0.000000
O O14 0.500000 0.227213 0.750000
O O15 0.531956 0.287257 0.416961
O O16 0.626648 0.385254 0.409388
#
# Coordination Sequence:
#
# PCOD9288687 Si02
#       7
#     8   8   8   8   8   8   8
#     4  11  25  42  66  96 134 178 225 272 339 399
#     4   9  22  40  67  93 128 172 217 283 324 401
#     4  11  24  40  61  87 129 168 219 268 332 393
#     4  11  24  39  67  98 131 169 226 274 335 392
#     4  10  22  39  63  93 128 171 212 279 325 394
#     4   9  20  43  63  96 127 166 227 265 339 386
#     4  11  25  42  69  97 136 176 221 273 336 402
#
# _framework density 23.676839000000001
#
# number of rings (size 3 to 8) (size 9 to 14) (size 15 to 20)
#    0.000    1.714    0.000    2.571   10.000    1.714 
#    2.571    0.000    0.000    0.000    0.000    0.000 
#    0.000    0.000    0.000    0.000    0.000    0.000 
#
# Total GULP energy -156501.701667 kJ/mol
# GULP energy per Si atom -5589.346488 kJ/mol
# Density = 2.362295 g / cm^3
# Si number density = 23.676839 Si / 1000 Ang^3
#
#
#
# Elastic Constant Matrix: (Units=GPa)
#
#
# Indices 1 2 3 4 5 6 
#
# 1 89.2081 26.9729 35.0536 0.0000 -43.6640 0.0000
# 2 26.9729 70.2794 15.0499 0.0000 -30.2212 0.0000
# 3 35.0536 15.0499 86.1427 0.0000 -29.2404 0.0000
# 4 0.0000 0.0000 0.0000 27.7539 0.0000 -5.6989
# 5 -43.6640 -30.2212 -29.2404 0.0000 42.5379 0.0000
# 6 0.0000 0.0000 0.0000 -5.6989 0.0000 44.2861
#
#
#
# Elastic Compliance Matrix: (Units=1/GPa)
#
#
# Indices 1 2 3 4 5 6 
#
# 1 0.022866 0.001709 -0.001597 0.000000 0.023588 0.000000
# 2 0.001709 0.020826 0.001675 0.000000 0.017702 0.000000
# 3 -0.001597 0.001675 0.015409 0.000000 0.010143 0.000000
# 4 0.000000 0.000000 0.000000 0.037009 0.000000 0.004762
# 5 0.023588 0.017702 0.010143 0.000000 0.067269 0.000000
# 6 0.000000 0.000000 0.000000 0.004762 0.000000 0.023193
#
#
# Mechanical properties :
#
#
# Convention : Reuss Voigt Hill
#
# Bulk Modulus (GPa) = 15.95524 44.42033 30.18779
# Shear Modulus (GPa) = 24.52318 34.15251 29.33785
#
# Velocity S-wave (km/s) = 3.22179 3.80207 3.52390
# Velocity P-wave (km/s) = 4.53798 6.17059 5.41615
#
# Compressibility (1/GPa) = 0.06267532
#
# Stress axis : x y z
#
# Youngs Moduli (GPa) = 43.73384 48.01611 64.89881
#
# Poissons Ratio (x) = -0.08207 0.10361
# Poissons Ratio (y) = -0.07475 -0.10868
# Poissons Ratio (z) = 0.06982 -0.08041
#
# Static dielectric constant tensor:
#      x y z
#    x 1.898870 0.000000 -0.017700 
#    y 0.000000 1.984510 0.000000 
#    z -0.017700 0.000000 1.804050 
# 
# From -- ./inp_files/57801.got.cif
#   From: 2010.05.17/outbox.cif.g08.bks.cpg/sg15_29_cif.got.tgz:57801.got - 2010.06.03 18:47:42.
