data_PCOD9288644
_publ_section_title
;
Structure prediction by ZEFSAII (Michael W. Deem and Ramdas Pophale) SiO2 
 PCOD9288644
Probable space group: C 2/C
;
_chemical_formula_sum "Si O2"
_cell_formula_units_Z 52
_cell_length_a 18.032828
_cell_length_b 18.542195
_cell_length_c 9.423614
_cell_angle_alpha 90.000000
_cell_angle_beta 125.568308
_cell_angle_gamma 90.000000
_cell_volume 2563.059697
_symmetry_space_group_name_H-M "C 2/C"
_symmetry_group_IT_number 15
_symmetry_cell_setting 'monoclinic'
loop_
_space_group_symop_operation_xyz
x,y,z
-x,y,1/2-z
-x,-y,-z
x,-y,1/2+z
1/2+x,1/2+y,z
1/2-x,1/2+y,1/2-z
1/2-x,1/2-y,-z
1/2+x,1/2-y,1/2+z
loop_
_atom_site_type_symbol
_atom_site_label
_atom_site_fract_x
_atom_site_fract_y
_atom_site_fract_z
Si Si1 0.190173 0.434412 0.736331
Si Si2 0.896513 0.276603 0.878365
Si Si3 0.500000 0.560177 0.250000
Si Si4 0.836405 0.130103 0.898081
Si Si5 0.500000 0.167458 0.750000
Si Si6 0.168216 0.563654 0.884062
Si Si7 0.133397 0.930853 0.377455
Si Si8 0.500000 0.308934 0.250000
O O1 0.151678 0.353070 0.706385
O O2 0.133118 0.494436 0.757576
O O3 0.195435 0.453651 0.576522
O O4 0.285975 0.443520 0.923023
O O5 0.946951 0.240802 0.801365
O O6 0.829897 0.216121 0.869504
O O7 0.971897 0.288176 0.082179
O O8 0.435787 0.607773 0.074656
O O9 0.574494 0.502141 0.275756
O O10 0.754346 0.099848 0.901214
O O11 0.832202 0.098069 0.735038
O O12 0.586111 0.119235 0.805350
O O13 0.074051 0.867411 0.385721
#
# Coordination Sequence:
#
# PCOD9288644 Si02
#       8
#     8   8   4   8   4   8   8   4
#     4  11  24  42  64  95 130 171 228 270 331 388
#     4  10  24  42  64  95 132 177 218 274 330 394
#     4  11  21  36  68  99 135 170 216 270 324 398
#     4  11  23  40  66 100 134 173 217 268 339 392
#     4  10  25  45  63  93 130 172 232 272 329 385
#     4  11  25  42  67  94 128 174 223 279 322 393
#     4  10  22  39  62  98 134 168 220 270 328 394
#     4   9  22  39  61  96 131 174 218 266 331 391
#
# _framework density 20.288252
#
# number of rings (size 3 to 8) (size 9 to 14) (size 15 to 20)
#    0.000    1.538    1.538    1.846    0.000   16.615 
#    0.000    0.000    0.000    0.000    0.000    0.000 
#    0.000    0.000    0.000    0.000    0.000    0.000 
#
# Total GULP energy -145055.053313 kJ/mol
# GULP energy per Si atom -5579.040512 kJ/mol
# Density = 2.024207 g / cm^3
# Si number density = 20.288252 Si / 1000 Ang^3
#
#
#
# Elastic Constant Matrix: (Units=GPa)
#
#
# Indices 1 2 3 4 5 6 
#
# 1 67.6086 30.4818 31.1611 0.0000 -5.8867 0.0000
# 2 30.4818 113.1799 30.5837 0.0000 -15.5433 0.0000
# 3 31.1611 30.5837 74.8057 0.0000 -8.0809 0.0000
# 4 0.0000 0.0000 0.0000 21.9295 0.0000 -1.9099
# 5 -5.8867 -15.5433 -8.0809 0.0000 24.4412 0.0000
# 6 0.0000 0.0000 0.0000 -1.9099 0.0000 26.2541
#
#
#
# Elastic Compliance Matrix: (Units=1/GPa)
#
#
# Indices 1 2 3 4 5 6 
#
# 1 0.019419 -0.003383 -0.006671 0.000000 0.000320 0.000000
# 2 -0.003383 0.011192 -0.002578 0.000000 0.005450 0.000000
# 3 -0.006671 -0.002578 0.017474 0.000000 0.002531 0.000000
# 4 0.000000 0.000000 0.000000 0.045891 0.000000 0.003338
# 5 0.000320 0.005450 0.002531 0.000000 0.045295 0.000000
# 6 0.000000 0.000000 0.000000 0.003338 0.000000 0.038332
#
#
# Mechanical properties :
#
#
# Convention : Reuss Voigt Hill
#
# Bulk Modulus (GPa) = 43.82013 48.89416 46.35714
# Shear Modulus (GPa) = 23.75581 25.41612 24.58597
#
# Velocity S-wave (km/s) = 3.42558 3.54326 3.48492
# Velocity P-wave (km/s) = 6.10670 6.39466 6.25234
#
# Compressibility (1/GPa) = 0.02282056
#
# Stress axis : x y z
#
# Youngs Moduli (GPa) = 51.49551 89.35202 57.22695
#
# Poissons Ratio (x) = 0.30231 0.38179
# Poissons Ratio (y) = 0.17423 0.14750
# Poissons Ratio (z) = 0.34355 0.23031
#
# Static dielectric constant tensor:
#      x y z
#    x 1.733250 0.000000 0.015250 
#    y 0.000000 1.755020 0.000000 
#    z 0.015250 0.000000 1.713340 
# 
# From -- ./inp_files/49259.got.cif
#   From: 2010.05.17/outbox.cif.g08.bks.cpg/sg15_25_cif.got.tgz:49259.got - 2010.06.03 18:47:42.
