data_PCOD9288385
_publ_section_title
;
Structure prediction by ZEFSAII (Michael W. Deem and Ramdas Pophale) SiO2 
 PCOD9288385
Probable space group: C 2/C
;
_chemical_formula_sum "Si O2"
_cell_formula_units_Z 40
_cell_length_a 16.511592
_cell_length_b 13.316540
_cell_length_c 8.849349
_cell_angle_alpha 90.000000
_cell_angle_beta 60.214602
_cell_angle_gamma 90.000000
_cell_volume 1688.719021
_symmetry_space_group_name_H-M "C 2/C"
_symmetry_group_IT_number 15
_symmetry_cell_setting 'monoclinic'
loop_
_space_group_symop_operation_xyz
x,y,z
-x,y,1/2-z
-x,-y,-z
x,-y,1/2+z
1/2+x,1/2+y,z
1/2-x,1/2+y,1/2-z
1/2-x,1/2-y,-z
1/2+x,1/2-y,1/2+z
loop_
_atom_site_type_symbol
_atom_site_label
_atom_site_fract_x
_atom_site_fract_y
_atom_site_fract_z
Si Si1 0.094483 0.441095 0.369227
Si Si2 0.500000 0.220473 0.750000
Si Si3 0.646841 0.603015 0.418238
Si Si4 0.601809 0.406337 0.618415
Si Si5 0.835909 0.629115 0.376766
Si Si6 0.500000 0.280218 0.250000
O O1 0.148309 0.524533 0.225513
O O2 0.150233 0.399533 0.460848
O O3 0.000000 0.500000 0.500000
O O4 0.061831 0.348339 0.298785
O O5 0.571044 0.295216 0.596461
O O6 0.647183 0.485754 0.466063
O O7 0.652024 0.606986 0.232799
O O8 0.732947 0.658714 0.418716
O O9 0.553308 0.654206 0.573267
O O10 0.500000 0.452427 0.750000
O O11 0.918735 0.706833 0.262521
#
# Coordination Sequence:
#
# PCOD9288385 Si02
#       6
#     8   4   8   8   8   4
#     4  12  21  45  68  99 139 181 228 284 349 415
#     4  10  22  38  74  96 132 182 232 270 350 410
#     4  12  25  46  67 105 137 186 236 290 352 412
#     4  10  24  43  72  94 144 183 232 290 347 415
#     4  12  26  41  72 101 138 185 233 290 348 421
#     4  12  24  42  72  94 140 182 234 288 348 418
#
# _framework density 23.686592999999998
#
# number of rings (size 3 to 8) (size 9 to 14) (size 15 to 20)
#    0.600    0.000    5.000    3.600    0.000    0.000 
#    0.000    1.000    0.000    0.000    0.000    0.000 
#    0.000    0.000    0.000    0.000    0.000    0.000 
#
# Total GULP energy -111847.198964 kJ/mol
# GULP energy per Si atom -5592.359948 kJ/mol
# Density = 2.363268 g / cm^3
# Si number density = 23.686593 Si / 1000 Ang^3
#
#
#
# Elastic Constant Matrix: (Units=GPa)
#
#
# Indices 1 2 3 4 5 6 
#
# 1 135.8205 15.3805 30.9281 0.0000 13.1515 0.0000
# 2 15.3805 120.5332 31.3520 0.0000 -3.9594 0.0000
# 3 30.9281 31.3520 48.6967 0.0000 14.8800 0.0000
# 4 0.0000 0.0000 0.0000 14.0969 0.0000 -23.0567
# 5 13.1515 -3.9594 14.8800 0.0000 40.9561 0.0000
# 6 0.0000 0.0000 0.0000 -23.0567 0.0000 -10.7776
#
#
#
# Elastic Compliance Matrix: (Units=1/GPa)
#
#
# Indices 1 2 3 4 5 6 
#
# 1 0.008643 0.000286 -0.005438 0.000000 -0.000772 0.000000
# 2 0.000286 0.010501 -0.008127 0.000000 0.003876 0.000000
# 3 -0.005438 -0.008127 0.032540 0.000000 -0.010862 0.000000
# 4 0.000000 0.000000 0.000000 0.015767 0.000000 -0.033731
# 5 -0.000772 0.003876 -0.010862 0.000000 0.028985 0.000000
# 6 0.000000 0.000000 0.000000 -0.033731 0.000000 -0.020623
#
#
# Mechanical properties :
#
#
# Convention : Reuss Voigt Hill
#
# Bulk Modulus (GPa) = 39.79708 51.15241 45.47474
# Shear Modulus (GPa) = 45.14788 24.01440 34.58114
#
# Velocity S-wave (km/s) = 4.37057 3.18754 3.82507
# Velocity P-wave (km/s) = 6.50440 5.93208 6.22482
#
# Compressibility (1/GPa) = 0.02512747
#
# Stress axis : x y z
#
# Youngs Moduli (GPa) = 115.69687 95.22717 30.73118
#
# Poissons Ratio (x) = -0.02725 0.16711
# Poissons Ratio (y) = -0.03311 0.24975
# Poissons Ratio (z) = 0.62913 0.77391
#
# Static dielectric constant tensor:
#      x y z
#    x 1.884900 0.000000 -0.025130 
#    y 0.000000 1.930050 0.000000 
#    z -0.025130 0.000000 1.934360 
# 
# From -- ./inp_files/46947.got.cif
#   From: 2010.05.17/outbox.cif.g08.bks.cpg/sg15_24_cif.got.tgz:46947.got - 2010.06.03 18:47:42.
