data_PCOD9288029
_publ_section_title
;
Structure prediction by ZEFSAII (Michael W. Deem and Ramdas Pophale) SiO2 
 PCOD9288029
Probable space group: C 2/C
;
_chemical_formula_sum "Si O2"
_cell_formula_units_Z 52
_cell_length_a 30.790434
_cell_length_b 13.066132
_cell_length_c 8.933024
_cell_angle_alpha 90.000000
_cell_angle_beta 142.074182
_cell_angle_gamma 90.000000
_cell_volume 2208.933653
_symmetry_space_group_name_H-M "C 2/C"
_symmetry_group_IT_number 15
_symmetry_cell_setting 'monoclinic'
loop_
_space_group_symop_operation_xyz
x,y,z
-x,y,1/2-z
-x,-y,-z
x,-y,1/2+z
1/2+x,1/2+y,z
1/2-x,1/2+y,1/2-z
1/2-x,1/2-y,-z
1/2+x,1/2-y,1/2+z
loop_
_atom_site_type_symbol
_atom_site_label
_atom_site_fract_x
_atom_site_fract_y
_atom_site_fract_z
Si Si1 0.578094 0.693965 0.528625
Si Si2 0.410880 0.888452 0.761967
Si Si3 0.054891 0.034800 0.022339
Si Si4 0.729930 0.022263 0.114901
Si Si5 0.709795 0.777821 0.735729
Si Si6 0.500000 0.013109 0.250000
Si Si7 0.199404 0.115524 0.483508
O O1 0.588398 0.767311 0.700750
O O2 0.592975 0.574077 0.591096
O O3 0.630680 0.742447 0.552244
O O4 0.500000 0.699664 0.250000
O O5 0.445382 0.918676 0.697510
O O6 0.334582 0.942303 0.572141
O O7 0.458846 0.941490 0.020707
O O8 0.117060 0.115739 0.216809
O O9 0.000000 0.072400 0.750000
O O10 0.000000 0.000000 0.000000
O O11 0.711280 0.105857 0.189917
O O12 0.753304 0.074341 0.024226
O O13 0.795731 0.963227 0.364785
O O14 0.732072 0.716500 0.647226
O O15 0.750000 0.750000 0.000000
#
# Coordination Sequence:
#
# PCOD9288029 Si02
#       7
#     8   8   8   8   8   4   8
#     4  11  22  41  69  96 132 181 226 279 347 407
#     4  11  22  41  63  98 135 180 224 277 343 417
#     4  11  24  45  69  98 131 180 232 288 350 413
#     4  12  25  42  70 103 139 183 231 291 353 424
#     4  12  26  45  71 100 137 186 236 291 357 425
#     4  10  22  38  62  88 140 178 220 272 338 400
#     4  12  24  45  70 102 141 180 236 295 351 420
#
# _framework density 23.540770999999999
#
# number of rings (size 3 to 8) (size 9 to 14) (size 15 to 20)
#    0.000    0.615    0.769    9.692    2.154    0.000 
#    1.385    3.077    0.000    0.000    0.000    0.000 
#    0.000    0.000    0.000    0.000    0.000    0.000 
#
# Total GULP energy -145442.723427 kJ/mol
# GULP energy per Si atom -5593.950901 kJ/mol
# Density = 2.348719 g / cm^3
# Si number density = 23.540771 Si / 1000 Ang^3
#
#
#
# Elastic Constant Matrix: (Units=GPa)
#
#
# Indices 1 2 3 4 5 6 
#
# 1 116.5500 -4.9630 19.3216 0.0000 -2.3930 0.0000
# 2 -4.9630 82.1495 20.1689 0.0000 -6.7615 0.0000
# 3 19.3216 20.1689 129.0516 0.0000 1.1874 0.0000
# 4 0.0000 0.0000 0.0000 22.5581 0.0000 -4.2023
# 5 -2.3930 -6.7615 1.1874 0.0000 31.2969 0.0000
# 6 0.0000 0.0000 0.0000 -4.2023 0.0000 41.0921
#
#
#
# Elastic Compliance Matrix: (Units=1/GPa)
#
#
# Indices 1 2 3 4 5 6 
#
# 1 0.008889 0.000982 -0.001493 0.000000 0.000948 0.000000
# 2 0.000982 0.013019 -0.002209 0.000000 0.002972 0.000000
# 3 -0.001493 -0.002209 0.008326 0.000000 -0.000907 0.000000
# 4 0.000000 0.000000 0.000000 0.045191 0.000000 0.004621
# 5 0.000948 0.002972 -0.000907 0.000000 0.032701 0.000000
# 6 0.000000 0.000000 0.000000 0.004621 0.000000 0.024808
#
#
# Mechanical properties :
#
#
# Convention : Reuss Voigt Hill
#
# Bulk Modulus (GPa) = 40.33372 44.08957 42.21164
# Shear Modulus (GPa) = 34.09732 38.53764 36.31748
#
# Velocity S-wave (km/s) = 3.80996 4.05045 3.93204
# Velocity P-wave (km/s) = 6.04361 6.37531 6.21167
#
# Compressibility (1/GPa) = 0.02479315
#
# Stress axis : x y z
#
# Youngs Moduli (GPa) = 112.50129 76.80983 120.10639
#
# Poissons Ratio (x) = -0.07540 0.17932
# Poissons Ratio (y) = -0.11043 0.26532
# Poissons Ratio (z) = 0.16796 0.16967
#
# Static dielectric constant tensor:
#      x y z
#    x 1.915380 0.000000 -0.020660 
#    y 0.000000 1.972060 0.000000 
#    z -0.020660 0.000000 1.877350 
# 
# From -- ./inp_files/70189.got.cif
#   From: 2010.05.17/outbox.cif.g08.bks.cpg/sg15_36_cif.got.tgz:70189.got - 2010.06.03 18:47:42.
