data_PCOD9288458
_publ_section_title
;
Structure prediction by ZEFSAII (Michael W. Deem and Ramdas Pophale) SiO2 
 PCOD9288458
Probable space group: C 2/C
;
_chemical_formula_sum "Si O2"
_cell_formula_units_Z 52
_cell_length_a 16.566127
_cell_length_b 13.464303
_cell_length_c 22.143941
_cell_angle_alpha 90.000000
_cell_angle_beta 153.861885
_cell_angle_gamma 90.000000
_cell_volume 2175.913594
_symmetry_space_group_name_H-M "C 2/C"
_symmetry_group_IT_number 15
_symmetry_cell_setting 'monoclinic'
loop_
_space_group_symop_operation_xyz
x,y,z
-x,y,1/2-z
-x,-y,-z
x,-y,1/2+z
1/2+x,1/2+y,z
1/2-x,1/2+y,1/2-z
1/2-x,1/2-y,-z
1/2+x,1/2-y,1/2+z
loop_
_atom_site_type_symbol
_atom_site_label
_atom_site_fract_x
_atom_site_fract_y
_atom_site_fract_z
Si Si1 0.048224 0.723812 0.214864
Si Si2 0.500000 0.543609 0.250000
Si Si3 0.945352 0.741749 0.924305
Si Si4 0.416770 0.584820 0.583788
Si Si5 0.769328 0.842566 0.695857
Si Si6 0.185809 0.536225 0.698861
Si Si7 0.864033 0.491692 0.702332
O O1 0.260435 0.739234 0.338507
O O2 0.021116 0.605545 0.197550
O O3 0.000000 0.756768 0.250000
O O4 0.921766 0.795696 0.090295
O O5 0.612757 0.472818 0.372502
O O6 0.628130 0.611852 0.293363
O O7 0.916976 0.807850 0.845456
O O8 0.947133 0.626161 0.905798
O O9 0.134288 0.748034 0.087696
O O10 0.625098 0.559410 0.707162
O O11 0.296231 0.545319 0.448397
O O12 0.646091 0.926197 0.647340
O O13 0.208958 0.536707 0.785890
O O14 0.000000 0.552294 0.750000
#
# Coordination Sequence:
#
# PCOD9288458 Si02
#       7
#     8   4   8   8   8   8   8
#     4  10  22  39  59  98 126 171 210 270 330 394
#     4  10  24  46  68  92 128 176 222 280 330 398
#     4  11  25  42  71  98 135 177 224 275 334 401
#     4  10  22  42  65  90 131 175 222 269 342 389
#     4  11  25  46  70  99 133 177 227 278 335 397
#     4  10  23  44  64  98 132 181 217 272 333 395
#     4  11  24  37  64  98 131 169 218 279 327 405
#
# _framework density 23.898005999999999
#
# number of rings (size 3 to 8) (size 9 to 14) (size 15 to 20)
#    0.000    1.538    2.308    0.923    6.462    6.769 
#    1.385    0.000    0.000    0.000    0.000    0.000 
#    0.000    0.000    0.000    0.000    0.000    0.000 
#
# Total GULP energy -145256.163487 kJ/mol
# GULP energy per Si atom -5586.775519 kJ/mol
# Density = 2.384361 g / cm^3
# Si number density = 23.898006 Si / 1000 Ang^3
#
#
#
# Elastic Constant Matrix: (Units=GPa)
#
#
# Indices 1 2 3 4 5 6 
#
# 1 134.6907 20.6283 15.1987 -0.0020 -23.2216 -0.0004
# 2 20.6283 73.3036 18.8676 0.0003 -13.6939 0.0010
# 3 15.1987 18.8676 48.5985 -0.0024 -20.8421 -0.0047
# 4 -0.0020 0.0003 -0.0024 25.5850 -0.0016 -4.4456
# 5 -23.2216 -13.6939 -20.8421 -0.0016 33.7597 -0.0017
# 6 -0.0004 0.0010 -0.0047 -4.4456 -0.0017 -52.9027
#
#
#
# Elastic Compliance Matrix: (Units=1/GPa)
#
#
# Indices 1 2 3 4 5 6 
#
# 1 0.008559 -0.001449 0.000216 0.000001 0.005432 0.000000
# 2 -0.001449 0.015698 -0.004540 0.000000 0.002568 0.000001
# 3 0.000216 -0.004540 0.029305 0.000003 0.016399 -0.000003
# 4 0.000001 0.000000 0.000003 0.038523 0.000004 -0.003237
# 5 0.005432 0.002568 0.016399 0.000004 0.044523 -0.000003
# 6 0.000000 0.000001 -0.000003 -0.003237 -0.000003 -0.018631
#
#
# Mechanical properties :
#
#
# Convention : Reuss Voigt Hill
#
# Bulk Modulus (GPa) = 23.80142 40.66469 32.23306
# Shear Modulus (GPa) = 34.83631 14.74827 24.79229
#
# Velocity S-wave (km/s) = 3.82214 2.48691 3.22440
# Velocity P-wave (km/s) = 5.42766 5.02983 5.23253
#
# Compressibility (1/GPa) = 0.04201430
#
# Stress axis : x y z
#
# Youngs Moduli (GPa) = 116.84150 63.70253 34.12435
#
# Poissons Ratio (x) = 0.09232 -0.00736
# Poissons Ratio (y) = 0.16932 0.15492
# Poissons Ratio (z) = -0.02521 0.28921
#
# Static dielectric constant tensor:
#      x y z
#    x 1.896990 0.000000 0.010940 
#    y 0.000000 1.993480 0.000000 
#    z 0.010940 0.000000 1.938220 
# 
# From -- ./inp_files/249135.got.cif
#   From: 2010.05.17/outbox.cif.g08.bks.cpg/sg15_125_cif.got.tgz:249135.got - 2010.06.03 18:47:42.
