data_PCOD9288336
_publ_section_title
;
Structure prediction by ZEFSAII (Michael W. Deem and Ramdas Pophale) SiO2 
 PCOD9288336
Probable space group: C 2/C
;
_chemical_formula_sum "Si O2"
_cell_formula_units_Z 64
_cell_length_a 17.863083
_cell_length_b 13.823147
_cell_length_c 15.997743
_cell_angle_alpha 90.000000
_cell_angle_beta 48.094008
_cell_angle_gamma 90.000000
_cell_volume 2939.923694
_symmetry_space_group_name_H-M "C 2/C"
_symmetry_group_IT_number 15
_symmetry_cell_setting 'monoclinic'
loop_
_space_group_symop_operation_xyz
x,y,z
-x,y,1/2-z
-x,-y,-z
x,-y,1/2+z
1/2+x,1/2+y,z
1/2-x,1/2+y,1/2-z
1/2-x,1/2-y,-z
1/2+x,1/2-y,1/2+z
loop_
_atom_site_type_symbol
_atom_site_label
_atom_site_fract_x
_atom_site_fract_y
_atom_site_fract_z
Si Si1 0.812587 0.166647 0.123465
Si Si2 0.483732 0.269341 0.399268
Si Si3 0.155274 0.345761 0.284797
Si Si4 0.766771 0.471130 0.688432
Si Si5 0.557890 0.835112 0.001146
Si Si6 0.379690 0.493310 0.847378
Si Si7 0.302699 0.675213 0.524123
Si Si8 0.846164 0.791837 0.353727
O O1 0.828924 0.238858 0.189608
O O2 0.756055 0.076382 0.204572
O O3 0.744804 0.226110 0.108326
O O4 0.920579 0.152405 0.999751
O O5 0.510596 0.186495 0.445086
O O6 0.412729 0.239534 0.375043
O O7 0.584427 0.305648 0.280494
O O8 0.200638 0.419820 0.318439
O O9 0.217764 0.355205 0.153774
O O10 0.035454 0.362524 0.370146
O O11 0.856823 0.415040 0.574922
O O12 0.668864 0.461373 0.704183
O O13 0.611334 0.737009 0.992636
O O14 0.500000 0.502861 0.750000
O O15 0.330885 0.599344 0.898228
O O16 0.348388 0.415314 0.940135
O O17 0.250000 0.750000 0.500000
#
# Coordination Sequence:
#
# PCOD9288336 Si02
#       8
#     8   8   8   8   8   8   8   8
#     4  11  22  42  69  97 133 183 225 284 344 402
#     4  10  22  38  68  96 129 179 222 271 344 407
#     4  11  25  44  73 102 139 183 231 288 341 415
#     4  12  24  46  70 101 140 180 236 285 346 412
#     4  11  24  46  72 100 136 185 230 283 351 405
#     4  12  27  42  68 102 140 179 227 288 346 406
#     4  12  26  46  69 100 141 184 237 278 347 416
#     4  11  21  45  63  99 141 173 222 285 342 406
#
# _framework density 21.769272999999998
#
# number of rings (size 3 to 8) (size 9 to 14) (size 15 to 20)
#    0.000    0.750    6.250    0.750    7.000    0.000 
#    0.000    1.875    2.750    0.000    0.000    0.000 
#    0.000    0.000    0.000    0.000    0.000    0.000 
#
# Total GULP energy -178872.178434 kJ/mol
# GULP energy per Si atom -5589.755576 kJ/mol
# Density = 2.171972 g / cm^3
# Si number density = 21.769273 Si / 1000 Ang^3
#
#
#
# Elastic Constant Matrix: (Units=GPa)
#
#
# Indices 1 2 3 4 5 6 
#
# 1 98.1927 26.7933 34.8082 0.0000 -5.4944 0.0000
# 2 26.7933 69.1354 37.1721 0.0000 4.4440 0.0000
# 3 34.8082 37.1721 133.7023 0.0000 -19.2193 0.0000
# 4 0.0000 0.0000 0.0000 28.0599 0.0000 10.0913
# 5 -5.4944 4.4440 -19.2193 0.0000 32.2415 0.0000
# 6 0.0000 0.0000 0.0000 10.0913 0.0000 33.9401
#
#
#
# Elastic Compliance Matrix: (Units=1/GPa)
#
#
# Indices 1 2 3 4 5 6 
#
# 1 0.011941 -0.003714 -0.001870 0.000000 0.001432 0.000000
# 2 -0.003714 0.019157 -0.005282 0.000000 -0.006422 0.000000
# 3 -0.001870 -0.005282 0.010383 0.000000 0.006599 0.000000
# 4 0.000000 0.000000 0.000000 0.039905 0.000000 -0.011865
# 5 0.001432 -0.006422 0.006599 0.000000 0.036079 0.000000
# 6 0.000000 0.000000 0.000000 -0.011865 0.000000 0.032991
#
#
# Mechanical properties :
#
#
# Convention : Reuss Voigt Hill
#
# Bulk Modulus (GPa) = 50.63889 55.39750 53.01819
# Shear Modulus (GPa) = 27.96871 32.33208 30.15040
#
# Velocity S-wave (km/s) = 3.58827 3.85803 3.72559
# Velocity P-wave (km/s) = 6.36237 6.73414 6.55089
#
# Compressibility (1/GPa) = 0.01974767
#
# Stress axis : x y z
#
# Youngs Moduli (GPa) = 83.74804 52.20129 96.30821
#
# Poissons Ratio (x) = 0.19388 0.18012
# Poissons Ratio (y) = 0.31104 0.50872
# Poissons Ratio (z) = 0.15663 0.27574
#
# Static dielectric constant tensor:
#      x y z
#    x 1.814070 0.000000 0.000140 
#    y 0.000000 1.773040 0.000000 
#    z 0.000140 0.000000 1.820950 
# 
# From -- ./inp_files/162530.got.cif
#   From: 2010.05.17/outbox.cif.g08.bks.cpg/sg15_82_cif.got.tgz:162530.got - 2010.06.03 18:47:42.
