data_PCOD9288459
_publ_section_title
;
Structure prediction by ZEFSAII (Michael W. Deem and Ramdas Pophale) SiO2 
 PCOD9288459
Probable space group: C 2/C
;
_chemical_formula_sum "Si O2"
_cell_formula_units_Z 40
_cell_length_a 20.844734
_cell_length_b 8.959346
_cell_length_c 25.081987
_cell_angle_alpha 90.000000
_cell_angle_beta 24.264239
_cell_angle_gamma 90.000000
_cell_volume 1924.946920
_symmetry_space_group_name_H-M "C 2/C"
_symmetry_group_IT_number 15
_symmetry_cell_setting 'monoclinic'
loop_
_space_group_symop_operation_xyz
x,y,z
-x,y,1/2-z
-x,-y,-z
x,-y,1/2+z
1/2+x,1/2+y,z
1/2-x,1/2+y,1/2-z
1/2-x,1/2-y,-z
1/2+x,1/2-y,1/2+z
loop_
_atom_site_type_symbol
_atom_site_label
_atom_site_fract_x
_atom_site_fract_y
_atom_site_fract_z
Si Si1 0.375123 0.165932 0.441992
Si Si2 0.229729 0.679314 0.152942
Si Si3 0.547708 0.438523 0.522553
Si Si4 0.732377 0.059748 0.804894
Si Si5 0.936847 0.410668 0.466614
O O1 0.250000 0.250000 0.500000
O O2 0.336758 0.236665 0.528546
O O3 0.544872 0.198457 0.288997
O O4 0.377125 0.990035 0.457693
O O5 0.271952 0.764937 0.175902
O O6 0.281292 0.511234 0.103365
O O7 0.500000 0.500000 0.500000
O O8 0.408608 0.509902 0.662537
O O9 0.561102 0.267001 0.528972
O O10 0.663155 0.968812 0.907145
O O11 0.615009 0.036249 0.844437
#
# Coordination Sequence:
#
# PCOD9288459 Si02
#       5
#     8   8   8   8   8
#     4  11  24  45  68  94 130 183 243 281 335 422
#     4  11  22  42  68  96 131 183 228 283 354 413
#     4  12  23  35  65 100 143 176 220 285 357 426
#     4  10  22  39  59  98 140 177 225 277 350 427
#     4  10  24  38  63  97 140 181 226 284 350 414
#
# _framework density 20.779793999999999
#
# number of rings (size 3 to 8) (size 9 to 14) (size 15 to 20)
#    0.000    1.200    4.000    1.800    5.600    0.000 
#    0.000    1.000    0.000    2.400    0.000    0.000 
#    0.000    0.000    0.000    0.000    0.000    0.000 
#
# Total GULP energy -111384.327209 kJ/mol
# GULP energy per Si atom -5569.216360 kJ/mol
# Density = 2.073250 g / cm^3
# Si number density = 20.779794 Si / 1000 Ang^3
#
#
#
# Elastic Constant Matrix: (Units=GPa)
#
#
# Indices 1 2 3 4 5 6 
#
# 1 48.5302 32.9744 19.6262 -0.0004 -12.0593 0.0000
# 2 32.9744 155.3417 52.4831 -0.0006 -0.9386 0.0000
# 3 19.6262 52.4831 172.6617 -0.0019 -9.6265 -0.0003
# 4 -0.0004 -0.0006 -0.0019 28.9809 -0.0003 0.4607
# 5 -12.0593 -0.9386 -9.6265 -0.0003 29.1849 0.0001
# 6 0.0000 0.0000 -0.0003 0.4607 0.0001 26.5196
#
#
#
# Elastic Compliance Matrix: (Units=1/GPa)
#
#
# Indices 1 2 3 4 5 6 
#
# 1 0.027349 -0.005454 -0.000846 0.000000 0.010846 0.000000
# 2 -0.005454 0.008269 -0.002042 0.000000 -0.002661 0.000000
# 3 -0.000846 -0.002042 0.006607 0.000000 0.001764 0.000000
# 4 0.000000 0.000000 0.000000 0.034515 0.000001 -0.000600
# 5 0.010846 -0.002661 0.001764 0.000001 0.039242 0.000000
# 6 0.000000 0.000000 0.000000 -0.000600 0.000000 0.037718
#
#
# Mechanical properties :
#
#
# Convention : Reuss Voigt Hill
#
# Bulk Modulus (GPa) = 39.15337 65.18900 52.17119
# Shear Modulus (GPa) = 27.94896 35.03375 31.49135
#
# Velocity S-wave (km/s) = 3.67141 4.11049 3.89714
# Velocity P-wave (km/s) = 6.07086 7.34627 6.73880
#
# Compressibility (1/GPa) = 0.02554059
#
# Stress axis : x y z
#
# Youngs Moduli (GPa) = 36.56468 120.93500 151.35772
#
# Poissons Ratio (x) = 0.65957 0.12808
# Poissons Ratio (y) = 0.19942 0.30906
# Poissons Ratio (z) = 0.03094 0.24694
#
# Static dielectric constant tensor:
#      x y z
#    x 1.823140 0.000000 -0.016010 
#    y 0.000000 1.831790 0.000000 
#    z -0.016010 0.000000 1.756190 
# 
# From -- ./inp_files/115909.got.cif
#   From: 2010.05.17/outbox.cif.g08.bks.cpg/sg15_58_cif.got.tgz:115909.got - 2010.06.03 18:47:42.
