data_PCOD9288460
_publ_section_title
;
Structure prediction by ZEFSAII (Michael W. Deem and Ramdas Pophale) SiO2 
 PCOD9288460
Probable space group: C 2/C
;
_chemical_formula_sum "Si O2"
_cell_formula_units_Z 48
_cell_length_a 6.230094
_cell_length_b 23.934789
_cell_length_c 17.604232
_cell_angle_alpha 90.000000
_cell_angle_beta 57.631027
_cell_angle_gamma 90.000000
_cell_volume 2217.183308
_symmetry_space_group_name_H-M "C 2/C"
_symmetry_group_IT_number 15
_symmetry_cell_setting 'monoclinic'
loop_
_space_group_symop_operation_xyz
x,y,z
-x,y,1/2-z
-x,-y,-z
x,-y,1/2+z
1/2+x,1/2+y,z
1/2-x,1/2+y,1/2-z
1/2-x,1/2-y,-z
1/2+x,1/2-y,1/2+z
loop_
_atom_site_type_symbol
_atom_site_label
_atom_site_fract_x
_atom_site_fract_y
_atom_site_fract_z
Si Si1 0.500000 0.497986 0.750000
Si Si2 0.522381 0.966824 0.077813
Si Si3 0.000000 0.836244 0.750000
Si Si4 0.549120 0.149602 0.113115
Si Si5 0.104085 0.661728 0.530121
Si Si6 0.907683 0.227618 0.114130
Si Si7 0.246472 0.954617 0.848112
O O1 0.244312 0.531217 0.823726
O O2 0.541183 0.464299 0.821547
O O3 0.609243 0.902730 0.052800
O O4 0.724801 0.998684 0.092818
O O5 0.500000 0.000000 0.000000
O O6 0.734641 0.868232 0.808638
O O7 0.962252 0.797358 0.685326
O O8 0.637945 0.206997 0.134171
O O9 0.741897 0.103528 0.109041
O O10 0.524807 0.158372 0.028703
O O11 0.374850 0.694567 0.476167
O O12 0.936544 0.706169 0.607791
O O13 0.500000 0.956672 0.750000
#
# Coordination Sequence:
#
# PCOD9288460 Si02
#       7
#     4   8   4   8   8   8   8
#     4  10  26  43  62 102 138 176 231 276 342 418
#     4  11  23  44  66  98 134 180 224 277 346 400
#     4  10  22  39  60 100 126 166 223 272 338 392
#     4  11  21  38  67  96 126 169 219 281 337 396
#     4  10  23  42  62  94 129 167 227 272 328 415
#     4  10  22  40  63  91 127 174 217 274 331 399
#     4  10  22  39  64  96 130 171 219 277 333 400
#
# _framework density 21.649089
#
# number of rings (size 3 to 8) (size 9 to 14) (size 15 to 20)
#    0.000    1.667    1.667    2.000    2.333    6.667 
#    7.500    0.000    0.000    0.000    0.000    0.000 
#    0.000    0.000    0.000    0.000    0.000    0.000 
#
# Total GULP energy -133870.320122 kJ/mol
# GULP energy per Si atom -5577.930005 kJ/mol
# Density = 2.159981 g / cm^3
# Si number density = 21.649089 Si / 1000 Ang^3
#
#
#
# Elastic Constant Matrix: (Units=GPa)
#
#
# Indices 1 2 3 4 5 6 
#
# 1 83.6914 29.9755 25.8073 0.0000 11.1487 0.0000
# 2 29.9755 121.1949 12.0664 0.0000 17.8842 0.0000
# 3 25.8073 12.0664 52.2422 0.0000 10.7390 0.0000
# 4 0.0000 0.0000 0.0000 -179.5316 0.0000 -165.1872
# 5 11.1487 17.8842 10.7390 0.0000 38.7884 0.0000
# 6 0.0000 0.0000 0.0000 -165.1872 0.0000 -103.8379
#
#
#
# Elastic Compliance Matrix: (Units=1/GPa)
#
#
# Indices 1 2 3 4 5 6 
#
# 1 0.015184 -0.002924 -0.006580 0.000000 -0.001194 0.000000
# 2 -0.002924 0.009498 -0.000023 0.000000 -0.003532 0.000000
# 3 -0.006580 -0.000023 0.023334 0.000000 -0.004558 0.000000
# 4 0.000000 0.000000 0.000000 0.012012 0.000000 -0.019109
# 5 -0.001194 -0.003532 -0.004558 0.000000 0.029015 0.000000
# 6 0.000000 0.000000 0.000000 -0.019109 0.000000 0.020768
#
#
# Mechanical properties :
#
#
# Convention : Reuss Voigt Hill
#
# Bulk Modulus (GPa) = 34.52795 43.64745 39.08770
# Shear Modulus (GPa) = 36.09596 -36.29759 -0.10081
#
# Velocity S-wave (km/s) = 4.08771 -4.09911 -0.21603
# Velocity P-wave (km/s) = 6.18569 1.48275 4.24642
#
# Compressibility (1/GPa) = 0.02896205
#
# Stress axis : x y z
#
# Youngs Moduli (GPa) = 65.85837 105.28557 42.85513
#
# Poissons Ratio (x) = 0.30787 0.28198
# Poissons Ratio (y) = 0.19258 0.00099
# Poissons Ratio (z) = 0.43334 0.00243
#
# Static dielectric constant tensor:
#      x y z
#    x 1.842490 0.000000 -0.065220 
#    y 0.000000 1.808810 0.000000 
#    z -0.065220 0.000000 1.830790 
# 
# From -- ./inp_files/185493.got.cif
#   From: 2010.05.17/outbox.cif.g08.bks.cpg/sg15_93_cif.got.tgz:185493.got - 2010.06.03 18:47:42.
