data_PCOD9288703
_publ_section_title
;
Structure prediction by ZEFSAII (Michael W. Deem and Ramdas Pophale) SiO2 
 PCOD9288703
Probable space group: C 2/C
;
_chemical_formula_sum "Si O2"
_cell_formula_units_Z 40
_cell_length_a 16.307579
_cell_length_b 14.245481
_cell_length_c 7.122941
_cell_angle_alpha 90.000000
_cell_angle_beta 103.015738
_cell_angle_gamma 90.000000
_cell_volume 1612.212674
_symmetry_space_group_name_H-M "C 2/C"
_symmetry_group_IT_number 15
_symmetry_cell_setting 'monoclinic'
loop_
_space_group_symop_operation_xyz
x,y,z
-x,y,1/2-z
-x,-y,-z
x,-y,1/2+z
1/2+x,1/2+y,z
1/2-x,1/2+y,1/2-z
1/2-x,1/2-y,-z
1/2+x,1/2-y,1/2+z
loop_
_atom_site_type_symbol
_atom_site_label
_atom_site_fract_x
_atom_site_fract_y
_atom_site_fract_z
Si Si1 0.284323 0.397018 0.983157
Si Si2 0.500000 0.070551 0.250000
Si Si3 0.140603 0.089168 0.601569
Si Si4 0.885686 0.411791 0.373558
Si Si5 0.662935 0.272959 0.798074
Si Si6 0.000000 0.119853 0.250000
O O1 0.354276 0.381195 0.180773
O O2 0.198204 0.420826 0.046049
O O3 0.311540 0.490138 0.885293
O O4 0.277170 0.310376 0.836213
O O5 0.543260 0.124256 0.443268
O O6 0.427979 0.002518 0.301668
O O7 0.182662 0.173257 0.501307
O O8 0.053542 0.072967 0.444642
O O9 0.859098 0.335700 0.205981
O O10 0.572886 0.318774 0.694320
#
# Coordination Sequence:
#
# PCOD9288703 Si02
#       6
#     8   4   8   8   8   4
#     4  12  22  40  67  97 132 173 213 258 327 379
#     4  10  25  44  73  84 130 170 208 279 332 367
#     4  10  22  39  63  97 130 178 203 262 318 372
#     4  11  24  46  64 100 121 168 222 267 324 388
#     4  10  23  42  64  97 132 165 223 260 313 384
#     4   8  21  40  57  92 130 166 208 255 302 383
#
# _framework density 24.810623
#
# number of rings (size 3 to 8) (size 9 to 14) (size 15 to 20)
#    1.200    0.400    2.000    2.400    0.000    6.400 
#    3.600    0.000    0.000    0.000    0.000    0.000 
#    0.000    0.000    0.000    0.000    0.000    0.000 
#
# Total GULP energy -111640.250474 kJ/mol
# GULP energy per Si atom -5582.012524 kJ/mol
# Density = 2.475415 g / cm^3
# Si number density = 24.810623 Si / 1000 Ang^3
#
#
#
# Elastic Constant Matrix: (Units=GPa)
#
#
# Indices 1 2 3 4 5 6 
#
# 1 84.8314 1.0664 -0.4601 0.0000 7.4239 0.0000
# 2 1.0664 60.3440 19.6283 0.0000 10.0336 0.0000
# 3 -0.4601 19.6283 132.7794 0.0000 20.9160 0.0000
# 4 0.0000 0.0000 0.0000 44.8135 0.0000 -2.4361
# 5 7.4239 10.0336 20.9160 0.0000 45.9092 0.0000
# 6 0.0000 0.0000 0.0000 -2.4361 0.0000 8.7772
#
#
#
# Elastic Compliance Matrix: (Units=1/GPa)
#
#
# Indices 1 2 3 4 5 6 
#
# 1 0.011974 0.000018 0.000371 0.000000 -0.002109 0.000000
# 2 0.000018 0.017758 -0.002169 0.000000 -0.002896 0.000000
# 3 0.000371 -0.002169 0.008390 0.000000 -0.003408 0.000000
# 4 0.000000 0.000000 0.000000 0.022657 0.000000 0.006288
# 5 -0.002109 -0.002896 -0.003408 0.000000 0.024309 0.000000
# 6 0.000000 0.000000 0.000000 0.006288 0.000000 0.115677
#
#
# Mechanical properties :
#
#
# Convention : Reuss Voigt Hill
#
# Bulk Modulus (GPa) = 28.93176 35.38047 32.15611
# Shear Modulus (GPa) = 23.16473 37.08132 30.12302
#
# Velocity S-wave (km/s) = 3.05890 3.87017 3.48820
# Velocity P-wave (km/s) = 4.91551 5.85338 5.40483
#
# Compressibility (1/GPa) = 0.03456410
#
# Stress axis : x y z
#
# Youngs Moduli (GPa) = 83.51099 56.31151 119.18793
#
# Poissons Ratio (x) = -0.00104 -0.04423
# Poissons Ratio (y) = -0.00154 0.25851
# Poissons Ratio (z) = -0.03099 0.12213
#
# Static dielectric constant tensor:
#      x y z
#    x 2.034990 0.000000 0.012920 
#    y 0.000000 1.988590 0.000000 
#    z 0.012920 0.000000 1.979940 
# 
# From -- ./inp_files/46760.got.cif
#   From: 2010.05.17/outbox.cif.g08.bks.cpg/sg15_24_cif.got.tgz:46760.got - 2010.06.03 18:47:42.
