data_PCOD9288790
_publ_section_title
;
Structure prediction by ZEFSAII (Michael W. Deem and Ramdas Pophale) SiO2 
 PCOD9288790
Probable space group: C 2/C
;
_chemical_formula_sum "Si O2"
_cell_formula_units_Z 60
_cell_length_a 8.168158
_cell_length_b 28.127326
_cell_length_c 11.965812
_cell_angle_alpha 90.000000
_cell_angle_beta 110.411617
_cell_angle_gamma 90.000000
_cell_volume 2576.512573
_symmetry_space_group_name_H-M "C 2/C"
_symmetry_group_IT_number 15
_symmetry_cell_setting 'monoclinic'
loop_
_space_group_symop_operation_xyz
x,y,z
-x,y,1/2-z
-x,-y,-z
x,-y,1/2+z
1/2+x,1/2+y,z
1/2-x,1/2+y,1/2-z
1/2-x,1/2-y,-z
1/2+x,1/2-y,1/2+z
loop_
_atom_site_type_symbol
_atom_site_label
_atom_site_fract_x
_atom_site_fract_y
_atom_site_fract_z
Si Si1 0.837793 0.433143 0.908170
Si Si2 0.631050 0.127395 0.547436
Si Si3 0.000000 0.885858 0.750000
Si Si4 0.450947 0.735507 0.909301
Si Si5 0.129180 0.468304 0.182877
Si Si6 0.624549 0.459523 0.071262
Si Si7 0.800120 0.273262 0.341670
Si Si8 0.958397 0.860232 0.985863
O O1 0.668451 0.419067 0.798717
O O2 0.925156 0.479271 0.872461
O O3 0.774679 0.451719 0.013837
O O4 0.941725 0.383758 0.950434
O O5 0.660663 0.074302 0.603640
O O6 0.664180 0.169329 0.645154
O O7 0.758624 0.142348 0.477462
O O8 0.017256 0.857106 0.640228
O O9 0.272575 0.746871 0.795979
O O10 0.625805 0.738844 0.873594
O O11 0.527986 0.755674 0.046585
O O12 0.430908 0.679932 0.928562
O O13 0.308029 0.473697 0.292411
O O14 0.000000 0.451177 0.250000
O O15 0.500000 0.500000 0.000000
O O16 0.524470 0.410239 0.045996
#
# Coordination Sequence:
#
# PCOD9288790 Si02
#       8
#     8   8   4   8   8   8   8   8
#     4  11  24  39  58  88 126 170 222 267 324 389
#     4  11  23  39  63  97 125 170 218 275 332 401
#     4  10  24  42  60  88 128 172 218 276 336 396
#     4   9  18  37  63  98 132 172 219 278 334 412
#     4  12  24  37  61  88 126 169 213 271 320 391
#     4  11  23  40  59  86 126 171 213 262 323 387
#     4   9  19  36  65  98 135 167 221 276 343 401
#     4  10  22  39  65  89 127 167 220 277 334 406
#
# _framework density 23.287292000000001
#
# number of rings (size 3 to 8) (size 9 to 14) (size 15 to 20)
#    0.000    1.600    1.333    3.600    3.733    3.733 
#    0.000    2.667    1.467    4.000    0.000    0.000 
#    0.000    0.000    0.000    0.000    0.000    0.000 
#
# Total GULP energy -167164.424446 kJ/mol
# GULP energy per Si atom -5572.147482 kJ/mol
# Density = 2.323429 g / cm^3
# Si number density = 23.287292 Si / 1000 Ang^3
#
#
#
# Elastic Constant Matrix: (Units=GPa)
#
#
# Indices 1 2 3 4 5 6 
#
# 1 38.7491 9.0871 20.4483 0.0000 1.8748 0.0000
# 2 9.0871 67.1158 26.4087 0.0000 15.0999 0.0000
# 3 20.4483 26.4087 104.9877 0.0000 40.3175 0.0000
# 4 0.0000 0.0000 0.0000 10.0053 0.0000 -2.7302
# 5 1.8748 15.0999 40.3175 0.0000 42.6921 0.0000
# 6 0.0000 0.0000 0.0000 -2.7302 0.0000 7.3678
#
#
#
# Elastic Compliance Matrix: (Units=1/GPa)
#
#
# Indices 1 2 3 4 5 6 
#
# 1 0.030277 -0.002558 -0.007987 0.000000 0.007118 0.000000
# 2 -0.002558 0.017003 -0.002373 0.000000 -0.003661 0.000000
# 3 -0.007987 -0.002373 0.017605 0.000000 -0.015436 0.000000
# 4 0.000000 0.000000 0.000000 0.111189 0.000000 0.041202
# 5 0.007118 -0.003661 -0.015436 0.000000 0.038983 0.000000
# 6 0.000000 0.000000 0.000000 0.041202 0.000000 0.150992
#
#
# Mechanical properties :
#
#
# Convention : Reuss Voigt Hill
#
# Bulk Modulus (GPa) = 25.60856 35.86009 30.73432
# Shear Modulus (GPa) = 12.34862 22.34029 17.34445
#
# Velocity S-wave (km/s) = 2.30526 3.10067 2.73207
# Velocity P-wave (km/s) = 4.25515 5.31520 4.81444
#
# Compressibility (1/GPa) = 0.03904944
#
# Stress axis : x y z
#
# Youngs Moduli (GPa) = 33.02786 58.81219 56.80141
#
# Poissons Ratio (x) = 0.15045 0.45368
# Poissons Ratio (y) = 0.08449 0.13479
# Poissons Ratio (z) = 0.26380 0.13956
#
# Static dielectric constant tensor:
#      x y z
#    x 1.967740 0.000000 0.095470 
#    y 0.000000 1.841330 0.000000 
#    z 0.095470 0.000000 1.992400 
# 
# From -- ./inp_files/82651.got.cif
#   From: 2010.05.17/outbox.cif.g08.bks.cpg/sg15_42_cif.got.tgz:82651.got - 2010.06.03 18:47:42.
