data_PCOD9288158
_publ_section_title
;
Structure prediction by ZEFSAII (Michael W. Deem and Ramdas Pophale) SiO2 
 PCOD9288158
Probable space group: C 2/C
;
_chemical_formula_sum "Si O2"
_cell_formula_units_Z 44
_cell_length_a 17.919613
_cell_length_b 8.792169
_cell_length_c 16.584095
_cell_angle_alpha 90.000000
_cell_angle_beta 125.554625
_cell_angle_gamma 90.000000
_cell_volume 2125.723758
_symmetry_space_group_name_H-M "C 2/C"
_symmetry_group_IT_number 15
_symmetry_cell_setting 'monoclinic'
loop_
_space_group_symop_operation_xyz
x,y,z
-x,y,1/2-z
-x,-y,-z
x,-y,1/2+z
1/2+x,1/2+y,z
1/2-x,1/2+y,1/2-z
1/2-x,1/2-y,-z
1/2+x,1/2-y,1/2+z
loop_
_atom_site_type_symbol
_atom_site_label
_atom_site_fract_x
_atom_site_fract_y
_atom_site_fract_z
Si Si1 0.625958 0.923051 0.136276
Si Si2 0.469259 0.121804 0.091038
Si Si3 0.669984 0.770314 0.881916
Si Si4 0.000000 0.963352 0.250000
Si Si5 0.269257 0.368243 0.779364
Si Si6 0.049330 0.044315 0.613671
O O1 0.677443 0.784220 0.210307
O O2 0.537992 0.982947 0.127823
O O3 0.694481 0.065119 0.172178
O O4 0.593221 0.873542 0.027875
O O5 0.403475 0.114157 0.126000
O O6 0.525849 0.280485 0.121067
O O7 0.598829 0.628783 0.821618
O O8 0.717881 0.828124 0.830862
O O9 0.750000 0.750000 0.000000
O O10 0.012853 0.041785 0.171178
O O11 0.345824 0.499319 0.834313
O O12 0.000000 0.000000 0.500000
#
# Coordination Sequence:
#
# PCOD9288158 Si02
#       6
#     8   8   8   4   8   8
#     4  11  22  38  61  92 121 165 202 267 316 384
#     4  10  22  41  64  86 127 163 215 258 323 369
#     4  11  20  39  63  95 117 168 226 268 299 391
#     4  10  22  38  64  94 130 174 218 264 322 384
#     4  12  22  38  66  92 123 159 216 258 322 375
#     4  11  21  41  64  95 128 170 211 267 318 388
#
# _framework density 20.698830999999998
#
# number of rings (size 3 to 8) (size 9 to 14) (size 15 to 20)
#    0.000    1.091    3.636    5.455    0.000    0.000 
#    0.000    1.818    0.000    7.636    0.000    0.000 
#    0.000    0.000    0.000    0.000    0.000    0.000 
#
# Total GULP energy -122662.704081 kJ/mol
# GULP energy per Si atom -5575.577458 kJ/mol
# Density = 2.065172 g / cm^3
# Si number density = 20.698831 Si / 1000 Ang^3
#
#
#
# Elastic Constant Matrix: (Units=GPa)
#
#
# Indices 1 2 3 4 5 6 
#
# 1 144.5543 26.2311 15.4276 0.0000 0.5852 0.0000
# 2 26.2311 56.7362 4.0139 0.0000 7.8930 0.0000
# 3 15.4276 4.0139 76.0142 0.0000 12.4841 0.0000
# 4 0.0000 0.0000 0.0000 34.8464 0.0000 11.6418
# 5 0.5852 7.8930 12.4841 0.0000 36.0050 0.0000
# 6 0.0000 0.0000 0.0000 11.6418 0.0000 35.7630
#
#
#
# Elastic Compliance Matrix: (Units=1/GPa)
#
#
# Indices 1 2 3 4 5 6 
#
# 1 0.007741 -0.003637 -0.001579 0.000000 0.001219 0.000000
# 2 -0.003637 0.019896 0.000418 0.000000 -0.004447 0.000000
# 3 -0.001579 0.000418 0.014278 0.000000 -0.005017 0.000000
# 4 0.000000 0.000000 0.000000 0.032199 0.000000 -0.010482
# 5 0.001219 -0.004447 -0.005017 0.000000 0.030468 0.000000
# 6 0.000000 0.000000 0.000000 -0.010482 0.000000 0.031374
#
#
# Mechanical properties :
#
#
# Convention : Reuss Voigt Hill
#
# Bulk Modulus (GPa) = 30.94197 40.96111 35.95154
# Shear Modulus (GPa) = 31.98435 36.76501 34.37468
#
# Velocity S-wave (km/s) = 3.93520 4.21906 4.07960
# Velocity P-wave (km/s) = 5.96899 6.60045 6.29265
#
# Compressibility (1/GPa) = 0.03231856
#
# Stress axis : x y z
#
# Youngs Moduli (GPa) = 129.17535 50.26108 70.03890
#
# Poissons Ratio (x) = 0.18280 0.11062
# Poissons Ratio (y) = 0.46981 -0.02927
# Poissons Ratio (z) = 0.20401 -0.02101
#
# Static dielectric constant tensor:
#      x y z
#    x 1.746180 0.000000 0.009670 
#    y 0.000000 1.786080 0.000000 
#    z 0.009670 0.000000 1.791870 
# 
# From -- ./inp_files/209763.got.cif
#   From: 2010.05.17/outbox.cif.g08.bks.cpg/sg15_105_cif.got.tgz:209763.got - 2010.06.03 18:47:42.
