data_PCOD9288350
_publ_section_title
;
Structure prediction by ZEFSAII (Michael W. Deem and Ramdas Pophale) SiO2 
 PCOD9288350
Probable space group: C 2/C
;
_chemical_formula_sum "Si O2"
_cell_formula_units_Z 48
_cell_length_a 15.505815
_cell_length_b 15.713982
_cell_length_c 19.360890
_cell_angle_alpha 90.000000
_cell_angle_beta 150.670532
_cell_angle_gamma 90.000000
_cell_volume 2310.746739
_symmetry_space_group_name_H-M "C 2/C"
_symmetry_group_IT_number 15
_symmetry_cell_setting 'monoclinic'
loop_
_space_group_symop_operation_xyz
x,y,z
-x,y,1/2-z
-x,-y,-z
x,-y,1/2+z
1/2+x,1/2+y,z
1/2-x,1/2+y,1/2-z
1/2-x,1/2-y,-z
1/2+x,1/2-y,1/2+z
loop_
_atom_site_type_symbol
_atom_site_label
_atom_site_fract_x
_atom_site_fract_y
_atom_site_fract_z
Si Si1 0.757530 0.358110 0.773441
Si Si2 0.932578 0.863532 0.129819
Si Si3 0.628365 0.467847 0.150182
Si Si4 0.402281 0.132466 0.747281
Si Si5 0.414529 0.242321 0.511660
Si Si6 0.965577 0.340648 0.648685
O O1 0.682144 0.451558 0.734518
O O2 0.595046 0.297976 0.635340
O O3 0.888165 0.370728 0.801146
O O4 0.869453 0.316987 0.914021
O O5 0.964376 0.762219 0.144479
O O6 0.000000 0.895500 0.250000
O O7 0.022644 0.904616 0.126286
O O8 0.726803 0.875184 0.997025
O O9 0.793019 0.423969 0.225990
O O10 0.500000 0.500000 0.000000
O O11 0.500000 0.090134 0.750000
O O12 0.545234 0.185382 0.892585
O O13 0.253726 0.194676 0.609195
O O14 0.000000 0.365927 0.750000
#
# Coordination Sequence:
#
# PCOD9288350 Si02
#       6
#     8   8   8   8   8   8
#     4  11  24  42  71  98 134 178 218 278 334 400
#     4  10  23  42  67  98 136 170 218 272 326 395
#     4  12  25  44  65 100 142 174 213 284 345 381
#     4  11  24  44  72  97 130 174 227 276 329 397
#     4  10  23  45  72  94 130 174 234 268 326 400
#     4  10  22  38  69  98 129 174 223 261 326 409
#
# _framework density 20.772506
#
# number of rings (size 3 to 8) (size 9 to 14) (size 15 to 20)
#    0.000    1.333    1.667    3.500    9.333    2.667 
#    3.000    0.833    0.000    0.000    0.000    0.000 
#    0.000    0.000    0.000    0.000    0.000    0.000 
#
# Total GULP energy -133942.324559 kJ/mol
# GULP energy per Si atom -5580.930190 kJ/mol
# Density = 2.072523 g / cm^3
# Si number density = 20.772506 Si / 1000 Ang^3
#
#
#
# Elastic Constant Matrix: (Units=GPa)
#
#
# Indices 1 2 3 4 5 6 
#
# 1 133.5374 35.3573 44.1742 -0.0130 -12.3525 0.0020
# 2 35.3573 66.2937 37.8030 -0.0114 -5.9434 0.0024
# 3 44.1742 37.8030 150.1718 -0.0188 -28.4162 0.0036
# 4 -0.0130 -0.0114 -0.0188 109.3372 -0.0095 -28.9090
# 5 -12.3525 -5.9434 -28.4162 -0.0095 8.9852 0.0020
# 6 0.0020 0.0024 0.0036 -28.9090 0.0020 32.9535
#
#
#
# Elastic Compliance Matrix: (Units=1/GPa)
#
#
# Indices 1 2 3 4 5 6 
#
# 1 0.009568 -0.004341 0.000558 0.000002 0.012046 0.000001
# 2 -0.004341 0.019709 -0.005844 -0.000001 -0.011413 0.000000
# 3 0.000558 -0.005844 0.018377 0.000008 0.055021 0.000002
# 4 0.000002 -0.000001 0.000008 0.011908 0.000038 0.010447
# 5 0.012046 -0.011413 0.055021 0.000038 0.294312 0.000009
# 6 0.000001 0.000000 0.000002 0.010447 0.000009 0.039510
#
#
# Mechanical properties :
#
#
# Convention : Reuss Voigt Hill
#
# Bulk Modulus (GPa) = 35.21223 64.96354 50.08789
# Shear Modulus (GPa) = 11.84538 45.76643 28.80590
#
# Velocity S-wave (km/s) = 2.39057 4.69894 3.72793
# Velocity P-wave (km/s) = 4.96064 7.79627 6.53413
#
# Compressibility (1/GPa) = 0.02839922
#
# Stress axis : x y z
#
# Youngs Moduli (GPa) = 104.51862 50.73859 54.41438
#
# Poissons Ratio (x) = 0.22025 -0.03034
# Poissons Ratio (y) = 0.45371 0.31801
# Poissons Ratio (z) = -0.05829 0.29652
#
# Static dielectric constant tensor:
#      x y z
#    x 1.711300 0.000000 0.016790 
#    y 0.000000 1.783280 0.000000 
#    z 0.016790 0.000000 1.732230 
# 
# From -- ./inp_files/206497.got.cif
#   From: 2010.05.17/outbox.cif.g08.bks.cpg/sg15_104_cif.got.tgz:206497.got - 2010.06.03 18:47:42.
