data_PCOD9288433
_publ_section_title
;
Structure prediction by ZEFSAII (Michael W. Deem and Ramdas Pophale) SiO2 
 PCOD9288433
Probable space group: C 2/C
;
_chemical_formula_sum "Si O2"
_cell_formula_units_Z 48
_cell_length_a 15.267469
_cell_length_b 9.462601
_cell_length_c 16.042857
_cell_angle_alpha 90.000000
_cell_angle_beta 116.644312
_cell_angle_gamma 90.000000
_cell_volume 2071.587910
_symmetry_space_group_name_H-M "C 2/C"
_symmetry_group_IT_number 15
_symmetry_cell_setting 'monoclinic'
loop_
_space_group_symop_operation_xyz
x,y,z
-x,y,1/2-z
-x,-y,-z
x,-y,1/2+z
1/2+x,1/2+y,z
1/2-x,1/2+y,1/2-z
1/2-x,1/2-y,-z
1/2+x,1/2-y,1/2+z
loop_
_atom_site_type_symbol
_atom_site_label
_atom_site_fract_x
_atom_site_fract_y
_atom_site_fract_z
Si Si1 0.113707 0.456947 0.263094
Si Si2 0.640862 0.853748 0.922100
Si Si3 0.899618 0.852711 0.758562
Si Si4 0.442351 0.890767 0.918248
Si Si5 0.045535 0.125751 0.465505
Si Si6 0.302261 0.468363 0.089692
O O1 0.164898 0.560927 0.348970
O O2 0.150264 0.296652 0.283046
O O3 0.000000 0.446914 0.250000
O O4 0.122537 0.522299 0.175049
O O5 0.526822 0.835320 0.891624
O O6 0.671828 0.693339 0.919987
O O7 0.689070 0.954541 0.014171
O O8 0.831270 0.977935 0.694266
O O9 0.000000 0.873677 0.750000
O O10 0.948368 0.832624 0.870202
O O11 0.414622 0.755896 0.962311
O O12 0.500000 0.000000 0.000000
O O13 0.133028 0.066881 0.444388
O O14 0.000000 0.000000 0.500000
#
# Coordination Sequence:
#
# PCOD9288433 Si02
#       6
#     8   8   8   8   8   8
#     4   9  19  35  58  85 113 156 199 241 295 367
#     4  10  22  39  60  84 120 161 199 244 306 359
#     4   9  19  35  57  86 115 151 202 243 290 365
#     4  11  21  38  62  88 119 154 201 254 300 357
#     4  11  21  36  62  90 116 155 204 251 299 356
#     4  10  22  39  59  86 121 158 201 248 297 366
#
# _framework density 23.170632000000001
#
# number of rings (size 3 to 8) (size 9 to 14) (size 15 to 20)
#    0.000    2.000    3.333    0.000    4.667    2.667 
#    0.000    1.667    0.000    0.000    0.000    0.000 
#    0.000    0.000    0.000    0.000    0.000    0.000 
#
# Total GULP energy -133689.839018 kJ/mol
# GULP energy per Si atom -5570.409959 kJ/mol
# Density = 2.311790 g / cm^3
# Si number density = 23.170632 Si / 1000 Ang^3
#
#
#
# Elastic Constant Matrix: (Units=GPa)
#
#
# Indices 1 2 3 4 5 6 
#
# 1 55.1262 14.9389 6.7217 0.0000 10.9918 0.0000
# 2 14.9389 124.5483 30.3804 0.0000 7.1380 0.0000
# 3 6.7217 30.3804 84.5553 0.0000 -6.6624 0.0000
# 4 0.0000 0.0000 0.0000 43.5302 0.0000 -13.5527
# 5 10.9918 7.1380 -6.6624 0.0000 15.9737 0.0000
# 6 0.0000 0.0000 0.0000 -13.5527 0.0000 -5.3534
#
#
#
# Elastic Compliance Matrix: (Units=1/GPa)
#
#
# Indices 1 2 3 4 5 6 
#
# 1 0.021869 -0.001099 -0.002575 0.000000 -0.015631 0.000000
# 2 -0.001099 0.009336 -0.003656 0.000000 -0.004940 0.000000
# 3 -0.002575 -0.003656 0.014076 0.000000 0.009277 0.000000
# 4 0.000000 0.000000 0.000000 0.012847 0.000000 -0.032523
# 5 -0.015631 -0.004940 0.009277 0.000000 0.079436 0.000000
# 6 0.000000 0.000000 0.000000 -0.032523 0.000000 -0.104461
#
#
# Mechanical properties :
#
#
# Convention : Reuss Voigt Hill
#
# Bulk Modulus (GPa) = 32.65886 40.92354 36.79120
# Shear Modulus (GPa) = 86.25152 24.97601 55.61377
#
# Velocity S-wave (km/s) = 6.10781 3.28673 4.90448
# Velocity P-wave (km/s) = 7.99162 5.66600 6.92710
#
# Compressibility (1/GPa) = 0.03061956
#
# Stress axis : x y z
#
# Youngs Moduli (GPa) = 45.72723 107.11427 71.04335
#
# Poissons Ratio (x) = 0.11772 0.18295
# Poissons Ratio (y) = 0.05026 0.25975
# Poissons Ratio (z) = 0.11776 0.39164
#
# Static dielectric constant tensor:
#      x y z
#    x 2.036250 0.000000 0.099030 
#    y 0.000000 1.837920 0.000000 
#    z 0.099030 0.000000 2.087650 
# 
# From -- ./inp_files/214072.got.cif
#   From: 2010.05.17/outbox.cif.g08.bks.cpg/sg15_108_cif.got.tgz:214072.got - 2010.06.03 18:47:42.
