data_PCOD9288298
_publ_section_title
;
Structure prediction by ZEFSAII (Michael W. Deem and Ramdas Pophale) SiO2 
 PCOD9288298
Probable space group: C 2/C
;
_chemical_formula_sum "Si O2"
_cell_formula_units_Z 44
_cell_length_a 20.074928
_cell_length_b 5.211070
_cell_length_c 15.941705
_cell_angle_alpha 90.000000
_cell_angle_beta 109.111172
_cell_angle_gamma 90.000000
_cell_volume 1575.776676
_symmetry_space_group_name_H-M "C 2/C"
_symmetry_group_IT_number 15
_symmetry_cell_setting 'monoclinic'
loop_
_space_group_symop_operation_xyz
x,y,z
-x,y,1/2-z
-x,-y,-z
x,-y,1/2+z
1/2+x,1/2+y,z
1/2-x,1/2+y,1/2-z
1/2-x,1/2-y,-z
1/2+x,1/2-y,1/2+z
loop_
_atom_site_type_symbol
_atom_site_label
_atom_site_fract_x
_atom_site_fract_y
_atom_site_fract_z
Si Si1 0.500000 0.725516 0.250000
Si Si2 0.897479 0.061690 0.601328
Si Si3 0.714477 0.322041 0.844900
Si Si4 0.380244 0.075329 0.816362
Si Si5 0.309624 0.030588 0.004582
Si Si6 0.421347 0.573637 0.937281
O O1 0.529337 0.538352 0.333913
O O2 0.563721 0.889932 0.238343
O O3 0.884899 0.339096 0.556077
O O4 0.846526 0.032303 0.661814
O O5 0.882380 0.890447 0.511471
O O6 0.695890 0.137700 0.760165
O O7 0.788491 0.453413 0.900117
O O8 0.704716 0.151700 0.923298
O O9 0.408640 0.819839 0.873959
O O10 0.391246 0.325931 0.878300
O O11 0.250000 0.250000 0.000000
O O12 0.500000 0.500000 0.000000
#
# Coordination Sequence:
#
# PCOD9288298 Si02
#       6
#     4   8   8   8   8   8
#     4  10  22  42  64 106 130 190 242 286 338 428
#     4  10  22  38  67  96 138 181 227 281 353 413
#     4   9  21  40  68  97 126 176 242 286 338 400
#     4  11  26  42  67  98 140 185 234 288 342 425
#     4   9  19  38  70  94 126 169 232 293 336 399
#     4  12  26  43  65  99 149 185 223 280 360 422
#
# _framework density 27.922740000000001
#
# number of rings (size 3 to 8) (size 9 to 14) (size 15 to 20)
#    0.000    1.818    1.818    0.545   10.182    2.182 
#    0.000    0.000   12.000    0.000    0.000    0.000 
#    0.000    0.000    0.000    0.000    0.000    0.000 
#
# Total GULP energy -122888.660703 kJ/mol
# GULP energy per Si atom -5585.848214 kJ/mol
# Density = 2.785919 g / cm^3
# Si number density = 27.922740 Si / 1000 Ang^3
#
#
#
# Elastic Constant Matrix: (Units=GPa)
#
#
# Indices 1 2 3 4 5 6 
#
# 1 57.2378 13.1109 17.2335 0.0000 18.2260 0.0000
# 2 13.1109 157.2814 95.7470 0.0002 16.5262 -0.0001
# 3 17.2335 95.7470 241.5659 0.0000 11.6548 0.0000
# 4 0.0000 0.0002 0.0000 62.7226 0.0000 2.9910
# 5 18.2260 16.5262 11.6548 0.0000 42.4728 0.0000
# 6 0.0000 -0.0001 0.0000 2.9910 0.0000 34.4806
#
#
#
# Elastic Compliance Matrix: (Units=1/GPa)
#
#
# Indices 1 2 3 4 5 6 
#
# 1 0.020503 -0.000237 -0.000962 0.000000 -0.008442 0.000000
# 2 -0.000237 0.008627 -0.003289 0.000000 -0.002353 0.000000
# 3 -0.000962 -0.003289 0.005503 0.000000 0.000182 0.000000
# 4 0.000000 0.000000 0.000000 0.016009 0.000000 -0.001389
# 5 -0.008442 -0.002353 0.000182 0.000000 0.028033 0.000000
# 6 0.000000 0.000000 0.000000 -0.001389 0.000000 0.029122
#
#
# Mechanical properties :
#
#
# Convention : Reuss Voigt Hill
#
# Bulk Modulus (GPa) = 38.97325 78.69643 58.83484
# Shear Modulus (GPa) = 39.89618 49.93478 44.91548
#
# Velocity S-wave (km/s) = 3.78406 4.23344 4.01504
# Velocity P-wave (km/s) = 5.75152 7.22086 6.52766
#
# Compressibility (1/GPa) = 0.02565863
#
# Stress axis : x y z
#
# Youngs Moduli (GPa) = 48.77346 115.91182 181.71495
#
# Poissons Ratio (x) = 0.02743 0.17473
# Poissons Ratio (y) = 0.01154 0.59768
# Poissons Ratio (z) = 0.04690 0.38124
#
# Static dielectric constant tensor:
#      x y z
#    x 2.429980 0.000000 -0.013810 
#    y 0.000000 2.657590 0.000000 
#    z -0.013810 0.000000 2.149220 
# 
# From -- ./inp_files/223451.got.cif
#   From: 2010.05.17/outbox.cif.g08.bks.cpg/sg15_112_cif.got.tgz:223451.got - 2010.06.03 18:47:42.
