data_PCOD9288616
_publ_section_title
;
Structure prediction by ZEFSAII (Michael W. Deem and Ramdas Pophale) SiO2 
 PCOD9288616
Probable space group: C 2/C
;
_chemical_formula_sum "Si O2"
_cell_formula_units_Z 56
_cell_length_a 15.954078
_cell_length_b 27.684845
_cell_length_c 5.783582
_cell_angle_alpha 90.000000
_cell_angle_beta 60.310757
_cell_angle_gamma 90.000000
_cell_volume 2219.181300
_symmetry_space_group_name_H-M "C 2/C"
_symmetry_group_IT_number 15
_symmetry_cell_setting 'monoclinic'
loop_
_space_group_symop_operation_xyz
x,y,z
-x,y,1/2-z
-x,-y,-z
x,-y,1/2+z
1/2+x,1/2+y,z
1/2-x,1/2+y,1/2-z
1/2-x,1/2-y,-z
1/2+x,1/2-y,1/2+z
loop_
_atom_site_type_symbol
_atom_site_label
_atom_site_fract_x
_atom_site_fract_y
_atom_site_fract_z
Si Si1 0.147936 0.522931 0.587889
Si Si2 0.500000 0.373876 0.750000
Si Si3 0.609159 0.609222 0.512805
Si Si4 0.147464 0.366879 0.207329
Si Si5 0.396799 0.226394 0.022401
Si Si6 0.825458 0.174226 0.737230
Si Si7 0.000000 0.328399 0.750000
Si Si8 0.634507 0.510586 0.676055
O O1 0.113651 0.499274 0.387427
O O2 0.139497 0.581031 0.600318
O O3 0.262665 0.514501 0.438995
O O4 0.416450 0.400732 0.718043
O O5 0.568427 0.340756 0.500958
O O6 0.500000 0.607984 0.750000
O O7 0.663010 0.658472 0.508503
O O8 0.656762 0.566654 0.591161
O O9 0.144922 0.320440 0.046151
O O10 0.241273 0.357376 0.237941
O O11 0.052451 0.360963 0.492353
O O12 0.500000 0.237783 0.750000
O O13 0.323532 0.270435 0.160376
O O14 0.423554 0.207180 0.238876
O O15 0.588464 0.494212 0.493930
#
# Coordination Sequence:
#
# PCOD9288616 Si02
#       8
#     8   4   8   8   8   8   4   8
#     4  10  23  42  72 104 140 184 240 304 369 433
#     4  10  24  38  62  98 150 182 234 286 342 422
#     4  10  24  38  61  99 143 193 236 288 349 422
#     4  11  25  44  73 105 138 185 238 297 363 431
#     4  10  23  44  71 102 145 183 230 291 363 431
#     4  11  22  41  70 105 140 188 234 285 352 434
#     4  10  26  46  70  96 146 178 232 302 366 428
#     4  10  22  39  62  92 136 188 244 297 357 417
#
# _framework density 25.234531
#
# number of rings (size 3 to 8) (size 9 to 14) (size 15 to 20)
#    0.000    1.714    0.714    2.143   13.000    2.286 
#    0.000    0.714    0.000    0.000    0.000    0.000 
#    0.000    0.000    0.000    0.000    0.000    0.000 
#
# Total GULP energy -156212.365479 kJ/mol
# GULP energy per Si atom -5579.013053 kJ/mol
# Density = 2.517710 g / cm^3
# Si number density = 25.234531 Si / 1000 Ang^3
#
#
#
# Elastic Constant Matrix: (Units=GPa)
#
#
# Indices 1 2 3 4 5 6 
#
# 1 68.4995 34.3577 27.3662 0.0000 17.3180 0.0000
# 2 34.3577 165.9379 58.6816 0.0000 13.1596 0.0000
# 3 27.3662 58.6816 120.6381 0.0000 29.2471 0.0000
# 4 0.0000 0.0000 0.0000 33.3451 0.0000 10.7973
# 5 17.3180 13.1596 29.2471 0.0000 39.9677 0.0000
# 6 0.0000 0.0000 0.0000 10.7973 0.0000 39.5625
#
#
#
# Elastic Compliance Matrix: (Units=1/GPa)
#
#
# Indices 1 2 3 4 5 6 
#
# 1 0.018022 -0.002807 -0.001281 0.000000 -0.005947 0.000000
# 2 -0.002807 0.007717 -0.003399 0.000000 0.001163 0.000000
# 3 -0.001281 -0.003399 0.011947 0.000000 -0.007068 0.000000
# 4 0.000000 0.000000 0.000000 0.032897 0.000000 -0.008978
# 5 -0.005947 0.001163 -0.007068 0.000000 0.032387 0.000000
# 6 0.000000 0.000000 0.000000 -0.008978 0.000000 0.027727
#
#
# Mechanical properties :
#
#
# Convention : Reuss Voigt Hill
#
# Bulk Modulus (GPa) = 44.02913 66.20962 55.11937
# Shear Modulus (GPa) = 32.62850 38.21974 35.42412
#
# Velocity S-wave (km/s) = 3.59975 3.89598 3.75079
# Velocity P-wave (km/s) = 5.89605 6.82150 6.37559
#
# Compressibility (1/GPa) = 0.02271223
#
# Stress axis : x y z
#
# Youngs Moduli (GPa) = 55.48822 129.57844 83.70450
#
# Poissons Ratio (x) = 0.36370 0.10723
# Poissons Ratio (y) = 0.15574 0.28452
# Poissons Ratio (z) = 0.07108 0.44044
#
# Static dielectric constant tensor:
#      x y z
#    x 2.045360 0.000000 0.119140 
#    y 0.000000 2.096470 0.000000 
#    z 0.119140 0.000000 2.275320 
# 
# From -- ./inp_files/11531.got.cif
#   From: 2010.05.17/outbox.cif.g08.bks.cpg/sg15_6_cif.got.tgz:11531.got - 2010.06.03 18:47:42.
