data_PCOD9288086
_publ_section_title
;
Structure prediction by ZEFSAII (Michael W. Deem and Ramdas Pophale) SiO2 
 PCOD9288086
Probable space group: C 2/C
;
_chemical_formula_sum "Si O2"
_cell_formula_units_Z 44
_cell_length_a 12.885733
_cell_length_b 24.614331
_cell_length_c 9.111681
_cell_angle_alpha 90.000000
_cell_angle_beta 131.831799
_cell_angle_gamma 90.000000
_cell_volume 2153.345462
_symmetry_space_group_name_H-M "C 2/C"
_symmetry_group_IT_number 15
_symmetry_cell_setting 'monoclinic'
loop_
_space_group_symop_operation_xyz
x,y,z
-x,y,1/2-z
-x,-y,-z
x,-y,1/2+z
1/2+x,1/2+y,z
1/2-x,1/2+y,1/2-z
1/2-x,1/2-y,-z
1/2+x,1/2-y,1/2+z
loop_
_atom_site_type_symbol
_atom_site_label
_atom_site_fract_x
_atom_site_fract_y
_atom_site_fract_z
Si Si1 0.025788 0.914768 0.448016
Si Si2 0.288256 0.482060 0.364172
Si Si3 0.111339 0.477539 0.464001
Si Si4 0.796978 0.717100 0.690282
Si Si5 0.998773 0.207777 0.926016
Si Si6 0.500000 0.872222 0.250000
O O1 0.058914 0.852623 0.511962
O O2 0.000000 0.918191 0.250000
O O3 0.888275 0.935179 0.401763
O O4 0.140962 0.959505 0.591834
O O5 0.251548 0.475303 0.498178
O O6 0.148373 0.486131 0.136648
O O7 0.000000 0.505128 0.250000
O O8 0.063979 0.414813 0.428655
O O9 0.750000 0.750000 0.500000
O O10 0.658324 0.707658 0.656906
O O11 0.880261 0.664327 0.709754
O O12 0.906928 0.750247 0.894214
O O13 0.000000 0.217452 0.750000
#
# Coordination Sequence:
#
# PCOD9288086 Si02
#       6
#     8   8   8   8   8   4
#     4  10  22  38  63  93 121 166 209 262 313 384
#     4  11  20  41  60  89 130 161 210 258 318 374
#     4  10  23  37  63  89 127 168 207 257 314 385
#     4  12  23  46  66  96 135 170 221 282 325 389
#     4  11  25  43  69  95 131 176 221 272 334 390
#     4  10  24  40  66  96 128 172 228 258 334 382
#
# _framework density 20.433322
#
# number of rings (size 3 to 8) (size 9 to 14) (size 15 to 20)
#    0.545    0.727    3.636    2.182    2.545    0.000 
#    3.273    0.000    0.000    0.000    0.000    0.000 
#    0.000    0.000    0.000    0.000    0.000    0.000 
#
# Total GULP energy -122735.174801 kJ/mol
# GULP energy per Si atom -5578.871582 kJ/mol
# Density = 2.038681 g / cm^3
# Si number density = 20.433322 Si / 1000 Ang^3
#
#
#
# Elastic Constant Matrix: (Units=GPa)
#
#
# Indices 1 2 3 4 5 6 
#
# 1 139.0500 29.9178 18.4334 0.0000 -12.3499 0.0000
# 2 29.9178 100.9905 36.6824 0.0000 -1.0434 0.0000
# 3 18.4334 36.6824 67.0660 0.0000 -3.4659 0.0000
# 4 0.0000 0.0000 0.0000 15.2883 0.0000 -0.3784
# 5 -12.3499 -1.0434 -3.4659 0.0000 34.7280 0.0000
# 6 0.0000 0.0000 0.0000 -0.3784 0.0000 30.2472
#
#
#
# Elastic Compliance Matrix: (Units=1/GPa)
#
#
# Indices 1 2 3 4 5 6 
#
# 1 0.007986 -0.001986 -0.000970 0.000000 0.002683 0.000000
# 2 -0.001986 0.012854 -0.006535 0.000000 -0.000972 0.000000
# 3 -0.000970 -0.006535 0.018821 0.000000 0.001337 0.000000
# 4 0.000000 0.000000 0.000000 0.065430 0.000000 0.000819
# 5 0.002683 -0.000972 0.001337 0.000000 0.029854 0.000000
# 6 0.000000 0.000000 0.000000 0.000819 0.000000 0.033071
#
#
# Mechanical properties :
#
#
# Convention : Reuss Voigt Hill
#
# Bulk Modulus (GPa) = 48.35872 53.01931 50.68901
# Shear Modulus (GPa) = 25.78787 30.85755 28.32271
#
# Velocity S-wave (km/s) = 3.55639 3.89029 3.72708
# Velocity P-wave (km/s) = 6.37039 6.79580 6.58653
#
# Compressibility (1/GPa) = 0.02067880
#
# Stress axis : x y z
#
# Youngs Moduli (GPa) = 125.22181 77.79812 53.13268
#
# Poissons Ratio (x) = 0.15448 0.05155
# Poissons Ratio (y) = 0.24864 0.34722
# Poissons Ratio (z) = 0.12149 0.50841
#
# Static dielectric constant tensor:
#      x y z
#    x 1.847340 0.000000 0.046180 
#    y 0.000000 1.695950 0.000000 
#    z 0.046180 0.000000 1.731320 
# 
# From -- ./inp_files/34504.got.cif
#   From: 2010.05.17/outbox.cif.g08.bks.cpg/sg15_18_cif.got.tgz:34504.got - 2010.06.03 18:47:42.
