data_PCOD9288213
_publ_section_title
;
Structure prediction by ZEFSAII (Michael W. Deem and Ramdas Pophale) SiO2 
 PCOD9288213
Probable space group: C 2/C
;
_chemical_formula_sum "Si O2"
_cell_formula_units_Z 56
_cell_length_a 16.475787
_cell_length_b 12.140901
_cell_length_c 14.721001
_cell_angle_alpha 90.000000
_cell_angle_beta 50.766891
_cell_angle_gamma 90.000000
_cell_volume 2280.868369
_symmetry_space_group_name_H-M "C 2/C"
_symmetry_group_IT_number 15
_symmetry_cell_setting 'monoclinic'
loop_
_space_group_symop_operation_xyz
x,y,z
-x,y,1/2-z
-x,-y,-z
x,-y,1/2+z
1/2+x,1/2+y,z
1/2-x,1/2+y,1/2-z
1/2-x,1/2-y,-z
1/2+x,1/2-y,1/2+z
loop_
_atom_site_type_symbol
_atom_site_label
_atom_site_fract_x
_atom_site_fract_y
_atom_site_fract_z
Si Si1 0.752988 0.367659 0.592384
Si Si2 0.376339 0.404236 0.515406
Si Si3 0.511665 0.146014 0.638222
Si Si4 0.053584 0.890475 0.624423
Si Si5 0.736051 0.611400 0.599019
Si Si6 0.962303 0.666747 0.476631
Si Si7 0.695333 0.184531 0.256488
O O1 0.867485 0.374022 0.469914
O O2 0.667671 0.348252 0.575733
O O3 0.724666 0.489992 0.647870
O O4 0.761286 0.289575 0.673284
O O5 0.432725 0.521486 0.464106
O O6 0.327003 0.384150 0.450015
O O7 0.448843 0.299918 0.487875
O O8 0.276637 0.399592 0.652587
O O9 0.500000 0.104734 0.750000
O O10 0.490884 0.278219 0.654448
O O11 0.454759 0.114873 0.583767
O O12 0.000000 0.946485 0.750000
O O13 0.860442 0.627858 0.494314
O O14 0.699435 0.707341 0.691521
O O15 0.076202 0.643983 0.353930
#
# Coordination Sequence:
#
# PCOD9288213 Si02
#       7
#     8   8   8   8   8   8   8
#     4  10  23  44  62  94 127 164 213 258 312 372
#     4  10  23  40  62  97 126 163 212 255 315 369
#     4  10  23  42  65  92 125 170 206 259 315 370
#     4  10  23  40  64  92 125 162 205 260 313 376
#     4  10  23  42  61  95 130 161 213 259 306 376
#     4  10  22  40  65  92 127 166 211 257 311 376
#     4  10  22  38  65  91 126 169 202 262 312 364
#
# _framework density 24.552053000000001
#
# number of rings (size 3 to 8) (size 9 to 14) (size 15 to 20)
#    0.000    2.000    0.000    2.143   12.000    6.857 
#   10.286    0.000    0.000    0.000    0.000    0.000 
#    0.000    0.000    0.000    0.000    0.000    0.000 
#
# Total GULP energy -156475.016519 kJ/mol
# GULP energy per Si atom -5588.393447 kJ/mol
# Density = 2.449617 g / cm^3
# Si number density = 24.552053 Si / 1000 Ang^3
#
#
#
# Elastic Constant Matrix: (Units=GPa)
#
#
# Indices 1 2 3 4 5 6 
#
# 1 56.8697 -3.7369 34.5580 0.0000 5.2904 0.0000
# 2 -3.7369 66.1827 15.0750 0.0000 6.6339 0.0000
# 3 34.5580 15.0750 128.6588 0.0000 14.0814 0.0000
# 4 0.0000 0.0000 0.0000 29.5035 0.0000 2.5369
# 5 5.2904 6.6339 14.0814 0.0000 41.7520 0.0000
# 6 0.0000 0.0000 0.0000 2.5369 0.0000 20.2087
#
#
#
# Elastic Compliance Matrix: (Units=1/GPa)
#
#
# Indices 1 2 3 4 5 6 
#
# 1 0.021489 0.002686 -0.005962 0.000000 -0.001139 0.000000
# 2 0.002686 0.016010 -0.002369 0.000000 -0.002085 0.000000
# 3 -0.005962 -0.002369 0.009893 0.000000 -0.002205 0.000000
# 4 0.000000 0.000000 0.000000 0.034264 0.000000 -0.004301
# 5 -0.001139 -0.002085 -0.002205 0.000000 0.025170 0.000000
# 6 0.000000 0.000000 0.000000 -0.004301 0.000000 0.050024
#
#
# Mechanical properties :
#
#
# Convention : Reuss Voigt Hill
#
# Bulk Modulus (GPa) = 27.70006 38.16706 32.93356
# Shear Modulus (GPa) = 27.75080 32.01383 29.88232
#
# Velocity S-wave (km/s) = 3.36562 3.61490 3.49248
# Velocity P-wave (km/s) = 5.13905 5.74477 5.45033
#
# Compressibility (1/GPa) = 0.03610100
#
# Stress axis : x y z
#
# Youngs Moduli (GPa) = 46.53441 62.46117 101.08352
#
# Poissons Ratio (x) = -0.16774 0.60267
# Poissons Ratio (y) = -0.12497 0.23947
# Poissons Ratio (z) = 0.27744 0.14797
#
# Static dielectric constant tensor:
#      x y z
#    x 1.967450 0.000000 0.011490 
#    y 0.000000 2.043750 0.000000 
#    z 0.011490 0.000000 1.948800 
# 
# From -- ./inp_files/162203.got.cif
#   From: 2010.05.17/outbox.cif.g08.bks.cpg/sg15_82_cif.got.tgz:162203.got - 2010.06.03 18:47:42.
