data_PCOD9288978
_publ_section_title
;
Structure prediction by ZEFSAII (Michael W. Deem and Ramdas Pophale) SiO2 
 PCOD9288978
Probable space group: C 2/C
;
_chemical_formula_sum "Si O2"
_cell_formula_units_Z 56
_cell_length_a 8.423282
_cell_length_b 24.599579
_cell_length_c 13.980184
_cell_angle_alpha 90.000000
_cell_angle_beta 107.198505
_cell_angle_gamma 90.000000
_cell_volume 2767.294315
_symmetry_space_group_name_H-M "C 2/C"
_symmetry_group_IT_number 15
_symmetry_cell_setting 'monoclinic'
loop_
_space_group_symop_operation_xyz
x,y,z
-x,y,1/2-z
-x,-y,-z
x,-y,1/2+z
1/2+x,1/2+y,z
1/2-x,1/2+y,1/2-z
1/2-x,1/2-y,-z
1/2+x,1/2-y,1/2+z
loop_
_atom_site_type_symbol
_atom_site_label
_atom_site_fract_x
_atom_site_fract_y
_atom_site_fract_z
Si Si1 0.646134 0.137493 0.458180
Si Si2 0.150104 0.036223 0.564134
Si Si3 0.890787 0.209044 0.135104
Si Si4 0.302691 0.061117 0.203061
Si Si5 0.731465 0.904508 0.594467
Si Si6 0.542781 0.367197 0.368593
Si Si7 0.518473 0.750235 0.552738
O O1 0.727495 0.109968 0.378431
O O2 0.460154 0.114537 0.437265
O O3 0.766383 0.121538 0.566853
O O4 0.611737 0.202119 0.444849
O O5 0.250501 0.053919 0.488509
O O6 0.076620 0.089413 0.601512
O O7 0.248041 0.996393 0.651632
O O8 0.000000 0.000000 0.500000
O O9 0.852959 0.146688 0.099537
O O10 0.704775 0.232332 0.117223
O O11 0.000000 0.212280 0.250000
O O12 0.972240 0.240414 0.060113
O O13 0.500000 0.060450 0.250000
O O14 0.226835 0.072476 0.293304
O O15 0.500000 0.369052 0.250000
O O16 0.516517 0.306682 0.403798
#
# Coordination Sequence:
#
# PCOD9288978 Si02
#       7
#     8   8   8   8   8   8   8
#     4  10  23  47  68  98 137 170 223 281 326 402
#     4  12  26  44  65  95 139 171 222 276 326 393
#     4  10  22  39  70 101 129 176 225 271 332 397
#     4  10  24  43  71 102 128 179 230 268 336 393
#     4  10  24  44  73  95 131 177 227 273 327 402
#     4  12  27  43  65 101 134 175 217 273 349 395
#     4  10  23  44  65 100 137 172 221 277 337 399
#
# _framework density 20.236373
#
# number of rings (size 3 to 8) (size 9 to 14) (size 15 to 20)
#    0.000    1.429    2.857    0.429    8.000    6.286 
#    0.000    0.714    0.000    0.000    0.000    0.000 
#    0.000    0.000    0.000    0.000    0.000    0.000 
#
# Total GULP energy -156486.617756 kJ/mol
# GULP energy per Si atom -5588.807777 kJ/mol
# Density = 2.019031 g / cm^3
# Si number density = 20.236373 Si / 1000 Ang^3
#
#
#
# Elastic Constant Matrix: (Units=GPa)
#
#
# Indices 1 2 3 4 5 6 
#
# 1 52.6941 38.3197 46.7404 0.0000 -5.6301 0.0000
# 2 38.3197 127.1113 57.0499 0.0000 -16.9253 0.0000
# 3 46.7404 57.0499 150.6440 0.0000 13.6837 0.0000
# 4 0.0000 0.0000 0.0000 34.1068 0.0000 1.3792
# 5 -5.6301 -16.9253 13.6837 0.0000 26.7043 0.0000
# 6 0.0000 0.0000 0.0000 1.3792 0.0000 25.1804
#
#
#
# Elastic Compliance Matrix: (Units=1/GPa)
#
#
# Indices 1 2 3 4 5 6 
#
# 1 0.030599 -0.004270 -0.008618 0.000000 0.008161 0.000000
# 2 -0.004270 0.012182 -0.004099 0.000000 0.008921 0.000000
# 3 -0.008618 -0.004099 0.011815 0.000000 -0.010469 0.000000
# 4 0.000000 0.000000 0.000000 0.029385 0.000000 -0.001610
# 5 0.008161 0.008921 -0.010469 0.000000 0.050187 0.000000
# 6 0.000000 0.000000 0.000000 -0.001610 0.000000 0.039802
#
#
# Mechanical properties :
#
#
# Convention : Reuss Voigt Hill
#
# Bulk Modulus (GPa) = 48.49119 68.29658 58.39389
# Shear Modulus (GPa) = 23.27560 29.75425 26.51492
#
# Velocity S-wave (km/s) = 3.39512 3.83865 3.62368
# Velocity P-wave (km/s) = 6.27563 7.31230 6.81371
#
# Compressibility (1/GPa) = 0.02062230
#
# Stress axis : x y z
#
# Youngs Moduli (GPa) = 32.68080 82.08941 84.63529
#
# Poissons Ratio (x) = 0.35051 0.72941
# Poissons Ratio (y) = 0.13954 0.34691
# Poissons Ratio (z) = 0.28165 0.33647
#
# Static dielectric constant tensor:
#      x y z
#    x 1.763510 0.000000 0.054440 
#    y 0.000000 1.599880 0.000000 
#    z 0.054440 0.000000 1.790860 
# 
# From -- ./inp_files/137476.got.cif
#   From: 2010.05.17/outbox.cif.g08.bks.cpg/sg15_69_cif.got.tgz:137476.got - 2010.06.03 18:47:42.
