data_PCOD9288377
_publ_section_title
;
Structure prediction by ZEFSAII (Michael W. Deem and Ramdas Pophale) SiO2 
 PCOD9288377
Probable space group: C 2/C
;
_chemical_formula_sum "Si O2"
_cell_formula_units_Z 44
_cell_length_a 9.899265
_cell_length_b 25.265930
_cell_length_c 12.200188
_cell_angle_alpha 90.000000
_cell_angle_beta 135.084692
_cell_angle_gamma 90.000000
_cell_volume 2154.501794
_symmetry_space_group_name_H-M "C 2/C"
_symmetry_group_IT_number 15
_symmetry_cell_setting 'monoclinic'
loop_
_space_group_symop_operation_xyz
x,y,z
-x,y,1/2-z
-x,-y,-z
x,-y,1/2+z
1/2+x,1/2+y,z
1/2-x,1/2+y,1/2-z
1/2-x,1/2-y,-z
1/2+x,1/2-y,1/2+z
loop_
_atom_site_type_symbol
_atom_site_label
_atom_site_fract_x
_atom_site_fract_y
_atom_site_fract_z
Si Si1 0.626890 0.324265 0.490088
Si Si2 0.201783 0.570057 0.821413
Si Si3 0.000000 0.744957 0.250000
Si Si4 0.795934 0.919916 0.137147
Si Si5 0.580312 0.047510 0.183904
Si Si6 0.041653 0.889986 0.651032
O O1 0.486580 0.284101 0.346448
O O2 0.677583 0.371930 0.433924
O O3 0.552958 0.346038 0.562902
O O4 0.818069 0.291594 0.625967
O O5 0.264214 0.597773 0.744093
O O6 0.162573 0.509235 0.765750
O O7 0.000000 0.591290 0.750000
O O8 0.368142 0.573399 0.006913
O O9 0.000000 0.949870 0.250000
O O10 0.609815 0.953633 0.998772
O O11 0.500000 0.073139 0.250000
O O12 0.754173 0.080382 0.234301
O O13 0.000000 0.871894 0.750000
#
# Coordination Sequence:
#
# PCOD9288377 Si02
#       6
#     8   8   4   8   8   8
#     4  11  21  42  66 100 122 165 212 262 336 383
#     4  11  24  39  58  95 131 174 224 266 312 361
#     4  10  22  38  72  98 124 150 214 272 320 414
#     4  12  21  40  67  90 129 168 216 266 319 381
#     4  11  22  39  61  93 129 174 225 265 305 368
#     4  12  24  43  64  92 133 174 214 265 327 380
#
# _framework density 20.422353999999999
#
# number of rings (size 3 to 8) (size 9 to 14) (size 15 to 20)
#    0.000    0.727    4.545    3.273    0.000    3.636 
#    0.000    0.909    0.000    4.364    0.000    0.000 
#    0.000    0.000    0.000    0.000    0.000    0.000 
#
# Total GULP energy -122897.073942 kJ/mol
# GULP energy per Si atom -5586.230634 kJ/mol
# Density = 2.037587 g / cm^3
# Si number density = 20.422354 Si / 1000 Ang^3
#
#
#
# Elastic Constant Matrix: (Units=GPa)
#
#
# Indices 1 2 3 4 5 6 
#
# 1 159.7687 30.4553 53.3647 0.0000 -18.3662 0.0000
# 2 30.4553 64.8684 29.6393 0.0000 -3.5384 0.0000
# 3 53.3647 29.6393 140.6641 0.0000 5.2117 0.0000
# 4 0.0000 0.0000 0.0000 30.7501 0.0000 -0.6417
# 5 -18.3662 -3.5384 5.2117 0.0000 54.0347 0.0000
# 6 0.0000 0.0000 0.0000 -0.6417 0.0000 19.0980
#
#
#
# Elastic Compliance Matrix: (Units=1/GPa)
#
#
# Indices 1 2 3 4 5 6 
#
# 1 0.007899 -0.002369 -0.002601 0.000000 0.002781 0.000000
# 2 -0.002369 0.017885 -0.002894 0.000000 0.000645 0.000000
# 3 -0.002601 -0.002894 0.008777 0.000000 -0.001920 0.000000
# 4 0.000000 0.000000 0.000000 0.032543 0.000000 0.001093
# 5 0.002781 0.000645 -0.001920 0.000000 0.019679 0.000000
# 6 0.000000 0.000000 0.000000 0.001093 0.000000 0.052398
#
#
# Mechanical properties :
#
#
# Convention : Reuss Voigt Hill
#
# Bulk Modulus (GPa) = 53.09360 65.80221 59.44790
# Shear Modulus (GPa) = 31.02016 37.56601 34.29309
#
# Velocity S-wave (km/s) = 3.90158 4.29354 4.10224
# Velocity P-wave (km/s) = 6.80813 7.54122 7.18403
#
# Compressibility (1/GPa) = 0.01883466
#
# Stress axis : x y z
#
# Youngs Moduli (GPa) = 126.60155 55.91177 113.93865
#
# Poissons Ratio (x) = 0.13243 0.29631
# Poissons Ratio (y) = 0.29986 0.32973
# Poissons Ratio (z) = 0.32924 0.16181
#
# Static dielectric constant tensor:
#      x y z
#    x 1.746910 0.000000 -0.002200 
#    y 0.000000 1.739070 0.000000 
#    z -0.002200 0.000000 1.792750 
# 
# From -- ./inp_files/25609.got.cif
#   From: 2010.05.17/outbox.cif.g08.bks.cpg/sg15_13_cif.got.tgz:25609.got - 2010.06.03 18:47:42.
