data_PCOD9288649
_publ_section_title
;
Structure prediction by ZEFSAII (Michael W. Deem and Ramdas Pophale) SiO2 
 PCOD9288649
Probable space group: C 2/C
;
_chemical_formula_sum "Si O2"
_cell_formula_units_Z 60
_cell_length_a 13.122314
_cell_length_b 14.205433
_cell_length_c 20.428942
_cell_angle_alpha 90.000000
_cell_angle_beta 37.345430
_cell_angle_gamma 90.000000
_cell_volume 2310.078538
_symmetry_space_group_name_H-M "C 2/C"
_symmetry_group_IT_number 15
_symmetry_cell_setting 'monoclinic'
loop_
_space_group_symop_operation_xyz
x,y,z
-x,y,1/2-z
-x,-y,-z
x,-y,1/2+z
1/2+x,1/2+y,z
1/2-x,1/2+y,1/2-z
1/2-x,1/2-y,-z
1/2+x,1/2-y,1/2+z
loop_
_atom_site_type_symbol
_atom_site_label
_atom_site_fract_x
_atom_site_fract_y
_atom_site_fract_z
Si Si1 0.946434 0.196496 0.173699
Si Si2 0.966387 0.498747 0.910743
Si Si3 0.000000 0.433363 0.250000
Si Si4 0.249835 0.866485 0.201015
Si Si5 0.354385 0.413335 0.034081
Si Si6 0.054676 0.903249 0.063371
Si Si7 0.595314 0.201321 0.997045
Si Si8 0.759842 0.346885 0.597078
O O1 0.841770 0.289624 0.203782
O O2 0.839032 0.142090 0.283741
O O3 0.128670 0.204852 0.115671
O O4 0.001957 0.136162 0.082392
O O5 0.933563 0.390621 0.944651
O O6 0.023684 0.510332 0.805459
O O7 0.131215 0.542611 0.862328
O O8 0.828343 0.566163 0.018349
O O9 0.831996 0.376768 0.354097
O O10 0.065443 0.899441 0.313740
O O11 0.253878 0.817319 0.129158
O O12 0.428170 0.424168 0.068219
O O13 0.318902 0.511815 0.013473
O O14 0.120572 0.798805 0.020153
O O15 0.427922 0.206659 0.035918
#
# Coordination Sequence:
#
# PCOD9288649 Si02
#       8
#     8   8   4   8   8   8   8   8
#     4  11  22  37  67 102 144 176 223 280 350 420
#     4  11  25  41  66  95 139 182 237 279 348 410
#     4  12  24  48  72  96 136 192 232 300 348 402
#     4  11  22  38  66 100 141 177 217 281 352 421
#     4  11  25  43  67  98 142 182 239 279 350 412
#     4  11  24  42  67 101 135 187 228 288 346 418
#     4  11  24  42  63 100 137 184 230 281 342 418
#     4  10  22  39  63 103 144 177 215 281 347 420
#
# _framework density 25.973143
#
# number of rings (size 3 to 8) (size 9 to 14) (size 15 to 20)
#    0.000    1.067    5.333    1.600    3.733    5.333 
#    0.000    0.667    0.000    0.000    0.000    0.000 
#    0.000    0.000    0.000    0.000    0.000    0.000 
#
# Total GULP energy -167604.786798 kJ/mol
# GULP energy per Si atom -5586.826227 kJ/mol
# Density = 2.591403 g / cm^3
# Si number density = 25.973143 Si / 1000 Ang^3
#
#
#
# Elastic Constant Matrix: (Units=GPa)
#
#
# Indices 1 2 3 4 5 6 
#
# 1 45.8121 0.9382 2.4557 -0.0001 2.4353 0.0000
# 2 0.9382 152.7973 46.0258 -0.0002 8.8475 0.0001
# 3 2.4557 46.0258 188.7924 -0.0011 16.5445 0.0003
# 4 -0.0001 -0.0002 -0.0011 19.2552 0.0004 6.7458
# 5 2.4353 8.8475 16.5445 0.0004 33.0919 -0.0001
# 6 0.0000 0.0001 0.0003 6.7458 -0.0001 18.6306
#
#
#
# Elastic Compliance Matrix: (Units=1/GPa)
#
#
# Indices 1 2 3 4 5 6 
#
# 1 0.021918 0.000000 -0.000150 0.000000 -0.001538 0.000000
# 2 0.000000 0.007100 -0.001636 0.000000 -0.001080 0.000000
# 3 -0.000150 -0.001636 0.005918 0.000000 -0.002510 0.000000
# 4 0.000000 0.000000 0.000000 0.059479 -0.000001 -0.021536
# 5 -0.001538 -0.001080 -0.002510 -0.000001 0.031876 0.000001
# 6 0.000000 0.000000 0.000000 -0.021536 0.000001 0.061473
#
#
# Mechanical properties :
#
#
# Convention : Reuss Voigt Hill
#
# Bulk Modulus (GPa) = 31.88555 54.02681 42.95618
# Shear Modulus (GPa) = 24.77808 36.72768 30.75288
#
# Velocity S-wave (km/s) = 3.09202 3.76448 3.44470
# Velocity P-wave (km/s) = 5.00504 6.30407 5.69174
#
# Compressibility (1/GPa) = 0.03136217
#
# Stress axis : x y z
#
# Youngs Moduli (GPa) = 45.62443 140.84424 168.98618
#
# Poissons Ratio (x) = 0.00004 0.02539
# Poissons Ratio (y) = 0.00001 0.27651
# Poissons Ratio (z) = 0.00686 0.23046
#
# Static dielectric constant tensor:
#      x y z
#    x 2.178060 0.000000 -0.038640 
#    y 0.000000 2.120660 0.000000 
#    z -0.038640 0.000000 1.981580 
# 
# From -- ./inp_files/277562.got.cif
#   From: 2010.05.17/outbox.cif.g08.bks.cpg/sg15_139_cif.got.tgz:277562.got - 2010.06.03 18:47:42.
