data_PCOD9288594
_publ_section_title
;
Structure prediction by ZEFSAII (Michael W. Deem and Ramdas Pophale) SiO2 
 PCOD9288594
Probable space group: C 2/C
;
_chemical_formula_sum "Si O2"
_cell_formula_units_Z 56
_cell_length_a 8.211776
_cell_length_b 32.838708
_cell_length_c 16.995239
_cell_angle_alpha 90.000000
_cell_angle_beta 32.932828
_cell_angle_gamma 90.000000
_cell_volume 2491.576121
_symmetry_space_group_name_H-M "C 2/C"
_symmetry_group_IT_number 15
_symmetry_cell_setting 'monoclinic'
loop_
_space_group_symop_operation_xyz
x,y,z
-x,y,1/2-z
-x,-y,-z
x,-y,1/2+z
1/2+x,1/2+y,z
1/2-x,1/2+y,1/2-z
1/2-x,1/2-y,-z
1/2+x,1/2-y,1/2+z
loop_
_atom_site_type_symbol
_atom_site_label
_atom_site_fract_x
_atom_site_fract_y
_atom_site_fract_z
Si Si1 0.452260 0.252140 0.676154
Si Si2 0.858903 0.620737 0.944386
Si Si3 0.784527 0.162533 0.184798
Si Si4 0.149475 0.540892 0.068498
Si Si5 0.491962 0.461631 0.598292
Si Si6 0.968403 0.373001 0.946432
Si Si7 0.902238 0.168189 0.698125
O O1 0.500000 0.260153 0.750000
O O2 0.750000 0.250000 0.500000
O O3 0.277740 0.290692 0.711712
O O4 0.265448 0.210480 0.747318
O O5 0.599059 0.650657 0.019123
O O6 0.722924 0.575891 0.001913
O O7 0.929825 0.631967 0.005891
O O8 0.168003 0.631668 0.776053
O O9 0.500000 0.150458 0.250000
O O10 0.747266 0.134598 0.276916
O O11 0.322708 0.541905 0.082270
O O12 0.176843 0.582923 0.010007
O O13 0.791950 0.537402 0.227989
O O14 0.307538 0.501540 0.967570
O O15 0.715097 0.339590 0.028173
O O16 0.000000 0.166757 0.750000
#
# Coordination Sequence:
#
# PCOD9288594 Si02
#       7
#     8   8   8   8   8   8   8
#     4  12  27  46  73 103 140 184 233 286 350 413
#     4  11  22  43  66  95 131 174 220 280 335 404
#     4  12  25  43  70  96 132 176 225 275 345 408
#     4  10  22  40  60  93 128 173 219 269 336 400
#     4  10  22  39  62  89 131 171 219 272 330 408
#     4  11  24  41  68  97 129 176 224 280 335 407
#     4  10  25  45  67  96 137 175 226 277 341 405
#
# _framework density 22.475733000000002
#
# number of rings (size 3 to 8) (size 9 to 14) (size 15 to 20)
#    0.000    1.143    2.857    2.571    6.000    2.286 
#    0.000    0.000    0.000    0.000    0.000    0.000 
#    0.000    0.000    0.000    0.000    0.000    0.000 
#
# Total GULP energy -156400.565979 kJ/mol
# GULP energy per Si atom -5585.734499 kJ/mol
# Density = 2.242458 g / cm^3
# Si number density = 22.475733 Si / 1000 Ang^3
#
#
#
# Elastic Constant Matrix: (Units=GPa)
#
#
# Indices 1 2 3 4 5 6 
#
# 1 40.6514 -11.4969 5.2345 0.0000 -6.4431 0.0000
# 2 -11.4969 96.0867 24.5340 0.0000 -28.4994 0.0000
# 3 5.2345 24.5340 78.3441 0.0000 -13.9549 0.0000
# 4 0.0000 0.0000 0.0000 39.5872 0.0000 -11.5472
# 5 -6.4431 -28.4994 -13.9549 0.0000 25.5041 0.0000
# 6 0.0000 0.0000 0.0000 -11.5472 0.0000 22.0099
#
#
#
# Elastic Compliance Matrix: (Units=1/GPa)
#
#
# Indices 1 2 3 4 5 6 
#
# 1 0.030017 0.008995 -0.001863 0.000000 0.016616 0.000000
# 2 0.008995 0.018541 -0.002562 0.000000 0.021589 0.000000
# 3 -0.001863 -0.002562 0.014512 0.000000 0.004607 0.000000
# 4 0.000000 0.000000 0.000000 0.029825 0.000000 0.015647
# 5 0.016616 0.021589 0.004607 0.000000 0.070053 0.000000
# 6 0.000000 0.000000 0.000000 0.015647 0.000000 0.053643
#
#
# Mechanical properties :
#
#
# Convention : Reuss Voigt Hill
#
# Bulk Modulus (GPa) = 13.84828 27.95840 20.90334
# Shear Modulus (GPa) = 21.59649 30.54094 26.06871
#
# Velocity S-wave (km/s) = 3.10317 3.69024 3.40937
# Velocity P-wave (km/s) = 4.36055 5.53386 4.98186
#
# Compressibility (1/GPa) = 0.07221112
#
# Stress axis : x y z
#
# Youngs Moduli (GPa) = 33.31460 53.93418 68.91085
#
# Poissons Ratio (x) = -0.48516 0.12837
# Poissons Ratio (y) = -0.29968 0.17653
# Poissons Ratio (z) = 0.06206 0.13816
#
# Static dielectric constant tensor:
#      x y z
#    x 1.838650 0.000000 0.016450 
#    y 0.000000 1.819470 0.000000 
#    z 0.016450 0.000000 1.818800 
# 
# From -- ./inp_files/234924.got.cif
#   From: 2010.05.17/outbox.cif.g08.bks.cpg/sg15_118_cif.got.tgz:234924.got - 2010.06.03 18:47:42.
