data_PCOD9288726
_publ_section_title
;
Structure prediction by ZEFSAII (Michael W. Deem and Ramdas Pophale) SiO2 
 PCOD9288726
Probable space group: C 2/C
;
_chemical_formula_sum "Si O2"
_cell_formula_units_Z 56
_cell_length_a 7.502236
_cell_length_b 25.157950
_cell_length_c 12.982759
_cell_angle_alpha 90.000000
_cell_angle_beta 106.838738
_cell_angle_gamma 90.000000
_cell_volume 2345.314620
_symmetry_space_group_name_H-M "C 2/C"
_symmetry_group_IT_number 15
_symmetry_cell_setting 'monoclinic'
loop_
_space_group_symop_operation_xyz
x,y,z
-x,y,1/2-z
-x,-y,-z
x,-y,1/2+z
1/2+x,1/2+y,z
1/2-x,1/2+y,1/2-z
1/2-x,1/2-y,-z
1/2+x,1/2-y,1/2+z
loop_
_atom_site_type_symbol
_atom_site_label
_atom_site_fract_x
_atom_site_fract_y
_atom_site_fract_z
Si Si1 0.381377 0.089111 0.512398
Si Si2 0.534270 0.435610 0.637679
Si Si3 0.594201 0.680325 0.150460
Si Si4 0.218740 0.206303 0.786270
Si Si5 0.266340 0.306634 0.452241
Si Si6 0.222390 0.909250 0.389182
Si Si7 0.175056 0.952535 0.155858
O O1 0.366374 0.152763 0.510548
O O2 0.591302 0.074261 0.517778
O O3 0.347770 0.071701 0.624236
O O4 0.183238 0.070439 0.433202
O O5 0.500000 0.448606 0.750000
O O6 0.658375 0.381501 0.656666
O O7 0.639329 0.487381 0.615266
O O8 0.500000 0.681906 0.250000
O O9 0.695183 0.737464 0.163567
O O10 0.470827 0.678678 0.025911
O O11 0.271370 0.194793 0.675374
O O12 0.244508 0.152250 0.856310
O O13 0.000000 0.215764 0.750000
O O14 0.250000 0.250000 0.500000
O O15 0.211362 0.943520 0.282249
O O16 0.018115 0.920481 0.402001
#
# Coordination Sequence:
#
# PCOD9288726 Si02
#       7
#     8   8   8   8   8   8   8
#     4  11  23  38  70  95 122 176 228 255 333 399
#     4  10  22  43  63  88 134 175 214 273 324 392
#     4  10  22  39  64  87 124 179 218 257 328 399
#     4  12  23  41  64  96 137 165 217 282 335 383
#     4  11  21  37  62  95 123 170 218 268 315 395
#     4  11  22  39  66 101 126 164 214 280 329 380
#     4  11  21  43  65  96 136 161 212 287 329 375
#
# _framework density 23.877393000000001
#
# number of rings (size 3 to 8) (size 9 to 14) (size 15 to 20)
#    0.000    1.143    5.714    1.714    0.000    1.143 
#    0.000    4.286    0.000    0.000    0.000    0.000 
#    0.000    0.000    0.000    0.000    0.000    0.000 
#
# Total GULP energy -156066.583361 kJ/mol
# GULP energy per Si atom -5573.806549 kJ/mol
# Density = 2.382305 g / cm^3
# Si number density = 23.877393 Si / 1000 Ang^3
#
#
#
# Elastic Constant Matrix: (Units=GPa)
#
#
# Indices 1 2 3 4 5 6 
#
# 1 72.0463 20.6222 25.6246 0.0000 19.2746 0.0000
# 2 20.6222 186.0497 16.4552 0.0000 10.1831 0.0000
# 3 25.6246 16.4552 71.3002 0.0000 19.4132 0.0000
# 4 0.0000 0.0000 0.0000 27.0879 0.0000 4.0237
# 5 19.2746 10.1831 19.4132 0.0000 33.4374 0.0000
# 6 0.0000 0.0000 0.0000 4.0237 0.0000 22.3710
#
#
#
# Elastic Compliance Matrix: (Units=1/GPa)
#
#
# Indices 1 2 3 4 5 6 
#
# 1 0.017655 -0.001191 -0.004036 0.000000 -0.007471 0.000000
# 2 -0.001191 0.005602 -0.000698 0.000000 -0.000615 0.000000
# 3 -0.004036 -0.000698 0.017752 0.000000 -0.007767 0.000000
# 4 0.000000 0.000000 0.000000 0.037930 0.000000 -0.006822
# 5 -0.007471 -0.000615 -0.007767 0.000000 0.038910 0.000000
# 6 0.000000 0.000000 0.000000 -0.006822 0.000000 0.045928
#
#
# Mechanical properties :
#
#
# Convention : Reuss Voigt Hill
#
# Bulk Modulus (GPa) = 34.29392 50.53337 42.41364
# Shear Modulus (GPa) = 26.97656 34.35887 30.66772
#
# Velocity S-wave (km/s) = 3.36489 3.79749 3.58772
# Velocity P-wave (km/s) = 5.43050 6.35905 5.91303
#
# Compressibility (1/GPa) = 0.02915969
#
# Stress axis : x y z
#
# Youngs Moduli (GPa) = 56.64080 178.49944 56.33319
#
# Poissons Ratio (x) = 0.21260 0.22736
# Poissons Ratio (y) = 0.06746 0.03930
# Poissons Ratio (z) = 0.22860 0.12451
#
# Static dielectric constant tensor:
#      x y z
#    x 1.978470 0.000000 0.060470 
#    y 0.000000 2.083120 0.000000 
#    z 0.060470 0.000000 1.984830 
# 
# From -- ./inp_files/138686.got.cif
#   From: 2010.05.17/outbox.cif.g08.bks.cpg/sg15_70_cif.got.tgz:138686.got - 2010.06.03 18:47:42.
