data_PCOD9288142
_publ_section_title
;
Structure prediction by ZEFSAII (Michael W. Deem and Ramdas Pophale) SiO2 
 PCOD9288142
Probable space group: C 2/C
;
_chemical_formula_sum "Si O2"
_cell_formula_units_Z 28
_cell_length_a 13.925380
_cell_length_b 8.181424
_cell_length_c 12.955516
_cell_angle_alpha 90.000000
_cell_angle_beta 55.000070
_cell_angle_gamma 90.000000
_cell_volume 1209.081459
_symmetry_space_group_name_H-M "C 2/C"
_symmetry_group_IT_number 15
_symmetry_cell_setting 'monoclinic'
loop_
_space_group_symop_operation_xyz
x,y,z
-x,y,1/2-z
-x,-y,-z
x,-y,1/2+z
1/2+x,1/2+y,z
1/2-x,1/2+y,1/2-z
1/2-x,1/2-y,-z
1/2+x,1/2-y,1/2+z
loop_
_atom_site_type_symbol
_atom_site_label
_atom_site_fract_x
_atom_site_fract_y
_atom_site_fract_z
Si Si1 0.867054 0.037507 0.556495
Si Si2 0.280512 0.062441 0.513836
Si Si3 0.000000 0.441704 0.750000
Si Si4 0.820473 0.624200 0.189021
O O1 0.823104 0.212527 0.621620
O O2 0.837063 0.024615 0.453848
O O3 0.789734 0.908058 0.669434
O O4 0.000000 0.000000 0.500000
O O5 0.250000 0.250000 0.500000
O O6 0.386712 0.987289 0.379025
O O7 0.315708 0.024003 0.609029
O O8 0.066516 0.359552 0.805847
#
# Coordination Sequence:
#
# PCOD9288142 Si02
#       4
#     8   8   4   8
#     4  11  25  42  66  99 133 176 224 280 339 405
#     4  11  23  41  65  96 132 176 224 277 336 401
#     4  10  22  38  64  92 124 172 222 274 328 388
#     4  11  23  43  65  96 133 174 225 280 339 401
#
# _framework density 23.158076000000001
#
# number of rings (size 3 to 8) (size 9 to 14) (size 15 to 20)
#    0.000    1.143    0.000    6.857    0.000    5.714 
#    0.000    0.000    0.000    1.714    0.000    0.000 
#    0.000    0.000    0.000    0.000    0.000    0.000 
#
# Total GULP energy -77993.510748 kJ/mol
# GULP energy per Si atom -5570.965053 kJ/mol
# Density = 2.310537 g / cm^3
# Si number density = 23.158076 Si / 1000 Ang^3
#
#
#
# Elastic Constant Matrix: (Units=GPa)
#
#
# Indices 1 2 3 4 5 6 
#
# 1 161.2324 38.6908 28.0630 0.0000 6.2010 0.0000
# 2 38.6908 120.6363 8.9941 0.0000 10.9163 0.0000
# 3 28.0630 8.9941 78.5260 0.0000 1.9658 0.0000
# 4 0.0000 0.0000 0.0000 26.2788 0.0000 10.6756
# 5 6.2010 10.9163 1.9658 0.0000 57.5654 0.0000
# 6 0.0000 0.0000 0.0000 10.6756 0.0000 23.6797
#
#
#
# Elastic Compliance Matrix: (Units=1/GPa)
#
#
# Indices 1 2 3 4 5 6 
#
# 1 0.007113 -0.002084 -0.002296 0.000000 -0.000293 0.000000
# 2 -0.002084 0.009112 -0.000262 0.000000 -0.001495 0.000000
# 3 -0.002296 -0.000262 0.013589 0.000000 -0.000167 0.000000
# 4 0.000000 0.000000 0.000000 0.046585 0.000000 -0.021002
# 5 -0.000293 -0.001495 -0.000167 0.000000 0.017692 0.000000
# 6 0.000000 0.000000 0.000000 -0.021002 0.000000 0.051699
#
#
# Mechanical properties :
#
#
# Convention : Reuss Voigt Hill
#
# Bulk Modulus (GPa) = 48.70412 56.87672 52.79042
# Shear Modulus (GPa) = 30.87985 40.48125 35.68055
#
# Velocity S-wave (km/s) = 3.65559 4.18549 3.92948
# Velocity P-wave (km/s) = 6.23655 6.92613 6.59037
#
# Compressibility (1/GPa) = 0.02053215
#
# Stress axis : x y z
#
# Youngs Moduli (GPa) = 140.58490 109.74034 73.58716
#
# Poissons Ratio (x) = 0.22866 0.16896
# Poissons Ratio (y) = 0.29293 0.01925
# Poissons Ratio (z) = 0.32279 0.02871
#
# Static dielectric constant tensor:
#      x y z
#    x 1.941290 0.000000 0.060120 
#    y 0.000000 1.959490 0.000000 
#    z 0.060120 0.000000 1.892200 
# 
# From -- ./inp_files/93136.got.cif
#   From: 2010.05.17/outbox.cif.g08.bks.cpg/sg15_47_cif.got.tgz:93136.got - 2010.06.03 18:47:42.
