data_PCOD9288914
_publ_section_title
;
Structure prediction by ZEFSAII (Michael W. Deem and Ramdas Pophale) SiO2 
 PCOD9288914
Probable space group: C 2/C
;
_chemical_formula_sum "Si O2"
_cell_formula_units_Z 64
_cell_length_a 19.495876
_cell_length_b 7.493572
_cell_length_c 33.037754
_cell_angle_alpha 90.000000
_cell_angle_beta 31.887800
_cell_angle_gamma 90.000000
_cell_volume 2549.692856
_symmetry_space_group_name_H-M "C 2/C"
_symmetry_group_IT_number 15
_symmetry_cell_setting 'monoclinic'
loop_
_space_group_symop_operation_xyz
x,y,z
-x,y,1/2-z
-x,-y,-z
x,-y,1/2+z
1/2+x,1/2+y,z
1/2-x,1/2+y,1/2-z
1/2-x,1/2-y,-z
1/2+x,1/2-y,1/2+z
loop_
_atom_site_type_symbol
_atom_site_label
_atom_site_fract_x
_atom_site_fract_y
_atom_site_fract_z
Si Si1 0.420041 0.918830 0.187525
Si Si2 0.134792 0.033085 0.705964
Si Si3 0.108692 0.366680 0.464462
Si Si4 0.217024 0.895068 0.459523
Si Si5 0.184655 0.395998 0.175901
Si Si6 0.191892 0.518885 0.507709
Si Si7 0.644653 0.496590 0.791139
Si Si8 0.038112 0.039575 0.927308
O O1 0.414135 0.955075 0.239017
O O2 0.552536 0.963376 0.099135
O O3 0.400012 0.707153 0.191007
O O4 0.296214 0.004914 0.227193
O O5 0.171954 0.821297 0.682965
O O6 0.118566 0.081192 0.760958
O O7 0.000000 0.063988 0.750000
O O8 0.262626 0.135124 0.627026
O O9 0.165053 0.414178 0.480433
O O10 0.036357 0.183892 0.509088
O O11 0.000000 0.500000 0.500000
O O12 0.304453 0.942728 0.377081
O O13 0.254166 0.701646 0.458205
O O14 0.223376 0.027175 0.494979
O O15 0.065447 0.879697 0.523146
O O16 0.319894 0.469098 0.125508
O O17 0.569227 0.589903 0.865372
#
# Coordination Sequence:
#
# PCOD9288914 Si02
#       8
#     8   8   8   8   8   8   8   8
#     4  10  22  40  62  96 130 170 226 275 340 397
#     4  11  24  41  69  95 133 175 229 276 341 417
#     4  12  24  45  70  99 134 184 232 274 344 422
#     4  11  23  41  62  98 132 168 224 275 336 398
#     4  10  22  39  67  94 124 178 219 276 336 397
#     4  11  24  38  67  95 133 177 220 278 334 399
#     4  10  23  41  66  95 127 178 220 282 339 405
#     4  11  23  43  68  96 134 173 229 279 340 404
#
# _framework density 25.101064000000001
#
# number of rings (size 3 to 8) (size 9 to 14) (size 15 to 20)
#    0.000    1.250    3.750    1.125    8.750    0.500 
#    4.500    0.000    0.000    0.000    0.000    0.000 
#    0.000    0.000    0.000    0.000    0.000    0.000 
#
# Total GULP energy -178887.285328 kJ/mol
# GULP energy per Si atom -5590.227667 kJ/mol
# Density = 2.504393 g / cm^3
# Si number density = 25.101064 Si / 1000 Ang^3
#
#
#
# Elastic Constant Matrix: (Units=GPa)
#
#
# Indices 1 2 3 4 5 6 
#
# 1 174.5328 10.4881 81.0300 0.0309 22.9769 0.1216
# 2 10.4881 36.1358 7.9589 0.0569 3.2357 -0.1261
# 3 81.0300 7.9589 126.7275 -0.0329 14.4525 0.0272
# 4 0.0309 0.0569 -0.0329 18.8356 0.0131 9.6884
# 5 22.9769 3.2357 14.4525 0.0131 65.9836 0.0240
# 6 0.1216 -0.1261 0.0272 9.6884 0.0240 46.3767
#
#
#
# Elastic Compliance Matrix: (Units=1/GPa)
#
#
# Indices 1 2 3 4 5 6 
#
# 1 0.008395 -0.001158 -0.005096 -0.000008 -0.001751 -0.000020
# 2 -0.001158 0.028288 -0.000948 -0.000142 -0.000776 0.000110
# 3 -0.005096 -0.000948 0.011283 0.000033 -0.000650 -0.000002
# 4 -0.000008 -0.000142 0.000033 0.059483 -0.000005 -0.012427
# 5 -0.001751 -0.000776 -0.000650 -0.000005 0.015945 -0.000004
# 6 -0.000020 0.000110 -0.000002 -0.012427 -0.000004 0.024159
#
#
# Mechanical properties :
#
#
# Convention : Reuss Voigt Hill
#
# Bulk Modulus (GPa) = 29.79380 59.59444 44.69412
# Shear Modulus (GPa) = 28.87759 42.10047 35.48903
#
# Velocity S-wave (km/s) = 3.39551 4.09985 3.76419
# Velocity P-wave (km/s) = 5.22187 6.79743 6.06107
#
# Compressibility (1/GPa) = 0.03356403
#
# Stress axis : x y z
#
# Youngs Moduli (GPa) = 119.11301 35.35035 88.62999
#
# Poissons Ratio (x) = 0.04092 0.45163
# Poissons Ratio (y) = 0.13789 0.08401
# Poissons Ratio (z) = 0.60696 0.03351
#
# Static dielectric constant tensor:
#      x y z
#    x 2.090430 -0.000050 0.003760 
#    y -0.000050 2.073340 0.000000 
#    z 0.003760 0.000000 1.930810 
# 
# From -- ./inp_files/315678.got.cif
#   From: 2010.05.17/outbox.cif.g08.bks.cpg/sg15_158_cif.got.tgz:315678.got - 2010.06.03 18:47:42.
