data_PCOD9288678
_publ_section_title
;
Structure prediction by ZEFSAII (Michael W. Deem and Ramdas Pophale) SiO2 
 PCOD9288678
Probable space group: C 2/C
;
_chemical_formula_sum "Si O2"
_cell_formula_units_Z 48
_cell_length_a 29.555194
_cell_length_b 7.824225
_cell_length_c 14.836333
_cell_angle_alpha 90.000000
_cell_angle_beta 145.191972
_cell_angle_gamma 90.000000
_cell_volume 1958.427304
_symmetry_space_group_name_H-M "C 2/C"
_symmetry_group_IT_number 15
_symmetry_cell_setting 'monoclinic'
loop_
_space_group_symop_operation_xyz
x,y,z
-x,y,1/2-z
-x,-y,-z
x,-y,1/2+z
1/2+x,1/2+y,z
1/2-x,1/2+y,1/2-z
1/2-x,1/2-y,-z
1/2+x,1/2-y,1/2+z
loop_
_atom_site_type_symbol
_atom_site_label
_atom_site_fract_x
_atom_site_fract_y
_atom_site_fract_z
Si Si1 0.849369 0.895739 0.632874
Si Si2 0.107386 0.378217 0.143715
Si Si3 0.206949 0.677340 0.627684
Si Si4 0.495004 0.609140 0.901076
Si Si5 0.193584 0.585364 0.415466
Si Si6 0.144465 0.950670 0.047871
O O1 0.877785 0.765823 0.755479
O O2 0.858744 0.832835 0.545519
O O3 0.759297 0.939559 0.506661
O O4 0.906002 0.065692 0.725312
O O5 0.167627 0.373418 0.158399
O O6 0.126585 0.550319 0.230964
O O7 0.026159 0.302603 0.967109
O O8 0.167994 0.586979 0.477824
O O9 0.300269 0.633011 0.785578
O O10 0.192446 0.878925 0.598322
O O11 0.500000 0.500000 0.000000
O O12 0.559596 0.516940 0.942094
O O13 0.250000 0.750000 0.500000
#
# Coordination Sequence:
#
# PCOD9288678 Si02
#       6
#     8   8   8   8   8   8
#     4  11  21  39  64  94 126 170 218 273 334 401
#     4  10  22  39  63  92 129 173 215 277 328 393
#     4  11  21  37  57  91 127 165 211 269 333 389
#     4   9  20  39  62  91 125 166 218 269 330 397
#     4  12  22  37  61  95 131 168 223 272 328 400
#     4  11  22  36  62  93 127 166 215 269 333 403
#
# _framework density 24.509461999999999
#
# number of rings (size 3 to 8) (size 9 to 14) (size 15 to 20)
#    0.000    1.333    3.333    4.000    2.333    0.000 
#    0.000    0.833    0.000    6.000    0.000    0.000 
#    0.000    0.000    0.000    0.000    0.000    0.000 
#
# Total GULP energy -133999.877689 kJ/mol
# GULP energy per Si atom -5583.328237 kJ/mol
# Density = 2.445368 g / cm^3
# Si number density = 24.509462 Si / 1000 Ang^3
#
#
#
# Elastic Constant Matrix: (Units=GPa)
#
#
# Indices 1 2 3 4 5 6 
#
# 1 129.7753 37.7403 40.8937 0.0000 -16.7518 0.0000
# 2 37.7403 82.7422 25.7383 0.0000 4.4441 0.0000
# 3 40.8937 25.7383 77.5187 0.0000 3.0650 0.0000
# 4 0.0000 0.0000 0.0000 56.0946 0.0000 -3.9546
# 5 -16.7518 4.4441 3.0650 0.0000 57.4549 0.0000
# 6 0.0000 0.0000 0.0000 -3.9546 0.0000 29.4253
#
#
#
# Elastic Compliance Matrix: (Units=1/GPa)
#
#
# Indices 1 2 3 4 5 6 
#
# 1 0.010673 -0.003644 -0.004564 0.000000 0.003637 0.000000
# 2 -0.003644 0.014759 -0.002897 0.000000 -0.002049 0.000000
# 3 -0.004564 -0.002897 0.016348 0.000000 -0.001979 0.000000
# 4 0.000000 0.000000 0.000000 0.017998 0.000000 0.002419
# 5 0.003637 -0.002049 -0.001979 0.000000 0.018730 0.000000
# 6 0.000000 0.000000 0.000000 0.002419 0.000000 0.034309
#
#
# Mechanical properties :
#
#
# Convention : Reuss Voigt Hill
#
# Bulk Modulus (GPa) = 51.09951 55.42007 53.25979
# Shear Modulus (GPa) = 35.32310 40.97256 38.14783
#
# Velocity S-wave (km/s) = 3.80044 4.09308 3.94947
# Velocity P-wave (km/s) = 6.33655 6.70810 6.52497
#
# Compressibility (1/GPa) = 0.01956966
#
# Stress axis : x y z
#
# Youngs Moduli (GPa) = 93.69391 67.75533 61.16899
#
# Poissons Ratio (x) = 0.24688 0.27920
# Poissons Ratio (y) = 0.34139 0.17722
# Poissons Ratio (z) = 0.42766 0.19630
#
# Static dielectric constant tensor:
#      x y z
#    x 1.953940 0.000000 -0.023220 
#    y 0.000000 2.032290 0.000000 
#    z -0.023220 0.000000 2.015710 
# 
# From -- ./inp_files/180915.got.cif
#   From: 2010.05.17/outbox.cif.g08.bks.cpg/sg15_91_cif.got.tgz:180915.got - 2010.06.03 18:47:42.
