data_PCOD9288180
_publ_section_title
;
Structure prediction by ZEFSAII (Michael W. Deem and Ramdas Pophale) SiO2 
 PCOD9288180
Probable space group: C 2/C
;
_chemical_formula_sum "Si O2"
_cell_formula_units_Z 44
_cell_length_a 11.516949
_cell_length_b 11.236994
_cell_length_c 26.837382
_cell_angle_alpha 90.000000
_cell_angle_beta 146.046174
_cell_angle_gamma 90.000000
_cell_volume 1939.858512
_symmetry_space_group_name_H-M "C 2/C"
_symmetry_group_IT_number 15
_symmetry_cell_setting 'monoclinic'
loop_
_space_group_symop_operation_xyz
x,y,z
-x,y,1/2-z
-x,-y,-z
x,-y,1/2+z
1/2+x,1/2+y,z
1/2-x,1/2+y,1/2-z
1/2-x,1/2-y,-z
1/2+x,1/2-y,1/2+z
loop_
_atom_site_type_symbol
_atom_site_label
_atom_site_fract_x
_atom_site_fract_y
_atom_site_fract_z
Si Si1 0.463007 0.074689 0.614230
Si Si2 0.720459 0.025773 0.799153
Si Si3 0.599902 0.664618 0.549912
Si Si4 0.000000 0.903154 0.250000
Si Si5 0.150158 0.436459 0.592385
Si Si6 0.638876 0.719771 0.126610
O O1 0.639401 0.083114 0.719723
O O2 0.245980 0.082108 0.566510
O O3 0.456192 0.192937 0.578108
O O4 0.535680 0.965560 0.604807
O O5 0.500000 0.006735 0.750000
O O6 0.878917 0.102024 0.889040
O O7 0.826970 0.898551 0.830168
O O8 0.677949 0.798679 0.589130
O O9 0.393893 0.683531 0.442988
O O10 0.172953 0.808694 0.296192
O O11 0.131522 0.993206 0.331004
O O12 0.000000 0.500000 0.500000
#
# Coordination Sequence:
#
# PCOD9288180 Si02
#       6
#     8   8   8   4   8   8
#     4  10  24  40  63 104 129 177 231 281 344 426
#     4  10  23  40  65  90 130 172 220 278 343 411
#     4  11  23  43  67  96 133 185 228 285 354 419
#     4  10  22  38  64  96 130 174 222 290 336 410
#     4  11  23  42  68  99 136 179 232 287 353 417
#     4  11  21  42  65  90 134 172 221 284 349 405
#
# _framework density 22.682065999999999
#
# number of rings (size 3 to 8) (size 9 to 14) (size 15 to 20)
#    0.000    1.455    4.545    1.091    6.364    1.455 
#    0.000    0.000    0.000    8.727    0.000    0.000 
#    0.000    0.000    0.000    0.000    0.000    0.000 
#
# Total GULP energy -122557.232074 kJ/mol
# GULP energy per Si atom -5570.783276 kJ/mol
# Density = 2.263044 g / cm^3
# Si number density = 22.682066 Si / 1000 Ang^3
#
#
#
# Elastic Constant Matrix: (Units=GPa)
#
#
# Indices 1 2 3 4 5 6 
#
# 1 45.9387 3.6467 22.9864 -0.0001 -16.3517 0.0000
# 2 3.6467 119.2305 26.5438 0.0000 -1.5310 0.0000
# 3 22.9864 26.5438 98.7573 -0.0011 2.3206 -0.0008
# 4 -0.0001 0.0000 -0.0011 707.0854 -0.0003 474.2647
# 5 -16.3517 -1.5310 2.3206 -0.0003 26.2009 -0.0002
# 6 0.0000 0.0000 -0.0008 474.2647 -0.0002 369.2989
#
#
#
# Elastic Compliance Matrix: (Units=1/GPa)
#
#
# Indices 1 2 3 4 5 6 
#
# 1 0.033855 0.001187 -0.008715 0.000000 0.021969 0.000000
# 2 0.001187 0.008977 -0.002724 0.000000 0.001507 0.000000
# 3 -0.008715 -0.002724 0.013045 0.000000 -0.006754 0.000000
# 4 0.000000 0.000000 0.000000 0.010202 0.000000 -0.013102
# 5 0.021969 0.001507 -0.006754 0.000000 0.052564 0.000000
# 6 0.000000 0.000000 0.000000 -0.013102 0.000000 0.019533
#
#
# Mechanical properties :
#
#
# Convention : Reuss Voigt Hill
#
# Bulk Modulus (GPa) = 28.27151 41.14225 34.70688
# Shear Modulus (GPa) = 29.33049 234.56702 131.94875
#
# Velocity S-wave (km/s) = 3.59989 10.18036 7.63541
# Velocity P-wave (km/s) = 5.45621 12.50457 9.64714
#
# Compressibility (1/GPa) = 0.03537130
#
# Stress axis : x y z
#
# Youngs Moduli (GPa) = 29.53811 111.39977 76.65616
#
# Poissons Ratio (x) = -0.13222 0.66807
# Poissons Ratio (y) = -0.03506 0.20884
# Poissons Ratio (z) = 0.25743 0.30350
#
# Static dielectric constant tensor:
#      x y z
#    x 2.169250 0.000000 0.076880 
#    y 0.000000 1.846130 0.000000 
#    z 0.076880 0.000000 1.846580 
# 
# From -- ./inp_files/295981.got.cif
#   From: 2010.05.17/outbox.cif.g08.bks.cpg/sg15_148_cif.got.tgz:295981.got - 2010.06.03 18:47:42.
