data_PCOD9288301
_publ_section_title
;
Structure prediction by ZEFSAII (Michael W. Deem and Ramdas Pophale) SiO2 
 PCOD9288301
Probable space group: C 2/C
;
_chemical_formula_sum "Si O2"
_cell_formula_units_Z 60
_cell_length_a 11.585513
_cell_length_b 22.023270
_cell_length_c 17.063477
_cell_angle_alpha 90.000000
_cell_angle_beta 40.998732
_cell_angle_gamma 90.000000
_cell_volume 2856.251619
_symmetry_space_group_name_H-M "C 2/C"
_symmetry_group_IT_number 15
_symmetry_cell_setting 'monoclinic'
loop_
_space_group_symop_operation_xyz
x,y,z
-x,y,1/2-z
-x,-y,-z
x,-y,1/2+z
1/2+x,1/2+y,z
1/2-x,1/2+y,1/2-z
1/2-x,1/2-y,-z
1/2+x,1/2-y,1/2+z
loop_
_atom_site_type_symbol
_atom_site_label
_atom_site_fract_x
_atom_site_fract_y
_atom_site_fract_z
Si Si1 0.701229 0.738777 0.935540
Si Si2 0.793715 0.271091 0.119627
Si Si3 0.081999 0.610136 0.031720
Si Si4 0.682223 0.455366 0.203213
Si Si5 0.500000 0.329078 0.750000
Si Si6 0.847330 0.847562 0.168803
Si Si7 0.739543 0.360555 0.910569
Si Si8 0.312018 0.591045 0.236515
O O1 0.832311 0.786081 0.828200
O O2 0.728329 0.675241 0.875780
O O3 0.750000 0.750000 0.000000
O O4 0.494741 0.752608 0.035303
O O5 0.692282 0.294156 0.248439
O O6 0.708763 0.209847 0.130007
O O7 0.819833 0.328731 0.049222
O O8 0.125735 0.606407 0.101071
O O9 0.872779 0.612386 0.129924
O O10 0.165845 0.555589 0.938857
O O11 0.500000 0.441444 0.250000
O O12 0.720372 0.407527 0.253342
O O13 0.669663 0.521304 0.247932
O O14 0.521151 0.372742 0.813906
O O15 0.053064 0.857919 0.050453
O O16 0.707246 0.393919 0.844962
#
# Coordination Sequence:
#
# PCOD9288301 Si02
#       8
#     8   8   8   8   4   8   8   8
#     4  11  21  38  63  94 138 175 215 275 336 409
#     4  10  22  38  67  98 134 175 212 276 338 409
#     4  11  23  45  66  98 133 174 225 280 340 401
#     4  11  23  46  72  93 131 181 230 286 332 405
#     4  12  22  40  64  94 136 178 226 264 346 404
#     4  10  22  42  65 100 129 173 226 271 339 398
#     4  11  23  40  68 102 135 169 217 284 342 406
#     4  12  25  43  68  97 133 182 230 276 337 405
#
# _framework density 21.006553
#
# number of rings (size 3 to 8) (size 9 to 14) (size 15 to 20)
#    0.000    1.067    3.333    4.400    1.867    0.533 
#    2.400    0.000    8.800    0.000    0.000    0.000 
#    0.000    0.000    0.000    0.000    0.000    0.000 
#
# Total GULP energy -167515.120401 kJ/mol
# GULP energy per Si atom -5583.837347 kJ/mol
# Density = 2.095874 g / cm^3
# Si number density = 21.006553 Si / 1000 Ang^3
#
#
#
# Elastic Constant Matrix: (Units=GPa)
#
#
# Indices 1 2 3 4 5 6 
#
# 1 88.9357 28.7576 12.6811 -0.0005 11.0987 -0.0001
# 2 28.7576 97.7602 11.2579 -0.0005 13.8070 0.0000
# 3 12.6811 11.2579 82.7105 -0.0024 -3.8642 0.0000
# 4 -0.0005 -0.0005 -0.0024 15.1552 0.0011 -3.7224
# 5 11.0987 13.8070 -3.8642 0.0011 36.3789 0.0000
# 6 -0.0001 0.0000 0.0000 -3.7224 0.0000 11.2557
#
#
#
# Elastic Compliance Matrix: (Units=1/GPa)
#
#
# Indices 1 2 3 4 5 6 
#
# 1 0.012874 -0.003185 -0.001676 0.000000 -0.002897 0.000000
# 2 -0.003185 0.011831 -0.001293 0.000000 -0.003656 0.000000
# 3 -0.001676 -0.001293 0.012633 0.000002 0.002344 0.000001
# 4 0.000000 0.000000 0.000002 0.071818 -0.000002 0.023751
# 5 -0.002897 -0.003656 0.002344 -0.000002 0.030009 -0.000001
# 6 0.000000 0.000000 0.000001 0.023751 -0.000001 0.096699
#
#
# Mechanical properties :
#
#
# Convention : Reuss Voigt Hill
#
# Bulk Modulus (GPa) = 39.95019 41.64440 40.79730
# Shear Modulus (GPa) = 19.49205 27.00529 23.24867
#
# Velocity S-wave (km/s) = 3.04946 3.58937 3.33037
# Velocity P-wave (km/s) = 5.60876 6.08651 5.85251
#
# Compressibility (1/GPa) = 0.02503117
#
# Stress axis : x y z
#
# Youngs Moduli (GPa) = 77.67331 84.52175 79.15930
#
# Poissons Ratio (x) = 0.26921 0.13265
# Poissons Ratio (y) = 0.24740 0.10234
# Poissons Ratio (z) = 0.13016 0.10927
#
# Static dielectric constant tensor:
#      x y z
#    x 1.756180 0.000000 0.022320 
#    y 0.000000 1.787080 0.000000 
#    z 0.022320 0.000000 1.792430 
# 
# From -- ./inp_files/200514.got.cif
#   From: 2010.05.17/outbox.cif.g08.bks.cpg/sg15_101_cif.got.tgz:200514.got - 2010.06.03 18:47:42.
