data_PCOD9288710
_publ_section_title
;
Structure prediction by ZEFSAII (Michael W. Deem and Ramdas Pophale) SiO2 
 PCOD9288710
Probable space group: C 2/C
;
_chemical_formula_sum "Si O2"
_cell_formula_units_Z 60
_cell_length_a 15.589536
_cell_length_b 14.568411
_cell_length_c 29.109814
_cell_angle_alpha 90.000000
_cell_angle_beta 152.592618
_cell_angle_gamma 90.000000
_cell_volume 3043.260621
_symmetry_space_group_name_H-M "C 2/C"
_symmetry_group_IT_number 15
_symmetry_cell_setting 'monoclinic'
loop_
_space_group_symop_operation_xyz
x,y,z
-x,y,1/2-z
-x,-y,-z
x,-y,1/2+z
1/2+x,1/2+y,z
1/2-x,1/2+y,1/2-z
1/2-x,1/2-y,-z
1/2+x,1/2-y,1/2+z
loop_
_atom_site_type_symbol
_atom_site_label
_atom_site_fract_x
_atom_site_fract_y
_atom_site_fract_z
Si Si1 0.666186 0.688582 0.603671
Si Si2 0.849785 0.565669 0.613407
Si Si3 0.830363 0.773682 0.881999
Si Si4 0.500000 0.904510 0.750000
Si Si5 0.239937 0.070483 0.725893
Si Si6 0.846216 0.877687 0.715386
Si Si7 0.679026 0.420094 0.301231
Si Si8 0.484193 0.391250 0.882148
O O1 0.803641 0.643065 0.630512
O O2 0.465538 0.689198 0.485317
O O3 0.662728 0.628204 0.647243
O O4 0.722473 0.789607 0.646873
O O5 0.892474 0.472870 0.663251
O O6 0.673528 0.568991 0.494830
O O7 0.037193 0.581692 0.672950
O O8 0.643951 0.834052 0.794884
O O9 0.799889 0.666125 0.874061
O O10 0.934758 0.797340 0.884375
O O11 0.152903 0.096833 0.733891
O O12 0.176334 0.966712 0.685572
O O13 0.963382 0.874749 0.818334
O O14 0.000000 0.877335 0.750000
O O15 0.742503 0.976017 0.662058
O O16 0.500000 0.420065 0.250000
#
# Coordination Sequence:
#
# PCOD9288710 Si02
#       8
#     8   8   8   4   8   8   8   8
#     4  11  22  38  63 100 125 159 206 264 325 381
#     4  11  21  37  67 100 128 158 203 266 328 383
#     4  11  22  38  65  92 127 162 208 258 322 387
#     4  12  20  38  68  92 132 162 194 264 336 374
#     4  11  20  39  63  89 130 162 201 266 314 370
#     4  10  22  41  63  82 129 169 210 264 301 360
#     4  10  23  42  61  83 123 174 218 255 299 367
#     4  10  22  39  63  99 125 164 214 252 321 383
#
# _framework density 19.715696000000001
#
# number of rings (size 3 to 8) (size 9 to 14) (size 15 to 20)
#    0.000    1.333    3.333    2.400    0.000    3.733 
#    0.000   10.667    0.000    0.000    0.000    0.000 
#    0.000    0.000    0.000    0.000    0.000    0.000 
#
# Total GULP energy -167220.611727 kJ/mol
# GULP energy per Si atom -5574.020391 kJ/mol
# Density = 1.967082 g / cm^3
# Si number density = 19.715696 Si / 1000 Ang^3
#
#
#
# Elastic Constant Matrix: (Units=GPa)
#
#
# Indices 1 2 3 4 5 6 
#
# 1 117.0911 58.1982 45.3224 0.0016 33.0002 0.0030
# 2 58.1982 192.3900 93.8368 0.0051 272.3729 0.0101
# 3 45.3224 93.8368 108.8756 0.0040 162.7412 0.0047
# 4 0.0016 0.0051 0.0040 41.0493 0.0125 35.8777
# 5 33.0002 272.3729 162.7412 0.0125 706.2706 0.0246
# 6 0.0030 0.0101 0.0047 35.8777 0.0246 34.4416
#
#
#
# Elastic Compliance Matrix: (Units=1/GPa)
#
#
# Indices 1 2 3 4 5 6 
#
# 1 0.011879 -0.004674 -0.004242 0.000005 0.002225 -0.000006
# 2 -0.004674 0.015386 -0.004229 0.000003 -0.004741 -0.000003
# 3 -0.004242 -0.004229 0.018093 -0.000012 -0.002340 0.000013
# 4 0.000005 0.000003 -0.000012 0.272069 0.000007 -0.283414
# 5 0.002225 -0.004741 -0.002340 0.000007 0.003679 -0.000008
# 6 -0.000006 -0.000003 0.000013 -0.283414 -0.000008 0.324266
#
#
# Mechanical properties :
#
#
# Convention : Reuss Voigt Hill
#
# Bulk Modulus (GPa) = 52.44533 90.34128 71.39331
# Shear Modulus (GPa) = 7.37443 171.08559 89.23001
#
# Velocity S-wave (km/s) = 1.93611 9.32549 6.73473
# Velocity P-wave (km/s) = 5.62642 12.72299 9.83695
#
# Compressibility (1/GPa) = 0.01906747
#
# Stress axis : x y z
#
# Youngs Moduli (GPa) = 84.18530 64.99408 55.27010
#
# Poissons Ratio (x) = 0.30381 0.23446
# Poissons Ratio (y) = 0.39352 0.23371
# Poissons Ratio (z) = 0.35711 0.27483
#
# Static dielectric constant tensor:
#      x y z
#    x 2.016850 0.000000 -0.264180 
#    y 0.000000 1.746250 0.000000 
#    z -0.264180 0.000000 1.894530 
# 
# From -- ./inp_files/296728.got.cif
#   From: 2010.05.17/outbox.cif.g08.bks.cpg/sg15_149_cif.got.tgz:296728.got - 2010.06.03 18:47:42.
