data_PCOD9288209
_publ_section_title
;
Structure prediction by ZEFSAII (Michael W. Deem and Ramdas Pophale) SiO2 
 PCOD9288209
Probable space group: C 2/C
;
_chemical_formula_sum "Si O2"
_cell_formula_units_Z 56
_cell_length_a 19.372335
_cell_length_b 10.124390
_cell_length_c 14.623430
_cell_angle_alpha 90.000000
_cell_angle_beta 82.306006
_cell_angle_gamma 90.000000
_cell_volume 2842.317127
_symmetry_space_group_name_H-M "C 2/C"
_symmetry_group_IT_number 15
_symmetry_cell_setting 'monoclinic'
loop_
_space_group_symop_operation_xyz
x,y,z
-x,y,1/2-z
-x,-y,-z
x,-y,1/2+z
1/2+x,1/2+y,z
1/2-x,1/2+y,1/2-z
1/2-x,1/2-y,-z
1/2+x,1/2-y,1/2+z
loop_
_atom_site_type_symbol
_atom_site_label
_atom_site_fract_x
_atom_site_fract_y
_atom_site_fract_z
Si Si1 0.138421 0.610541 0.293775
Si Si2 0.968242 0.972970 0.405963
Si Si3 0.500000 0.747925 0.750000
Si Si4 0.697049 0.556578 0.562779
Si Si5 0.644635 0.186009 0.771808
Si Si6 0.246109 0.834886 0.873384
Si Si7 0.500000 0.310420 0.750000
Si Si8 0.247240 0.283631 0.893501
O O1 0.067945 0.664591 0.260903
O O2 0.134549 0.456658 0.320235
O O3 0.199864 0.611455 0.208608
O O4 0.168873 0.706336 0.367479
O O5 0.885194 0.960109 0.429869
O O6 0.990214 0.845249 0.341294
O O7 0.000000 0.000000 0.500000
O O8 0.989653 0.096051 0.339165
O O9 0.718907 0.697587 0.599864
O O10 0.731663 0.563319 0.456699
O O11 0.724694 0.434451 0.616467
O O12 0.673851 0.291233 0.839727
O O13 0.569938 0.226880 0.747432
O O14 0.702627 0.196330 0.680279
O O15 0.250000 0.250000 0.000000
#
# Coordination Sequence:
#
# PCOD9288209 Si02
#       8
#     8   8   4   8   8   8   4   8
#     4  11  23  42  62  91 129 165 210 257 320 377
#     4  11  24  42  64  93 126 164 213 261 319 380
#     4  11  25  42  64  92 129 171 214 264 322 385
#     4  11  20  42  64  89 123 154 212 257 309 375
#     4  11  22  41  62  91 126 165 204 256 315 376
#     4  10  22  38  65  90 119 163 205 258 309 373
#     4  11  23  40  64  92 127 163 206 254 318 383
#     4  11  24  40  65  95 125 162 213 264 314 372
#
# _framework density 19.702235000000002
#
# number of rings (size 3 to 8) (size 9 to 14) (size 15 to 20)
#    0.000    1.143    4.286    2.143    2.000    0.000 
#    2.571    0.000    0.000    5.143    0.000    0.000 
#    0.000    0.000    0.000    0.000    0.000    0.000 
#
# Total GULP energy -156294.370415 kJ/mol
# GULP energy per Si atom -5581.941801 kJ/mol
# Density = 1.965739 g / cm^3
# Si number density = 19.702235 Si / 1000 Ang^3
#
#
#
# Elastic Constant Matrix: (Units=GPa)
#
#
# Indices 1 2 3 4 5 6 
#
# 1 125.9347 31.1025 24.6581 0.0000 25.7788 0.0000
# 2 31.1025 59.3749 7.6916 0.0000 5.1660 0.0000
# 3 24.6581 7.6916 89.7125 0.0000 14.3351 0.0000
# 4 0.0000 0.0000 0.0000 22.8138 0.0000 4.0103
# 5 25.7788 5.1660 14.3351 0.0000 26.9395 0.0000
# 6 0.0000 0.0000 0.0000 4.0103 0.0000 7.1509
#
#
#
# Elastic Compliance Matrix: (Units=1/GPa)
#
#
# Indices 1 2 3 4 5 6 
#
# 1 0.011285 -0.004954 -0.001206 0.000000 -0.009207 0.000000
# 2 -0.004954 0.019391 -0.000507 0.000000 0.001292 0.000000
# 3 -0.001206 -0.000507 0.012374 0.000000 -0.005333 0.000000
# 4 0.000000 0.000000 0.000000 0.048627 0.000000 -0.027270
# 5 -0.009207 0.001292 -0.005333 0.000000 0.048521 0.000000
# 6 0.000000 0.000000 0.000000 -0.027270 0.000000 0.155135
#
#
# Mechanical properties :
#
#
# Convention : Reuss Voigt Hill
#
# Bulk Modulus (GPa) = 33.65315 44.65852 39.15583
# Shear Modulus (GPa) = 15.69507 25.48551 20.59029
#
# Velocity S-wave (km/s) = 2.82550 3.60047 3.23627
# Velocity P-wave (km/s) = 5.26902 6.32459 5.82078
#
# Compressibility (1/GPa) = 0.02971490
#
# Stress axis : x y z
#
# Youngs Moduli (GPa) = 88.61364 51.57153 80.81572
#
# Poissons Ratio (x) = 0.25549 0.09745
# Poissons Ratio (y) = 0.43900 0.04099
# Poissons Ratio (z) = 0.10685 0.02616
#
# Static dielectric constant tensor:
#      x y z
#    x 1.668730 0.000000 0.032620 
#    y 0.000000 1.689700 0.000000 
#    z 0.032620 0.000000 1.724070 
# 
# From -- ./inp_files/166705.got.cif
#   From: 2010.05.17/outbox.cif.g08.bks.cpg/sg15_84_cif.got.tgz:166705.got - 2010.06.03 18:47:42.
