data_PCOD9288723
_publ_section_title
;
Structure prediction by ZEFSAII (Michael W. Deem and Ramdas Pophale) SiO2 
 PCOD9288723
Probable space group: C 2/C
;
_chemical_formula_sum "Si O2"
_cell_formula_units_Z 40
_cell_length_a 14.155975
_cell_length_b 13.532889
_cell_length_c 10.178859
_cell_angle_alpha 90.000000
_cell_angle_beta 103.261876
_cell_angle_gamma 90.000000
_cell_volume 1897.974121
_symmetry_space_group_name_H-M "C 2/C"
_symmetry_group_IT_number 15
_symmetry_cell_setting 'monoclinic'
loop_
_space_group_symop_operation_xyz
x,y,z
-x,y,1/2-z
-x,-y,-z
x,-y,1/2+z
1/2+x,1/2+y,z
1/2-x,1/2+y,1/2-z
1/2-x,1/2-y,-z
1/2+x,1/2-y,1/2+z
loop_
_atom_site_type_symbol
_atom_site_label
_atom_site_fract_x
_atom_site_fract_y
_atom_site_fract_z
Si Si1 0.301826 0.910738 0.476768
Si Si2 0.429653 0.594179 0.969402
Si Si3 0.886052 0.198935 0.510381
Si Si4 0.715259 0.079796 0.824672
Si Si5 0.609908 0.278842 0.793214
O O1 0.189145 0.875275 0.446052
O O2 0.359180 0.811351 0.533524
O O3 0.324277 0.938319 0.334086
O O4 0.318655 0.999425 0.581438
O O5 0.501580 0.675632 0.931054
O O6 0.331904 0.575079 0.860477
O O7 0.500000 0.500000 0.000000
O O8 0.395900 0.634421 0.101638
O O9 0.867071 0.186024 0.346921
O O10 0.681482 0.190201 0.852343
O O11 0.500000 0.237431 0.750000
#
# Coordination Sequence:
#
# PCOD9288723 Si02
#       5
#     8   8   8   8   8
#     4  10  22  39  64  86 128 159 204 246 308 358
#     4  11  21  36  62  94 120 156 204 251 301 357
#     4   9  20  40  58  86 124 166 189 252 310 354
#     4  11  23  39  64  93 119 163 205 248 304 365
#     4   9  21  41  65  85 126 161 201 252 309 360
#
# _framework density 21.075102999999999
#
# number of rings (size 3 to 8) (size 9 to 14) (size 15 to 20)
#    0.000    2.000    2.000    0.600    2.800    2.400 
#    3.600    9.000    0.000    0.000    0.000    0.000 
#    0.000    0.000    0.000    0.000    0.000    0.000 
#
# Total GULP energy -111733.858073 kJ/mol
# GULP energy per Si atom -5586.692904 kJ/mol
# Density = 2.102714 g / cm^3
# Si number density = 21.075103 Si / 1000 Ang^3
#
#
#
# Elastic Constant Matrix: (Units=GPa)
#
#
# Indices 1 2 3 4 5 6 
#
# 1 46.3759 25.0301 6.2687 0.0000 -3.5413 0.0000
# 2 25.0301 106.8539 57.3484 0.0000 -11.6321 0.0000
# 3 6.2687 57.3484 61.5837 0.0000 -24.0687 0.0000
# 4 0.0000 0.0000 0.0000 29.6829 0.0000 -10.0306
# 5 -3.5413 -11.6321 -24.0687 0.0000 31.2345 0.0000
# 6 0.0000 0.0000 0.0000 -10.0306 0.0000 42.7922
#
#
#
# Elastic Compliance Matrix: (Units=1/GPa)
#
#
# Indices 1 2 3 4 5 6 
#
# 1 0.026601 -0.010907 0.010074 0.000000 0.006717 0.000000
# 2 -0.010907 0.025251 -0.027492 0.000000 -0.013018 0.000000
# 3 0.010074 -0.027492 0.053316 0.000000 0.031988 0.000000
# 4 0.000000 0.000000 0.000000 0.036588 0.000000 0.008576
# 5 0.006717 -0.013018 0.031988 0.000000 0.052579 0.000000
# 6 0.000000 0.000000 0.000000 0.008576 0.000000 0.025379
#
#
# Mechanical properties :
#
#
# Convention : Reuss Voigt Hill
#
# Bulk Modulus (GPa) = 20.61077 43.56753 32.08915
# Shear Modulus (GPa) = 17.09194 29.15300 23.12247
#
# Velocity S-wave (km/s) = 2.85090 3.72330 3.31591
# Velocity P-wave (km/s) = 4.54288 6.26110 5.46987
#
# Compressibility (1/GPa) = 0.04851833
#
# Stress axis : x y z
#
# Youngs Moduli (GPa) = 37.59303 39.60190 18.75614
#
# Poissons Ratio (x) = 0.43192 -0.18895
# Poissons Ratio (y) = 0.41001 0.51565
# Poissons Ratio (z) = -0.37871 1.08874
#
# Static dielectric constant tensor:
#      x y z
#    x 1.768810 0.000000 -0.022350 
#    y 0.000000 1.768350 0.000000 
#    z -0.022350 0.000000 1.761530 
# 
# From -- ./inp_files/38070.got.cif
#   From: 2010.05.17/outbox.cif.g08.bks.cpg/sg15_20_cif.got.tgz:38070.got - 2010.06.03 18:47:42.
