data_PCOD9288695
_publ_section_title
;
Structure prediction by ZEFSAII (Michael W. Deem and Ramdas Pophale) SiO2 
 PCOD9288695
Probable space group: C 2/C
;
_chemical_formula_sum "Si O2"
_cell_formula_units_Z 56
_cell_length_a 25.552934
_cell_length_b 13.347487
_cell_length_c 9.639724
_cell_angle_alpha 90.000000
_cell_angle_beta 55.668845
_cell_angle_gamma 90.000000
_cell_volume 2715.034919
_symmetry_space_group_name_H-M "C 2/C"
_symmetry_group_IT_number 15
_symmetry_cell_setting 'monoclinic'
loop_
_space_group_symop_operation_xyz
x,y,z
-x,y,1/2-z
-x,-y,-z
x,-y,1/2+z
1/2+x,1/2+y,z
1/2-x,1/2+y,1/2-z
1/2-x,1/2-y,-z
1/2+x,1/2-y,1/2+z
loop_
_atom_site_type_symbol
_atom_site_label
_atom_site_fract_x
_atom_site_fract_y
_atom_site_fract_z
Si Si1 0.261193 0.609690 0.376692
Si Si2 0.060807 0.303901 0.760038
Si Si3 0.962835 0.574382 0.952047
Si Si4 0.867444 0.964522 0.105234
Si Si5 0.235497 0.819271 0.318114
Si Si6 0.433837 0.427190 0.269936
Si Si7 0.656056 0.046406 0.978842
O O1 0.320691 0.550094 0.230223
O O2 0.243718 0.700373 0.299365
O O3 0.275898 0.654917 0.504099
O O4 0.203570 0.531950 0.478588
O O5 0.082242 0.190880 0.698063
O O6 0.114760 0.383180 0.639961
O O7 0.000000 0.322974 0.750000
O O8 0.043306 0.324795 0.946846
O O9 0.895449 0.521319 0.024500
O O10 0.000000 0.586461 0.750000
O O11 0.000000 0.500000 0.000000
O O12 0.825186 0.864113 0.169560
O O13 0.926546 0.954419 0.119957
O O14 0.887531 0.000324 0.923889
O O15 0.298233 0.879713 0.177120
O O16 0.500000 0.437491 0.250000
#
# Coordination Sequence:
#
# PCOD9288695 Si02
#       7
#     8   8   8   8   8   8   8
#     4  10  22  40  62  93 130 168 218 264 328 384
#     4  11  23  42  62  99 132 171 214 270 328 394
#     4  12  22  40  64  96 138 170 212 264 327 392
#     4  11  22  46  66  96 128 172 215 286 327 391
#     4  10  22  39  63  95 127 173 214 266 322 393
#     4  11  25  44  71  93 130 173 227 274 336 395
#     4  11  21  37  66  89 134 172 208 266 330 383
#
# _framework density 20.625885
#
# number of rings (size 3 to 8) (size 9 to 14) (size 15 to 20)
#    0.000    1.143    4.286    2.143    2.000    0.000 
#    0.000    5.714    0.000    0.000    0.000    0.000 
#    0.000    0.000    0.000    0.000    0.000    0.000 
#
# Total GULP energy -156326.130185 kJ/mol
# GULP energy per Si atom -5583.076078 kJ/mol
# Density = 2.057894 g / cm^3
# Si number density = 20.625885 Si / 1000 Ang^3
#
#
#
# Elastic Constant Matrix: (Units=GPa)
#
#
# Indices 1 2 3 4 5 6 
#
# 1 72.0465 34.9503 23.2069 0.0000 -0.1299 0.0000
# 2 34.9503 97.2466 9.7952 0.0000 -1.7453 0.0000
# 3 23.2069 9.7952 60.3618 0.0000 16.9240 0.0000
# 4 0.0000 0.0000 0.0000 25.4332 0.0000 6.1763
# 5 -0.1299 -1.7453 16.9240 0.0000 25.5274 0.0000
# 6 0.0000 0.0000 0.0000 6.1763 0.0000 13.9472
#
#
#
# Elastic Compliance Matrix: (Units=1/GPa)
#
#
# Indices 1 2 3 4 5 6 
#
# 1 0.019358 -0.006082 -0.007820 0.000000 0.004867 0.000000
# 2 -0.006082 0.012472 0.000103 0.000000 0.000753 0.000000
# 3 -0.007820 0.000103 0.024033 0.000000 -0.015966 0.000000
# 4 0.000000 0.000000 0.000000 0.044056 0.000000 -0.019510
# 5 0.004867 0.000753 -0.015966 0.000000 0.049835 0.000000
# 6 0.000000 0.000000 0.000000 -0.019510 0.000000 0.080339
#
#
# Mechanical properties :
#
#
# Convention : Reuss Voigt Hill
#
# Bulk Modulus (GPa) = 35.37926 40.61774 37.99850
# Shear Modulus (GPa) = 18.71863 23.76173 21.24018
#
# Velocity S-wave (km/s) = 3.01579 3.39785 3.21250
# Velocity P-wave (km/s) = 5.41450 5.92699 5.67653
#
# Compressibility (1/GPa) = 0.02826515
#
# Stress axis : x y z
#
# Youngs Moduli (GPa) = 51.65763 80.17822 41.60932
#
# Poissons Ratio (x) = 0.48767 0.32539
# Poissons Ratio (y) = 0.31420 -0.00430
# Poissons Ratio (z) = 0.40397 -0.00828
#
# Static dielectric constant tensor:
#      x y z
#    x 1.741150 0.000000 0.003890 
#    y 0.000000 1.742600 0.000000 
#    z 0.003890 0.000000 1.725090 
# 
# From -- ./inp_files/61824.got.cif
#   From: 2010.05.17/outbox.cif.g08.bks.cpg/sg15_31_cif.got.tgz:61824.got - 2010.06.03 18:47:42.
