data_PCOD9288020
_publ_section_title
;
Structure prediction by ZEFSAII (Michael W. Deem and Ramdas Pophale) SiO2 
 PCOD9288020
Probable space group: C 2/C
;
_chemical_formula_sum "Si O2"
_cell_formula_units_Z 60
_cell_length_a 15.639752
_cell_length_b 22.924539
_cell_length_c 8.355493
_cell_angle_alpha 90.000000
_cell_angle_beta 69.441957
_cell_angle_gamma 90.000000
_cell_volume 2804.951982
_symmetry_space_group_name_H-M "C 2/C"
_symmetry_group_IT_number 15
_symmetry_cell_setting 'monoclinic'
loop_
_space_group_symop_operation_xyz
x,y,z
-x,y,1/2-z
-x,-y,-z
x,-y,1/2+z
1/2+x,1/2+y,z
1/2-x,1/2+y,1/2-z
1/2-x,1/2-y,-z
1/2+x,1/2-y,1/2+z
loop_
_atom_site_type_symbol
_atom_site_label
_atom_site_fract_x
_atom_site_fract_y
_atom_site_fract_z
Si Si1 0.558857 0.813109 0.979826
Si Si2 0.500000 0.467171 0.750000
Si Si3 0.071207 0.552712 0.473401
Si Si4 0.378368 0.448391 0.109280
Si Si5 0.306745 0.008443 0.385581
Si Si6 0.735694 0.205740 0.157978
Si Si7 0.746980 0.883774 0.394932
Si Si8 0.630491 0.212554 0.786895
O O1 0.534371 0.881960 0.984465
O O2 0.633507 0.797358 0.796119
O O3 0.462912 0.779410 0.050504
O O4 0.605029 0.802356 0.122187
O O5 0.557699 0.432084 0.581518
O O6 0.567045 0.508801 0.808179
O O7 0.145428 0.544310 0.285582
O O8 0.124802 0.542454 0.603716
O O9 0.000000 0.500000 0.500000
O O10 0.291223 0.482902 0.095012
O O11 0.339098 0.395107 0.236901
O O12 0.296228 0.053216 0.540512
O O13 0.804866 0.230996 0.243493
O O14 0.750000 0.250000 0.000000
O O15 0.761605 0.144771 0.059254
O O16 0.683551 0.841558 0.333100
#
# Coordination Sequence:
#
# PCOD9288020 Si02
#       8
#     8   4   8   8   8   8   8   8
#     4  11  23  42  69  99 132 179 216 276 338 399
#     4  10  22  38  62  86 124 168 226 264 314 382
#     4  12  25  36  60 102 147 175 214 255 324 425
#     4  11  21  39  62  89 126 175 218 270 331 392
#     4  12  22  38  60  92 142 175 211 258 328 411
#     4  10  23  44  67  90 123 167 224 282 334 382
#     4  11  21  40  61  93 124 175 209 268 333 397
#     4  10  24  41  69  92 129 165 227 273 339 390
#
# _framework density 21.390739
#
# number of rings (size 3 to 8) (size 9 to 14) (size 15 to 20)
#    0.000    1.067    4.000    2.400    3.733    2.133 
#    0.000    2.667    0.000    1.600    0.000    0.000 
#    0.000    0.000    0.000    0.000    0.000    0.000 
#
# Total GULP energy -167624.659961 kJ/mol
# GULP energy per Si atom -5587.488665 kJ/mol
# Density = 2.134205 g / cm^3
# Si number density = 21.390739 Si / 1000 Ang^3
#
#
#
# Elastic Constant Matrix: (Units=GPa)
#
#
# Indices 1 2 3 4 5 6 
#
# 1 92.7644 19.4784 19.0090 0.0000 -13.8690 0.0000
# 2 19.4784 48.3166 22.7014 0.0000 -18.1216 0.0000
# 3 19.0090 22.7014 133.3096 0.0000 -33.4716 0.0000
# 4 0.0000 0.0000 0.0000 29.1536 0.0000 -0.1164
# 5 -13.8690 -18.1216 -33.4716 0.0000 36.9912 0.0000
# 6 0.0000 0.0000 0.0000 -0.1164 0.0000 32.3016
#
#
#
# Elastic Compliance Matrix: (Units=1/GPa)
#
#
# Indices 1 2 3 4 5 6 
#
# 1 0.012006 -0.003778 -0.000522 0.000000 0.002179 0.000000
# 2 -0.003778 0.026795 -0.001403 0.000000 0.010441 0.000000
# 3 -0.000522 -0.001403 0.009825 0.000000 0.008008 0.000000
# 4 0.000000 0.000000 0.000000 0.034302 0.000000 0.000124
# 5 0.002179 0.010441 0.008008 0.000000 0.040211 0.000000
# 6 0.000000 0.000000 0.000000 0.000124 0.000000 0.030959
#
#
# Mechanical properties :
#
#
# Convention : Reuss Voigt Hill
#
# Bulk Modulus (GPa) = 26.86622 44.08537 35.47580
# Shear Modulus (GPa) = 28.10433 33.90272 31.00352
#
# Velocity S-wave (km/s) = 3.62865 3.98543 3.81122
# Velocity P-wave (km/s) = 5.49027 6.46781 5.99898
#
# Compressibility (1/GPa) = 0.03722146
#
# Stress axis : x y z
#
# Youngs Moduli (GPa) = 83.29265 37.32062 101.77971
#
# Poissons Ratio (x) = 0.14099 0.05309
# Poissons Ratio (y) = 0.31467 0.14277
# Poissons Ratio (z) = 0.04345 0.05235
#
# Static dielectric constant tensor:
#      x y z
#    x 1.787860 0.000000 0.018680 
#    y 0.000000 1.807120 0.000000 
#    z 0.018680 0.000000 1.830270 
# 
# From -- ./inp_files/42598.got.cif
#   From: 2010.05.17/outbox.cif.g08.bks.cpg/sg15_22_cif.got.tgz:42598.got - 2010.06.03 18:47:42.
