data_PCOD9288282
_publ_section_title
;
Structure prediction by ZEFSAII (Michael W. Deem and Ramdas Pophale) SiO2 
 PCOD9288282
Probable space group: C 2/C
;
_chemical_formula_sum "Si O2"
_cell_formula_units_Z 48
_cell_length_a 31.396548
_cell_length_b 10.942903
_cell_length_c 16.200131
_cell_angle_alpha 90.000000
_cell_angle_beta 158.885931
_cell_angle_gamma 90.000000
_cell_volume 2004.970066
_symmetry_space_group_name_H-M "C 2/C"
_symmetry_group_IT_number 15
_symmetry_cell_setting 'monoclinic'
loop_
_space_group_symop_operation_xyz
x,y,z
-x,y,1/2-z
-x,-y,-z
x,-y,1/2+z
1/2+x,1/2+y,z
1/2-x,1/2+y,1/2-z
1/2-x,1/2-y,-z
1/2+x,1/2-y,1/2+z
loop_
_atom_site_type_symbol
_atom_site_label
_atom_site_fract_x
_atom_site_fract_y
_atom_site_fract_z
Si Si1 0.121893 0.606650 0.818295
Si Si2 0.500000 0.207425 0.750000
Si Si3 0.048028 0.962452 0.426750
Si Si4 0.747307 0.137621 0.555714
Si Si5 0.141089 0.251373 0.195469
Si Si6 0.500000 0.500000 0.000000
Si Si7 0.269061 0.358128 0.278212
O O1 0.086849 0.669865 0.669824
O O2 0.031064 0.626708 0.727434
O O3 0.151409 0.465125 0.861364
O O4 0.241084 0.680513 0.061505
O O5 0.388383 0.290752 0.523755
O O6 0.055540 0.858719 0.512362
O O7 0.000000 0.930680 0.250000
O O8 0.970756 0.051258 0.345312
O O9 0.182115 0.005309 0.649801
O O10 0.750000 0.250000 0.500000
O O11 0.727799 0.184485 0.613964
O O12 0.871044 0.065528 0.774836
O O13 0.174167 0.332977 0.176656
#
# Coordination Sequence:
#
# PCOD9288282 Si02
#       7
#     8   4   8   8   8   4   8
#     4  10  22  43  68 100 136 189 227 289 363 439
#     4  10  22  42  70  92 148 182 224 288 370 432
#     4  11  23  38  67 102 134 182 233 296 347 426
#     4  11  25  45  72 102 139 183 241 302 355 437
#     4  10  22  38  67 100 136 177 234 288 358 427
#     4  10  24  42  68 100 144 170 244 290 362 426
#     4  10  22  39  63 100 134 178 230 287 354 424
#
# _framework density 23.940508999999999
#
# number of rings (size 3 to 8) (size 9 to 14) (size 15 to 20)
#    0.000    1.667    4.167    0.000    9.333    0.000 
#    0.000    2.500    0.000    0.000    0.000    0.000 
#    0.000    0.000    0.000    0.000    0.000    0.000 
#
# Total GULP energy -133782.988935 kJ/mol
# GULP energy per Si atom -5574.291206 kJ/mol
# Density = 2.388602 g / cm^3
# Si number density = 23.940509 Si / 1000 Ang^3
#
#
#
# Elastic Constant Matrix: (Units=GPa)
#
#
# Indices 1 2 3 4 5 6 
#
# 1 175.4872 62.1137 22.0701 0.0000 -25.4960 0.0000
# 2 62.1137 92.1029 22.7537 0.0000 -17.0588 0.0000
# 3 22.0701 22.7537 42.6908 0.0000 -22.4134 0.0000
# 4 0.0000 0.0000 0.0000 16.3535 0.0000 -9.7813
# 5 -25.4960 -17.0588 -22.4134 0.0000 47.0181 0.0000
# 6 0.0000 0.0000 0.0000 -9.7813 0.0000 19.7167
#
#
#
# Elastic Compliance Matrix: (Units=1/GPa)
#
#
# Indices 1 2 3 4 5 6 
#
# 1 0.007746 -0.004725 -0.000241 0.000000 0.002371 0.000000
# 2 -0.004725 0.015503 -0.005619 0.000000 0.000384 0.000000
# 3 -0.000241 -0.005619 0.033885 0.000000 0.013984 0.000000
# 4 0.000000 0.000000 0.000000 0.086948 0.000000 0.043134
# 5 0.002371 0.000384 0.013984 0.000000 0.029359 0.000000
# 6 0.000000 0.000000 0.000000 0.043134 0.000000 0.072117
#
#
# Mechanical properties :
#
#
# Convention : Reuss Voigt Hill
#
# Bulk Modulus (GPa) = 27.80509 58.23955 43.02232
# Shear Modulus (GPa) = 17.93945 30.17389 24.05667
#
# Velocity S-wave (km/s) = 2.74037 3.55402 3.17338
# Velocity P-wave (km/s) = 4.65320 6.42036 5.60684
#
# Compressibility (1/GPa) = 0.03596464
#
# Stress axis : x y z
#
# Youngs Moduli (GPa) = 129.10580 64.50339 29.51130
#
# Poissons Ratio (x) = 0.30477 0.00712
# Poissons Ratio (y) = 0.61001 0.16581
# Poissons Ratio (z) = 0.03114 0.36242
#
# Static dielectric constant tensor:
#      x y z
#    x 1.738380 0.000000 -0.104050 
#    y 0.000000 1.691230 0.000000 
#    z -0.104050 0.000000 1.952670 
# 
# From -- ./inp_files/181837.got.cif
#   From: 2010.05.17/outbox.cif.g08.bks.cpg/sg15_91_cif.got.tgz:181837.got - 2010.06.03 18:47:42.
