data_PCOD9288955
_publ_section_title
;
Structure prediction by ZEFSAII (Michael W. Deem and Ramdas Pophale) SiO2 
 PCOD9288955
Probable space group: C 2/C
;
_chemical_formula_sum "Si O2"
_cell_formula_units_Z 56
_cell_length_a 14.601753
_cell_length_b 17.770549
_cell_length_c 19.746091
_cell_angle_alpha 90.000000
_cell_angle_beta 148.948923
_cell_angle_gamma 90.000000
_cell_volume 2642.834700
_symmetry_space_group_name_H-M "C 2/C"
_symmetry_group_IT_number 15
_symmetry_cell_setting 'monoclinic'
loop_
_space_group_symop_operation_xyz
x,y,z
-x,y,1/2-z
-x,-y,-z
x,-y,1/2+z
1/2+x,1/2+y,z
1/2-x,1/2+y,1/2-z
1/2-x,1/2-y,-z
1/2+x,1/2-y,1/2+z
loop_
_atom_site_type_symbol
_atom_site_label
_atom_site_fract_x
_atom_site_fract_y
_atom_site_fract_z
Si Si1 0.615578 0.889864 0.636791
Si Si2 0.954521 0.653820 0.895126
Si Si3 0.341611 0.437725 0.958726
Si Si4 0.041581 0.832697 0.591672
Si Si5 0.382862 0.817111 0.608412
Si Si6 0.232477 0.032791 0.708342
Si Si7 0.334106 0.179453 0.594204
O O1 0.516071 0.879427 0.504330
O O2 0.817041 0.858256 0.762275
O O3 0.513960 0.843077 0.631168
O O4 0.640455 0.977022 0.670298
O O5 0.944044 0.742728 0.900723
O O6 0.774402 0.617867 0.753961
O O7 0.086944 0.632319 0.917759
O O8 0.395971 0.374808 0.936625
O O9 0.229843 0.391629 0.942111
O O10 0.242425 0.501360 0.851903
O O11 0.525816 0.476048 0.096985
O O12 0.837296 0.851881 0.476526
O O13 0.500000 0.796811 0.750000
O O14 0.250000 0.750000 0.500000
O O15 0.500000 0.196302 0.750000
O O16 0.250000 0.250000 0.500000
#
# Coordination Sequence:
#
# PCOD9288955 Si02
#       7
#     8   8   8   8   8   8   8
#     4  11  25  44  65 102 141 184 230 298 358 425
#     4  11  24  39  71  94 143 171 233 286 358 416
#     4  10  22  44  69  97 138 183 238 288 352 436
#     4  10  22  39  68  97 134 175 230 282 352 410
#     4  12  25  45  72 107 144 185 243 301 351 424
#     4  10  22  43  67  94 134 187 229 283 359 422
#     4  10  23  39  62  99 130 167 221 276 337 411
#
# _framework density 21.18937
#
# number of rings (size 3 to 8) (size 9 to 14) (size 15 to 20)
#    0.000    1.429    2.857    2.143   12.000    0.000 
#   12.857    0.000    6.286    0.000    0.000    0.000 
#    0.000    0.000    0.000    0.000    0.000    0.000 
#
# Total GULP energy -156200.793721 kJ/mol
# GULP energy per Si atom -5578.599776 kJ/mol
# Density = 2.114114 g / cm^3
# Si number density = 21.189370 Si / 1000 Ang^3
#
#
#
# Elastic Constant Matrix: (Units=GPa)
#
#
# Indices 1 2 3 4 5 6 
#
# 1 73.8426 24.2390 60.2869 0.0047 -15.7951 -0.0002
# 2 24.2390 101.6354 34.5502 0.0105 -9.2409 0.0011
# 3 60.2869 34.5502 112.7624 0.0330 -6.3689 -0.0019
# 4 0.0047 0.0105 0.0330 -9.5944 0.0039 23.3997
# 5 -15.7951 -9.2409 -6.3689 0.0039 28.3387 -0.0002
# 6 -0.0002 0.0011 -0.0019 23.3997 -0.0002 21.0576
#
#
#
# Elastic Compliance Matrix: (Units=1/GPa)
#
#
# Indices 1 2 3 4 5 6 
#
# 1 0.027738 -0.000790 -0.013905 -0.000009 0.012077 0.000009
# 2 -0.000790 0.011240 -0.002876 0.000000 0.002578 -0.000001
# 3 -0.013905 -0.002876 0.016908 0.000013 -0.004888 -0.000013
# 4 -0.000009 0.000000 0.000013 -0.028092 0.000002 0.031217
# 5 0.012077 0.002578 -0.004888 0.000002 0.041761 -0.000003
# 6 0.000009 -0.000001 -0.000013 0.031217 -0.000003 0.012800
#
#
# Mechanical properties :
#
#
# Convention : Reuss Voigt Hill
#
# Bulk Modulus (GPa) = 48.21030 58.48805 53.34917
# Shear Modulus (GPa) = 40.18978 19.23801 29.71390
#
# Velocity S-wave (km/s) = 4.35983 3.01642 3.74879
# Velocity P-wave (km/s) = 6.93871 6.30826 6.63098
#
# Compressibility (1/GPa) = 0.02074246
#
# Stress axis : x y z
#
# Youngs Moduli (GPa) = 36.05196 88.97170 59.14511
#
# Poissons Ratio (x) = 0.07029 0.82244
# Poissons Ratio (y) = 0.02848 0.17009
# Poissons Ratio (z) = 0.50132 0.25586
#
# Static dielectric constant tensor:
#      x y z
#    x 1.812480 0.000000 0.042520 
#    y 0.000000 1.832290 0.000000 
#    z 0.042520 0.000000 1.810830 
# 
# From -- ./inp_files/245183.got.cif
#   From: 2010.05.17/outbox.cif.g08.bks.cpg/sg15_123_cif.got.tgz:245183.got - 2010.06.03 18:47:42.
