data_PCOD9288986
_publ_section_title
;
Structure prediction by ZEFSAII (Michael W. Deem and Ramdas Pophale) SiO2 
 PCOD9288986
Probable space group: C 2/C
;
_chemical_formula_sum "Si O2"
_cell_formula_units_Z 52
_cell_length_a 6.467497
_cell_length_b 20.595859
_cell_length_c 21.074155
_cell_angle_alpha 90.000000
_cell_angle_beta 122.568522
_cell_angle_gamma 90.000000
_cell_volume 2365.724591
_symmetry_space_group_name_H-M "C 2/C"
_symmetry_group_IT_number 15
_symmetry_cell_setting 'monoclinic'
loop_
_space_group_symop_operation_xyz
x,y,z
-x,y,1/2-z
-x,-y,-z
x,-y,1/2+z
1/2+x,1/2+y,z
1/2-x,1/2+y,1/2-z
1/2-x,1/2-y,-z
1/2+x,1/2-y,1/2+z
loop_
_atom_site_type_symbol
_atom_site_label
_atom_site_fract_x
_atom_site_fract_y
_atom_site_fract_z
Si Si1 0.564126 0.332427 0.687378
Si Si2 0.723232 0.018892 0.678344
Si Si3 0.619012 0.345665 0.468343
Si Si4 0.139026 0.414413 0.559479
Si Si5 0.000000 0.563457 0.250000
Si Si6 0.138616 0.254619 0.086672
Si Si7 0.629423 0.119336 0.922443
O O1 0.500000 0.317698 0.750000
O O2 0.308814 0.356524 0.614558
O O3 0.760742 0.390598 0.713139
O O4 0.674122 0.275781 0.661754
O O5 0.614100 0.089703 0.647941
O O6 0.000000 0.018561 0.750000
O O7 0.706234 0.976668 0.611598
O O8 0.538873 0.982158 0.695855
O O9 0.657181 0.296878 0.415950
O O10 0.598675 0.303701 0.529940
O O11 0.364099 0.381812 0.416766
O O12 0.856183 0.391336 0.515230
O O13 0.196626 0.422686 0.495279
O O14 0.927017 0.308118 0.062111
#
# Coordination Sequence:
#
# PCOD9288986 Si02
#       7
#     8   8   8   8   4   8   8
#     4  12  24  42  70 103 136 180 236 289 348 412
#     4  12  26  47  67  96 142 185 231 283 343 417
#     4  10  22  39  70 105 134 174 224 287 351 404
#     4  11  22  43  71 102 133 174 238 288 340 399
#     4  12  24  44  68  90 134 188 230 288 340 406
#     4  10  23  41  68 101 141 172 224 286 348 415
#     4  11  25  43  70 101 138 180 225 285 344 412
#
# _framework density 21.980578999999999
#
# number of rings (size 3 to 8) (size 9 to 14) (size 15 to 20)
#    0.000    0.923    4.615    1.846    4.308    3.077 
#    2.769    0.000    0.000    0.000    0.000    0.000 
#    0.000    0.000    0.000    0.000    0.000    0.000 
#
# Total GULP energy -145258.128155 kJ/mol
# GULP energy per Si atom -5586.851083 kJ/mol
# Density = 2.193055 g / cm^3
# Si number density = 21.980579 Si / 1000 Ang^3
#
#
#
# Elastic Constant Matrix: (Units=GPa)
#
#
# Indices 1 2 3 4 5 6 
#
# 1 117.7964 29.0041 39.5960 0.0000 -3.2026 0.0000
# 2 29.0041 54.1560 33.2437 0.0000 13.4775 0.0000
# 3 39.5960 33.2437 63.1337 0.0000 -5.3306 0.0000
# 4 0.0000 0.0000 0.0000 5.8875 0.0000 19.9409
# 5 -3.2026 13.4775 -5.3306 0.0000 30.1233 0.0000
# 6 0.0000 0.0000 0.0000 19.9409 0.0000 -23.5487
#
#
#
# Elastic Compliance Matrix: (Units=1/GPa)
#
#
# Indices 1 2 3 4 5 6 
#
# 1 0.011037 -0.003217 -0.005084 0.000000 0.001713 0.000000
# 2 -0.003217 0.037020 -0.019190 0.000000 -0.020301 0.000000
# 3 -0.005084 -0.019190 0.030264 0.000000 0.013401 0.000000
# 4 0.000000 0.000000 0.000000 0.043911 0.000000 0.037184
# 5 0.001713 -0.020301 0.013401 0.000000 0.044833 0.000000
# 6 0.000000 0.000000 0.000000 0.037184 0.000000 -0.010978
#
#
# Mechanical properties :
#
#
# Convention : Reuss Voigt Hill
#
# Bulk Modulus (GPa) = 42.84460 48.75263 45.79861
# Shear Modulus (GPa) = 22.84715 11.37525 17.11120
#
# Velocity S-wave (km/s) = 3.22751 2.27736 2.79313
# Velocity P-wave (km/s) = 5.78130 5.39844 5.59315
#
# Compressibility (1/GPa) = 0.02334017
#
# Stress axis : x y z
#
# Youngs Moduli (GPa) = 90.60796 27.01264 33.04282
#
# Poissons Ratio (x) = 0.08689 0.16797
# Poissons Ratio (y) = 0.29145 0.63409
# Poissons Ratio (z) = 0.46061 0.51837
#
# Static dielectric constant tensor:
#      x y z
#    x 1.839180 0.000000 -0.002180 
#    y 0.000000 1.851850 0.000000 
#    z -0.002180 0.000000 1.788800 
# 
# From -- ./inp_files/261847.got.cif
#   From: 2010.05.17/outbox.cif.g08.bks.cpg/sg15_131_cif.got.tgz:261847.got - 2010.06.03 18:47:42.
