data_PCOD9288805
_publ_section_title
;
Structure prediction by ZEFSAII (Michael W. Deem and Ramdas Pophale) SiO2 
 PCOD9288805
Probable space group: C 2/C
;
_chemical_formula_sum "Si O2"
_cell_formula_units_Z 56
_cell_length_a 31.083321
_cell_length_b 14.060235
_cell_length_c 9.651593
_cell_angle_alpha 90.000000
_cell_angle_beta 135.439521
_cell_angle_gamma 90.000000
_cell_volume 2959.693886
_symmetry_space_group_name_H-M "C 2/C"
_symmetry_group_IT_number 15
_symmetry_cell_setting 'monoclinic'
loop_
_space_group_symop_operation_xyz
x,y,z
-x,y,1/2-z
-x,-y,-z
x,-y,1/2+z
1/2+x,1/2+y,z
1/2-x,1/2+y,1/2-z
1/2-x,1/2-y,-z
1/2+x,1/2-y,1/2+z
loop_
_atom_site_type_symbol
_atom_site_label
_atom_site_fract_x
_atom_site_fract_y
_atom_site_fract_z
Si Si1 0.028869 0.400001 0.026669
Si Si2 0.093350 0.704301 0.215525
Si Si3 0.128234 0.632642 0.995604
Si Si4 0.868066 0.583088 0.948768
Si Si5 0.078025 0.902401 0.589435
Si Si6 0.679904 0.234032 0.876883
Si Si7 0.068613 0.091304 0.738917
O O1 0.074754 0.376035 0.257723
O O2 0.063978 0.414846 0.963057
O O3 0.000000 0.500000 0.000000
O O4 0.976397 0.321757 0.904051
O O5 0.132498 0.637175 0.406958
O O6 0.103295 0.814529 0.267849
O O7 0.104365 0.676379 0.082905
O O8 0.175704 0.700250 0.026311
O O9 0.151079 0.525756 0.077693
O O10 0.834798 0.645498 0.757752
O O11 0.127408 0.817046 0.733363
O O12 0.079605 0.920486 0.428078
O O13 0.004723 0.888117 0.452101
O O14 0.090270 0.997953 0.705822
O O15 0.750000 0.250000 0.000000
#
# Coordination Sequence:
#
# PCOD9288805 Si02
#       7
#     8   8   8   8   8   8   8
#     4  11  20  32  56  94 137 175 192 235 319 401
#     4  12  21  33  59  94 132 163 205 257 313 388
#     4  11  23  37  59  94 129 163 210 249 314 389
#     4  11  21  39  59  89 130 167 209 249 316 384
#     4  10  22  43  64  91 123 165 211 268 326 381
#     4  11  25  48  66  86 125 175 222 269 325 382
#     4  10  22  39  65  94 126 159 209 269 329 387
#
# _framework density 18.920876
#
# number of rings (size 3 to 8) (size 9 to 14) (size 15 to 20)
#    0.000    1.143    4.286    3.429    4.000    0.000 
#    5.143    0.714    0.000    0.000    0.000    0.000 
#    0.000    0.000    0.000    0.000    0.000    0.000 
#
# Total GULP energy -156134.578514 kJ/mol
# GULP energy per Si atom -5576.234947 kJ/mol
# Density = 1.887781 g / cm^3
# Si number density = 18.920876 Si / 1000 Ang^3
#
#
#
# Elastic Constant Matrix: (Units=GPa)
#
#
# Indices 1 2 3 4 5 6 
#
# 1 92.1564 47.9243 34.6378 0.0000 -12.3527 0.0000
# 2 47.9243 139.8074 31.3571 0.0000 -14.4252 0.0000
# 3 34.6378 31.3571 43.8441 0.0000 -16.9991 0.0000
# 4 0.0000 0.0000 0.0000 25.9832 0.0000 -13.7892
# 5 -12.3527 -14.4252 -16.9991 0.0000 31.7739 0.0000
# 6 0.0000 0.0000 0.0000 -13.7892 0.0000 28.3880
#
#
#
# Elastic Compliance Matrix: (Units=1/GPa)
#
#
# Indices 1 2 3 4 5 6 
#
# 1 0.016630 -0.003299 -0.011169 0.000000 -0.001008 0.000000
# 2 -0.003299 0.009189 -0.003590 0.000000 0.000968 0.000000
# 3 -0.011169 -0.003590 0.040228 0.000000 0.015550 0.000000
# 4 0.000000 0.000000 0.000000 0.051853 0.000000 0.025187
# 5 -0.001008 0.000968 0.015550 0.000000 0.039839 0.000000
# 6 0.000000 0.000000 0.000000 0.025187 0.000000 0.047460
#
#
# Mechanical properties :
#
#
# Convention : Reuss Voigt Hill
#
# Bulk Modulus (GPa) = 33.41071 55.96070 44.68570
# Shear Modulus (GPa) = 19.89712 28.02162 23.95937
#
# Velocity S-wave (km/s) = 3.24635 3.85254 3.56236
# Velocity P-wave (km/s) = 5.63455 7.03063 6.37095
#
# Compressibility (1/GPa) = 0.02993053
#
# Stress axis : x y z
#
# Youngs Moduli (GPa) = 60.13310 108.82890 24.85815
#
# Poissons Ratio (x) = 0.35907 0.27764
# Poissons Ratio (y) = 0.19841 0.08923
# Poissons Ratio (z) = 0.67163 0.39065
#
# Static dielectric constant tensor:
#      x y z
#    x 1.725970 0.000000 0.010990 
#    y 0.000000 1.681840 0.000000 
#    z 0.010990 0.000000 1.680620 
# 
# From -- ./inp_files/69972.got.cif
#   From: 2010.05.17/outbox.cif.g08.bks.cpg/sg15_35_cif.got.tgz:69972.got - 2010.06.03 18:47:42.
