data_PCOD9288696
_publ_section_title
;
Structure prediction by ZEFSAII (Michael W. Deem and Ramdas Pophale) SiO2 
 PCOD9288696
Probable space group: C 2/C
;
_chemical_formula_sum "Si O2"
_cell_formula_units_Z 56
_cell_length_a 31.614052
_cell_length_b 8.071472
_cell_length_c 20.877733
_cell_angle_alpha 90.000000
_cell_angle_beta 151.890919
_cell_angle_gamma 90.000000
_cell_volume 2510.018932
_symmetry_space_group_name_H-M "C 2/C"
_symmetry_group_IT_number 15
_symmetry_cell_setting 'monoclinic'
loop_
_space_group_symop_operation_xyz
x,y,z
-x,y,1/2-z
-x,-y,-z
x,-y,1/2+z
1/2+x,1/2+y,z
1/2-x,1/2+y,1/2-z
1/2-x,1/2-y,-z
1/2+x,1/2-y,1/2+z
loop_
_atom_site_type_symbol
_atom_site_label
_atom_site_fract_x
_atom_site_fract_y
_atom_site_fract_z
Si Si1 0.499066 0.493811 0.893331
Si Si2 0.688027 0.952579 0.378756
Si Si3 0.209000 0.090075 0.361994
Si Si4 0.749438 0.866028 0.838380
Si Si5 0.681782 0.460072 0.192777
Si Si6 0.491207 0.150935 0.662152
Si Si7 0.058881 0.701155 0.392565
O O1 0.395994 0.454913 0.770722
O O2 0.531429 0.330130 0.896937
O O3 0.505517 0.668030 0.865121
O O4 0.577040 0.509468 0.050149
O O5 0.737193 0.005097 0.510134
O O6 0.729098 0.780856 0.405957
O O7 0.587074 0.906838 0.262257
O O8 0.699228 0.075451 0.334767
O O9 0.228379 0.055714 0.313989
O O10 0.691495 0.729766 0.724445
O O11 0.774769 0.000145 0.817938
O O12 0.843785 0.783009 0.985305
O O13 0.500000 0.174938 0.750000
O O14 0.431822 0.987188 0.569860
O O15 0.000000 0.688214 0.250000
#
# Coordination Sequence:
#
# PCOD9288696 Si02
#       7
#     8   8   8   8   8   8   8
#     4  10  22  42  63  93 132 178 213 269 329 393
#     4  10  23  43  68  99 128 168 223 275 331 383
#     4  10  22  42  68  97 129 171 219 275 326 397
#     4  11  25  42  64  98 128 180 213 275 326 392
#     4  11  25  40  66  90 139 172 219 264 333 396
#     4  10  23  40  67 100 131 169 220 277 335 387
#     4  10  22  39  63  95 129 167 223 271 324 389
#
# _framework density 22.310589
#
# number of rings (size 3 to 8) (size 9 to 14) (size 15 to 20)
#    0.000    1.714    0.000    2.571    8.000    6.286 
#    0.000    1.429    0.000    0.000    0.000    0.000 
#    0.000    0.000    0.000    0.000    0.000    0.000 
#
# Total GULP energy -156392.879725 kJ/mol
# GULP energy per Si atom -5585.459990 kJ/mol
# Density = 2.225981 g / cm^3
# Si number density = 22.310589 Si / 1000 Ang^3
#
#
#
# Elastic Constant Matrix: (Units=GPa)
#
#
# Indices 1 2 3 4 5 6 
#
# 1 93.1808 22.5826 31.3049 0.0000 -16.9440 0.0000
# 2 22.5826 83.1399 5.0895 0.0001 -20.6489 0.0000
# 3 31.3049 5.0895 73.2785 0.0000 -19.8514 0.0000
# 4 0.0000 0.0001 0.0000 4.7091 0.0000 -23.5311
# 5 -16.9440 -20.6489 -19.8514 0.0000 28.9443 0.0000
# 6 0.0000 0.0000 0.0000 -23.5311 0.0000 9.4672
#
#
#
# Elastic Compliance Matrix: (Units=1/GPa)
#
#
# Indices 1 2 3 4 5 6 
#
# 1 0.013504 -0.002717 -0.004868 0.000000 0.002628 0.000000
# 2 -0.002717 0.015466 0.003248 0.000000 0.011670 0.000000
# 3 -0.004868 0.003248 0.018861 0.000000 0.012403 0.000000
# 4 0.000000 0.000000 0.000000 -0.018595 0.000000 -0.046218
# 5 0.002628 0.011670 0.012403 0.000000 0.052919 0.000000
# 6 0.000000 0.000000 0.000000 -0.046218 0.000000 -0.009249
#
#
# Mechanical properties :
#
#
# Convention : Reuss Voigt Hill
#
# Bulk Modulus (GPa) = 25.53933 40.83924 33.18928
# Shear Modulus (GPa) = 52.83631 21.33226 37.08429
#
# Velocity S-wave (km/s) = 4.87171 3.09552 4.08141
# Velocity P-wave (km/s) = 6.56634 5.57862 6.09253
#
# Compressibility (1/GPa) = 0.03915530
#
# Stress axis : x y z
#
# Youngs Moduli (GPa) = 74.05364 64.65963 53.02026
#
# Poissons Ratio (x) = 0.17570 0.25812
# Poissons Ratio (y) = 0.20122 -0.17222
# Poissons Ratio (z) = 0.36051 -0.21003
#
# Static dielectric constant tensor:
#      x y z
#    x 1.838970 0.000000 0.011140 
#    y 0.000000 1.863600 0.000000 
#    z 0.011140 0.000000 1.827780 
# 
# From -- ./inp_files/259027.got.cif
#   From: 2010.05.17/outbox.cif.g08.bks.cpg/sg15_130_cif.got.tgz:259027.got - 2010.06.03 18:47:42.
