data_PCOD9288019
_publ_section_title
;
Structure prediction by ZEFSAII (Michael W. Deem and Ramdas Pophale) SiO2 
 PCOD9288019
Probable space group: C 2/C
;
_chemical_formula_sum "Si O2"
_cell_formula_units_Z 64
_cell_length_a 24.990521
_cell_length_b 5.325005
_cell_length_c 25.254164
_cell_angle_alpha 90.000000
_cell_angle_beta 101.967415
_cell_angle_gamma 90.000000
_cell_volume 3287.646744
_symmetry_space_group_name_H-M "C 2/C"
_symmetry_group_IT_number 15
_symmetry_cell_setting 'monoclinic'
loop_
_space_group_symop_operation_xyz
x,y,z
-x,y,1/2-z
-x,-y,-z
x,-y,1/2+z
1/2+x,1/2+y,z
1/2-x,1/2+y,1/2-z
1/2-x,1/2-y,-z
1/2+x,1/2-y,1/2+z
loop_
_atom_site_type_symbol
_atom_site_label
_atom_site_fract_x
_atom_site_fract_y
_atom_site_fract_z
Si Si1 0.703461 0.633189 0.610667
Si Si2 0.639954 0.220164 0.283899
Si Si3 0.713472 0.497729 0.497148
Si Si4 0.950174 0.771204 0.816058
Si Si5 0.758479 0.534141 0.720419
Si Si6 0.177333 0.898832 0.878125
Si Si7 0.106302 0.251983 0.662139
Si Si8 0.428577 0.836913 0.191120
O O1 0.689988 0.509523 0.551746
O O2 0.720819 0.455437 0.663097
O O3 0.761107 0.784993 0.615427
O O4 0.650129 0.767847 0.623839
O O5 0.678674 0.977540 0.284473
O O6 0.670201 0.388633 0.332481
O O7 0.636544 0.317060 0.223748
O O8 0.582057 0.127202 0.294527
O O9 0.750000 0.250000 0.500000
O O10 0.674878 0.502841 0.437964
O O11 0.750000 0.750000 0.500000
O O12 0.921170 0.521414 0.833037
O O13 0.931852 0.795186 0.749943
O O14 0.014756 0.718493 0.825654
O O15 0.935246 0.016261 0.847600
O O16 0.748286 0.815213 0.738005
O O17 0.123112 0.733917 0.855966
#
# Coordination Sequence:
#
# PCOD9288019 Si02
#       8
#     8   8   8   8   8   8   8   8
#     4  11  24  40  61  91 130 160 198 250 309 374
#     4  11  22  35  59  92 124 156 208 247 307 361
#     4  10  24  43  60  88 125 166 205 247 299 362
#     4  10  24  41  57  90 124 163 203 249 308 365
#     4  12  24  34  55  87 128 159 187 235 305 376
#     4  11  22  41  64  91 121 163 211 251 303 359
#     4  11  24  37  60  87 128 163 194 241 316 373
#     4  10  22  38  62  86 123 159 209 256 300 359
#
# _framework density 19.466812999999998
#
# number of rings (size 3 to 8) (size 9 to 14) (size 15 to 20)
#    0.000    1.250    3.750    1.500    7.000    4.000 
#    0.000    0.000    0.000    1.500    0.000    0.000 
#    0.000    0.000    0.000    0.000    0.000    0.000 
#
# Total GULP energy -178287.865573 kJ/mol
# GULP energy per Si atom -5571.495799 kJ/mol
# Density = 1.942251 g / cm^3
# Si number density = 19.466813 Si / 1000 Ang^3
#
#
#
# Elastic Constant Matrix: (Units=GPa)
#
#
# Indices 1 2 3 4 5 6 
#
# 1 105.7592 21.2155 41.8834 0.0000 -15.3899 0.0000
# 2 21.2155 61.6941 29.7317 0.0000 -4.7358 0.0000
# 3 41.8834 29.7317 128.9842 0.0000 -12.9757 0.0000
# 4 0.0000 0.0000 0.0000 11.0054 0.0000 3.7161
# 5 -15.3899 -4.7358 -12.9757 0.0000 18.5111 0.0000
# 6 0.0000 0.0000 0.0000 3.7161 0.0000 20.2675
#
#
#
# Elastic Compliance Matrix: (Units=1/GPa)
#
#
# Indices 1 2 3 4 5 6 
#
# 1 0.012061 -0.002301 -0.002621 0.000000 0.007601 0.000000
# 2 -0.002301 0.018733 -0.003530 0.000000 0.000405 0.000000
# 3 -0.002621 -0.003530 0.009799 0.000000 0.003786 0.000000
# 4 0.000000 0.000000 0.000000 0.096861 0.000000 -0.017760
# 5 0.007601 0.000405 0.003786 0.000000 0.063099 0.000000
# 6 0.000000 0.000000 0.000000 -0.017760 0.000000 0.052596
#
#
# Mechanical properties :
#
#
# Convention : Reuss Voigt Hill
#
# Bulk Modulus (GPa) = 42.21587 53.56651 47.89119
# Shear Modulus (GPa) = 17.98887 23.53061 20.75974
#
# Velocity S-wave (km/s) = 3.04316 3.48049 3.26915
# Velocity P-wave (km/s) = 5.83789 6.61274 6.23736
#
# Compressibility (1/GPa) = 0.02368778
#
# Stress axis : x y z
#
# Youngs Moduli (GPa) = 82.90988 53.38308 102.05430
#
# Poissons Ratio (x) = 0.12282 0.26753
# Poissons Ratio (y) = 0.19076 0.36026
# Poissons Ratio (z) = 0.21734 0.18845
#
# Static dielectric constant tensor:
#      x y z
#    x 1.750930 0.000000 -0.008780 
#    y 0.000000 1.769370 0.000000 
#    z -0.008780 0.000000 1.704150 
# 
# From -- ./inp_files/282897.got.cif
#   From: 2010.05.17/outbox.cif.g08.bks.cpg/sg15_142_cif.got.tgz:282897.got - 2010.06.03 18:47:42.
