data_PCOD9288157
_publ_section_title
;
Structure prediction by ZEFSAII (Michael W. Deem and Ramdas Pophale) SiO2 
 PCOD9288157
Probable space group: C 2/C
;
_chemical_formula_sum "Si O2"
_cell_formula_units_Z 56
_cell_length_a 15.984743
_cell_length_b 11.507877
_cell_length_c 26.551050
_cell_angle_alpha 90.000000
_cell_angle_beta 144.676598
_cell_angle_gamma 90.000000
_cell_volume 2823.929420
_symmetry_space_group_name_H-M "C 2/C"
_symmetry_group_IT_number 15
_symmetry_cell_setting 'monoclinic'
loop_
_space_group_symop_operation_xyz
x,y,z
-x,y,1/2-z
-x,-y,-z
x,-y,1/2+z
1/2+x,1/2+y,z
1/2-x,1/2+y,1/2-z
1/2-x,1/2-y,-z
1/2+x,1/2-y,1/2+z
loop_
_atom_site_type_symbol
_atom_site_label
_atom_site_fract_x
_atom_site_fract_y
_atom_site_fract_z
Si Si1 0.316680 0.538297 0.116554
Si Si2 0.675026 0.726919 0.648290
Si Si3 0.228131 0.483996 0.683625
Si Si4 0.490936 0.220945 0.689863
Si Si5 0.504157 0.453197 0.378387
Si Si6 0.964860 0.653051 0.569478
Si Si7 0.928884 0.103931 0.999260
O O1 0.303270 0.495381 0.166777
O O2 0.416667 0.654078 0.162215
O O3 0.392798 0.442934 0.118946
O O4 0.161102 0.582179 0.020814
O O5 0.643723 0.863138 0.634223
O O6 0.842660 0.725542 0.745957
O O7 0.560550 0.660277 0.626748
O O8 0.671912 0.665660 0.591884
O O9 0.355715 0.482336 0.787775
O O10 0.111584 0.580513 0.639008
O O11 0.500000 0.163838 0.750000
O O12 0.414983 0.168018 0.603367
O O13 0.597641 0.528924 0.463635
O O14 0.993255 0.777855 0.556454
O O15 0.000000 0.000000 0.000000
#
# Coordination Sequence:
#
# PCOD9288157 Si02
#       7
#     8   8   8   8   8   8   8
#     4  12  23  38  65  97 127 169 228 277 328 394
#     4  11  22  40  62  96 133 170 219 277 333 403
#     4  12  23  41  66  98 131 175 225 275 330 397
#     4  12  21  37  65  97 130 162 223 284 321 383
#     4  11  23  40  63  93 130 178 217 273 342 391
#     4  12  24  40  66 100 137 170 222 279 335 393
#     4  10  22  38  64  94 130 170 214 265 338 392
#
# _framework density 19.830522999999999
#
# number of rings (size 3 to 8) (size 9 to 14) (size 15 to 20)
#    0.000    0.571    7.143    1.286    2.000    0.000 
#    0.000    0.714    0.000    1.714    0.000    0.000 
#    0.000    0.000    0.000    0.000    0.000    0.000 
#
# Total GULP energy -155876.606445 kJ/mol
# GULP energy per Si atom -5567.021659 kJ/mol
# Density = 1.978539 g / cm^3
# Si number density = 19.830523 Si / 1000 Ang^3
#
#
#
# Elastic Constant Matrix: (Units=GPa)
#
#
# Indices 1 2 3 4 5 6 
#
# 1 107.5640 40.4056 23.0720 0.0000 -12.0795 0.0000
# 2 40.4056 58.8200 18.1857 0.0000 6.8039 0.0000
# 3 23.0720 18.1857 65.6976 0.0000 -14.5080 0.0000
# 4 0.0000 0.0000 0.0000 16.4219 0.0000 -0.2012
# 5 -12.0795 6.8039 -14.5080 0.0000 32.9702 0.0000
# 6 0.0000 0.0000 0.0000 -0.2012 0.0000 31.4529
#
#
#
# Elastic Compliance Matrix: (Units=1/GPa)
#
#
# Indices 1 2 3 4 5 6 
#
# 1 0.014082 -0.010326 -0.000528 0.000000 0.007058 0.000000
# 2 -0.010326 0.027631 -0.006775 0.000000 -0.012467 0.000000
# 3 -0.000528 -0.006775 0.019437 0.000000 0.009758 0.000000
# 4 0.000000 0.000000 0.000000 0.060899 0.000000 0.000390
# 5 0.007058 -0.012467 0.009758 0.000000 0.039782 0.000000
# 6 0.000000 0.000000 0.000000 0.000390 0.000000 0.031796
#
#
# Mechanical properties :
#
#
# Convention : Reuss Voigt Hill
#
# Bulk Modulus (GPa) = 38.62436 43.93426 41.27931
# Shear Modulus (GPa) = 21.05110 26.19689 23.62399
#
# Velocity S-wave (km/s) = 3.26168 3.63855 3.45526
# Velocity P-wave (km/s) = 5.80554 6.31309 6.06462
#
# Compressibility (1/GPa) = 0.02589039
#
# Stress axis : x y z
#
# Youngs Moduli (GPa) = 71.01426 36.19087 51.44832
#
# Poissons Ratio (x) = 0.37372 0.02718
# Poissons Ratio (y) = 0.73331 0.34857
# Poissons Ratio (z) = 0.03752 0.24520
#
# Static dielectric constant tensor:
#      x y z
#    x 1.724820 0.000000 -0.026030 
#    y 0.000000 1.688010 0.000000 
#    z -0.026030 0.000000 1.751330 
# 
# From -- ./inp_files/204106.got.cif
#   From: 2010.05.17/outbox.cif.g08.bks.cpg/sg15_103_cif.got.tgz:204106.got - 2010.06.03 18:47:42.
