data_PCOD9288927
_publ_section_title
;
Structure prediction by ZEFSAII (Michael W. Deem and Ramdas Pophale) SiO2 
 PCOD9288927
Probable space group: C 2/C
;
_chemical_formula_sum "Si O2"
_cell_formula_units_Z 52
_cell_length_a 17.666654
_cell_length_b 13.773539
_cell_length_c 15.710135
_cell_angle_alpha 90.000000
_cell_angle_beta 31.751460
_cell_angle_gamma 90.000000
_cell_volume 2011.685020
_symmetry_space_group_name_H-M "C 2/C"
_symmetry_group_IT_number 15
_symmetry_cell_setting 'monoclinic'
loop_
_space_group_symop_operation_xyz
x,y,z
-x,y,1/2-z
-x,-y,-z
x,-y,1/2+z
1/2+x,1/2+y,z
1/2-x,1/2+y,1/2-z
1/2-x,1/2-y,-z
1/2+x,1/2-y,1/2+z
loop_
_atom_site_type_symbol
_atom_site_label
_atom_site_fract_x
_atom_site_fract_y
_atom_site_fract_z
Si Si1 0.064340 0.591914 0.103460
Si Si2 0.567037 0.118749 0.548339
Si Si3 0.146767 0.093367 0.595184
Si Si4 0.117564 0.903094 0.738569
Si Si5 0.119819 0.269640 0.827583
Si Si6 0.000000 0.256455 0.250000
Si Si7 0.100203 0.879858 0.949234
O O1 0.073676 0.497741 0.033739
O O2 0.000000 0.545396 0.250000
O O3 0.955966 0.671856 0.174974
O O4 0.214091 0.637110 0.992493
O O5 0.727917 0.148623 0.428672
O O6 0.559148 0.172930 0.467391
O O7 0.453796 0.161686 0.723404
O O8 0.151989 0.071861 0.488502
O O9 0.000000 0.151869 0.750000
O O10 0.125746 0.996758 0.671806
O O11 0.111766 0.927757 0.844806
O O12 0.992035 0.829092 0.831501
O O13 0.289407 0.288271 0.663300
O O14 0.060008 0.161491 0.887551
#
# Coordination Sequence:
#
# PCOD9288927 Si02
#       7
#     8   8   8   8   8   4   8
#     4  11  22  43  66  97 135 184 228 277 331 411
#     4  10  22  39  67  97 135 178 230 281 342 404
#     4  11  25  45  67  99 139 184 228 280 347 409
#     4  10  23  43  65 101 139 174 230 284 347 408
#     4  11  24  44  68 103 137 180 231 281 342 408
#     4  12  18  40  66  98 130 174 228 290 348 394
#     4  11  25  45  72 102 140 182 231 286 343 408
#
# _framework density 25.848974999999999
#
# number of rings (size 3 to 8) (size 9 to 14) (size 15 to 20)
#    0.000    1.231    4.615    0.923    2.154    1.846 
#    0.000    1.538    0.000    0.000    0.000    0.000 
#    0.000    0.000    0.000    0.000    0.000    0.000 
#
# Total GULP energy -144772.583058 kJ/mol
# GULP energy per Si atom -5568.176271 kJ/mol
# Density = 2.579014 g / cm^3
# Si number density = 25.848975 Si / 1000 Ang^3
#
#
#
# Elastic Constant Matrix: (Units=GPa)
#
#
# Indices 1 2 3 4 5 6 
#
# 1 121.9208 29.8012 38.1544 0.0002 30.4660 -0.0003
# 2 29.8012 90.0228 17.6336 0.0001 18.5879 -0.0001
# 3 38.1544 17.6336 63.2774 0.0002 13.0411 -0.0003
# 4 0.0002 0.0001 0.0002 29.9068 -0.0002 10.6297
# 5 30.4660 18.5879 13.0411 -0.0002 53.3811 0.0003
# 6 -0.0003 -0.0001 -0.0003 10.6297 0.0003 42.2488
#
#
#
# Elastic Compliance Matrix: (Units=1/GPa)
#
#
# Indices 1 2 3 4 5 6 
#
# 1 0.011507 -0.001783 -0.005493 0.000000 -0.004605 0.000000
# 2 -0.001783 0.012668 -0.001849 0.000000 -0.002942 0.000000
# 3 -0.005493 -0.001849 0.019851 0.000000 -0.001071 0.000000
# 4 0.000000 0.000000 0.000000 0.036721 0.000000 -0.009239
# 5 -0.004605 -0.002942 -0.001071 0.000000 0.022647 0.000000
# 6 0.000000 0.000000 0.000000 -0.009239 0.000000 0.025994
#
#
# Mechanical properties :
#
#
# Convention : Reuss Voigt Hill
#
# Bulk Modulus (GPa) = 38.79285 49.59996 44.19640
# Shear Modulus (GPa) = 32.00393 37.74945 34.87669
#
# Velocity S-wave (km/s) = 3.52250 3.82564 3.67720
# Velocity P-wave (km/s) = 5.61997 6.22448 5.92993
#
# Compressibility (1/GPa) = 0.02577795
#
# Stress axis : x y z
#
# Youngs Moduli (GPa) = 86.90033 78.93852 50.37425
#
# Poissons Ratio (x) = 0.14072 0.27670
# Poissons Ratio (y) = 0.15491 0.09314
# Poissons Ratio (z) = 0.47733 0.14596
#
# Static dielectric constant tensor:
#      x y z
#    x 2.078590 0.000000 -0.082220 
#    y 0.000000 2.041660 0.000000 
#    z -0.082220 0.000000 2.248440 
# 
# From -- ./inp_files/162480.got.cif
#   From: 2010.05.17/outbox.cif.g08.bks.cpg/sg15_82_cif.got.tgz:162480.got - 2010.06.03 18:47:42.
