data_PCOD9288614
_publ_section_title
;
Structure prediction by ZEFSAII (Michael W. Deem and Ramdas Pophale) SiO2 
 PCOD9288614
Probable space group: C 2/C
;
_chemical_formula_sum "Si O2"
_cell_formula_units_Z 40
_cell_length_a 26.416512
_cell_length_b 5.283033
_cell_length_c 9.509456
_cell_angle_alpha 90.000000
_cell_angle_beta 86.599166
_cell_angle_gamma 90.000000
_cell_volume 1324.795938
_symmetry_space_group_name_H-M "C 2/C"
_symmetry_group_IT_number 15
_symmetry_cell_setting 'monoclinic'
loop_
_space_group_symop_operation_xyz
x,y,z
-x,y,1/2-z
-x,-y,-z
x,-y,1/2+z
1/2+x,1/2+y,z
1/2-x,1/2+y,1/2-z
1/2-x,1/2-y,-z
1/2+x,1/2-y,1/2+z
loop_
_atom_site_type_symbol
_atom_site_label
_atom_site_fract_x
_atom_site_fract_y
_atom_site_fract_z
Si Si1 0.941465 0.015002 0.839648
Si Si2 0.639425 0.991270 0.808797
Si Si3 0.965739 0.273529 0.091610
Si Si4 0.243543 0.601073 0.834610
Si Si5 0.338880 0.652141 0.456048
O O1 0.946089 0.984836 0.673215
O O2 0.884023 0.025655 0.896891
O O3 0.974672 0.764949 0.878835
O O4 0.965400 0.240715 0.924244
O O5 0.580586 0.046241 0.855733
O O6 0.648529 0.105856 0.650536
O O7 0.684722 0.141745 0.884173
O O8 0.652610 0.724722 0.882991
O O9 0.260941 0.875298 0.780356
O O10 0.284223 0.466804 0.929553
#
# Coordination Sequence:
#
# PCOD9288614 Si02
#       5
#     8   8   8   8   8
#     4   9  19  36  59  90 127 173 226 280 341 404
#     4  10  22  40  61  91 129 174 222 276 337 401
#     4   9  19  37  60  89 129 173 226 281 339 406
#     4  10  23  44  69 100 137 179 229 283 341 406
#     4  10  22  39  62  92 129 174 226 280 339 406
#
# _framework density 30.193327
#
# number of rings (size 3 to 8) (size 9 to 14) (size 15 to 20)
#    0.000    2.400    0.000    0.600    0.000   10.400 
#    0.000   18.000    0.000    0.000    0.000    0.000 
#    0.000    0.000    0.000    0.000    0.000    0.000 
#
# Total GULP energy -111460.546103 kJ/mol
# GULP energy per Si atom -5573.027305 kJ/mol
# Density = 3.012461 g / cm^3
# Si number density = 30.193327 Si / 1000 Ang^3
#
#
#
# Elastic Constant Matrix: (Units=GPa)
#
#
# Indices 1 2 3 4 5 6 
#
# 1 196.3682 29.3924 12.7991 0.0000 21.9906 0.0000
# 2 29.3924 131.6324 30.9653 0.0000 17.7708 0.0000
# 3 12.7991 30.9653 92.2517 0.0000 2.9704 0.0000
# 4 0.0000 0.0000 0.0000 31.5208 0.0000 8.3638
# 5 21.9906 17.7708 2.9704 0.0000 53.1933 0.0000
# 6 0.0000 0.0000 0.0000 8.3638 0.0000 38.7717
#
#
#
# Elastic Compliance Matrix: (Units=1/GPa)
#
#
# Indices 1 2 3 4 5 6 
#
# 1 0.005466 -0.000862 -0.000406 0.000000 -0.001949 0.000000
# 2 -0.000862 0.008761 -0.002743 0.000000 -0.002417 0.000000
# 3 -0.000406 -0.002743 0.011803 0.000000 0.000425 0.000000
# 4 0.000000 0.000000 0.000000 0.033651 0.000000 -0.007259
# 5 -0.001949 -0.002417 0.000425 0.000000 0.020389 0.000000
# 6 0.000000 0.000000 0.000000 -0.007259 0.000000 0.027358
#
#
# Mechanical properties :
#
#
# Convention : Reuss Voigt Hill
#
# Bulk Modulus (GPa) = 55.53184 62.95177 59.24181
# Shear Modulus (GPa) = 41.16764 47.83685 44.50225
#
# Velocity S-wave (km/s) = 3.69652 3.98471 3.84332
# Velocity P-wave (km/s) = 6.05401 6.48578 6.27361
#
# Compressibility (1/GPa) = 0.01800769
#
# Stress axis : x y z
#
# Youngs Moduli (GPa) = 182.94113 114.14154 84.72116
#
# Poissons Ratio (x) = 0.09837 0.03443
# Poissons Ratio (y) = 0.15766 0.23242
# Poissons Ratio (z) = 0.07434 0.31313
#
# Static dielectric constant tensor:
#      x y z
#    x 2.399920 0.000000 -0.039730 
#    y 0.000000 2.326020 0.000000 
#    z -0.039730 0.000000 2.393110 
# 
# From -- ./inp_files/120819.got.cif
#   From: 2010.05.17/outbox.cif.g08.bks.cpg/sg15_61_cif.got.tgz:120819.got - 2010.06.03 18:47:42.
