data_PCOD9288092
_publ_section_title
;
Structure prediction by ZEFSAII (Michael W. Deem and Ramdas Pophale) SiO2 
 PCOD9288092
Probable space group: C 2/C
;
_chemical_formula_sum "Si O2"
_cell_formula_units_Z 48
_cell_length_a 8.079759
_cell_length_b 29.332955
_cell_length_c 12.217201
_cell_angle_alpha 90.000000
_cell_angle_beta 45.752315
_cell_angle_gamma 90.000000
_cell_volume 2074.145243
_symmetry_space_group_name_H-M "C 2/C"
_symmetry_group_IT_number 15
_symmetry_cell_setting 'monoclinic'
loop_
_space_group_symop_operation_xyz
x,y,z
-x,y,1/2-z
-x,-y,-z
x,-y,1/2+z
1/2+x,1/2+y,z
1/2-x,1/2+y,1/2-z
1/2-x,1/2-y,-z
1/2+x,1/2-y,1/2+z
loop_
_atom_site_type_symbol
_atom_site_label
_atom_site_fract_x
_atom_site_fract_y
_atom_site_fract_z
Si Si1 0.486696 0.158252 0.034530
Si Si2 0.656840 0.619946 0.782582
Si Si3 0.785895 0.760444 0.781779
Si Si4 0.881524 0.470422 0.192158
Si Si5 0.267428 0.936645 0.658139
Si Si6 0.899105 0.809050 0.501194
O O1 0.305401 0.198239 0.100183
O O2 0.373622 0.112625 0.137257
O O3 0.602393 0.142043 0.867536
O O4 0.671876 0.179911 0.034514
O O5 0.500000 0.631296 0.750000
O O6 0.676134 0.565852 0.776813
O O7 0.539118 0.643222 0.940850
O O8 0.845910 0.784590 0.639528
O O9 0.581304 0.724436 0.857771
O O10 0.000000 0.739855 0.750000
O O11 0.796057 0.522324 0.230816
O O12 0.000000 0.459565 0.250000
O O13 0.072176 0.457092 0.013276
O O14 0.000000 0.931803 0.750000
#
# Coordination Sequence:
#
# PCOD9288092 Si02
#       6
#     8   8   8   8   8   8
#     4  10  22  41  63  89 123 164 212 261 315 375
#     4   9  20  40  64  89 121 162 208 260 315 374
#     4  12  25  41  62  92 126 164 209 260 318 380
#     4  10  22  38  63  95 128 168 212 258 317 378
#     4  10  22  42  64  92 131 169 212 266 315 371
#     4  11  24  42  66  91 124 167 213 260 317 383
#
# _framework density 23.142061999999999
#
# number of rings (size 3 to 8) (size 9 to 14) (size 15 to 20)
#    0.000    1.667    0.000    3.500    0.000   10.667 
#    0.000    0.000    0.000    0.000    0.000    0.000 
#    0.000    0.000    0.000    0.000    0.000    0.000 
#
# Total GULP energy -134096.129450 kJ/mol
# GULP energy per Si atom -5587.338727 kJ/mol
# Density = 2.308939 g / cm^3
# Si number density = 23.142062 Si / 1000 Ang^3
#
#
#
# Elastic Constant Matrix: (Units=GPa)
#
#
# Indices 1 2 3 4 5 6 
#
# 1 71.8408 25.2281 20.7623 0.0000 -15.9457 0.0000
# 2 25.2281 116.6606 35.2805 0.0000 -27.2654 0.0000
# 3 20.7623 35.2805 47.9787 0.0000 -19.3278 0.0000
# 4 0.0000 0.0000 0.0000 27.9197 0.0000 -7.0052
# 5 -15.9457 -27.2654 -19.3278 0.0000 25.7782 0.0000
# 6 0.0000 0.0000 0.0000 -7.0052 0.0000 15.0244
#
#
#
# Elastic Compliance Matrix: (Units=1/GPa)
#
#
# Indices 1 2 3 4 5 6 
#
# 1 0.016830 -0.000924 -0.004017 0.000000 0.006422 0.000000
# 2 -0.000924 0.012359 -0.005233 0.000000 0.008577 0.000000
# 3 -0.004017 -0.005233 0.033237 0.000000 0.016901 0.000000
# 4 0.000000 0.000000 0.000000 0.040562 0.000000 0.018912
# 5 0.006422 0.008577 0.016901 0.000000 0.064508 0.000000
# 6 0.000000 0.000000 0.000000 0.018912 0.000000 0.075376
#
#
# Mechanical properties :
#
#
# Convention : Reuss Voigt Hill
#
# Bulk Modulus (GPa) = 23.76485 44.33575 34.05030
# Shear Modulus (GPa) = 18.03451 24.09176 21.06313
#
# Velocity S-wave (km/s) = 2.79462 3.23001 3.02017
# Velocity P-wave (km/s) = 4.55023 5.75416 5.18724
#
# Compressibility (1/GPa) = 0.04207895
#
# Stress axis : x y z
#
# Youngs Moduli (GPa) = 59.41638 80.91444 30.08685
#
# Poissons Ratio (x) = 0.07476 0.12085
# Poissons Ratio (y) = 0.05490 0.15744
# Poissons Ratio (z) = 0.23866 0.42342
#
# Static dielectric constant tensor:
#      x y z
#    x 1.817010 0.000000 -0.029220 
#    y 0.000000 1.893900 0.000000 
#    z -0.029220 0.000000 1.991330 
# 
# From -- ./inp_files/138887.got.cif
#   From: 2010.05.17/outbox.cif.g08.bks.cpg/sg15_70_cif.got.tgz:138887.got - 2010.06.03 18:47:42.
