data_PCOD9288202
_publ_section_title
;
Structure prediction by ZEFSAII (Michael W. Deem and Ramdas Pophale) SiO2 
 PCOD9288202
Probable space group: C 2/C
;
_chemical_formula_sum "Si O2"
_cell_formula_units_Z 48
_cell_length_a 6.349332
_cell_length_b 20.486694
_cell_length_c 17.690386
_cell_angle_alpha 90.000000
_cell_angle_beta 77.521872
_cell_angle_gamma 90.000000
_cell_volume 2246.753673
_symmetry_space_group_name_H-M "C 2/C"
_symmetry_group_IT_number 15
_symmetry_cell_setting 'monoclinic'
loop_
_space_group_symop_operation_xyz
x,y,z
-x,y,1/2-z
-x,-y,-z
x,-y,1/2+z
1/2+x,1/2+y,z
1/2-x,1/2+y,1/2-z
1/2-x,1/2-y,-z
1/2+x,1/2-y,1/2+z
loop_
_atom_site_type_symbol
_atom_site_label
_atom_site_fract_x
_atom_site_fract_y
_atom_site_fract_z
Si Si1 0.407460 0.308861 0.977160
Si Si2 0.879564 0.629546 0.130405
Si Si3 0.816261 0.473555 0.961414
Si Si4 0.000000 0.150559 0.750000
Si Si5 0.940654 0.083989 0.596289
Si Si6 0.276544 0.227993 0.341880
Si Si7 0.500000 0.362109 0.750000
O O1 0.273842 0.354560 0.928968
O O2 0.632105 0.279268 0.928832
O O3 0.250000 0.250000 0.000000
O O4 0.422257 0.347934 0.053298
O O5 0.700192 0.598687 0.199718
O O6 0.080922 0.584910 0.094320
O O7 0.992821 0.693557 0.158141
O O8 0.738571 0.530737 0.911948
O O9 0.641847 0.447981 0.035408
O O10 0.000000 0.500000 0.000000
O O11 0.942868 0.103710 0.683734
O O12 0.824250 0.201597 0.800409
O O13 0.123880 0.185333 0.298611
#
# Coordination Sequence:
#
# PCOD9288202 Si02
#       7
#     8   8   8   4   8   8   4
#     4  11  24  39  72 107 137 188 241 286 355 441
#     4  11  21  42  70 102 137 190 238 300 352 417
#     4  11  24  49  76  96 140 196 256 295 343 431
#     4  12  26  46  71 106 159 178 222 312 380 422
#     4  11  26  46  73 108 142 192 248 294 357 435
#     4  11  23  42  67 105 146 185 227 294 366 434
#     4  10  22  38  65 108 143 178 236 290 366 430
#
# _framework density 21.364156000000001
#
# number of rings (size 3 to 8) (size 9 to 14) (size 15 to 20)
#    0.000    1.000    5.000    1.000    4.667    1.333 
#    0.000    5.000    0.000    0.000    0.000    0.000 
#    0.000    0.000    0.000    0.000    0.000    0.000 
#
# Total GULP energy -133793.736783 kJ/mol
# GULP energy per Si atom -5574.739033 kJ/mol
# Density = 2.131553 g / cm^3
# Si number density = 21.364156 Si / 1000 Ang^3
#
#
#
# Elastic Constant Matrix: (Units=GPa)
#
#
# Indices 1 2 3 4 5 6 
#
# 1 85.8537 24.6691 55.2121 0.0000 -7.4067 0.0000
# 2 24.6691 90.1650 62.0088 0.0000 0.0762 0.0000
# 3 55.2121 62.0088 147.8425 0.0000 11.9573 0.0000
# 4 0.0000 0.0000 0.0000 36.6394 0.0000 3.9330
# 5 -7.4067 0.0762 11.9573 0.0000 39.6578 0.0000
# 6 0.0000 0.0000 0.0000 3.9330 0.0000 26.3586
#
#
#
# Elastic Compliance Matrix: (Units=1/GPa)
#
#
# Indices 1 2 3 4 5 6 
#
# 1 0.016236 0.000001 -0.006467 0.000000 0.004982 0.000000
# 2 0.000001 0.015741 -0.006765 0.000000 0.002010 0.000000
# 3 -0.006467 -0.006765 0.012416 0.000000 -0.004938 0.000000
# 4 0.000000 0.000000 0.000000 0.027737 0.000000 -0.004139
# 5 0.004982 0.002010 -0.004938 0.000000 0.027631 0.000000
# 6 0.000000 0.000000 0.000000 -0.004139 0.000000 0.038556
#
#
# Mechanical properties :
#
#
# Convention : Reuss Voigt Hill
#
# Bulk Modulus (GPa) = 55.76839 67.51567 61.64203
# Shear Modulus (GPa) = 29.28141 32.66257 30.97199
#
# Velocity S-wave (km/s) = 3.70616 3.91429 3.81165
# Velocity P-wave (km/s) = 6.66892 7.21802 6.94890
#
# Compressibility (1/GPa) = 0.01793130
#
# Stress axis : x y z
#
# Youngs Moduli (GPa) = 61.59164 63.52646 80.54199
#
# Poissons Ratio (x) = -0.00006 0.52084
# Poissons Ratio (y) = -0.00006 0.54489
# Poissons Ratio (z) = 0.39830 0.42977
#
# Static dielectric constant tensor:
#      x y z
#    x 1.843420 0.000000 0.314370 
#    y 0.000000 1.924480 0.000000 
#    z 0.314370 0.000000 3.503260 
# 
# From -- ./inp_files/185253.got.cif
#   From: 2010.05.17/outbox.cif.g08.bks.cpg/sg15_93_cif.got.tgz:185253.got - 2010.06.03 18:47:42.
