data_PCOD9288674
_publ_section_title
;
Structure prediction by ZEFSAII (Michael W. Deem and Ramdas Pophale) SiO2 
 PCOD9288674
Probable space group: C 2/C
;
_chemical_formula_sum "Si O2"
_cell_formula_units_Z 56
_cell_length_a 17.523260
_cell_length_b 20.401880
_cell_length_c 14.268059
_cell_angle_alpha 90.000000
_cell_angle_beta 29.532971
_cell_angle_gamma 90.000000
_cell_volume 2514.376113
_symmetry_space_group_name_H-M "C 2/C"
_symmetry_group_IT_number 15
_symmetry_cell_setting 'monoclinic'
loop_
_space_group_symop_operation_xyz
x,y,z
-x,y,1/2-z
-x,-y,-z
x,-y,1/2+z
1/2+x,1/2+y,z
1/2-x,1/2+y,1/2-z
1/2-x,1/2-y,-z
1/2+x,1/2-y,1/2+z
loop_
_atom_site_type_symbol
_atom_site_label
_atom_site_fract_x
_atom_site_fract_y
_atom_site_fract_z
Si Si1 0.827287 0.108766 0.098897
Si Si2 0.914654 0.029850 0.438632
Si Si3 0.867117 0.193906 0.696277
Si Si4 0.368390 0.105960 0.828264
Si Si5 0.923866 0.714554 0.622630
Si Si6 0.183468 0.324966 0.569319
Si Si7 0.341974 0.357566 0.776387
O O1 0.973334 0.156078 0.958013
O O2 0.892945 0.035826 0.020028
O O3 0.740772 0.132613 0.096931
O O4 0.746804 0.119168 0.285811
O O5 0.741737 0.056133 0.607492
O O6 0.000000 0.011729 0.250000
O O7 0.017725 0.089928 0.366598
O O8 0.739296 0.196460 0.751425
O O9 0.945009 0.267514 0.596388
O O10 0.767583 0.157126 0.883226
O O11 0.500000 0.072224 0.750000
O O12 0.443665 0.159331 0.679566
O O13 0.253722 0.139570 0.026026
O O14 0.903752 0.784117 0.696964
O O15 0.250000 0.250000 0.500000
O O16 0.000000 0.325183 0.750000
#
# Coordination Sequence:
#
# PCOD9288674 Si02
#       7
#     8   8   8   8   8   8   8
#     4  11  23  43  68  95 131 177 222 272 324 395
#     4  10  22  42  65  93 130 176 225 268 324 397
#     4  11  23  38  63  94 127 170 216 264 326 390
#     4  11  23  38  61  92 129 168 215 274 328 384
#     4  11  22  39  61  93 128 165 213 273 330 385
#     4  12  24  39  62  95 133 172 216 269 326 388
#     4  10  22  39  63  92 125 170 218 266 325 395
#
# _framework density 22.271927000000002
#
# number of rings (size 3 to 8) (size 9 to 14) (size 15 to 20)
#    0.000    1.143    0.000    8.143    0.000    3.429 
#    0.000    0.714    0.000    0.000    0.000    0.000 
#    0.000    0.000    0.000    0.000    0.000    0.000 
#
# Total GULP energy -156005.948326 kJ/mol
# GULP energy per Si atom -5571.641012 kJ/mol
# Density = 2.222124 g / cm^3
# Si number density = 22.271927 Si / 1000 Ang^3
#
#
#
# Elastic Constant Matrix: (Units=GPa)
#
#
# Indices 1 2 3 4 5 6 
#
# 1 121.4953 36.9216 42.4413 -0.0012 -21.2973 0.0028
# 2 36.9216 81.2556 27.5001 0.0042 -6.3389 -0.0005
# 3 42.4413 27.5001 99.7537 0.0031 -4.1162 0.0001
# 4 -0.0012 0.0042 0.0031 13.4198 0.0004 2.8134
# 5 -21.2973 -6.3389 -4.1162 0.0004 34.4196 -0.0011
# 6 0.0028 -0.0005 0.0001 2.8134 -0.0011 36.7571
#
#
#
# Elastic Compliance Matrix: (Units=1/GPa)
#
#
# Indices 1 2 3 4 5 6 
#
# 1 0.011697 -0.003571 -0.003739 0.000003 0.006133 -0.000001
# 2 -0.003571 0.014811 -0.002555 -0.000005 0.000212 0.000001
# 3 -0.003739 -0.002555 0.012266 -0.000002 -0.001317 0.000000
# 4 0.000003 -0.000005 -0.000002 0.075732 0.000000 -0.005797
# 5 0.006133 0.000212 -0.001317 0.000000 0.032730 0.000001
# 6 -0.000001 0.000001 0.000000 -0.005797 0.000001 0.027649
#
#
# Mechanical properties :
#
#
# Convention : Reuss Voigt Hill
#
# Bulk Modulus (GPa) = 52.51234 57.35897 54.93565
# Shear Modulus (GPa) = 24.88026 29.96208 27.42117
#
# Velocity S-wave (km/s) = 3.34595 3.67179 3.51265
# Velocity P-wave (km/s) = 6.20936 6.61709 6.41647
#
# Compressibility (1/GPa) = 0.01904314
#
# Stress axis : x y z
#
# Youngs Moduli (GPa) = 85.49000 67.51830 81.52933
#
# Poissons Ratio (x) = 0.24112 0.30485
# Poissons Ratio (y) = 0.30530 0.20830
# Poissons Ratio (z) = 0.31966 0.17250
#
# Static dielectric constant tensor:
#      x y z
#    x 1.859900 0.000000 0.056210 
#    y 0.000000 1.807000 0.000000 
#    z 0.056210 0.000000 1.975670 
# 
# From -- ./inp_files/163745.got.cif
#   From: 2010.05.17/outbox.cif.g08.bks.cpg/sg15_82_cif.got.tgz:163745.got - 2010.06.03 18:47:42.
