data_PCOD9288791
_publ_section_title
;
Structure prediction by ZEFSAII (Michael W. Deem and Ramdas Pophale) SiO2 
 PCOD9288791
Probable space group: C 2/C
;
_chemical_formula_sum "Si O2"
_cell_formula_units_Z 60
_cell_length_a 18.767595
_cell_length_b 22.143873
_cell_length_c 8.671956
_cell_angle_alpha 90.000000
_cell_angle_beta 136.966271
_cell_angle_gamma 90.000000
_cell_volume 2459.442098
_symmetry_space_group_name_H-M "C 2/C"
_symmetry_group_IT_number 15
_symmetry_cell_setting 'monoclinic'
loop_
_space_group_symop_operation_xyz
x,y,z
-x,y,1/2-z
-x,-y,-z
x,-y,1/2+z
1/2+x,1/2+y,z
1/2-x,1/2+y,1/2-z
1/2-x,1/2-y,-z
1/2+x,1/2-y,1/2+z
loop_
_atom_site_type_symbol
_atom_site_label
_atom_site_fract_x
_atom_site_fract_y
_atom_site_fract_z
Si Si1 0.921301 0.570831 0.003737
Si Si2 0.136175 0.028580 0.066921
Si Si3 0.572301 0.421971 0.148376
Si Si4 0.000000 0.769111 0.750000
Si Si5 0.739431 0.152851 0.579494
Si Si6 0.779647 0.190806 0.956902
Si Si7 0.828387 0.577768 0.547943
Si Si8 0.425177 0.841422 0.933540
O O1 0.823742 0.595093 0.949485
O O2 0.880991 0.543362 0.777626
O O3 0.000000 0.539039 0.250000
O O4 0.990142 0.627054 0.044722
O O5 0.246923 0.039461 0.319970
O O6 0.094174 0.961773 0.033099
O O7 0.130963 0.041675 0.878815
O O8 0.049158 0.074103 0.002501
O O9 0.638376 0.361342 0.248444
O O10 0.903934 0.810174 0.646002
O O11 0.966001 0.721737 0.563535
O O12 0.733885 0.198103 0.712797
O O13 0.679681 0.168669 0.330491
O O14 0.750000 0.250000 0.000000
O O15 0.732898 0.132068 0.963182
O O16 0.898380 0.612616 0.531305
#
# Coordination Sequence:
#
# PCOD9288791 Si02
#       8
#     8   8   8   4   8   8   8   8
#     4   9  19  34  60  90 114 160 210 250 309 380
#     4  10  23  39  66  94 131 165 212 261 329 393
#     4  10  22  42  62  99 128 167 210 264 327 394
#     4  12  22  38  60  86 122 162 212 262 318 370
#     4  10  22  39  65  90 124 164 215 259 316 388
#     4  11  24  40  57  91 126 167 214 261 314 381
#     4  11  20  39  63  90 123 167 208 264 319 384
#     4  11  19  39  65  86 118 168 210 258 318 375
#
# _framework density 24.395776000000001
#
# number of rings (size 3 to 8) (size 9 to 14) (size 15 to 20)
#    0.000    1.600    4.000    0.800    5.600    0.533 
#    0.000    0.000    0.000    8.800    1.733    0.000 
#    0.000    0.000    0.000    0.000    0.000    0.000 
#
# Total GULP energy -167780.108276 kJ/mol
# GULP energy per Si atom -5592.670276 kJ/mol
# Density = 2.434025 g / cm^3
# Si number density = 24.395776 Si / 1000 Ang^3
#
#
#
# Elastic Constant Matrix: (Units=GPa)
#
#
# Indices 1 2 3 4 5 6 
#
# 1 87.6939 22.1323 22.0465 0.0000 5.4921 0.0000
# 2 22.1323 44.7927 22.0245 0.0000 -7.8536 0.0000
# 3 22.0465 22.0245 164.4550 0.0000 -16.1438 0.0000
# 4 0.0000 0.0000 0.0000 20.2837 0.0000 -7.9490
# 5 5.4921 -7.8536 -16.1438 0.0000 49.1698 0.0000
# 6 0.0000 0.0000 0.0000 -7.9490 0.0000 35.6097
#
#
#
# Elastic Compliance Matrix: (Units=1/GPa)
#
#
# Indices 1 2 3 4 5 6 
#
# 1 0.013569 -0.006625 -0.001224 0.000000 -0.002976 0.000000
# 2 -0.006625 0.027528 -0.002371 0.000000 0.004358 0.000000
# 3 -0.001224 -0.002371 0.006756 0.000000 0.001976 0.000000
# 4 0.000000 0.000000 0.000000 0.054027 0.000000 0.012060
# 5 -0.002976 0.004358 0.001976 0.000000 0.022015 0.000000
# 6 0.000000 0.000000 0.000000 0.012060 0.000000 0.030774
#
#
# Mechanical properties :
#
#
# Convention : Reuss Voigt Hill
#
# Bulk Modulus (GPa) = 36.47616 47.70535 42.09076
# Shear Modulus (GPa) = 27.13746 36.39521 31.76634
#
# Velocity S-wave (km/s) = 3.33886 3.86666 3.61241
# Velocity P-wave (km/s) = 5.46336 6.28744 5.88983
#
# Compressibility (1/GPa) = 0.02741516
#
# Stress axis : x y z
#
# Youngs Moduli (GPa) = 73.69582 36.32637 148.01036
#
# Poissons Ratio (x) = 0.24065 0.18116
# Poissons Ratio (y) = 0.48820 0.35090
# Poissons Ratio (z) = 0.09020 0.08612
#
# Static dielectric constant tensor:
#      x y z
#    x 1.901270 0.000000 0.008220 
#    y 0.000000 1.897260 0.000000 
#    z 0.008220 0.000000 1.972800 
# 
# From -- ./inp_files/58778.got.cif
#   From: 2010.05.17/outbox.cif.g08.bks.cpg/sg15_30_cif.got.tgz:58778.got - 2010.06.03 18:47:42.
