data_PCOD9288753
_publ_section_title
;
Structure prediction by ZEFSAII (Michael W. Deem and Ramdas Pophale) SiO2 
 PCOD9288753
Probable space group: C 2/C
;
_chemical_formula_sum "Si O2"
_cell_formula_units_Z 40
_cell_length_a 11.366742
_cell_length_b 16.528513
_cell_length_c 15.263601
_cell_angle_alpha 90.000000
_cell_angle_beta 137.654231
_cell_angle_gamma 90.000000
_cell_volume 1931.660895
_symmetry_space_group_name_H-M "C 2/C"
_symmetry_group_IT_number 15
_symmetry_cell_setting 'monoclinic'
loop_
_space_group_symop_operation_xyz
x,y,z
-x,y,1/2-z
-x,-y,-z
x,-y,1/2+z
1/2+x,1/2+y,z
1/2-x,1/2+y,1/2-z
1/2-x,1/2-y,-z
1/2+x,1/2-y,1/2+z
loop_
_atom_site_type_symbol
_atom_site_label
_atom_site_fract_x
_atom_site_fract_y
_atom_site_fract_z
Si Si1 0.195067 0.794430 0.247757
Si Si2 0.155878 0.531152 0.467691
Si Si3 0.295642 0.739964 0.126255
Si Si4 0.000000 0.345379 0.750000
Si Si5 0.466144 0.118547 0.523923
Si Si6 0.500000 0.430689 0.250000
O O1 0.194195 0.793471 0.142208
O O2 0.107227 0.715143 0.244032
O O3 0.399038 0.808775 0.382966
O O4 0.097596 0.870937 0.235814
O O5 0.128681 0.593803 0.373405
O O6 0.051351 0.573104 0.489586
O O7 0.353318 0.523817 0.612375
O O8 0.066140 0.442875 0.413057
O O9 0.500000 0.748746 0.250000
O O10 0.250000 0.750000 0.000000
O O11 0.221708 0.651331 0.107521
#
# Coordination Sequence:
#
# PCOD9288753 Si02
#       6
#     8   8   8   4   8   4
#     4  10  22  40  66  95 123 162 220 266 313 369
#     4  10  22  39  64  93 127 168 198 268 324 377
#     4  12  24  38  61  88 123 170 211 257 310 381
#     4  11  22  38  72  98 123 160 222 269 316 372
#     4  10  22  42  61  87 134 165 209 252 325 379
#     4   9  22  38  66  92 127 160 212 265 318 374
#
# _framework density 20.707567999999998
#
# number of rings (size 3 to 8) (size 9 to 14) (size 15 to 20)
#    0.000    1.600    4.000    0.000    4.200    4.000 
#    0.000    0.000    0.000    6.000    0.000    0.000 
#    0.000    0.000    0.000    0.000    0.000    0.000 
#
# Total GULP energy -111372.122958 kJ/mol
# GULP energy per Si atom -5568.606148 kJ/mol
# Density = 2.066044 g / cm^3
# Si number density = 20.707568 Si / 1000 Ang^3
#
#
#
# Elastic Constant Matrix: (Units=GPa)
#
#
# Indices 1 2 3 4 5 6 
#
# 1 113.9017 14.1023 44.0150 0.0000 -0.4486 0.0000
# 2 14.1023 31.4020 14.1558 0.0000 12.8608 0.0000
# 3 44.0150 14.1558 105.0668 0.0000 2.4198 0.0000
# 4 0.0000 0.0000 0.0000 21.4288 0.0000 -2.1342
# 5 -0.4486 12.8608 2.4198 0.0000 30.6030 0.0000
# 6 0.0000 0.0000 0.0000 -2.1342 0.0000 6.7238
#
#
#
# Elastic Compliance Matrix: (Units=1/GPa)
#
#
# Indices 1 2 3 4 5 6 
#
# 1 0.010842 -0.003906 -0.004065 0.000000 0.002122 0.000000
# 2 -0.003906 0.042473 -0.003680 0.000000 -0.017615 0.000000
# 3 -0.004065 -0.003680 0.011703 0.000000 0.000562 0.000000
# 4 0.000000 0.000000 0.000000 0.048190 0.000000 0.015296
# 5 0.002122 -0.017615 0.000562 0.000000 0.040066 0.000000
# 6 0.000000 0.000000 0.000000 0.015296 0.000000 0.153581
#
#
# Mechanical properties :
#
#
# Convention : Reuss Voigt Hill
#
# Bulk Modulus (GPa) = 23.97137 43.87964 33.92550
# Shear Modulus (GPa) = 14.53226 23.62427 19.07827
#
# Velocity S-wave (km/s) = 2.65200 3.38131 3.03862
# Velocity P-wave (km/s) = 4.58025 6.03991 5.36000
#
# Compressibility (1/GPa) = 0.04171644
#
# Stress axis : x y z
#
# Youngs Moduli (GPa) = 92.23271 23.54462 85.44464
#
# Poissons Ratio (x) = 0.09196 0.34730
# Poissons Ratio (y) = 0.36023 0.31448
# Poissons Ratio (z) = 0.37490 0.08666
#
# Static dielectric constant tensor:
#      x y z
#    x 1.776690 0.000000 0.005920 
#    y 0.000000 1.822580 0.000000 
#    z 0.005920 0.000000 1.784830 
# 
# From -- ./inp_files/29127.got.cif
#   From: 2010.05.17/outbox.cif.g08.bks.cpg/sg15_15_cif.got.tgz:29127.got - 2010.06.03 18:47:42.
