data_PCOD9288373
_publ_section_title
;
Structure prediction by ZEFSAII (Michael W. Deem and Ramdas Pophale) SiO2 
 PCOD9288373
Probable space group: C 2/C
;
_chemical_formula_sum "Si O2"
_cell_formula_units_Z 52
_cell_length_a 19.393838
_cell_length_b 16.274638
_cell_length_c 8.778346
_cell_angle_alpha 90.000000
_cell_angle_beta 128.327859
_cell_angle_gamma 90.000000
_cell_volume 2173.536111
_symmetry_space_group_name_H-M "C 2/C"
_symmetry_group_IT_number 15
_symmetry_cell_setting 'monoclinic'
loop_
_space_group_symop_operation_xyz
x,y,z
-x,y,1/2-z
-x,-y,-z
x,-y,1/2+z
1/2+x,1/2+y,z
1/2-x,1/2+y,1/2-z
1/2-x,1/2-y,-z
1/2+x,1/2-y,1/2+z
loop_
_atom_site_type_symbol
_atom_site_label
_atom_site_fract_x
_atom_site_fract_y
_atom_site_fract_z
Si Si1 0.794277 0.726678 0.218867
Si Si2 0.358710 0.513835 0.956928
Si Si3 0.060212 0.549948 0.466136
Si Si4 0.966608 0.826436 0.528865
Si Si5 0.212276 0.422710 0.626061
Si Si6 0.000000 0.889948 0.250000
Si Si7 0.794898 0.646500 0.686582
O O1 0.890847 0.762414 0.379867
O O2 0.794842 0.628028 0.227898
O O3 0.736681 0.775920 0.264382
O O4 0.750000 0.750000 0.000000
O O5 0.309336 0.460830 0.759540
O O6 0.275317 0.570747 0.893580
O O7 0.427588 0.582099 0.999834
O O8 0.413512 0.449531 0.134936
O O9 0.136012 0.489240 0.505592
O O10 0.111778 0.620508 0.621620
O O11 0.000000 0.500000 0.500000
O O12 0.000000 0.581975 0.250000
O O13 0.014461 0.839212 0.428566
O O14 0.000000 0.805564 0.750000
O O15 0.196879 0.351786 0.482016
#
# Coordination Sequence:
#
# PCOD9288373 Si02
#       7
#     8   8   8   8   8   4   8
#     4  11  26  46  63  92 138 180 223 269 333 403
#     4  10  22  38  72 102 132 165 221 272 334 399
#     4  11  23  42  69  99 128 163 222 281 332 386
#     4  11  25  44  66 101 135 174 224 276 334 400
#     4  11  23  42  69  95 130 176 218 268 334 399
#     4  12  22  40  68 100 138 168 216 280 336 394
#     4  10  23  43  68  96 129 177 218 271 331 401
#
# _framework density 23.924149
#
# number of rings (size 3 to 8) (size 9 to 14) (size 15 to 20)
#    0.000    1.231    2.308    2.769    6.462    3.077 
#    2.769    0.000    1.692    0.000    0.000    0.000 
#    0.000    0.000    0.000    0.000    0.000    0.000 
#
# Total GULP energy -145038.290026 kJ/mol
# GULP energy per Si atom -5578.395770 kJ/mol
# Density = 2.386970 g / cm^3
# Si number density = 23.924149 Si / 1000 Ang^3
#
#
#
# Elastic Constant Matrix: (Units=GPa)
#
#
# Indices 1 2 3 4 5 6 
#
# 1 49.5824 -3.0318 27.3092 0.0000 9.8242 0.0000
# 2 -3.0318 45.3320 31.6290 0.0000 11.5704 0.0000
# 3 27.3092 31.6290 190.0307 0.0000 9.1693 0.0000
# 4 0.0000 0.0000 0.0000 30.8611 0.0000 -0.7810
# 5 9.8242 11.5704 9.1693 0.0000 29.5728 0.0000
# 6 0.0000 0.0000 0.0000 -0.7810 0.0000 13.7114
#
#
#
# Elastic Compliance Matrix: (Units=1/GPa)
#
#
# Indices 1 2 3 4 5 6 
#
# 1 0.024903 0.007150 -0.004299 0.000000 -0.009737 0.000000
# 2 0.007150 0.029372 -0.005327 0.000000 -0.012216 0.000000
# 3 -0.004299 -0.005327 0.006697 0.000000 0.001436 0.000000
# 4 0.000000 0.000000 0.000000 0.032450 0.000000 0.001848
# 5 -0.009737 -0.012216 0.001436 0.000000 0.041384 0.000000
# 6 0.000000 0.000000 0.000000 0.001848 0.000000 0.073037
#
#
# Mechanical properties :
#
#
# Convention : Reuss Voigt Hill
#
# Bulk Modulus (GPa) = 17.85029 44.08421 30.96725
# Shear Modulus (GPa) = 21.60116 30.09830 25.84973
#
# Velocity S-wave (km/s) = 3.00809 3.55078 3.29064
# Velocity P-wave (km/s) = 4.42066 5.93948 5.23544
#
# Compressibility (1/GPa) = 0.05602150
#
# Stress axis : x y z
#
# Youngs Moduli (GPa) = 40.15599 34.04570 149.31025
#
# Poissons Ratio (x) = -0.24344 0.64189
# Poissons Ratio (y) = -0.28713 0.79536
# Poissons Ratio (z) = 0.17263 0.18136
#
# Static dielectric constant tensor:
#      x y z
#    x 1.700560 0.000000 -0.274120 
#    y 0.000000 1.884820 0.000000 
#    z -0.274120 0.000000 1.798970 
# 
# From -- ./inp_files/57081.got.cif
#   From: 2010.05.17/outbox.cif.g08.bks.cpg/sg15_29_cif.got.tgz:57081.got - 2010.06.03 18:47:42.
