data_PCOD9288091
_publ_section_title
;
Structure prediction by ZEFSAII (Michael W. Deem and Ramdas Pophale) SiO2 
 PCOD9288091
Probable space group: C 2/C
;
_chemical_formula_sum "Si O2"
_cell_formula_units_Z 44
_cell_length_a 12.346588
_cell_length_b 18.443953
_cell_length_c 13.388068
_cell_angle_alpha 90.000000
_cell_angle_beta 128.323197
_cell_angle_gamma 90.000000
_cell_volume 2391.805556
_symmetry_space_group_name_H-M "C 2/C"
_symmetry_group_IT_number 15
_symmetry_cell_setting 'monoclinic'
loop_
_space_group_symop_operation_xyz
x,y,z
-x,y,1/2-z
-x,-y,-z
x,-y,1/2+z
1/2+x,1/2+y,z
1/2-x,1/2+y,1/2-z
1/2-x,1/2-y,-z
1/2+x,1/2-y,1/2+z
loop_
_atom_site_type_symbol
_atom_site_label
_atom_site_fract_x
_atom_site_fract_y
_atom_site_fract_z
Si Si1 0.704067 0.888651 0.266777
Si Si2 0.613573 0.477045 0.984518
Si Si3 0.949234 0.604305 0.490575
Si Si4 0.500000 0.629515 0.250000
Si Si5 0.211828 0.541819 0.570745
Si Si6 0.747074 0.767180 0.616788
O O1 0.759321 0.938060 0.386987
O O2 0.772145 0.920195 0.204055
O O3 0.743250 0.806928 0.316615
O O4 0.542045 0.894542 0.145060
O O5 0.547432 0.421045 0.868163
O O6 0.682295 0.540747 0.958793
O O7 0.500000 0.500000 0.000000
O O8 0.834134 0.541395 0.431379
O O9 0.884396 0.682378 0.437482
O O10 0.063382 0.581220 0.473615
O O11 0.622479 0.682141 0.286432
O O12 0.750000 0.750000 0.500000
#
# Coordination Sequence:
#
# PCOD9288091 Si02
#       6
#     8   8   8   4   8   8
#     4  10  22  38  63  95 121 163 203 262 325 366
#     4  12  24  38  64  92 126 164 205 261 313 370
#     4   9  20  40  61  90 128 158 207 263 314 370
#     4  12  24  38  58  96 126 152 212 258 312 378
#     4   9  20  41  60  91 126 157 209 256 308 378
#     4  12  21  37  62  95 125 163 205 265 316 376
#
# _framework density 18.396145000000001
#
# number of rings (size 3 to 8) (size 9 to 14) (size 15 to 20)
#    1.091    0.364    3.636    2.182    0.000    2.182 
#    0.000    0.000    0.000    6.545    0.000    0.000 
#    0.000    0.000    0.000    0.000    0.000    0.000 
#
# Total GULP energy -122620.123101 kJ/mol
# GULP energy per Si atom -5573.641959 kJ/mol
# Density = 1.835427 g / cm^3
# Si number density = 18.396145 Si / 1000 Ang^3
#
#
#
# Elastic Constant Matrix: (Units=GPa)
#
#
# Indices 1 2 3 4 5 6 
#
# 1 99.3453 44.3089 39.4425 0.0000 -19.3382 0.0000
# 2 44.3089 113.5138 53.7286 0.0000 -12.0581 0.0000
# 3 39.4425 53.7286 98.3741 0.0000 -1.4666 0.0000
# 4 0.0000 0.0000 0.0000 38.2838 0.0000 9.8611
# 5 -19.3382 -12.0581 -1.4666 0.0000 23.1680 0.0000
# 6 0.0000 0.0000 0.0000 9.8611 0.0000 19.5903
#
#
#
# Elastic Compliance Matrix: (Units=1/GPa)
#
#
# Indices 1 2 3 4 5 6 
#
# 1 0.015157 -0.002629 -0.004478 0.000000 0.011000 0.000000
# 2 -0.002629 0.013163 -0.006072 0.000000 0.004273 0.000000
# 3 -0.004478 -0.006072 0.015188 0.000000 -0.005936 0.000000
# 4 0.000000 0.000000 0.000000 0.030012 0.000000 -0.015107
# 5 0.011000 0.004273 -0.005936 0.000000 0.054193 0.000000
# 6 0.000000 0.000000 0.000000 -0.015107 0.000000 0.058650
#
#
# Mechanical properties :
#
#
# Convention : Reuss Voigt Hill
#
# Bulk Modulus (GPa) = 58.29909 65.13259 61.71584
# Shear Modulus (GPa) = 22.88990 27.79195 25.34093
#
# Velocity S-wave (km/s) = 3.53126 3.89105 3.71551
# Velocity P-wave (km/s) = 6.95601 7.46120 7.21303
#
# Compressibility (1/GPa) = 0.01715293
#
# Stress axis : x y z
#
# Youngs Moduli (GPa) = 65.97512 75.96875 65.84064
#
# Poissons Ratio (x) = 0.19970 0.29480
# Poissons Ratio (y) = 0.17343 0.39977
# Poissons Ratio (z) = 0.29540 0.46126
#
# Static dielectric constant tensor:
#      x y z
#    x 1.668990 0.000000 0.018130 
#    y 0.000000 1.627920 0.000000 
#    z 0.018130 0.000000 1.659870 
# 
# From -- ./inp_files/87949.got.cif
#   From: 2010.05.17/outbox.cif.g08.bks.cpg/sg15_44_cif.got.tgz:87949.got - 2010.06.03 18:47:42.
