data_PCOD9288990
_publ_section_title
;
Structure prediction by ZEFSAII (Michael W. Deem and Ramdas Pophale) SiO2 
 PCOD9288990
Probable space group: C 2/C
;
_chemical_formula_sum "Si O2"
_cell_formula_units_Z 32
_cell_length_a 14.526334
_cell_length_b 20.775696
_cell_length_c 10.123876
_cell_angle_alpha 90.000000
_cell_angle_beta 27.699051
_cell_angle_gamma 90.000000
_cell_volume 1420.202023
_symmetry_space_group_name_H-M "C 2/C"
_symmetry_group_IT_number 15
_symmetry_cell_setting 'monoclinic'
loop_
_space_group_symop_operation_xyz
x,y,z
-x,y,1/2-z
-x,-y,-z
x,-y,1/2+z
1/2+x,1/2+y,z
1/2-x,1/2+y,1/2-z
1/2-x,1/2-y,-z
1/2+x,1/2-y,1/2+z
loop_
_atom_site_type_symbol
_atom_site_label
_atom_site_fract_x
_atom_site_fract_y
_atom_site_fract_z
Si Si1 0.218811 0.501740 0.283077
Si Si2 0.500000 0.410912 0.250000
Si Si3 0.000000 0.586271 0.750000
Si Si4 0.205889 0.137460 0.910451
Si Si5 0.775884 0.685964 0.553484
O O1 0.174682 0.538644 0.475785
O O2 0.296570 0.429421 0.170422
O O3 0.000000 0.500000 0.500000
O O4 0.360783 0.545470 0.016358
O O5 0.370577 0.365045 0.323375
O O6 0.108185 0.628750 0.725150
O O7 0.236892 0.191810 0.759638
O O8 0.000000 0.145019 0.250000
O O9 0.750000 0.750000 0.500000
O O10 0.000000 0.662446 0.250000
#
# Coordination Sequence:
#
# PCOD9288990 Si02
#       5
#     8   4   4   8   8
#     4  10  22  39  70 111 152 190 234 303 384 459
#     4  12  24  46  77 106 157 196 248 312 376 454
#     4  10  22  40  61 108 155 184 232 296 370 458
#     4  11  24  42  71 106 148 192 239 305 385 446
#     4  12  27  49  75 105 141 203 267 312 367 446
#
# _framework density 22.532005999999999
#
# number of rings (size 3 to 8) (size 9 to 14) (size 15 to 20)
#    0.000    1.000    2.500    4.500    8.750    2.000 
#    0.000    1.250    2.750    0.000    0.000    0.000 
#    0.000    0.000    0.000    0.000    0.000    0.000 
#
# Total GULP energy -89515.890120 kJ/mol
# GULP energy per Si atom -5594.743133 kJ/mol
# Density = 2.248072 g / cm^3
# Si number density = 22.532006 Si / 1000 Ang^3
#
#
#
# Elastic Constant Matrix: (Units=GPa)
#
#
# Indices 1 2 3 4 5 6 
#
# 1 159.2073 52.5528 52.7133 -0.0101 3.5767 -0.1171
# 2 52.5528 74.5580 37.3603 -0.0195 10.3164 -0.0028
# 3 52.7133 37.3603 181.1933 -0.0228 7.9760 -0.0553
# 4 -0.0101 -0.0195 -0.0228 24.0664 0.0145 1.2828
# 5 3.5767 10.3164 7.9760 0.0145 45.6301 0.0774
# 6 -0.1171 -0.0028 -0.0553 1.2828 0.0774 61.2702
#
#
#
# Elastic Compliance Matrix: (Units=1/GPa)
#
#
# Indices 1 2 3 4 5 6 
#
# 1 0.008511 -0.005411 -0.001396 -0.000003 0.000800 0.000014
# 2 -0.005411 0.018778 -0.002146 0.000013 -0.003446 -0.000007
# 3 -0.001396 -0.002146 0.006391 0.000004 -0.000522 0.000004
# 4 -0.000003 0.000013 0.000004 0.041598 -0.000015 -0.000871
# 5 0.000800 -0.003446 -0.000522 -0.000015 0.022723 -0.000027
# 6 0.000014 -0.000007 0.000004 -0.000871 -0.000027 0.016339
#
#
# Mechanical properties :
#
#
# Convention : Reuss Voigt Hill
#
# Bulk Modulus (GPa) = 63.39042 77.80125 70.59584
# Shear Modulus (GPa) = 36.36257 44.34884 40.35570
#
# Velocity S-wave (km/s) = 4.02159 4.44132 4.23666
# Velocity P-wave (km/s) = 7.05400 7.80414 7.43853
#
# Compressibility (1/GPa) = 0.01577525
#
# Stress axis : x y z
#
# Youngs Moduli (GPa) = 117.49167 53.25292 156.48149
#
# Poissons Ratio (x) = 0.28813 0.21841
# Poissons Ratio (y) = 0.63569 0.33583
# Poissons Ratio (z) = 0.16399 0.11429
#
# Static dielectric constant tensor:
#      x y z
#    x 1.758900 -0.000030 0.114310 
#    y -0.000030 1.862170 0.000030 
#    z 0.114310 0.000030 1.796250 
# 
# From -- ./inp_files/42496.got.cif
#   From: 2010.05.17/outbox.cif.g08.bks.cpg/sg15_22_cif.got.tgz:42496.got - 2010.06.03 18:47:42.
