data_PCOD9288394
_publ_section_title
;
Structure prediction by ZEFSAII (Michael W. Deem and Ramdas Pophale) SiO2 
 PCOD9288394
Probable space group: C 2/C
;
_chemical_formula_sum "Si O2"
_cell_formula_units_Z 36
_cell_length_a 16.683984
_cell_length_b 19.957509
_cell_length_c 10.375627
_cell_angle_alpha 90.000000
_cell_angle_beta 149.137657
_cell_angle_gamma 90.000000
_cell_volume 1772.223542
_symmetry_space_group_name_H-M "C 2/C"
_symmetry_group_IT_number 15
_symmetry_cell_setting 'monoclinic'
loop_
_space_group_symop_operation_xyz
x,y,z
-x,y,1/2-z
-x,-y,-z
x,-y,1/2+z
1/2+x,1/2+y,z
1/2-x,1/2+y,1/2-z
1/2-x,1/2-y,-z
1/2+x,1/2-y,1/2+z
loop_
_atom_site_type_symbol
_atom_site_label
_atom_site_fract_x
_atom_site_fract_y
_atom_site_fract_z
Si Si1 0.696351 0.032435 0.723334
Si Si2 0.000000 0.248232 0.250000
Si Si3 0.299869 0.933470 0.553675
Si Si4 0.338366 0.188465 0.774178
Si Si5 0.000000 0.310745 0.750000
Si Si6 0.500000 0.522273 0.750000
O O1 0.667215 0.026026 0.531707
O O2 0.654724 0.108198 0.702101
O O3 0.883258 0.022800 0.005264
O O4 0.635854 0.974573 0.735614
O O5 0.937914 0.289872 0.287305
O O6 0.156119 0.207825 0.506697
O O7 0.371724 0.860731 0.636070
O O8 0.114613 0.933165 0.321589
O O9 0.412765 0.221419 0.007139
#
# Coordination Sequence:
#
# PCOD9288394 Si02
#       6
#     8   4   8   8   4   4
#     4   9  18  32  55  79 115 151 179 225 272 337
#     4  10  23  43  62  86 102 151 204 251 280 344
#     4   9  19  31  52  82 119 149 186 212 278 349
#     4  10  22  41  62  83 116 146 198 240 295 325
#     4  10  22  39  56  89 121 151 178 242 284 350
#     4   8  17  32  48  79 117 160 180 217 258 346
#
# _framework density 20.313465000000001
#
# number of rings (size 3 to 8) (size 9 to 14) (size 15 to 20)
#    1.333    1.333    0.000    1.333    0.000    7.111 
#    0.000    4.444    0.000    0.000    0.000    0.000 
#    0.000    0.000    0.000    0.000    0.000    0.000 
#
# Total GULP energy -100206.275289 kJ/mol
# GULP energy per Si atom -5567.015294 kJ/mol
# Density = 2.026723 g / cm^3
# Si number density = 20.313465 Si / 1000 Ang^3
#
#
#
# Elastic Constant Matrix: (Units=GPa)
#
#
# Indices 1 2 3 4 5 6 
#
# 1 145.0711 29.7606 56.2723 0.0000 8.5953 0.0000
# 2 29.7606 28.1049 16.4394 0.0000 12.5763 0.0000
# 3 56.2723 16.4394 134.0168 0.0000 -12.8964 0.0000
# 4 0.0000 0.0000 0.0000 19.1764 0.0000 -4.9209
# 5 8.5953 12.5763 -12.8964 0.0000 30.4865 0.0000
# 6 0.0000 0.0000 0.0000 -4.9209 0.0000 7.7388
#
#
#
# Elastic Compliance Matrix: (Units=1/GPa)
#
#
# Indices 1 2 3 4 5 6 
#
# 1 0.009872 -0.008251 -0.003204 0.000000 -0.000735 0.000000
# 2 -0.008251 0.058887 -0.006122 0.000000 -0.024556 0.000000
# 3 -0.003204 -0.006122 0.010308 0.000000 0.007789 0.000000
# 4 0.000000 0.000000 0.000000 0.062315 0.000000 0.039625
# 5 -0.000735 -0.024556 0.007789 0.000000 0.046433 0.000000
# 6 0.000000 0.000000 0.000000 0.039625 0.000000 0.154415
#
#
# Mechanical properties :
#
#
# Convention : Reuss Voigt Hill
#
# Bulk Modulus (GPa) = 22.77222 56.90416 39.83819
# Shear Modulus (GPa) = 12.75442 25.12839 18.94140
#
# Velocity S-wave (km/s) = 2.50847 3.52096 3.05693
# Velocity P-wave (km/s) = 4.42997 6.67858 5.66692
#
# Compressibility (1/GPa) = 0.04391316
#
# Stress axis : x y z
#
# Youngs Moduli (GPa) = 101.29609 16.98177 97.01668
#
# Poissons Ratio (x) = 0.14011 0.31082
# Poissons Ratio (y) = 0.83576 0.59394
# Poissons Ratio (z) = 0.32453 0.10396
#
# Static dielectric constant tensor:
#      x y z
#    x 1.751810 0.000000 0.044230 
#    y 0.000000 1.677400 0.000000 
#    z 0.044230 0.000000 1.856470 
# 
# From -- ./inp_files/33207.got.cif
#   From: 2010.05.17/outbox.cif.g08.bks.cpg/sg15_17_cif.got.tgz:33207.got - 2010.06.03 18:47:42.
