data_PCOD9288938
_publ_section_title
;
Structure prediction by ZEFSAII (Michael W. Deem and Ramdas Pophale) SiO2 
 PCOD9288938
Probable space group: C 2/C
;
_chemical_formula_sum "Si O2"
_cell_formula_units_Z 48
_cell_length_a 15.350139
_cell_length_b 27.535413
_cell_length_c 5.664537
_cell_angle_alpha 90.000000
_cell_angle_beta 65.314648
_cell_angle_gamma 90.000000
_cell_volume 2175.445546
_symmetry_space_group_name_H-M "C 2/C"
_symmetry_group_IT_number 15
_symmetry_cell_setting 'monoclinic'
loop_
_space_group_symop_operation_xyz
x,y,z
-x,y,1/2-z
-x,-y,-z
x,-y,1/2+z
1/2+x,1/2+y,z
1/2-x,1/2+y,1/2-z
1/2-x,1/2-y,-z
1/2+x,1/2-y,1/2+z
loop_
_atom_site_type_symbol
_atom_site_label
_atom_site_fract_x
_atom_site_fract_y
_atom_site_fract_z
Si Si1 0.611146 0.721054 0.595882
Si Si2 0.500000 0.583861 0.250000
Si Si3 0.500000 0.030599 0.250000
Si Si4 0.641014 0.472082 0.342559
Si Si5 0.694561 0.093167 0.027619
Si Si6 0.315338 0.634663 0.266103
Si Si7 0.275833 0.803751 0.238639
O O1 0.500000 0.728259 0.750000
O O2 0.631880 0.666589 0.490116
O O3 0.647291 0.761393 0.370724
O O4 0.679440 0.722251 0.747462
O O5 0.463682 0.552786 0.514127
O O6 0.404985 0.613765 0.304679
O O7 0.595133 0.064419 0.142212
O O8 0.500000 0.000000 0.500000
O O9 0.649055 0.498897 0.587374
O O10 0.729130 0.434037 0.225935
O O11 0.746946 0.095320 0.222598
O O12 0.688382 0.149709 0.956032
O O13 0.250510 0.671757 0.486315
#
# Coordination Sequence:
#
# PCOD9288938 Si02
#       7
#     8   4   4   8   8   8   8
#     4  10  22  39  68 101 142 185 237 296 361 436
#     4  12  24  42  72 107 148 191 242 290 370 456
#     4  12  30  52  80 107 142 197 262 318 380 440
#     4  12  26  45  68 102 144 184 233 297 361 430
#     4  11  26  46  73 101 143 188 246 309 371 439
#     4  11  23  42  70 103 148 191 236 294 370 446
#     4  10  22  43  65 101 141 187 236 295 365 441
#
# _framework density 22.064447999999999
#
# number of rings (size 3 to 8) (size 9 to 14) (size 15 to 20)
#    0.000    1.000    1.667    4.000    5.833    1.333 
#    0.000    0.000    0.000    0.000    0.000    0.000 
#    0.000    0.000    0.000    0.000    0.000    0.000 
#
# Total GULP energy -134010.955655 kJ/mol
# GULP energy per Si atom -5583.789819 kJ/mol
# Density = 2.201423 g / cm^3
# Si number density = 22.064448 Si / 1000 Ang^3
#
#
#
# Elastic Constant Matrix: (Units=GPa)
#
#
# Indices 1 2 3 4 5 6 
#
# 1 135.9349 53.6193 70.7357 0.0000 -28.9479 0.0000
# 2 53.6193 85.4455 41.8970 0.0000 -9.7744 0.0000
# 3 70.7357 41.8970 117.2335 0.0000 -15.5390 0.0000
# 4 0.0000 0.0000 0.0000 27.1755 0.0000 13.8964
# 5 -28.9479 -9.7744 -15.5390 0.0000 44.4284 0.0000
# 6 0.0000 0.0000 0.0000 13.8964 0.0000 29.4189
#
#
#
# Elastic Compliance Matrix: (Units=1/GPa)
#
#
# Indices 1 2 3 4 5 6 
#
# 1 0.013464 -0.005072 -0.005554 0.000000 0.005714 0.000000
# 2 -0.005072 0.016186 -0.002821 0.000000 -0.000731 0.000000
# 3 -0.005554 -0.002821 0.012926 0.000000 0.000282 0.000000
# 4 0.000000 0.000000 0.000000 0.048517 0.000000 -0.022918
# 5 0.005714 -0.000731 0.000282 0.000000 0.026169 0.000000
# 6 0.000000 0.000000 0.000000 -0.022918 0.000000 0.044817
#
#
# Mechanical properties :
#
#
# Convention : Reuss Voigt Hill
#
# Bulk Modulus (GPa) = 63.76435 74.56866 69.16650
# Shear Modulus (GPa) = 25.74651 31.69537 28.72094
#
# Velocity S-wave (km/s) = 3.41966 3.79422 3.61180
# Velocity P-wave (km/s) = 6.67488 7.28450 6.98634
#
# Compressibility (1/GPa) = 0.01568274
#
# Stress axis : x y z
#
# Youngs Moduli (GPa) = 74.27196 61.78204 77.36050
#
# Poissons Ratio (x) = 0.31337 0.42964
# Poissons Ratio (y) = 0.37672 0.21823
# Poissons Ratio (z) = 0.41249 0.17428
#
# Static dielectric constant tensor:
#      x y z
#    x 1.838930 0.000000 0.101500 
#    y 0.000000 1.886910 0.000000 
#    z 0.101500 0.000000 1.866280 
# 
# From -- ./inp_files/8974.got.cif
#   From: 2010.05.17/outbox.cif.g08.bks.cpg/sg15_5_cif.got.tgz:8974.got - 2010.06.03 18:47:42.
