data_PCOD9288611
_publ_section_title
;
Structure prediction by ZEFSAII (Michael W. Deem and Ramdas Pophale) SiO2 
 PCOD9288611
Probable space group: C 2/C
;
_chemical_formula_sum "Si O2"
_cell_formula_units_Z 48
_cell_length_a 17.421729
_cell_length_b 10.131780
_cell_length_c 28.329636
_cell_angle_alpha 90.000000
_cell_angle_beta 28.539971
_cell_angle_gamma 90.000000
_cell_volume 2389.122660
_symmetry_space_group_name_H-M "C 2/C"
_symmetry_group_IT_number 15
_symmetry_cell_setting 'monoclinic'
loop_
_space_group_symop_operation_xyz
x,y,z
-x,y,1/2-z
-x,-y,-z
x,-y,1/2+z
1/2+x,1/2+y,z
1/2-x,1/2+y,1/2-z
1/2-x,1/2-y,-z
1/2+x,1/2-y,1/2+z
loop_
_atom_site_type_symbol
_atom_site_label
_atom_site_fract_x
_atom_site_fract_y
_atom_site_fract_z
Si Si1 0.656963 0.629908 0.249139
Si Si2 0.294095 0.337551 0.243356
Si Si3 0.213969 0.106884 0.037984
Si Si4 0.660393 0.651192 0.512197
Si Si5 0.817498 0.760145 0.336896
Si Si6 0.671035 0.959878 0.928348
O O1 0.730464 0.494048 0.232491
O O2 0.681329 0.756954 0.268818
O O3 0.468570 0.603272 0.343656
O O4 0.748231 0.644951 0.150248
O O5 0.472499 0.331807 0.124741
O O6 0.288636 0.259804 0.296414
O O7 0.338174 0.081370 0.012876
O O8 0.216842 0.994278 0.996867
O O9 0.250000 0.250000 0.000000
O O10 0.750000 0.750000 0.500000
O O11 0.703916 0.682465 0.434595
O O12 0.000000 0.723430 0.250000
O O13 0.786761 0.913080 0.365968
O O14 0.500000 0.000000 0.000000
#
# Coordination Sequence:
#
# PCOD9288611 Si02
#       6
#     8   8   8   8   8   8
#     4  10  23  42  63  89 128 167 213 265 323 385
#     4  10  22  39  62  92 125 164 207 267 313 388
#     4  11  25  42  61  92 135 163 209 272 336 381
#     4  11  20  39  65  91 122 166 215 262 310 390
#     4  11  20  37  64  90 119 158 218 258 311 371
#     4  11  22  38  68  90 118 172 217 254 323 404
#
# _framework density 20.091056999999999
#
# number of rings (size 3 to 8) (size 9 to 14) (size 15 to 20)
#    0.000    1.333    3.333    3.500    4.667    0.000 
#    3.000    1.667    0.000    0.000    0.000    0.000 
#    0.000    0.000    0.000    0.000    0.000    0.000 
#
# Total GULP energy -134015.296945 kJ/mol
# GULP energy per Si atom -5583.970706 kJ/mol
# Density = 2.004533 g / cm^3
# Si number density = 20.091057 Si / 1000 Ang^3
#
#
#
# Elastic Constant Matrix: (Units=GPa)
#
#
# Indices 1 2 3 4 5 6 
#
# 1 85.1972 27.6674 19.0830 -0.0004 13.6439 0.0000
# 2 27.6674 71.7361 14.6971 -0.0003 7.5664 -0.0001
# 3 19.0830 14.6971 74.9622 -0.0024 21.1921 0.0004
# 4 -0.0004 -0.0003 -0.0024 25.2579 0.0005 -2.0249
# 5 13.6439 7.5664 21.1921 0.0005 36.4020 -0.0001
# 6 0.0000 -0.0001 0.0004 -2.0249 -0.0001 28.2912
#
#
#
# Elastic Compliance Matrix: (Units=1/GPa)
#
#
# Indices 1 2 3 4 5 6 
#
# 1 0.014209 -0.004773 -0.001743 0.000000 -0.003319 0.000000
# 2 -0.004773 0.016208 -0.001815 0.000000 -0.000523 0.000000
# 3 -0.001743 -0.001815 0.016576 0.000002 -0.008620 0.000000
# 4 0.000000 0.000000 0.000002 0.039820 -0.000001 0.002850
# 5 -0.003319 -0.000523 -0.008620 -0.000001 0.033842 0.000000
# 6 0.000000 0.000000 0.000000 0.002850 0.000000 0.035551
#
#
# Mechanical properties :
#
#
# Convention : Reuss Voigt Hill
#
# Bulk Modulus (GPa) = 32.96867 39.42116 36.19492
# Shear Modulus (GPa) = 27.32553 29.35342 28.33948
#
# Velocity S-wave (km/s) = 3.69193 3.82648 3.75981
# Velocity P-wave (km/s) = 5.88380 6.25990 6.07476
#
# Compressibility (1/GPa) = 0.03033183
#
# Stress axis : x y z
#
# Youngs Moduli (GPa) = 70.37550 61.69835 60.32662
#
# Poissons Ratio (x) = 0.29450 0.10516
# Poissons Ratio (y) = 0.33591 0.10947
# Poissons Ratio (z) = 0.12268 0.11196
#
# Static dielectric constant tensor:
#      x y z
#    x 2.315660 0.000000 0.656420 
#    y 0.000000 1.696930 0.000000 
#    z 0.656420 0.000000 2.438140 
# 
# From -- ./inp_files/315619.got.cif
#   From: 2010.05.17/outbox.cif.g08.bks.cpg/sg15_158_cif.got.tgz:315619.got - 2010.06.03 18:47:42.
