data_PCOD9288608
_publ_section_title
;
Structure prediction by ZEFSAII (Michael W. Deem and Ramdas Pophale) SiO2 
 PCOD9288608
Probable space group: C 2/C
;
_chemical_formula_sum "Si O2"
_cell_formula_units_Z 48
_cell_length_a 32.268007
_cell_length_b 8.911909
_cell_length_c 16.217537
_cell_angle_alpha 90.000000
_cell_angle_beta 156.015285
_cell_angle_gamma 90.000000
_cell_volume 1895.748704
_symmetry_space_group_name_H-M "C 2/C"
_symmetry_group_IT_number 15
_symmetry_cell_setting 'monoclinic'
loop_
_space_group_symop_operation_xyz
x,y,z
-x,y,1/2-z
-x,-y,-z
x,-y,1/2+z
1/2+x,1/2+y,z
1/2-x,1/2+y,1/2-z
1/2-x,1/2-y,-z
1/2+x,1/2-y,1/2+z
loop_
_atom_site_type_symbol
_atom_site_label
_atom_site_fract_x
_atom_site_fract_y
_atom_site_fract_z
Si Si1 0.145366 0.060458 0.317059
Si Si2 0.292657 0.360317 0.740990
Si Si3 0.549501 0.739988 0.565296
Si Si4 0.909419 0.658570 0.531639
Si Si5 0.002225 0.661709 0.364477
Si Si6 0.612799 0.435647 0.428216
O O1 0.168547 0.013232 0.452360
O O2 0.221373 0.097240 0.380306
O O3 0.063115 0.194464 0.170543
O O4 0.090893 0.911068 0.182548
O O5 0.186006 0.313181 0.583583
O O6 0.396026 0.260914 0.932589
O O7 0.323376 0.468497 0.873343
O O8 0.611990 0.779369 0.598256
O O9 0.547073 0.859496 0.634618
O O10 0.952015 0.490445 0.588580
O O11 0.000000 0.723799 0.750000
O O12 0.918552 0.762278 0.160339
O O13 0.500000 0.483187 0.250000
#
# Coordination Sequence:
#
# PCOD9288608 Si02
#       6
#     8   8   8   8   8   8
#     4   9  19  39  64  95 122 154 208 262 299 362
#     4  10  22  39  62  92 124 163 209 254 304 368
#     4   9  19  38  63  87 120 161 203 254 311 362
#     4  12  25  39  59  91 128 165 199 252 317 366
#     4   9  20  43  63  84 123 160 208 256 305 363
#     4   9  17  37  69  90 114 166 210 254 303 360
#
# _framework density 25.319811999999999
#
# number of rings (size 3 to 8) (size 9 to 14) (size 15 to 20)
#    0.000    2.333    0.000    5.000    2.333    2.000 
#    6.000    3.333    0.000    0.000    0.000    0.000 
#    0.000    0.000    0.000    0.000    0.000    0.000 
#
# Total GULP energy -133705.099952 kJ/mol
# GULP energy per Si atom -5571.045831 kJ/mol
# Density = 2.526218 g / cm^3
# Si number density = 25.319812 Si / 1000 Ang^3
#
#
#
# Elastic Constant Matrix: (Units=GPa)
#
#
# Indices 1 2 3 4 5 6 
#
# 1 223.0095 14.7374 20.9617 0.0000 -8.3282 0.0000
# 2 14.7374 80.2722 -12.7456 0.0000 -19.4147 0.0000
# 3 20.9617 -12.7456 52.9736 0.0000 10.6020 0.0000
# 4 0.0000 0.0000 0.0000 -17.0490 0.0000 -20.4974
# 5 -8.3282 -19.4147 10.6020 0.0000 27.1912 0.0000
# 6 0.0000 0.0000 0.0000 -20.4974 0.0000 57.3157
#
#
#
# Elastic Compliance Matrix: (Units=1/GPa)
#
#
# Indices 1 2 3 4 5 6 
#
# 1 0.004843 -0.000835 -0.002489 0.000000 0.001857 0.000000
# 2 -0.000835 0.015327 0.002038 0.000000 0.009893 0.000000
# 3 -0.002489 0.002038 0.021925 0.000000 -0.007856 0.000000
# 4 0.000000 0.000000 0.000000 -0.041018 0.000000 -0.014669
# 5 0.001857 0.009893 -0.007856 0.000000 0.047472 0.000000
# 6 0.000000 0.000000 0.000000 -0.014669 0.000000 0.012201
#
#
# Mechanical properties :
#
#
# Convention : Reuss Voigt Hill
#
# Bulk Modulus (GPa) = 25.30150 44.68470 34.99310
# Shear Modulus (GPa) = 65.36306 35.71169 50.53738
#
# Velocity S-wave (km/s) = 5.08636 3.75964 4.47247
# Velocity P-wave (km/s) = 6.67152 6.04425 6.36561
#
# Compressibility (1/GPa) = 0.03952335
#
# Stress axis : x y z
#
# Youngs Moduli (GPa) = 206.50068 65.24280 45.61056
#
# Poissons Ratio (x) = 0.05448 0.11352
# Poissons Ratio (y) = 0.17243 -0.09296
# Poissons Ratio (z) = 0.51395 -0.13298
#
# Static dielectric constant tensor:
#      x y z
#    x 2.025550 0.000000 -0.156980 
#    y 0.000000 2.145200 0.000000 
#    z -0.156980 0.000000 1.799580 
# 
# From -- ./inp_files/177903.got.cif
#   From: 2010.05.17/outbox.cif.g08.bks.cpg/sg15_89_cif.got.tgz:177903.got - 2010.06.03 18:47:42.
