data_PCOD9288534
_publ_section_title
;
Structure prediction by ZEFSAII (Michael W. Deem and Ramdas Pophale) SiO2 
 PCOD9288534
Probable space group: C 2/C
;
_chemical_formula_sum "Si O2"
_cell_formula_units_Z 40
_cell_length_a 9.681425
_cell_length_b 8.785878
_cell_length_c 27.102060
_cell_angle_alpha 90.000000
_cell_angle_beta 126.412503
_cell_angle_gamma 90.000000
_cell_volume 1855.220137
_symmetry_space_group_name_H-M "C 2/C"
_symmetry_group_IT_number 15
_symmetry_cell_setting 'monoclinic'
loop_
_space_group_symop_operation_xyz
x,y,z
-x,y,1/2-z
-x,-y,-z
x,-y,1/2+z
1/2+x,1/2+y,z
1/2-x,1/2+y,1/2-z
1/2-x,1/2-y,-z
1/2+x,1/2-y,1/2+z
loop_
_atom_site_type_symbol
_atom_site_label
_atom_site_fract_x
_atom_site_fract_y
_atom_site_fract_z
Si Si1 0.824659 0.143682 0.740013
Si Si2 0.691535 0.007719 0.299660
Si Si3 0.735367 0.824495 0.550639
Si Si4 0.946292 0.436621 0.129553
Si Si5 0.876436 0.619884 0.014904
O O1 0.804697 0.323085 0.722938
O O2 0.649041 0.063970 0.684215
O O3 0.000000 0.094320 0.750000
O O4 0.823402 0.099125 0.797928
O O5 0.500000 0.940366 0.250000
O O6 0.681025 0.013086 0.356777
O O7 0.750000 0.750000 0.500000
O O8 0.880570 0.738442 0.612153
O O9 0.545290 0.798260 0.530417
O O10 0.723882 0.006100 0.543404
O O11 0.923282 0.521152 0.072850
O O12 0.750000 0.750000 0.000000
#
# Coordination Sequence:
#
# PCOD9288534 Si02
#       5
#     8   8   8   8   8
#     4  10  22  40  60  86 120 154 197 247 296 359
#     4   9  21  39  58  85 119 154 198 246 296 359
#     4   9  21  39  58  86 122 158 200 246 296 359
#     4  10  22  39  61  89 122 162 199 243 308 362
#     4  10  22  40  61  89 123 159 205 254 300 359
#
# _framework density 21.560784000000002
#
# number of rings (size 3 to 8) (size 9 to 14) (size 15 to 20)
#    0.000    2.400    0.000    0.000    0.000   18.400 
#    0.000    0.000    0.000    0.000    0.000    0.000 
#    0.000    0.000    0.000    0.000    0.000    0.000 
#
# Total GULP energy -111391.868982 kJ/mol
# GULP energy per Si atom -5569.593449 kJ/mol
# Density = 2.151171 g / cm^3
# Si number density = 21.560784 Si / 1000 Ang^3
#
#
#
# Elastic Constant Matrix: (Units=GPa)
#
#
# Indices 1 2 3 4 5 6 
#
# 1 199.6182 65.3137 34.5117 0.0000 -9.9692 0.0000
# 2 65.3137 -101.7264 86.9339 0.0000 41.2491 0.0000
# 3 34.5117 86.9339 6.9386 0.0000 -11.0364 0.0000
# 4 0.0000 0.0000 0.0000 -0.0153 0.0000 1.9419
# 5 -9.9692 41.2491 -11.0364 0.0000 26.4217 0.0000
# 6 0.0000 0.0000 0.0000 1.9419 0.0000 43.3466
#
#
#
# Elastic Compliance Matrix: (Units=1/GPa)
#
#
# Indices 1 2 3 4 5 6 
#
# 1 0.007241 -0.001916 -0.008678 0.000000 0.002098 0.000000
# 2 -0.001916 0.000300 0.011566 0.000000 0.003640 0.000000
# 3 -0.008678 0.011566 0.025183 0.000000 -0.010811 0.000000
# 4 0.000000 0.000000 0.000000 -9.773134 0.000000 0.437834
# 5 0.002098 0.003640 -0.010811 0.000000 0.028440 0.000000
# 6 0.000000 0.000000 0.000000 0.437834 0.000000 0.003455
#
#
# Mechanical properties :
#
#
# Convention : Reuss Voigt Hill
#
# Bulk Modulus (GPa) = 28.84521 53.14989 40.99755
# Shear Modulus (GPa) = -0.51552 8.48868 3.98658
#
# Velocity S-wave (km/s) = -0.48951 1.98636 1.36125
# Velocity P-wave (km/s) = 3.61775 5.47408 4.63970
#
# Compressibility (1/GPa) = 0.03466780
#
# Stress axis : x y z
#
# Youngs Moduli (GPa) = 138.09294 3337.87726 39.70928
#
# Poissons Ratio (x) = 6.39460 0.34459
# Poissons Ratio (y) = 0.26455 -0.45926
# Poissons Ratio (z) = 1.19836 -38.60438
#
# Static dielectric constant tensor:
#      x y z
#    x 1.747850 0.000000 -0.038740 
#    y 0.000000 1.779220 0.000000 
#    z -0.038740 0.000000 1.899820 
# 
# From -- ./inp_files/262523.got.cif
#   From: 2010.05.17/outbox.cif.g08.bks.cpg/sg15_132_cif.got.tgz:262523.got - 2010.06.03 18:47:42.
