data_PCOD9288612
_publ_section_title
;
Structure prediction by ZEFSAII (Michael W. Deem and Ramdas Pophale) SiO2 
 PCOD9288612
Probable space group: C 2/C
;
_chemical_formula_sum "Si O2"
_cell_formula_units_Z 48
_cell_length_a 7.881612
_cell_length_b 32.379497
_cell_length_c 11.872520
_cell_angle_alpha 90.000000
_cell_angle_beta 40.993644
_cell_angle_gamma 90.000000
_cell_volume 1987.538490
_symmetry_space_group_name_H-M "C 2/C"
_symmetry_group_IT_number 15
_symmetry_cell_setting 'monoclinic'
loop_
_space_group_symop_operation_xyz
x,y,z
-x,y,1/2-z
-x,-y,-z
x,-y,1/2+z
1/2+x,1/2+y,z
1/2-x,1/2+y,1/2-z
1/2-x,1/2-y,-z
1/2+x,1/2-y,1/2+z
loop_
_atom_site_type_symbol
_atom_site_label
_atom_site_fract_x
_atom_site_fract_y
_atom_site_fract_z
Si Si1 0.100864 0.064090 0.872695
Si Si2 0.163742 0.570480 0.501964
Si Si3 0.000000 0.144799 0.250000
Si Si4 0.585569 0.800635 0.864692
Si Si5 0.424936 0.651378 0.920171
Si Si6 0.169487 0.282769 0.270262
Si Si7 0.500000 0.495799 0.750000
O O1 0.359503 0.074227 0.670737
O O2 0.922408 0.104521 0.963031
O O3 0.982337 0.025408 0.867092
O O4 0.205052 0.057133 0.945821
O O5 0.285798 0.614184 0.408556
O O6 0.255734 0.535367 0.368650
O O7 0.846315 0.172505 0.237543
O O8 0.646205 0.755241 0.788920
O O9 0.343412 0.824478 0.932988
O O10 0.504333 0.794275 0.036324
O O11 0.500000 0.650267 0.750000
O O12 0.658512 0.678333 0.853178
O O13 0.000000 0.268833 0.250000
#
# Coordination Sequence:
#
# PCOD9288612 Si02
#       7
#     8   8   4   8   8   8   4
#     4  11  22  42  70  95 128 175 217 263 328 394
#     4  10  24  41  66  98 131 172 217 267 322 396
#     4  11  24  42  64  90 138 164 224 272 334 383
#     4  11  24  42  62  93 128 174 213 278 330 384
#     4  10  22  39  62  92 126 168 216 273 325 379
#     4  11  23  39  65  91 125 168 223 269 329 392
#     4  11  22  42  68 100 136 166 212 274 328 383
#
# _framework density 24.150473999999999
#
# number of rings (size 3 to 8) (size 9 to 14) (size 15 to 20)
#    0.000    1.333    1.667    4.000    4.667    0.000 
#    0.000    2.500    0.000    0.000    0.000    0.000 
#    0.000    0.000    0.000    0.000    0.000    0.000 
#
# Total GULP energy -134486.619137 kJ/mol
# GULP energy per Si atom -5603.609131 kJ/mol
# Density = 2.409551 g / cm^3
# Si number density = 24.150474 Si / 1000 Ang^3
#
#
#
# Elastic Constant Matrix: (Units=GPa)
#
#
# Indices 1 2 3 4 5 6 
#
# 1 64.5657 10.2717 2.2796 0.0000 -2.6443 0.0000
# 2 10.2717 131.7726 31.0893 0.0000 -2.0152 0.0000
# 3 2.2796 31.0893 71.3842 0.0000 -4.3997 0.0000
# 4 0.0000 0.0000 0.0000 28.6868 0.0000 -2.2526
# 5 -2.6443 -2.0152 -4.3997 0.0000 24.8797 0.0000
# 6 0.0000 0.0000 0.0000 -2.2526 0.0000 30.5371
#
#
#
# Elastic Compliance Matrix: (Units=1/GPa)
#
#
# Indices 1 2 3 4 5 6 
#
# 1 0.015745 -0.001234 0.000133 0.000000 0.001597 0.000000
# 2 -0.001234 0.008555 -0.003692 0.000000 -0.000091 0.000000
# 3 0.000133 -0.003692 0.015767 0.000000 0.002503 0.000000
# 4 0.000000 0.000000 0.000000 0.035062 0.000000 0.002586
# 5 0.001597 -0.000091 0.002503 0.000000 0.040798 0.000000
# 6 0.000000 0.000000 0.000000 0.002586 0.000000 0.032938
#
#
# Mechanical properties :
#
#
# Convention : Reuss Voigt Hill
#
# Bulk Modulus (GPa) = 32.80805 39.44488 36.12646
# Shear Modulus (GPa) = 29.65400 31.75953 30.70677
#
# Velocity S-wave (km/s) = 3.50792 3.63032 3.56965
# Velocity P-wave (km/s) = 5.47920 5.82587 5.65519
#
# Compressibility (1/GPa) = 0.03048033
#
# Stress axis : x y z
#
# Youngs Moduli (GPa) = 63.51157 116.89479 63.42501
#
# Poissons Ratio (x) = 0.14429 -0.00845
# Poissons Ratio (y) = 0.07840 0.23416
# Poissons Ratio (z) = -0.00846 0.43157
#
# Static dielectric constant tensor:
#      x y z
#    x 1.911720 0.000000 0.017580 
#    y 0.000000 1.874380 0.000000 
#    z 0.017580 0.000000 1.931460 
# 
# From -- ./inp_files/138951.got.cif
#   From: 2010.05.17/outbox.cif.g08.bks.cpg/sg15_70_cif.got.tgz:138951.got - 2010.06.03 18:47:42.
