data_PCOD9288025
_publ_section_title
;
Structure prediction by ZEFSAII (Michael W. Deem and Ramdas Pophale) SiO2 
 PCOD9288025
Probable space group: C 2/C
;
_chemical_formula_sum "Si O2"
_cell_formula_units_Z 48
_cell_length_a 25.917415
_cell_length_b 7.973057
_cell_length_c 13.061321
_cell_angle_alpha 90.000000
_cell_angle_beta 75.635588
_cell_angle_gamma 90.000000
_cell_volume 2614.626994
_symmetry_space_group_name_H-M "C 2/C"
_symmetry_group_IT_number 15
_symmetry_cell_setting 'monoclinic'
loop_
_space_group_symop_operation_xyz
x,y,z
-x,y,1/2-z
-x,-y,-z
x,-y,1/2+z
1/2+x,1/2+y,z
1/2-x,1/2+y,1/2-z
1/2-x,1/2-y,-z
1/2+x,1/2-y,1/2+z
loop_
_atom_site_type_symbol
_atom_site_label
_atom_site_fract_x
_atom_site_fract_y
_atom_site_fract_z
Si Si1 0.000000 0.535640 0.250000
Si Si2 0.810918 0.733935 0.287999
Si Si3 0.441523 0.795434 0.422305
Si Si4 0.237825 0.902750 0.644047
Si Si5 0.000000 0.040032 0.250000
Si Si6 0.176707 0.595354 0.580890
Si Si7 0.429820 0.719908 0.664282
O O1 0.981741 0.433182 0.357971
O O2 0.950596 0.641369 0.233861
O O3 0.768699 0.649746 0.231619
O O4 0.821846 0.586399 0.365073
O O5 0.866217 0.781358 0.204532
O O6 0.788250 0.912535 0.338010
O O7 0.458997 0.640893 0.342113
O O8 0.382059 0.858323 0.428497
O O9 0.446050 0.757185 0.539771
O O10 0.196614 0.751412 0.641140
O O11 0.281746 0.907911 0.532928
O O12 0.962087 0.939029 0.190846
#
# Coordination Sequence:
#
# PCOD9288025 Si02
#       7
#     4   8   8   8   4   8   8
#     4  10  22  38  62  88 120 158 206 252 306 374
#     4  12  22  41  65  91 126 166 212 256 319 375
#     4  11  21  40  64  90 122 163 205 256 317 374
#     4  11  24  40  63  93 125 165 210 265 311 375
#     4  10  24  40  62  94 126 160 210 260 318 370
#     4  11  23  42  64  91 127 165 211 260 317 376
#     4  11  22  40  62  89 124 162 204 259 312 374
#
# _framework density 18.358260000000001
#
# number of rings (size 3 to 8) (size 9 to 14) (size 15 to 20)
#    0.000    1.000    5.000    2.500    0.000    0.000 
#    0.000    0.000    0.000    0.000    0.000    0.000 
#    0.000    0.000    0.000    0.000    0.000    0.000 
#
# Total GULP energy -133825.534746 kJ/mol
# GULP energy per Si atom -5576.063948 kJ/mol
# Density = 1.831648 g / cm^3
# Si number density = 18.358260 Si / 1000 Ang^3
#
#
#
# Elastic Constant Matrix: (Units=GPa)
#
#
# Indices 1 2 3 4 5 6 
#
# 1 63.4161 37.1402 12.2286 0.0000 -0.4781 0.0000
# 2 37.1402 126.2370 41.1262 0.0000 -0.1283 0.0000
# 3 12.2286 41.1262 84.1611 0.0000 -0.0465 0.0000
# 4 0.0000 0.0000 0.0000 32.4171 0.0000 -383.3908
# 5 -0.4781 -0.1283 -0.0465 0.0000 32.9487 0.0000
# 6 0.0000 0.0000 0.0000 -383.3908 0.0000 2363.4770
#
#
#
# Elastic Compliance Matrix: (Units=1/GPa)
#
#
# Indices 1 2 3 4 5 6 
#
# 1 0.019054 -0.005594 -0.000035 0.000000 0.000255 0.000000
# 2 -0.005594 0.011064 -0.004594 0.000000 -0.000045 0.000000
# 3 -0.000035 -0.004594 0.014132 0.000000 0.000002 0.000000
# 4 0.000000 0.000000 0.000000 -0.033586 0.000000 -0.005448
# 5 0.000255 -0.000045 0.000002 0.000000 0.030354 0.000000
# 6 0.000000 0.000000 0.000000 -0.005448 0.000000 -0.000461
#
#
# Mechanical properties :
#
#
# Convention : Reuss Voigt Hill
#
# Bulk Modulus (GPa) = 42.00930 50.53383 46.27157
# Shear Modulus (GPa) = 72.52994 497.98984 285.25989
#
# Velocity S-wave (km/s) = 6.29236 16.48790 12.47888
# Velocity P-wave (km/s) = 8.70198 19.74979 15.26071
#
# Compressibility (1/GPa) = 0.02380425
#
# Stress axis : x y z
#
# Youngs Moduli (GPa) = 52.48298 90.38299 70.76243
#
# Poissons Ratio (x) = 0.50563 0.00245
# Poissons Ratio (y) = 0.29360 0.32506
# Poissons Ratio (z) = 0.00182 0.41520
#
# Static dielectric constant tensor:
#      x y z
#    x 1.382250 0.000000 0.086020 
#    y 0.000000 1.664920 0.000000 
#    z 0.086020 0.000000 1.471930 
# 
# From -- ./inp_files/116303.got.cif
#   From: 2010.05.17/outbox.cif.g08.bks.cpg/sg15_59_cif.got.tgz:116303.got - 2010.06.03 18:47:42.
