data_PCOD9288143
_publ_section_title
;
Structure prediction by ZEFSAII (Michael W. Deem and Ramdas Pophale) SiO2 
 PCOD9288143
Probable space group: C 2/C
;
_chemical_formula_sum "Si O2"
_cell_formula_units_Z 64
_cell_length_a 7.947808
_cell_length_b 15.628235
_cell_length_c 20.400265
_cell_angle_alpha 90.000000
_cell_angle_beta 99.674957
_cell_angle_gamma 90.000000
_cell_volume 2497.881309
_symmetry_space_group_name_H-M "C 2/C"
_symmetry_group_IT_number 15
_symmetry_cell_setting 'monoclinic'
loop_
_space_group_symop_operation_xyz
x,y,z
-x,y,1/2-z
-x,-y,-z
x,-y,1/2+z
1/2+x,1/2+y,z
1/2-x,1/2+y,1/2-z
1/2-x,1/2-y,-z
1/2+x,1/2-y,1/2+z
loop_
_atom_site_type_symbol
_atom_site_label
_atom_site_fract_x
_atom_site_fract_y
_atom_site_fract_z
Si Si1 0.025531 0.503072 0.674765
Si Si2 0.007863 0.657614 0.568570
Si Si3 0.345222 0.538197 0.270985
Si Si4 0.444392 0.287750 0.681078
Si Si5 0.655072 0.613431 0.491257
Si Si6 0.884147 0.824074 0.069239
Si Si7 0.553474 0.504489 0.597243
Si Si8 0.536053 0.184801 0.173864
O O1 0.020096 0.574366 0.618236
O O2 0.214876 0.465261 0.704504
O O3 0.958290 0.408264 0.650779
O O4 0.000000 0.531905 0.750000
O O5 0.184263 0.671992 0.541743
O O6 0.979132 0.735315 0.617537
O O7 0.845485 0.646611 0.509936
O O8 0.500000 0.486962 0.250000
O O9 0.424666 0.630174 0.299177
O O10 0.305469 0.494451 0.336918
O O11 0.500000 0.235011 0.750000
O O12 0.238180 0.300003 0.671621
O O13 0.519071 0.675231 0.518075
O O14 0.650701 0.527720 0.536827
O O15 0.566883 0.577813 0.420536
O O16 0.931947 0.753122 0.124829
O O17 0.929996 0.916518 0.102654
O O18 0.500000 0.193388 0.250000
#
# Coordination Sequence:
#
# PCOD9288143 Si02
#       8
#     8   8   8   8   8   8   8   8
#     4  11  24  38  58  98 133 167 215 264 333 392
#     4  12  23  40  68  98 129 172 220 271 319 396
#     4  11  21  38  62  95 127 168 212 259 333 392
#     4  11  21  38  62  91 134 168 213 267 327 384
#     4   9  21  43  64  94 128 176 220 268 323 380
#     4  10  22  38  64  92 125 167 220 257 326 381
#     4   9  20  42  66  91 133 172 216 276 318 390
#     4  11  22  39  59  92 135 171 206 270 325 390
#
# _framework density 25.621714999999998
#
# number of rings (size 3 to 8) (size 9 to 14) (size 15 to 20)
#    0.750    0.750    3.750    2.625    1.750    3.000 
#    0.000    0.625    0.000    1.500    0.000    0.000 
#    0.000    0.000    0.000    0.000    0.000    0.000 
#
# Total GULP energy -178312.550880 kJ/mol
# GULP energy per Si atom -5572.267215 kJ/mol
# Density = 2.556340 g / cm^3
# Si number density = 25.621715 Si / 1000 Ang^3
#
#
#
# Elastic Constant Matrix: (Units=GPa)
#
#
# Indices 1 2 3 4 5 6 
#
# 1 135.3618 28.6083 -2.8644 0.0000 6.5716 0.0000
# 2 28.6083 103.4334 41.6366 0.0000 1.4237 0.0000
# 3 -2.8644 41.6366 67.0123 0.0000 7.6292 0.0000
# 4 0.0000 0.0000 0.0000 -8.0751 0.0000 26.1783
# 5 6.5716 1.4237 7.6292 0.0000 23.5749 0.0000
# 6 0.0000 0.0000 0.0000 26.1783 0.0000 23.9523
#
#
#
# Elastic Compliance Matrix: (Units=1/GPa)
#
#
# Indices 1 2 3 4 5 6 
#
# 1 0.008309 -0.003384 0.002802 0.000000 -0.003018 0.000000
# 2 -0.003384 0.014352 -0.009418 0.000000 0.003124 0.000000
# 3 0.002802 -0.009418 0.021718 0.000000 -0.007240 0.000000
# 4 0.000000 0.000000 0.000000 -0.027258 0.000000 0.029791
# 5 -0.003018 0.003124 -0.007240 0.000000 0.045414 0.000000
# 6 0.000000 0.000000 0.000000 0.029791 0.000000 0.009190
#
#
# Mechanical properties :
#
#
# Convention : Reuss Voigt Hill
#
# Bulk Modulus (GPa) = 41.02055 48.95207 44.98631
# Shear Modulus (GPa) = 50.07446 23.78555 36.93001
#
# Velocity S-wave (km/s) = 4.42563 3.05017 3.80064
# Velocity P-wave (km/s) = 6.49305 5.61710 6.07090
#
# Compressibility (1/GPa) = 0.02437803
#
# Stress axis : x y z
#
# Youngs Moduli (GPa) = 120.35607 69.67585 46.04431
#
# Poissons Ratio (x) = 0.23580 -0.12899
# Poissons Ratio (y) = 0.40732 0.43363
# Poissons Ratio (z) = -0.33718 0.65619
#
# Static dielectric constant tensor:
#      x y z
#    x 2.105110 0.000000 0.161320 
#    y 0.000000 2.094460 0.000000 
#    z 0.161320 0.000000 1.770190 
# 
# From -- ./inp_files/288788.got.cif
#   From: 2010.05.17/outbox.cif.g08.bks.cpg/sg15_145_cif.got.tgz:288788.got - 2010.06.03 18:47:42.
