data_PCOD9288906
_publ_section_title
;
Structure prediction by ZEFSAII (Michael W. Deem and Ramdas Pophale) SiO2 
 PCOD9288906
Probable space group: C 2/C
;
_chemical_formula_sum "Si O2"
_cell_formula_units_Z 56
_cell_length_a 18.540995
_cell_length_b 27.885605
_cell_length_c 5.111968
_cell_angle_alpha 90.000000
_cell_angle_beta 77.884526
_cell_angle_gamma 90.000000
_cell_volume 2584.155601
_symmetry_space_group_name_H-M "C 2/C"
_symmetry_group_IT_number 15
_symmetry_cell_setting 'monoclinic'
loop_
_space_group_symop_operation_xyz
x,y,z
-x,y,1/2-z
-x,-y,-z
x,-y,1/2+z
1/2+x,1/2+y,z
1/2-x,1/2+y,1/2-z
1/2-x,1/2-y,-z
1/2+x,1/2-y,1/2+z
loop_
_atom_site_type_symbol
_atom_site_label
_atom_site_fract_x
_atom_site_fract_y
_atom_site_fract_z
Si Si1 0.702316 0.765312 0.784300
Si Si2 0.864656 0.113520 0.167451
Si Si3 0.692503 0.529615 0.932684
Si Si4 0.000000 0.533771 0.750000
Si Si5 0.500000 0.622058 0.750000
Si Si6 0.793072 0.628606 0.421963
Si Si7 0.657919 0.078967 0.615701
Si Si8 0.074802 0.800931 0.566575
O O1 0.750000 0.750000 0.500000
O O2 0.690457 0.821094 0.731388
O O3 0.625863 0.737028 0.882665
O O4 0.750000 0.750000 0.000000
O O5 0.842637 0.078183 0.421421
O O6 0.794383 0.118103 0.030984
O O7 0.880187 0.167794 0.255035
O O8 0.939800 0.095764 0.973375
O O9 0.672699 0.511168 0.660810
O O10 0.780631 0.538933 0.865018
O O11 0.925782 0.564386 0.786526
O O12 0.000000 0.500000 0.500000
O O13 0.452960 0.657438 0.604202
O O14 0.820868 0.621490 0.695668
O O15 0.829781 0.590839 0.197498
O O16 0.000000 0.779809 0.750000
#
# Coordination Sequence:
#
# PCOD9288906 Si02
#       8
#     8   8   8   4   4   8   8   8
#     4  12  24  41  70 102 134 174 236 284 334 407
#     4  10  22  39  67  90 134 172 229 277 345 404
#     4  11  23  39  64  97 126 165 218 277 333 396
#     4  12  24  44  74 101 136 182 237 288 334 418
#     4  10  22  40  66  93 124 180 223 274 334 414
#     4  11  23  41  67 100 134 178 219 282 342 405
#     4  11  24  43  67  97 137 176 223 274 349 407
#     4  10  23  42  65  97 132 180 231 281 342 411
#
# _framework density 21.670521999999998
#
# number of rings (size 3 to 8) (size 9 to 14) (size 15 to 20)
#    0.000    1.143    1.429    5.143   10.000    0.000 
#    1.286    0.714    0.000    0.000    0.000    0.000 
#    0.000    0.000    0.000    0.000    0.000    0.000 
#
# Total GULP energy -156550.383201 kJ/mol
# GULP energy per Si atom -5591.085114 kJ/mol
# Density = 2.162120 g / cm^3
# Si number density = 21.670522 Si / 1000 Ang^3
#
#
#
# Elastic Constant Matrix: (Units=GPa)
#
#
# Indices 1 2 3 4 5 6 
#
# 1 121.2907 39.8783 55.8615 0.0000 -30.1257 0.0000
# 2 39.8783 71.8737 23.8421 0.0000 -19.0586 0.0000
# 3 55.8615 23.8421 124.7369 0.0000 -13.6987 0.0000
# 4 0.0000 0.0000 0.0000 34.8726 0.0000 -8.5128
# 5 -30.1257 -19.0586 -13.6987 0.0000 44.6242 0.0000
# 6 0.0000 0.0000 0.0000 -8.5128 0.0000 29.1527
#
#
#
# Elastic Compliance Matrix: (Units=1/GPa)
#
#
# Indices 1 2 3 4 5 6 
#
# 1 0.013100 -0.004303 -0.004424 0.000000 0.005648 0.000000
# 2 -0.004303 0.017794 -0.000992 0.000000 0.004390 0.000000
# 3 -0.004424 -0.000992 0.010155 0.000000 -0.000293 0.000000
# 4 0.000000 0.000000 0.000000 0.030877 0.000000 0.009016
# 5 0.005648 0.004390 -0.000293 0.000000 0.028007 0.000000
# 6 0.000000 0.000000 0.000000 0.009016 0.000000 0.036935
#
#
# Mechanical properties :
#
#
# Convention : Reuss Voigt Hill
#
# Bulk Modulus (GPa) = 46.27164 61.89612 54.08388
# Shear Modulus (GPa) = 30.57928 34.95118 32.76523
#
# Velocity S-wave (km/s) = 3.76054 4.02038 3.89263
# Velocity P-wave (km/s) = 6.34462 7.08348 6.72420
#
# Compressibility (1/GPa) = 0.02161151
#
# Stress axis : x y z
#
# Youngs Moduli (GPa) = 76.33831 56.19875 98.46948
#
# Poissons Ratio (x) = 0.24183 0.43560
# Poissons Ratio (y) = 0.32849 0.09767
# Poissons Ratio (z) = 0.33770 0.05574
#
# Static dielectric constant tensor:
#      x y z
#    x 1.797130 0.000000 0.046080 
#    y 0.000000 1.821750 0.000000 
#    z 0.046080 0.000000 1.838250 
# 
# From -- ./inp_files/11520.got.cif
#   From: 2010.05.17/outbox.cif.g08.bks.cpg/sg15_6_cif.got.tgz:11520.got - 2010.06.03 18:47:42.
