data_PCOD9288335
_publ_section_title
;
Structure prediction by ZEFSAII (Michael W. Deem and Ramdas Pophale) SiO2 
 PCOD9288335
Probable space group: C 2/C
;
_chemical_formula_sum "Si O2"
_cell_formula_units_Z 40
_cell_length_a 12.451860
_cell_length_b 8.691132
_cell_length_c 14.890670
_cell_angle_alpha 90.000000
_cell_angle_beta 86.756361
_cell_angle_gamma 90.000000
_cell_volume 1608.897951
_symmetry_space_group_name_H-M "C 2/C"
_symmetry_group_IT_number 15
_symmetry_cell_setting 'monoclinic'
loop_
_space_group_symop_operation_xyz
x,y,z
-x,y,1/2-z
-x,-y,-z
x,-y,1/2+z
1/2+x,1/2+y,z
1/2-x,1/2+y,1/2-z
1/2-x,1/2-y,-z
1/2+x,1/2-y,1/2+z
loop_
_atom_site_type_symbol
_atom_site_label
_atom_site_fract_x
_atom_site_fract_y
_atom_site_fract_z
Si Si1 0.023570 0.655630 0.602658
Si Si2 0.000000 0.600517 0.250000
Si Si3 0.000000 0.901163 0.750000
Si Si4 0.670751 0.650340 0.801462
Si Si5 0.276922 0.984591 0.464699
Si Si6 0.775012 0.685658 0.614177
O O1 0.045808 0.798897 0.666680
O O2 0.900502 0.683094 0.580374
O O3 0.031861 0.509882 0.667874
O O4 0.111506 0.607727 0.525559
O O5 0.904601 0.705046 0.216029
O O6 0.904973 0.005169 0.716248
O O7 0.713679 0.625292 0.899134
O O8 0.762241 0.658362 0.720416
O O9 0.277041 0.152360 0.413132
O O10 0.226663 0.041485 0.560988
#
# Coordination Sequence:
#
# PCOD9288335 Si02
#       6
#     8   4   4   8   8   8
#     4  11  21  40  66  97 129 174 219 281 324 411
#     4  10  22  38  68  96 128 174 226 266 344 394
#     4  10  22  38  68  96 128 174 226 266 344 394
#     4  11  22  43  64  94 134 175 216 285 328 406
#     4  11  24  42  67  98 133 176 225 279 337 399
#     4  11  24  42  67  98 133 176 225 279 337 399
#
# _framework density 24.861737999999999
#
# number of rings (size 3 to 8) (size 9 to 14) (size 15 to 20)
#    0.000    1.200    4.000    3.000    0.000    0.000 
#    0.000   10.000    0.000    0.000    0.000    0.000 
#    0.000    0.000    0.000    0.000    0.000    0.000 
#
# Total GULP energy -111883.731344 kJ/mol
# GULP energy per Si atom -5594.186567 kJ/mol
# Density = 2.480515 g / cm^3
# Si number density = 24.861738 Si / 1000 Ang^3
#
#
#
# Elastic Constant Matrix: (Units=GPa)
#
#
# Indices 1 2 3 4 5 6 
#
# 1 111.6922 39.7729 16.3709 0.0000 11.0519 0.0000
# 2 39.7729 112.8492 21.3083 0.0000 -14.1361 0.0000
# 3 16.3709 21.3083 66.1755 0.0000 7.2539 0.0000
# 4 0.0000 0.0000 0.0000 26.7967 0.0000 -7.1861
# 5 11.0519 -14.1361 7.2539 0.0000 26.7065 0.0000
# 6 0.0000 0.0000 0.0000 -7.1861 0.0000 25.1445
#
#
#
# Elastic Compliance Matrix: (Units=1/GPa)
#
#
# Indices 1 2 3 4 5 6 
#
# 1 0.011460 -0.004846 -0.000488 0.000000 -0.007175 0.000000
# 2 -0.004846 0.012518 -0.003894 0.000000 0.009689 0.000000
# 3 -0.000488 -0.003894 0.017202 0.000000 -0.006531 0.000000
# 4 0.000000 0.000000 0.000000 0.040415 0.000000 0.011550
# 5 -0.007175 0.009689 -0.006531 0.000000 0.047316 0.000000
# 6 0.000000 0.000000 0.000000 0.011550 0.000000 0.043071
#
#
# Mechanical properties :
#
#
# Convention : Reuss Voigt Hill
#
# Bulk Modulus (GPa) = 44.00603 49.51346 46.75974
# Shear Modulus (GPa) = 25.25077 29.94719 27.59898
#
# Velocity S-wave (km/s) = 3.19038 3.47443 3.33543
# Velocity P-wave (km/s) = 5.59554 6.00452 5.80364
#
# Compressibility (1/GPa) = 0.02272416
#
# Stress axis : x y z
#
# Youngs Moduli (GPa) = 87.25860 79.88375 58.13276
#
# Poissons Ratio (x) = 0.38709 0.02839
# Poissons Ratio (y) = 0.42282 0.22638
# Poissons Ratio (z) = 0.04261 0.31108
#
# Static dielectric constant tensor:
#      x y z
#    x 2.059030 0.000000 -0.015530 
#    y 0.000000 1.964270 0.000000 
#    z -0.015530 0.000000 2.006520 
# 
# From -- ./inp_files/187860.got.cif
#   From: 2010.05.17/outbox.cif.g08.bks.cpg/sg15_94_cif.got.tgz:187860.got - 2010.06.03 18:47:42.
