data_PCOD9288296
_publ_section_title
;
Structure prediction by ZEFSAII (Michael W. Deem and Ramdas Pophale) SiO2 
 PCOD9288296
Probable space group: C 2/C
;
_chemical_formula_sum "Si O2"
_cell_formula_units_Z 64
_cell_length_a 18.171622
_cell_length_b 18.760869
_cell_length_c 15.647881
_cell_angle_alpha 90.000000
_cell_angle_beta 142.053306
_cell_angle_gamma 90.000000
_cell_volume 3280.397700
_symmetry_space_group_name_H-M "C 2/C"
_symmetry_group_IT_number 15
_symmetry_cell_setting 'monoclinic'
loop_
_space_group_symop_operation_xyz
x,y,z
-x,y,1/2-z
-x,-y,-z
x,-y,1/2+z
1/2+x,1/2+y,z
1/2-x,1/2+y,1/2-z
1/2-x,1/2-y,-z
1/2+x,1/2-y,1/2+z
loop_
_atom_site_type_symbol
_atom_site_label
_atom_site_fract_x
_atom_site_fract_y
_atom_site_fract_z
Si Si1 0.423974 0.676030 0.346763
Si Si2 0.725177 0.126691 0.827477
Si Si3 0.871417 0.952480 0.168925
Si Si4 0.914035 0.935102 0.406704
Si Si5 0.966620 0.673781 0.565636
Si Si6 0.639992 0.709101 0.854787
Si Si7 0.763203 0.896549 0.557482
Si Si8 0.804195 0.260888 0.784770
O O1 0.516603 0.629818 0.485271
O O2 0.485438 0.747335 0.365338
O O3 0.365264 0.633563 0.214244
O O4 0.318653 0.694793 0.318254
O O5 0.789240 0.060037 0.842018
O O6 0.583513 0.125631 0.683544
O O7 0.770380 0.196571 0.818398
O O8 0.766937 0.129071 0.963288
O O9 0.888248 0.933319 0.283537
O O10 0.843172 0.874554 0.105280
O O11 0.000000 0.976992 0.250000
O O12 0.779208 0.017594 0.073280
O O13 0.000000 0.000000 0.500000
O O14 0.859619 0.637378 0.519357
O O15 0.910993 0.691148 0.421446
O O16 0.500000 0.726400 0.750000
O O17 0.660358 0.728382 0.773428
O O18 0.750000 0.750000 0.000000
#
# Coordination Sequence:
#
# PCOD9288296 Si02
#       8
#     8   8   8   8   8   8   8   8
#     4  10  22  38  67  95 133 167 221 269 331 401
#     4  11  23  38  64  91 133 168 213 265 327 393
#     4  11  24  42  67  95 133 169 229 275 332 400
#     4  12  22  41  65  93 128 177 214 275 328 389
#     4  10  22  41  63  92 133 171 210 268 329 406
#     4  11  26  44  74 100 132 177 228 293 339 391
#     4  11  24  41  60 100 131 179 216 269 327 405
#     4  10  22  41  66  98 131 164 216 270 336 397
#
# _framework density 19.509830000000001
#
# number of rings (size 3 to 8) (size 9 to 14) (size 15 to 20)
#    0.000    1.250    3.750    1.125    7.000    5.500 
#    0.000    1.875    0.000    0.000    0.000    0.000 
#    0.000    0.000    0.000    0.000    0.000    0.000 
#
# Total GULP energy -178408.018456 kJ/mol
# GULP energy per Si atom -5575.250577 kJ/mol
# Density = 1.946542 g / cm^3
# Si number density = 19.509830 Si / 1000 Ang^3
#
#
#
# Elastic Constant Matrix: (Units=GPa)
#
#
# Indices 1 2 3 4 5 6 
#
# 1 111.4987 40.9669 54.9205 0.0000 -14.3149 0.0000
# 2 40.9669 85.4973 33.5642 0.0000 12.2473 0.0000
# 3 54.9205 33.5642 93.9689 0.0000 3.9697 0.0000
# 4 0.0000 0.0000 0.0000 -38.0138 0.0000 75.1215
# 5 -14.3149 12.2473 3.9697 0.0000 26.8521 0.0000
# 6 0.0000 0.0000 0.0000 75.1215 0.0000 -33.6605
#
#
#
# Elastic Compliance Matrix: (Units=1/GPa)
#
#
# Indices 1 2 3 4 5 6 
#
# 1 0.017360 -0.007058 -0.008203 0.000000 0.013687 0.000000
# 2 -0.007058 0.017339 -0.001585 0.000000 -0.011437 0.000000
# 3 -0.008203 -0.001585 0.016258 0.000000 -0.006054 0.000000
# 4 0.000000 0.000000 0.000000 0.007714 0.000000 0.017215
# 5 0.013687 -0.011437 -0.006054 0.000000 0.050649 0.000000
# 6 0.000000 0.000000 0.000000 0.017215 0.000000 0.008711
#
#
# Mechanical properties :
#
#
# Convention : Reuss Voigt Hill
#
# Bulk Modulus (GPa) = 57.92322 61.09647 59.50985
# Shear Modulus (GPa) = 31.75048 1.80309 16.77679
#
# Velocity S-wave (km/s) = 4.03849 0.96240 2.93561
# Velocity P-wave (km/s) = 7.17632 5.71127 6.48530
#
# Compressibility (1/GPa) = 0.01726423
#
# Stress axis : x y z
#
# Youngs Moduli (GPa) = 57.60403 57.67404 61.50845
#
# Poissons Ratio (x) = 0.40709 0.50456
# Poissons Ratio (y) = 0.40659 0.09747
# Poissons Ratio (z) = 0.47253 0.09139
#
# Static dielectric constant tensor:
#      x y z
#    x 1.676830 0.000000 -0.003560 
#    y 0.000000 1.740150 0.000000 
#    z -0.003560 0.000000 1.707600 
# 
# From -- ./inp_files/163278.got.cif
#   From: 2010.05.17/outbox.cif.g08.bks.cpg/sg15_82_cif.got.tgz:163278.got - 2010.06.03 18:47:42.
