data_PCOD9288425
_publ_section_title
;
Structure prediction by ZEFSAII (Michael W. Deem and Ramdas Pophale) SiO2 
 PCOD9288425
Probable space group: C 2/C
;
_chemical_formula_sum "Si O2"
_cell_formula_units_Z 60
_cell_length_a 20.294978
_cell_length_b 13.313974
_cell_length_c 11.537053
_cell_angle_alpha 90.000000
_cell_angle_beta 114.689543
_cell_angle_gamma 90.000000
_cell_volume 2832.412262
_symmetry_space_group_name_H-M "C 2/C"
_symmetry_group_IT_number 15
_symmetry_cell_setting 'monoclinic'
loop_
_space_group_symop_operation_xyz
x,y,z
-x,y,1/2-z
-x,-y,-z
x,-y,1/2+z
1/2+x,1/2+y,z
1/2-x,1/2+y,1/2-z
1/2-x,1/2-y,-z
1/2+x,1/2-y,1/2+z
loop_
_atom_site_type_symbol
_atom_site_label
_atom_site_fract_x
_atom_site_fract_y
_atom_site_fract_z
Si Si1 0.242106 0.818899 0.247187
Si Si2 0.397025 0.206678 0.753771
Si Si3 0.734545 0.503822 0.922381
Si Si4 0.624390 0.014854 0.320903
Si Si5 0.470385 0.742874 0.980863
Si Si6 0.500000 0.822438 0.750000
Si Si7 0.866900 0.871870 0.534094
Si Si8 0.829611 0.631791 0.347397
O O1 0.325722 0.802283 0.281288
O O2 0.204502 0.716098 0.261349
O O3 0.226766 0.909320 0.322499
O O4 0.202487 0.839478 0.094832
O O5 0.384686 0.295050 0.651459
O O6 0.404265 0.098617 0.695686
O O7 0.464706 0.229496 0.886070
O O8 0.659945 0.476247 0.931284
O O9 0.765976 0.402421 0.885305
O O10 0.800947 0.528685 0.055860
O O11 0.567530 0.100610 0.313955
O O12 0.644258 0.034793 0.201865
O O13 0.490407 0.757956 0.860510
O O14 0.402630 0.819243 0.949571
O O15 0.434717 0.637601 0.995994
#
# Coordination Sequence:
#
# PCOD9288425 Si02
#       8
#     8   8   8   8   8   4   8   8
#     4  11  22  39  63  92 132 171 209 275 323 374
#     4  12  21  38  64 101 133 168 212 265 325 397
#     4  12  21  38  63  93 130 168 224 265 321 387
#     4  11  23  35  61  99 132 173 205 258 331 394
#     4  10  24  39  63  91 132 177 211 262 329 393
#     4  10  24  40  56  98 146 168 206 258 332 416
#     4  11  23  41  64  94 129 175 221 265 325 389
#     4  10  22  39  58  93 129 169 213 261 326 384
#
# _framework density 21.183358999999999
#
# number of rings (size 3 to 8) (size 9 to 14) (size 15 to 20)
#    0.000    1.067    4.000    3.200    3.733    1.600 
#    0.000    1.333    0.000    7.200    3.467    0.000 
#    0.000    0.000    0.000    0.000    0.000    0.000 
#
# Total GULP energy -167450.582925 kJ/mol
# GULP energy per Si atom -5581.686097 kJ/mol
# Density = 2.113514 g / cm^3
# Si number density = 21.183359 Si / 1000 Ang^3
#
#
#
# Elastic Constant Matrix: (Units=GPa)
#
#
# Indices 1 2 3 4 5 6 
#
# 1 122.0559 42.2961 53.6535 0.0000 2.8725 0.0000
# 2 42.2961 44.6394 42.8511 0.0000 6.9817 0.0000
# 3 53.6535 42.8511 117.9987 0.0000 15.8251 0.0000
# 4 0.0000 0.0000 0.0000 23.6924 0.0000 -15.8430
# 5 2.8725 6.9817 15.8251 0.0000 32.7366 0.0000
# 6 0.0000 0.0000 0.0000 -15.8430 0.0000 20.7812
#
#
#
# Elastic Compliance Matrix: (Units=1/GPa)
#
#
# Indices 1 2 3 4 5 6 
#
# 1 0.012683 -0.010043 -0.002414 0.000000 0.002196 0.000000
# 2 -0.010043 0.042402 -0.010412 0.000000 -0.003129 0.000000
# 3 -0.002414 -0.010412 0.013930 0.000000 -0.004302 0.000000
# 4 0.000000 0.000000 0.000000 0.086102 0.000000 0.065641
# 5 0.002196 -0.003129 -0.004302 0.000000 0.033101 0.000000
# 6 0.000000 0.000000 0.000000 0.065641 0.000000 0.098164
#
#
# Mechanical properties :
#
#
# Convention : Reuss Voigt Hill
#
# Bulk Modulus (GPa) = 42.96188 62.47728 52.71958
# Shear Modulus (GPa) = 14.71114 25.16824 19.93969
#
# Velocity S-wave (km/s) = 2.63813 3.45064 3.07137
# Velocity P-wave (km/s) = 5.44101 6.74044 6.12528
#
# Compressibility (1/GPa) = 0.02327645
#
# Stress axis : x y z
#
# Youngs Moduli (GPa) = 78.84744 23.58386 71.78516
#
# Poissons Ratio (x) = 0.23685 0.17330
# Poissons Ratio (y) = 0.79186 0.74744
# Poissons Ratio (z) = 0.19035 0.24556
#
# Static dielectric constant tensor:
#      x y z
#    x 1.789180 0.000000 -0.040830 
#    y 0.000000 1.827950 0.000000 
#    z -0.040830 0.000000 1.772610 
# 
# From -- ./inp_files/112765.got.cif
#   From: 2010.05.17/outbox.cif.g08.bks.cpg/sg15_57_cif.got.tgz:112765.got - 2010.06.03 18:47:42.
