data_PCOD9288175
_publ_section_title
;
Structure prediction by ZEFSAII (Michael W. Deem and Ramdas Pophale) SiO2 
 PCOD9288175
Probable space group: C 2/C
;
_chemical_formula_sum "Si O2"
_cell_formula_units_Z 44
_cell_length_a 15.069384
_cell_length_b 5.098804
_cell_length_c 22.932468
_cell_angle_alpha 90.000000
_cell_angle_beta 79.924035
_cell_angle_gamma 90.000000
_cell_volume 1734.858863
_symmetry_space_group_name_H-M "C 2/C"
_symmetry_group_IT_number 15
_symmetry_cell_setting 'monoclinic'
loop_
_space_group_symop_operation_xyz
x,y,z
-x,y,1/2-z
-x,-y,-z
x,-y,1/2+z
1/2+x,1/2+y,z
1/2-x,1/2+y,1/2-z
1/2-x,1/2-y,-z
1/2+x,1/2-y,1/2+z
loop_
_atom_site_type_symbol
_atom_site_label
_atom_site_fract_x
_atom_site_fract_y
_atom_site_fract_z
Si Si1 0.633676 0.700907 0.277923
Si Si2 0.478255 0.592355 0.098556
Si Si3 0.156423 0.291937 0.712943
Si Si4 0.655952 0.105818 0.598080
Si Si5 0.895896 0.766889 0.489851
Si Si6 0.250000 0.250000 0.000000
O O1 0.589875 0.581275 0.340634
O O2 0.740181 0.717628 0.278079
O O3 0.617226 0.493932 0.228113
O O4 0.607372 0.988729 0.258385
O O5 0.521345 0.333749 0.063575
O O6 0.564096 0.743703 0.113882
O O7 0.435384 0.752773 0.049562
O O8 0.159216 0.389087 0.646442
O O9 0.656422 0.987464 0.530125
O O10 0.743520 0.275618 0.576423
O O11 0.829702 0.012773 0.495945
#
# Coordination Sequence:
#
# PCOD9288175 Si02
#       6
#     8   8   8   8   8   4
#     4  10  23  46  66  98 129 187 220 293 331 415
#     4  10  23  41  63  96 134 170 226 272 359 404
#     4  10  24  44  70  94 136 174 243 271 346 407
#     4  11  23  41  64 100 129 177 220 289 339 423
#     4  10  22  42  63  97 131 173 217 284 344 415
#     4  10  22  38  64  96 126 168 224 268 340 402
#
# _framework density 25.362290999999999
#
# number of rings (size 3 to 8) (size 9 to 14) (size 15 to 20)
#    0.000    1.818    0.000    2.182    7.636    0.727 
#    9.818    0.000    0.000    0.000    0.000    0.000 
#    0.000    0.000    0.000    0.000    0.000    0.000 
#
# Total GULP energy -122746.847286 kJ/mol
# GULP energy per Si atom -5579.402149 kJ/mol
# Density = 2.530457 g / cm^3
# Si number density = 25.362291 Si / 1000 Ang^3
#
#
#
# Elastic Constant Matrix: (Units=GPa)
#
#
# Indices 1 2 3 4 5 6 
#
# 1 43.7509 25.5206 16.4398 0.0000 -9.8631 0.0000
# 2 25.5206 101.2093 13.0480 0.0000 12.4472 0.0000
# 3 16.4398 13.0480 100.0049 0.0000 9.0046 0.0000
# 4 0.0000 0.0000 0.0000 30.6916 0.0000 8.3754
# 5 -9.8631 12.4472 9.0046 0.0000 39.2353 0.0000
# 6 0.0000 0.0000 0.0000 8.3754 0.0000 25.3608
#
#
#
# Elastic Compliance Matrix: (Units=1/GPa)
#
#
# Indices 1 2 3 4 5 6 
#
# 1 0.033017 -0.009165 -0.005352 0.000000 0.012436 0.000000
# 2 -0.009165 0.012939 0.000404 0.000000 -0.006501 0.000000
# 3 -0.005352 0.000404 0.011190 0.000000 -0.004042 0.000000
# 4 0.000000 0.000000 0.000000 0.035809 0.000000 -0.011826
# 5 0.012436 -0.006501 -0.004042 0.000000 0.031603 0.000000
# 6 0.000000 0.000000 0.000000 -0.011826 0.000000 0.043337
#
#
# Mechanical properties :
#
#
# Convention : Reuss Voigt Hill
#
# Bulk Modulus (GPa) = 34.57678 39.44243 37.00961
# Shear Modulus (GPa) = 24.29993 31.72133 28.01063
#
# Velocity S-wave (km/s) = 3.09870 3.54040 3.32689
# Velocity P-wave (km/s) = 5.14444 5.68313 5.42048
#
# Compressibility (1/GPa) = 0.02892114
#
# Stress axis : x y z
#
# Youngs Moduli (GPa) = 30.28735 77.28560 89.36153
#
# Poissons Ratio (x) = 0.70832 0.47823
# Poissons Ratio (y) = 0.27758 -0.03609
# Poissons Ratio (z) = 0.16209 -0.03121
#
# Static dielectric constant tensor:
#      x y z
#    x 2.184770 0.000000 -0.126120 
#    y 0.000000 2.259680 0.000000 
#    z -0.126120 0.000000 2.089880 
# 
# From -- ./inp_files/246429.got.cif
#   From: 2010.05.17/outbox.cif.g08.bks.cpg/sg15_124_cif.got.tgz:246429.got - 2010.06.03 18:47:42.
