data_PCOD9288854
_publ_section_title
;
Structure prediction by ZEFSAII (Michael W. Deem and Ramdas Pophale) SiO2 
 PCOD9288854
Probable space group: C 2/C
;
_chemical_formula_sum "Si O2"
_cell_formula_units_Z 48
_cell_length_a 7.676575
_cell_length_b 28.183761
_cell_length_c 18.041076
_cell_angle_alpha 90.000000
_cell_angle_beta 34.052974
_cell_angle_gamma 90.000000
_cell_volume 2185.673267
_symmetry_space_group_name_H-M "C 2/C"
_symmetry_group_IT_number 15
_symmetry_cell_setting 'monoclinic'
loop_
_space_group_symop_operation_xyz
x,y,z
-x,y,1/2-z
-x,-y,-z
x,-y,1/2+z
1/2+x,1/2+y,z
1/2-x,1/2+y,1/2-z
1/2-x,1/2-y,-z
1/2+x,1/2-y,1/2+z
loop_
_atom_site_type_symbol
_atom_site_label
_atom_site_fract_x
_atom_site_fract_y
_atom_site_fract_z
Si Si1 0.254976 0.711880 0.600108
Si Si2 0.062991 0.606076 0.495543
Si Si3 0.649728 0.208711 0.905702
Si Si4 0.570589 0.533518 0.307508
Si Si5 0.720307 0.102131 0.606166
Si Si6 0.242391 0.457796 0.524043
O O1 0.553257 0.745795 0.488699
O O2 0.324007 0.656324 0.587167
O O3 0.000000 0.728008 0.750000
O O4 0.069740 0.712235 0.588509
O O5 0.417334 0.586394 0.361522
O O6 0.030318 0.600171 0.596155
O O7 0.960146 0.659998 0.516597
O O8 0.869569 0.573814 0.507086
O O9 0.000000 0.207059 0.750000
O O10 0.500000 0.513340 0.250000
O O11 0.397997 0.502815 0.429934
O O12 0.939244 0.531860 0.179530
O O13 0.500000 0.086411 0.750000
O O14 0.020839 0.070010 0.507591
#
# Coordination Sequence:
#
# PCOD9288854 Si02
#       6
#     8   8   8   8   8   8
#     4   9  21  43  59  93 131 156 214 269 301 383
#     4  10  23  41  65  92 131 163 215 262 312 386
#     4  10  22  39  66  94 124 172 204 254 330 370
#     4  10  23  43  65  96 128 169 217 265 322 382
#     4  10  24  41  64  96 125 168 220 260 318 383
#     4  11  25  43  67  92 128 173 210 268 326 373
#
# _framework density 21.961196000000001
#
# number of rings (size 3 to 8) (size 9 to 14) (size 15 to 20)
#    0.000    2.000    0.000    2.000   11.667    4.000 
#    9.000    0.000    0.000    0.000    0.000    0.000 
#    0.000    0.000    0.000    0.000    0.000    0.000 
#
# Total GULP energy -133989.558510 kJ/mol
# GULP energy per Si atom -5582.898271 kJ/mol
# Density = 2.191121 g / cm^3
# Si number density = 21.961196 Si / 1000 Ang^3
#
#
#
# Elastic Constant Matrix: (Units=GPa)
#
#
# Indices 1 2 3 4 5 6 
#
# 1 68.6915 17.7516 8.9360 0.0000 -3.4358 0.0003
# 2 17.7516 110.8371 77.7300 0.0000 -19.4622 0.0003
# 3 8.9360 77.7300 124.8807 0.0002 -17.8935 0.0002
# 4 0.0000 0.0000 0.0002 33.3006 -0.0001 34.7931
# 5 -3.4358 -19.4622 -17.8935 -0.0001 34.4263 0.0000
# 6 0.0003 0.0003 0.0002 34.7931 0.0000 71.4836
#
#
#
# Elastic Compliance Matrix: (Units=1/GPa)
#
#
# Indices 1 2 3 4 5 6 
#
# 1 0.015229 -0.002937 0.000776 0.000000 0.000263 0.000000
# 2 -0.002937 0.017156 -0.009854 0.000000 0.004284 0.000000
# 3 0.000776 -0.009854 0.014369 0.000000 0.001975 0.000000
# 4 0.000000 0.000000 0.000000 0.061103 0.000000 -0.029741
# 5 0.000263 0.004284 0.001975 0.000000 0.032522 0.000000
# 6 0.000000 0.000000 0.000000 -0.029741 0.000000 0.028465
#
#
# Mechanical properties :
#
#
# Convention : Reuss Voigt Hill
#
# Bulk Modulus (GPa) = 44.00893 57.02716 50.51805
# Shear Modulus (GPa) = 24.94411 41.17488 33.05950
#
# Velocity S-wave (km/s) = 3.37386 4.33470 3.88411
# Velocity P-wave (km/s) = 5.93803 7.14678 6.57026
#
# Compressibility (1/GPa) = 0.02272266
#
# Stress axis : x y z
#
# Youngs Moduli (GPa) = 65.66382 58.28978 69.59554
#
# Poissons Ratio (x) = 0.17121 -0.05402
# Poissons Ratio (y) = 0.19287 0.68582
# Poissons Ratio (z) = -0.05097 0.57441
#
# Static dielectric constant tensor:
#      x y z
#    x 1.826930 0.000000 0.016260 
#    y 0.000000 1.855420 0.000000 
#    z 0.016260 0.000000 1.847070 
# 
# From -- ./inp_files/234752.got.cif
#   From: 2010.05.17/outbox.cif.g08.bks.cpg/sg15_118_cif.got.tgz:234752.got - 2010.06.03 18:47:42.
