data_PCOD9288841
_publ_section_title
;
Structure prediction by ZEFSAII (Michael W. Deem and Ramdas Pophale) SiO2 
 PCOD9288841
Probable space group: C 2/C
;
_chemical_formula_sum "Si O2"
_cell_formula_units_Z 64
_cell_length_a 17.514812
_cell_length_b 10.033883
_cell_length_c 31.696433
_cell_angle_alpha 90.000000
_cell_angle_beta 37.326317
_cell_angle_gamma 90.000000
_cell_volume 3377.621219
_symmetry_space_group_name_H-M "C 2/C"
_symmetry_group_IT_number 15
_symmetry_cell_setting 'monoclinic'
loop_
_space_group_symop_operation_xyz
x,y,z
-x,y,1/2-z
-x,-y,-z
x,-y,1/2+z
1/2+x,1/2+y,z
1/2-x,1/2+y,1/2-z
1/2-x,1/2-y,-z
1/2+x,1/2-y,1/2+z
loop_
_atom_site_type_symbol
_atom_site_label
_atom_site_fract_x
_atom_site_fract_y
_atom_site_fract_z
Si Si1 0.721498 0.162835 0.554146
Si Si2 0.159460 0.347314 0.436079
Si Si3 0.542225 0.862913 0.280287
Si Si4 0.762486 0.348700 0.689906
Si Si5 0.762530 0.647358 0.456192
Si Si6 0.628165 0.144652 0.452762
Si Si7 0.119961 0.899569 0.225232
Si Si8 0.442033 0.852708 0.691828
O O1 0.750000 0.250000 0.500000
O O2 0.576719 0.163337 0.635651
O O3 0.800763 0.237021 0.555397
O O4 0.765472 0.010023 0.526855
O O5 0.181442 0.221062 0.456020
O O6 0.165254 0.496950 0.453845
O O7 0.270762 0.349584 0.353666
O O8 0.021229 0.341817 0.476895
O O9 0.500000 0.843310 0.250000
O O10 0.662728 0.771097 0.236387
O O11 0.583831 0.014861 0.269824
O O12 0.834388 0.350430 0.613177
O O13 0.676318 0.480077 0.727148
O O14 0.861608 0.351987 0.684272
O O15 0.750000 0.750000 0.500000
O O16 0.909830 0.647547 0.381244
O O17 0.084632 0.778710 0.270289
O O18 0.000000 0.943243 0.250000
#
# Coordination Sequence:
#
# PCOD9288841 Si02
#       8
#     8   8   8   8   8   8   8   8
#     4  11  25  41  67  96 132 176 226 275 329 404
#     4  10  22  39  66  88 128 173 211 269 328 391
#     4  11  23  43  68  92 134 178 217 274 339 389
#     4  11  23  39  65  97 129 171 219 274 324 389
#     4  11  23  41  63  90 129 173 216 264 333 392
#     4  10  22  42  63  93 133 172 219 270 334 391
#     4  11  22  39  64  94 125 168 220 265 318 393
#     4  11  24  40  64  96 132 166 220 271 331 384
#
# _framework density 18.948246999999999
#
# number of rings (size 3 to 8) (size 9 to 14) (size 15 to 20)
#    0.000    1.250    2.500    3.000    3.500    7.500 
#    0.000    2.500    0.000    0.000    0.000    0.000 
#    0.000    0.000    0.000    0.000    0.000    0.000 
#
# Total GULP energy -178630.212368 kJ/mol
# GULP energy per Si atom -5582.194136 kJ/mol
# Density = 1.890512 g / cm^3
# Si number density = 18.948247 Si / 1000 Ang^3
#
#
#
# Elastic Constant Matrix: (Units=GPa)
#
#
# Indices 1 2 3 4 5 6 
#
# 1 73.9211 23.2407 4.1595 0.0000 -2.8954 -0.0001
# 2 23.2407 109.7279 11.6643 -0.0002 2.0150 0.0000
# 3 4.1595 11.6643 46.4994 0.0000 -6.6544 0.0000
# 4 0.0000 -0.0002 0.0000 19.1905 0.0000 16.9714
# 5 -2.8954 2.0150 -6.6544 0.0000 22.2058 0.0000
# 6 -0.0001 0.0000 0.0000 16.9714 0.0000 19.5176
#
#
#
# Elastic Compliance Matrix: (Units=1/GPa)
#
#
# Indices 1 2 3 4 5 6 
#
# 1 0.014601 -0.003108 -0.000223 0.000000 0.002119 0.000000
# 2 -0.003108 0.010081 -0.002549 0.000000 -0.002084 0.000000
# 3 -0.000223 -0.002549 0.023188 0.000000 0.007151 0.000000
# 4 0.000000 0.000000 0.000000 0.225574 0.000000 -0.196147
# 5 0.002119 -0.002084 0.007151 0.000000 0.047642 0.000000
# 6 0.000000 0.000000 0.000000 -0.196147 0.000000 0.221794
#
#
# Mechanical properties :
#
#
# Convention : Reuss Voigt Hill
#
# Bulk Modulus (GPa) = 27.69317 34.25305 30.97311
# Shear Modulus (GPa) = 8.82338 24.92169 16.87254
#
# Velocity S-wave (km/s) = 2.16025 3.63057 2.98728
# Velocity P-wave (km/s) = 4.56827 5.97421 5.31791
#
# Compressibility (1/GPa) = 0.03610999
#
# Stress axis : x y z
#
# Youngs Moduli (GPa) = 68.49071 99.19763 43.12497
#
# Poissons Ratio (x) = 0.30827 0.00963
# Poissons Ratio (y) = 0.21284 0.10993
# Poissons Ratio (z) = 0.01529 0.25286
#
# Static dielectric constant tensor:
#      x y z
#    x 1.626000 0.000000 0.035550 
#    y 0.000000 1.688870 0.000000 
#    z 0.035550 0.000000 1.632090 
# 
# From -- ./inp_files/315666.got.cif
#   From: 2010.05.17/outbox.cif.g08.bks.cpg/sg15_158_cif.got.tgz:315666.got - 2010.06.03 18:47:42.
