data_PCOD9288468
_publ_section_title
;
Structure prediction by ZEFSAII (Michael W. Deem and Ramdas Pophale) SiO2 
 PCOD9288468
Probable space group: C 2/C
;
_chemical_formula_sum "Si O2"
_cell_formula_units_Z 52
_cell_length_a 11.175751
_cell_length_b 8.323592
_cell_length_c 25.084904
_cell_angle_alpha 90.000000
_cell_angle_beta 74.039944
_cell_angle_gamma 90.000000
_cell_volume 2243.511423
_symmetry_space_group_name_H-M "C 2/C"
_symmetry_group_IT_number 15
_symmetry_cell_setting 'monoclinic'
loop_
_space_group_symop_operation_xyz
x,y,z
-x,y,1/2-z
-x,-y,-z
x,-y,1/2+z
1/2+x,1/2+y,z
1/2-x,1/2+y,1/2-z
1/2-x,1/2-y,-z
1/2+x,1/2-y,1/2+z
loop_
_atom_site_type_symbol
_atom_site_label
_atom_site_fract_x
_atom_site_fract_y
_atom_site_fract_z
Si Si1 0.250000 0.250000 0.000000
Si Si2 0.574316 0.557660 0.098982
Si Si3 0.777420 0.625649 0.449515
Si Si4 0.657133 0.232234 0.856924
Si Si5 0.085030 0.815388 0.194888
Si Si6 0.103946 0.845394 0.444682
Si Si7 0.048372 0.617395 0.369413
O O1 0.398565 0.219810 0.007281
O O2 0.188575 0.153567 0.060934
O O3 0.467113 0.667346 0.137846
O O4 0.606863 0.430526 0.141102
O O5 0.508881 0.461184 0.057188
O O6 0.750000 0.750000 0.500000
O O7 0.708064 0.694990 0.406300
O O8 0.721590 0.442370 0.459111
O O9 0.923127 0.612945 0.420713
O O10 0.778486 0.242949 0.804344
O O11 0.617298 0.048507 0.863320
O O12 0.002834 0.668819 0.181789
O O13 0.000000 0.894818 0.250000
O O14 0.128253 0.761872 0.385219
#
# Coordination Sequence:
#
# PCOD9288468 Si02
#       7
#     4   8   8   8   8   8   8
#     4  12  22  34  64  90 126 170 206 244 304 382
#     4  10  23  41  59  89 128 162 204 256 314 376
#     4  10  23  35  54  84 123 160 200 243 287 359
#     4  10  22  41  59  89 120 157 207 250 308 368
#     4  10  23  44  65  87 119 159 211 269 317 371
#     4  10  23  36  54  83 123 164 200 241 295 360
#     4  10  22  39  60  86 119 158 203 251 306 364
#
# _framework density 23.177954
#
# number of rings (size 3 to 8) (size 9 to 14) (size 15 to 20)
#    0.000    1.846    0.000    2.308   12.923    1.846 
#    0.000    0.769    0.000    0.000    0.000    0.000 
#    0.000    0.000    0.000    0.000    0.000    0.000 
#
# Total GULP energy -144797.305600 kJ/mol
# GULP energy per Si atom -5569.127138 kJ/mol
# Density = 2.312520 g / cm^3
# Si number density = 23.177954 Si / 1000 Ang^3
#
#
#
# Elastic Constant Matrix: (Units=GPa)
#
#
# Indices 1 2 3 4 5 6 
#
# 1 99.1325 37.7687 23.0849 0.0000 -17.1852 0.0000
# 2 37.7687 107.6424 17.9475 0.0000 -9.8747 0.0000
# 3 23.0849 17.9475 75.3451 0.0000 -22.9336 0.0000
# 4 0.0000 0.0000 0.0000 17.1606 0.0000 -4.0885
# 5 -17.1852 -9.8747 -22.9336 0.0000 23.6165 0.0000
# 6 0.0000 0.0000 0.0000 -4.0885 0.0000 51.7251
#
#
#
# Elastic Compliance Matrix: (Units=1/GPa)
#
#
# Indices 1 2 3 4 5 6 
#
# 1 0.012937 -0.003744 -0.000970 0.000000 0.006907 0.000000
# 2 -0.003744 0.010869 -0.001260 0.000000 0.000596 0.000000
# 3 -0.000970 -0.001260 0.019157 0.000000 0.017370 0.000000
# 4 0.000000 0.000000 0.000000 0.059392 0.000000 0.004695
# 5 0.006907 0.000596 0.017370 0.000000 0.064487 0.000000
# 6 0.000000 0.000000 0.000000 0.004695 0.000000 0.019704
#
#
# Mechanical properties :
#
#
# Convention : Reuss Voigt Hill
#
# Bulk Modulus (GPa) = 32.24297 48.85801 40.55049
# Shear Modulus (GPa) = 23.94284 32.05503 27.99893
#
# Velocity S-wave (km/s) = 3.21752 3.72290 3.47940
# Velocity P-wave (km/s) = 5.26730 6.29327 5.80301
#
# Compressibility (1/GPa) = 0.03101451
#
# Stress axis : x y z
#
# Youngs Moduli (GPa) = 77.29714 92.00896 52.20090
#
# Poissons Ratio (x) = 0.34448 0.05061
# Poissons Ratio (y) = 0.28940 0.06579
# Poissons Ratio (z) = 0.07495 0.11596
#
# Static dielectric constant tensor:
#      x y z
#    x 1.990770 0.000000 0.061560 
#    y 0.000000 2.208870 0.000000 
#    z 0.061560 0.000000 1.982410 
# 
# From -- ./inp_files/309881.got.cif
#   From: 2010.05.17/outbox.cif.g08.bks.cpg/sg15_155_cif.got.tgz:309881.got - 2010.06.03 18:47:42.
