data_PCOD9288071
_publ_section_title
;
Structure prediction by ZEFSAII (Michael W. Deem and Ramdas Pophale) SiO2 
 PCOD9288071
Probable space group: C 2/C
;
_chemical_formula_sum "Si O2"
_cell_formula_units_Z 40
_cell_length_a 18.471376
_cell_length_b 9.998953
_cell_length_c 24.921312
_cell_angle_alpha 90.000000
_cell_angle_beta 159.253114
_cell_angle_gamma 90.000000
_cell_volume 1630.506516
_symmetry_space_group_name_H-M "C 2/C"
_symmetry_group_IT_number 15
_symmetry_cell_setting 'monoclinic'
loop_
_space_group_symop_operation_xyz
x,y,z
-x,y,1/2-z
-x,-y,-z
x,-y,1/2+z
1/2+x,1/2+y,z
1/2-x,1/2+y,1/2-z
1/2-x,1/2-y,-z
1/2+x,1/2-y,1/2+z
loop_
_atom_site_type_symbol
_atom_site_label
_atom_site_fract_x
_atom_site_fract_y
_atom_site_fract_z
Si Si1 0.282297 0.052250 0.329721
Si Si2 0.004338 0.448647 0.817428
Si Si3 0.627131 0.388492 0.056289
Si Si4 0.737077 0.255916 0.281658
Si Si5 0.868190 0.887060 0.569538
O O1 0.190451 0.911126 0.242954
O O2 0.500000 0.000000 0.500000
O O3 0.296985 0.164476 0.294179
O O4 0.107767 0.103035 0.250570
O O5 0.858175 0.574785 0.732513
O O6 0.905023 0.315910 0.772957
O O7 0.000000 0.437276 0.750000
O O8 0.228774 0.489799 0.992769
O O9 0.500000 0.500000 0.000000
O O10 0.478571 0.262845 0.962475
O O11 0.632942 0.397515 0.995993
O O12 0.750000 0.750000 0.500000
#
# Coordination Sequence:
#
# PCOD9288071 Si02
#       5
#     8   8   8   8   8
#     4  11  27  46  71 109 147 197 252 304 374 456
#     4   9  19  38  68  99 138 192 240 303 380 443
#     4   8  17  36  64  98 130 189 242 288 359 453
#     4  10  23  42  71 101 144 188 249 304 366 455
#     4  10  22  38  63 103 147 180 242 315 375 435
#
# _framework density 24.532253000000001
#
# number of rings (size 3 to 8) (size 9 to 14) (size 15 to 20)
#    0.000    2.400    0.000    0.000    8.400    8.800 
#    0.000    1.000    0.000    0.000    0.000    0.000 
#    0.000    0.000    0.000    0.000    0.000    0.000 
#
# Total GULP energy -111604.441246 kJ/mol
# GULP energy per Si atom -5580.222062 kJ/mol
# Density = 2.447642 g / cm^3
# Si number density = 24.532253 Si / 1000 Ang^3
#
#
#
# Elastic Constant Matrix: (Units=GPa)
#
#
# Indices 1 2 3 4 5 6 
#
# 1 85.5481 37.6238 50.0637 -0.0028 23.9778 -0.0025
# 2 37.6238 144.3217 32.1722 -0.0149 2.1286 0.0001
# 3 50.0637 32.1722 151.4187 -0.0544 31.0882 0.0008
# 4 -0.0028 -0.0149 -0.0544 33.2356 0.0113 3.9808
# 5 23.9778 2.1286 31.0882 0.0113 33.7838 0.0006
# 6 -0.0025 0.0001 0.0008 3.9808 0.0006 32.7398
#
#
#
# Elastic Compliance Matrix: (Units=1/GPa)
#
#
# Indices 1 2 3 4 5 6 
#
# 1 0.017889 -0.003823 -0.003138 -0.000002 -0.009568 0.000002
# 2 -0.003823 0.008129 -0.001128 0.000000 0.003239 0.000000
# 3 -0.003138 -0.001128 0.009136 0.000017 -0.006108 -0.000002
# 4 -0.000002 0.000000 0.000017 0.030533 -0.000024 -0.003712
# 5 -0.009568 0.003239 -0.006108 -0.000024 0.041808 0.000002
# 6 0.000002 0.000000 -0.000002 -0.003712 0.000002 0.030995
#
#
# Mechanical properties :
#
#
# Convention : Reuss Voigt Hill
#
# Bulk Modulus (GPa) = 52.69989 69.00087 60.85038
# Shear Modulus (GPa) = 31.05726 37.38042 34.21884
#
# Velocity S-wave (km/s) = 3.56192 3.90773 3.73882
# Velocity P-wave (km/s) = 6.20039 6.96765 6.59519
#
# Compressibility (1/GPa) = 0.01897537
#
# Stress axis : x y z
#
# Youngs Moduli (GPa) = 55.90124 123.01147 109.46205
#
# Poissons Ratio (x) = 0.47026 0.34348
# Poissons Ratio (y) = 0.21370 0.12352
# Poissons Ratio (z) = 0.17541 0.13880
#
# Static dielectric constant tensor:
#      x y z
#    x 1.965100 0.000010 -0.042460 
#    y 0.000010 1.970910 -0.000020 
#    z -0.042460 -0.000020 2.112690 
# 
# From -- ./inp_files/317614.got.cif
#   From: 2010.05.17/outbox.cif.g08.bks.cpg/sg15_159_cif.got.tgz:317614.got - 2010.06.03 18:47:42.
