data_PCOD9288308
_publ_section_title
;
Structure prediction by ZEFSAII (Michael W. Deem and Ramdas Pophale) SiO2 
 PCOD9288308
Probable space group: C 2/C
;
_chemical_formula_sum "Si O2"
_cell_formula_units_Z 56
_cell_length_a 18.176599
_cell_length_b 12.273224
_cell_length_c 11.310841
_cell_angle_alpha 90.000000
_cell_angle_beta 99.094875
_cell_angle_gamma 90.000000
_cell_volume 2491.561436
_symmetry_space_group_name_H-M "C 2/C"
_symmetry_group_IT_number 15
_symmetry_cell_setting 'monoclinic'
loop_
_space_group_symop_operation_xyz
x,y,z
-x,y,1/2-z
-x,-y,-z
x,-y,1/2+z
1/2+x,1/2+y,z
1/2-x,1/2+y,1/2-z
1/2-x,1/2-y,-z
1/2+x,1/2-y,1/2+z
loop_
_atom_site_type_symbol
_atom_site_label
_atom_site_fract_x
_atom_site_fract_y
_atom_site_fract_z
Si Si1 0.326740 0.256576 0.146177
Si Si2 0.081739 0.715207 0.107498
Si Si3 0.313615 0.328755 0.767438
Si Si4 0.171421 0.630506 0.907590
Si Si5 0.743376 0.487947 0.404424
Si Si6 0.404709 0.976895 0.315442
Si Si7 0.567902 0.230686 0.538849
O O1 0.377392 0.274355 0.274846
O O2 0.259637 0.179315 0.170015
O O3 0.291952 0.369877 0.094531
O O4 0.375652 0.207130 0.054071
O O5 0.061566 0.595181 0.154515
O O6 0.136904 0.689994 0.012828
O O7 0.008511 0.770948 0.037242
O O8 0.306451 0.223704 0.679326
O O9 0.309168 0.436051 0.688606
O O10 0.387860 0.310827 0.862275
O O11 0.111232 0.555951 0.823620
O O12 0.237448 0.554005 0.971565
O O13 0.822585 0.478124 0.356083
O O14 0.447323 0.879336 0.391334
#
# Coordination Sequence:
#
# PCOD9288308 Si02
#       7
#     8   8   8   8   8   8   8
#     4  12  24  41  66  94 136 167 220 270 324 388
#     4  11  25  42  64  94 137 175 208 265 334 392
#     4  11  23  41  67  98 126 169 222 276 325 376
#     4  10  22  42  68  96 132 165 219 275 330 383
#     4  11  23  38  66 102 124 168 219 271 330 375
#     4  10  22  38  68 101 126 166 211 266 341 384
#     4  11  25  43  62  96 133 175 212 263 331 399
#
# _framework density 22.475864999999999
#
# number of rings (size 3 to 8) (size 9 to 14) (size 15 to 20)
#    0.000    1.143    5.714    1.714    6.000    2.286 
#    2.571    0.714    3.143    0.000    0.000    0.000 
#    0.000    0.000    0.000    0.000    0.000    0.000 
#
# Total GULP energy -156781.447559 kJ/mol
# GULP energy per Si atom -5599.337413 kJ/mol
# Density = 2.242471 g / cm^3
# Si number density = 22.475865 Si / 1000 Ang^3
#
#
#
# Elastic Constant Matrix: (Units=GPa)
#
#
# Indices 1 2 3 4 5 6 
#
# 1 59.6644 9.1334 36.2915 0.0000 21.4638 0.0000
# 2 9.1334 32.6942 19.2509 0.0000 -0.7526 0.0000
# 3 36.2915 19.2509 155.1522 0.0000 22.4790 0.0000
# 4 0.0000 0.0000 0.0000 32.4364 0.0000 8.0964
# 5 21.4638 -0.7526 22.4790 0.0000 37.6764 0.0000
# 6 0.0000 0.0000 0.0000 8.0964 0.0000 19.1268
#
#
#
# Elastic Compliance Matrix: (Units=1/GPa)
#
#
# Indices 1 2 3 4 5 6 
#
# 1 0.023685 -0.004982 -0.003232 0.000000 -0.011664 0.000000
# 2 -0.004982 0.034447 -0.003962 0.000000 0.005890 0.000000
# 3 -0.003232 -0.003962 0.008141 0.000000 -0.003095 0.000000
# 4 0.000000 0.000000 0.000000 0.034472 0.000000 -0.014592
# 5 -0.011664 0.005890 -0.003095 0.000000 0.035151 0.000000
# 6 0.000000 0.000000 0.000000 -0.014592 0.000000 0.058459
#
#
# Mechanical properties :
#
#
# Convention : Reuss Voigt Hill
#
# Bulk Modulus (GPa) = 23.85448 41.87359 32.86404
# Shear Modulus (GPa) = 21.48859 30.03692 25.76275
#
# Velocity S-wave (km/s) = 3.09540 3.65966 3.38929
# Velocity P-wave (km/s) = 4.83857 6.04387 5.47449
#
# Compressibility (1/GPa) = 0.04192085
#
# Stress axis : x y z
#
# Youngs Moduli (GPa) = 42.22067 29.03031 122.82968
#
# Poissons Ratio (x) = 0.14463 0.39699
# Poissons Ratio (y) = 0.21034 0.48666
# Poissons Ratio (z) = 0.13646 0.11502
#
# Static dielectric constant tensor:
#      x y z
#    x 1.828050 0.000000 0.001310 
#    y 0.000000 1.812130 0.000000 
#    z 0.001310 0.000000 1.868030 
# 
# From -- ./inp_files/111674.got.cif
#   From: 2010.05.17/outbox.cif.g08.bks.cpg/sg15_56_cif.got.tgz:111674.got - 2010.06.03 18:47:42.
