data_PCOD9288989
_publ_section_title
;
Structure prediction by ZEFSAII (Michael W. Deem and Ramdas Pophale) SiO2 
 PCOD9288989
Probable space group: C 2/C
;
_chemical_formula_sum "Si O2"
_cell_formula_units_Z 36
_cell_length_a 15.241942
_cell_length_b 8.980223
_cell_length_c 13.753159
_cell_angle_alpha 90.000000
_cell_angle_beta 46.443810
_cell_angle_gamma 90.000000
_cell_volume 1364.229774
_symmetry_space_group_name_H-M "C 2/C"
_symmetry_group_IT_number 15
_symmetry_cell_setting 'monoclinic'
loop_
_space_group_symop_operation_xyz
x,y,z
-x,y,1/2-z
-x,-y,-z
x,-y,1/2+z
1/2+x,1/2+y,z
1/2-x,1/2+y,1/2-z
1/2-x,1/2-y,-z
1/2+x,1/2-y,1/2+z
loop_
_atom_site_type_symbol
_atom_site_label
_atom_site_fract_x
_atom_site_fract_y
_atom_site_fract_z
Si Si1 0.480143 0.518232 0.900376
Si Si2 0.639902 0.988744 0.365500
Si Si3 0.697778 0.013228 0.103976
Si Si4 0.669448 0.284489 0.716069
Si Si5 0.500000 0.774748 0.750000
O O1 0.545155 0.372039 0.812448
O O2 0.540553 0.660660 0.803869
O O3 0.500000 0.500000 0.000000
O O4 0.339436 0.531776 0.981534
O O5 0.725873 0.089768 0.367565
O O6 0.500000 0.000000 0.500000
O O7 0.665201 0.057956 0.239992
O O8 0.675099 0.817865 0.310783
O O9 0.671637 0.837681 0.129522
O O10 0.896507 0.379981 0.877049
#
# Coordination Sequence:
#
# PCOD9288989 Si02
#       5
#     8   8   8   8   4
#     4  12  25  49  79 110 151 198 255 308 378 447
#     4  10  22  39  70 110 144 190 255 301 363 442
#     4  10  26  45  71 107 156 196 245 308 375 437
#     4  10  23  40  74 107 141 197 249 307 366 440
#     4  12  30  48  72 116 154 196 246 318 378 448
#
# _framework density 26.388518999999999
#
# number of rings (size 3 to 8) (size 9 to 14) (size 15 to 20)
#    1.333    0.000    2.222    2.000    9.333    0.889 
#    4.000    2.222    0.000    0.000    0.000    0.000 
#    0.000    0.000    0.000    0.000    0.000    0.000 
#
# Total GULP energy -100646.042922 kJ/mol
# GULP energy per Si atom -5591.446829 kJ/mol
# Density = 2.632846 g / cm^3
# Si number density = 26.388519 Si / 1000 Ang^3
#
#
#
# Elastic Constant Matrix: (Units=GPa)
#
#
# Indices 1 2 3 4 5 6 
#
# 1 112.0926 76.8572 50.5368 0.0000 -14.2560 0.0000
# 2 76.8572 225.9167 68.7185 0.0000 -24.8753 0.0000
# 3 50.5368 68.7185 125.8479 0.0000 -26.9648 0.0000
# 4 0.0000 0.0000 0.0000 35.4796 0.0000 -20.9489
# 5 -14.2560 -24.8753 -26.9648 0.0000 55.7836 0.0000
# 6 0.0000 0.0000 0.0000 -20.9489 0.0000 55.8416
#
#
#
# Elastic Compliance Matrix: (Units=1/GPa)
#
#
# Indices 1 2 3 4 5 6 
#
# 1 0.012673 -0.003303 -0.003243 0.000000 0.000198 0.000000
# 2 -0.003303 0.006228 -0.001852 0.000000 0.001038 0.000000
# 3 -0.003243 -0.001852 0.011049 0.000000 0.003687 0.000000
# 4 0.000000 0.000000 0.000000 0.036205 0.000000 0.013582
# 5 0.000198 0.001038 0.003687 0.000000 0.020222 0.000000
# 6 0.000000 0.000000 0.000000 0.013582 0.000000 0.023003
#
#
# Mechanical properties :
#
#
# Convention : Reuss Voigt Hill
#
# Bulk Modulus (GPa) = 76.01998 95.12024 85.57011
# Shear Modulus (GPa) = 38.29614 47.27060 42.78337
#
# Velocity S-wave (km/s) = 3.81365 4.23700 4.03089
# Velocity P-wave (km/s) = 6.94712 7.74988 7.35945
#
# Compressibility (1/GPa) = 0.01315444
#
# Stress axis : x y z
#
# Youngs Moduli (GPa) = 78.90518 160.57282 90.50192
#
# Poissons Ratio (x) = 0.53041 0.29351
# Poissons Ratio (y) = 0.26064 0.16759
# Poissons Ratio (z) = 0.25590 0.29734
#
# Static dielectric constant tensor:
#      x y z
#    x 2.381560 0.000000 0.084880 
#    y 0.000000 1.654130 0.000000 
#    z 0.084880 0.000000 2.121050 
# 
# From -- ./inp_files/217918.got.cif
#   From: 2010.05.17/outbox.cif.g08.bks.cpg/sg15_109_cif.got.tgz:217918.got - 2010.06.03 18:47:42.
