data_PCOD9288872
_publ_section_title
;
Structure prediction by ZEFSAII (Michael W. Deem and Ramdas Pophale) SiO2 
 PCOD9288872
Probable space group: C 2/C
;
_chemical_formula_sum "Si O2"
_cell_formula_units_Z 32
_cell_length_a 10.655760
_cell_length_b 8.118518
_cell_length_c 18.754077
_cell_angle_alpha 90.000000
_cell_angle_beta 79.561994
_cell_angle_gamma 90.000000
_cell_volume 1595.547856
_symmetry_space_group_name_H-M "C 2/C"
_symmetry_group_IT_number 15
_symmetry_cell_setting 'monoclinic'
loop_
_space_group_symop_operation_xyz
x,y,z
-x,y,1/2-z
-x,-y,-z
x,-y,1/2+z
1/2+x,1/2+y,z
1/2-x,1/2+y,1/2-z
1/2-x,1/2-y,-z
1/2+x,1/2-y,1/2+z
loop_
_atom_site_type_symbol
_atom_site_label
_atom_site_fract_x
_atom_site_fract_y
_atom_site_fract_z
Si Si1 0.787002 0.335872 0.070998
Si Si2 0.823479 0.274385 0.581304
Si Si3 0.972530 0.148837 0.835600
Si Si4 0.942095 0.193444 0.421335
O O1 0.803358 0.533572 0.063082
O O2 0.923173 0.280531 0.085778
O O3 0.750000 0.250000 0.000000
O O4 0.829121 0.211616 0.864787
O O5 0.890357 0.182128 0.508165
O O6 0.676942 0.215772 0.605516
O O7 0.916799 0.254940 0.638212
O O8 0.000000 0.128174 0.750000
O O9 0.969420 0.975877 0.878183
#
# Coordination Sequence:
#
# PCOD9288872 Si02
#       4
#     8   8   8   8
#     4  11  23  38  66  97 121 163 217 263 315 380
#     4  10  22  39  66  97 121 162 214 267 315 373
#     4  11  25  42  60  91 134 169 209 264 323 381
#     4  10  22  39  67  93 121 161 212 265 315 371
#
# _framework density 20.055807000000001
#
# number of rings (size 3 to 8) (size 9 to 14) (size 15 to 20)
#    0.000    1.500    2.500    1.500    7.000    4.000 
#    0.000    1.250    0.000    0.000    0.000    0.000 
#    0.000    0.000    0.000    0.000    0.000    0.000 
#
# Total GULP energy -89249.719238 kJ/mol
# GULP energy per Si atom -5578.107452 kJ/mol
# Density = 2.001016 g / cm^3
# Si number density = 20.055807 Si / 1000 Ang^3
#
#
#
# Elastic Constant Matrix: (Units=GPa)
#
#
# Indices 1 2 3 4 5 6 
#
# 1 221.9148 47.4790 65.7371 0.0000 5.9966 0.0000
# 2 47.4790 63.8648 60.2588 0.0000 8.7317 0.0000
# 3 65.7371 60.2588 107.9156 0.0000 -3.2911 0.0000
# 4 0.0000 0.0000 0.0000 9.6804 0.0000 -1.0112
# 5 5.9966 8.7317 -3.2911 0.0000 28.9856 0.0000
# 6 0.0000 0.0000 0.0000 -1.0112 0.0000 25.9075
#
#
#
# Elastic Compliance Matrix: (Units=1/GPa)
#
#
# Indices 1 2 3 4 5 6 
#
# 1 0.005640 -0.001679 -0.002527 0.000000 -0.000948 0.000000
# 2 -0.001679 0.038451 -0.020863 0.000000 -0.013605 0.000000
# 3 -0.002527 -0.020863 0.022742 0.000000 0.009390 0.000000
# 4 0.000000 0.000000 0.000000 0.103725 0.000000 0.004048
# 5 -0.000948 -0.013605 0.009390 0.000000 0.039860 0.000000
# 6 0.000000 0.000000 0.000000 0.004048 0.000000 0.038757
#
#
# Mechanical properties :
#
#
# Convention : Reuss Voigt Hill
#
# Bulk Modulus (GPa) = 59.89731 82.29389 71.09560
# Shear Modulus (GPa) = 16.40007 27.59605 21.99806
#
# Velocity S-wave (km/s) = 2.86269 3.71342 3.31545
# Velocity P-wave (km/s) = 6.39193 7.71411 7.08394
#
# Compressibility (1/GPa) = 0.01669524
#
# Stress axis : x y z
#
# Youngs Moduli (GPa) = 177.31911 26.00699 43.97217
#
# Poissons Ratio (x) = 0.04366 0.11111
# Poissons Ratio (y) = 0.29770 0.91739
# Poissons Ratio (z) = 0.44804 0.54258
#
# Static dielectric constant tensor:
#      x y z
#    x 1.794290 0.000000 0.005960 
#    y 0.000000 1.770070 0.000000 
#    z 0.005960 0.000000 1.674340 
# 
# From -- ./inp_files/140519.got.cif
#   From: 2010.05.17/outbox.cif.g08.bks.cpg/sg15_71_cif.got.tgz:140519.got - 2010.06.03 18:47:42.
