data_PCOD9288569
_publ_section_title
;
Structure prediction by ZEFSAII (Michael W. Deem and Ramdas Pophale) SiO2 
 PCOD9288569
Probable space group: C 2/C
;
_chemical_formula_sum "Si O2"
_cell_formula_units_Z 36
_cell_length_a 10.417401
_cell_length_b 14.250745
_cell_length_c 9.418877
_cell_angle_alpha 90.000000
_cell_angle_beta 109.788809
_cell_angle_gamma 90.000000
_cell_volume 1315.713099
_symmetry_space_group_name_H-M "C 2/C"
_symmetry_group_IT_number 15
_symmetry_cell_setting 'monoclinic'
loop_
_space_group_symop_operation_xyz
x,y,z
-x,y,1/2-z
-x,-y,-z
x,-y,1/2+z
1/2+x,1/2+y,z
1/2-x,1/2+y,1/2-z
1/2-x,1/2-y,-z
1/2+x,1/2-y,1/2+z
loop_
_atom_site_type_symbol
_atom_site_label
_atom_site_fract_x
_atom_site_fract_y
_atom_site_fract_z
Si Si1 0.096552 0.891245 0.902102
Si Si2 0.500000 0.210286 0.750000
Si Si3 0.280409 0.627447 0.766576
Si Si4 0.353217 0.160042 0.306925
Si Si5 0.108955 0.569257 0.464221
O O1 0.240482 0.866828 0.880768
O O2 0.000000 0.942456 0.750000
O O3 0.025187 0.788175 0.881410
O O4 0.126859 0.917350 0.075647
O O5 0.630075 0.145474 0.777862
O O6 0.324677 0.734088 0.747216
O O7 0.244600 0.574596 0.608371
O O8 0.506898 0.157526 0.421534
O O9 0.346495 0.077810 0.183707
O O10 0.000000 0.500000 0.500000
#
# Coordination Sequence:
#
# PCOD9288569 Si02
#       5
#     8   4   8   8   8
#     4   9  19  32  58  94 129 165 220 280 335 400
#     4   8  16  28  54  90 118 156 210 276 320 370
#     4  11  18  37  64  97 129 179 227 287 337 412
#     4  10  22  39  61  97 128 178 231 284 339 416
#     4  11  25  41  62  95 139 179 226 290 350 402
#
# _framework density 27.36159
#
# number of rings (size 3 to 8) (size 9 to 14) (size 15 to 20)
#    0.667    1.333    0.000    6.000    0.000    5.333 
#    0.000    0.000    0.000    5.333    0.000    0.000 
#    0.000    0.000    0.000    0.000    0.000    0.000 
#
# Total GULP energy -100415.173441 kJ/mol
# GULP energy per Si atom -5578.620747 kJ/mol
# Density = 2.729931 g / cm^3
# Si number density = 27.361590 Si / 1000 Ang^3
#
#
#
# Elastic Constant Matrix: (Units=GPa)
#
#
# Indices 1 2 3 4 5 6 
#
# 1 65.8660 7.7431 44.2008 0.0000 17.6711 0.0000
# 2 7.7431 88.8709 44.2933 0.0000 -9.6899 0.0000
# 3 44.2008 44.2933 236.3659 0.0000 7.9032 0.0000
# 4 0.0000 0.0000 0.0000 38.9073 0.0000 2.2668
# 5 17.6711 -9.6899 7.9032 0.0000 42.2809 0.0000
# 6 0.0000 0.0000 0.0000 2.2668 0.0000 47.8845
#
#
#
# Elastic Compliance Matrix: (Units=1/GPa)
#
#
# Indices 1 2 3 4 5 6 
#
# 1 0.019540 -0.000948 -0.003216 0.000000 -0.007783 0.000000
# 2 -0.000948 0.012933 -0.002373 0.000000 0.003804 0.000000
# 3 -0.003216 -0.002373 0.005283 0.000000 -0.000187 0.000000
# 4 0.000000 0.000000 0.000000 0.025773 0.000000 -0.001220
# 5 -0.007783 0.003804 -0.000187 0.000000 0.027811 0.000000
# 6 0.000000 0.000000 0.000000 -0.001220 0.000000 0.020941
#
#
# Mechanical properties :
#
#
# Convention : Reuss Voigt Hill
#
# Bulk Modulus (GPa) = 40.51779 64.84192 52.67985
# Shear Modulus (GPa) = 37.42985 45.47224 41.45105
#
# Velocity S-wave (km/s) = 3.70262 4.08106 3.89644
# Velocity P-wave (km/s) = 5.75497 6.77911 6.28793
#
# Compressibility (1/GPa) = 0.02468052
#
# Stress axis : x y z
#
# Youngs Moduli (GPa) = 51.17685 77.32455 189.28069
#
# Poissons Ratio (x) = 0.07332 0.60875
# Poissons Ratio (y) = 0.04852 0.44923
# Poissons Ratio (z) = 0.16459 0.18352
#
# Static dielectric constant tensor:
#      x y z
#    x 2.127210 0.000000 -0.075070 
#    y 0.000000 2.165580 0.000000 
#    z -0.075070 0.000000 2.435180 
# 
# From -- ./inp_files/29883.got.cif
#   From: 2010.05.17/outbox.cif.g08.bks.cpg/sg15_15_cif.got.tgz:29883.got - 2010.06.03 18:47:42.
