data_PCOD9288205
_publ_section_title
;
Structure prediction by ZEFSAII (Michael W. Deem and Ramdas Pophale) SiO2 
 PCOD9288205
Probable space group: C 2/C
;
_chemical_formula_sum "Si O2"
_cell_formula_units_Z 48
_cell_length_a 13.736413
_cell_length_b 21.329356
_cell_length_c 11.777407
_cell_angle_alpha 90.000000
_cell_angle_beta 49.921376
_cell_angle_gamma 90.000000
_cell_volume 2640.304197
_symmetry_space_group_name_H-M "C 2/C"
_symmetry_group_IT_number 15
_symmetry_cell_setting 'monoclinic'
loop_
_space_group_symop_operation_xyz
x,y,z
-x,y,1/2-z
-x,-y,-z
x,-y,1/2+z
1/2+x,1/2+y,z
1/2-x,1/2+y,1/2-z
1/2-x,1/2-y,-z
1/2+x,1/2-y,1/2+z
loop_
_atom_site_type_symbol
_atom_site_label
_atom_site_fract_x
_atom_site_fract_y
_atom_site_fract_z
Si Si1 0.557743 0.748080 0.886470
Si Si2 0.500000 0.649979 0.750000
Si Si3 0.750753 0.586837 0.586551
Si Si4 0.881922 0.460892 0.541858
Si Si5 0.158669 0.310005 0.307395
Si Si6 0.379322 0.118128 0.267166
Si Si7 0.000000 0.619816 0.750000
O O1 0.480516 0.698638 0.867694
O O2 0.700038 0.720795 0.806911
O O3 0.587713 0.811102 0.792409
O O4 0.458019 0.766927 0.059807
O O5 0.607476 0.604927 0.716802
O O6 0.782373 0.514422 0.581035
O O7 0.831442 0.632602 0.608711
O O8 0.772030 0.609504 0.441650
O O9 0.846530 0.417534 0.675598
O O10 0.930901 0.421443 0.398099
O O11 0.000000 0.500000 0.500000
O O12 0.108473 0.338931 0.228459
O O13 0.500000 0.091825 0.250000
#
# Coordination Sequence:
#
# PCOD9288205 Si02
#       7
#     8   4   8   8   8   8   4
#     4  11  20  39  60  94 121 156 202 251 305 367
#     4  10  22  38  65  87 124 158 192 256 314 350
#     4  11  22  38  60  93 119 153 203 252 305 356
#     4  12  21  35  60  87 115 153 202 252 293 351
#     4  11  23  37  63  90 124 158 201 247 308 357
#     4  12  19  34  61  90 115 149 198 256 300 337
#     4  12  22  40  59  89 118 164 202 246 298 362
#
# _framework density 18.179724
#
# number of rings (size 3 to 8) (size 9 to 14) (size 15 to 20)
#    0.000    0.667    7.500    2.000    0.000    3.333 
#    0.000    0.833    3.667    0.000    0.000    0.000 
#    0.000    0.000    0.000    0.000    0.000    0.000 
#
# Total GULP energy -133734.008374 kJ/mol
# GULP energy per Si atom -5572.250349 kJ/mol
# Density = 1.813835 g / cm^3
# Si number density = 18.179724 Si / 1000 Ang^3
#
#
#
# Elastic Constant Matrix: (Units=GPa)
#
#
# Indices 1 2 3 4 5 6 
#
# 1 92.7393 59.5425 41.8701 0.0000 14.2617 0.0000
# 2 59.5425 75.0467 23.7014 0.0000 -2.6776 0.0000
# 3 41.8701 23.7014 55.6766 0.0000 17.0653 0.0000
# 4 0.0000 0.0000 0.0000 26.1326 0.0000 0.1103
# 5 14.2617 -2.6776 17.0653 0.0000 23.2620 0.0000
# 6 0.0000 0.0000 0.0000 0.1103 0.0000 24.5351
#
#
#
# Elastic Compliance Matrix: (Units=1/GPa)
#
#
# Indices 1 2 3 4 5 6 
#
# 1 0.032509 -0.023234 -0.009841 0.000000 -0.015386 0.000000
# 2 -0.023234 0.033419 -0.002966 0.000000 0.020267 0.000000
# 3 -0.009841 -0.002966 0.032097 0.000000 -0.017854 0.000000
# 4 0.000000 0.000000 0.000000 0.038267 0.000000 -0.000172
# 5 -0.015386 0.020267 -0.017854 0.000000 0.067853 0.000000
# 6 0.000000 0.000000 0.000000 -0.000172 0.000000 0.040759
#
#
# Mechanical properties :
#
#
# Convention : Reuss Voigt Hill
#
# Bulk Modulus (GPa) = 38.54624 52.63231 45.58927
# Shear Modulus (GPa) = 15.35469 21.34251 18.34860
#
# Velocity S-wave (km/s) = 2.90936 3.43005 3.18038
# Velocity P-wave (km/s) = 5.70392 6.68587 6.21432
#
# Compressibility (1/GPa) = 0.02594287
#
# Stress axis : x y z
#
# Youngs Moduli (GPa) = 30.76036 29.92323 31.15574
#
# Poissons Ratio (x) = 0.69524 0.30661
# Poissons Ratio (y) = 0.71469 0.09240
# Poissons Ratio (z) = 0.30272 0.08875
#
# Static dielectric constant tensor:
#      x y z
#    x 1.666670 0.000000 0.007560 
#    y 0.000000 1.649610 0.000000 
#    z 0.007560 0.000000 1.767600 
# 
# From -- ./inp_files/88794.got.cif
#   From: 2010.05.17/outbox.cif.g08.bks.cpg/sg15_45_cif.got.tgz:88794.got - 2010.06.03 18:47:42.
