data_PCOD9288515
_publ_section_title
;
Structure prediction by ZEFSAII (Michael W. Deem and Ramdas Pophale) SiO2 
 PCOD9288515
Probable space group: C 2/C
;
_chemical_formula_sum "Si O2"
_cell_formula_units_Z 40
_cell_length_a 16.717580
_cell_length_b 15.078821
_cell_length_c 19.441489
_cell_angle_alpha 90.000000
_cell_angle_beta 153.498177
_cell_angle_gamma 90.000000
_cell_volume 2186.882609
_symmetry_space_group_name_H-M "C 2/C"
_symmetry_group_IT_number 15
_symmetry_cell_setting 'monoclinic'
loop_
_space_group_symop_operation_xyz
x,y,z
-x,y,1/2-z
-x,-y,-z
x,-y,1/2+z
1/2+x,1/2+y,z
1/2-x,1/2+y,1/2-z
1/2-x,1/2-y,-z
1/2+x,1/2-y,1/2+z
loop_
_atom_site_type_symbol
_atom_site_label
_atom_site_fract_x
_atom_site_fract_y
_atom_site_fract_z
Si Si1 0.811274 0.546986 0.644741
Si Si2 0.148252 0.654995 0.306085
Si Si3 0.582810 0.314330 0.887296
Si Si4 0.519941 0.217309 0.460316
Si Si5 0.839641 0.320757 0.287311
O O1 0.774138 0.442963 0.621632
O O2 0.659611 0.602313 0.488041
O O3 0.836526 0.592836 0.737899
O O4 0.000000 0.557806 0.750000
O O5 0.304275 0.727807 0.426179
O O6 0.000000 0.673452 0.250000
O O7 0.051271 0.658677 0.157305
O O8 0.500000 0.339456 0.750000
O O9 0.443871 0.256682 0.825422
O O10 0.750000 0.250000 0.000000
O O11 0.361007 0.286101 0.354954
O O12 0.566746 0.167383 0.566995
#
# Coordination Sequence:
#
# PCOD9288515 Si02
#       5
#     8   8   8   8   8
#     4  11  22  37  60  93 123 155 201 242 286 356
#     4  10  23  43  63  82 114 156 208 257 288 350
#     4  12  19  34  60  88 128 167 185 228 294 365
#     4  10  22  39  61  85 113 165 197 241 311 337
#     4  11  19  35  59  89 123 154 194 233 301 363
#
# _framework density 18.290876000000001
#
# number of rings (size 3 to 8) (size 9 to 14) (size 15 to 20)
#    0.000    1.200    6.000    0.600    0.000    1.600 
#    0.000    9.000    0.000    0.000    0.000    0.000 
#    0.000    0.000    0.000    0.000    0.000    0.000 
#
# Total GULP energy -111717.493340 kJ/mol
# GULP energy per Si atom -5585.874667 kJ/mol
# Density = 1.824925 g / cm^3
# Si number density = 18.290876 Si / 1000 Ang^3
#
#
#
# Elastic Constant Matrix: (Units=GPa)
#
#
# Indices 1 2 3 4 5 6 
#
# 1 86.7802 22.1480 20.7171 0.0017 -3.8377 0.0028
# 2 22.1480 61.0369 18.5084 -0.0001 0.6976 0.0022
# 3 20.7171 18.5084 80.8623 -0.0016 -13.5509 0.0014
# 4 0.0017 -0.0001 -0.0016 25.0003 0.0004 -8.2277
# 5 -3.8377 0.6976 -13.5509 0.0004 32.5140 -0.0002
# 6 0.0028 0.0022 0.0014 -8.2277 -0.0002 9.3423
#
#
#
# Elastic Compliance Matrix: (Units=1/GPa)
#
#
# Indices 1 2 3 4 5 6 
#
# 1 0.013147 -0.004074 -0.002324 -0.000003 0.000671 -0.000005
# 2 -0.004074 0.019017 -0.003718 -0.000001 -0.002438 -0.000004
# 3 -0.002324 -0.003718 0.014815 0.000001 0.005980 0.000000
# 4 -0.000003 -0.000001 0.000001 0.056325 0.000000 0.049605
# 5 0.000671 -0.002438 0.005980 0.000000 0.033380 0.000000
# 6 -0.000005 -0.000004 0.000000 0.049605 0.000000 0.150726
#
#
# Mechanical properties :
#
#
# Convention : Reuss Voigt Hill
#
# Bulk Modulus (GPa) = 37.38389 39.04736 38.21563
# Shear Modulus (GPa) = 15.79496 24.52505 20.16000
#
# Velocity S-wave (km/s) = 2.94180 3.66571 3.32352
# Velocity P-wave (km/s) = 5.65878 6.26984 5.97213
#
# Compressibility (1/GPa) = 0.02674949
#
# Stress axis : x y z
#
# Youngs Moduli (GPa) = 76.06040 52.58467 67.49900
#
# Poissons Ratio (x) = 0.21422 0.15684
# Poissons Ratio (y) = 0.30986 0.25094
# Poissons Ratio (z) = 0.17673 0.19549
#
# Static dielectric constant tensor:
#      x y z
#    x 1.633960 0.000000 -0.009100 
#    y 0.000000 1.590370 0.000000 
#    z -0.009100 0.000000 1.622470 
# 
# From -- ./inp_files/37944.got.cif
#   From: 2010.05.17/outbox.cif.g08.bks.cpg/sg15_19_cif.got.tgz:37944.got - 2010.06.03 18:47:42.
