data_PCOD9288711
_publ_section_title
;
Structure prediction by ZEFSAII (Michael W. Deem and Ramdas Pophale) SiO2 
 PCOD9288711
Probable space group: C 2/C
;
_chemical_formula_sum "Si O2"
_cell_formula_units_Z 44
_cell_length_a 8.387728
_cell_length_b 25.607047
_cell_length_c 11.811627
_cell_angle_alpha 90.000000
_cell_angle_beta 47.005214
_cell_angle_gamma 90.000000
_cell_volume 1855.572279
_symmetry_space_group_name_H-M "C 2/C"
_symmetry_group_IT_number 15
_symmetry_cell_setting 'monoclinic'
loop_
_space_group_symop_operation_xyz
x,y,z
-x,y,1/2-z
-x,-y,-z
x,-y,1/2+z
1/2+x,1/2+y,z
1/2-x,1/2+y,1/2-z
1/2-x,1/2-y,-z
1/2+x,1/2-y,1/2+z
loop_
_atom_site_type_symbol
_atom_site_label
_atom_site_fract_x
_atom_site_fract_y
_atom_site_fract_z
Si Si1 0.489842 0.259235 0.435385
Si Si2 0.761747 0.930587 0.701418
Si Si3 0.500000 0.344716 0.250000
Si Si4 0.859800 0.820263 0.705661
Si Si5 0.500000 0.487078 0.750000
Si Si6 0.500000 0.023180 0.750000
Si Si7 0.123285 0.570996 0.926153
O O1 0.250000 0.250000 0.500000
O O2 0.567319 0.307260 0.320523
O O3 0.637948 0.208529 0.349230
O O4 0.482230 0.278753 0.567343
O O5 0.802660 0.870333 0.653900
O O6 0.693337 0.978992 0.655713
O O7 0.982061 0.950057 0.651472
O O8 0.572727 0.927389 0.889399
O O9 0.712932 0.380948 0.131791
O O10 0.000000 0.833742 0.750000
O O11 0.287349 0.522295 0.859535
O O12 0.531641 0.059900 0.844084
#
# Coordination Sequence:
#
# PCOD9288711 Si02
#       7
#     8   8   4   8   4   4   8
#     4  12  25  48  74 105 140 189 243 304 360 433
#     4  11  23  42  68  99 138 184 232 286 354 422
#     4  11  24  45  70 100 136 185 242 289 358 430
#     4  12  27  47  74 107 144 187 239 303 367 428
#     4   9  18  42  60  94 134 176 224 279 342 404
#     4  10  22  39  64 100 130 181 224 284 336 408
#     4  10  23  42  65  96 141 181 231 292 345 417
#
# _framework density 23.712361000000001
#
# number of rings (size 3 to 8) (size 9 to 14) (size 15 to 20)
#    0.000    1.091    2.727    3.818    5.091    1.455 
#    4.909    8.182    0.000    0.000    0.000    0.000 
#    0.000    0.000    0.000    0.000    0.000    0.000 
#
# Total GULP energy -122883.849159 kJ/mol
# GULP energy per Si atom -5585.629507 kJ/mol
# Density = 2.365839 g / cm^3
# Si number density = 23.712361 Si / 1000 Ang^3
#
#
#
# Elastic Constant Matrix: (Units=GPa)
#
#
# Indices 1 2 3 4 5 6 
#
# 1 107.9237 11.6710 14.8280 0.0000 5.1898 0.0000
# 2 11.6710 95.3082 7.7195 0.0000 -13.7969 0.0000
# 3 14.8280 7.7195 67.9570 0.0000 2.6310 0.0000
# 4 0.0000 0.0000 0.0000 12.7143 0.0000 4.1661
# 5 5.1898 -13.7969 2.6310 0.0000 37.2108 0.0000
# 6 0.0000 0.0000 0.0000 4.1661 0.0000 32.2506
#
#
#
# Elastic Compliance Matrix: (Units=1/GPa)
#
#
# Indices 1 2 3 4 5 6 
#
# 1 0.009750 -0.001285 -0.001916 0.000000 -0.001701 0.000000
# 2 -0.001285 0.011396 -0.001188 0.000000 0.004488 0.000000
# 3 -0.001916 -0.001188 0.015317 0.000000 -0.001256 0.000000
# 4 0.000000 0.000000 0.000000 0.082128 0.000000 -0.010609
# 5 -0.001701 0.004488 -0.001256 0.000000 0.028864 0.000000
# 6 0.000000 0.000000 0.000000 -0.010609 0.000000 0.032378
#
#
# Mechanical properties :
#
#
# Convention : Reuss Voigt Hill
#
# Bulk Modulus (GPa) = 36.12026 37.73621 36.92824
# Shear Modulus (GPa) = 25.27329 32.23316 28.75323
#
# Velocity S-wave (km/s) = 3.26824 3.69092 3.48600
# Velocity P-wave (km/s) = 5.43209 5.84060 5.64004
#
# Compressibility (1/GPa) = 0.02768529
#
# Stress axis : x y z
#
# Youngs Moduli (GPa) = 102.56693 87.75325 65.28815
#
# Poissons Ratio (x) = 0.11276 0.12506
# Poissons Ratio (y) = 0.13180 0.07755
# Poissons Ratio (z) = 0.19647 0.10424
#
# Static dielectric constant tensor:
#      x y z
#    x 1.973950 0.000000 -0.003600 
#    y 0.000000 1.924100 0.000000 
#    z -0.003600 0.000000 1.969360 
# 
# From -- ./inp_files/81128.got.cif
#   From: 2010.05.17/outbox.cif.g08.bks.cpg/sg15_41_cif.got.tgz:81128.got - 2010.06.03 18:47:42.
