data_PCOD9288604
_publ_section_title
;
Structure prediction by ZEFSAII (Michael W. Deem and Ramdas Pophale) SiO2 
 PCOD9288604
Probable space group: C 2/C
;
_chemical_formula_sum "Si O2"
_cell_formula_units_Z 56
_cell_length_a 13.775273
_cell_length_b 23.636645
_cell_length_c 17.258938
_cell_angle_alpha 90.000000
_cell_angle_beta 29.292293
_cell_angle_gamma 90.000000
_cell_volume 2749.440920
_symmetry_space_group_name_H-M "C 2/C"
_symmetry_group_IT_number 15
_symmetry_cell_setting 'monoclinic'
loop_
_space_group_symop_operation_xyz
x,y,z
-x,y,1/2-z
-x,-y,-z
x,-y,1/2+z
1/2+x,1/2+y,z
1/2-x,1/2+y,1/2-z
1/2-x,1/2-y,-z
1/2+x,1/2-y,1/2+z
loop_
_atom_site_type_symbol
_atom_site_label
_atom_site_fract_x
_atom_site_fract_y
_atom_site_fract_z
Si Si1 0.918213 0.745387 0.111159
Si Si2 0.272918 0.570117 0.158865
Si Si3 0.411497 0.936434 0.551538
Si Si4 0.500000 0.132527 0.750000
Si Si5 0.563357 0.172235 0.869076
Si Si6 0.293752 0.188097 0.350460
Si Si7 0.500000 0.460228 0.750000
Si Si8 0.174431 0.036464 0.967040
O O1 0.778454 0.800288 0.206610
O O2 0.824097 0.704162 0.239481
O O3 0.947346 0.712765 0.009950
O O4 0.130392 0.767691 0.992511
O O5 0.132005 0.581299 0.330025
O O6 0.277618 0.623541 0.099350
O O7 0.213591 0.513536 0.155063
O O8 0.486316 0.556339 0.047572
O O9 0.555646 0.891165 0.409979
O O10 0.201932 0.933450 0.648938
O O11 0.500000 0.000000 0.500000
O O12 0.476128 0.168658 0.844000
O O13 0.312427 0.090767 0.878187
O O14 0.500000 0.193486 0.250000
O O15 0.595835 0.486171 0.605048
#
# Coordination Sequence:
#
# PCOD9288604 Si02
#       8
#     8   8   8   4   8   8   4   8
#     4  10  24  44  65  94 133 172 223 274 336 389
#     4  10  22  39  62  91 127 173 209 262 334 391
#     4  11  22  41  67  95 133 176 220 273 344 399
#     4  12  22  38  69  98 126 171 220 274 320 398
#     4  11  23  44  67  96 131 179 218 280 334 397
#     4  11  22  40  68  91 124 169 221 275 324 392
#     4  10  22  40  61  94 134 173 214 270 330 400
#     4  10  22  39  62  94 132 168 212 264 327 400
#
# _framework density 20.367778000000001
#
# number of rings (size 3 to 8) (size 9 to 14) (size 15 to 20)
#    0.000    1.429    2.857    2.143    1.000    2.857 
#    0.000    0.714    3.143    0.000    0.000    0.000 
#    0.000    0.000    0.000    0.000    0.000    0.000 
#
# Total GULP energy -156093.164527 kJ/mol
# GULP energy per Si atom -5574.755876 kJ/mol
# Density = 2.032142 g / cm^3
# Si number density = 20.367778 Si / 1000 Ang^3
#
#
#
# Elastic Constant Matrix: (Units=GPa)
#
#
# Indices 1 2 3 4 5 6 
#
# 1 73.1299 24.6020 19.2992 0.0448 0.7988 -0.0359
# 2 24.6020 96.0550 20.2700 0.0373 -7.6389 -0.0532
# 3 19.2992 20.2700 49.0155 0.0833 2.7211 -0.1497
# 4 0.0448 0.0373 0.0833 -4.2788 -0.0915 23.6547
# 5 0.7988 -7.6389 2.7211 -0.0915 25.1921 0.0804
# 6 -0.0359 -0.0532 -0.1497 23.6547 0.0804 -8.1839
#
#
#
# Elastic Compliance Matrix: (Units=1/GPa)
#
#
# Indices 1 2 3 4 5 6 
#
# 1 0.016051 -0.003135 -0.004972 -0.000016 -0.000923 -0.000014
# 2 -0.003135 0.012432 -0.004146 -0.000012 0.004317 0.000015
# 3 -0.004972 -0.004146 0.024280 0.000128 -0.003722 -0.000061
# 4 -0.000016 -0.000012 0.000128 0.015603 -0.000104 0.045097
# 5 -0.000923 0.004317 -0.003722 -0.000104 0.041434 0.000149
# 6 -0.000014 0.000015 -0.000061 0.045097 0.000149 0.008158
#
#
# Mechanical properties :
#
#
# Convention : Reuss Voigt Hill
#
# Bulk Modulus (GPa) = 35.39059 38.50477 36.94768
# Shear Modulus (GPa) = 32.91950 12.81449 22.86699
#
# Velocity S-wave (km/s) = 4.02463 2.51102 3.35431
# Velocity P-wave (km/s) = 6.24582 5.22998 5.76034
#
# Compressibility (1/GPa) = 0.02825610
#
# Stress axis : x y z
#
# Youngs Moduli (GPa) = 62.30025 80.43762 41.18560
#
# Poissons Ratio (x) = 0.25219 0.20478
# Poissons Ratio (y) = 0.19532 0.17077
# Poissons Ratio (z) = 0.30977 0.33352
#
# Static dielectric constant tensor:
#      x y z
#    x 1.726880 -0.000010 -0.001660 
#    y -0.000010 1.722700 0.000020 
#    z -0.001660 0.000020 1.745920 
# 
# From -- ./inp_files/206955.got.cif
#   From: 2010.05.17/outbox.cif.g08.bks.cpg/sg15_104_cif.got.tgz:206955.got - 2010.06.03 18:47:42.
