data_PCOD9288387
_publ_section_title
;
Structure prediction by ZEFSAII (Michael W. Deem and Ramdas Pophale) SiO2 
 PCOD9288387
Probable space group: C 2/C
;
_chemical_formula_sum "Si O2"
_cell_formula_units_Z 52
_cell_length_a 28.626012
_cell_length_b 8.966919
_cell_length_c 28.643774
_cell_angle_alpha 90.000000
_cell_angle_beta 19.587590
_cell_angle_gamma 90.000000
_cell_volume 2464.903399
_symmetry_space_group_name_H-M "C 2/C"
_symmetry_group_IT_number 15
_symmetry_cell_setting 'monoclinic'
loop_
_space_group_symop_operation_xyz
x,y,z
-x,y,1/2-z
-x,-y,-z
x,-y,1/2+z
1/2+x,1/2+y,z
1/2-x,1/2+y,1/2-z
1/2-x,1/2-y,-z
1/2+x,1/2-y,1/2+z
loop_
_atom_site_type_symbol
_atom_site_label
_atom_site_fract_x
_atom_site_fract_y
_atom_site_fract_z
Si Si1 0.000000 0.747417 0.750000
Si Si2 0.791113 0.884238 0.337682
Si Si3 0.082040 0.554552 0.358688
Si Si4 0.222074 0.124407 0.879932
Si Si5 0.284329 0.153064 0.028246
Si Si6 0.441188 0.654606 0.951985
Si Si7 0.801622 0.584125 0.156260
O O1 0.132068 0.836045 0.647200
O O2 0.084224 0.658829 0.630308
O O3 0.704803 0.733558 0.422054
O O4 0.955349 0.864994 0.189148
O O5 0.719251 0.003499 0.438444
O O6 0.779541 0.958689 0.296714
O O7 0.141116 0.475424 0.257191
O O8 0.016711 0.717296 0.411614
O O9 0.202429 0.569650 0.284339
O O10 0.961825 0.447850 0.491345
O O11 0.209049 0.208472 0.941543
O O12 0.232493 0.253529 0.831289
O O13 0.095455 0.007900 0.993662
#
# Coordination Sequence:
#
# PCOD9288387 Si02
#       7
#     4   8   8   8   8   8   8
#     4  10  22  42  70 102 120 152 208 282 308 398
#     4  10  22  40  61  90 129 166 209 259 316 375
#     4  10  22  39  53  91 128 168 218 263 303 359
#     4  11  23  37  67  88 124 174 213 260 313 374
#     4  10  23  41  69  98 124 158 212 261 328 377
#     4  11  22  38  59  91 123 173 205 257 307 372
#     4   9  23  37  57  85 127 170 223 261 299 361
#
# _framework density 21.096162
#
# number of rings (size 3 to 8) (size 9 to 14) (size 15 to 20)
#    0.000    1.846    1.538    0.923   12.923    1.846 
#    0.000    0.000    0.000   15.692    0.000    0.000 
#    0.000    0.000    0.000    0.000    0.000    0.000 
#
# Total GULP energy -144961.178790 kJ/mol
# GULP energy per Si atom -5575.429953 kJ/mol
# Density = 2.104815 g / cm^3
# Si number density = 21.096162 Si / 1000 Ang^3
#
#
#
# Elastic Constant Matrix: (Units=GPa)
#
#
# Indices 1 2 3 4 5 6 
#
# 1 35.9158 17.8270 2.1779 0.0010 7.8658 0.0008
# 2 17.8270 101.8150 28.2650 0.0167 5.6506 -0.0045
# 3 2.1779 28.2650 112.6754 0.0057 10.0936 -0.0015
# 4 0.0010 0.0167 0.0057 31.1341 -0.0013 0.3985
# 5 7.8658 5.6506 10.0936 -0.0013 26.2816 -0.0006
# 6 0.0008 -0.0045 -0.0015 0.3985 -0.0006 3.6409
#
#
#
# Elastic Compliance Matrix: (Units=1/GPa)
#
#
# Indices 1 2 3 4 5 6 
#
# 1 0.032546 -0.005636 0.001604 0.000001 -0.009145 -0.000015
# 2 -0.005636 0.011576 -0.002820 -0.000006 0.000281 0.000015
# 3 0.001604 -0.002820 0.009880 -0.000001 -0.003668 0.000000
# 4 0.000001 -0.000006 -0.000001 0.032164 0.000002 -0.003520
# 5 -0.009145 0.000281 -0.003668 0.000002 0.042135 0.000007
# 6 -0.000015 0.000015 0.000000 -0.003520 0.000007 0.275042
#
#
# Mechanical properties :
#
#
# Convention : Reuss Voigt Hill
#
# Bulk Modulus (GPa) = 24.81558 38.54955 31.68256
# Shear Modulus (GPa) = 11.61493 25.68708 18.65100
#
# Velocity S-wave (km/s) = 2.34897 3.49322 2.97660
# Velocity P-wave (km/s) = 4.37556 5.88074 5.18308
#
# Compressibility (1/GPa) = 0.04029727
#
# Stress axis : x y z
#
# Youngs Moduli (GPa) = 30.72568 86.38638 101.21376
#
# Poissons Ratio (x) = 0.48690 -0.16235
# Poissons Ratio (y) = 0.17318 0.28543
# Poissons Ratio (z) = -0.04928 0.24362
#
# Static dielectric constant tensor:
#      x y z
#    x 1.826610 0.000000 -0.020500 
#    y 0.000000 1.740360 0.000000 
#    z -0.020500 0.000000 1.804880 
# 
# From -- ./inp_files/320172.got.cif
#   From: 2010.05.17/outbox.cif.g08.bks.cpg/sg15_161_cif.got.tgz:320172.got - 2010.06.03 18:47:42.
