data_PCOD9288437
_publ_section_title
;
Structure prediction by ZEFSAII (Michael W. Deem and Ramdas Pophale) SiO2 
 PCOD9288437
Probable space group: C 2/C
;
_chemical_formula_sum "Si O2"
_cell_formula_units_Z 64
_cell_length_a 24.055954
_cell_length_b 8.038993
_cell_length_c 14.805450
_cell_angle_alpha 90.000000
_cell_angle_beta 78.780647
_cell_angle_gamma 90.000000
_cell_volume 2808.445039
_symmetry_space_group_name_H-M "C 2/C"
_symmetry_group_IT_number 15
_symmetry_cell_setting 'monoclinic'
loop_
_space_group_symop_operation_xyz
x,y,z
-x,y,1/2-z
-x,-y,-z
x,-y,1/2+z
1/2+x,1/2+y,z
1/2-x,1/2+y,1/2-z
1/2-x,1/2-y,-z
1/2+x,1/2-y,1/2+z
loop_
_atom_site_type_symbol
_atom_site_label
_atom_site_fract_x
_atom_site_fract_y
_atom_site_fract_z
Si Si1 0.465044 0.832075 0.000012
Si Si2 0.868816 0.352988 0.782414
Si Si3 0.535992 0.640460 0.663236
Si Si4 0.865871 0.545657 0.952323
Si Si5 0.684344 0.494816 0.179690
Si Si6 0.874711 0.086336 0.468371
Si Si7 0.810377 0.515417 0.642552
Si Si8 0.122754 0.853077 0.862494
O O1 0.495004 0.721075 0.913629
O O2 0.406997 0.896826 0.971077
O O3 0.439147 0.728031 0.092742
O O4 0.500000 0.000000 0.000000
O O5 0.930881 0.281283 0.787573
O O6 0.856048 0.510495 0.850667
O O7 0.827673 0.201962 0.822784
O O8 0.855555 0.407105 0.685152
O O9 0.500000 0.548909 0.750000
O O10 0.579588 0.521232 0.600126
O O11 0.893238 0.723197 0.964006
O O12 0.813388 0.532775 0.036432
O O13 0.678525 0.575057 0.082641
O O14 0.747401 0.516469 0.197612
O O15 0.636132 0.568343 0.261154
O O16 0.866758 0.996371 0.566187
O O17 0.831512 0.704512 0.643702
#
# Coordination Sequence:
#
# PCOD9288437 Si02
#       8
#     8   8   8   8   8   8   8   8
#     4   9  20  40  62  89 121 159 204 248 309 371
#     4  10  22  39  59  87 127 157 206 260 302 374
#     4   9  20  38  61  88 120 163 201 250 313 359
#     4  10  22  40  60  87 122 164 199 254 307 363
#     4  11  22  38  61  90 120 164 206 254 310 358
#     4  10  22  42  57  85 131 155 204 256 298 371
#     4  11  22  36  63  89 119 163 209 250 307 364
#     4  10  22  39  60  89 126 161 202 258 307 363
#
# _framework density 22.788412999999998
#
# number of rings (size 3 to 8) (size 9 to 14) (size 15 to 20)
#    0.000    2.000    0.000    4.500    3.500    3.500 
#    4.500    1.875    0.000    0.000    0.000    0.000 
#    0.000    0.000    0.000    0.000    0.000    0.000 
#
# Total GULP energy -178527.514388 kJ/mol
# GULP energy per Si atom -5578.984825 kJ/mol
# Density = 2.273655 g / cm^3
# Si number density = 22.788413 Si / 1000 Ang^3
#
#
#
# Elastic Constant Matrix: (Units=GPa)
#
#
# Indices 1 2 3 4 5 6 
#
# 1 31.1668 -14.5142 13.7808 0.0000 -2.6363 0.0000
# 2 -14.5142 73.8513 3.9955 0.0000 1.9579 0.0000
# 3 13.7808 3.9955 75.5640 0.0000 -8.6445 0.0000
# 4 0.0000 0.0000 0.0000 35.6045 0.0000 2.8033
# 5 -2.6363 1.9579 -8.6445 0.0000 20.8147 0.0000
# 6 0.0000 0.0000 0.0000 2.8033 0.0000 12.1459
#
#
#
# Elastic Compliance Matrix: (Units=1/GPa)
#
#
# Indices 1 2 3 4 5 6 
#
# 1 0.039242 0.008086 -0.007457 0.000000 0.001113 0.000000
# 2 0.008086 0.015300 -0.002448 0.000000 -0.001431 0.000000
# 3 -0.007457 -0.002448 0.015372 0.000000 0.005670 0.000000
# 4 0.000000 0.000000 0.000000 0.028606 0.000000 -0.006602
# 5 0.001113 -0.001431 0.005670 0.000000 0.050673 0.000000
# 6 0.000000 0.000000 0.000000 -0.006602 0.000000 0.083856
#
#
# Mechanical properties :
#
#
# Convention : Reuss Voigt Hill
#
# Bulk Modulus (GPa) = 15.08791 20.78961 17.93876
# Shear Modulus (GPa) = 19.32146 25.53434 22.42790
#
# Velocity S-wave (km/s) = 2.91497 3.35101 3.14057
# Velocity P-wave (km/s) = 4.23847 4.91071 4.58692
#
# Compressibility (1/GPa) = 0.06627825
#
# Stress axis : x y z
#
# Youngs Moduli (GPa) = 25.48258 65.35808 65.05419
#
# Poissons Ratio (x) = -0.52851 0.48511
# Poissons Ratio (y) = -0.20606 0.15922
# Poissons Ratio (z) = 0.19002 0.15996
#
# Static dielectric constant tensor:
#      x y z
#    x 1.905770 0.000000 0.002460 
#    y 0.000000 1.856470 0.000000 
#    z 0.002460 0.000000 1.874960 
# 
# From -- ./inp_files/176564.got.cif
#   From: 2010.05.17/outbox.cif.g08.bks.cpg/sg15_89_cif.got.tgz:176564.got - 2010.06.03 18:47:42.
