data_PCOD9288641
_publ_section_title
;
Structure prediction by ZEFSAII (Michael W. Deem and Ramdas Pophale) SiO2 
 PCOD9288641
Probable space group: C 2/C
;
_chemical_formula_sum "Si O2"
_cell_formula_units_Z 56
_cell_length_a 17.181793
_cell_length_b 21.615057
_cell_length_c 9.035427
_cell_angle_alpha 90.000000
_cell_angle_beta 57.807985
_cell_angle_gamma 90.000000
_cell_volume 2839.756953
_symmetry_space_group_name_H-M "C 2/C"
_symmetry_group_IT_number 15
_symmetry_cell_setting 'monoclinic'
loop_
_space_group_symop_operation_xyz
x,y,z
-x,y,1/2-z
-x,-y,-z
x,-y,1/2+z
1/2+x,1/2+y,z
1/2-x,1/2+y,1/2-z
1/2-x,1/2-y,-z
1/2+x,1/2-y,1/2+z
loop_
_atom_site_type_symbol
_atom_site_label
_atom_site_fract_x
_atom_site_fract_y
_atom_site_fract_z
Si Si1 0.500000 0.432552 0.750000
Si Si2 0.000000 0.245071 0.750000
Si Si3 0.249599 0.662838 0.648445
Si Si4 0.551181 0.347776 0.961322
Si Si5 0.275054 0.583152 0.123901
Si Si6 0.808907 0.688599 0.464639
Si Si7 0.205025 0.037478 0.066322
Si Si8 0.609420 0.743516 0.161535
O O1 0.496144 0.389554 0.900313
O O2 0.405945 0.468998 0.827260
O O3 0.991992 0.198178 0.620116
O O4 0.087261 0.288021 0.636245
O O5 0.270394 0.595398 0.562934
O O6 0.335085 0.708878 0.524977
O O7 0.163791 0.694883 0.649989
O O8 0.224817 0.660753 0.845577
O O9 0.620459 0.389601 0.987201
O O10 0.615755 0.304354 0.792972
O O11 0.210301 0.639858 0.145503
O O12 0.265959 0.556647 0.298468
O O13 0.257502 0.526948 0.030363
O O14 0.750000 0.750000 0.500000
O O15 0.500000 0.752225 0.250000
#
# Coordination Sequence:
#
# PCOD9288641 Si02
#       8
#     4   4   8   8   8   8   8   8
#     4  10  22  39  62  96 133 176 216 258 324 406
#     4  12  26  39  66  98 137 172 218 270 342 384
#     4  11  23  39  64  96 129 171 223 262 325 389
#     4  11  21  40  59  98 131 173 210 264 327 397
#     4  11  24  44  64  94 132 174 220 268 332 388
#     4  12  26  42  65  99 135 175 217 281 330 390
#     4  11  24  42  67  93 133 179 221 269 327 398
#     4  11  21  37  66  93 134 169 211 268 324 386
#
# _framework density 19.719998
#
# number of rings (size 3 to 8) (size 9 to 14) (size 15 to 20)
#    0.000    0.857    6.429    0.857    6.000    4.000 
#    0.000    0.000    1.571    1.714    0.000    0.000 
#    0.000    0.000    0.000    0.000    0.000    0.000 
#
# Total GULP energy -156514.478596 kJ/mol
# GULP energy per Si atom -5589.802807 kJ/mol
# Density = 1.967511 g / cm^3
# Si number density = 19.719998 Si / 1000 Ang^3
#
#
#
# Elastic Constant Matrix: (Units=GPa)
#
#
# Indices 1 2 3 4 5 6 
#
# 1 83.4998 27.3053 24.7807 0.0000 -6.2605 0.0000
# 2 27.3053 91.0103 18.5534 0.0000 8.0578 0.0000
# 3 24.7807 18.5534 92.2446 0.0000 5.2798 0.0000
# 4 0.0000 0.0000 0.0000 22.0607 0.0000 8.0822
# 5 -6.2605 8.0578 5.2798 0.0000 27.6379 0.0000
# 6 0.0000 0.0000 0.0000 8.0822 0.0000 20.0631
#
#
#
# Elastic Compliance Matrix: (Units=1/GPa)
#
#
# Indices 1 2 3 4 5 6 
#
# 1 0.014752 -0.004191 -0.003419 0.000000 0.005217 0.000000
# 2 -0.004191 0.012888 -0.001210 0.000000 -0.004476 0.000000
# 3 -0.003419 -0.001210 0.012160 0.000000 -0.002744 0.000000
# 4 0.000000 0.000000 0.000000 0.053178 0.000000 -0.021422
# 5 0.005217 -0.004476 -0.002744 0.000000 0.039193 0.000000
# 6 0.000000 0.000000 0.000000 -0.021422 0.000000 0.058472
#
#
# Mechanical properties :
#
#
# Convention : Reuss Voigt Hill
#
# Bulk Modulus (GPa) = 45.12567 45.33703 45.23135
# Shear Modulus (GPa) = 23.18364 27.02670 25.10517
#
# Velocity S-wave (km/s) = 3.43248 3.70607 3.57190
# Velocity P-wave (km/s) = 6.21628 6.43068 6.32439
#
# Compressibility (1/GPa) = 0.02216034
#
# Stress axis : x y z
#
# Youngs Moduli (GPa) = 67.78616 77.59078 82.23924
#
# Poissons Ratio (x) = 0.32518 0.28115
# Poissons Ratio (y) = 0.28409 0.09953
# Poissons Ratio (z) = 0.23174 0.09390
#
# Static dielectric constant tensor:
#      x y z
#    x 1.694360 0.000000 0.038410 
#    y 0.000000 1.679710 0.000000 
#    z 0.038410 0.000000 1.713840 
# 
# From -- ./inp_files/50160.got.cif
#   From: 2010.05.17/outbox.cif.g08.bks.cpg/sg15_26_cif.got.tgz:50160.got - 2010.06.03 18:47:42.
