data_PCOD9288523
_publ_section_title
;
Structure prediction by ZEFSAII (Michael W. Deem and Ramdas Pophale) SiO2 
 PCOD9288523
Probable space group: C 2/C
;
_chemical_formula_sum "Si O2"
_cell_formula_units_Z 48
_cell_length_a 7.717984
_cell_length_b 27.920313
_cell_length_c 16.570087
_cell_angle_alpha 90.000000
_cell_angle_beta 34.603633
_cell_angle_gamma 90.000000
_cell_volume 2027.765393
_symmetry_space_group_name_H-M "C 2/C"
_symmetry_group_IT_number 15
_symmetry_cell_setting 'monoclinic'
loop_
_space_group_symop_operation_xyz
x,y,z
-x,y,1/2-z
-x,-y,-z
x,-y,1/2+z
1/2+x,1/2+y,z
1/2-x,1/2+y,1/2-z
1/2-x,1/2-y,-z
1/2+x,1/2-y,1/2+z
loop_
_atom_site_type_symbol
_atom_site_label
_atom_site_fract_x
_atom_site_fract_y
_atom_site_fract_z
Si Si1 0.421994 0.118425 0.684927
Si Si2 0.209613 0.019222 0.802730
Si Si3 0.984639 0.740582 0.517941
Si Si4 0.801574 0.632197 0.080954
Si Si5 0.187026 0.778682 0.283842
Si Si6 0.959413 0.462372 0.942973
O O1 0.500000 0.119597 0.750000
O O2 0.254623 0.068253 0.734907
O O3 0.701512 0.121026 0.514222
O O4 0.222055 0.165745 0.747110
O O5 0.500000 0.018440 0.750000
O O6 0.266320 0.973885 0.723806
O O7 0.871311 0.024341 0.967285
O O8 0.633638 0.742616 0.622230
O O9 0.942448 0.747914 0.630700
O O10 0.087576 0.686740 0.457446
O O11 0.174905 0.774489 0.385293
O O12 0.500000 0.628816 0.250000
O O13 0.023202 0.591954 0.033765
O O14 0.000000 0.500000 0.000000
#
# Coordination Sequence:
#
# PCOD9288523 Si02
#       6
#     8   8   8   8   8   8
#     4  10  22  39  61  87 125 162 211 258 323 378
#     4  11  24  42  65  94 131 169 214 267 325 384
#     4   9  19  35  60  84 119 155 212 260 324 375
#     4  11  23  39  61  93 126 166 216 267 319 383
#     4   9  18  36  59  86 114 161 205 266 315 387
#     4  12  23  40  68  94 127 171 220 265 319 387
#
# _framework density 23.671377
#
# number of rings (size 3 to 8) (size 9 to 14) (size 15 to 20)
#    0.000    1.667    1.667    3.000    0.000    3.333 
#    0.000    3.333    7.333    0.000    0.000    0.000 
#    0.000    0.000    0.000    0.000    0.000    0.000 
#
# Total GULP energy -133992.827465 kJ/mol
# GULP energy per Si atom -5583.034478 kJ/mol
# Density = 2.361750 g / cm^3
# Si number density = 23.671377 Si / 1000 Ang^3
#
#
#
# Elastic Constant Matrix: (Units=GPa)
#
#
# Indices 1 2 3 4 5 6 
#
# 1 82.2632 -1.3583 43.6305 0.0000 11.8092 0.0000
# 2 -1.3583 101.0179 28.4894 0.0000 10.2069 0.0000
# 3 43.6305 28.4894 188.9624 -0.0001 19.6496 0.0000
# 4 0.0000 0.0000 -0.0001 16.5706 0.0000 9.3805
# 5 11.8092 10.2069 19.6496 0.0000 41.4904 0.0000
# 6 0.0000 0.0000 0.0000 9.3805 0.0000 22.1614
#
#
#
# Elastic Compliance Matrix: (Units=1/GPa)
#
#
# Indices 1 2 3 4 5 6 
#
# 1 0.014296 0.001390 -0.003210 0.000000 -0.002891 0.000000
# 2 0.001390 0.010618 -0.001692 0.000000 -0.002206 0.000000
# 3 -0.003210 -0.001692 0.006469 0.000000 -0.001734 0.000000
# 4 0.000000 0.000000 0.000000 0.079365 0.000000 -0.033594
# 5 -0.002891 -0.002206 -0.001734 0.000000 0.026289 0.000000
# 6 0.000000 0.000000 0.000000 -0.033594 0.000000 0.059343
#
#
# Mechanical properties :
#
#
# Convention : Reuss Voigt Hill
#
# Bulk Modulus (GPa) = 41.05429 57.08519 49.06974
# Shear Modulus (GPa) = 23.63792 36.14327 29.89060
#
# Velocity S-wave (km/s) = 3.16347 3.91177 3.55735
# Velocity P-wave (km/s) = 5.54297 6.67612 6.13576
#
# Compressibility (1/GPa) = 0.02435799
#
# Stress axis : x y z
#
# Youngs Moduli (GPa) = 69.94727 94.17880 154.59249
#
# Poissons Ratio (x) = -0.13087 0.49622
# Poissons Ratio (y) = -0.09720 0.26162
# Poissons Ratio (z) = 0.22452 0.15938
#
# Static dielectric constant tensor:
#      x y z
#    x 1.999010 0.000000 0.028170 
#    y 0.000000 1.849720 0.000000 
#    z 0.028170 0.000000 1.936560 
# 
# From -- ./inp_files/194171.got.cif
#   From: 2010.05.17/outbox.cif.g08.bks.cpg/sg15_98_cif.got.tgz:194171.got - 2010.06.03 18:47:42.
