data_PCOD9288956
_publ_section_title
;
Structure prediction by ZEFSAII (Michael W. Deem and Ramdas Pophale) SiO2 
 PCOD9288956
Probable space group: C 2/C
;
_chemical_formula_sum "Si O2"
_cell_formula_units_Z 56
_cell_length_a 24.300315
_cell_length_b 7.943777
_cell_length_c 17.338058
_cell_angle_alpha 90.000000
_cell_angle_beta 138.363810
_cell_angle_gamma 90.000000
_cell_volume 2223.657966
_symmetry_space_group_name_H-M "C 2/C"
_symmetry_group_IT_number 15
_symmetry_cell_setting 'monoclinic'
loop_
_space_group_symop_operation_xyz
x,y,z
-x,y,1/2-z
-x,-y,-z
x,-y,1/2+z
1/2+x,1/2+y,z
1/2-x,1/2+y,1/2-z
1/2-x,1/2-y,-z
1/2+x,1/2-y,1/2+z
loop_
_atom_site_type_symbol
_atom_site_label
_atom_site_fract_x
_atom_site_fract_y
_atom_site_fract_z
Si Si1 0.666810 0.531926 0.159960
Si Si2 0.906340 0.284945 0.623812
Si Si3 0.881586 0.873589 0.248451
Si Si4 0.583724 0.068438 0.121521
Si Si5 0.852508 0.376964 0.982994
Si Si6 0.205570 0.333308 0.297995
Si Si7 0.042650 0.051836 0.412028
O O1 0.684081 0.429353 0.256885
O O2 0.729098 0.473476 0.160135
O O3 0.675456 0.722699 0.193445
O O4 0.577739 0.477956 0.034746
O O5 0.854299 0.219712 0.643137
O O6 0.869739 0.445326 0.541336
O O7 0.919038 0.110809 0.590597
O O8 0.000000 0.328665 0.750000
O O9 0.934130 0.735440 0.349912
O O10 0.943903 0.029799 0.299238
O O11 0.639646 0.102335 0.102903
O O12 0.624267 0.942200 0.227115
O O13 0.500000 0.000000 0.000000
O O14 0.763031 0.290850 0.908251
O O15 0.920806 0.232395 0.074625
#
# Coordination Sequence:
#
# PCOD9288956 Si02
#       7
#     8   8   8   8   8   8   8
#     4  11  20  38  65  93 132 171 231 284 342 407
#     4  10  23  44  64  97 144 182 223 286 354 413
#     4  11  22  41  63 102 134 169 230 297 338 396
#     4  12  23  40  68 103 131 174 239 298 336 402
#     4  11  23  43  70  95 136 190 229 272 360 422
#     4  11  22  39  65  97 137 179 229 284 355 412
#     4  10  22  39  68  97 134 180 228 278 349 417
#
# _framework density 25.183727999999999
#
# number of rings (size 3 to 8) (size 9 to 14) (size 15 to 20)
#    0.000    1.143    4.286    3.857    2.000    1.714 
#    2.571    1.429    0.000    0.000    0.000    0.000 
#    0.000    0.000    0.000    0.000    0.000    0.000 
#
# Total GULP energy -156309.019461 kJ/mol
# GULP energy per Si atom -5582.464981 kJ/mol
# Density = 2.512641 g / cm^3
# Si number density = 25.183728 Si / 1000 Ang^3
#
#
#
# Elastic Constant Matrix: (Units=GPa)
#
#
# Indices 1 2 3 4 5 6 
#
# 1 37.6806 8.9537 22.5717 0.0000 -8.4935 0.0000
# 2 8.9537 99.8140 22.7018 0.0000 -12.7201 0.0000
# 3 22.5717 22.7018 68.1668 0.0000 -1.1192 0.0000
# 4 0.0000 0.0000 0.0000 54.4770 0.0000 0.0782
# 5 -8.4935 -12.7201 -1.1192 0.0000 32.5744 0.0000
# 6 0.0000 0.0000 0.0000 0.0782 0.0000 23.1345
#
#
#
# Elastic Compliance Matrix: (Units=1/GPa)
#
#
# Indices 1 2 3 4 5 6 
#
# 1 0.035525 0.000667 -0.011836 0.000000 0.009117 0.000000
# 2 0.000667 0.011432 -0.003954 0.000000 0.004502 0.000000
# 3 -0.011836 -0.003954 0.019841 0.000000 -0.003948 0.000000
# 4 0.000000 0.000000 0.000000 0.018356 0.000000 -0.000062
# 5 0.009117 0.004502 -0.003948 0.000000 0.034698 0.000000
# 6 0.000000 0.000000 0.000000 -0.000062 0.000000 0.043226
#
#
# Mechanical properties :
#
#
# Convention : Reuss Voigt Hill
#
# Bulk Modulus (GPa) = 27.35798 34.90177 31.12987
# Shear Modulus (GPa) = 24.32988 32.13280 28.23134
#
# Velocity S-wave (km/s) = 3.11158 3.57590 3.35179
# Velocity P-wave (km/s) = 4.87813 5.56222 5.23137
#
# Compressibility (1/GPa) = 0.03655240
#
# Stress axis : x y z
#
# Youngs Moduli (GPa) = 28.14897 87.47467 50.40063
#
# Poissons Ratio (x) = -0.05834 0.59653
# Poissons Ratio (y) = -0.01877 0.19929
# Poissons Ratio (z) = 0.33316 0.34589
#
# Static dielectric constant tensor:
#      x y z
#    x 2.118500 0.000000 0.004040 
#    y 0.000000 2.010500 0.000000 
#    z 0.004040 0.000000 2.030780 
# 
# From -- ./inp_files/222075.got.cif
#   From: 2010.05.17/outbox.cif.g08.bks.cpg/sg15_112_cif.got.tgz:222075.got - 2010.06.03 18:47:42.
