data_PCOD9288675
_publ_section_title
;
Structure prediction by ZEFSAII (Michael W. Deem and Ramdas Pophale) SiO2 
 PCOD9288675
Probable space group: C 2/C
;
_chemical_formula_sum "Si O2"
_cell_formula_units_Z 36
_cell_length_a 23.374660
_cell_length_b 9.200264
_cell_length_c 15.514512
_cell_angle_alpha 90.000000
_cell_angle_beta 145.371976
_cell_angle_gamma 90.000000
_cell_volume 1895.921339
_symmetry_space_group_name_H-M "C 2/C"
_symmetry_group_IT_number 15
_symmetry_cell_setting 'monoclinic'
loop_
_space_group_symop_operation_xyz
x,y,z
-x,y,1/2-z
-x,-y,-z
x,-y,1/2+z
1/2+x,1/2+y,z
1/2-x,1/2+y,1/2-z
1/2-x,1/2-y,-z
1/2+x,1/2-y,1/2+z
loop_
_atom_site_type_symbol
_atom_site_label
_atom_site_fract_x
_atom_site_fract_y
_atom_site_fract_z
Si Si1 0.000000 0.748307 0.250000
Si Si2 0.153244 0.916210 0.733545
Si Si3 0.762426 0.843555 0.427322
Si Si4 0.797168 0.596352 0.037295
Si Si5 0.553541 0.481656 0.935691
O O1 0.976192 0.863828 0.144104
O O2 0.091988 0.639989 0.351251
O O3 0.205373 0.758817 0.788812
O O4 0.120085 0.984834 0.602383
O O5 0.231889 0.018294 0.882107
O O6 0.050655 0.907887 0.663161
O O7 0.750000 0.750000 0.500000
O O8 0.709689 0.994103 0.387267
O O9 0.875705 0.885602 0.539440
O O10 0.750000 0.750000 0.000000
#
# Coordination Sequence:
#
# PCOD9288675 Si02
#       5
#     4   8   8   8   8
#     4  12  22  38  66  92 124 172 210 258 320 384
#     4  10  24  41  63  95 126 171 214 266 322 383
#     4  10  22  39  63  92 126 167 214 261 320 387
#     4  11  21  39  64  90 123 167 213 256 321 385
#     4  11  22  40  65  90 135 168 210 266 331 378
#
# _framework density 18.988130000000002
#
# number of rings (size 3 to 8) (size 9 to 14) (size 15 to 20)
#    0.000    1.333    4.444    1.333    3.111    3.556 
#    0.000    1.111    0.000    0.000    0.000    0.000 
#    0.000    0.000    0.000    0.000    0.000    0.000 
#
# Total GULP energy -100370.391255 kJ/mol
# GULP energy per Si atom -5576.132848 kJ/mol
# Density = 1.894491 g / cm^3
# Si number density = 18.988130 Si / 1000 Ang^3
#
#
#
# Elastic Constant Matrix: (Units=GPa)
#
#
# Indices 1 2 3 4 5 6 
#
# 1 71.7688 17.4643 44.5416 0.0000 9.1978 0.0000
# 2 17.4643 112.1931 43.0572 0.0000 7.3589 0.0000
# 3 44.5416 43.0572 116.7730 0.0000 16.6604 0.0000
# 4 0.0000 0.0000 0.0000 27.9741 0.0000 12.4942
# 5 9.1978 7.3589 16.6604 0.0000 28.2331 0.0000
# 6 0.0000 0.0000 0.0000 12.4942 0.0000 28.1053
#
#
#
# Elastic Compliance Matrix: (Units=1/GPa)
#
#
# Indices 1 2 3 4 5 6 
#
# 1 0.018363 -0.000173 -0.006654 0.000000 -0.002011 0.000000
# 2 -0.000173 0.010390 -0.003698 0.000000 -0.000470 0.000000
# 3 -0.006654 -0.003698 0.013123 0.000000 -0.004613 0.000000
# 4 0.000000 0.000000 0.000000 0.044603 0.000000 -0.019828
# 5 -0.002011 -0.000470 -0.004613 0.000000 0.038919 0.000000
# 6 0.000000 0.000000 0.000000 -0.019828 0.000000 0.044395
#
#
# Mechanical properties :
#
#
# Convention : Reuss Voigt Hill
#
# Bulk Modulus (GPa) = 48.01509 56.76235 52.38872
# Shear Modulus (GPa) = 25.27990 29.90727 27.59359
#
# Velocity S-wave (km/s) = 3.65273 3.97300 3.81622
# Velocity P-wave (km/s) = 6.56747 7.14176 6.86063
#
# Compressibility (1/GPa) = 0.02082679
#
# Stress axis : x y z
#
# Youngs Moduli (GPa) = 54.45785 96.24454 76.20074
#
# Poissons Ratio (x) = 0.01665 0.50701
# Poissons Ratio (y) = 0.00942 0.28180
# Poissons Ratio (z) = 0.36234 0.35593
#
# Static dielectric constant tensor:
#      x y z
#    x 1.689030 0.000000 -0.035030 
#    y 0.000000 1.641680 0.000000 
#    z -0.035030 0.000000 1.676730 
# 
# From -- ./inp_files/102594.got.cif
#   From: 2010.05.17/outbox.cif.g08.bks.cpg/sg15_52_cif.got.tgz:102594.got - 2010.06.03 18:47:42.
