data_PCOD9288183
_publ_section_title
;
Structure prediction by ZEFSAII (Michael W. Deem and Ramdas Pophale) SiO2 
 PCOD9288183
Probable space group: C 2/C
;
_chemical_formula_sum "Si O2"
_cell_formula_units_Z 64
_cell_length_a 9.273982
_cell_length_b 22.792065
_cell_length_c 19.608934
_cell_angle_alpha 90.000000
_cell_angle_beta 141.746866
_cell_angle_gamma 90.000000
_cell_volume 2566.200584
_symmetry_space_group_name_H-M "C 2/C"
_symmetry_group_IT_number 15
_symmetry_cell_setting 'monoclinic'
loop_
_space_group_symop_operation_xyz
x,y,z
-x,y,1/2-z
-x,-y,-z
x,-y,1/2+z
1/2+x,1/2+y,z
1/2-x,1/2+y,1/2-z
1/2-x,1/2-y,-z
1/2+x,1/2-y,1/2+z
loop_
_atom_site_type_symbol
_atom_site_label
_atom_site_fract_x
_atom_site_fract_y
_atom_site_fract_z
Si Si1 0.556876 0.723670 0.978443
Si Si2 0.277577 0.014330 0.523834
Si Si3 0.461955 0.827085 0.050031
Si Si4 0.752925 0.061140 0.693642
Si Si5 0.632365 0.754637 0.233652
Si Si6 0.433950 0.406377 0.648123
Si Si7 0.736307 0.349425 0.666879
Si Si8 0.276762 0.547664 0.856148
O O1 0.342142 0.711448 0.848575
O O2 0.750000 0.750000 0.000000
O O3 0.515726 0.777098 0.015513
O O4 0.622193 0.670435 0.052998
O O5 0.558429 0.008572 0.623179
O O6 0.214112 0.037531 0.425873
O O7 0.247466 0.063939 0.572697
O O8 0.056689 0.972867 0.459216
O O9 0.638508 0.881929 0.114867
O O10 0.474809 0.796808 0.128719
O O11 0.214784 0.852101 0.935959
O O12 0.780084 0.077800 0.783633
O O13 0.000000 0.048937 0.750000
O O14 0.500000 0.729472 0.250000
O O15 0.724966 0.704614 0.217166
O O16 0.500000 0.402272 0.750000
O O17 0.645443 0.405850 0.673739
O O18 0.000000 0.360494 0.750000
O O19 0.000000 0.519755 0.750000
#
# Coordination Sequence:
#
# PCOD9288183 Si02
#       8
#     8   8   8   8   8   8   8   8
#     4  11  22  36  58  85 116 166 207 269 314 370
#     4   9  21  42  63  95 126 165 215 257 324 393
#     4  10  24  40  59  86 124 163 218 260 321 385
#     4  10  22  38  64  97 130 170 206 267 325 387
#     4  11  22  38  61  83 115 165 211 264 318 377
#     4  11  23  41  61  86 125 166 207 268 320 389
#     4  11  22  36  55  84 118 154 211 258 315 384
#     4   9  19  41  70  93 129 165 205 263 319 398
#
# _framework density 24.939595000000001
#
# number of rings (size 3 to 8) (size 9 to 14) (size 15 to 20)
#    0.000    1.750    1.250    2.625    1.750    7.000 
#    0.000    6.250    0.000    0.000    0.000    0.000 
#    0.000    0.000    0.000    0.000    0.000    0.000 
#
# Total GULP energy -178142.745682 kJ/mol
# GULP energy per Si atom -5566.960803 kJ/mol
# Density = 2.488283 g / cm^3
# Si number density = 24.939595 Si / 1000 Ang^3
#
#
#
# Elastic Constant Matrix: (Units=GPa)
#
#
# Indices 1 2 3 4 5 6 
#
# 1 170.9529 21.2474 78.3520 0.0001 1.2685 0.0000
# 2 21.2474 24.1412 22.5206 0.0001 5.7990 0.0001
# 3 78.3520 22.5206 166.1413 0.0009 -21.4720 0.0002
# 4 0.0001 0.0001 0.0009 22.7139 0.0004 -4.6151
# 5 1.2685 5.7990 -21.4720 0.0004 56.1301 0.0000
# 6 0.0000 0.0001 0.0002 -4.6151 0.0000 14.8932
#
#
#
# Elastic Compliance Matrix: (Units=1/GPa)
#
#
# Indices 1 2 3 4 5 6 
#
# 1 0.007833 -0.003492 -0.003363 0.000000 -0.001103 0.000000
# 2 -0.003492 0.052403 -0.006466 0.000000 -0.007808 0.000000
# 3 -0.003363 -0.006466 0.009024 0.000000 0.004196 0.000000
# 4 0.000000 0.000000 0.000000 0.046984 -0.000001 0.014559
# 5 -0.001103 -0.007808 0.004196 -0.000001 0.020253 0.000000
# 6 0.000000 0.000000 0.000000 0.014559 0.000000 0.071656
#
#
# Mechanical properties :
#
#
# Convention : Reuss Voigt Hill
#
# Bulk Modulus (GPa) = 23.46385 67.27504 45.36945
# Shear Modulus (GPa) = 20.08020 34.68848 27.38434
#
# Velocity S-wave (km/s) = 2.84060 3.73352 3.31724
# Velocity P-wave (km/s) = 4.49304 6.75421 5.73615
#
# Compressibility (1/GPa) = 0.04261875
#
# Stress axis : x y z
#
# Youngs Moduli (GPa) = 127.66083 19.08271 110.81715
#
# Poissons Ratio (x) = 0.06663 0.37272
# Poissons Ratio (y) = 0.44576 0.71652
# Poissons Ratio (z) = 0.42937 0.12338
#
# Static dielectric constant tensor:
#      x y z
#    x 1.756940 0.000000 0.009470 
#    y 0.000000 2.087930 0.000000 
#    z 0.009470 0.000000 2.005760 
# 
# From -- ./inp_files/194282.got.cif
#   From: 2010.05.17/outbox.cif.g08.bks.cpg/sg15_98_cif.got.tgz:194282.got - 2010.06.03 18:47:42.
