data_PCOD9288477
_publ_section_title
;
Structure prediction by ZEFSAII (Michael W. Deem and Ramdas Pophale) SiO2 
 PCOD9288477
Probable space group: C 2/C
;
_chemical_formula_sum "Si O2"
_cell_formula_units_Z 64
_cell_length_a 14.124899
_cell_length_b 14.188085
_cell_length_c 26.018725
_cell_angle_alpha 90.000000
_cell_angle_beta 138.638503
_cell_angle_gamma 90.000000
_cell_volume 3445.642361
_symmetry_space_group_name_H-M "C 2/C"
_symmetry_group_IT_number 15
_symmetry_cell_setting 'monoclinic'
loop_
_space_group_symop_operation_xyz
x,y,z
-x,y,1/2-z
-x,-y,-z
x,-y,1/2+z
1/2+x,1/2+y,z
1/2-x,1/2+y,1/2-z
1/2-x,1/2-y,-z
1/2+x,1/2-y,1/2+z
loop_
_atom_site_type_symbol
_atom_site_label
_atom_site_fract_x
_atom_site_fract_y
_atom_site_fract_z
Si Si1 0.626580 0.851547 0.990464
Si Si2 0.052100 0.545223 0.914599
Si Si3 0.556179 0.325975 0.398976
Si Si4 0.381712 0.979366 0.746862
Si Si5 0.106367 0.067661 0.577381
Si Si6 0.686968 0.337619 0.009470
Si Si7 0.427901 0.775768 0.421552
Si Si8 0.380639 0.764698 0.745136
O O1 0.600590 0.780279 0.932928
O O2 0.552122 0.949567 0.947039
O O3 0.797582 0.868307 0.064281
O O4 0.567994 0.797236 0.016253
O O5 0.217723 0.573938 0.969850
O O6 0.954928 0.534636 0.824010
O O7 0.990339 0.631391 0.921174
O O8 0.496743 0.382111 0.423420
O O9 0.430276 0.310723 0.307172
O O10 0.500000 0.980864 0.750000
O O11 0.364663 0.871469 0.758485
O O12 0.233068 0.015640 0.661035
O O13 0.186362 0.142439 0.571433
O O14 0.000000 0.000000 0.500000
O O15 0.750000 0.250000 0.000000
O O16 0.518229 0.313581 0.937398
O O17 0.266227 0.762910 0.340352
O O18 0.500000 0.766781 0.750000
#
# Coordination Sequence:
#
# PCOD9288477 Si02
#       8
#     8   8   8   8   8   8   8   8
#     4  11  22  38  61  91 117 159 206 255 309 375
#     4  11  22  41  61  89 124 162 208 256 310 379
#     4  11  23  37  62  87 126 157 201 261 317 368
#     4  11  23  36  61  89 122 160 204 259 315 366
#     4  12  23  39  64  93 123 163 215 261 307 377
#     4  10  22  39  60  88 121 159 202 256 313 369
#     4  11  22  40  65  86 121 166 208 251 315 378
#     4  11  22  40  60  87 125 163 201 257 316 377
#
# _framework density 18.574185
#
# number of rings (size 3 to 8) (size 9 to 14) (size 15 to 20)
#    0.000    1.000    5.000    2.625    0.000    0.000 
#    0.000    0.000    0.000    0.000    0.000    2.625 
#    0.000    0.000    0.000    0.000    0.000    0.000 
#
# Total GULP energy -178134.800120 kJ/mol
# GULP energy per Si atom -5566.712504 kJ/mol
# Density = 1.853191 g / cm^3
# Si number density = 18.574185 Si / 1000 Ang^3
#
#
#
# Elastic Constant Matrix: (Units=GPa)
#
#
# Indices 1 2 3 4 5 6 
#
# 1 75.9959 15.3402 21.9499 0.0000 10.1924 0.0000
# 2 15.3402 56.0156 36.4267 0.0000 6.3018 0.0000
# 3 21.9499 36.4267 115.2213 0.0000 11.7210 0.0000
# 4 0.0000 0.0000 0.0000 85.1444 0.0000 -12.8877
# 5 10.1924 6.3018 11.7210 0.0000 33.9495 0.0000
# 6 0.0000 0.0000 0.0000 -12.8877 0.0000 30.5861
#
#
#
# Elastic Compliance Matrix: (Units=1/GPa)
#
#
# Indices 1 2 3 4 5 6 
#
# 1 0.014595 -0.002560 -0.001631 0.000000 -0.003343 0.000000
# 2 -0.002560 0.023026 -0.006669 0.000000 -0.001203 0.000000
# 3 -0.001631 -0.006669 0.011320 0.000000 -0.002181 0.000000
# 4 0.000000 0.000000 0.000000 0.012545 0.000000 0.005286
# 5 -0.003343 -0.001203 -0.002181 0.000000 0.031435 0.000000
# 6 0.000000 0.000000 0.000000 0.005286 0.000000 0.034922
#
#
# Mechanical properties :
#
#
# Convention : Reuss Voigt Hill
#
# Bulk Modulus (GPa) = 36.73822 43.85182 40.29502
# Shear Modulus (GPa) = 31.51859 41.50374 36.51116
#
# Velocity S-wave (km/s) = 4.12382 4.73216 4.43842
# Velocity P-wave (km/s) = 6.51894 7.31561 6.92873
#
# Compressibility (1/GPa) = 0.02721961
#
# Stress axis : x y z
#
# Youngs Moduli (GPa) = 68.51728 43.42979 88.33967
#
# Poissons Ratio (x) = 0.11119 0.14407
# Poissons Ratio (y) = 0.17542 0.58917
# Poissons Ratio (z) = 0.11174 0.28965
#
# Static dielectric constant tensor:
#      x y z
#    x 1.638110 0.000000 0.005500 
#    y 0.000000 1.665010 0.000000 
#    z 0.005500 0.000000 1.663110 
# 
# From -- ./inp_files/296427.got.cif
#   From: 2010.05.17/outbox.cif.g08.bks.cpg/sg15_149_cif.got.tgz:296427.got - 2010.06.03 18:47:42.
