data_PCOD9288063
_publ_section_title
;
Structure prediction by ZEFSAII (Michael W. Deem and Ramdas Pophale) SiO2 
 PCOD9288063
Probable space group: C 2/C
;
_chemical_formula_sum "Si O2"
_cell_formula_units_Z 48
_cell_length_a 10.610582
_cell_length_b 21.274604
_cell_length_c 12.176329
_cell_angle_alpha 90.000000
_cell_angle_beta 130.323712
_cell_angle_gamma 90.000000
_cell_volume 2095.560907
_symmetry_space_group_name_H-M "C 2/C"
_symmetry_group_IT_number 15
_symmetry_cell_setting 'monoclinic'
loop_
_space_group_symop_operation_xyz
x,y,z
-x,y,1/2-z
-x,-y,-z
x,-y,1/2+z
1/2+x,1/2+y,z
1/2-x,1/2+y,1/2-z
1/2-x,1/2-y,-z
1/2+x,1/2-y,1/2+z
loop_
_atom_site_type_symbol
_atom_site_label
_atom_site_fract_x
_atom_site_fract_y
_atom_site_fract_z
Si Si1 0.014368 0.129877 0.636220
Si Si2 0.408534 0.829978 0.817394
Si Si3 0.350780 0.255988 0.944224
Si Si4 0.308331 0.934139 0.921301
Si Si5 0.848318 0.003424 0.497594
Si Si6 0.153662 0.447211 0.206092
O O1 0.196241 0.102439 0.715719
O O2 0.000000 0.158248 0.750000
O O3 0.960408 0.181231 0.518154
O O4 0.880240 0.072684 0.563090
O O5 0.500000 0.843818 0.750000
O O6 0.282000 0.772671 0.722725
O O7 0.311828 0.887076 0.820680
O O8 0.536508 0.805134 0.981593
O O9 0.250000 0.250000 0.000000
O O10 0.155519 0.946475 0.917082
O O11 0.325201 0.004331 0.882412
O O12 0.471290 0.920192 0.086387
O O13 0.688809 0.990265 0.332872
O O14 0.000000 0.000000 0.500000
#
# Coordination Sequence:
#
# PCOD9288063 Si02
#       6
#     8   8   8   8   8   8
#     4  11  20  36  62  89 134 172 234 284 349 413
#     4  10  23  39  63  98 139 182 238 295 352 425
#     4  10  22  38  62  96 133 185 237 291 347 413
#     4  11  22  38  62  96 140 173 229 287 360 415
#     4  10  22  40  61  95 130 174 228 283 356 426
#     4  10  23  35  60  94 130 178 213 284 360 418
#
# _framework density 22.905560999999999
#
# number of rings (size 3 to 8) (size 9 to 14) (size 15 to 20)
#    0.000    1.667    1.667    3.000    7.000    2.667 
#    0.000    0.000    0.000    4.000    0.000    0.000 
#    0.000    0.000    0.000    0.000    0.000    0.000 
#
# Total GULP energy -133800.922799 kJ/mol
# GULP energy per Si atom -5575.038450 kJ/mol
# Density = 2.285343 g / cm^3
# Si number density = 22.905561 Si / 1000 Ang^3
#
#
#
# Elastic Constant Matrix: (Units=GPa)
#
#
# Indices 1 2 3 4 5 6 
#
# 1 98.1643 50.3597 25.7066 0.0000 -2.2932 0.0000
# 2 50.3597 76.4879 7.8735 0.0000 1.6066 0.0000
# 3 25.7066 7.8735 87.5098 0.0000 10.5521 0.0000
# 4 0.0000 0.0000 0.0000 40.9986 0.0000 5.2416
# 5 -2.2932 1.6066 10.5521 0.0000 21.2040 0.0000
# 6 0.0000 0.0000 0.0000 5.2416 0.0000 41.1010
#
#
#
# Elastic Compliance Matrix: (Units=1/GPa)
#
#
# Indices 1 2 3 4 5 6 
#
# 1 0.017107 -0.010890 -0.004647 0.000000 0.004988 0.000000
# 2 -0.010890 0.020132 0.001823 0.000000 -0.003610 0.000000
# 3 -0.004647 0.001823 0.013517 0.000000 -0.007367 0.000000
# 4 0.000000 0.000000 0.000000 0.024795 0.000000 -0.003162
# 5 0.004988 -0.003610 -0.007367 0.000000 0.051640 0.000000
# 6 0.000000 0.000000 0.000000 -0.003162 0.000000 0.024734
#
#
# Mechanical properties :
#
#
# Convention : Reuss Voigt Hill
#
# Bulk Modulus (GPa) = 42.86655 47.78241 45.32448
# Shear Modulus (GPa) = 26.71964 32.54219 29.63092
#
# Velocity S-wave (km/s) = 3.41913 3.77332 3.60058
# Velocity P-wave (km/s) = 5.86024 6.31584 6.09230
#
# Compressibility (1/GPa) = 0.02332821
#
# Stress axis : x y z
#
# Youngs Moduli (GPa) = 58.45558 49.67231 73.98255
#
# Poissons Ratio (x) = 0.54092 0.34379
# Poissons Ratio (y) = 0.63656 -0.13487
# Poissons Ratio (z) = 0.27164 -0.09055
#
# Static dielectric constant tensor:
#      x y z
#    x 2.081710 0.000000 0.042900 
#    y 0.000000 1.910550 0.000000 
#    z 0.042900 0.000000 1.953770 
# 
# From -- ./inp_files/89776.got.cif
#   From: 2010.05.17/outbox.cif.g08.bks.cpg/sg15_45_cif.got.tgz:89776.got - 2010.06.03 18:47:42.
