data_PCOD9288874
_publ_section_title
;
Structure prediction by ZEFSAII (Michael W. Deem and Ramdas Pophale) SiO2 
 PCOD9288874
Probable space group: C 2/C
;
_chemical_formula_sum "Si O2"
_cell_formula_units_Z 60
_cell_length_a 13.803922
_cell_length_b 11.684552
_cell_length_c 17.646760
_cell_angle_alpha 90.000000
_cell_angle_beta 89.342955
_cell_angle_gamma 90.000000
_cell_volume 2846.105436
_symmetry_space_group_name_H-M "C 2/C"
_symmetry_group_IT_number 15
_symmetry_cell_setting 'monoclinic'
loop_
_space_group_symop_operation_xyz
x,y,z
-x,y,1/2-z
-x,-y,-z
x,-y,1/2+z
1/2+x,1/2+y,z
1/2-x,1/2+y,1/2-z
1/2-x,1/2-y,-z
1/2+x,1/2-y,1/2+z
loop_
_atom_site_type_symbol
_atom_site_label
_atom_site_fract_x
_atom_site_fract_y
_atom_site_fract_z
Si Si1 0.621872 0.851686 0.693394
Si Si2 0.653769 0.383698 0.822094
Si Si3 0.137312 0.710947 0.689664
Si Si4 0.994267 0.764545 0.418730
Si Si5 0.141274 0.135136 0.793691
Si Si6 0.000000 0.534366 0.750000
Si Si7 0.156132 0.184533 0.030676
Si Si8 0.895681 0.059325 0.007826
O O1 0.730369 0.879381 0.670951
O O2 0.548842 0.845794 0.623069
O O3 0.618756 0.724078 0.727517
O O4 0.587174 0.942054 0.757435
O O5 0.625548 0.278355 0.769070
O O6 0.626227 0.501563 0.780134
O O7 0.615394 0.391449 0.907900
O O8 0.245093 0.654905 0.687757
O O9 0.139157 0.798096 0.619906
O O10 0.051223 0.617792 0.688620
O O11 0.902091 0.840449 0.446081
O O12 0.068362 0.829006 0.361318
O O13 0.063062 0.756602 0.491219
O O14 0.250000 0.250000 0.000000
O O15 0.170248 0.050619 0.009136
O O16 0.000000 0.000000 0.000000
#
# Coordination Sequence:
#
# PCOD9288874 Si02
#       8
#     8   8   8   8   8   4   8   8
#     4  11  25  43  70  93 135 179 223 277 336 403
#     4  11  23  45  68  97 134 172 226 281 331 396
#     4  11  26  39  69 101 131 175 219 284 337 398
#     4  11  22  41  66  95 127 172 222 269 334 396
#     4  11  20  43  69  95 126 179 225 270 331 402
#     4  12  24  42  64  96 140 164 224 278 332 388
#     4  11  22  43  68  97 136 175 219 272 345 402
#     4  10  22  39  66  97 133 169 221 286 324 397
#
# _framework density 21.081440000000001
#
# number of rings (size 3 to 8) (size 9 to 14) (size 15 to 20)
#    0.000    1.067    6.667    0.000    5.600    0.533 
#    0.000    0.667    5.867    0.000    0.000    0.000 
#    0.000    0.000    0.000    0.000    0.000    0.000 
#
# Total GULP energy -167210.621385 kJ/mol
# GULP energy per Si atom -5573.687379 kJ/mol
# Density = 2.103346 g / cm^3
# Si number density = 21.081440 Si / 1000 Ang^3
#
#
#
# Elastic Constant Matrix: (Units=GPa)
#
#
# Indices 1 2 3 4 5 6 
#
# 1 89.3335 25.5532 33.0284 0.0000 -16.0959 0.0000
# 2 25.5532 87.7686 40.5119 0.0000 -13.8577 0.0000
# 3 33.0284 40.5119 108.8303 0.0000 -23.3619 0.0000
# 4 0.0000 0.0000 0.0000 24.0117 0.0000 -8.8063
# 5 -16.0959 -13.8577 -23.3619 0.0000 35.6074 0.0000
# 6 0.0000 0.0000 0.0000 -8.8063 0.0000 36.4659
#
#
#
# Elastic Compliance Matrix: (Units=1/GPa)
#
#
# Indices 1 2 3 4 5 6 
#
# 1 0.013380 -0.002187 -0.002480 0.000000 0.003570 0.000000
# 2 -0.002187 0.014282 -0.004274 0.000000 0.001766 0.000000
# 3 -0.002480 -0.004274 0.012727 0.000000 0.005566 0.000000
# 4 0.000000 0.000000 0.000000 0.045693 0.000000 0.011035
# 5 0.003570 0.001766 0.005566 0.000000 0.034037 0.000000
# 6 0.000000 0.000000 0.000000 0.011035 0.000000 0.030088
#
#
# Mechanical properties :
#
#
# Convention : Reuss Voigt Hill
#
# Bulk Modulus (GPa) = 44.43086 53.79104 49.11095
# Shear Modulus (GPa) = 28.47545 31.67291 30.07418
#
# Velocity S-wave (km/s) = 3.67922 3.88030 3.78110
# Velocity P-wave (km/s) = 6.25863 6.75624 6.51219
#
# Compressibility (1/GPa) = 0.02250688
#
# Stress axis : x y z
#
# Youngs Moduli (GPa) = 74.73981 70.01977 78.57376
#
# Poissons Ratio (x) = 0.15313 0.19487
# Poissons Ratio (y) = 0.16346 0.33579
# Poissons Ratio (z) = 0.18537 0.29924
#
# Static dielectric constant tensor:
#      x y z
#    x 1.793250 0.000000 0.016790 
#    y 0.000000 1.847390 0.000000 
#    z 0.016790 0.000000 1.805820 
# 
# From -- ./inp_files/204045.got.cif
#   From: 2010.05.17/outbox.cif.g08.bks.cpg/sg15_103_cif.got.tgz:204045.got - 2010.06.03 18:47:42.
