data_PCOD9288689
_publ_section_title
;
Structure prediction by ZEFSAII (Michael W. Deem and Ramdas Pophale) SiO2 
 PCOD9288689
Probable space group: C 2/C
;
_chemical_formula_sum "Si O2"
_cell_formula_units_Z 60
_cell_length_a 22.016977
_cell_length_b 20.510161
_cell_length_c 9.383704
_cell_angle_alpha 90.000000
_cell_angle_beta 39.628399
_cell_angle_gamma 90.000000
_cell_volume 2702.648317
_symmetry_space_group_name_H-M "C 2/C"
_symmetry_group_IT_number 15
_symmetry_cell_setting 'monoclinic'
loop_
_space_group_symop_operation_xyz
x,y,z
-x,y,1/2-z
-x,-y,-z
x,-y,1/2+z
1/2+x,1/2+y,z
1/2-x,1/2+y,1/2-z
1/2-x,1/2-y,-z
1/2+x,1/2-y,1/2+z
loop_
_atom_site_type_symbol
_atom_site_label
_atom_site_fract_x
_atom_site_fract_y
_atom_site_fract_z
Si Si1 0.515572 0.186277 0.996189
Si Si2 0.500000 0.292118 0.250000
Si Si3 0.865933 0.982925 0.101695
Si Si4 0.057091 0.540535 0.009053
Si Si5 0.289362 0.814178 0.849898
Si Si6 0.742491 0.559194 0.955856
Si Si7 0.803206 0.693882 0.990366
Si Si8 0.880375 0.906285 0.334563
O O1 0.545805 0.117549 0.008356
O O2 0.582690 0.197059 0.738576
O O3 0.543174 0.243524 0.055575
O O4 0.402247 0.182127 0.178465
O O5 0.431626 0.340182 0.288084
O O6 0.795195 0.014348 0.347482
O O7 0.890357 0.043896 0.951456
O O8 0.830398 0.933405 0.043600
O O9 0.924882 0.939908 0.111588
O O10 0.167811 0.526588 0.786419
O O11 0.000000 0.521241 0.250000
O O12 0.000000 0.500000 0.000000
O O13 0.278672 0.805371 0.700045
O O14 0.227330 0.879011 0.000473
O O15 0.250000 0.750000 0.000000
O O16 0.769987 0.626325 0.979455
O O17 0.750000 0.750000 0.000000
#
# Coordination Sequence:
#
# PCOD9288689 Si02
#       8
#     8   4   8   8   8   8   8   8
#     4  11  26  42  68  99 146 175 245 285 357 425
#     4  12  24  48  72 104 132 188 234 312 356 428
#     4  10  23  43  66 102 131 183 229 292 347 434
#     4  11  24  37  60  94 134 187 221 280 336 416
#     4  12  25  44  70 102 132 185 230 293 356 428
#     4  10  22  39  63  93 137 173 229 280 343 411
#     4  11  25  43  67  97 138 186 229 293 351 417
#     4  11  25  44  76  99 142 178 240 292 369 425
#
# _framework density 22.200447
#
# number of rings (size 3 to 8) (size 9 to 14) (size 15 to 20)
#    0.000    1.067    3.333    2.000    7.467    2.667 
#    0.000    0.000    0.000    0.000    0.000    0.000 
#    0.000    0.000    0.000    0.000    0.000    0.000 
#
# Total GULP energy -167394.644093 kJ/mol
# GULP energy per Si atom -5579.821470 kJ/mol
# Density = 2.214992 g / cm^3
# Si number density = 22.200447 Si / 1000 Ang^3
#
#
#
# Elastic Constant Matrix: (Units=GPa)
#
#
# Indices 1 2 3 4 5 6 
#
# 1 74.1131 34.0291 34.0214 0.0000 26.0092 0.0000
# 2 34.0291 94.5056 21.1973 0.0000 17.8055 0.0000
# 3 34.0214 21.1973 96.3290 0.0000 35.0994 0.0000
# 4 0.0000 0.0000 0.0000 29.2088 0.0000 11.6833
# 5 26.0092 17.8055 35.0994 0.0000 51.9930 0.0000
# 6 0.0000 0.0000 0.0000 11.6833 0.0000 29.8044
#
#
#
# Elastic Compliance Matrix: (Units=1/GPa)
#
#
# Indices 1 2 3 4 5 6 
#
# 1 0.019499 -0.005150 -0.003769 0.000000 -0.005446 0.000000
# 2 -0.005150 0.012821 -0.000453 0.000000 -0.001509 0.000000
# 3 -0.003769 -0.000453 0.014679 0.000000 -0.007869 0.000000
# 4 0.000000 0.000000 0.000000 0.040603 0.000000 -0.015916
# 5 -0.005446 -0.001509 -0.007869 0.000000 0.027787 0.000000
# 6 0.000000 0.000000 0.000000 -0.015916 0.000000 0.039791
#
#
# Mechanical properties :
#
#
# Convention : Reuss Voigt Hill
#
# Bulk Modulus (GPa) = 35.38966 49.27149 42.33057
# Shear Modulus (GPa) = 27.27150 33.91456 30.59303
#
# Velocity S-wave (km/s) = 3.50869 3.91276 3.71622
# Velocity P-wave (km/s) = 5.69123 6.53108 6.12556
#
# Compressibility (1/GPa) = 0.02825684
#
# Stress axis : x y z
#
# Youngs Moduli (GPa) = 51.28536 77.99405 68.12410
#
# Poissons Ratio (x) = 0.40163 0.25675
# Poissons Ratio (y) = 0.26410 0.03085
# Poissons Ratio (z) = 0.19329 0.03532
#
# Static dielectric constant tensor:
#      x y z
#    x 1.865750 0.000000 -0.073500 
#    y 0.000000 1.802530 0.000000 
#    z -0.073500 0.000000 1.832540 
# 
# From -- ./inp_files/50286.got.cif
#   From: 2010.05.17/outbox.cif.g08.bks.cpg/sg15_26_cif.got.tgz:50286.got - 2010.06.03 18:47:42.
