data_PCOD9288360
_publ_section_title
;
Structure prediction by ZEFSAII (Michael W. Deem and Ramdas Pophale) SiO2 
 PCOD9288360
Probable space group: C 2/C
;
_chemical_formula_sum "Si O2"
_cell_formula_units_Z 36
_cell_length_a 17.998783
_cell_length_b 10.691528
_cell_length_c 8.351549
_cell_angle_alpha 90.000000
_cell_angle_beta 100.213625
_cell_angle_gamma 90.000000
_cell_volume 1581.658720
_symmetry_space_group_name_H-M "C 2/C"
_symmetry_group_IT_number 15
_symmetry_cell_setting 'monoclinic'
loop_
_space_group_symop_operation_xyz
x,y,z
-x,y,1/2-z
-x,-y,-z
x,-y,1/2+z
1/2+x,1/2+y,z
1/2-x,1/2+y,1/2-z
1/2-x,1/2-y,-z
1/2+x,1/2-y,1/2+z
loop_
_atom_site_type_symbol
_atom_site_label
_atom_site_fract_x
_atom_site_fract_y
_atom_site_fract_z
Si Si1 0.000000 0.300112 0.250000
Si Si2 0.763905 0.622545 0.411018
Si Si3 0.585026 0.984570 0.464146
Si Si4 0.054569 0.762988 0.424519
Si Si5 0.794557 0.127932 0.456612
O O1 0.986354 0.232321 0.415367
O O2 0.071634 0.392020 0.308515
O O3 0.750000 0.750000 0.500000
O O4 0.851978 0.588335 0.410152
O O5 0.740733 0.502128 0.503302
O O6 0.712654 0.630821 0.236034
O O7 0.500000 0.000000 0.500000
O O8 0.598725 0.129258 0.432499
O O9 0.119996 0.864861 0.449169
O O10 0.000000 0.770056 0.250000
O O11 0.750000 0.250000 0.500000
#
# Coordination Sequence:
#
# PCOD9288360 Si02
#       5
#     4   8   8   8   8
#     4  10  22  38  70 112 148 184 256 312 386 440
#     4  12  27  47  76 109 158 203 256 320 393 467
#     4  10  22  38  71 110 144 195 258 317 375 460
#     4  11  24  45  75 110 150 197 258 319 382 465
#     4  12  27  48  75 111 156 199 259 321 394 463
#
# _framework density 22.760916000000002
#
# number of rings (size 3 to 8) (size 9 to 14) (size 15 to 20)
#    0.000    0.889    3.333    2.667   12.444    0.000 
#    4.000    1.111    2.444    0.000    0.000    0.000 
#    0.000    0.000    0.000    0.000    0.000    0.000 
#
# Total GULP energy -100498.557399 kJ/mol
# GULP energy per Si atom -5583.253189 kJ/mol
# Density = 2.270911 g / cm^3
# Si number density = 22.760916 Si / 1000 Ang^3
#
#
#
# Elastic Constant Matrix: (Units=GPa)
#
#
# Indices 1 2 3 4 5 6 
#
# 1 102.0713 43.1249 36.3115 0.0000 11.1725 0.0000
# 2 43.1249 115.7169 31.3229 0.0000 -12.3860 0.0000
# 3 36.3115 31.3229 145.0505 0.0000 -2.3785 0.0000
# 4 0.0000 0.0000 0.0000 33.1757 0.0000 6.9671
# 5 11.1725 -12.3860 -2.3785 0.0000 42.2346 0.0000
# 6 0.0000 0.0000 0.0000 6.9671 0.0000 24.7973
#
#
#
# Elastic Compliance Matrix: (Units=1/GPa)
#
#
# Indices 1 2 3 4 5 6 
#
# 1 0.013228 -0.004834 -0.002350 0.000000 -0.005049 0.000000
# 2 -0.004834 0.011235 -0.001142 0.000000 0.004509 0.000000
# 3 -0.002350 -0.001142 0.007741 0.000000 0.000723 0.000000
# 4 0.000000 0.000000 0.000000 0.032033 0.000000 -0.009000
# 5 -0.005049 0.004509 0.000723 0.000000 0.026376 0.000000
# 6 0.000000 0.000000 0.000000 -0.009000 0.000000 0.042856
#
#
# Mechanical properties :
#
#
# Convention : Reuss Voigt Hill
#
# Bulk Modulus (GPa) = 64.30350 64.92860 64.61605
# Shear Modulus (GPa) = 32.19452 36.84681 34.52066
#
# Velocity S-wave (km/s) = 3.76502 4.02788 3.89866
# Velocity P-wave (km/s) = 6.87121 7.08661 6.97974
#
# Compressibility (1/GPa) = 0.01555125
#
# Stress axis : x y z
#
# Youngs Moduli (GPa) = 75.59523 89.00637 129.18180
#
# Poissons Ratio (x) = 0.43027 0.30363
# Poissons Ratio (y) = 0.36544 0.14753
# Poissons Ratio (z) = 0.17768 0.10165
#
# Static dielectric constant tensor:
#      x y z
#    x 1.984520 0.000000 -0.053980 
#    y 0.000000 1.832790 0.000000 
#    z -0.053980 0.000000 1.874020 
# 
# From -- ./inp_files/53920.got.cif
#   From: 2010.05.17/outbox.cif.g08.bks.cpg/sg15_27_cif.got.tgz:53920.got - 2010.06.03 18:47:42.
