data_PCOD9288982
_publ_section_title
;
Structure prediction by ZEFSAII (Michael W. Deem and Ramdas Pophale) SiO2 
 PCOD9288982
Probable space group: C 2/C
;
_chemical_formula_sum "Si O2"
_cell_formula_units_Z 60
_cell_length_a 23.526549
_cell_length_b 7.658167
_cell_length_c 15.390451
_cell_angle_alpha 90.000000
_cell_angle_beta 67.599006
_cell_angle_gamma 90.000000
_cell_volume 2563.656537
_symmetry_space_group_name_H-M "C 2/C"
_symmetry_group_IT_number 15
_symmetry_cell_setting 'monoclinic'
loop_
_space_group_symop_operation_xyz
x,y,z
-x,y,1/2-z
-x,-y,-z
x,-y,1/2+z
1/2+x,1/2+y,z
1/2-x,1/2+y,1/2-z
1/2-x,1/2-y,-z
1/2+x,1/2-y,1/2+z
loop_
_atom_site_type_symbol
_atom_site_label
_atom_site_fract_x
_atom_site_fract_y
_atom_site_fract_z
Si Si1 0.283310 0.420370 0.520728
Si Si2 0.556237 0.096171 0.921542
Si Si3 0.158541 0.543195 0.605821
Si Si4 0.406856 0.272412 0.438906
Si Si5 0.409468 0.695777 0.253064
Si Si6 0.831350 0.381204 0.705708
Si Si7 0.198517 0.025368 0.287072
Si Si8 0.500000 0.395601 0.250000
O O1 0.250000 0.250000 0.500000
O O2 0.230161 0.564955 0.538670
O O3 0.353612 0.413558 0.446661
O O4 0.293625 0.413423 0.618254
O O5 0.549010 0.173130 0.828884
O O6 0.611896 0.959315 0.879506
O O7 0.573401 0.261242 0.972725
O O8 0.500000 0.000000 0.000000
O O9 0.125267 0.412276 0.560683
O O10 0.116296 0.710169 0.646364
O O11 0.160246 0.444150 0.699119
O O12 0.466239 0.288519 0.344229
O O13 0.347716 0.651323 0.235695
O O14 0.447872 0.522136 0.243015
O O15 0.825056 0.172903 0.704084
O O16 0.767210 0.461377 0.708894
#
# Coordination Sequence:
#
# PCOD9288982 Si02
#       8
#     8   8   8   8   8   8   8   4
#     4   9  19  39  67  97 128 165 216 279 335 385
#     4  11  26  43  69  98 133 181 230 277 329 405
#     4   9  21  41  70  93 131 170 218 278 342 396
#     4  11  24  45  67  95 134 183 225 275 336 395
#     4  11  25  46  65 102 133 178 227 279 332 409
#     4  10  22  39  70 102 129 175 221 277 338 401
#     4  11  20  40  71  97 134 169 226 276 341 403
#     4  12  30  42  66  96 140 188 220 276 336 406
#
# _framework density 23.404070000000001
#
# number of rings (size 3 to 8) (size 9 to 14) (size 15 to 20)
#    0.000    1.600    1.333    3.200    9.333    1.600 
#    2.400    0.667    0.000    0.000    0.000    0.000 
#    0.000    0.000    0.000    0.000    0.000    0.000 
#
# Total GULP energy -167677.182462 kJ/mol
# GULP energy per Si atom -5589.239415 kJ/mol
# Density = 2.335080 g / cm^3
# Si number density = 23.404070 Si / 1000 Ang^3
#
#
#
# Elastic Constant Matrix: (Units=GPa)
#
#
# Indices 1 2 3 4 5 6 
#
# 1 59.1464 -3.9908 16.3046 0.0000 -21.5918 0.0000
# 2 -3.9908 66.8305 23.3085 0.0000 -5.1407 0.0000
# 3 16.3046 23.3085 64.2488 0.0000 -29.8605 0.0000
# 4 0.0000 0.0000 0.0000 18.5116 0.0000 -1.9150
# 5 -21.5918 -5.1407 -29.8605 0.0000 43.7372 0.0000
# 6 0.0000 0.0000 0.0000 -1.9150 0.0000 15.7417
#
#
#
# Elastic Compliance Matrix: (Units=1/GPa)
#
#
# Indices 1 2 3 4 5 6 
#
# 1 0.021045 0.002657 -0.001950 0.000000 0.009370 0.000000
# 2 0.002657 0.017791 -0.008125 0.000000 -0.002144 0.000000
# 3 -0.001950 -0.008125 0.026536 0.000000 0.016199 0.000000
# 4 0.000000 0.000000 0.000000 0.054709 0.000000 0.006655
# 5 0.009370 -0.002144 0.016199 0.000000 0.038297 0.000000
# 6 0.000000 0.000000 0.000000 0.006655 0.000000 0.064335
#
#
# Mechanical properties :
#
#
# Convention : Reuss Voigt Hill
#
# Bulk Modulus (GPa) = 19.78770 29.05226 24.41998
# Shear Modulus (GPa) = 19.65467 25.90501 22.77984
#
# Velocity S-wave (km/s) = 2.90107 3.33056 3.12321
# Velocity P-wave (km/s) = 4.43788 5.21828 4.84382
#
# Compressibility (1/GPa) = 0.05053644
#
# Stress axis : x y z
#
# Youngs Moduli (GPa) = 47.51798 56.20883 37.68506
#
# Poissons Ratio (x) = -0.14937 0.07347
# Poissons Ratio (y) = -0.12628 0.30620
# Poissons Ratio (z) = 0.09264 0.45671
#
# Static dielectric constant tensor:
#      x y z
#    x 1.901780 0.000000 -0.012380 
#    y 0.000000 1.916690 0.000000 
#    z -0.012380 0.000000 1.899840 
# 
# From -- ./inp_files/172371.got.cif
#   From: 2010.05.17/outbox.cif.g08.bks.cpg/sg15_87_cif.got.tgz:172371.got - 2010.06.03 18:47:42.
