data_PCOD9288271
_publ_section_title
;
Structure prediction by ZEFSAII (Michael W. Deem and Ramdas Pophale) SiO2 
 PCOD9288271
Probable space group: C 2/C
;
_chemical_formula_sum "Si O2"
_cell_formula_units_Z 48
_cell_length_a 10.519020
_cell_length_b 11.621352
_cell_length_c 19.196806
_cell_angle_alpha 90.000000
_cell_angle_beta 94.626494
_cell_angle_gamma 90.000000
_cell_volume 2339.071703
_symmetry_space_group_name_H-M "C 2/C"
_symmetry_group_IT_number 15
_symmetry_cell_setting 'monoclinic'
loop_
_space_group_symop_operation_xyz
x,y,z
-x,y,1/2-z
-x,-y,-z
x,-y,1/2+z
1/2+x,1/2+y,z
1/2-x,1/2+y,1/2-z
1/2-x,1/2-y,-z
1/2+x,1/2-y,1/2+z
loop_
_atom_site_type_symbol
_atom_site_label
_atom_site_fract_x
_atom_site_fract_y
_atom_site_fract_z
Si Si1 0.243840 0.173126 0.401269
Si Si2 0.362169 0.719997 0.454720
Si Si3 0.740726 0.529836 0.135833
Si Si4 0.123078 0.533899 0.217020
Si Si5 0.462164 0.127963 0.620189
Si Si6 0.600664 0.376323 0.028672
O O1 0.309982 0.103404 0.342223
O O2 0.349206 0.251476 0.443982
O O3 0.180279 0.099606 0.461039
O O4 0.133417 0.263563 0.370125
O O5 0.250000 0.750000 0.500000
O O6 0.300027 0.658237 0.384954
O O7 0.448287 0.827554 0.437024
O O8 0.455963 0.632945 0.498954
O O9 0.774310 0.512524 0.217701
O O10 0.630461 0.453503 0.096687
O O11 0.867889 0.479979 0.103052
O O12 0.058876 0.418407 0.183041
O O13 0.000000 0.593431 0.250000
#
# Coordination Sequence:
#
# PCOD9288271 Si02
#       6
#     8   8   8   8   8   8
#     4   9  19  40  69  92 125 172 210 257 327 372
#     4  11  24  37  64  96 124 165 217 262 316 374
#     4  10  22  40  62  93 127 162 209 260 321 375
#     4  10  22  38  66  96 127 170 208 259 324 387
#     4   9  22  43  64  91 128 168 208 262 318 376
#     4   9  20  40  63  92 125 166 210 269 312 373
#
# _framework density 20.520962000000001
#
# number of rings (size 3 to 8) (size 9 to 14) (size 15 to 20)
#    0.000    2.333    0.000    1.500    7.000    6.000 
#    0.000    2.500    0.000    0.000    0.000    0.000 
#    0.000    0.000    0.000    0.000    0.000    0.000 
#
# Total GULP energy -133699.760472 kJ/mol
# GULP energy per Si atom -5570.823353 kJ/mol
# Density = 2.047426 g / cm^3
# Si number density = 20.520962 Si / 1000 Ang^3
#
#
#
# Elastic Constant Matrix: (Units=GPa)
#
#
# Indices 1 2 3 4 5 6 
#
# 1 95.4038 31.0213 69.9660 0.0000 -2.8080 0.0000
# 2 31.0213 30.3215 36.2575 0.0000 -2.5669 0.0000
# 3 69.9660 36.2575 139.5271 0.0000 13.9446 0.0000
# 4 0.0000 0.0000 0.0000 30.4167 0.0000 -0.8731
# 5 -2.8080 -2.5669 13.9446 0.0000 48.2266 0.0000
# 6 0.0000 0.0000 0.0000 -0.8731 0.0000 13.5212
#
#
#
# Elastic Compliance Matrix: (Units=1/GPa)
#
#
# Indices 1 2 3 4 5 6 
#
# 1 0.019368 -0.011134 -0.007077 0.000000 0.002581 0.000000
# 2 -0.011134 0.056198 -0.009530 0.000000 0.005098 0.000000
# 3 -0.007077 -0.009530 0.013679 0.000000 -0.004875 0.000000
# 4 0.000000 0.000000 0.000000 0.032938 0.000000 0.002127
# 5 0.002581 0.005098 -0.004875 0.000000 0.022567 0.000000
# 6 0.000000 0.000000 0.000000 0.002127 0.000000 0.074095
#
#
# Mechanical properties :
#
#
# Convention : Reuss Voigt Hill
#
# Bulk Modulus (GPa) = 29.61759 59.97134 44.79447
# Shear Modulus (GPa) = 17.50812 26.96674 22.23743
#
# Velocity S-wave (km/s) = 2.92410 3.62899 3.29545
# Velocity P-wave (km/s) = 5.08573 6.84451 6.02959
#
# Compressibility (1/GPa) = 0.03376372
#
# Stress axis : x y z
#
# Youngs Moduli (GPa) = 51.63163 17.79410 73.10309
#
# Poissons Ratio (x) = 0.19813 0.51733
# Poissons Ratio (y) = 0.57488 0.69667
# Poissons Ratio (z) = 0.36538 0.16958
#
# Static dielectric constant tensor:
#      x y z
#    x 1.745160 0.000000 0.018890 
#    y 0.000000 1.812810 0.000000 
#    z 0.018890 0.000000 1.734350 
# 
# From -- ./inp_files/196189.got.cif
#   From: 2010.05.17/outbox.cif.g08.bks.cpg/sg15_99_cif.got.tgz:196189.got - 2010.06.03 18:47:42.
