data_PCOD9288374
_publ_section_title
;
Structure prediction by ZEFSAII (Michael W. Deem and Ramdas Pophale) SiO2 
 PCOD9288374
Probable space group: C 2/C
;
_chemical_formula_sum "Si O2"
_cell_formula_units_Z 44
_cell_length_a 14.837186
_cell_length_b 9.583497
_cell_length_c 13.262882
_cell_angle_alpha 90.000000
_cell_angle_beta 87.577860
_cell_angle_gamma 90.000000
_cell_volume 1884.192517
_symmetry_space_group_name_H-M "C 2/C"
_symmetry_group_IT_number 15
_symmetry_cell_setting 'monoclinic'
loop_
_space_group_symop_operation_xyz
x,y,z
-x,y,1/2-z
-x,-y,-z
x,-y,1/2+z
1/2+x,1/2+y,z
1/2-x,1/2+y,1/2-z
1/2-x,1/2-y,-z
1/2+x,1/2-y,1/2+z
loop_
_atom_site_type_symbol
_atom_site_label
_atom_site_fract_x
_atom_site_fract_y
_atom_site_fract_z
Si Si1 0.000000 0.778860 0.250000
Si Si2 0.741442 0.406131 0.629819
Si Si3 0.962945 0.649067 0.461978
Si Si4 0.804679 0.133843 0.735741
Si Si5 0.054752 0.763264 0.644591
Si Si6 0.686312 0.974197 0.082173
O O1 0.995126 0.690696 0.147063
O O2 0.090704 0.867384 0.244486
O O3 0.777996 0.290174 0.705652
O O4 0.749871 0.561829 0.671756
O O5 0.723111 0.537043 0.857942
O O6 0.794742 0.395900 0.523458
O O7 0.857940 0.621650 0.441734
O O8 0.000000 0.500000 0.500000
O O9 0.989650 0.752936 0.550428
O O10 0.864265 0.871709 0.877710
O O11 0.111519 0.616578 0.646419
O O12 0.000000 0.783882 0.750000
#
# Coordination Sequence:
#
# PCOD9288374 Si02
#       6
#     4   8   8   8   8   8
#     4  12  24  44  66 106 144 184 234 296 356 410
#     4  11  24  45  69  99 141 186 230 287 357 414
#     4  10  22  38  72 102 137 182 239 283 341 415
#     4  11  24  44  71  99 140 188 230 289 350 418
#     4  10  22  39  68 102 139 177 232 288 353 402
#     4  10  22  41  71  97 136 187 236 289 337 415
#
# _framework density 23.352180000000001
#
# number of rings (size 3 to 8) (size 9 to 14) (size 15 to 20)
#    0.000    1.455    0.000    6.545   11.455    0.000 
#    3.273    3.636    0.000    0.000    0.000    0.000 
#    0.000    0.000    0.000    0.000    0.000    0.000 
#
# Total GULP energy -122899.271502 kJ/mol
# GULP energy per Si atom -5586.330523 kJ/mol
# Density = 2.329903 g / cm^3
# Si number density = 23.352180 Si / 1000 Ang^3
#
#
#
# Elastic Constant Matrix: (Units=GPa)
#
#
# Indices 1 2 3 4 5 6 
#
# 1 84.0390 26.3843 28.5679 0.0000 4.2296 0.0000
# 2 26.3843 41.6805 23.3359 0.0000 -3.0879 0.0000
# 3 28.5679 23.3359 119.9301 0.0000 -6.4365 0.0000
# 4 0.0000 0.0000 0.0000 0.7838 0.0000 -8.8589
# 5 4.2296 -3.0879 -6.4365 0.0000 44.6778 0.0000
# 6 0.0000 0.0000 0.0000 -8.8589 0.0000 30.8676
#
#
#
# Elastic Compliance Matrix: (Units=1/GPa)
#
#
# Indices 1 2 3 4 5 6 
#
# 1 0.015501 -0.008809 -0.002106 0.000000 -0.002380 0.000000
# 2 -0.008809 0.031987 -0.003993 0.000000 0.002470 0.000000
# 3 -0.002106 -0.003993 0.009688 0.000000 0.001319 0.000000
# 4 0.000000 0.000000 0.000000 -0.568596 0.000000 -0.163186
# 5 -0.002380 0.002470 0.001319 0.000000 0.022968 0.000000
# 6 0.000000 0.000000 0.000000 -0.163186 0.000000 -0.014438
#
#
# Mechanical properties :
#
#
# Convention : Reuss Voigt Hill
#
# Bulk Modulus (GPa) = 36.55154 44.69175 40.62165
# Shear Modulus (GPa) = -10.77694 26.42327 7.82317
#
# Velocity S-wave (km/s) = -2.15058 3.36744 1.83231
# Velocity P-wave (km/s) = 3.08539 5.85656 4.68075
#
# Compressibility (1/GPa) = 0.02735863
#
# Stress axis : x y z
#
# Youngs Moduli (GPa) = 64.51362 31.26263 103.22490
#
# Poissons Ratio (x) = 0.27540 0.21738
# Poissons Ratio (y) = 0.56832 0.41218
# Poissons Ratio (z) = 0.13586 0.12483
#
# Static dielectric constant tensor:
#      x y z
#    x 1.920600 0.000000 0.056340 
#    y 0.000000 1.911300 0.000000 
#    z 0.056340 0.000000 1.922610 
# 
# From -- ./inp_files/110121.got.cif
#   From: 2010.05.17/outbox.cif.g08.bks.cpg/sg15_56_cif.got.tgz:110121.got - 2010.06.03 18:47:42.
