data_PCOD9288320
_publ_section_title
;
Structure prediction by ZEFSAII (Michael W. Deem and Ramdas Pophale) SiO2 
 PCOD9288320
Probable space group: C 2/C
;
_chemical_formula_sum "Si O2"
_cell_formula_units_Z 44
_cell_length_a 9.239525
_cell_length_b 17.008413
_cell_length_c 14.932163
_cell_angle_alpha 90.000000
_cell_angle_beta 110.103423
_cell_angle_gamma 90.000000
_cell_volume 2203.615642
_symmetry_space_group_name_H-M "C 2/C"
_symmetry_group_IT_number 15
_symmetry_cell_setting 'monoclinic'
loop_
_space_group_symop_operation_xyz
x,y,z
-x,y,1/2-z
-x,-y,-z
x,-y,1/2+z
1/2+x,1/2+y,z
1/2-x,1/2+y,1/2-z
1/2-x,1/2-y,-z
1/2+x,1/2-y,1/2+z
loop_
_atom_site_type_symbol
_atom_site_label
_atom_site_fract_x
_atom_site_fract_y
_atom_site_fract_z
Si Si1 0.823352 0.222510 0.292461
Si Si2 0.284146 0.800119 0.919223
Si Si3 0.363576 0.187313 0.974913
Si Si4 0.029120 0.084820 0.399852
Si Si5 0.000000 0.220277 0.750000
Si Si6 0.429777 0.405632 0.085046
O O1 0.804798 0.239778 0.183594
O O2 0.891665 0.284528 0.378073
O O3 0.907600 0.139988 0.323045
O O4 0.646569 0.224221 0.285401
O O5 0.198210 0.882574 0.914958
O O6 0.250000 0.750000 0.000000
O O7 0.467098 0.812411 0.945817
O O8 0.255150 0.110261 0.953073
O O9 0.250000 0.250000 0.000000
O O10 0.990693 0.100566 0.496422
O O11 0.023686 0.993211 0.376477
O O12 0.999632 0.160562 0.665354
#
# Coordination Sequence:
#
# PCOD9288320 Si02
#       6
#     8   8   8   8   4   8
#     4  11  22  37  65  94 123 170 217 258 315 384
#     4  12  23  37  64  96 129 162 217 269 315 374
#     4  11  21  41  64  92 126 166 217 261 316 387
#     4  11  23  40  64  92 131 168 211 267 327 380
#     4  10  22  38  68  92 124 168 222 258 312 390
#     4  10  23  42  62  91 130 171 207 264 332 380
#
# _framework density 19.967184
#
# number of rings (size 3 to 8) (size 9 to 14) (size 15 to 20)
#    0.000    1.091    3.636    3.818    2.545    0.727 
#    0.000    0.000    0.000    0.000    0.000    0.000 
#    0.000    0.000    0.000    0.000    0.000    0.000 
#
# Total GULP energy -122732.178274 kJ/mol
# GULP energy per Si atom -5578.735376 kJ/mol
# Density = 1.992174 g / cm^3
# Si number density = 19.967184 Si / 1000 Ang^3
#
#
#
# Elastic Constant Matrix: (Units=GPa)
#
#
# Indices 1 2 3 4 5 6 
#
# 1 128.0018 60.9187 36.9545 0.0000 16.3987 0.0000
# 2 60.9187 86.3924 27.4727 0.0000 8.2975 0.0000
# 3 36.9545 27.4727 129.5076 0.0000 -4.3619 0.0000
# 4 0.0000 0.0000 0.0000 19.9699 0.0000 2.1508
# 5 16.3987 8.2975 -4.3619 0.0000 37.9845 0.0000
# 6 0.0000 0.0000 0.0000 2.1508 0.0000 32.1220
#
#
#
# Elastic Compliance Matrix: (Units=1/GPa)
#
#
# Indices 1 2 3 4 5 6 
#
# 1 0.012683 -0.007899 -0.002078 0.000000 -0.003988 0.000000
# 2 -0.007899 0.017689 -0.001519 0.000000 -0.000628 0.000000
# 3 -0.002078 -0.001519 0.008712 0.000000 0.002229 0.000000
# 4 0.000000 0.000000 0.000000 0.050439 0.000000 -0.003377
# 5 -0.003988 -0.000628 0.002229 0.000000 0.028442 0.000000
# 6 0.000000 0.000000 0.000000 -0.003377 0.000000 0.031357
#
#
# Mechanical properties :
#
#
# Convention : Reuss Voigt Hill
#
# Bulk Modulus (GPa) = 62.14864 66.06597 64.10731
# Shear Modulus (GPa) = 28.14090 32.58567 30.36328
#
# Velocity S-wave (km/s) = 3.75821 4.04414 3.90379
# Velocity P-wave (km/s) = 7.07285 7.41389 7.24538
#
# Compressibility (1/GPa) = 0.01609046
#
# Stress axis : x y z
#
# Youngs Moduli (GPa) = 78.84835 56.53326 114.78688
#
# Poissons Ratio (x) = 0.44657 0.23848
# Poissons Ratio (y) = 0.62284 0.17442
# Poissons Ratio (z) = 0.16381 0.08590
#
# Static dielectric constant tensor:
#      x y z
#    x 1.745090 0.000000 -0.023170 
#    y 0.000000 1.693950 0.000000 
#    z -0.023170 0.000000 1.818830 
# 
# From -- ./inp_files/134565.got.cif
#   From: 2010.05.17/outbox.cif.g08.bks.cpg/sg15_68_cif.got.tgz:134565.got - 2010.06.03 18:47:42.
