data_PCOD9288870
_publ_section_title
;
Structure prediction by ZEFSAII (Michael W. Deem and Ramdas Pophale) SiO2 
 PCOD9288870
Probable space group: C 2/C
;
_chemical_formula_sum "Si O2"
_cell_formula_units_Z 48
_cell_length_a 12.234999
_cell_length_b 16.248552
_cell_length_c 14.853481
_cell_angle_alpha 90.000000
_cell_angle_beta 41.303637
_cell_angle_gamma 90.000000
_cell_volume 1949.051250
_symmetry_space_group_name_H-M "C 2/C"
_symmetry_group_IT_number 15
_symmetry_cell_setting 'monoclinic'
loop_
_space_group_symop_operation_xyz
x,y,z
-x,y,1/2-z
-x,-y,-z
x,-y,1/2+z
1/2+x,1/2+y,z
1/2-x,1/2+y,1/2-z
1/2-x,1/2-y,-z
1/2+x,1/2-y,1/2+z
loop_
_atom_site_type_symbol
_atom_site_label
_atom_site_fract_x
_atom_site_fract_y
_atom_site_fract_z
Si Si1 0.464132 0.068068 0.669316
Si Si2 0.275239 0.524138 0.953779
Si Si3 0.027509 0.217746 0.976823
Si Si4 0.603315 0.186369 0.098656
Si Si5 0.889922 0.054104 0.686300
Si Si6 0.886546 0.757847 0.743190
O O1 0.500000 0.046574 0.750000
O O2 0.285807 0.030489 0.751040
O O3 0.447490 0.166331 0.677978
O O4 0.634462 0.041813 0.515809
O O5 0.335519 0.564698 0.823295
O O6 0.440267 0.499992 0.908615
O O7 0.175800 0.596192 0.064350
O O8 0.050469 0.138293 0.898245
O O9 0.210565 0.239797 0.896944
O O10 0.986607 0.296388 0.939836
O O11 0.902153 0.199278 0.136092
O O12 0.500000 0.207862 0.250000
O O13 0.750000 0.250000 0.000000
O O14 0.000000 0.796620 0.750000
#
# Coordination Sequence:
#
# PCOD9288870 Si02
#       6
#     8   8   8   8   8   8
#     4  10  22  42  65  92 131 181 227 275 335 402
#     4  11  22  40  66  96 138 179 221 279 339 413
#     4  11  21  38  63  97 128 170 211 279 337 394
#     4  12  22  35  59  96 134 168 217 270 342 407
#     4  10  22  39  66  96 132 173 220 280 342 396
#     4  10  22  41  68  91 130 173 224 274 330 396
#
# _framework density 24.627365999999999
#
# number of rings (size 3 to 8) (size 9 to 14) (size 15 to 20)
#    0.000    1.333    1.667    5.500    0.000    0.667 
#    0.000    0.000   29.333    0.000    0.000    0.000 
#    0.000    0.000    0.000    0.000    0.000    0.000 
#
# Total GULP energy -134002.534005 kJ/mol
# GULP energy per Si atom -5583.438917 kJ/mol
# Density = 2.457131 g / cm^3
# Si number density = 24.627366 Si / 1000 Ang^3
#
#
#
# Elastic Constant Matrix: (Units=GPa)
#
#
# Indices 1 2 3 4 5 6 
#
# 1 138.8900 1.6889 17.7586 -0.0009 -22.8976 0.0000
# 2 1.6889 45.5432 10.7363 -0.0017 -11.9677 -0.0001
# 3 17.7586 10.7363 105.8127 -0.0018 2.2985 -0.0002
# 4 -0.0009 -0.0017 -0.0018 -161.3190 0.0015 -28.8017
# 5 -22.8976 -11.9677 2.2985 0.0015 53.0324 0.0001
# 6 0.0000 -0.0001 -0.0002 -28.8017 0.0001 7.2064
#
#
#
# Elastic Compliance Matrix: (Units=1/GPa)
#
#
# Indices 1 2 3 4 5 6 
#
# 1 0.008003 0.001052 -0.001532 0.000000 0.003759 0.000000
# 2 0.001052 0.024151 -0.002758 0.000000 0.006024 0.000000
# 3 -0.001532 -0.002758 0.010025 0.000000 -0.001718 0.000000
# 4 0.000000 0.000000 0.000000 -0.003618 0.000000 -0.014458
# 5 0.003759 0.006024 -0.001718 0.000000 0.021913 0.000000
# 6 0.000000 0.000000 0.000000 -0.014458 0.000000 0.080981
#
#
# Mechanical properties :
#
#
# Convention : Reuss Voigt Hill
#
# Bulk Modulus (GPa) = 28.00801 38.95708 33.48254
# Shear Modulus (GPa) = 31.28294 -2.87857 14.20219
#
# Velocity S-wave (km/s) = 3.56793 -1.08231 2.40403
# Velocity P-wave (km/s) = 5.32643 3.78036 4.61855
#
# Compressibility (1/GPa) = 0.03570407
#
# Stress axis : x y z
#
# Youngs Moduli (GPa) = 124.95794 41.40566 99.75211
#
# Poissons Ratio (x) = -0.04356 0.15277
# Poissons Ratio (y) = -0.13146 0.27511
# Poissons Ratio (z) = 0.19137 0.11419
#
# Static dielectric constant tensor:
#      x y z
#    x 2.097360 0.000000 -0.065790 
#    y 0.000000 2.041790 0.000000 
#    z -0.065790 0.000000 1.995330 
# 
# From -- ./inp_files/147374.got.cif
#   From: 2010.05.17/outbox.cif.g08.bks.cpg/sg15_74_cif.got.tgz:147374.got - 2010.06.03 18:47:42.
