data_PCOD9288421
_publ_section_title
;
Structure prediction by ZEFSAII (Michael W. Deem and Ramdas Pophale) SiO2 
 PCOD9288421
Probable space group: C 2/C
;
_chemical_formula_sum "Si O2"
_cell_formula_units_Z 48
_cell_length_a 28.122203
_cell_length_b 9.133483
_cell_length_c 10.124917
_cell_angle_alpha 90.000000
_cell_angle_beta 86.707041
_cell_angle_gamma 90.000000
_cell_volume 2596.328088
_symmetry_space_group_name_H-M "C 2/C"
_symmetry_group_IT_number 15
_symmetry_cell_setting 'monoclinic'
loop_
_space_group_symop_operation_xyz
x,y,z
-x,y,1/2-z
-x,-y,-z
x,-y,1/2+z
1/2+x,1/2+y,z
1/2-x,1/2+y,1/2-z
1/2-x,1/2-y,-z
1/2+x,1/2-y,1/2+z
loop_
_atom_site_type_symbol
_atom_site_label
_atom_site_fract_x
_atom_site_fract_y
_atom_site_fract_z
Si Si1 0.708833 0.619447 0.384846
Si Si2 0.898557 0.251995 0.793932
Si Si3 0.379860 0.169278 0.994891
Si Si4 0.812758 0.405026 0.966686
Si Si5 0.032629 0.485465 0.622326
Si Si6 0.347452 0.533140 0.366839
O O1 0.764538 0.584714 0.390091
O O2 0.699564 0.792634 0.412039
O O3 0.685745 0.563997 0.253925
O O4 0.682895 0.539782 0.511089
O O5 0.896860 0.291560 0.639767
O O6 0.853458 0.329490 0.871524
O O7 0.945293 0.324700 0.851236
O O8 0.889029 0.080533 0.819221
O O9 0.421800 0.087278 0.909973
O O10 0.366721 0.315040 0.919252
O O11 0.334889 0.058510 0.009052
O O12 0.000000 0.529849 0.750000
O O13 0.000000 0.500000 0.500000
#
# Coordination Sequence:
#
# PCOD9288421 Si02
#       6
#     8   8   8   8   8   8
#     4  10  22  39  58  90 132 167 216 255 300 361
#     4  10  22  42  61  91 130 156 207 261 309 369
#     4  11  23  39  66  92 123 164 209 252 319 368
#     4   9  23  37  60  90 126 170 215 261 296 356
#     4  11  23  43  70  95 119 153 202 257 312 384
#     4  11  23  40  61  90 129 172 201 254 316 361
#
# _framework density 18.487649000000001
#
# number of rings (size 3 to 8) (size 9 to 14) (size 15 to 20)
#    0.000    1.667    3.333    0.000    7.000    4.667 
#    0.000    1.667    0.000    0.000    0.000    0.000 
#    0.000    0.000    0.000    0.000    0.000    0.000 
#
# Total GULP energy -133995.604077 kJ/mol
# GULP energy per Si atom -5583.150170 kJ/mol
# Density = 1.844557 g / cm^3
# Si number density = 18.487649 Si / 1000 Ang^3
#
#
#
# Elastic Constant Matrix: (Units=GPa)
#
#
# Indices 1 2 3 4 5 6 
#
# 1 104.1367 54.6780 40.9328 0.0000 14.0730 0.0000
# 2 54.6780 139.0882 38.3914 0.0000 24.2093 0.0000
# 3 40.9328 38.3914 107.5591 0.0000 28.3348 0.0000
# 4 0.0000 0.0000 0.0000 19.5735 0.0000 4.1189
# 5 14.0730 24.2093 28.3348 0.0000 32.7785 0.0000
# 6 0.0000 0.0000 0.0000 4.1189 0.0000 16.4576
#
#
#
# Elastic Compliance Matrix: (Units=1/GPa)
#
#
# Indices 1 2 3 4 5 6 
#
# 1 0.013211 -0.004298 -0.003672 0.000000 0.000676 0.000000
# 2 -0.004298 0.009906 -0.000594 0.000000 -0.004957 0.000000
# 3 -0.003672 -0.000594 0.013435 0.000000 -0.009598 0.000000
# 4 0.000000 0.000000 0.000000 0.053930 0.000000 -0.013497
# 5 0.000676 -0.004957 -0.009598 0.000000 0.042176 0.000000
# 6 0.000000 0.000000 0.000000 -0.013497 0.000000 0.064140
#
#
# Mechanical properties :
#
#
# Convention : Reuss Voigt Hill
#
# Bulk Modulus (GPa) = 51.48027 68.75427 60.11727
# Shear Modulus (GPa) = 22.68586 28.21404 25.44995
#
# Velocity S-wave (km/s) = 3.50677 3.91077 3.71427
# Velocity P-wave (km/s) = 6.65604 7.59357 7.14021
#
# Compressibility (1/GPa) = 0.01942492
#
# Stress axis : x y z
#
# Youngs Moduli (GPa) = 75.69318 100.94752 74.43118
#
# Poissons Ratio (x) = 0.43385 0.27330
# Poissons Ratio (y) = 0.32531 0.04423
# Poissons Ratio (z) = 0.27793 0.05999
#
# Static dielectric constant tensor:
#      x y z
#    x 1.626970 0.000000 -0.006670 
#    y 0.000000 1.654460 0.000000 
#    z -0.006670 0.000000 1.609720 
# 
# From -- ./inp_files/68604.got.cif
#   From: 2010.05.17/outbox.cif.g08.bks.cpg/sg15_35_cif.got.tgz:68604.got - 2010.06.03 18:47:42.
