data_PCOD9288980
_publ_section_title
;
Structure prediction by ZEFSAII (Michael W. Deem and Ramdas Pophale) SiO2 
 PCOD9288980
Probable space group: C 2/C
;
_chemical_formula_sum "Si O2"
_cell_formula_units_Z 48
_cell_length_a 21.931988
_cell_length_b 8.834062
_cell_length_c 10.085117
_cell_angle_alpha 90.000000
_cell_angle_beta 81.353024
_cell_angle_gamma 90.000000
_cell_volume 1931.766732
_symmetry_space_group_name_H-M "C 2/C"
_symmetry_group_IT_number 15
_symmetry_cell_setting 'monoclinic'
loop_
_space_group_symop_operation_xyz
x,y,z
-x,y,1/2-z
-x,-y,-z
x,-y,1/2+z
1/2+x,1/2+y,z
1/2-x,1/2+y,1/2-z
1/2-x,1/2-y,-z
1/2+x,1/2-y,1/2+z
loop_
_atom_site_type_symbol
_atom_site_label
_atom_site_fract_x
_atom_site_fract_y
_atom_site_fract_z
Si Si1 0.128998 0.195812 0.613342
Si Si2 0.319493 0.104437 0.646246
Si Si3 0.280330 0.220130 0.172972
Si Si4 0.439934 0.859934 0.216249
Si Si5 0.379108 0.344138 0.964140
Si Si6 0.002282 0.824664 0.046479
O O1 0.158685 0.306279 0.491133
O O2 0.173068 0.228612 0.722953
O O3 0.053545 0.209471 0.642680
O O4 0.130764 0.021009 0.563257
O O5 0.284579 0.217494 0.755507
O O6 0.382732 0.042172 0.689830
O O7 0.277318 0.958555 0.648686
O O8 0.313345 0.285885 0.033131
O O9 0.500000 0.944582 0.250000
O O10 0.410781 0.740223 0.329083
O O11 0.466859 0.767405 0.084431
O O12 0.428904 0.299044 0.063618
O O13 0.000000 0.000000 0.000000
#
# Coordination Sequence:
#
# PCOD9288980 Si02
#       6
#     8   8   8   8   8   8
#     4  10  23  43  67  96 136 171 226 279 324 400
#     4  11  26  46  65  95 137 176 228 273 336 397
#     4  12  27  43  67  97 132 182 223 272 342 400
#     4   9  20  42  68  95 133 173 217 281 327 392
#     4  10  22  39  70 101 131 174 224 270 341 386
#     4   8  17  37  66  99 131 167 219 273 324 386
#
# _framework density 24.847721
#
# number of rings (size 3 to 8) (size 9 to 14) (size 15 to 20)
#    0.000    2.000    0.000    1.500   11.667    1.333 
#    3.000    2.500    0.000    0.000    0.000    0.000 
#    0.000    0.000    0.000    0.000    0.000    0.000 
#
# Total GULP energy -133938.483810 kJ/mol
# GULP energy per Si atom -5580.770159 kJ/mol
# Density = 2.479117 g / cm^3
# Si number density = 24.847721 Si / 1000 Ang^3
#
#
#
# Elastic Constant Matrix: (Units=GPa)
#
#
# Indices 1 2 3 4 5 6 
#
# 1 157.3588 9.8190 36.5460 0.0000 -8.3684 0.0000
# 2 9.8190 107.0321 13.4707 0.0000 -17.6002 0.0000
# 3 36.5460 13.4707 54.0958 0.0000 3.9824 0.0000
# 4 0.0000 0.0000 0.0000 1.0390 0.0000 -1.6672
# 5 -8.3684 -17.6002 3.9824 0.0000 44.4904 0.0000
# 6 0.0000 0.0000 0.0000 -1.6672 0.0000 17.7343
#
#
#
# Elastic Compliance Matrix: (Units=1/GPa)
#
#
# Indices 1 2 3 4 5 6 
#
# 1 0.007708 0.000316 -0.005438 0.000000 0.002062 0.000000
# 2 0.000316 0.010445 -0.003144 0.000000 0.004473 0.000000
# 3 -0.005438 -0.003144 0.023262 0.000000 -0.004349 0.000000
# 4 0.000000 0.000000 0.000000 1.133482 0.000000 0.106556
# 5 0.002062 0.004473 -0.004349 0.000000 0.025023 0.000000
# 6 0.000000 0.000000 0.000000 0.106556 0.000000 0.066405
#
#
# Mechanical properties :
#
#
# Convention : Reuss Voigt Hill
#
# Bulk Modulus (GPa) = 40.18566 48.68422 44.43494
# Shear Modulus (GPa) = 3.87251 29.89613 16.88432
#
# Velocity S-wave (km/s) = 1.24975 3.47244 2.60957
# Velocity P-wave (km/s) = 4.27673 5.97601 5.19630
#
# Compressibility (1/GPa) = 0.02488450
#
# Stress axis : x y z
#
# Youngs Moduli (GPa) = 129.74055 95.73778 42.98785
#
# Poissons Ratio (x) = -0.03028 0.23375
# Poissons Ratio (y) = -0.04103 0.13515
# Poissons Ratio (z) = 0.70549 0.30100
#
# Static dielectric constant tensor:
#      x y z
#    x 2.060080 0.000000 0.144170 
#    y 0.000000 1.823160 0.000000 
#    z 0.144170 0.000000 2.021630 
# 
# From -- ./inp_files/116298.got.cif
#   From: 2010.05.17/outbox.cif.g08.bks.cpg/sg15_59_cif.got.tgz:116298.got - 2010.06.03 18:47:42.
