data_PCOD9288106
_publ_section_title
;
Structure prediction by ZEFSAII (Michael W. Deem and Ramdas Pophale) SiO2 
 PCOD9288106
Probable space group: C 2/C
;
_chemical_formula_sum "Si O2"
_cell_formula_units_Z 48
_cell_length_a 28.858606
_cell_length_b 7.312609
_cell_length_c 14.481450
_cell_angle_alpha 90.000000
_cell_angle_beta 143.549356
_cell_angle_gamma 90.000000
_cell_volume 1815.688358
_symmetry_space_group_name_H-M "C 2/C"
_symmetry_group_IT_number 15
_symmetry_cell_setting 'monoclinic'
loop_
_space_group_symop_operation_xyz
x,y,z
-x,y,1/2-z
-x,-y,-z
x,-y,1/2+z
1/2+x,1/2+y,z
1/2-x,1/2+y,1/2-z
1/2-x,1/2-y,-z
1/2+x,1/2-y,1/2+z
loop_
_atom_site_type_symbol
_atom_site_label
_atom_site_fract_x
_atom_site_fract_y
_atom_site_fract_z
Si Si1 0.390731 0.934923 0.905094
Si Si2 0.227229 0.938425 0.842572
Si Si3 0.506067 0.231008 0.087760
Si Si4 0.777983 0.025228 0.875591
Si Si5 0.594804 0.555417 0.282078
Si Si6 0.397246 0.042179 0.634955
O O1 0.445080 0.815982 0.926185
O O2 0.300843 0.911440 0.733721
O O3 0.399135 0.914150 0.028643
O O4 0.420822 0.144920 0.939023
O O5 0.209541 0.017574 0.713626
O O6 0.253405 0.726871 0.870632
O O7 0.156266 0.959896 0.797468
O O8 0.308293 0.019274 0.011814
O O9 0.518637 0.438971 0.136482
O O10 0.546815 0.109902 0.233248
O O11 0.856677 0.973247 0.053801
O O12 0.581717 0.766915 0.282907
#
# Coordination Sequence:
#
# PCOD9288106 Si02
#       6
#     8   8   8   8   8   8
#     4  10  23  43  67  95 142 180 219 289 349 407
#     4  10  22  38  63  99 133 170 227 293 346 400
#     4  11  24  43  69  98 133 186 229 272 350 417
#     4  10  22  40  65  97 134 172 228 286 347 404
#     4  11  24  40  70 103 129 179 236 287 341 414
#     4  10  22  44  63  95 142 175 221 287 347 405
#
# _framework density 26.436253000000001
#
# number of rings (size 3 to 8) (size 9 to 14) (size 15 to 20)
#    0.000    1.667    0.000    4.500   11.667    1.333 
#    0.000   10.833    0.000    0.000    0.000    0.000 
#    0.000    0.000    0.000    0.000    0.000    0.000 
#
# Total GULP energy -134625.789909 kJ/mol
# GULP energy per Si atom -5609.407913 kJ/mol
# Density = 2.637608 g / cm^3
# Si number density = 26.436253 Si / 1000 Ang^3
#
#
#
# Elastic Constant Matrix: (Units=GPa)
#
#
# Indices 1 2 3 4 5 6 
#
# 1 92.2119 8.7695 12.2447 0.0000 -14.1378 0.0000
# 2 8.7695 83.3200 33.3909 0.0000 -1.0382 0.0000
# 3 12.2447 33.3909 113.5054 0.0000 -16.3504 0.0000
# 4 0.0000 0.0000 0.0000 43.7166 0.0000 -5.8653
# 5 -14.1378 -1.0382 -16.3504 0.0000 36.6642 0.0000
# 6 0.0000 0.0000 0.0000 -5.8653 0.0000 18.8383
#
#
#
# Elastic Compliance Matrix: (Units=1/GPa)
#
#
# Indices 1 2 3 4 5 6 
#
# 1 0.011649 -0.001040 -0.000329 0.000000 0.004316 0.000000
# 2 -0.001040 0.013776 -0.004213 0.000000 -0.001890 0.000000
# 3 -0.000329 -0.004213 0.010739 0.000000 0.004543 0.000000
# 4 0.000000 0.000000 0.000000 0.023872 0.000000 0.007432
# 5 0.004316 -0.001890 0.004543 0.000000 0.030911 0.000000
# 6 0.000000 0.000000 0.000000 0.007432 0.000000 0.055398
#
#
# Mechanical properties :
#
#
# Convention : Reuss Voigt Hill
#
# Bulk Modulus (GPa) = 39.99942 44.20528 42.10235
# Shear Modulus (GPa) = 30.14913 35.48595 32.81754
#
# Velocity S-wave (km/s) = 3.38071 3.66775 3.52715
# Velocity P-wave (km/s) = 5.51383 5.89018 5.70511
#
# Compressibility (1/GPa) = 0.02500036
#
# Stress axis : x y z
#
# Youngs Moduli (GPa) = 85.84506 72.58942 93.11576
#
# Poissons Ratio (x) = 0.07553 0.03062
# Poissons Ratio (y) = 0.08932 0.39226
# Poissons Ratio (z) = 0.02823 0.30579
#
# Static dielectric constant tensor:
#      x y z
#    x 2.054050 0.000000 0.028180 
#    y 0.000000 2.078040 0.000000 
#    z 0.028180 0.000000 2.099900 
# 
# From -- ./inp_files/180896.got.cif
#   From: 2010.05.17/outbox.cif.g08.bks.cpg/sg15_91_cif.got.tgz:180896.got - 2010.06.03 18:47:42.
