data_PCOD9288522
_publ_section_title
;
Structure prediction by ZEFSAII (Michael W. Deem and Ramdas Pophale) SiO2 
 PCOD9288522
Probable space group: C 2/C
;
_chemical_formula_sum "Si O2"
_cell_formula_units_Z 40
_cell_length_a 8.743005
_cell_length_b 9.559166
_cell_length_c 22.713721
_cell_angle_alpha 90.000000
_cell_angle_beta 104.391786
_cell_angle_gamma 90.000000
_cell_volume 1838.746727
_symmetry_space_group_name_H-M "C 2/C"
_symmetry_group_IT_number 15
_symmetry_cell_setting 'monoclinic'
loop_
_space_group_symop_operation_xyz
x,y,z
-x,y,1/2-z
-x,-y,-z
x,-y,1/2+z
1/2+x,1/2+y,z
1/2-x,1/2+y,1/2-z
1/2-x,1/2-y,-z
1/2+x,1/2-y,1/2+z
loop_
_atom_site_type_symbol
_atom_site_label
_atom_site_fract_x
_atom_site_fract_y
_atom_site_fract_z
Si Si1 0.088354 0.838448 0.124238
Si Si2 0.689366 0.668683 0.266936
Si Si3 0.840579 0.862257 0.196689
Si Si4 0.055061 0.651076 0.489112
Si Si5 0.123472 0.909800 0.550453
O O1 0.219259 0.770017 0.178915
O O2 0.916213 0.858017 0.139056
O O3 0.056618 0.732873 0.067458
O O4 0.144589 0.990784 0.108134
O O5 0.500000 0.676301 0.250000
O O6 0.741791 0.728723 0.208366
O O7 0.734815 0.510276 0.290734
O O8 0.000000 0.854143 0.250000
O O9 0.059829 0.751379 0.547208
O O10 0.219839 0.618776 0.472062
O O11 0.000000 0.500000 0.500000
O O12 0.000000 0.000000 0.500000
#
# Coordination Sequence:
#
# PCOD9288522 Si02
#       5
#     8   8   8   8   8
#     4  10  22  39  61  87 122 162 196 244 309 360
#     4  10  22  39  61  88 119 154 198 248 298 362
#     4   9  21  40  57  82 117 152 194 244 294 355
#     4  10  22  39  61  90 122 159 205 252 299 360
#     4   9  21  40  58  84 122 157 198 248 294 355
#
# _framework density 21.753945999999999
#
# number of rings (size 3 to 8) (size 9 to 14) (size 15 to 20)
#    0.000    2.400    0.000    0.000    0.000   18.400 
#    0.000    0.000    0.000    0.000    0.000    0.000 
#    0.000    0.000    0.000    0.000    0.000    0.000 
#
# Total GULP energy -111466.651802 kJ/mol
# GULP energy per Si atom -5573.332590 kJ/mol
# Density = 2.170443 g / cm^3
# Si number density = 21.753946 Si / 1000 Ang^3
#
#
#
# Elastic Constant Matrix: (Units=GPa)
#
#
# Indices 1 2 3 4 5 6 
#
# 1 47.5033 42.4872 14.8491 0.0000 -1.2059 0.0000
# 2 42.4872 203.9860 55.6343 0.0000 -16.0441 0.0000
# 3 14.8491 55.6343 59.8227 0.0000 -1.7166 0.0000
# 4 0.0000 0.0000 0.0000 40.5788 0.0000 -3.8242
# 5 -1.2059 -16.0441 -1.7166 0.0000 30.6777 0.0000
# 6 0.0000 0.0000 0.0000 -3.8242 0.0000 35.2356
#
#
#
# Elastic Compliance Matrix: (Units=1/GPa)
#
#
# Indices 1 2 3 4 5 6 
#
# 1 0.026119 -0.005084 -0.001805 0.000000 -0.001733 0.000000
# 2 -0.005084 0.007866 -0.005950 0.000000 0.003581 0.000000
# 3 -0.001805 -0.005950 0.022643 0.000000 -0.001916 0.000000
# 4 0.000000 0.000000 0.000000 0.024898 0.000000 0.002702
# 5 -0.001733 0.003581 -0.001916 0.000000 0.034294 0.000000
# 6 0.000000 0.000000 0.000000 0.002702 0.000000 0.028674
#
#
# Mechanical properties :
#
#
# Convention : Reuss Voigt Hill
#
# Bulk Modulus (GPa) = 32.31136 59.69480 46.00308
# Shear Modulus (GPa) = 27.70269 34.52120 31.11195
#
# Velocity S-wave (km/s) = 3.57242 3.98791 3.78587
# Velocity P-wave (km/s) = 5.64815 6.97890 6.34849
#
# Compressibility (1/GPa) = 0.03094887
#
# Stress axis : x y z
#
# Youngs Moduli (GPa) = 38.28676 127.13287 44.16432
#
# Poissons Ratio (x) = 0.64638 0.07970
# Poissons Ratio (y) = 0.19466 0.26279
# Poissons Ratio (z) = 0.06909 0.75648
#
# Static dielectric constant tensor:
#      x y z
#    x 1.853120 0.000000 0.001550 
#    y 0.000000 1.831730 0.000000 
#    z 0.001550 0.000000 1.963780 
# 
# From -- ./inp_files/262424.got.cif
#   From: 2010.05.17/outbox.cif.g08.bks.cpg/sg15_132_cif.got.tgz:262424.got - 2010.06.03 18:47:42.
