data_PCOD9288082
_publ_section_title
;
Structure prediction by ZEFSAII (Michael W. Deem and Ramdas Pophale) SiO2 
 PCOD9288082
Probable space group: C 2/C
;
_chemical_formula_sum "Si O2"
_cell_formula_units_Z 60
_cell_length_a 16.196484
_cell_length_b 20.434941
_cell_length_c 8.647275
_cell_angle_alpha 90.000000
_cell_angle_beta 79.626887
_cell_angle_gamma 90.000000
_cell_volume 2815.248159
_symmetry_space_group_name_H-M "C 2/C"
_symmetry_group_IT_number 15
_symmetry_cell_setting 'monoclinic'
loop_
_space_group_symop_operation_xyz
x,y,z
-x,y,1/2-z
-x,-y,-z
x,-y,1/2+z
1/2+x,1/2+y,z
1/2-x,1/2+y,1/2-z
1/2-x,1/2-y,-z
1/2+x,1/2-y,1/2+z
loop_
_atom_site_type_symbol
_atom_site_label
_atom_site_fract_x
_atom_site_fract_y
_atom_site_fract_z
Si Si1 0.759923 0.138484 0.060552
Si Si2 0.396474 0.819622 0.427295
Si Si3 0.000000 0.789662 0.750000
Si Si4 0.194190 0.488921 0.751545
Si Si5 0.447810 0.670688 0.925400
Si Si6 0.426623 0.960563 0.445179
Si Si7 0.250137 0.369689 0.226818
Si Si8 0.150073 0.744925 0.242851
O O1 0.732578 0.074671 0.160681
O O2 0.730598 0.203633 0.159770
O O3 0.858940 0.134537 0.988628
O O4 0.712815 0.140288 0.911526
O O5 0.424340 0.760793 0.307377
O O6 0.451698 0.885043 0.417785
O O7 0.309405 0.845937 0.388922
O O8 0.389501 0.793191 0.602443
O O9 0.988836 0.825260 0.584852
O O10 0.106348 0.510045 0.702774
O O11 0.256302 0.551461 0.720448
O O12 0.160763 0.468044 0.929645
O O13 0.500000 0.648256 0.750000
O O14 0.413279 0.741393 0.877021
O O15 0.500000 0.000000 0.500000
O O16 0.325312 0.317189 0.202299
#
# Coordination Sequence:
#
# PCOD9288082 Si02
#       8
#     8   8   4   8   8   8   8   8
#     4  11  22  42  67  94 133 173 228 282 336 408
#     4  11  23  37  62  95 133 173 220 266 331 400
#     4  12  24  42  60  98 138 172 218 272 344 410
#     4  11  22  41  61  92 126 177 224 269 329 394
#     4  11  24  44  66  97 135 172 220 284 353 397
#     4  11  24  39  56  90 135 179 217 261 321 395
#     4  10  22  38  63  92 126 165 221 279 327 391
#     4  11  21  42  66  98 129 172 222 281 340 399
#
# _framework density 21.312508999999999
#
# number of rings (size 3 to 8) (size 9 to 14) (size 15 to 20)
#    0.000    1.067    4.000    4.000    3.733    1.067 
#    2.400    0.000    0.000    3.200    3.467    0.000 
#    0.000    0.000    0.000    0.000    0.000    0.000 
#
# Total GULP energy -167040.823107 kJ/mol
# GULP energy per Si atom -5568.027437 kJ/mol
# Density = 2.126400 g / cm^3
# Si number density = 21.312509 Si / 1000 Ang^3
#
#
#
# Elastic Constant Matrix: (Units=GPa)
#
#
# Indices 1 2 3 4 5 6 
#
# 1 48.4225 28.1501 27.7017 0.0000 2.1480 0.0000
# 2 28.1501 87.7174 32.3632 0.0000 -3.1806 0.0000
# 3 27.7017 32.3632 130.0532 0.0000 -1.3318 0.0000
# 4 0.0000 0.0000 0.0000 25.3742 0.0000 16.0874
# 5 2.1480 -3.1806 -1.3318 0.0000 40.3715 0.0000
# 6 0.0000 0.0000 0.0000 16.0874 0.0000 -9.7853
#
#
#
# Elastic Compliance Matrix: (Units=1/GPa)
#
#
# Indices 1 2 3 4 5 6 
#
# 1 0.027325 -0.007368 -0.004009 0.000000 -0.002167 0.000000
# 2 -0.007368 0.014572 -0.002041 0.000000 0.001473 0.000000
# 3 -0.004009 -0.002041 0.009055 0.000000 0.000351 0.000000
# 4 0.000000 0.000000 0.000000 0.019297 0.000000 0.031724
# 5 -0.002167 0.001473 0.000351 0.000000 0.025013 0.000000
# 6 0.000000 0.000000 0.000000 0.031724 0.000000 -0.050038
#
#
# Mechanical properties :
#
#
# Convention : Reuss Voigt Hill
#
# Bulk Modulus (GPa) = 41.47087 49.18033 45.32560
# Shear Modulus (GPa) = 62.42400 23.05730 42.74065
#
# Velocity S-wave (km/s) = 5.41788 3.29274 4.48306
# Velocity P-wave (km/s) = 7.65758 6.13042 6.93616
#
# Compressibility (1/GPa) = 0.02411331
#
# Stress axis : x y z
#
# Youngs Moduli (GPa) = 36.59698 68.62699 110.44043
#
# Poissons Ratio (x) = 0.50568 0.44273
# Poissons Ratio (y) = 0.26966 0.22546
# Poissons Ratio (z) = 0.14671 0.14010
#
# Static dielectric constant tensor:
#      x y z
#    x 1.832000 0.000000 0.019810 
#    y 0.000000 1.790490 0.000000 
#    z 0.019810 0.000000 1.915170 
# 
# From -- ./inp_files/50201.got.cif
#   From: 2010.05.17/outbox.cif.g08.bks.cpg/sg15_26_cif.got.tgz:50201.got - 2010.06.03 18:47:42.
