data_PCOD9288836
_publ_section_title
;
Structure prediction by ZEFSAII (Michael W. Deem and Ramdas Pophale) SiO2 
 PCOD9288836
Probable space group: C 2/C
;
_chemical_formula_sum "Si O2"
_cell_formula_units_Z 44
_cell_length_a 16.252227
_cell_length_b 20.085380
_cell_length_c 12.673534
_cell_angle_alpha 90.000000
_cell_angle_beta 23.643428
_cell_angle_gamma 90.000000
_cell_volume 1659.136556
_symmetry_space_group_name_H-M "C 2/C"
_symmetry_group_IT_number 15
_symmetry_cell_setting 'monoclinic'
loop_
_space_group_symop_operation_xyz
x,y,z
-x,y,1/2-z
-x,-y,-z
x,-y,1/2+z
1/2+x,1/2+y,z
1/2-x,1/2+y,1/2-z
1/2-x,1/2-y,-z
1/2+x,1/2-y,1/2+z
loop_
_atom_site_type_symbol
_atom_site_label
_atom_site_fract_x
_atom_site_fract_y
_atom_site_fract_z
Si Si1 0.943351 0.844379 0.700580
Si Si2 0.624023 0.013726 0.193588
Si Si3 0.322356 0.908919 0.187657
Si Si4 0.590627 0.200963 0.487835
Si Si5 0.324420 0.271995 0.509966
Si Si6 0.500000 0.592545 0.750000
O O1 0.091636 0.882617 0.443854
O O2 0.982143 0.765368 0.660966
O O3 0.000000 0.871748 0.750000
O O4 0.716323 0.843776 0.922289
O O5 0.500000 0.975373 0.250000
O O6 0.461385 0.069423 0.425794
O O7 0.682693 0.971158 0.226497
O O8 0.830220 0.044307 0.901861
O O9 0.436167 0.848684 0.112306
O O10 0.741370 0.236272 0.225215
O O11 0.592658 0.249593 0.214959
O O12 0.355130 0.352575 0.475269
#
# Coordination Sequence:
#
# PCOD9288836 Si02
#       6
#     8   8   8   8   8   4
#     4  12  28  44  72 103 144 188 241 298 356 422
#     4  11  27  47  74 101 146 190 238 300 346 431
#     4  11  27  47  71 108 139 190 245 286 367 422
#     4  12  24  45  70 106 144 185 232 300 356 435
#     4  10  22  39  66 105 146 179 222 281 359 427
#     4  10  24  44  68 106 142 182 236 280 358 422
#
# _framework density 26.519818000000001
#
# number of rings (size 3 to 8) (size 9 to 14) (size 15 to 20)
#    0.545    0.364    3.636    1.636    6.364    0.727 
#    0.000    3.636    0.000    0.000    0.000    0.000 
#    0.000    0.000    0.000    0.000    0.000    0.000 
#
# Total GULP energy -122724.125148 kJ/mol
# GULP energy per Si atom -5578.369325 kJ/mol
# Density = 2.645946 g / cm^3
# Si number density = 26.519818 Si / 1000 Ang^3
#
#
#
# Elastic Constant Matrix: (Units=GPa)
#
#
# Indices 1 2 3 4 5 6 
#
# 1 102.4306 12.5892 26.3792 -0.0174 -18.3340 0.0030
# 2 12.5892 75.5472 42.7987 0.0040 -14.1436 0.0037
# 3 26.3792 42.7987 112.8803 -0.0590 -15.0696 0.0066
# 4 -0.0174 0.0040 -0.0590 38.9307 0.0301 4.2062
# 5 -18.3340 -14.1436 -15.0696 0.0301 40.9830 -0.0048
# 6 0.0030 0.0037 0.0066 4.2062 -0.0048 8.0502
#
#
#
# Elastic Compliance Matrix: (Units=1/GPa)
#
#
# Indices 1 2 3 4 5 6 
#
# 1 0.011034 0.000118 -0.002060 -0.000002 0.004219 0.000001
# 2 0.000118 0.017394 -0.006114 -0.000015 0.003807 0.000007
# 3 -0.002060 -0.006114 0.011835 0.000018 0.001320 -0.000015
# 4 -0.000002 -0.000015 0.000018 0.027224 -0.000021 -0.014224
# 5 0.004219 0.003807 0.001320 -0.000021 0.028087 0.000023
# 6 0.000001 0.000007 -0.000015 -0.014224 0.000023 0.131652
#
#
# Mechanical properties :
#
#
# Convention : Reuss Voigt Hill
#
# Bulk Modulus (GPa) = 41.40706 50.48803 45.94754
# Shear Modulus (GPa) = 19.88960 31.53217 25.71088
#
# Velocity S-wave (km/s) = 2.74157 3.45193 3.11705
# Velocity P-wave (km/s) = 5.06647 5.91329 5.50618
#
# Compressibility (1/GPa) = 0.02415047
#
# Stress axis : x y z
#
# Youngs Moduli (GPa) = 90.62941 57.49230 84.49652
#
# Poissons Ratio (x) = -0.00680 0.17407
# Poissons Ratio (y) = -0.01073 0.51663
# Poissons Ratio (z) = 0.18671 0.35152
#
# Static dielectric constant tensor:
#      x y z
#    x 2.158120 -0.000010 -0.084870 
#    y -0.000010 1.994090 0.000050 
#    z -0.084870 0.000050 2.303100 
# 
# From -- ./inp_files/164164.got.cif
#   From: 2010.05.17/outbox.cif.g08.bks.cpg/sg15_83_cif.got.tgz:164164.got - 2010.06.03 18:47:42.
