data_PCOD9288769
_publ_section_title
;
Structure prediction by ZEFSAII (Michael W. Deem and Ramdas Pophale) SiO2 
 PCOD9288769
Probable space group: C 2/C
;
_chemical_formula_sum "Si O2"
_cell_formula_units_Z 48
_cell_length_a 7.426821
_cell_length_b 23.366753
_cell_length_c 11.299847
_cell_angle_alpha 90.000000
_cell_angle_beta 85.757415
_cell_angle_gamma 90.000000
_cell_volume 1955.609717
_symmetry_space_group_name_H-M "C 2/C"
_symmetry_group_IT_number 15
_symmetry_cell_setting 'monoclinic'
loop_
_space_group_symop_operation_xyz
x,y,z
-x,y,1/2-z
-x,-y,-z
x,-y,1/2+z
1/2+x,1/2+y,z
1/2-x,1/2+y,1/2-z
1/2-x,1/2-y,-z
1/2+x,1/2-y,1/2+z
loop_
_atom_site_type_symbol
_atom_site_label
_atom_site_fract_x
_atom_site_fract_y
_atom_site_fract_z
Si Si1 0.477139 0.597035 0.942430
Si Si2 0.753102 0.904840 0.854285
Si Si3 0.583059 0.936550 0.489713
Si Si4 0.000000 0.196300 0.750000
Si Si5 0.500000 0.879422 0.250000
Si Si6 0.000000 0.817160 0.750000
Si Si7 0.500000 0.496352 0.250000
Si Si8 0.823048 0.271620 0.373697
O O1 0.450189 0.652892 0.860942
O O2 0.547644 0.545929 0.855028
O O3 0.291587 0.574277 0.009207
O O4 0.622598 0.606928 0.036444
O O5 0.824295 0.856255 0.762895
O O6 0.549961 0.904318 0.911528
O O7 0.831576 0.964119 0.797423
O O8 0.580010 0.917562 0.351228
O O9 0.500000 0.000000 0.500000
O O10 0.162036 0.235211 0.787493
O O11 0.380818 0.835779 0.335606
O O12 0.992440 0.770802 0.853757
O O13 0.750000 0.250000 0.500000
#
# Coordination Sequence:
#
# PCOD9288769 Si02
#       8
#     8   8   8   4   4   4   4   8
#     4  11  23  42  66 100 134 183 234 282 345 425
#     4  11  24  44  65  94 145 183 227 295 350 415
#     4  12  25  40  68 103 136 188 234 277 352 429
#     4  11  22  43  72 102 134 175 238 295 354 436
#     4  11  24  45  66  98 144 173 238 293 344 420
#     4  10  24  47  66  98 134 181 224 296 366 408
#     4  10  22  39  64  96 134 181 230 276 346 408
#     4  11  23  46  76  98 132 186 234 297 366 412
#
# _framework density 24.544777
#
# number of rings (size 3 to 8) (size 9 to 14) (size 15 to 20)
#    0.000    1.000    3.333    3.500    2.333    0.000 
#    6.000    2.500    0.000    0.000    0.000    0.000 
#    0.000    0.000    0.000    0.000    0.000    0.000 
#
# Total GULP energy -134059.834561 kJ/mol
# GULP energy per Si atom -5585.826440 kJ/mol
# Density = 2.448891 g / cm^3
# Si number density = 24.544777 Si / 1000 Ang^3
#
#
#
# Elastic Constant Matrix: (Units=GPa)
#
#
# Indices 1 2 3 4 5 6 
#
# 1 92.7348 25.1805 41.2903 0.0000 -24.4230 0.0000
# 2 25.1805 120.4630 53.4824 0.0000 -6.0335 0.0000
# 3 41.2903 53.4824 135.7694 0.0000 -28.5904 0.0000
# 4 0.0000 0.0000 0.0000 39.8393 0.0000 -13.7326
# 5 -24.4230 -6.0335 -28.5904 0.0000 48.3641 0.0000
# 6 0.0000 0.0000 0.0000 -13.7326 0.0000 26.2618
#
#
#
# Elastic Compliance Matrix: (Units=1/GPa)
#
#
# Indices 1 2 3 4 5 6 
#
# 1 0.013672 -0.001503 -0.002457 0.000000 0.005264 0.000000
# 2 -0.001503 0.010292 -0.003982 0.000000 -0.001829 0.000000
# 3 -0.002457 -0.003982 0.010640 0.000000 0.004552 0.000000
# 4 0.000000 0.000000 0.000000 0.030620 0.000000 0.016012
# 5 0.005264 -0.001829 0.004552 0.000000 0.025798 0.000000
# 6 0.000000 0.000000 0.000000 0.016012 0.000000 0.046451
#
#
# Mechanical properties :
#
#
# Convention : Reuss Voigt Hill
#
# Bulk Modulus (GPa) = 53.42328 65.43040 59.42684
# Shear Modulus (GPa) = 31.32883 38.16065 34.74474
#
# Velocity S-wave (km/s) = 3.57654 3.94729 3.76648
# Velocity P-wave (km/s) = 6.23446 6.89132 6.57110
#
# Compressibility (1/GPa) = 0.01871843
#
# Stress axis : x y z
#
# Youngs Moduli (GPa) = 73.14169 97.16364 93.98472
#
# Poissons Ratio (x) = 0.14606 0.23095
# Poissons Ratio (y) = 0.10995 0.37427
# Poissons Ratio (z) = 0.17973 0.38693
#
# Static dielectric constant tensor:
#      x y z
#    x 2.007290 0.000000 0.081220 
#    y 0.000000 2.016170 0.000000 
#    z 0.081220 0.000000 1.240810 
# 
# From -- ./inp_files/79848.got.cif
#   From: 2010.05.17/outbox.cif.g08.bks.cpg/sg15_40_cif.got.tgz:79848.got - 2010.06.03 18:47:42.
