data_PCOD9288446
_publ_section_title
;
Structure prediction by ZEFSAII (Michael W. Deem and Ramdas Pophale) SiO2 
 PCOD9288446
Probable space group: C 2/C
;
_chemical_formula_sum "Si O2"
_cell_formula_units_Z 48
_cell_length_a 22.503021
_cell_length_b 15.099769
_cell_length_c 13.929683
_cell_angle_alpha 90.000000
_cell_angle_beta 29.823415
_cell_angle_gamma 90.000000
_cell_volume 2353.941968
_symmetry_space_group_name_H-M "C 2/C"
_symmetry_group_IT_number 15
_symmetry_cell_setting 'monoclinic'
loop_
_space_group_symop_operation_xyz
x,y,z
-x,y,1/2-z
-x,-y,-z
x,-y,1/2+z
1/2+x,1/2+y,z
1/2-x,1/2+y,1/2-z
1/2-x,1/2-y,-z
1/2+x,1/2-y,1/2+z
loop_
_atom_site_type_symbol
_atom_site_label
_atom_site_fract_x
_atom_site_fract_y
_atom_site_fract_z
Si Si1 0.280441 0.571505 0.888327
Si Si2 0.568875 0.589655 0.995665
Si Si3 0.366409 0.582094 0.977740
Si Si4 0.284571 0.617291 0.401884
Si Si5 0.118862 0.718312 0.019650
Si Si6 0.733816 0.803977 0.174002
O O1 0.404432 0.585637 0.655678
O O2 0.290277 0.568011 0.988547
O O3 0.234976 0.473270 0.926382
O O4 0.203274 0.653310 0.961377
O O5 0.646415 0.667758 0.935917
O O6 0.626957 0.500524 0.959687
O O7 0.428487 0.601312 0.211988
O O8 0.500000 0.586300 0.750000
O O9 0.336946 0.680491 0.054579
O O10 0.263998 0.703628 0.366880
O O11 0.230810 0.637645 0.581950
O O12 0.000000 0.720460 0.250000
O O13 0.125121 0.682831 0.901505
#
# Coordination Sequence:
#
# PCOD9288446 Si02
#       6
#     8   8   8   8   8   8
#     4  11  22  37  63  91 119 159 198 248 301 356
#     4  11  21  38  65  95 121 152 201 250 302 355
#     4  11  20  36  61  90 118 153 198 252 303 346
#     4  11  21  38  65  90 122 153 203 247 303 357
#     4  10  24  40  58  84 126 158 201 247 297 360
#     4  10  22  39  59  90 122 157 196 253 297 355
#
# _framework density 20.391327
#
# number of rings (size 3 to 8) (size 9 to 14) (size 15 to 20)
#    0.000    1.333    3.333    2.500    4.667    0.000 
#    0.000    4.167    0.000    0.000    0.000    0.000 
#    0.000    0.000    0.000    0.000    0.000    0.000 
#
# Total GULP energy -133811.336228 kJ/mol
# GULP energy per Si atom -5575.472343 kJ/mol
# Density = 2.034492 g / cm^3
# Si number density = 20.391327 Si / 1000 Ang^3
#
#
#
# Elastic Constant Matrix: (Units=GPa)
#
#
# Indices 1 2 3 4 5 6 
#
# 1 69.2528 45.4176 28.9782 0.0000 18.0108 0.0000
# 2 45.4176 137.6394 34.8581 0.0000 -8.8921 0.0000
# 3 28.9782 34.8581 103.6296 0.0000 32.4160 0.0000
# 4 0.0000 0.0000 0.0000 20.6964 0.0000 -2.8347
# 5 18.0108 -8.8921 32.4160 0.0000 23.7505 0.0000
# 6 0.0000 0.0000 0.0000 -2.8347 0.0000 32.9465
#
#
#
# Elastic Compliance Matrix: (Units=1/GPa)
#
#
# Indices 1 2 3 4 5 6 
#
# 1 0.032397 -0.016239 0.010452 0.000000 -0.044913 0.000000
# 2 -0.016239 0.018436 -0.013387 0.000000 0.037488 0.000000
# 3 0.010452 -0.013387 0.026659 0.000000 -0.049324 0.000000
# 4 0.000000 0.000000 0.000000 0.048894 0.000000 0.004207
# 5 -0.044913 0.037488 -0.049324 0.000000 0.157519 0.000000
# 6 0.000000 0.000000 0.000000 0.004207 0.000000 0.030714
#
#
# Mechanical properties :
#
#
# Convention : Reuss Voigt Hill
#
# Bulk Modulus (GPa) = 25.54647 58.78108 42.16377
# Shear Modulus (GPa) = 13.66067 28.89653 21.27860
#
# Velocity S-wave (km/s) = 2.59110 3.76852 3.23385
# Velocity P-wave (km/s) = 4.63757 6.91554 5.88778
#
# Compressibility (1/GPa) = 0.03914435
#
# Stress axis : x y z
#
# Youngs Moduli (GPa) = 30.86737 54.24159 37.51097
#
# Poissons Ratio (x) = 0.88082 -0.39207
# Poissons Ratio (y) = 0.50125 0.50216
# Poissons Ratio (z) = -0.32263 0.72614
#
# Static dielectric constant tensor:
#      x y z
#    x 1.765730 0.000000 0.039810 
#    y 0.000000 1.787280 0.000000 
#    z 0.039810 0.000000 1.752500 
# 
# From -- ./inp_files/153583.got.cif
#   From: 2010.05.17/outbox.cif.g08.bks.cpg/sg15_77_cif.got.tgz:153583.got - 2010.06.03 18:47:42.
