data_PCOD9288289
_publ_section_title
;
Structure prediction by ZEFSAII (Michael W. Deem and Ramdas Pophale) SiO2 
 PCOD9288289
Probable space group: C 2/C
;
_chemical_formula_sum "Si O2"
_cell_formula_units_Z 60
_cell_length_a 26.400970
_cell_length_b 8.734436
_cell_length_c 11.342069
_cell_angle_alpha 90.000000
_cell_angle_beta 108.494189
_cell_angle_gamma 90.000000
_cell_volume 2480.380765
_symmetry_space_group_name_H-M "C 2/C"
_symmetry_group_IT_number 15
_symmetry_cell_setting 'monoclinic'
loop_
_space_group_symop_operation_xyz
x,y,z
-x,y,1/2-z
-x,-y,-z
x,-y,1/2+z
1/2+x,1/2+y,z
1/2-x,1/2+y,1/2-z
1/2-x,1/2-y,-z
1/2+x,1/2-y,1/2+z
loop_
_atom_site_type_symbol
_atom_site_label
_atom_site_fract_x
_atom_site_fract_y
_atom_site_fract_z
Si Si1 0.856329 0.266185 0.966601
Si Si2 0.588608 0.629205 0.291319
Si Si3 0.000000 0.610714 0.750000
Si Si4 0.695536 0.698144 0.811551
Si Si5 0.923661 0.190554 0.681918
Si Si6 0.206451 0.565415 0.511328
Si Si7 0.383014 0.226997 0.913334
Si Si8 0.052892 0.568732 0.106865
O O1 0.815476 0.217617 0.834332
O O2 0.828416 0.410937 0.011572
O O3 0.913860 0.309667 0.949852
O O4 0.870385 0.136560 0.070461
O O5 0.550416 0.776338 0.279502
O O6 0.555146 0.474223 0.267039
O O7 0.618792 0.349554 0.690505
O O8 0.999319 0.529555 0.614569
O O9 0.637628 0.673461 0.824466
O O10 0.736808 0.568424 0.882018
O O11 0.713071 0.858608 0.887435
O O12 0.925008 0.221085 0.544220
O O13 0.944723 0.335752 0.767772
O O14 0.171611 0.684912 0.563560
O O15 0.405051 0.069413 0.875860
#
# Coordination Sequence:
#
# PCOD9288289 Si02
#       8
#     8   8   4   8   8   8   8   8
#     4  10  22  38  67  90 130 172 213 265 332 376
#     4  11  25  42  63  96 132 167 214 270 338 391
#     4  10  24  44  66  98 124 160 232 268 312 412
#     4   9  20  39  61  94 123 170 221 261 318 380
#     4  10  22  41  66  89 134 170 205 268 341 374
#     4   9  19  38  64  90 128 168 223 272 299 382
#     4   9  21  38  64  92 126 174 213 258 321 385
#     4   9  21  41  66  91 120 165 221 263 320 384
#
# _framework density 24.189836
#
# number of rings (size 3 to 8) (size 9 to 14) (size 15 to 20)
#    0.000    2.400    0.000    0.000   20.533    2.133 
#    7.200    4.000    0.000    0.000    0.000    0.000 
#    0.000    0.000    0.000    0.000    0.000    0.000 
#
# Total GULP energy -167155.702501 kJ/mol
# GULP energy per Si atom -5571.856750 kJ/mol
# Density = 2.413478 g / cm^3
# Si number density = 24.189836 Si / 1000 Ang^3
#
#
#
# Elastic Constant Matrix: (Units=GPa)
#
#
# Indices 1 2 3 4 5 6 
#
# 1 142.8673 71.2875 151.9090 0.0000 32.4161 0.0000
# 2 71.2875 125.9921 190.2657 0.0000 10.9011 0.0000
# 3 151.9090 190.2657 435.4782 0.0000 47.0936 0.0000
# 4 0.0000 0.0000 0.0000 28.5825 0.0000 -6.1278
# 5 32.4161 10.9011 47.0936 0.0000 34.0122 0.0000
# 6 0.0000 0.0000 0.0000 -6.1278 0.0000 292.9818
#
#
#
# Elastic Compliance Matrix: (Units=1/GPa)
#
#
# Indices 1 2 3 4 5 6 
#
# 1 0.012759 -0.003305 -0.002124 0.000000 -0.008159 0.000000
# 2 -0.003305 0.026092 -0.011389 0.000000 0.010556 0.000000
# 3 -0.002124 -0.011389 0.008703 0.000000 -0.006375 0.000000
# 4 0.000000 0.000000 0.000000 0.035144 0.000000 0.000735
# 5 -0.008159 0.010556 -0.006375 0.000000 0.042621 0.000000
# 6 0.000000 0.000000 0.000000 0.000735 0.000000 0.003429
#
#
# Mechanical properties :
#
#
# Convention : Reuss Voigt Hill
#
# Bulk Modulus (GPa) = 71.85236 170.14024 120.99630
# Shear Modulus (GPa) = 29.93614 90.50701 60.22157
#
# Velocity S-wave (km/s) = 3.52170 6.12344 4.99494
# Velocity P-wave (km/s) = 6.80474 10.97650 9.13203
#
# Compressibility (1/GPa) = 0.01391743
#
# Stress axis : x y z
#
# Youngs Moduli (GPa) = 78.37791 38.32578 114.90933
#
# Poissons Ratio (x) = 0.12667 0.24409
# Poissons Ratio (y) = 0.25905 1.30865
# Poissons Ratio (z) = 0.16649 0.43648
#
# Static dielectric constant tensor:
#      x y z
#    x 2.024100 0.000000 0.115650 
#    y 0.000000 1.988650 0.000000 
#    z 0.115650 0.000000 2.195860 
# 
# From -- ./inp_files/125604.got.cif
#   From: 2010.05.17/outbox.cif.g08.bks.cpg/sg15_63_cif.got.tgz:125604.got - 2010.06.03 18:47:42.
