data_PCOD9288657
_publ_section_title
;
Structure prediction by ZEFSAII (Michael W. Deem and Ramdas Pophale) SiO2 
 PCOD9288657
Probable space group: C 2/C
;
_chemical_formula_sum "Si O2"
_cell_formula_units_Z 48
_cell_length_a 5.166968
_cell_length_b 25.336410
_cell_length_c 17.598601
_cell_angle_alpha 90.000000
_cell_angle_beta 116.938714
_cell_angle_gamma 90.000000
_cell_volume 2053.885653
_symmetry_space_group_name_H-M "C 2/C"
_symmetry_group_IT_number 15
_symmetry_cell_setting 'monoclinic'
loop_
_space_group_symop_operation_xyz
x,y,z
-x,y,1/2-z
-x,-y,-z
x,-y,1/2+z
1/2+x,1/2+y,z
1/2-x,1/2+y,1/2-z
1/2-x,1/2-y,-z
1/2+x,1/2-y,1/2+z
loop_
_atom_site_type_symbol
_atom_site_label
_atom_site_fract_x
_atom_site_fract_y
_atom_site_fract_z
Si Si1 0.729958 0.716758 0.420205
Si Si2 0.164519 0.871691 0.690430
Si Si3 0.787416 0.033563 0.524936
Si Si4 0.612649 0.174685 0.847478
Si Si5 0.784428 0.350134 0.462441
Si Si6 0.832673 0.991850 0.805343
O O1 0.750000 0.750000 0.500000
O O2 0.507123 0.668229 0.386499
O O3 0.622731 0.761193 0.347983
O O4 0.048378 0.690709 0.460311
O O5 0.500000 0.857540 0.750000
O O6 0.160366 0.932239 0.659672
O O7 0.000000 0.869622 0.750000
O O8 0.686168 0.092473 0.495867
O O9 0.500000 0.000000 0.500000
O O10 0.000000 0.000000 0.500000
O O11 0.986843 0.035129 0.625977
O O12 0.500000 0.156021 0.750000
O O13 0.432173 0.154461 0.897590
O O14 0.946390 0.160169 0.906521
O O15 0.500000 0.006505 0.750000
O O16 0.000000 0.985629 0.750000
#
# Coordination Sequence:
#
# PCOD9288657 Si02
#       6
#     8   8   8   8   8   8
#     4  10  23  41  64  93 130 170 215 268 326 388
#     4  10  22  39  63  90 120 159 206 259 314 373
#     4  12  25  43  68  97 130 170 215 266 324 391
#     4  11  24  43  65  94 129 173 222 270 327 395
#     4  11  25  43  65  95 132 173 216 272 330 391
#     4  10  22  41  64  93 125 163 210 263 322 384
#
# _framework density 23.370334
#
# number of rings (size 3 to 8) (size 9 to 14) (size 15 to 20)
#    0.000    1.333    0.000    4.500    0.000   14.000 
#    0.000    0.000    0.000    0.000    0.000    0.000 
#    0.000    0.000    0.000    0.000    0.000    0.000 
#
# Total GULP energy -134171.312107 kJ/mol
# GULP energy per Si atom -5590.471338 kJ/mol
# Density = 2.331714 g / cm^3
# Si number density = 23.370334 Si / 1000 Ang^3
#
#
#
# Elastic Constant Matrix: (Units=GPa)
#
#
# Indices 1 2 3 4 5 6 
#
# 1 166.6172 12.3393 27.5695 0.0000 19.1617 0.0000
# 2 12.3393 86.4668 -2.8874 0.0000 1.2610 0.0000
# 3 27.5695 -2.8874 66.2662 0.0000 3.2422 0.0000
# 4 0.0000 0.0000 0.0000 43.0386 0.0000 9.2160
# 5 19.1617 1.2610 3.2422 0.0000 44.5372 0.0000
# 6 0.0000 0.0000 0.0000 9.2160 0.0000 22.2894
#
#
#
# Elastic Compliance Matrix: (Units=1/GPa)
#
#
# Indices 1 2 3 4 5 6 
#
# 1 0.006847 -0.001030 -0.002761 0.000000 -0.002716 0.000000
# 2 -0.001030 0.011743 0.000938 0.000000 0.000042 0.000000
# 3 -0.002761 0.000938 0.016281 0.000000 -0.000024 0.000000
# 4 0.000000 0.000000 0.000000 0.025492 0.000000 -0.010540
# 5 -0.002716 0.000042 -0.000024 0.000000 0.023622 0.000000
# 6 0.000000 0.000000 0.000000 -0.010540 0.000000 0.049222
#
#
# Mechanical properties :
#
#
# Convention : Reuss Voigt Hill
#
# Bulk Modulus (GPa) = 34.28603 43.71033 38.99818
# Shear Modulus (GPa) = 33.63952 40.79496 37.21724
#
# Velocity S-wave (km/s) = 3.79807 4.18256 3.99494
# Velocity P-wave (km/s) = 5.82550 6.48606 6.16463
#
# Compressibility (1/GPa) = 0.02916640
#
# Stress axis : x y z
#
# Youngs Moduli (GPa) = 146.04577 85.15869 61.42027
#
# Poissons Ratio (x) = 0.08769 0.16956
# Poissons Ratio (y) = 0.15038 -0.05761
# Poissons Ratio (z) = 0.40319 -0.07988
#
# Static dielectric constant tensor:
#      x y z
#    x 1.862060 0.000000 -0.065440 
#    y 0.000000 1.942700 0.000000 
#    z -0.065440 0.000000 1.907430 
# 
# From -- ./inp_files/228256.got.cif
#   From: 2010.05.17/outbox.cif.g08.bks.cpg/sg15_115_cif.got.tgz:228256.got - 2010.06.03 18:47:42.
