data_PCOD9288959
_publ_section_title
;
Structure prediction by ZEFSAII (Michael W. Deem and Ramdas Pophale) SiO2 
 PCOD9288959
Probable space group: C 2/C
;
_chemical_formula_sum "Si O2"
_cell_formula_units_Z 32
_cell_length_a 15.624867
_cell_length_b 16.086454
_cell_length_c 9.993315
_cell_angle_alpha 90.000000
_cell_angle_beta 153.803418
_cell_angle_gamma 90.000000
_cell_volume 1108.842943
_symmetry_space_group_name_H-M "C 2/C"
_symmetry_group_IT_number 15
_symmetry_cell_setting 'monoclinic'
loop_
_space_group_symop_operation_xyz
x,y,z
-x,y,1/2-z
-x,-y,-z
x,-y,1/2+z
1/2+x,1/2+y,z
1/2-x,1/2+y,1/2-z
1/2-x,1/2-y,-z
1/2+x,1/2-y,1/2+z
loop_
_atom_site_type_symbol
_atom_site_label
_atom_site_fract_x
_atom_site_fract_y
_atom_site_fract_z
Si Si1 0.188157 0.778884 0.558496
Si Si2 0.767543 0.995277 0.445058
Si Si3 0.206908 0.834888 0.857317
Si Si4 0.747438 0.604186 0.824612
O O1 0.250000 0.750000 0.500000
O O2 0.288278 0.824782 0.820858
O O3 0.138917 0.688074 0.553530
O O4 0.000000 0.828670 0.250000
O O5 0.714849 0.912071 0.451833
O O6 0.701950 0.972301 0.202812
O O7 0.000000 0.996217 0.750000
O O8 0.718057 0.069881 0.477051
O O9 0.976196 0.860799 0.512455
O O10 0.250000 0.750000 0.000000
#
# Coordination Sequence:
#
# PCOD9288959 Si02
#       4
#     8   8   8   8
#     4  12  26  42  69  98 139 182 234 287 348 411
#     4  10  22  39  68  98 136 176 235 282 339 421
#     4  11  22  41  66 100 134 176 228 292 344 403
#     4  11  24  42  69 102 136 184 236 285 350 420
#
# _framework density 28.858910000000002
#
# number of rings (size 3 to 8) (size 9 to 14) (size 15 to 20)
#    0.000    1.000    5.000    3.000    7.000    0.000 
#    0.000    1.250    5.500    0.000    0.000    0.000 
#    0.000    0.000    0.000    0.000    0.000    0.000 
#
# Total GULP energy -89334.612317 kJ/mol
# GULP energy per Si atom -5583.413270 kJ/mol
# Density = 2.879323 g / cm^3
# Si number density = 28.858910 Si / 1000 Ang^3
#
#
#
# Elastic Constant Matrix: (Units=GPa)
#
#
# Indices 1 2 3 4 5 6 
#
# 1 151.1490 44.8933 55.8911 0.0000 -58.1873 0.0000
# 2 44.8933 205.8193 25.6922 0.0000 -9.7995 0.0000
# 3 55.8911 25.6922 115.0200 0.0000 -10.8880 0.0000
# 4 0.0000 0.0000 0.0000 21.3895 0.0000 -18.1515
# 5 -58.1873 -9.7995 -10.8880 0.0000 51.9801 0.0000
# 6 0.0000 0.0000 0.0000 -18.1515 0.0000 62.7140
#
#
#
# Elastic Compliance Matrix: (Units=1/GPa)
#
#
# Indices 1 2 3 4 5 6 
#
# 1 0.015153 -0.001885 -0.005479 0.000000 0.015460 0.000000
# 2 -0.001885 0.005259 -0.000372 0.000000 -0.001197 0.000000
# 3 -0.005479 -0.000372 0.011072 0.000000 -0.003884 0.000000
# 4 0.000000 0.000000 0.000000 0.061974 0.000000 0.017937
# 5 0.015460 -0.001197 -0.003884 0.000000 0.035505 0.000000
# 6 0.000000 0.000000 0.000000 0.017937 0.000000 0.021137
#
#
# Mechanical properties :
#
#
# Convention : Reuss Voigt Hill
#
# Bulk Modulus (GPa) = 62.45157 80.54904 71.50030
# Shear Modulus (GPa) = 29.25518 50.25084 39.75301
#
# Velocity S-wave (km/s) = 3.18737 4.17737 3.71549
# Velocity P-wave (km/s) = 5.93574 7.15815 6.57541
#
# Compressibility (1/GPa) = 0.01601241
#
# Stress axis : x y z
#
# Youngs Moduli (GPa) = 65.99172 190.13955 90.31904
#
# Poissons Ratio (x) = 0.35846 0.49484
# Poissons Ratio (y) = 0.12441 0.03360
# Poissons Ratio (z) = 0.36156 0.07073
#
# Static dielectric constant tensor:
#      x y z
#    x 2.414490 0.000000 0.140350 
#    y 0.000000 2.296420 0.000000 
#    z 0.140350 0.000000 2.385370 
# 
# From -- ./inp_files/40476.got.cif
#   From: 2010.05.17/outbox.cif.g08.bks.cpg/sg15_21_cif.got.tgz:40476.got - 2010.06.03 18:47:42.
