data_PCOD9288829
_publ_section_title
;
Structure prediction by ZEFSAII (Michael W. Deem and Ramdas Pophale) SiO2 
 PCOD9288829
Probable space group: C 2/C
;
_chemical_formula_sum "Si O2"
_cell_formula_units_Z 64
_cell_length_a 9.271208
_cell_length_b 13.480711
_cell_length_c 22.198408
_cell_angle_alpha 90.000000
_cell_angle_beta 88.632869
_cell_angle_gamma 90.000000
_cell_volume 2773.622227
_symmetry_space_group_name_H-M "C 2/C"
_symmetry_group_IT_number 15
_symmetry_cell_setting 'monoclinic'
loop_
_space_group_symop_operation_xyz
x,y,z
-x,y,1/2-z
-x,-y,-z
x,-y,1/2+z
1/2+x,1/2+y,z
1/2-x,1/2+y,1/2-z
1/2-x,1/2-y,-z
1/2+x,1/2-y,1/2+z
loop_
_atom_site_type_symbol
_atom_site_label
_atom_site_fract_x
_atom_site_fract_y
_atom_site_fract_z
Si Si1 0.084046 0.418566 0.958665
Si Si2 0.649051 0.767371 0.402075
Si Si3 0.656218 0.543780 0.366659
Si Si4 0.575547 0.272257 0.043113
Si Si5 0.792325 0.122928 0.555407
Si Si6 0.859106 0.727173 0.837122
Si Si7 0.166769 0.551835 0.744331
Si Si8 0.319717 0.460767 0.855394
O O1 0.201409 0.460746 0.910493
O O2 0.979743 0.334921 0.931982
O O3 0.180685 0.356085 0.004459
O O4 0.000000 0.500000 0.000000
O O5 0.667525 0.660502 0.371787
O O6 0.615311 0.750889 0.473244
O O7 0.806438 0.813823 0.410862
O O8 0.511389 0.808057 0.366906
O O9 0.721034 0.490840 0.424815
O O10 0.746218 0.503529 0.309491
O O11 0.487006 0.513728 0.366443
O O12 0.452333 0.352626 0.035795
O O13 0.757581 0.188042 0.614078
O O14 0.838607 0.667264 0.775728
O O15 0.838751 0.844892 0.833613
O O16 0.251502 0.527252 0.803864
O O17 0.000000 0.518219 0.750000
#
# Coordination Sequence:
#
# PCOD9288829 Si02
#       8
#     8   8   8   8   8   8   8   8
#     4  12  25  39  71 105 152 185 231 288 360 435
#     4  10  22  39  66 100 141 180 228 279 353 421
#     4  10  24  44  68  98 140 181 232 289 348 424
#     4  11  22  37  65 106 142 182 230 280 341 439
#     4  11  21  40  66 101 143 180 229 277 355 419
#     4  10  22  45  71  97 138 192 231 296 353 430
#     4  11  27  44  71 100 134 184 245 297 356 421
#     4  11  25  47  72 103 139 191 237 295 361 420
#
# _framework density 23.074521000000001
#
# number of rings (size 3 to 8) (size 9 to 14) (size 15 to 20)
#    0.000    1.250    2.500    3.000    5.250    7.000 
#    0.000    2.500    0.000    0.000    0.000    0.000 
#    0.000    0.000    0.000    0.000    0.000    0.000 
#
# Total GULP energy -178779.259149 kJ/mol
# GULP energy per Si atom -5586.851848 kJ/mol
# Density = 2.302200 g / cm^3
# Si number density = 23.074521 Si / 1000 Ang^3
#
#
#
# Elastic Constant Matrix: (Units=GPa)
#
#
# Indices 1 2 3 4 5 6 
#
# 1 217.8136 6.2287 -4.4974 0.0000 45.7923 0.0000
# 2 6.2287 57.6701 26.5103 0.0000 -11.2830 0.0000
# 3 -4.4974 26.5103 112.8776 0.0000 -23.4031 0.0000
# 4 0.0000 0.0000 0.0000 24.1903 0.0000 12.0044
# 5 45.7923 -11.2830 -23.4031 0.0000 65.1643 0.0000
# 6 0.0000 0.0000 0.0000 12.0044 0.0000 32.0477
#
#
#
# Elastic Compliance Matrix: (Units=1/GPa)
#
#
# Indices 1 2 3 4 5 6 
#
# 1 0.005506 -0.001254 -0.000360 0.000000 -0.004215 0.000000
# 2 -0.001254 0.019936 -0.004142 0.000000 0.002845 0.000000
# 3 -0.000360 -0.004142 0.010504 0.000000 0.003308 0.000000
# 4 0.000000 0.000000 0.000000 0.050778 0.000000 -0.019020
# 5 -0.004215 0.002845 0.003308 0.000000 0.019989 0.000000
# 6 0.000000 0.000000 0.000000 -0.019020 0.000000 0.038328
#
#
# Mechanical properties :
#
#
# Convention : Reuss Voigt Hill
#
# Bulk Modulus (GPa) = 40.92812 49.42717 45.17764
# Shear Modulus (GPa) = 30.35880 48.28842 39.32361
#
# Velocity S-wave (km/s) = 3.63117 4.57958 4.13267
# Velocity P-wave (km/s) = 5.94613 7.03069 6.51103
#
# Compressibility (1/GPa) = 0.02443308
#
# Stress axis : x y z
#
# Youngs Moduli (GPa) = 181.62861 50.15986 95.20621
#
# Poissons Ratio (x) = 0.06289 0.03429
# Poissons Ratio (y) = 0.22773 0.39437
# Poissons Ratio (z) = 0.06541 0.20777
#
# Static dielectric constant tensor:
#      x y z
#    x 1.954510 0.000000 -0.033410 
#    y 0.000000 1.888540 0.000000 
#    z -0.033410 0.000000 1.841810 
# 
# From -- ./inp_files/264704.got.cif
#   From: 2010.05.17/outbox.cif.g08.bks.cpg/sg15_133_cif.got.tgz:264704.got - 2010.06.03 18:47:42.
