data_PCOD9288083
_publ_section_title
;
Structure prediction by ZEFSAII (Michael W. Deem and Ramdas Pophale) SiO2 
 PCOD9288083
Probable space group: C 2/C
;
_chemical_formula_sum "Si O2"
_cell_formula_units_Z 40
_cell_length_a 15.268609
_cell_length_b 7.358491
_cell_length_c 19.586841
_cell_angle_alpha 90.000000
_cell_angle_beta 134.513856
_cell_angle_gamma 90.000000
_cell_volume 1569.247531
_symmetry_space_group_name_H-M "C 2/C"
_symmetry_group_IT_number 15
_symmetry_cell_setting 'monoclinic'
loop_
_space_group_symop_operation_xyz
x,y,z
-x,y,1/2-z
-x,-y,-z
x,-y,1/2+z
1/2+x,1/2+y,z
1/2-x,1/2+y,1/2-z
1/2-x,1/2-y,-z
1/2+x,1/2-y,1/2+z
loop_
_atom_site_type_symbol
_atom_site_label
_atom_site_fract_x
_atom_site_fract_y
_atom_site_fract_z
Si Si1 0.659422 0.946101 0.959191
Si Si2 0.147557 0.835979 0.337751
Si Si3 0.219170 0.329513 0.736108
Si Si4 0.990044 0.207736 0.967652
Si Si5 0.448071 0.827447 0.353045
O O1 0.677992 0.846493 0.897805
O O2 0.574846 0.794924 0.954053
O O3 0.580310 0.123540 0.896914
O O4 0.775950 0.976429 0.072470
O O5 0.206035 0.797391 0.295953
O O6 0.000000 0.862848 0.250000
O O7 0.362536 0.346004 0.794486
O O8 0.143573 0.508411 0.714429
O O9 0.145925 0.243834 0.633295
O O10 0.022079 0.325154 0.050829
O O11 0.000000 0.000000 0.000000
#
# Coordination Sequence:
#
# PCOD9288083 Si02
#       5
#     8   8   8   8   8
#     4  10  22  38  63  92 126 170 213 274 312 388
#     4  11  20  37  62  93 124 171 227 249 327 395
#     4  11  22  35  66  91 120 172 208 268 318 385
#     4  11  22  37  59  95 127 158 209 268 320 374
#     4  11  22  41  60  98 128 162 217 270 323 378
#
# _framework density 25.489924999999999
#
# number of rings (size 3 to 8) (size 9 to 14) (size 15 to 20)
#    0.000    1.200    6.000    3.600    0.000    0.000 
#    0.000    0.000    0.000   14.400    0.000    1.400 
#    0.000    0.000    0.000    0.000    0.000    0.000 
#
# Total GULP energy -111598.660143 kJ/mol
# GULP energy per Si atom -5579.933007 kJ/mol
# Density = 2.543191 g / cm^3
# Si number density = 25.489925 Si / 1000 Ang^3
#
#
#
# Elastic Constant Matrix: (Units=GPa)
#
#
# Indices 1 2 3 4 5 6 
#
# 1 51.9688 2.8686 26.5080 0.0000 14.5765 0.0000
# 2 2.8686 64.0541 12.3331 0.0000 -2.0502 0.0000
# 3 26.5080 12.3331 183.2222 0.0000 36.6223 0.0000
# 4 0.0000 0.0000 0.0000 24.5009 0.0000 10.9109
# 5 14.5765 -2.0502 36.6223 0.0000 43.6317 0.0000
# 6 0.0000 0.0000 0.0000 10.9109 0.0000 30.4572
#
#
#
# Elastic Compliance Matrix: (Units=1/GPa)
#
#
# Indices 1 2 3 4 5 6 
#
# 1 0.021890 -0.000782 -0.001977 0.000000 -0.005690 0.000000
# 2 -0.000782 0.015986 -0.001400 0.000000 0.002188 0.000000
# 3 -0.001977 -0.001400 0.006872 0.000000 -0.005174 0.000000
# 4 0.000000 0.000000 0.000000 0.048562 0.000000 -0.017397
# 5 -0.005690 0.002188 -0.005174 0.000000 0.029265 0.000000
# 6 0.000000 0.000000 0.000000 -0.017397 0.000000 0.039065
#
#
# Mechanical properties :
#
#
# Convention : Reuss Voigt Hill
#
# Bulk Modulus (GPa) = 27.44950 42.51830 34.98390
# Shear Modulus (GPa) = 27.45706 36.88699 32.17202
#
# Velocity S-wave (km/s) = 3.28559 3.80823 3.55652
# Velocity P-wave (km/s) = 5.01853 6.00445 5.53349
#
# Compressibility (1/GPa) = 0.03643054
#
# Stress axis : x y z
#
# Youngs Moduli (GPa) = 45.68314 62.55306 145.51359
#
# Poissons Ratio (x) = 0.04891 0.28767
# Poissons Ratio (y) = 0.03572 0.20375
# Poissons Ratio (z) = 0.09031 0.08759
#
# Static dielectric constant tensor:
#      x y z
#    x 2.076630 0.000000 0.108150 
#    y 0.000000 2.223200 0.000000 
#    z 0.108150 0.000000 1.985400 
# 
# From -- ./inp_files/247685.got.cif
#   From: 2010.05.17/outbox.cif.g08.bks.cpg/sg15_124_cif.got.tgz:247685.got - 2010.06.03 18:47:42.
