data_PCOD9288359
_publ_section_title
;
Structure prediction by ZEFSAII (Michael W. Deem and Ramdas Pophale) SiO2 
 PCOD9288359
Probable space group: C 2/C
;
_chemical_formula_sum "Si O2"
_cell_formula_units_Z 56
_cell_length_a 22.829284
_cell_length_b 5.564716
_cell_length_c 17.511455
_cell_angle_alpha 90.000000
_cell_angle_beta 96.143289
_cell_angle_gamma 90.000000
_cell_volume 2211.853450
_symmetry_space_group_name_H-M "C 2/C"
_symmetry_group_IT_number 15
_symmetry_cell_setting 'monoclinic'
loop_
_space_group_symop_operation_xyz
x,y,z
-x,y,1/2-z
-x,-y,-z
x,-y,1/2+z
1/2+x,1/2+y,z
1/2-x,1/2+y,1/2-z
1/2-x,1/2-y,-z
1/2+x,1/2-y,1/2+z
loop_
_atom_site_type_symbol
_atom_site_label
_atom_site_fract_x
_atom_site_fract_y
_atom_site_fract_z
Si Si1 0.969348 0.580263 0.115691
Si Si2 0.681847 0.069645 0.084755
Si Si3 0.250000 0.750000 0.500000
Si Si4 0.606973 0.721295 0.320024
Si Si5 0.740725 0.199146 0.789750
Si Si6 0.000000 0.938963 0.250000
Si Si7 0.366730 0.548874 0.016680
Si Si8 0.432177 0.776370 0.437123
O O1 0.915737 0.482768 0.158754
O O2 0.000259 0.775158 0.173739
O O3 0.012813 0.353955 0.105411
O O4 0.948271 0.650944 0.027615
O O5 0.709397 0.283685 0.137973
O O6 0.736568 0.896330 0.077536
O O7 0.623532 0.930207 0.101928
O O8 0.666060 0.199395 0.002710
O O9 0.318274 0.657141 0.508737
O O10 0.673945 0.740675 0.303883
O O11 0.559291 0.599123 0.258703
O O12 0.604377 0.567102 0.397632
O O13 0.758623 0.428929 0.741064
O O14 0.410961 0.495105 0.952239
#
# Coordination Sequence:
#
# PCOD9288359 Si02
#       8
#     8   8   4   8   8   4   8   8
#     4  11  25  47  72 109 152 201 265 322 390 469
#     4  11  24  43  75 108 146 193 248 330 387 467
#     4  10  22  38  70 108 138 188 240 318 382 456
#     4  12  27  49  76 106 148 212 258 326 397 485
#     4  12  33  52  78 117 164 210 260 325 404 496
#     4  12  28  48  72 106 152 216 258 324 394 488
#     4  11  22  42  74 109 144 185 259 316 395 459
#     4  10  24  43  75 110 150 192 261 331 380 458
#
# _framework density 25.318131999999999
#
# number of rings (size 3 to 8) (size 9 to 14) (size 15 to 20)
#    0.000    0.857    4.286    0.857    8.000    2.857 
#    0.000    0.000    0.000    0.000    0.000    0.000 
#    0.000    0.000    0.000    0.000    0.000    0.000 
#
# Total GULP energy -156129.204931 kJ/mol
# GULP energy per Si atom -5576.043033 kJ/mol
# Density = 2.526051 g / cm^3
# Si number density = 25.318132 Si / 1000 Ang^3
#
#
#
# Elastic Constant Matrix: (Units=GPa)
#
#
# Indices 1 2 3 4 5 6 
#
# 1 115.1301 10.8961 24.5866 0.0000 -8.8106 0.0000
# 2 10.8961 65.2949 29.2120 0.0000 2.6001 0.0000
# 3 24.5866 29.2120 77.0054 0.0000 25.2557 0.0000
# 4 0.0000 0.0000 0.0000 48.2388 0.0000 12.5651
# 5 -8.8106 2.6001 25.2557 0.0000 27.6539 0.0000
# 6 0.0000 0.0000 0.0000 12.5651 0.0000 17.6746
#
#
#
# Elastic Compliance Matrix: (Units=1/GPa)
#
#
# Indices 1 2 3 4 5 6 
#
# 1 0.010848 0.000947 -0.007034 0.000000 0.009791 0.000000
# 2 0.000947 0.019426 -0.010238 0.000000 0.007825 0.000000
# 3 -0.007034 -0.010238 0.027888 0.000000 -0.026748 0.000000
# 4 0.000000 0.000000 0.000000 0.025441 0.000000 -0.018087
# 5 0.009791 0.007825 -0.026748 0.000000 0.062973 0.000000
# 6 0.000000 0.000000 0.000000 -0.018087 0.000000 0.069436
#
#
# Mechanical properties :
#
#
# Convention : Reuss Voigt Hill
#
# Bulk Modulus (GPa) = 39.19751 42.97999 41.08875
# Shear Modulus (GPa) = 19.44269 31.56253 25.50261
#
# Velocity S-wave (km/s) = 2.77417 3.53461 3.17722
# Velocity P-wave (km/s) = 5.07710 5.80265 5.45196
#
# Compressibility (1/GPa) = 0.02551183
#
# Stress axis : x y z
#
# Youngs Moduli (GPa) = 92.18652 51.47787 35.85742
#
# Poissons Ratio (x) = -0.04873 0.25221
# Poissons Ratio (y) = -0.08727 0.36710
# Poissons Ratio (z) = 0.64841 0.52703
#
# Static dielectric constant tensor:
#      x y z
#    x 1.939550 0.000000 0.104060 
#    y 0.000000 2.165400 0.000000 
#    z 0.104060 0.000000 1.885640 
# 
# From -- ./inp_files/254092.got.cif
#   From: 2010.05.17/outbox.cif.g08.bks.cpg/sg15_128_cif.got.tgz:254092.got - 2010.06.03 18:47:42.
