data_PCOD9288261
_publ_section_title
;
Structure prediction by ZEFSAII (Michael W. Deem and Ramdas Pophale) SiO2 
 PCOD9288261
Probable space group: C 2/C
;
_chemical_formula_sum "Si O2"
_cell_formula_units_Z 48
_cell_length_a 9.896416
_cell_length_b 21.695587
_cell_length_c 21.539696
_cell_angle_alpha 90.000000
_cell_angle_beta 33.546437
_cell_angle_gamma 90.000000
_cell_volume 2555.699218
_symmetry_space_group_name_H-M "C 2/C"
_symmetry_group_IT_number 15
_symmetry_cell_setting 'monoclinic'
loop_
_space_group_symop_operation_xyz
x,y,z
-x,y,1/2-z
-x,-y,-z
x,-y,1/2+z
1/2+x,1/2+y,z
1/2-x,1/2+y,1/2-z
1/2-x,1/2-y,-z
1/2+x,1/2-y,1/2+z
loop_
_atom_site_type_symbol
_atom_site_label
_atom_site_fract_x
_atom_site_fract_y
_atom_site_fract_z
Si Si1 0.000000 0.870230 0.750000
Si Si2 0.461875 0.340481 0.411943
Si Si3 0.417478 0.204636 0.157366
Si Si4 0.273106 0.936739 0.533398
Si Si5 0.506805 0.573184 0.484328
Si Si6 0.000000 0.636520 0.250000
Si Si7 0.190104 0.937332 0.126347
O O1 0.779647 0.829450 0.808857
O O2 0.893981 0.908657 0.848252
O O3 0.605407 0.277672 0.343559
O O4 0.554418 0.384218 0.432564
O O5 0.434795 0.380956 0.360816
O O6 0.187912 0.317943 0.534175
O O7 0.394948 0.180382 0.236246
O O8 0.554387 0.920307 0.439020
O O9 0.173850 0.916731 0.504710
O O10 0.251457 0.010594 0.551574
O O11 0.500000 0.500000 0.500000
O O12 0.779466 0.594229 0.359582
O O13 0.000000 0.961586 0.250000
#
# Coordination Sequence:
#
# PCOD9288261 Si02
#       7
#     4   8   8   8   8   4   8
#     4  12  20  42  66  90 124 166 212 262 298 384
#     4  10  22  42  59  88 126 166 206 253 312 367
#     4  10  22  40  63  86 124 167 211 249 302 381
#     4  11  23  39  64  97 122 163 210 258 321 377
#     4  11  22  40  63  94 130 157 207 266 319 377
#     4  10  22  38  66  92 120 176 204 248 328 376
#     4  11  23  39  63  92 128 162 204 263 319 376
#
# _framework density 18.781552999999999
#
# number of rings (size 3 to 8) (size 9 to 14) (size 15 to 20)
#    0.000    1.333    5.833    0.000    1.167    1.333 
#    3.000    0.833    0.000    0.000    0.000    0.000 
#    0.000    0.000    0.000    0.000    0.000    0.000 
#
# Total GULP energy -133966.896224 kJ/mol
# GULP energy per Si atom -5581.954009 kJ/mol
# Density = 1.873880 g / cm^3
# Si number density = 18.781553 Si / 1000 Ang^3
#
#
#
# Elastic Constant Matrix: (Units=GPa)
#
#
# Indices 1 2 3 4 5 6 
#
# 1 142.9456 62.0321 18.6185 -0.0482 5.4597 0.0332
# 2 62.0321 125.7604 21.2570 -0.0344 6.1829 0.0226
# 3 18.6185 21.2570 48.2095 -0.0309 3.2033 0.0177
# 4 -0.0482 -0.0344 -0.0309 13.0226 0.0210 3.8059
# 5 5.4597 6.1829 3.2033 0.0210 21.4625 -0.0208
# 6 0.0332 0.0226 0.0177 3.8059 -0.0208 2.6260
#
#
#
# Elastic Compliance Matrix: (Units=1/GPa)
#
#
# Indices 1 2 3 4 5 6 
#
# 1 0.009036 -0.004143 -0.001605 0.000073 -0.000866 -0.000180
# 2 -0.004143 0.010571 -0.002958 0.000030 -0.001550 -0.000074
# 3 -0.001605 -0.002958 0.022810 0.000139 -0.002144 -0.000326
# 4 0.000073 0.000030 0.000139 0.133221 -0.000365 -0.193085
# 5 -0.000866 -0.001550 -0.002144 -0.000365 0.047581 0.000944
# 6 -0.000180 -0.000074 -0.000326 -0.193085 0.000944 0.660666
#
#
# Mechanical properties :
#
#
# Convention : Reuss Voigt Hill
#
# Bulk Modulus (GPa) = 39.99332 57.85896 48.92614
# Shear Modulus (GPa) = 5.49673 21.75609 13.62641
#
# Velocity S-wave (km/s) = 1.71261 3.40718 2.69647
# Velocity P-wave (km/s) = 5.02502 6.80821 5.98342
#
# Compressibility (1/GPa) = 0.02500417
#
# Stress axis : x y z
#
# Youngs Moduli (GPa) = 110.67142 94.59457 43.84090
#
# Poissons Ratio (x) = 0.39191 0.07037
# Poissons Ratio (y) = 0.45851 0.12969
# Poissons Ratio (z) = 0.17765 0.27983
#
# Static dielectric constant tensor:
#      x y z
#    x 1.631730 0.000000 0.014350 
#    y 0.000000 1.644840 0.000000 
#    z 0.014350 0.000000 1.637980 
# 
# From -- ./inp_files/79318.got.cif
#   From: 2010.05.17/outbox.cif.g08.bks.cpg/sg15_40_cif.got.tgz:79318.got - 2010.06.03 18:47:42.
