data_PCOD9288680
_publ_section_title
;
Structure prediction by ZEFSAII (Michael W. Deem and Ramdas Pophale) SiO2 
 PCOD9288680
Probable space group: C 2/C
;
_chemical_formula_sum "Si O2"
_cell_formula_units_Z 52
_cell_length_a 5.823578
_cell_length_b 25.205595
_cell_length_c 15.321935
_cell_angle_alpha 90.000000
_cell_angle_beta 71.040865
_cell_angle_gamma 90.000000
_cell_volume 2127.046890
_symmetry_space_group_name_H-M "C 2/C"
_symmetry_group_IT_number 15
_symmetry_cell_setting 'monoclinic'
loop_
_space_group_symop_operation_xyz
x,y,z
-x,y,1/2-z
-x,-y,-z
x,-y,1/2+z
1/2+x,1/2+y,z
1/2-x,1/2+y,1/2-z
1/2-x,1/2-y,-z
1/2+x,1/2-y,1/2+z
loop_
_atom_site_type_symbol
_atom_site_label
_atom_site_fract_x
_atom_site_fract_y
_atom_site_fract_z
Si Si1 0.972806 0.585382 0.471134
Si Si2 0.248861 0.599749 0.823771
Si Si3 0.000000 0.312032 0.250000
Si Si4 0.066477 0.760366 0.401666
Si Si5 0.313478 0.826806 0.850255
Si Si6 0.293756 0.020803 0.206176
Si Si7 0.334220 0.666744 0.464020
O O1 0.770014 0.584578 0.571582
O O2 0.887875 0.628441 0.410534
O O3 0.084760 0.537177 0.401736
O O4 0.202960 0.611632 0.491220
O O5 0.500000 0.618708 0.750000
O O6 0.205547 0.542766 0.784980
O O7 0.070392 0.647718 0.819637
O O8 0.222456 0.275924 0.191487
O O9 0.153977 0.712579 0.453787
O O10 0.035220 0.811663 0.465471
O O11 0.840661 0.733910 0.381395
O O12 0.500000 0.831194 0.750000
O O13 0.035524 0.837468 0.864164
O O14 0.500000 0.041019 0.250000
O O15 0.000000 0.036307 0.250000
#
# Coordination Sequence:
#
# PCOD9288680 Si02
#       7
#     8   8   4   8   8   8   8
#     4  11  25  43  72 103 141 188 239 305 380 437
#     4  11  26  47  69 103 139 187 248 307 370 447
#     4  12  22  42  68  94 140 184 244 298 368 428
#     4  10  22  39  63  92 135 185 231 295 356 433
#     4  11  24  40  64 101 137 185 246 292 371 439
#     4  11  26  51  79 113 149 193 244 310 379 456
#     4  10  22  41  62  95 138 178 236 293 356 448
#
# _framework density 24.447040000000001
#
# number of rings (size 3 to 8) (size 9 to 14) (size 15 to 20)
#    0.000    1.231    2.308    2.308    6.462    3.077 
#    0.000    2.308    0.000    0.000    0.000    0.000 
#    0.000    0.000    0.000    0.000    0.000    0.000 
#
# Total GULP energy -145126.155893 kJ/mol
# GULP energy per Si atom -5581.775227 kJ/mol
# Density = 2.439140 g / cm^3
# Si number density = 24.447040 Si / 1000 Ang^3
#
#
#
# Elastic Constant Matrix: (Units=GPa)
#
#
# Indices 1 2 3 4 5 6 
#
# 1 59.9372 8.9252 29.4082 0.0000 -15.4400 0.0000
# 2 8.9252 51.5517 -19.4857 0.0000 -0.3643 0.0000
# 3 29.4082 -19.4857 121.3470 0.0000 -12.6658 0.0000
# 4 0.0000 0.0000 0.0000 -29.3424 0.0000 -10.5286
# 5 -15.4400 -0.3643 -12.6658 0.0000 33.7749 0.0000
# 6 0.0000 0.0000 0.0000 -10.5286 0.0000 18.8099
#
#
#
# Elastic Compliance Matrix: (Units=1/GPa)
#
#
# Indices 1 2 3 4 5 6 
#
# 1 0.022354 -0.005900 -0.005521 0.000000 0.008085 0.000000
# 2 -0.005900 0.022285 0.004945 0.000000 -0.000602 0.000000
# 3 -0.005521 0.004945 0.010527 0.000000 0.001477 0.000000
# 4 0.000000 0.000000 0.000000 -0.028380 0.000000 -0.015885
# 5 0.008085 -0.000602 0.001477 0.000000 0.033851 0.000000
# 6 0.000000 0.000000 0.000000 -0.015885 0.000000 0.044272
#
#
# Mechanical properties :
#
#
# Convention : Reuss Voigt Hill
#
# Bulk Modulus (GPa) = 23.68838 30.05903 26.87370
# Shear Modulus (GPa) = 37.89851 18.91437 28.40644
#
# Velocity S-wave (km/s) = 3.94157 2.78454 3.41245
# Velocity P-wave (km/s) = 5.51591 4.76030 5.15198
#
# Compressibility (1/GPa) = 0.04221479
#
# Stress axis : x y z
#
# Youngs Moduli (GPa) = 44.73414 44.87422 94.99249
#
# Poissons Ratio (x) = 0.26476 0.52446
# Poissons Ratio (y) = 0.26393 -0.46978
# Poissons Ratio (z) = 0.24698 -0.22192
#
# Static dielectric constant tensor:
#      x y z
#    x 2.053950 0.000000 0.038750 
#    y 0.000000 1.898180 0.000000 
#    z 0.038750 0.000000 2.040820 
# 
# From -- ./inp_files/186044.got.cif
#   From: 2010.05.17/outbox.cif.g08.bks.cpg/sg15_94_cif.got.tgz:186044.got - 2010.06.03 18:47:42.
