data_PCOD9288951
_publ_section_title
;
Structure prediction by ZEFSAII (Michael W. Deem and Ramdas Pophale) SiO2 
 PCOD9288951
Probable space group: C 2/C
;
_chemical_formula_sum "Si O2"
_cell_formula_units_Z 52
_cell_length_a 9.843856
_cell_length_b 16.764703
_cell_length_c 21.099296
_cell_angle_alpha 90.000000
_cell_angle_beta 42.079546
_cell_angle_gamma 90.000000
_cell_volume 2333.504722
_symmetry_space_group_name_H-M "C 2/C"
_symmetry_group_IT_number 15
_symmetry_cell_setting 'monoclinic'
loop_
_space_group_symop_operation_xyz
x,y,z
-x,y,1/2-z
-x,-y,-z
x,-y,1/2+z
1/2+x,1/2+y,z
1/2-x,1/2+y,1/2-z
1/2-x,1/2-y,-z
1/2+x,1/2-y,1/2+z
loop_
_atom_site_type_symbol
_atom_site_label
_atom_site_fract_x
_atom_site_fract_y
_atom_site_fract_z
Si Si1 0.232871 0.310041 0.945952
Si Si2 0.825492 0.751692 0.545956
Si Si3 0.655002 0.571526 0.462985
Si Si4 0.000000 0.531918 0.250000
Si Si5 0.500000 0.772696 0.250000
Si Si6 0.672946 0.092670 0.779108
Si Si7 0.500000 0.325712 0.250000
Si Si8 0.142563 0.525847 0.508178
O O1 0.358308 0.278938 0.843439
O O2 0.250000 0.250000 0.000000
O O3 0.290932 0.401062 0.940250
O O4 0.000510 0.309861 0.003627
O O5 0.750000 0.750000 0.500000
O O6 0.928769 0.839618 0.515715
O O7 0.644807 0.730030 0.656808
O O8 0.500000 0.500000 0.500000
O O9 0.858386 0.575250 0.349386
O O10 0.736570 0.548372 0.504328
O O11 0.836400 0.477487 0.269131
O O12 0.382059 0.829387 0.242155
O O13 0.496974 0.065197 0.888437
O O14 0.868777 0.116368 0.750604
O O15 0.000000 0.500000 0.500000
#
# Coordination Sequence:
#
# PCOD9288951 Si02
#       8
#     8   8   8   4   4   8   4   8
#     4  12  23  44  71  98 129 179 229 275 327 401
#     4  12  26  41  68 101 134 174 222 278 335 397
#     4  11  25  42  68  97 133 178 220 272 336 400
#     4   9  23  44  64  94 134 168 230 264 332 404
#     4  11  22  42  72  94 131 172 240 268 327 392
#     4  10  22  39  68  96 129 177 213 282 330 401
#     4  12  23  42  66 100 135 170 228 274 345 384
#     4  11  23  44  64  99 138 172 216 280 339 396
#
# _framework density 22.284077
#
# number of rings (size 3 to 8) (size 9 to 14) (size 15 to 20)
#    0.000    0.923    3.077    3.231    6.462    0.000 
#    0.000    8.462    0.000    0.000    0.000    0.000 
#    0.000    0.000    0.000    0.000    0.000    0.000 
#
# Total GULP energy -145328.560677 kJ/mol
# GULP energy per Si atom -5589.560026 kJ/mol
# Density = 2.223336 g / cm^3
# Si number density = 22.284077 Si / 1000 Ang^3
#
#
#
# Elastic Constant Matrix: (Units=GPa)
#
#
# Indices 1 2 3 4 5 6 
#
# 1 126.7331 1.8944 3.6391 -0.0046 12.8957 0.0047
# 2 1.8944 75.8240 0.2250 -0.0059 7.6034 0.0044
# 3 3.6391 0.2250 109.0738 -0.0102 16.3188 0.0121
# 4 -0.0046 -0.0059 -0.0102 10.9562 0.0020 -9.2114
# 5 12.8957 7.6034 16.3188 0.0020 30.9096 -0.0039
# 6 0.0047 0.0044 0.0121 -9.2114 -0.0039 30.6653
#
#
#
# Elastic Compliance Matrix: (Units=1/GPa)
#
#
# Indices 1 2 3 4 5 6 
#
# 1 0.008249 0.000156 0.000266 0.000004 -0.003620 -0.000001
# 2 0.000156 0.013551 0.000516 0.000008 -0.003671 0.000000
# 3 0.000266 0.000516 0.009982 0.000009 -0.005508 -0.000002
# 4 0.000004 0.000008 0.000009 0.122112 -0.000012 0.036681
# 5 -0.003620 -0.003671 -0.005508 -0.000012 0.037674 0.000004
# 6 -0.000001 0.000000 -0.000002 0.036681 0.000004 0.043629
#
#
# Mechanical properties :
#
#
# Convention : Reuss Voigt Hill
#
# Bulk Modulus (GPa) = 29.70965 35.90533 32.80749
# Shear Modulus (GPa) = 20.44653 34.89771 27.67212
#
# Velocity S-wave (km/s) = 3.03238 3.96161 3.52773
# Velocity P-wave (km/s) = 5.06178 6.08879 5.59888
#
# Compressibility (1/GPa) = 0.03365910
#
# Stress axis : x y z
#
# Youngs Moduli (GPa) = 121.22650 73.79464 100.17783
#
# Poissons Ratio (x) = -0.01152 -0.02666
# Poissons Ratio (y) = -0.01893 -0.05170
# Poissons Ratio (z) = -0.03226 -0.03808
#
# Static dielectric constant tensor:
#      x y z
#    x 1.192970 0.000120 -0.830030 
#    y 0.000120 1.846730 0.000180 
#    z -0.830030 0.000180 0.589470 
# 
# From -- ./inp_files/182883.got.cif
#   From: 2010.05.17/outbox.cif.g08.bks.cpg/sg15_92_cif.got.tgz:182883.got - 2010.06.03 18:47:42.
