data_PCOD9288560
_publ_section_title
;
Structure prediction by ZEFSAII (Michael W. Deem and Ramdas Pophale) SiO2 
 PCOD9288560
Probable space group: C 2/C
;
_chemical_formula_sum "Si O2"
_cell_formula_units_Z 40
_cell_length_a 30.782104
_cell_length_b 11.773126
_cell_length_c 5.231387
_cell_angle_alpha 90.000000
_cell_angle_beta 117.074359
_cell_angle_gamma 90.000000
_cell_volume 1688.107816
_symmetry_space_group_name_H-M "C 2/C"
_symmetry_group_IT_number 15
_symmetry_cell_setting 'monoclinic'
loop_
_space_group_symop_operation_xyz
x,y,z
-x,y,1/2-z
-x,-y,-z
x,-y,1/2+z
1/2+x,1/2+y,z
1/2-x,1/2+y,1/2-z
1/2-x,1/2-y,-z
1/2+x,1/2-y,1/2+z
loop_
_atom_site_type_symbol
_atom_site_label
_atom_site_fract_x
_atom_site_fract_y
_atom_site_fract_z
Si Si1 0.312198 0.427743 0.914504
Si Si2 0.556691 0.078452 0.165059
Si Si3 0.876509 0.732236 0.859659
Si Si4 0.482104 0.707641 0.454849
Si Si5 0.201011 0.423962 0.600530
O O1 0.317086 0.528750 0.717787
O O2 0.351441 0.336513 0.933271
O O3 0.256954 0.381305 0.735522
O O4 0.605074 0.147081 0.368857
O O5 0.515029 0.175600 0.047776
O O6 0.554459 0.990334 0.396171
O O7 0.838199 0.671255 0.571902
O O8 0.925310 0.765072 0.832780
O O9 0.500000 0.642148 0.750000
O O10 0.500000 0.648426 0.250000
O O11 0.195460 0.482458 0.860588
#
# Coordination Sequence:
#
# PCOD9288560 Si02
#       5
#     8   8   8   8   8
#     4  10  24  44  63  86 119 158 205 258 301 339
#     4  11  23  37  56  88 126 156 185 233 297 362
#     4  11  23  39  65  89 120 163 204 240 296 365
#     4  10  23  37  55  85 124 161 194 234 289 355
#     4  10  22  39  61  94 126 153 194 246 302 365
#
# _framework density 23.695169
#
# number of rings (size 3 to 8) (size 9 to 14) (size 15 to 20)
#    0.000    1.600    0.000    4.200    0.000   21.600 
#    0.000    6.000    0.000   15.600    0.000    0.000 
#    0.000    0.000    0.000    0.000    0.000    0.000 
#
# Total GULP energy -111944.170166 kJ/mol
# GULP energy per Si atom -5597.208508 kJ/mol
# Density = 2.364124 g / cm^3
# Si number density = 23.695169 Si / 1000 Ang^3
#
#
#
# Elastic Constant Matrix: (Units=GPa)
#
#
# Indices 1 2 3 4 5 6 
#
# 1 144.1631 31.9937 19.6833 0.0000 6.5523 0.0000
# 2 31.9937 36.1362 4.2891 0.0000 14.7610 0.0000
# 3 19.6833 4.2891 92.7773 0.0000 -28.9038 0.0000
# 4 0.0000 0.0000 0.0000 -8.3539 0.0000 11.6588
# 5 6.5523 14.7610 -28.9038 0.0000 44.7367 0.0000
# 6 0.0000 0.0000 0.0000 11.6588 0.0000 18.4135
#
#
#
# Elastic Compliance Matrix: (Units=1/GPa)
#
#
# Indices 1 2 3 4 5 6 
#
# 1 0.008846 -0.007823 -0.001395 0.000000 0.000384 0.000000
# 2 -0.007823 0.041778 -0.005270 0.000000 -0.016044 0.000000
# 3 -0.001395 -0.005270 0.014928 0.000000 0.011588 0.000000
# 4 0.000000 0.000000 0.000000 -0.063549 0.000000 0.040237
# 5 0.000384 -0.016044 0.011588 0.000000 0.035078 0.000000
# 6 0.000000 0.000000 0.000000 0.040237 0.000000 0.028831
#
#
# Mechanical properties :
#
#
# Convention : Reuss Voigt Hill
#
# Bulk Modulus (GPa) = 27.34053 42.77874 35.05964
# Shear Modulus (GPa) = 46.69367 25.43330 36.06349
#
# Velocity S-wave (km/s) = 4.44396 3.27976 3.90548
# Velocity P-wave (km/s) = 6.15591 5.69521 5.93003
#
# Compressibility (1/GPa) = 0.03657574
#
# Stress axis : x y z
#
# Youngs Moduli (GPa) = 113.04817 23.93578 66.98656
#
# Poissons Ratio (x) = 0.18725 0.09347
# Poissons Ratio (y) = 0.88438 0.35302
# Poissons Ratio (z) = 0.15774 0.12614
#
# Static dielectric constant tensor:
#      x y z
#    x 1.934520 0.000000 -0.037750 
#    y 0.000000 1.866570 0.000000 
#    z -0.037750 0.000000 1.968520 
# 
# From -- ./inp_files/18044.got.cif
#   From: 2010.05.17/outbox.cif.g08.bks.cpg/sg15_10_cif.got.tgz:18044.got - 2010.06.03 18:47:42.
