data_PCOD9288326
_publ_section_title
;
Structure prediction by ZEFSAII (Michael W. Deem and Ramdas Pophale) SiO2 
 PCOD9288326
Probable space group: C 2/C
;
_chemical_formula_sum "Si O2"
_cell_formula_units_Z 56
_cell_length_a 8.927857
_cell_length_b 21.726306
_cell_length_c 14.416451
_cell_angle_alpha 90.000000
_cell_angle_beta 121.937277
_cell_angle_gamma 90.000000
_cell_volume 2373.059800
_symmetry_space_group_name_H-M "C 2/C"
_symmetry_group_IT_number 15
_symmetry_cell_setting 'monoclinic'
loop_
_space_group_symop_operation_xyz
x,y,z
-x,y,1/2-z
-x,-y,-z
x,-y,1/2+z
1/2+x,1/2+y,z
1/2-x,1/2+y,1/2-z
1/2-x,1/2-y,-z
1/2+x,1/2-y,1/2+z
loop_
_atom_site_type_symbol
_atom_site_label
_atom_site_fract_x
_atom_site_fract_y
_atom_site_fract_z
Si Si1 0.083582 0.203973 0.943370
Si Si2 0.515049 0.269387 0.888740
Si Si3 0.169928 0.949414 0.865119
Si Si4 0.548558 0.133995 0.970886
Si Si5 0.811792 0.708670 0.331979
Si Si6 0.141841 0.465525 0.216653
Si Si7 0.483286 0.427410 0.133897
O O1 0.931184 0.235932 0.832217
O O2 0.114792 0.133233 0.931679
O O3 0.250000 0.250000 0.000000
O O4 0.980727 0.205301 0.007066
O O5 0.338433 0.301675 0.792390
O O6 0.505593 0.195223 0.897639
O O7 0.818406 0.221356 0.122792
O O8 0.261295 0.899819 0.960347
O O9 0.000000 0.927545 0.750000
O O10 0.298173 0.976149 0.826116
O O11 0.115174 0.007889 0.909746
O O12 0.551521 0.159255 0.079266
O O13 0.427045 0.082563 0.883840
O O14 0.312278 0.436676 0.325136
O O15 0.000000 0.478427 0.250000
O O16 0.500000 0.420968 0.250000
#
# Coordination Sequence:
#
# PCOD9288326 Si02
#       7
#     8   8   8   8   8   8   8
#     4  11  23  36  64  92 128 169 215 262 337 397
#     4  10  24  42  62  97 127 169 218 275 327 384
#     4   9  22  43  63  91 127 178 209 265 332 386
#     4  11  21  38  70  88 130 169 218 256 337 391
#     4  10  24  41  64  97 130 163 222 277 325 386
#     4  10  22  38  68  94 122 169 220 272 314 384
#     4   9  22  41  63  91 135 170 219 263 326 400
#
# _framework density 23.598223999999998
#
# number of rings (size 3 to 8) (size 9 to 14) (size 15 to 20)
#    0.000    2.286    0.000    3.000   18.000    0.000 
#    0.000    4.286    0.000    0.000    0.000    0.000 
#    0.000    0.000    0.000    0.000    0.000    0.000 
#
# Total GULP energy -155963.697046 kJ/mol
# GULP energy per Si atom -5570.132037 kJ/mol
# Density = 2.354451 g / cm^3
# Si number density = 23.598224 Si / 1000 Ang^3
#
#
#
# Elastic Constant Matrix: (Units=GPa)
#
#
# Indices 1 2 3 4 5 6 
#
# 1 78.7391 12.6844 21.6294 0.0000 15.6849 0.0000
# 2 12.6844 110.4431 25.6664 0.0000 17.8712 0.0000
# 3 21.6294 25.6664 50.3781 0.0000 6.6469 0.0000
# 4 0.0000 0.0000 0.0000 28.0005 0.0000 5.1711
# 5 15.6849 17.8712 6.6469 0.0000 26.6905 0.0000
# 6 0.0000 0.0000 0.0000 5.1711 0.0000 23.2484
#
#
#
# Elastic Compliance Matrix: (Units=1/GPa)
#
#
# Indices 1 2 3 4 5 6 
#
# 1 0.015941 0.000989 -0.006229 0.000000 -0.008479 0.000000
# 2 0.000989 0.011267 -0.005266 0.000000 -0.006814 0.000000
# 3 -0.006229 -0.005266 0.025083 0.000000 0.000940 0.000000
# 4 0.000000 0.000000 0.000000 0.037244 0.000000 -0.008284
# 5 -0.008479 -0.006814 0.000940 0.000000 0.046777 0.000000
# 6 0.000000 0.000000 0.000000 -0.008284 0.000000 0.044856
#
#
# Mechanical properties :
#
#
# Convention : Reuss Voigt Hill
#
# Bulk Modulus (GPa) = 31.97060 39.94676 35.95868
# Shear Modulus (GPa) = 23.51752 27.55988 25.53870
#
# Velocity S-wave (km/s) = 3.16029 3.42113 3.29329
# Velocity P-wave (km/s) = 5.18593 5.70703 5.45271
#
# Compressibility (1/GPa) = 0.03127873
#
# Stress axis : x y z
#
# Youngs Moduli (GPa) = 62.73137 88.75311 39.86738
#
# Poissons Ratio (x) = -0.08776 0.24834
# Poissons Ratio (y) = -0.06203 0.20994
# Poissons Ratio (z) = 0.39077 0.46736
#
# Static dielectric constant tensor:
#      x y z
#    x 1.979470 0.000000 0.031880 
#    y 0.000000 2.054700 0.000000 
#    z 0.031880 0.000000 1.936190 
# 
# From -- ./inp_files/137923.got.cif
#   From: 2010.05.17/outbox.cif.g08.bks.cpg/sg15_69_cif.got.tgz:137923.got - 2010.06.03 18:47:42.
