data_PCOD9288197
_publ_section_title
;
Structure prediction by ZEFSAII (Michael W. Deem and Ramdas Pophale) SiO2 
 PCOD9288197
Probable space group: C 2/C
;
_chemical_formula_sum "Si O2"
_cell_formula_units_Z 60
_cell_length_a 17.661714
_cell_length_b 28.598809
_cell_length_c 12.103879
_cell_angle_alpha 90.000000
_cell_angle_beta 154.580297
_cell_angle_gamma 90.000000
_cell_volume 2624.287256
_symmetry_space_group_name_H-M "C 2/C"
_symmetry_group_IT_number 15
_symmetry_cell_setting 'monoclinic'
loop_
_space_group_symop_operation_xyz
x,y,z
-x,y,1/2-z
-x,-y,-z
x,-y,1/2+z
1/2+x,1/2+y,z
1/2-x,1/2+y,1/2-z
1/2-x,1/2-y,-z
1/2+x,1/2-y,1/2+z
loop_
_atom_site_type_symbol
_atom_site_label
_atom_site_fract_x
_atom_site_fract_y
_atom_site_fract_z
Si Si1 0.822351 0.949338 0.717101
Si Si2 0.938742 0.698797 0.354793
Si Si3 0.157197 0.865608 0.365988
Si Si4 0.415827 0.133083 0.530076
Si Si5 0.147467 0.797903 0.166144
Si Si6 0.789237 0.049999 0.699748
Si Si7 0.000000 0.825125 0.750000
Si Si8 0.752892 0.912928 0.399109
O O1 0.746133 0.899191 0.650342
O O2 0.842989 0.944992 0.611566
O O3 0.716314 0.997483 0.595491
O O4 0.998199 0.953987 0.020538
O O5 0.900788 0.671963 0.418936
O O6 0.882669 0.752067 0.299851
O O7 0.145265 0.697437 0.593462
O O8 0.810449 0.670273 0.104816
O O9 0.089633 0.842270 0.163116
O O10 0.247689 0.914495 0.449065
O O11 0.000000 0.869377 0.250000
O O12 0.500000 0.154968 0.750000
O O13 0.551481 0.093787 0.666292
O O14 0.025996 0.795921 0.896061
O O15 0.755998 0.071074 0.777175
O O16 0.838398 0.861676 0.528328
#
# Coordination Sequence:
#
# PCOD9288197 Si02
#       8
#     8   8   8   8   8   8   4   8
#     4  10  22  38  65 100 137 173 231 292 343 413
#     4  12  26  45  69 101 142 183 237 292 354 434
#     4  12  25  46  70 100 146 187 235 287 352 426
#     4  10  23  42  64  95 134 174 223 289 353 404
#     4  12  27  46  71 106 135 190 235 297 360 421
#     4  11  22  40  68  98 131 185 232 277 349 417
#     4  12  22  44  76  96 138 176 240 288 354 424
#     4  11  20  42  66  92 133 177 221 287 348 409
#
# _framework density 22.863348999999999
#
# number of rings (size 3 to 8) (size 9 to 14) (size 15 to 20)
#    0.000    0.800    4.000    2.400    0.933    7.467 
#    0.000    6.667    0.000    0.000    0.000    0.000 
#    0.000    0.000    0.000    0.000    0.000    0.000 
#
# Total GULP energy -167549.745287 kJ/mol
# GULP energy per Si atom -5584.991510 kJ/mol
# Density = 2.281131 g / cm^3
# Si number density = 22.863349 Si / 1000 Ang^3
#
#
#
# Elastic Constant Matrix: (Units=GPa)
#
#
# Indices 1 2 3 4 5 6 
#
# 1 103.6998 25.8029 15.0667 0.0000 -4.2496 0.0000
# 2 25.8029 88.8655 7.3800 0.0000 -8.7190 0.0000
# 3 15.0667 7.3800 48.5746 0.0000 -10.6841 0.0000
# 4 0.0000 0.0000 0.0000 5.6046 0.0000 -7.3106
# 5 -4.2496 -8.7190 -10.6841 0.0000 26.8327 0.0000
# 6 0.0000 0.0000 0.0000 -7.3106 0.0000 18.6733
#
#
#
# Elastic Compliance Matrix: (Units=1/GPa)
#
#
# Indices 1 2 3 4 5 6 
#
# 1 0.010789 -0.002927 -0.002998 0.000000 -0.000436 0.000000
# 2 -0.002927 0.012464 -0.000216 0.000000 0.003501 0.000000
# 3 -0.002998 -0.000216 0.023487 0.000000 0.008807 0.000000
# 4 0.000000 0.000000 0.000000 0.364632 0.000000 0.142752
# 5 -0.000436 0.003501 0.008807 0.000000 0.041843 0.000000
# 6 0.000000 0.000000 0.000000 0.142752 0.000000 0.109440
#
#
# Mechanical properties :
#
#
# Convention : Reuss Voigt Hill
#
# Bulk Modulus (GPa) = 29.01976 37.51547 33.26761
# Shear Modulus (GPa) = 8.52629 23.08146 15.80387
#
# Velocity S-wave (km/s) = 1.93322 3.18077 2.63198
# Velocity P-wave (km/s) = 4.20754 5.47119 4.88044
#
# Compressibility (1/GPa) = 0.03445928
#
# Stress axis : x y z
#
# Youngs Moduli (GPa) = 92.68619 80.23041 42.57737
#
# Poissons Ratio (x) = 0.23480 0.12764
# Poissons Ratio (y) = 0.27125 0.00920
# Poissons Ratio (z) = 0.27785 0.01733
#
# Static dielectric constant tensor:
#      x y z
#    x 1.911590 0.000000 -0.003960 
#    y 0.000000 1.855730 0.000000 
#    z -0.003960 0.000000 1.929540 
# 
# From -- ./inp_files/108607.got.cif
#   From: 2010.05.17/outbox.cif.g08.bks.cpg/sg15_55_cif.got.tgz:108607.got - 2010.06.03 18:47:42.
