data_PCOD9288681
_publ_section_title
;
Structure prediction by ZEFSAII (Michael W. Deem and Ramdas Pophale) SiO2 
 PCOD9288681
Probable space group: C 2/C
;
_chemical_formula_sum "Si O2"
_cell_formula_units_Z 32
_cell_length_a 8.069336
_cell_length_b 11.909892
_cell_length_c 13.868930
_cell_angle_alpha 90.000000
_cell_angle_beta 87.205960
_cell_angle_gamma 90.000000
_cell_volume 1331.287911
_symmetry_space_group_name_H-M "C 2/C"
_symmetry_group_IT_number 15
_symmetry_cell_setting 'monoclinic'
loop_
_space_group_symop_operation_xyz
x,y,z
-x,y,1/2-z
-x,-y,-z
x,-y,1/2+z
1/2+x,1/2+y,z
1/2-x,1/2+y,1/2-z
1/2-x,1/2-y,-z
1/2+x,1/2-y,1/2+z
loop_
_atom_site_type_symbol
_atom_site_label
_atom_site_fract_x
_atom_site_fract_y
_atom_site_fract_z
Si Si1 0.432484 0.275005 0.362174
Si Si2 0.369487 0.601143 0.489334
Si Si3 0.641685 0.968797 0.619849
Si Si4 0.244789 0.497498 0.822931
O O1 0.500000 0.254219 0.250000
O O2 0.568457 0.301730 0.441502
O O3 0.339453 0.163275 0.398965
O O4 0.317456 0.384247 0.356025
O O5 0.500000 0.500000 0.500000
O O6 0.198581 0.551019 0.535081
O O7 0.338141 0.604195 0.375739
O O8 0.759516 0.994103 0.707776
O O9 0.450640 0.988842 0.651088
#
# Coordination Sequence:
#
# PCOD9288681 Si02
#       4
#     8   8   8   8
#     4  11  21  41  64  86 124 164 197 252 308 354
#     4  10  23  40  65  91 123 161 205 251 300 365
#     4  11  22  42  62  90 127 157 204 250 305 361
#     4  10  22  39  63  93 118 162 202 250 302 359
#
# _framework density 24.036874000000001
#
# number of rings (size 3 to 8) (size 9 to 14) (size 15 to 20)
#    0.000    1.500    5.000    0.750    0.000    5.000 
#    0.000   15.000    0.000    0.000    0.000    0.000 
#    0.000    0.000    0.000    0.000    0.000    0.000 
#
# Total GULP energy -89432.452064 kJ/mol
# GULP energy per Si atom -5589.528254 kJ/mol
# Density = 2.398216 g / cm^3
# Si number density = 24.036874 Si / 1000 Ang^3
#
#
#
# Elastic Constant Matrix: (Units=GPa)
#
#
# Indices 1 2 3 4 5 6 
#
# 1 43.5413 12.3369 8.4817 0.0000 14.1832 0.0000
# 2 12.3369 115.0190 8.1922 0.0000 17.0861 0.0000
# 3 8.4817 8.1922 119.1709 0.0000 37.0389 0.0000
# 4 0.0000 0.0000 0.0000 23.7209 0.0000 -5.3827
# 5 14.1832 17.0861 37.0389 0.0000 35.5589 0.0000
# 6 0.0000 0.0000 0.0000 -5.3827 0.0000 18.9427
#
#
#
# Elastic Compliance Matrix: (Units=1/GPa)
#
#
# Indices 1 2 3 4 5 6 
#
# 1 0.026898 -0.001215 0.001955 0.000000 -0.012182 0.000000
# 2 -0.001215 0.009519 0.001040 0.000000 -0.005172 0.000000
# 3 0.001955 0.001040 0.012685 0.000000 -0.014492 0.000000
# 4 0.000000 0.000000 0.000000 0.045063 0.000000 0.012805
# 5 -0.012182 -0.005172 -0.014492 0.000000 0.050562 0.000000
# 6 0.000000 0.000000 0.000000 0.012805 0.000000 0.056429
#
#
# Mechanical properties :
#
#
# Convention : Reuss Voigt Hill
#
# Bulk Modulus (GPa) = 18.98902 37.30587 28.14744
# Shear Modulus (GPa) = 23.23962 32.22584 27.73273
#
# Velocity S-wave (km/s) = 3.11277 3.66551 3.40039
# Velocity P-wave (km/s) = 4.56467 5.78520 5.21079
#
# Compressibility (1/GPa) = 0.05266203
#
# Stress axis : x y z
#
# Youngs Moduli (GPa) = 37.17739 105.05536 78.83325
#
# Poissons Ratio (x) = 0.12762 -0.15414
# Poissons Ratio (y) = 0.04516 -0.08196
# Poissons Ratio (z) = -0.07269 -0.10922
#
# Static dielectric constant tensor:
#      x y z
#    x 1.952600 0.000000 -0.031640 
#    y 0.000000 1.879130 0.000000 
#    z -0.031640 0.000000 2.051060 
# 
# From -- ./inp_files/131729.got.cif
#   From: 2010.05.17/outbox.cif.g08.bks.cpg/sg15_66_cif.got.tgz:131729.got - 2010.06.03 18:47:42.
