data_PCOD9288254
_publ_section_title
;
Structure prediction by ZEFSAII (Michael W. Deem and Ramdas Pophale) SiO2 
 PCOD9288254
Probable space group: C 2/C
;
_chemical_formula_sum "Si O2"
_cell_formula_units_Z 48
_cell_length_a 27.928144
_cell_length_b 13.792727
_cell_length_c 14.217569
_cell_angle_alpha 90.000000
_cell_angle_beta 155.528901
_cell_angle_gamma 90.000000
_cell_volume 2268.629114
_symmetry_space_group_name_H-M "C 2/C"
_symmetry_group_IT_number 15
_symmetry_cell_setting 'monoclinic'
loop_
_space_group_symop_operation_xyz
x,y,z
-x,y,1/2-z
-x,-y,-z
x,-y,1/2+z
1/2+x,1/2+y,z
1/2-x,1/2+y,1/2-z
1/2-x,1/2-y,-z
1/2+x,1/2-y,1/2+z
loop_
_atom_site_type_symbol
_atom_site_label
_atom_site_fract_x
_atom_site_fract_y
_atom_site_fract_z
Si Si1 0.635378 0.764558 0.505047
Si Si2 0.708988 0.441820 0.068145
Si Si3 0.825262 0.909734 0.133694
Si Si4 0.774004 0.464863 0.881389
Si Si5 0.887910 0.716649 0.324183
Si Si6 0.581348 0.927322 0.198428
O O1 0.500000 0.792651 0.250000
O O2 0.649307 0.658628 0.486113
O O3 0.722494 0.847332 0.621301
O O4 0.664341 0.758217 0.667445
O O5 0.764611 0.488509 0.261722
O O6 0.803657 0.419114 0.157380
O O7 0.635438 0.524957 0.883852
O O8 0.899897 0.815114 0.287784
O O9 0.700176 0.859667 0.882860
O O10 0.813271 0.977818 0.204883
O O11 0.892426 0.472641 0.152964
O O12 0.011351 0.671562 0.568624
O O13 0.500000 0.000000 0.000000
#
# Coordination Sequence:
#
# PCOD9288254 Si02
#       6
#     8   8   8   8   8   8
#     4  12  24  40  66  93 126 168 217 263 322 386
#     4  11  24  41  63  97 127 167 215 263 323 387
#     4  10  22  38  66  88 131 168 205 262 325 375
#     4  11  21  38  65  92 126 162 211 267 313 374
#     4  11  20  40  63  94 126 169 208 261 325 374
#     4  11  21  38  64  99 125 159 213 267 314 370
#
# _framework density 21.158152000000001
#
# number of rings (size 3 to 8) (size 9 to 14) (size 15 to 20)
#    0.000    1.000    8.333    0.000    0.000    2.667 
#    0.000    2.500    0.000    0.000    0.000    0.000 
#    0.000    0.000    0.000    0.000    0.000    0.000 
#
# Total GULP energy -133711.069120 kJ/mol
# GULP energy per Si atom -5571.294547 kJ/mol
# Density = 2.111000 g / cm^3
# Si number density = 21.158152 Si / 1000 Ang^3
#
#
#
# Elastic Constant Matrix: (Units=GPa)
#
#
# Indices 1 2 3 4 5 6 
#
# 1 75.5667 40.4704 12.1274 0.0000 -29.3468 0.0000
# 2 40.4704 139.3380 11.5226 0.0000 -18.2142 0.0000
# 3 12.1274 11.5226 26.5164 0.0000 -18.1550 0.0000
# 4 0.0000 0.0000 0.0000 36.4732 0.0000 -6.4101
# 5 -29.3468 -18.2142 -18.1550 0.0000 28.9057 0.0000
# 6 0.0000 0.0000 0.0000 -6.4101 0.0000 46.3876
#
#
#
# Elastic Compliance Matrix: (Units=1/GPa)
#
#
# Indices 1 2 3 4 5 6 
#
# 1 0.025411 -0.004375 0.010624 0.000000 0.029715 0.000000
# 2 -0.004375 0.008574 -0.001872 0.000000 -0.000215 0.000000
# 3 0.010624 -0.001872 0.070607 0.000000 0.053954 0.000000
# 4 0.000000 0.000000 0.000000 0.028100 0.000000 0.003883
# 5 0.029715 -0.000215 0.053954 0.000000 0.098516 0.000000
# 6 0.000000 0.000000 0.000000 0.003883 0.000000 0.022094
#
#
# Mechanical properties :
#
#
# Convention : Reuss Voigt Hill
#
# Bulk Modulus (GPa) = 8.82241 41.07354 24.94797
# Shear Modulus (GPa) = 17.70975 34.17334 25.94155
#
# Velocity S-wave (km/s) = 2.89627 4.02324 3.50534
# Velocity P-wave (km/s) = 3.91960 6.40599 5.31037
#
# Compressibility (1/GPa) = 0.11334775
#
# Stress axis : x y z
#
# Youngs Moduli (GPa) = 39.35232 116.62867 14.16288
#
# Poissons Ratio (x) = 0.51024 -0.15047
# Poissons Ratio (y) = 0.17216 0.02651
# Poissons Ratio (z) = -0.41809 0.21832
#
# Static dielectric constant tensor:
#      x y z
#    x 1.874170 0.000000 0.036650 
#    y 0.000000 1.822280 0.000000 
#    z 0.036650 0.000000 1.825930 
# 
# From -- ./inp_files/181809.got.cif
#   From: 2010.05.17/outbox.cif.g08.bks.cpg/sg15_91_cif.got.tgz:181809.got - 2010.06.03 18:47:42.
