data_PCOD9288691
_publ_section_title
;
Structure prediction by ZEFSAII (Michael W. Deem and Ramdas Pophale) SiO2 
 PCOD9288691
Probable space group: C 2/C
;
_chemical_formula_sum "Si O2"
_cell_formula_units_Z 48
_cell_length_a 19.740408
_cell_length_b 15.048492
_cell_length_c 10.219632
_cell_angle_alpha 90.000000
_cell_angle_beta 139.528738
_cell_angle_gamma 90.000000
_cell_volume 1970.487135
_symmetry_space_group_name_H-M "C 2/C"
_symmetry_group_IT_number 15
_symmetry_cell_setting 'monoclinic'
loop_
_space_group_symop_operation_xyz
x,y,z
-x,y,1/2-z
-x,-y,-z
x,-y,1/2+z
1/2+x,1/2+y,z
1/2-x,1/2+y,1/2-z
1/2-x,1/2-y,-z
1/2+x,1/2-y,1/2+z
loop_
_atom_site_type_symbol
_atom_site_label
_atom_site_fract_x
_atom_site_fract_y
_atom_site_fract_z
Si Si1 0.144172 0.652285 0.005982
Si Si2 0.000000 0.192484 0.250000
Si Si3 0.267957 0.409810 0.066786
Si Si4 0.984333 0.839903 0.430943
Si Si5 0.327240 0.553963 0.367681
Si Si6 0.500000 0.996814 0.250000
Si Si7 0.953207 0.647542 0.349338
O O1 0.264076 0.638082 0.212995
O O2 0.084960 0.644411 0.058050
O O3 0.101668 0.743522 0.886680
O O4 0.096775 0.567727 0.860614
O O5 0.008013 0.145249 0.400996
O O6 0.362774 0.340618 0.214478
O O7 0.292303 0.473253 0.224865
O O8 0.288925 0.459320 0.959220
O O9 0.154608 0.365214 0.891351
O O10 0.014671 0.740271 0.430858
O O11 0.053106 0.916378 0.466489
O O12 0.518770 0.062893 0.398661
#
# Coordination Sequence:
#
# PCOD9288691 Si02
#       7
#     8   4   8   8   8   4   8
#     4   9  20  41  61  95 125 161 209 279 307 386
#     4   9  22  42  64  89 132 166 208 265 326 374
#     4  11  24  44  66  95 129 170 216 272 314 389
#     4  11  24  41  63  94 133 172 209 267 321 390
#     4  11  24  42  68  93 130 168 220 261 325 384
#     4  11  18  36  66  87 122 164 220 257 326 384
#     4  10  22  39  63  94 125 168 215 268 324 371
#
# _framework density 24.359459000000001
#
# number of rings (size 3 to 8) (size 9 to 14) (size 15 to 20)
#    0.000    1.667    1.667    2.000    4.667    0.667 
#    0.000    0.000    0.000    0.000    0.000    0.000 
#    0.000    0.000    0.000    0.000    0.000    0.000 
#
# Total GULP energy -134080.494298 kJ/mol
# GULP energy per Si atom -5586.687262 kJ/mol
# Density = 2.430402 g / cm^3
# Si number density = 24.359459 Si / 1000 Ang^3
#
#
#
# Elastic Constant Matrix: (Units=GPa)
#
#
# Indices 1 2 3 4 5 6 
#
# 1 72.0182 19.6935 23.6504 0.0000 -22.0280 0.0000
# 2 19.6935 56.4195 10.3719 0.0000 -13.3259 0.0000
# 3 23.6504 10.3719 99.5029 0.0000 -10.8613 0.0000
# 4 0.0000 0.0000 0.0000 38.2899 0.0000 -4.5269
# 5 -22.0280 -13.3259 -10.8613 0.0000 41.5810 0.0000
# 6 0.0000 0.0000 0.0000 -4.5269 0.0000 9.0096
#
#
#
# Elastic Compliance Matrix: (Units=1/GPa)
#
#
# Indices 1 2 3 4 5 6 
#
# 1 0.018336 -0.004032 -0.003107 0.000000 0.007610 0.000000
# 2 -0.004032 0.020245 -0.000697 0.000000 0.004170 0.000000
# 3 -0.003107 -0.000697 0.010970 0.000000 0.000996 0.000000
# 4 0.000000 0.000000 0.000000 0.027766 0.000000 0.013951
# 5 0.007610 0.004170 0.000996 0.000000 0.029677 0.000000
# 6 0.000000 0.000000 0.000000 0.013951 0.000000 0.118003
#
#
# Mechanical properties :
#
#
# Convention : Reuss Voigt Hill
#
# Bulk Modulus (GPa) = 29.51670 37.26357 33.39013
# Shear Modulus (GPa) = 19.84432 29.39108 24.61770
#
# Velocity S-wave (km/s) = 2.85730 3.47732 3.18244
# Velocity P-wave (km/s) = 4.79885 5.60829 5.21929
#
# Compressibility (1/GPa) = 0.03387913
#
# Stress axis : x y z
#
# Youngs Moduli (GPa) = 54.53795 49.39566 91.15887
#
# Poissons Ratio (x) = 0.19914 0.28325
# Poissons Ratio (y) = 0.21987 0.06352
# Poissons Ratio (z) = 0.16946 0.03442
#
# Static dielectric constant tensor:
#      x y z
#    x 1.956320 0.000000 0.013880 
#    y 0.000000 1.972840 0.000000 
#    z 0.013880 0.000000 1.974170 
# 
# From -- ./inp_files/113008.got.cif
#   From: 2010.05.17/outbox.cif.g08.bks.cpg/sg15_57_cif.got.tgz:113008.got - 2010.06.03 18:47:42.
