data_PCOD9288860
_publ_section_title
;
Structure prediction by ZEFSAII (Michael W. Deem and Ramdas Pophale) SiO2 
 PCOD9288860
Probable space group: C 2/C
;
_chemical_formula_sum "Si O2"
_cell_formula_units_Z 60
_cell_length_a 16.723273
_cell_length_b 12.476007
_cell_length_c 25.061794
_cell_angle_alpha 90.000000
_cell_angle_beta 32.127684
_cell_angle_gamma 90.000000
_cell_volume 2780.761681
_symmetry_space_group_name_H-M "C 2/C"
_symmetry_group_IT_number 15
_symmetry_cell_setting 'monoclinic'
loop_
_space_group_symop_operation_xyz
x,y,z
-x,y,1/2-z
-x,-y,-z
x,-y,1/2+z
1/2+x,1/2+y,z
1/2-x,1/2+y,1/2-z
1/2-x,1/2-y,-z
1/2+x,1/2-y,1/2+z
loop_
_atom_site_type_symbol
_atom_site_label
_atom_site_fract_x
_atom_site_fract_y
_atom_site_fract_z
Si Si1 0.000000 0.295615 0.250000
Si Si2 0.903575 0.961819 0.426802
Si Si3 0.072319 0.828400 0.987915
Si Si4 0.264353 0.200191 0.165577
Si Si5 0.792595 0.971577 0.304867
Si Si6 0.389507 0.223977 0.640665
Si Si7 0.850773 0.818331 0.362986
Si Si8 0.346823 0.141713 0.943318
O O1 0.855149 0.226966 0.313499
O O2 0.945136 0.360692 0.333059
O O3 0.921657 0.934623 0.479284
O O4 0.876983 0.850940 0.409091
O O5 0.056788 0.002158 0.312629
O O6 0.766782 0.042435 0.493667
O O7 0.909894 0.774197 0.085511
O O8 0.094403 0.818458 0.911803
O O9 0.207298 0.754855 0.934458
O O10 0.174959 0.224933 0.269866
O O11 0.309285 0.076204 0.137171
O O12 0.722149 0.867123 0.317583
O O13 0.827769 0.930447 0.344278
O O14 0.540314 0.159168 0.571010
O O15 0.000000 0.770548 0.250000
O O16 0.250000 0.250000 0.000000
#
# Coordination Sequence:
#
# PCOD9288860 Si02
#       8
#     4   8   8   8   8   8   8   8
#     4  10  24  44  62  96 132 166 216 276 324 382
#     4  11  22  42  64  97 130 179 221 263 338 404
#     4  11  23  41  67  95 134 175 218 269 339 404
#     4  11  23  41  68  94 129 169 217 276 332 388
#     4  10  22  39  66  95 125 171 219 276 329 389
#     4  10  23  44  60  99 134 166 219 280 326 395
#     4   9  22  39  63  94 132 169 226 276 325 392
#     4  11  24  43  67  93 133 175 222 268 326 396
#
# _framework density 21.576822
#
# number of rings (size 3 to 8) (size 9 to 14) (size 15 to 20)
#    0.000    1.600    1.333    2.800    8.400    1.067 
#    6.000    2.000    0.000    0.000    0.000    0.000 
#    0.000    0.000    0.000    0.000    0.000    0.000 
#
# Total GULP energy -167527.325642 kJ/mol
# GULP energy per Si atom -5584.244188 kJ/mol
# Density = 2.152771 g / cm^3
# Si number density = 21.576822 Si / 1000 Ang^3
#
#
#
# Elastic Constant Matrix: (Units=GPa)
#
#
# Indices 1 2 3 4 5 6 
#
# 1 98.7757 8.2672 26.2659 0.0018 4.7817 0.0044
# 2 8.2672 35.5359 8.9893 0.0027 -4.5206 0.0061
# 3 26.2659 8.9893 84.9580 0.0065 -0.6129 0.0160
# 4 0.0018 0.0027 0.0065 103.5353 -0.0003 196.9107
# 5 4.7817 -4.5206 -0.6129 -0.0003 37.6610 -0.0011
# 6 0.0044 0.0061 0.0160 196.9107 -0.0011 549.1794
#
#
#
# Elastic Compliance Matrix: (Units=1/GPa)
#
#
# Indices 1 2 3 4 5 6 
#
# 1 0.011247 -0.002007 -0.003277 0.000000 -0.001722 0.000000
# 2 -0.002007 0.029720 -0.002497 0.000000 0.003782 0.000000
# 3 -0.003277 -0.002497 0.013050 0.000000 0.000329 0.000000
# 4 0.000000 0.000000 0.000000 0.030365 0.000000 -0.010888
# 5 -0.001722 0.003782 0.000329 0.000000 0.027231 0.000000
# 6 0.000000 0.000000 0.000000 -0.010888 0.000000 0.005725
#
#
# Mechanical properties :
#
#
# Convention : Reuss Voigt Hill
#
# Bulk Modulus (GPa) = 26.00402 34.03492 30.01947
# Shear Modulus (GPa) = 34.31290 149.79163 92.05227
#
# Velocity S-wave (km/s) = 3.99214 8.34105 6.53874
# Velocity P-wave (km/s) = 5.77300 10.41980 8.42318
#
# Compressibility (1/GPa) = 0.03845559
#
# Stress axis : x y z
#
# Youngs Moduli (GPa) = 88.91486 33.64733 76.62666
#
# Poissons Ratio (x) = 0.06751 0.25112
# Poissons Ratio (y) = 0.17841 0.19134
# Poissons Ratio (z) = 0.29139 0.08402
#
# Static dielectric constant tensor:
#      x y z
#    x 1.814570 0.000000 -0.006220 
#    y 0.000000 1.755830 0.000000 
#    z -0.006220 0.000000 1.802910 
# 
# From -- ./inp_files/298946.got.cif
#   From: 2010.05.17/outbox.cif.g08.bks.cpg/sg15_150_cif.got.tgz:298946.got - 2010.06.03 18:47:42.
