data_PCOD9288684
_publ_section_title
;
Structure prediction by ZEFSAII (Michael W. Deem and Ramdas Pophale) SiO2 
 PCOD9288684
Probable space group: C 2/C
;
_chemical_formula_sum "Si O2"
_cell_formula_units_Z 36
_cell_length_a 23.100160
_cell_length_b 7.676486
_cell_length_c 24.330198
_cell_angle_alpha 90.000000
_cell_angle_beta 157.945807
_cell_angle_gamma 90.000000
_cell_volume 1619.995597
_symmetry_space_group_name_H-M "C 2/C"
_symmetry_group_IT_number 15
_symmetry_cell_setting 'monoclinic'
loop_
_space_group_symop_operation_xyz
x,y,z
-x,y,1/2-z
-x,-y,-z
x,-y,1/2+z
1/2+x,1/2+y,z
1/2-x,1/2+y,1/2-z
1/2-x,1/2-y,-z
1/2+x,1/2-y,1/2+z
loop_
_atom_site_type_symbol
_atom_site_label
_atom_site_fract_x
_atom_site_fract_y
_atom_site_fract_z
Si Si1 0.776038 0.609687 0.286384
Si Si2 0.072659 0.846394 0.997807
Si Si3 0.500000 0.261687 0.250000
Si Si4 0.558066 0.959982 0.967402
Si Si5 0.814555 0.140013 0.485090
O O1 0.593769 0.605217 0.124429
O O2 0.886350 0.604242 0.330884
O O3 0.817873 0.787853 0.356039
O O4 0.845814 0.464928 0.390211
O O5 0.055241 0.663376 0.949030
O O6 0.137898 0.996080 0.017020
O O7 0.634755 0.145990 0.341553
O O8 0.584400 0.375681 0.370726
O O9 0.640783 0.829535 0.999657
#
# Coordination Sequence:
#
# PCOD9288684 Si02
#       5
#     8   8   4   8   8
#     4   9  21  40  57 100 135 147 208 239 294 399
#     4  10  22  39  63  93 126 168 195 247 308 378
#     4  10  26  44  60  98 110 162 232 274 296 362
#     4   9  22  39  62  94 132 158 204 244 300 398
#     4  11  23  43  68  81 129 164 207 268 320 339
#
# _framework density 22.222280999999999
#
# number of rings (size 3 to 8) (size 9 to 14) (size 15 to 20)
#    1.333    0.889    0.000    1.333    6.222    2.667 
#    0.000    6.667    0.000    0.000    0.000    0.000 
#    0.000    0.000    0.000    0.000    0.000    0.000 
#
# Total GULP energy -100629.758353 kJ/mol
# GULP energy per Si atom -5590.542131 kJ/mol
# Density = 2.217170 g / cm^3
# Si number density = 22.222281 Si / 1000 Ang^3
#
#
#
# Elastic Constant Matrix: (Units=GPa)
#
#
# Indices 1 2 3 4 5 6 
#
# 1 62.7413 32.8029 62.3041 -0.0001 22.3386 0.0000
# 2 32.8029 116.3900 35.4926 0.0000 18.2349 0.0001
# 3 62.3041 35.4926 172.1069 0.0001 31.3213 0.0000
# 4 -0.0001 0.0000 0.0001 18.6143 0.0000 -2.6542
# 5 22.3386 18.2349 31.3213 0.0000 40.5800 0.0000
# 6 0.0000 0.0001 0.0000 -2.6542 0.0000 14.5177
#
#
#
# Elastic Compliance Matrix: (Units=1/GPa)
#
#
# Indices 1 2 3 4 5 6 
#
# 1 0.029233 -0.004517 -0.008251 0.000000 -0.007694 0.000000
# 2 -0.004517 0.010213 -0.000103 0.000000 -0.002023 0.000000
# 3 -0.008251 -0.000103 0.009288 0.000000 -0.002581 0.000000
# 4 0.000000 0.000000 0.000000 0.055160 0.000000 0.010085
# 5 -0.007694 -0.002023 -0.002581 0.000000 0.031779 0.000000
# 6 0.000000 0.000000 0.000000 0.010085 0.000000 0.070725
#
#
# Mechanical properties :
#
#
# Convention : Reuss Voigt Hill
#
# Bulk Modulus (GPa) = 43.49219 68.04861 55.77040
# Shear Modulus (GPa) = 20.85027 29.45162 25.15095
#
# Velocity S-wave (km/s) = 3.06643 3.64444 3.36786
# Velocity P-wave (km/s) = 5.67020 6.95684 6.34621
#
# Compressibility (1/GPa) = 0.02299264
#
# Stress axis : x y z
#
# Youngs Moduli (GPa) = 34.20793 97.91158 107.66546
#
# Poissons Ratio (x) = 0.44231 0.88832
# Poissons Ratio (y) = 0.15453 0.01105
# Poissons Ratio (z) = 0.28224 0.01005
#
# Static dielectric constant tensor:
#      x y z
#    x 1.803820 0.000000 -0.063630 
#    y 0.000000 1.861940 0.000000 
#    z -0.063630 0.000000 1.850690 
# 
# From -- ./inp_files/302027.got.cif
#   From: 2010.05.17/outbox.cif.g08.bks.cpg/sg15_152_cif.got.tgz:302027.got - 2010.06.03 18:47:42.
