data_PCOD9288242
_publ_section_title
;
Structure prediction by ZEFSAII (Michael W. Deem and Ramdas Pophale) SiO2 
 PCOD9288242
Probable space group: C 2/C
;
_chemical_formula_sum "Si O2"
_cell_formula_units_Z 52
_cell_length_a 24.848227
_cell_length_b 5.429719
_cell_length_c 20.415813
_cell_angle_alpha 90.000000
_cell_angle_beta 125.816194
_cell_angle_gamma 90.000000
_cell_volume 2233.602630
_symmetry_space_group_name_H-M "C 2/C"
_symmetry_group_IT_number 15
_symmetry_cell_setting 'monoclinic'
loop_
_space_group_symop_operation_xyz
x,y,z
-x,y,1/2-z
-x,-y,-z
x,-y,1/2+z
1/2+x,1/2+y,z
1/2-x,1/2+y,1/2-z
1/2-x,1/2-y,-z
1/2+x,1/2-y,1/2+z
loop_
_atom_site_type_symbol
_atom_site_label
_atom_site_fract_x
_atom_site_fract_y
_atom_site_fract_z
Si Si1 0.931789 0.446373 0.911042
Si Si2 0.340198 0.885414 0.459889
Si Si3 0.787232 0.118019 0.087108
Si Si4 0.527788 0.426695 0.153654
Si Si5 0.389762 0.614725 0.056822
Si Si6 0.000000 0.575926 0.250000
Si Si7 0.113224 0.314225 0.259983
O O1 0.870723 0.520923 0.913322
O O2 0.948371 0.170592 0.898950
O O3 0.909612 0.562433 0.824640
O O4 0.000000 0.500000 0.000000
O O5 0.261400 0.916752 0.415998
O O6 0.368136 0.106502 0.525722
O O7 0.365319 0.608408 0.491633
O O8 0.812084 0.308636 0.160512
O O9 0.854187 0.029923 0.098595
O O10 0.750000 0.250000 0.000000
O O11 0.468966 0.622069 0.107216
O O12 0.494431 0.235156 0.180144
O O13 0.592272 0.532567 0.233847
O O14 0.934711 0.419127 0.217895
#
# Coordination Sequence:
#
# PCOD9288242 Si02
#       7
#     8   8   8   8   8   4   8
#     4  11  24  44  70 100 144 185 238 291 363 428
#     4  11  25  45  68 106 138 196 231 291 350 441
#     4  10  24  46  70 100 142 192 242 294 357 426
#     4  11  23  39  70 103 136 182 230 307 355 423
#     4  11  23  42  76 102 140 179 245 294 367 413
#     4  10  22  38  66 100 140 168 230 300 362 404
#     4  11  24  43  66 106 141 184 240 297 354 429
#
# _framework density 23.280773
#
# number of rings (size 3 to 8) (size 9 to 14) (size 15 to 20)
#    0.000    1.231    1.538    3.692    8.615    1.231 
#   13.846    0.000    0.000    0.000    0.000    0.000 
#    0.000    0.000    0.000    0.000    0.000    0.000 
#
# Total GULP energy -144883.692540 kJ/mol
# GULP energy per Si atom -5572.449713 kJ/mol
# Density = 2.322778 g / cm^3
# Si number density = 23.280773 Si / 1000 Ang^3
#
#
#
# Elastic Constant Matrix: (Units=GPa)
#
#
# Indices 1 2 3 4 5 6 
#
# 1 85.2079 -13.5475 18.2666 0.0006 -18.2242 0.0007
# 2 -13.5475 38.1186 12.9368 -0.0013 4.3061 0.0013
# 3 18.2666 12.9368 112.7378 0.0008 4.2988 0.0001
# 4 0.0006 -0.0013 0.0008 28.2685 -0.0002 -11.8304
# 5 -18.2242 4.3061 4.2988 -0.0002 35.0052 -0.0001
# 6 0.0007 0.0013 0.0001 -11.8304 -0.0001 30.5719
#
#
#
# Elastic Compliance Matrix: (Units=1/GPa)
#
#
# Indices 1 2 3 4 5 6 
#
# 1 0.014951 0.005603 -0.003352 0.000000 0.007506 -0.000001
# 2 0.005603 0.029711 -0.004309 0.000001 -0.000209 -0.000001
# 3 -0.003352 -0.004309 0.010001 0.000000 -0.002443 0.000000
# 4 0.000000 0.000001 0.000000 0.042211 0.000000 0.016334
# 5 0.007506 -0.000209 -0.002443 0.000000 0.032800 0.000000
# 6 -0.000001 -0.000001 0.000000 0.016334 0.000000 0.039031
#
#
# Mechanical properties :
#
#
# Convention : Reuss Voigt Hill
#
# Bulk Modulus (GPa) = 19.78341 30.15288 24.96815
# Shear Modulus (GPa) = 26.36157 33.32968 29.84563
#
# Velocity S-wave (km/s) = 3.36867 3.78781 3.58437
# Velocity P-wave (km/s) = 4.86279 5.66656 5.27999
#
# Compressibility (1/GPa) = 0.05054740
#
# Stress axis : x y z
#
# Youngs Moduli (GPa) = 66.88641 33.65710 99.99161
#
# Poissons Ratio (x) = -0.18859 0.33513
# Poissons Ratio (y) = -0.37477 0.43090
# Poissons Ratio (z) = 0.22418 0.14504
#
# Static dielectric constant tensor:
#      x y z
#    x 1.893040 0.000000 0.032810 
#    y 0.000000 2.035800 0.000000 
#    z 0.032810 0.000000 2.005050 
# 
# From -- ./inp_files/256807.got.cif
#   From: 2010.05.17/outbox.cif.g08.bks.cpg/sg15_129_cif.got.tgz:256807.got - 2010.06.03 18:47:42.
