data_PCOD9288149
_publ_section_title
;
Structure prediction by ZEFSAII (Michael W. Deem and Ramdas Pophale) SiO2 
 PCOD9288149
Probable space group: C 2/C
;
_chemical_formula_sum "Si O2"
_cell_formula_units_Z 60
_cell_length_a 17.428842
_cell_length_b 9.434902
_cell_length_c 26.277256
_cell_angle_alpha 90.000000
_cell_angle_beta 46.342907
_cell_angle_gamma 90.000000
_cell_volume 3126.187797
_symmetry_space_group_name_H-M "C 2/C"
_symmetry_group_IT_number 15
_symmetry_cell_setting 'monoclinic'
loop_
_space_group_symop_operation_xyz
x,y,z
-x,y,1/2-z
-x,-y,-z
x,-y,1/2+z
1/2+x,1/2+y,z
1/2-x,1/2+y,1/2-z
1/2-x,1/2-y,-z
1/2+x,1/2-y,1/2+z
loop_
_atom_site_type_symbol
_atom_site_label
_atom_site_fract_x
_atom_site_fract_y
_atom_site_fract_z
Si Si1 0.000000 0.616832 0.750000
Si Si2 0.908888 0.276137 0.630380
Si Si3 0.679387 0.825557 0.990057
Si Si4 0.692878 0.335841 0.668983
Si Si5 0.000385 0.448918 0.137301
Si Si6 0.498385 0.333523 0.511380
Si Si7 0.845773 0.226417 0.167771
Si Si8 0.659256 0.551120 0.766894
O O1 0.104838 0.715391 0.702604
O O2 0.010294 0.530000 0.692955
O O3 0.790696 0.278482 0.659458
O O4 0.922257 0.151763 0.665716
O O5 0.931010 0.427015 0.644908
O O6 0.987461 0.248530 0.547733
O O7 0.753473 0.877178 0.909471
O O8 0.750000 0.750000 0.000000
O O9 0.606586 0.935909 0.054766
O O10 0.597320 0.715914 0.001029
O O11 0.639595 0.465827 0.723945
O O12 0.939491 0.298760 0.158052
O O13 0.500000 0.500000 0.500000
O O14 0.393552 0.292942 0.590075
O O15 0.752351 0.338699 0.212379
O O16 0.815729 0.074381 0.204350
#
# Coordination Sequence:
#
# PCOD9288149 Si02
#       8
#     4   8   8   8   8   8   8   8
#     4  12  22  40  66  92 126 176 212 258 336 392
#     4  11  23  40  64  98 129 165 220 271 315 384
#     4  10  22  40  63  93 125 166 211 263 316 384
#     4  11  23  37  63  96 124 166 219 260 321 386
#     4  11  22  40  65  92 130 168 217 267 322 383
#     4  10  22  38  64  93 123 168 213 259 321 380
#     4  11  21  35  60  93 126 165 208 266 320 375
#     4  12  20  36  60  93 131 159 211 270 317 370
#
# _framework density 19.192706000000001
#
# number of rings (size 3 to 8) (size 9 to 14) (size 15 to 20)
#    0.000    1.067    6.667    0.000    1.867    1.600 
#    0.000    0.667    0.000    0.800    0.000    0.000 
#    0.000    0.000    0.000    0.000    0.000    0.000 
#
# Total GULP energy -167337.816981 kJ/mol
# GULP energy per Si atom -5577.927233 kJ/mol
# Density = 1.914902 g / cm^3
# Si number density = 19.192706 Si / 1000 Ang^3
#
#
#
# Elastic Constant Matrix: (Units=GPa)
#
#
# Indices 1 2 3 4 5 6 
#
# 1 57.4831 23.7292 40.5331 0.0000 13.4788 0.0001
# 2 23.7292 91.1701 41.0211 0.0000 6.1329 0.0002
# 3 40.5331 41.0211 154.1142 0.0000 25.1402 0.0000
# 4 0.0000 0.0000 0.0000 35.5336 0.0000 9.0467
# 5 13.4788 6.1329 25.1402 0.0000 30.7265 0.0000
# 6 0.0001 0.0002 0.0000 9.0467 0.0000 15.9586
#
#
#
# Elastic Compliance Matrix: (Units=1/GPa)
#
#
# Indices 1 2 3 4 5 6 
#
# 1 0.023300 -0.003799 -0.004124 0.000000 -0.006089 0.000000
# 2 -0.003799 0.013082 -0.002687 0.000000 0.001254 0.000000
# 3 -0.004124 -0.002687 0.009124 0.000000 -0.005120 0.000000
# 4 0.000000 0.000000 0.000000 0.032889 0.000000 -0.018644
# 5 -0.006089 0.001254 -0.005120 0.000000 0.039155 0.000000
# 6 0.000000 0.000000 0.000000 -0.018644 0.000000 0.073232
#
#
# Mechanical properties :
#
#
# Convention : Reuss Voigt Hill
#
# Bulk Modulus (GPa) = 41.17742 57.03714 49.10728
# Shear Modulus (GPa) = 22.71719 29.60934 26.16326
#
# Velocity S-wave (km/s) = 3.44413 3.93203 3.69614
# Velocity P-wave (km/s) = 6.10880 7.09910 6.62248
#
# Compressibility (1/GPa) = 0.02428515
#
# Stress axis : x y z
#
# Youngs Moduli (GPa) = 42.91802 76.43954 109.60460
#
# Poissons Ratio (x) = 0.29043 0.45196
# Poissons Ratio (y) = 0.16307 0.29456
# Poissons Ratio (z) = 0.17697 0.20543
#
# Static dielectric constant tensor:
#      x y z
#    x 1.670250 0.000000 -0.004720 
#    y 0.000000 1.635450 0.000000 
#    z -0.004720 0.000000 1.734980 
# 
# From -- ./inp_files/298391.got.cif
#   From: 2010.05.17/outbox.cif.g08.bks.cpg/sg15_150_cif.got.tgz:298391.got - 2010.06.03 18:47:42.
