data_PCOD9288542
_publ_section_title
;
Structure prediction by ZEFSAII (Michael W. Deem and Ramdas Pophale) SiO2 
 PCOD9288542
Probable space group: C 2/C
;
_chemical_formula_sum "Si O2"
_cell_formula_units_Z 40
_cell_length_a 11.733360
_cell_length_b 9.444025
_cell_length_c 18.665688
_cell_angle_alpha 90.000000
_cell_angle_beta 66.226215
_cell_angle_gamma 90.000000
_cell_volume 1892.836326
_symmetry_space_group_name_H-M "C 2/C"
_symmetry_group_IT_number 15
_symmetry_cell_setting 'monoclinic'
loop_
_space_group_symop_operation_xyz
x,y,z
-x,y,1/2-z
-x,-y,-z
x,-y,1/2+z
1/2+x,1/2+y,z
1/2-x,1/2+y,1/2-z
1/2-x,1/2-y,-z
1/2+x,1/2-y,1/2+z
loop_
_atom_site_type_symbol
_atom_site_label
_atom_site_fract_x
_atom_site_fract_y
_atom_site_fract_z
Si Si1 0.543128 0.119870 0.899263
Si Si2 0.365153 0.968909 0.753302
Si Si3 0.880162 0.313795 0.614769
Si Si4 0.122840 0.821316 0.004681
Si Si5 0.760514 0.581792 0.923304
O O1 0.583316 0.248807 0.939028
O O2 0.396199 0.101114 0.922769
O O3 0.607767 0.106118 0.804262
O O4 0.588587 0.970581 0.920971
O O5 0.500000 0.927493 0.750000
O O6 0.327210 0.847018 0.707035
O O7 0.280027 0.001997 0.841947
O O8 0.790264 0.234129 0.584490
O O9 0.007592 0.222560 0.584521
O O10 0.159028 0.986092 0.989676
O O11 0.250000 0.750000 0.000000
#
# Coordination Sequence:
#
# PCOD9288542 Si02
#       5
#     8   8   8   8   8
#     4   9  22  40  61  83 123 159 199 247 302 357
#     4   8  18  38  61  82 119 160 201 243 302 354
#     4  10  22  39  61  90 121 156 206 242 305 359
#     4  12  22  40  65  90 123 164 200 249 308 355
#     4  11  22  39  63  88 122 159 202 256 298 357
#
# _framework density 21.132307000000001
#
# number of rings (size 3 to 8) (size 9 to 14) (size 15 to 20)
#    1.200    0.800    2.000    1.200    2.800    0.800 
#    3.600    0.000    0.000    0.000    0.000    0.000 
#    0.000    0.000    0.000    0.000    0.000    0.000 
#
# Total GULP energy -111475.983760 kJ/mol
# GULP energy per Si atom -5573.799188 kJ/mol
# Density = 2.108421 g / cm^3
# Si number density = 21.132307 Si / 1000 Ang^3
#
#
#
# Elastic Constant Matrix: (Units=GPa)
#
#
# Indices 1 2 3 4 5 6 
#
# 1 80.3158 39.2154 6.0496 0.0000 12.1081 0.0000
# 2 39.2154 72.8128 -0.7155 0.0000 12.6161 0.0000
# 3 6.0496 -0.7155 67.5253 0.0000 3.8672 0.0000
# 4 0.0000 0.0000 0.0000 28.3283 0.0000 8.6942
# 5 12.1081 12.6161 3.8672 0.0000 31.1762 0.0000
# 6 0.0000 0.0000 0.0000 8.6942 0.0000 29.9611
#
#
#
# Elastic Compliance Matrix: (Units=1/GPa)
#
#
# Indices 1 2 3 4 5 6 
#
# 1 0.017320 -0.008828 -0.001475 0.000000 -0.002971 0.000000
# 2 -0.008828 0.019286 0.001255 0.000000 -0.004531 0.000000
# 3 -0.001475 0.001255 0.015058 0.000000 -0.001803 0.000000
# 4 0.000000 0.000000 0.000000 0.038752 0.000000 -0.011245
# 5 -0.002971 -0.004531 -0.001803 0.000000 0.035287 0.000000
# 6 0.000000 0.000000 0.000000 -0.011245 0.000000 0.036640
#
#
# Mechanical properties :
#
#
# Convention : Reuss Voigt Hill
#
# Bulk Modulus (GPa) = 29.79069 34.41700 32.10384
# Shear Modulus (GPa) = 26.09216 29.63342 27.86279
#
# Velocity S-wave (km/s) = 3.51765 3.74877 3.63504
# Velocity P-wave (km/s) = 5.53410 5.92110 5.73087
#
# Compressibility (1/GPa) = 0.03356754
#
# Stress axis : x y z
#
# Youngs Moduli (GPa) = 57.73566 51.85129 66.41004
#
# Poissons Ratio (x) = 0.45774 0.09796
# Poissons Ratio (y) = 0.50969 -0.08333
# Poissons Ratio (z) = 0.08517 -0.06506
#
# Static dielectric constant tensor:
#      x y z
#    x 1.743960 0.000000 -0.000870 
#    y 0.000000 1.783830 0.000000 
#    z -0.000870 0.000000 1.840240 
# 
# From -- ./inp_files/235778.got.cif
#   From: 2010.05.17/outbox.cif.g08.bks.cpg/sg15_118_cif.got.tgz:235778.got - 2010.06.03 18:47:42.
