data_PCOD9288850
_publ_section_title
;
Structure prediction by ZEFSAII (Michael W. Deem and Ramdas Pophale) SiO2 
 PCOD9288850
Probable space group: C 2/C
;
_chemical_formula_sum "Si O2"
_cell_formula_units_Z 60
_cell_length_a 19.472127
_cell_length_b 20.817110
_cell_length_c 8.129679
_cell_angle_alpha 90.000000
_cell_angle_beta 124.610760
_cell_angle_gamma 90.000000
_cell_volume 2712.206444
_symmetry_space_group_name_H-M "C 2/C"
_symmetry_group_IT_number 15
_symmetry_cell_setting 'monoclinic'
loop_
_space_group_symop_operation_xyz
x,y,z
-x,y,1/2-z
-x,-y,-z
x,-y,1/2+z
1/2+x,1/2+y,z
1/2-x,1/2+y,1/2-z
1/2-x,1/2-y,-z
1/2+x,1/2-y,1/2+z
loop_
_atom_site_type_symbol
_atom_site_label
_atom_site_fract_x
_atom_site_fract_y
_atom_site_fract_z
Si Si1 0.212220 0.625556 0.030360
Si Si2 0.623741 0.328670 0.545371
Si Si3 0.148974 0.310716 0.119882
Si Si4 0.428665 0.801526 0.008643
Si Si5 0.820775 0.051234 0.954474
Si Si6 0.174278 0.181759 0.741859
Si Si7 0.500000 0.160523 0.250000
Si Si8 0.076334 0.047545 0.096169
O O1 0.188002 0.672224 0.847074
O O2 0.239894 0.561552 0.964197
O O3 0.292662 0.649774 0.241470
O O4 0.131613 0.636853 0.034649
O O5 0.602664 0.257251 0.571761
O O6 0.637686 0.325638 0.371688
O O7 0.557562 0.383717 0.494081
O O8 0.228451 0.299162 0.113146
O O9 0.085319 0.362949 0.957957
O O10 0.500000 0.800187 0.250000
O O11 0.374735 0.735417 0.930721
O O12 0.457897 0.809655 0.858598
O O13 0.823258 0.111294 0.836090
O O14 0.845606 0.986192 0.894071
O O15 0.896326 0.059595 0.182081
O O16 0.000000 0.000000 0.000000
#
# Coordination Sequence:
#
# PCOD9288850 Si02
#       8
#     8   8   8   8   8   8   4   8
#     4  10  22  39  66  92 133 175 225 284 349 424
#     4  11  21  38  66  88 129 187 227 277 341 407
#     4  11  21  38  61  98 136 173 225 279 347 428
#     4  12  24  39  61  98 138 174 216 288 347 427
#     4  10  24  41  63  89 124 184 229 276 340 401
#     4  11  23  40  65  92 136 177 233 278 355 426
#     4  12  24  36  58  96 140 174 220 264 348 418
#     4  11  24  42  61  90 133 174 238 288 328 392
#
# _framework density 22.122209000000002
#
# number of rings (size 3 to 8) (size 9 to 14) (size 15 to 20)
#    0.000    1.067    4.000    2.800    3.733    2.133 
#    2.400    0.000    0.000    0.000    0.000    3.733 
#   20.000    1.067    0.000    0.000    0.000    0.000 
#
# Total GULP energy -167113.949957 kJ/mol
# GULP energy per Si atom -5570.464999 kJ/mol
# Density = 2.207186 g / cm^3
# Si number density = 22.122209 Si / 1000 Ang^3
#
#
#
# Elastic Constant Matrix: (Units=GPa)
#
#
# Indices 1 2 3 4 5 6 
#
# 1 62.5029 10.6015 21.4987 0.0000 0.5974 0.0000
# 2 10.6015 53.2719 7.5303 0.0000 -4.9456 0.0000
# 3 21.4987 7.5303 114.3067 0.0000 -1.8059 0.0000
# 4 0.0000 0.0000 0.0000 24.8688 0.0000 -2.4482
# 5 0.5974 -4.9456 -1.8059 0.0000 36.5793 0.0000
# 6 0.0000 0.0000 0.0000 -2.4482 0.0000 30.3123
#
#
#
# Elastic Compliance Matrix: (Units=1/GPa)
#
#
# Indices 1 2 3 4 5 6 
#
# 1 0.017614 -0.003145 -0.003119 0.000000 -0.000867 0.000000
# 2 -0.003145 0.019741 -0.000667 0.000000 0.002688 0.000000
# 3 -0.003119 -0.000667 0.009386 0.000000 0.000424 0.000000
# 4 0.000000 0.000000 0.000000 0.040533 0.000000 0.003274
# 5 -0.000867 0.002688 0.000424 0.000000 0.027736 0.000000
# 6 0.000000 0.000000 0.000000 0.003274 0.000000 0.033254
#
#
# Mechanical properties :
#
#
# Convention : Reuss Voigt Hill
#
# Bulk Modulus (GPa) = 30.41425 34.37137 32.39281
# Shear Modulus (GPa) = 28.88736 31.04879 29.96807
#
# Velocity S-wave (km/s) = 3.61752 3.75041 3.68456
# Velocity P-wave (km/s) = 5.58809 5.85875 5.72502
#
# Compressibility (1/GPa) = 0.03287933
#
# Stress axis : x y z
#
# Youngs Moduli (GPa) = 56.77335 50.65549 106.54518
#
# Poissons Ratio (x) = 0.15930 0.33235
# Poissons Ratio (y) = 0.17854 0.07102
# Poissons Ratio (z) = 0.17709 0.03377
#
# Static dielectric constant tensor:
#      x y z
#    x 1.985070 0.000000 0.036640 
#    y 0.000000 2.169710 0.000000 
#    z 0.036640 0.000000 1.834510 
# 
# From -- ./inp_files/58113.got.cif
#   From: 2010.05.17/outbox.cif.g08.bks.cpg/sg15_30_cif.got.tgz:58113.got - 2010.06.03 18:47:42.
