data_PCOD9288332
_publ_section_title
;
Structure prediction by ZEFSAII (Michael W. Deem and Ramdas Pophale) SiO2 
 PCOD9288332
Probable space group: C 2/C
;
_chemical_formula_sum "Si O2"
_cell_formula_units_Z 60
_cell_length_a 27.522511
_cell_length_b 7.974413
_cell_length_c 23.467662
_cell_angle_alpha 90.000000
_cell_angle_beta 152.568330
_cell_angle_gamma 90.000000
_cell_volume 2372.825566
_symmetry_space_group_name_H-M "C 2/C"
_symmetry_group_IT_number 15
_symmetry_cell_setting 'monoclinic'
loop_
_space_group_symop_operation_xyz
x,y,z
-x,y,1/2-z
-x,-y,-z
x,-y,1/2+z
1/2+x,1/2+y,z
1/2-x,1/2+y,1/2-z
1/2-x,1/2-y,-z
1/2+x,1/2-y,1/2+z
loop_
_atom_site_type_symbol
_atom_site_label
_atom_site_fract_x
_atom_site_fract_y
_atom_site_fract_z
Si Si1 0.054195 0.004931 0.956738
Si Si2 0.326202 0.438807 0.524390
Si Si3 0.506876 0.154687 0.932393
Si Si4 0.500000 0.895133 0.750000
Si Si5 0.634442 0.831087 0.106300
Si Si6 0.327994 0.376107 0.245229
Si Si7 0.888968 0.418714 0.740665
Si Si8 0.781358 0.450287 0.973954
O O1 0.080037 0.816535 0.003726
O O2 0.076446 0.998320 0.912212
O O3 0.932615 0.016253 0.848817
O O4 0.111993 0.161591 0.046594
O O5 0.228541 0.548228 0.401085
O O6 0.314598 0.459289 0.580082
O O7 0.300337 0.245802 0.482987
O O8 0.415977 0.185178 0.884312
O O9 0.447482 0.094243 0.813179
O O10 0.574679 0.992068 0.018520
O O11 0.454890 0.818772 0.761596
O O12 0.607337 0.989182 0.882683
O O13 0.757586 0.872396 0.227933
O O14 0.374619 0.191301 0.281882
O O15 0.251706 0.440168 0.114781
#
# Coordination Sequence:
#
# PCOD9288332 Si02
#       8
#     8   8   8   4   8   8   8   8
#     4  12  24  44  71 103 135 189 231 295 352 424
#     4  10  22  41  67  96 144 178 236 287 343 423
#     4  11  25  46  73  97 140 182 235 293 357 411
#     4  10  22  38  68  94 140 180 226 276 350 416
#     4  11  25  48  68 101 138 185 237 296 349 424
#     4  12  25  42  69 102 143 176 240 284 349 421
#     4  11  22  41  65  98 136 181 219 296 342 413
#     4  10  23  41  66 103 135 192 230 282 348 418
#
# _framework density 25.286308999999999
#
# number of rings (size 3 to 8) (size 9 to 14) (size 15 to 20)
#    0.000    1.067    2.667    3.600    0.000    6.933 
#    2.400    0.000    0.000    0.000    0.000    0.000 
#    0.000    0.000    0.000    0.000    0.000    0.000 
#
# Total GULP energy -167710.338753 kJ/mol
# GULP energy per Si atom -5590.344625 kJ/mol
# Density = 2.522876 g / cm^3
# Si number density = 25.286309 Si / 1000 Ang^3
#
#
#
# Elastic Constant Matrix: (Units=GPa)
#
#
# Indices 1 2 3 4 5 6 
#
# 1 162.2768 31.8554 39.2688 0.0000 42.5579 0.0000
# 2 31.8554 124.0359 29.4388 0.0000 5.7822 0.0000
# 3 39.2688 29.4388 59.6462 0.0000 16.4954 0.0000
# 4 0.0000 0.0000 0.0000 27.7826 0.0000 22.6651
# 5 42.5579 5.7822 16.4954 0.0000 31.8057 0.0000
# 6 0.0000 0.0000 0.0000 22.6651 0.0000 75.4640
#
#
#
# Elastic Compliance Matrix: (Units=1/GPa)
#
#
# Indices 1 2 3 4 5 6 
#
# 1 0.010264 -0.001429 -0.002715 0.000000 -0.012066 0.000000
# 2 -0.001429 0.009348 -0.004357 0.000000 0.002472 0.000000
# 3 -0.002715 -0.004357 0.022741 0.000000 -0.007369 0.000000
# 4 0.000000 0.000000 0.000000 0.047675 0.000000 -0.014319
# 5 -0.012066 0.002472 -0.007369 0.000000 0.050958 0.000000
# 6 0.000000 0.000000 0.000000 -0.014319 0.000000 0.017552
#
#
# Mechanical properties :
#
#
# Convention : Reuss Voigt Hill
#
# Bulk Modulus (GPa) = 39.44534 60.78719 50.11627
# Shear Modulus (GPa) = 27.17512 43.37018 35.27265
#
# Velocity S-wave (km/s) = 3.28181 4.14595 3.73893
# Velocity P-wave (km/s) = 5.47666 6.85640 6.20500
#
# Compressibility (1/GPa) = 0.02535153
#
# Stress axis : x y z
#
# Youngs Moduli (GPa) = 97.42450 106.97510 43.97277
#
# Poissons Ratio (x) = 0.15289 0.11940
# Poissons Ratio (y) = 0.13924 0.19157
# Poissons Ratio (z) = 0.26454 0.46604
#
# Static dielectric constant tensor:
#      x y z
#    x 2.023750 0.000000 -0.038720 
#    y 0.000000 2.019700 0.000000 
#    z -0.038720 0.000000 2.014600 
# 
# From -- ./inp_files/283425.got.cif
#   From: 2010.05.17/outbox.cif.g08.bks.cpg/sg15_142_cif.got.tgz:283425.got - 2010.06.03 18:47:42.
