data_PCOD9288211
_publ_section_title
;
Structure prediction by ZEFSAII (Michael W. Deem and Ramdas Pophale) SiO2 
 PCOD9288211
Probable space group: C 2/C
;
_chemical_formula_sum "Si O2"
_cell_formula_units_Z 40
_cell_length_a 33.140751
_cell_length_b 9.487531
_cell_length_c 10.369601
_cell_angle_alpha 90.000000
_cell_angle_beta 34.648961
_cell_angle_gamma 90.000000
_cell_volume 1853.719082
_symmetry_space_group_name_H-M "C 2/C"
_symmetry_group_IT_number 15
_symmetry_cell_setting 'monoclinic'
loop_
_space_group_symop_operation_xyz
x,y,z
-x,y,1/2-z
-x,-y,-z
x,-y,1/2+z
1/2+x,1/2+y,z
1/2-x,1/2+y,1/2-z
1/2-x,1/2-y,-z
1/2+x,1/2-y,1/2+z
loop_
_atom_site_type_symbol
_atom_site_label
_atom_site_fract_x
_atom_site_fract_y
_atom_site_fract_z
Si Si1 0.298626 0.436463 0.264181
Si Si2 0.637213 0.862555 0.678466
Si Si3 0.929718 0.484317 0.385940
Si Si4 0.865069 0.956136 0.350022
Si Si5 0.558081 0.675066 0.200437
O O1 0.222521 0.366276 0.462426
O O2 0.319879 0.502036 0.344980
O O3 0.312202 0.544651 0.111963
O O4 0.361908 0.326005 0.069170
O O5 0.609170 0.702314 0.741414
O O6 0.614591 0.936771 0.605239
O O7 0.610216 0.943024 0.877018
O O8 0.957050 0.339834 0.243085
O O9 0.000000 0.564269 0.250000
O O10 0.926947 0.067495 0.222309
O O11 0.500000 0.620481 0.250000
#
# Coordination Sequence:
#
# PCOD9288211 Si02
#       5
#     8   8   8   8   8
#     4  10  22  38  65  91 123 162 208 251 317 351
#     4  12  23  42  67  90 130 163 209 259 306 376
#     4  11  25  45  63  93 127 169 203 259 315 371
#     4  10  22  40  63  93 122 166 211 253 311 360
#     4   9  22  41  62  90 127 162 209 254 307 366
#
# _framework density 21.578240999999998
#
# number of rings (size 3 to 8) (size 9 to 14) (size 15 to 20)
#    1.200    0.400    2.000    2.400    2.800    3.200 
#    0.000    3.000    0.000    0.000    0.000    0.000 
#    0.000    0.000    0.000    0.000    0.000    0.000 
#
# Total GULP energy -111428.401852 kJ/mol
# GULP energy per Si atom -5571.420093 kJ/mol
# Density = 2.152913 g / cm^3
# Si number density = 21.578241 Si / 1000 Ang^3
#
#
#
# Elastic Constant Matrix: (Units=GPa)
#
#
# Indices 1 2 3 4 5 6 
#
# 1 147.8429 16.4721 31.6667 0.0000 11.4451 0.0000
# 2 16.4721 21.9158 -4.6259 0.0000 12.3189 0.0000
# 3 31.6667 -4.6259 71.2148 0.0000 5.1349 0.0000
# 4 0.0000 0.0000 0.0000 18.1010 0.0000 2.3087
# 5 11.4451 12.3189 5.1349 0.0000 52.0943 0.0000
# 6 0.0000 0.0000 0.0000 2.3087 0.0000 37.5891
#
#
#
# Elastic Compliance Matrix: (Units=1/GPa)
#
#
# Indices 1 2 3 4 5 6 
#
# 1 0.008488 -0.007465 -0.004282 0.000000 0.000323 0.000000
# 2 -0.007465 0.060560 0.008226 0.000000 -0.013492 0.000000
# 3 -0.004282 0.008226 0.016672 0.000000 -0.002648 0.000000
# 4 0.000000 0.000000 0.000000 0.055682 0.000000 -0.003420
# 5 0.000323 -0.013492 -0.002648 0.000000 0.022576 0.000000
# 6 0.000000 0.000000 0.000000 -0.003420 0.000000 0.026813
#
#
# Mechanical properties :
#
#
# Convention : Reuss Voigt Hill
#
# Bulk Modulus (GPa) = 12.71022 36.44435 24.57729
# Shear Modulus (GPa) = 22.31550 34.72092 28.51821
#
# Velocity S-wave (km/s) = 3.21933 4.01567 3.63935
# Velocity P-wave (km/s) = 4.44094 6.19895 5.39207
#
# Compressibility (1/GPa) = 0.07867682
#
# Stress axis : x y z
#
# Youngs Moduli (GPa) = 117.81420 16.51255 59.98248
#
# Poissons Ratio (x) = 0.12326 0.25687
# Poissons Ratio (y) = 0.87947 -0.49342
# Poissons Ratio (z) = 0.50453 -0.13583
#
# Static dielectric constant tensor:
#      x y z
#    x 1.785850 0.000000 0.015630 
#    y 0.000000 1.791670 0.000000 
#    z 0.015630 0.000000 1.895110 
# 
# From -- ./inp_files/65005.got.cif
#   From: 2010.05.17/outbox.cif.g08.bks.cpg/sg15_33_cif.got.tgz:65005.got - 2010.06.03 18:47:42.
