data_PCOD9288630
_publ_section_title
;
Structure prediction by ZEFSAII (Michael W. Deem and Ramdas Pophale) SiO2 
 PCOD9288630
Probable space group: C 2/C
;
_chemical_formula_sum "Si O2"
_cell_formula_units_Z 64
_cell_length_a 8.137499
_cell_length_b 28.439664
_cell_length_c 17.866429
_cell_angle_alpha 90.000000
_cell_angle_beta 134.607690
_cell_angle_gamma 90.000000
_cell_volume 2943.686519
_symmetry_space_group_name_H-M "C 2/C"
_symmetry_group_IT_number 15
_symmetry_cell_setting 'monoclinic'
loop_
_space_group_symop_operation_xyz
x,y,z
-x,y,1/2-z
-x,-y,-z
x,-y,1/2+z
1/2+x,1/2+y,z
1/2-x,1/2+y,1/2-z
1/2-x,1/2-y,-z
1/2+x,1/2-y,1/2+z
loop_
_atom_site_type_symbol
_atom_site_label
_atom_site_fract_x
_atom_site_fract_y
_atom_site_fract_z
Si Si1 0.613306 0.788295 0.863082
Si Si2 0.201763 0.874641 0.260923
Si Si3 0.396713 0.100828 0.137782
Si Si4 0.104167 0.090575 0.565781
Si Si5 0.231950 0.550640 0.141288
Si Si6 0.915187 0.267839 0.954827
Si Si7 0.039095 0.455547 0.415141
Si Si8 0.133352 0.319247 0.412385
O O1 0.500000 0.772762 0.750000
O O2 0.660832 0.843899 0.874173
O O3 0.442182 0.782038 0.878012
O O4 0.845294 0.758853 0.949336
O O5 0.111173 0.897303 0.155551
O O6 0.350695 0.914072 0.351413
O O7 0.383876 0.833954 0.301993
O O8 0.000000 0.857845 0.250000
O O9 0.500000 0.084795 0.250000
O O10 0.587170 0.091763 0.135115
O O11 0.153421 0.077185 0.039869
O O12 0.291292 0.051959 0.600841
O O13 0.195302 0.138047 0.553382
O O14 0.500000 0.551455 0.250000
O O15 0.102384 0.503609 0.128615
O O16 0.190738 0.550134 0.038891
O O17 0.718820 0.229422 0.905487
O O18 0.882457 0.309920 0.003519
#
# Coordination Sequence:
#
# PCOD9288630 Si02
#       8
#     8   8   8   8   8   8   8   8
#     4  10  23  41  64  94 129 173 223 271 327 385
#     4  11  24  40  68 101 130 173 211 276 337 388
#     4  11  24  42  64  94 132 177 221 264 317 393
#     4  11  23  42  69  97 135 165 217 279 327 391
#     4  11  24  43  69  97 134 178 220 260 317 397
#     4  10  22  42  65  90 133 173 212 289 319 390
#     4  10  23  43  66 101 135 165 216 275 322 385
#     4  10  22  39  62  95 128 169 219 264 338 387
#
# _framework density 21.741446
#
# number of rings (size 3 to 8) (size 9 to 14) (size 15 to 20)
#    0.000    1.500    1.250    3.375    5.250    5.000 
#    0.000    1.875    0.000    0.000    0.000    0.000 
#    0.000    0.000    0.000    0.000    0.000    0.000 
#
# Total GULP energy -179021.477417 kJ/mol
# GULP energy per Si atom -5594.421169 kJ/mol
# Density = 2.169196 g / cm^3
# Si number density = 21.741446 Si / 1000 Ang^3
#
#
#
# Elastic Constant Matrix: (Units=GPa)
#
#
# Indices 1 2 3 4 5 6 
#
# 1 115.5403 -0.5228 54.5387 0.0000 6.9968 0.0000
# 2 -0.5228 33.3326 16.6486 0.0000 4.7228 0.0000
# 3 54.5387 16.6486 113.2876 0.0000 11.3716 0.0000
# 4 0.0000 0.0000 0.0000 13.6257 0.0000 -4.5021
# 5 6.9968 4.7228 11.3716 0.0000 36.2971 0.0000
# 6 0.0000 0.0000 0.0000 -4.5021 0.0000 20.3997
#
#
#
# Elastic Compliance Matrix: (Units=1/GPa)
#
#
# Indices 1 2 3 4 5 6 
#
# 1 0.011526 0.003263 -0.005950 0.000000 -0.000782 0.000000
# 2 0.003263 0.033581 -0.006199 0.000000 -0.003056 0.000000
# 3 -0.005950 -0.006199 0.012809 0.000000 -0.002060 0.000000
# 4 0.000000 0.000000 0.000000 0.079163 0.000000 0.017471
# 5 -0.000782 -0.003056 -0.002060 0.000000 0.028744 0.000000
# 6 0.000000 0.000000 0.000000 0.017471 0.000000 0.052876
#
#
# Mechanical properties :
#
#
# Convention : Reuss Voigt Hill
#
# Bulk Modulus (GPa) = 24.90993 44.83217 34.87105
# Shear Modulus (GPa) = 20.01181 26.83087 23.42134
#
# Velocity S-wave (km/s) = 3.03718 3.51677 3.28574
# Velocity P-wave (km/s) = 4.87662 6.09554 5.51983
#
# Compressibility (1/GPa) = 0.04014463
#
# Stress axis : x y z
#
# Youngs Moduli (GPa) = 86.76370 29.77854 78.06933
#
# Poissons Ratio (x) = -0.09718 0.46449
# Poissons Ratio (y) = -0.28313 0.48397
# Poissons Ratio (z) = 0.51621 0.18461
#
# Static dielectric constant tensor:
#      x y z
#    x 1.783290 0.000000 -0.011070 
#    y 0.000000 1.815840 0.000000 
#    z -0.011070 0.000000 1.772880 
# 
# From -- ./inp_files/194258.got.cif
#   From: 2010.05.17/outbox.cif.g08.bks.cpg/sg15_98_cif.got.tgz:194258.got - 2010.06.03 18:47:42.
