data_PCOD9288590
_publ_section_title
;
Structure prediction by ZEFSAII (Michael W. Deem and Ramdas Pophale) SiO2 
 PCOD9288590
Probable space group: C 2/C
;
_chemical_formula_sum "Si O2"
_cell_formula_units_Z 40
_cell_length_a 8.630514
_cell_length_b 27.430041
_cell_length_c 8.759790
_cell_angle_alpha 90.000000
_cell_angle_beta 78.958844
_cell_angle_gamma 90.000000
_cell_volume 2035.366559
_symmetry_space_group_name_H-M "C 2/C"
_symmetry_group_IT_number 15
_symmetry_cell_setting 'monoclinic'
loop_
_space_group_symop_operation_xyz
x,y,z
-x,y,1/2-z
-x,-y,-z
x,-y,1/2+z
1/2+x,1/2+y,z
1/2-x,1/2+y,1/2-z
1/2-x,1/2-y,-z
1/2+x,1/2-y,1/2+z
loop_
_atom_site_type_symbol
_atom_site_label
_atom_site_fract_x
_atom_site_fract_y
_atom_site_fract_z
Si Si1 0.063852 0.750097 0.565150
Si Si2 0.056869 0.848938 0.064228
Si Si3 0.933825 0.652482 0.437108
Si Si4 0.571069 0.046746 0.070330
Si Si5 0.942602 0.050004 0.084692
O O1 0.250000 0.750000 0.500000
O O2 0.000000 0.752674 0.750000
O O3 0.005822 0.798841 0.493264
O O4 0.000050 0.699718 0.507685
O O5 0.000000 0.851193 0.250000
O O6 0.244698 0.846259 0.994897
O O7 0.996814 0.898776 0.996180
O O8 0.978964 0.598808 0.492676
O O9 0.000000 0.654217 0.250000
O O10 0.500000 0.045506 0.250000
O O11 0.757605 0.048391 0.071507
O O12 0.500000 0.000000 0.000000
O O13 0.000000 0.049512 0.250000
O O14 0.000000 0.000000 0.000000
#
# Coordination Sequence:
#
# PCOD9288590 Si02
#       5
#     8   8   8   8   8
#     4  12  24  38  61  93 123 159 205 260 316 376
#     4  11  23  41  63  89 123 166 208 256 314 379
#     4  10  22  42  62  85 120 164 206 253 311 375
#     4  10  22  39  62  89 121 164 208 254 310 371
#     4  11  23  40  63  92 126 165 210 263 317 375
#
# _framework density 19.652479
#
# number of rings (size 3 to 8) (size 9 to 14) (size 15 to 20)
#    0.000    1.200    0.000    6.000    0.000    7.200 
#    0.000    0.000    0.000    0.000    0.000    0.000 
#    0.000    0.000    0.000    0.000    0.000    0.000 
#
# Total GULP energy -111504.067936 kJ/mol
# GULP energy per Si atom -5575.203397 kJ/mol
# Density = 1.960775 g / cm^3
# Si number density = 19.652479 Si / 1000 Ang^3
#
#
#
# Elastic Constant Matrix: (Units=GPa)
#
#
# Indices 1 2 3 4 5 6 
#
# 1 96.3336 80.6165 52.2576 0.0000 -13.2231 0.0000
# 2 80.6165 270.5230 103.2906 0.0000 19.8028 0.0000
# 3 52.2576 103.2906 162.0522 0.0000 -3.7299 0.0000
# 4 0.0000 0.0000 0.0000 49.0045 0.0000 6.5866
# 5 -13.2231 19.8028 -3.7299 0.0000 35.2743 0.0000
# 6 0.0000 0.0000 0.0000 6.5866 0.0000 54.8065
#
#
#
# Elastic Compliance Matrix: (Units=1/GPa)
#
#
# Indices 1 2 3 4 5 6 
#
# 1 0.016784 -0.004830 -0.002132 0.000000 0.008778 0.000000
# 2 -0.004830 0.006634 -0.002805 0.000000 -0.005832 0.000000
# 3 -0.002132 -0.002805 0.008685 0.000000 0.001694 0.000000
# 4 0.000000 0.000000 0.000000 0.020741 0.000000 -0.002493
# 5 0.008778 -0.005832 0.001694 0.000000 0.035093 0.000000
# 6 0.000000 0.000000 0.000000 -0.002493 0.000000 0.018546
#
#
# Mechanical properties :
#
#
# Convention : Reuss Voigt Hill
#
# Bulk Modulus (GPa) = 79.55892 111.24866 95.40379
# Shear Modulus (GPa) = 38.40061 47.33333 42.86697
#
# Velocity S-wave (km/s) = 4.42518 4.91299 4.67545
# Velocity P-wave (km/s) = 8.16581 9.42943 8.82028
#
# Compressibility (1/GPa) = 0.01256930
#
# Stress axis : x y z
#
# Youngs Moduli (GPa) = 59.58010 150.74154 115.14078
#
# Poissons Ratio (x) = 0.72815 0.24542
# Poissons Ratio (y) = 0.28780 0.32296
# Poissons Ratio (z) = 0.12700 0.42282
#
# Static dielectric constant tensor:
#      x y z
#    x 1.639970 0.000000 -0.005640 
#    y 0.000000 1.730660 0.000000 
#    z -0.005640 0.000000 1.673550 
# 
# From -- ./inp_files/23506.got.cif
#   From: 2010.05.17/outbox.cif.g08.bks.cpg/sg15_12_cif.got.tgz:23506.got - 2010.06.03 18:47:42.
