data_PCOD9288497
_publ_section_title
;
Structure prediction by ZEFSAII (Michael W. Deem and Ramdas Pophale) SiO2 
 PCOD9288497
Probable space group: C 2/C
;
_chemical_formula_sum "Si O2"
_cell_formula_units_Z 52
_cell_length_a 23.068840
_cell_length_b 9.057338
_cell_length_c 9.629542
_cell_angle_alpha 90.000000
_cell_angle_beta 80.346180
_cell_angle_gamma 90.000000
_cell_volume 1983.526178
_symmetry_space_group_name_H-M "C 2/C"
_symmetry_group_IT_number 15
_symmetry_cell_setting 'monoclinic'
loop_
_space_group_symop_operation_xyz
x,y,z
-x,y,1/2-z
-x,-y,-z
x,-y,1/2+z
1/2+x,1/2+y,z
1/2-x,1/2+y,1/2-z
1/2-x,1/2-y,-z
1/2+x,1/2-y,1/2+z
loop_
_atom_site_type_symbol
_atom_site_label
_atom_site_fract_x
_atom_site_fract_y
_atom_site_fract_z
Si Si1 0.691500 0.391405 0.879295
Si Si2 0.125847 0.972826 0.641214
Si Si3 0.653840 0.808957 0.982634
Si Si4 0.436431 0.045015 0.595442
Si Si5 0.500000 0.125059 0.250000
Si Si6 0.259428 0.148930 0.790895
Si Si7 0.469217 0.651033 0.966059
O O1 0.639077 0.439231 0.795248
O O2 0.708151 0.222714 0.852021
O O3 0.744823 0.478720 0.786389
O O4 0.680937 0.454784 0.035602
O O5 0.077351 0.092807 0.627817
O O6 0.112665 0.821246 0.563680
O O7 0.617294 0.949609 0.944255
O O8 0.697205 0.728652 0.853839
O O9 0.696959 0.837374 0.095818
O O10 0.445572 0.987603 0.749987
O O11 0.500000 0.000000 0.500000
O O12 0.437239 0.222719 0.575040
O O13 0.487601 0.242254 0.133689
O O14 0.500000 0.500000 0.000000
#
# Coordination Sequence:
#
# PCOD9288497 Si02
#       7
#     8   8   8   8   4   8   8
#     4  10  22  39  60  92 132 170 234 290 353 440
#     4  10  22  39  63  95 131 176 228 288 359 429
#     4   9  19  41  64  87 137 185 226 287 364 428
#     4  10  22  43  65  96 134 175 234 288 357 431
#     4  10  24  44  68  96 136 182 232 298 360 436
#     4   9  20  37  63  93 128 181 227 292 362 421
#     4  11  25  42  68 101 135 185 238 299 365 440
#
# _framework density 26.215938999999999
#
# number of rings (size 3 to 8) (size 9 to 14) (size 15 to 20)
#    0.000    2.154    0.000    2.769    6.462    3.692 
#   13.846    0.000    0.000    0.000    0.000    0.000 
#    0.000    0.000    0.000    0.000    0.000    0.000 
#
# Total GULP energy -144910.240791 kJ/mol
# GULP energy per Si atom -5573.470800 kJ/mol
# Density = 2.615627 g / cm^3
# Si number density = 26.215939 Si / 1000 Ang^3
#
#
#
# Elastic Constant Matrix: (Units=GPa)
#
#
# Indices 1 2 3 4 5 6 
#
# 1 81.1987 60.1280 13.3264 0.0000 5.3874 0.0000
# 2 60.1280 183.2523 29.7593 0.0000 2.6345 0.0000
# 3 13.3264 29.7593 56.9331 0.0000 1.2397 0.0000
# 4 0.0000 0.0000 0.0000 21.7045 0.0000 -18.6555
# 5 5.3874 2.6345 1.2397 0.0000 22.1491 0.0000
# 6 0.0000 0.0000 0.0000 -18.6555 0.0000 3.1524
#
#
#
# Elastic Compliance Matrix: (Units=1/GPa)
#
#
# Indices 1 2 3 4 5 6 
#
# 1 0.016577 -0.005216 -0.001081 0.000000 -0.003351 0.000000
# 2 -0.005216 0.007610 -0.002768 0.000000 0.000518 0.000000
# 3 -0.001081 -0.002768 0.019275 0.000000 -0.000487 0.000000
# 4 0.000000 0.000000 0.000000 -0.011274 0.000000 -0.066720
# 5 -0.003351 0.000518 -0.000487 0.000000 0.045929 0.000000
# 6 0.000000 0.000000 0.000000 -0.066720 0.000000 -0.077625
#
#
# Mechanical properties :
#
#
# Convention : Reuss Voigt Hill
#
# Bulk Modulus (GPa) = 39.47465 58.64573 49.06019
# Shear Modulus (GPa) = 184.72161 23.94590 104.33376
#
# Velocity S-wave (km/s) = 8.40325 3.02555 6.31540
# Velocity P-wave (km/s) = 10.45193 5.88422 8.48136
#
# Compressibility (1/GPa) = 0.02533271
#
# Stress axis : x y z
#
# Youngs Moduli (GPa) = 60.32315 131.39918 51.88007
#
# Poissons Ratio (x) = 0.68532 0.05609
# Poissons Ratio (y) = 0.31462 0.14363
# Poissons Ratio (z) = 0.06522 0.36378
#
# Static dielectric constant tensor:
#      x y z
#    x 2.137270 0.000000 -0.150250 
#    y 0.000000 2.047630 0.000000 
#    z -0.150250 0.000000 3.008500 
# 
# From -- ./inp_files/121524.got.cif
#   From: 2010.05.17/outbox.cif.g08.bks.cpg/sg15_61_cif.got.tgz:121524.got - 2010.06.03 18:47:42.
