data_PCOD9288751
_publ_section_title
;
Structure prediction by ZEFSAII (Michael W. Deem and Ramdas Pophale) SiO2 
 PCOD9288751
Probable space group: C 2/C
;
_chemical_formula_sum "Si O2"
_cell_formula_units_Z 48
_cell_length_a 21.775182
_cell_length_b 5.826221
_cell_length_c 24.325392
_cell_angle_alpha 90.000000
_cell_angle_beta 133.927246
_cell_angle_gamma 90.000000
_cell_volume 2222.667778
_symmetry_space_group_name_H-M "C 2/C"
_symmetry_group_IT_number 15
_symmetry_cell_setting 'monoclinic'
loop_
_space_group_symop_operation_xyz
x,y,z
-x,y,1/2-z
-x,-y,-z
x,-y,1/2+z
1/2+x,1/2+y,z
1/2-x,1/2+y,1/2-z
1/2-x,1/2-y,-z
1/2+x,1/2-y,1/2+z
loop_
_atom_site_type_symbol
_atom_site_label
_atom_site_fract_x
_atom_site_fract_y
_atom_site_fract_z
Si Si1 0.600142 0.883374 0.827616
Si Si2 0.931443 0.882812 0.657921
Si Si3 0.409747 0.221209 0.948089
Si Si4 0.338392 0.168857 0.343567
Si Si5 0.011875 0.976528 0.094710
Si Si6 0.268823 0.971443 0.686533
O O1 0.500000 0.875939 0.750000
O O2 0.617876 0.629177 0.864742
O O3 0.612651 0.128813 0.867485
O O4 0.655830 0.910041 0.807261
O O5 0.000000 0.875117 0.750000
O O6 0.981814 0.913627 0.632235
O O7 0.471865 0.336746 0.942036
O O8 0.313914 0.318118 0.878513
O O9 0.401421 0.963387 0.923025
O O10 0.442716 0.296442 0.027980
O O11 0.396831 0.351790 0.347301
O O12 0.267048 0.271622 0.339237
O O13 0.296058 0.034984 0.267260
#
# Coordination Sequence:
#
# PCOD9288751 Si02
#       6
#     8   8   8   8   8   8
#     4  10  23  39  62  93 126 170 218 271 320 382
#     4  10  22  39  64  93 121 173 220 271 311 385
#     4  10  23  41  63  96 130 165 209 277 337 382
#     4  11  21  37  66  93 126 171 206 280 323 385
#     4  10  23  41  65  94 128 168 219 264 331 396
#     4  11  23  37  63  97 128 163 222 270 328 384
#
# _framework density 21.595668
#
# number of rings (size 3 to 8) (size 9 to 14) (size 15 to 20)
#    0.000    1.667    1.667    2.500    9.333    0.000 
#    0.000    1.667    0.000    0.000    0.000    0.000 
#    0.000    0.000    0.000    0.000    0.000    0.000 
#
# Total GULP energy -133744.559396 kJ/mol
# GULP energy per Si atom -5572.689975 kJ/mol
# Density = 2.154652 g / cm^3
# Si number density = 21.595668 Si / 1000 Ang^3
#
#
#
# Elastic Constant Matrix: (Units=GPa)
#
#
# Indices 1 2 3 4 5 6 
#
# 1 103.6296 8.0236 14.2338 -0.0007 -1.6191 -0.0033
# 2 8.0236 103.1575 -1.6858 -0.0030 6.0712 -0.0002
# 3 14.2338 -1.6858 58.3963 -0.0012 2.2387 -0.0028
# 4 -0.0007 -0.0030 -0.0012 23.2308 0.0029 -1.3712
# 5 -1.6191 6.0712 2.2387 0.0029 23.4381 0.0030
# 6 -0.0033 -0.0002 -0.0028 -1.3712 0.0030 21.1971
#
#
#
# Elastic Compliance Matrix: (Units=1/GPa)
#
#
# Indices 1 2 3 4 5 6 
#
# 1 0.010085 -0.000895 -0.002529 0.000000 0.001170 0.000001
# 2 -0.000895 0.009932 0.000608 0.000002 -0.002693 0.000001
# 3 -0.002529 0.000608 0.017836 0.000001 -0.002036 0.000002
# 4 0.000000 0.000002 0.000001 0.043211 -0.000006 0.002795
# 5 0.001170 -0.002693 -0.002036 -0.000006 0.043638 -0.000007
# 6 0.000001 0.000001 0.000002 0.002795 -0.000007 0.047357
#
#
# Mechanical properties :
#
#
# Convention : Reuss Voigt Hill
#
# Bulk Modulus (GPa) = 31.03453 34.03631 32.53542
# Shear Modulus (GPa) = 26.53496 29.88067 28.20781
#
# Velocity S-wave (km/s) = 3.50911 3.72377 3.61803
# Velocity P-wave (km/s) = 5.55161 5.85521 5.70543
#
# Compressibility (1/GPa) = 0.03222218
#
# Stress axis : x y z
#
# Youngs Moduli (GPa) = 99.16082 100.68578 56.06532
#
# Poissons Ratio (x) = 0.09007 0.14178
# Poissons Ratio (y) = 0.08871 -0.03409
# Poissons Ratio (z) = 0.25075 -0.06121
#
# Static dielectric constant tensor:
#      x y z
#    x 1.727080 0.000000 0.038220 
#    y 0.000000 1.973040 0.000000 
#    z 0.038220 0.000000 1.790970 
# 
# From -- ./inp_files/278847.got.cif
#   From: 2010.05.17/outbox.cif.g08.bks.cpg/sg15_140_cif.got.tgz:278847.got - 2010.06.03 18:47:42.
