data_PCOD9288483
_publ_section_title
;
Structure prediction by ZEFSAII (Michael W. Deem and Ramdas Pophale) SiO2 
 PCOD9288483
Probable space group: C 2/C
;
_chemical_formula_sum "Si O2"
_cell_formula_units_Z 56
_cell_length_a 5.591627
_cell_length_b 25.486947
_cell_length_c 19.605501
_cell_angle_alpha 90.000000
_cell_angle_beta 109.467604
_cell_angle_gamma 90.000000
_cell_volume 2634.313053
_symmetry_space_group_name_H-M "C 2/C"
_symmetry_group_IT_number 15
_symmetry_cell_setting 'monoclinic'
loop_
_space_group_symop_operation_xyz
x,y,z
-x,y,1/2-z
-x,-y,-z
x,-y,1/2+z
1/2+x,1/2+y,z
1/2-x,1/2+y,1/2-z
1/2-x,1/2-y,-z
1/2+x,1/2-y,1/2+z
loop_
_atom_site_type_symbol
_atom_site_label
_atom_site_fract_x
_atom_site_fract_y
_atom_site_fract_z
Si Si1 0.694665 0.142994 0.707785
Si Si2 0.537630 0.705434 0.479503
Si Si3 0.755800 0.696007 0.929127
Si Si4 0.137706 0.374986 0.553616
Si Si5 0.742892 0.471433 0.322278
Si Si6 0.567462 0.076256 0.332067
Si Si7 0.422931 0.524516 0.064103
O O1 0.500000 0.157830 0.750000
O O2 0.689098 0.180575 0.642374
O O3 0.623302 0.083638 0.678989
O O4 0.000000 0.140826 0.750000
O O5 0.750000 0.750000 0.500000
O O6 0.504793 0.685621 0.554263
O O7 0.295683 0.740958 0.437504
O O8 0.611091 0.660242 0.434322
O O9 0.938929 0.657867 0.990391
O O10 0.197936 0.433415 0.532799
O O11 0.036201 0.384318 0.620003
O O12 0.500000 0.474899 0.250000
O O13 0.653585 0.478531 0.391397
O O14 0.914574 0.521555 0.323857
O O15 0.500000 0.096097 0.250000
O O16 0.853047 0.057925 0.377489
O O17 0.500000 0.500000 0.000000
#
# Coordination Sequence:
#
# PCOD9288483 Si02
#       7
#     8   8   8   8   8   8   8
#     4  11  27  42  68 102 138 182 227 279 347 411
#     4   9  20  41  70  93 122 167 222 280 346 409
#     4  10  22  42  71  93 131 172 221 284 346 409
#     4  10  23  37  65  96 127 170 226 275 335 400
#     4  10  22  39  60  88 128 185 220 264 330 404
#     4  11  22  40  62  86 136 177 224 266 343 395
#     4  11  25  37  60  97 133 171 227 282 321 399
#
# _framework density 21.257912999999999
#
# number of rings (size 3 to 8) (size 9 to 14) (size 15 to 20)
#    0.000    1.714    1.429    1.286   12.000    1.143 
#    0.000    0.000   12.571    0.000    0.000    0.000 
#    0.000    0.000    0.000    0.000    0.000    0.000 
#
# Total GULP energy -156144.244919 kJ/mol
# GULP energy per Si atom -5576.580176 kJ/mol
# Density = 2.120953 g / cm^3
# Si number density = 21.257913 Si / 1000 Ang^3
#
#
#
# Elastic Constant Matrix: (Units=GPa)
#
#
# Indices 1 2 3 4 5 6 
#
# 1 89.8979 16.2079 47.8617 0.0000 -32.9620 0.0000
# 2 16.2079 57.9633 37.8115 0.0000 -20.7359 0.0000
# 3 47.8617 37.8115 115.3763 0.0000 -46.4668 0.0000
# 4 0.0000 0.0000 0.0000 20.5019 0.0000 -7.2879
# 5 -32.9620 -20.7359 -46.4668 0.0000 45.3461 0.0000
# 6 0.0000 0.0000 0.0000 -7.2879 0.0000 21.6878
#
#
#
# Elastic Compliance Matrix: (Units=1/GPa)
#
#
# Indices 1 2 3 4 5 6 
#
# 1 0.015901 0.000826 -0.003507 0.000000 0.008342 0.000000
# 2 0.000826 0.022549 -0.005683 0.000000 0.005088 0.000000
# 3 -0.003507 -0.005683 0.016876 0.000000 0.012145 0.000000
# 4 0.000000 0.000000 0.000000 0.055393 0.000000 0.018614
# 5 0.008342 0.005088 0.012145 0.000000 0.042888 0.000000
# 6 0.000000 0.000000 0.000000 0.018614 0.000000 0.052364
#
#
# Mechanical properties :
#
#
# Convention : Reuss Voigt Hill
#
# Bulk Modulus (GPa) = 25.90913 51.88888 38.89901
# Shear Modulus (GPa) = 21.22557 28.26425 24.74491
#
# Velocity S-wave (km/s) = 3.16330 3.65031 3.41549
# Velocity P-wave (km/s) = 5.05533 6.49835 5.82172
#
# Compressibility (1/GPa) = 0.03859643
#
# Stress axis : x y z
#
# Youngs Moduli (GPa) = 62.89026 44.34802 59.25596
#
# Poissons Ratio (x) = -0.03663 0.20781
# Poissons Ratio (y) = -0.05194 0.33678
# Poissons Ratio (z) = 0.22056 0.25205
#
# Static dielectric constant tensor:
#      x y z
#    x 1.967920 0.000000 0.042820 
#    y 0.000000 1.759300 0.000000 
#    z 0.042820 0.000000 1.919300 
# 
# From -- ./inp_files/186113.got.cif
#   From: 2010.05.17/outbox.cif.g08.bks.cpg/sg15_94_cif.got.tgz:186113.got - 2010.06.03 18:47:42.
