data_PCOD9288977
_publ_section_title
;
Structure prediction by ZEFSAII (Michael W. Deem and Ramdas Pophale) SiO2 
 PCOD9288977
Probable space group: C 2/C
;
_chemical_formula_sum "Si O2"
_cell_formula_units_Z 32
_cell_length_a 20.961614
_cell_length_b 10.279595
_cell_length_c 10.727068
_cell_angle_alpha 90.000000
_cell_angle_beta 143.946330
_cell_angle_gamma 90.000000
_cell_volume 1360.378689
_symmetry_space_group_name_H-M "C 2/C"
_symmetry_group_IT_number 15
_symmetry_cell_setting 'monoclinic'
loop_
_space_group_symop_operation_xyz
x,y,z
-x,y,1/2-z
-x,-y,-z
x,-y,1/2+z
1/2+x,1/2+y,z
1/2-x,1/2+y,1/2-z
1/2-x,1/2-y,-z
1/2+x,1/2-y,1/2+z
loop_
_atom_site_type_symbol
_atom_site_label
_atom_site_fract_x
_atom_site_fract_y
_atom_site_fract_z
Si Si1 0.972571 0.422864 0.580675
Si Si2 0.403056 0.310379 0.317968
Si Si3 0.748305 0.229126 0.792891
Si Si4 0.127587 0.903525 0.786243
O O1 0.851061 0.370373 0.382486
O O2 0.000000 0.499476 0.750000
O O3 0.000000 0.500000 0.500000
O O4 0.052298 0.298193 0.703906
O O5 0.312214 0.254037 0.265887
O O6 0.505892 0.356300 0.564339
O O7 0.366267 0.441766 0.192427
O O8 0.698003 0.357181 0.777832
O O9 0.827003 0.167225 0.020910
#
# Coordination Sequence:
#
# PCOD9288977 Si02
#       4
#     8   8   8   8
#     4  11  28  46  66 102 140 185 237 289 347 417
#     4  10  22  41  70  96 138 177 235 289 338 428
#     4  10  22  39  69  99 138 185 223 285 358 410
#     4   9  21  40  64 106 135 180 230 284 350 422
#
# _framework density 23.522860000000001
#
# number of rings (size 3 to 8) (size 9 to 14) (size 15 to 20)
#    0.000    2.000    0.000    0.750    7.000   11.000 
#    0.000    0.000    0.000    0.000    0.000    0.000 
#    0.000    0.000    0.000    0.000    0.000    0.000 
#
# Total GULP energy -89649.250492 kJ/mol
# GULP energy per Si atom -5603.078156 kJ/mol
# Density = 2.346932 g / cm^3
# Si number density = 23.522860 Si / 1000 Ang^3
#
#
#
# Elastic Constant Matrix: (Units=GPa)
#
#
# Indices 1 2 3 4 5 6 
#
# 1 119.8360 9.3277 21.3311 0.0000 17.5888 0.0000
# 2 9.3277 68.6890 11.0507 0.0000 3.4190 0.0000
# 3 21.3311 11.0507 65.7432 0.0000 2.4933 0.0000
# 4 0.0000 0.0000 0.0000 23.9949 0.0000 0.8450
# 5 17.5888 3.4190 2.4933 0.0000 39.3008 0.0000
# 6 0.0000 0.0000 0.0000 0.8450 0.0000 19.1029
#
#
#
# Elastic Compliance Matrix: (Units=1/GPa)
#
#
# Indices 1 2 3 4 5 6 
#
# 1 0.009485 -0.000635 -0.002819 0.000000 -0.004011 0.000000
# 2 -0.000635 0.015057 -0.002292 0.000000 -0.000880 0.000000
# 3 -0.002819 -0.002292 0.016495 0.000000 0.000414 0.000000
# 4 0.000000 0.000000 0.000000 0.041740 0.000000 -0.001846
# 5 -0.004011 -0.000880 0.000414 0.000000 0.027290 0.000000
# 6 0.000000 0.000000 0.000000 -0.001846 0.000000 0.052430
#
#
# Mechanical properties :
#
#
# Convention : Reuss Voigt Hill
#
# Bulk Modulus (GPa) = 33.84512 37.52079 35.68295
# Shear Modulus (GPa) = 27.19828 30.65031 28.92430
#
# Velocity S-wave (km/s) = 3.40405 3.61363 3.51041
# Velocity P-wave (km/s) = 5.46530 5.77897 5.62432
#
# Compressibility (1/GPa) = 0.02954636
#
# Stress axis : x y z
#
# Youngs Moduli (GPa) = 105.43487 66.41394 60.62562
#
# Poissons Ratio (x) = 0.04216 0.17088
# Poissons Ratio (y) = 0.06694 0.13893
# Poissons Ratio (z) = 0.29717 0.15219
#
# Static dielectric constant tensor:
#      x y z
#    x 1.889950 0.000000 -0.010390 
#    y 0.000000 1.870940 0.000000 
#    z -0.010390 0.000000 1.889350 
# 
# From -- ./inp_files/83871.got.cif
#   From: 2010.05.17/outbox.cif.g08.bks.cpg/sg15_42_cif.got.tgz:83871.got - 2010.06.03 18:47:42.
