data_PCOD9288826
_publ_section_title
;
Structure prediction by ZEFSAII (Michael W. Deem and Ramdas Pophale) SiO2 
 PCOD9288826
Probable space group: C 2/C
;
_chemical_formula_sum "Si O2"
_cell_formula_units_Z 40
_cell_length_a 18.350084
_cell_length_b 15.017084
_cell_length_c 7.713333
_cell_angle_alpha 90.000000
_cell_angle_beta 127.006237
_cell_angle_gamma 90.000000
_cell_volume 1697.378651
_symmetry_space_group_name_H-M "C 2/C"
_symmetry_group_IT_number 15
_symmetry_cell_setting 'monoclinic'
loop_
_space_group_symop_operation_xyz
x,y,z
-x,y,1/2-z
-x,-y,-z
x,-y,1/2+z
1/2+x,1/2+y,z
1/2-x,1/2+y,1/2-z
1/2-x,1/2-y,-z
1/2+x,1/2-y,1/2+z
loop_
_atom_site_type_symbol
_atom_site_label
_atom_site_fract_x
_atom_site_fract_y
_atom_site_fract_z
Si Si1 0.791154 0.522533 0.921281
Si Si2 0.000000 0.835173 0.250000
Si Si3 0.719543 0.197148 0.787619
Si Si4 0.000000 0.549115 0.250000
Si Si5 0.006619 0.691228 0.548523
Si Si6 0.795695 0.122858 0.388910
O O1 0.754151 0.598611 0.734314
O O2 0.735423 0.431590 0.824836
O O3 0.900775 0.504899 0.070922
O O4 0.764896 0.571733 0.059328
O O5 0.975769 0.776268 0.388266
O O6 0.095362 0.884234 0.427116
O O7 0.612890 0.187914 0.662822
O O8 0.732103 0.273979 0.661622
O O9 0.750000 0.250000 0.000000
O O10 0.975436 0.607757 0.386073
O O11 0.000000 0.693433 0.750000
#
# Coordination Sequence:
#
# PCOD9288826 Si02
#       6
#     8   4   8   4   8   8
#     4  11  24  43  67  96 137 179 225 281 342 399
#     4   9  22  42  62  99 138 172 230 283 334 409
#     4  10  22  39  66 100 129 168 228 275 338 411
#     4   9  22  42  62  99 138 172 230 283 334 409
#     4   9  19  37  68 100 129 176 223 281 352 398
#     4  11  24  43  67  96 137 179 225 281 342 399
#
# _framework density 23.565750000000001
#
# number of rings (size 3 to 8) (size 9 to 14) (size 15 to 20)
#    0.000    2.000    0.000    3.000    5.600    1.600 
#    0.000    0.000    0.000    0.000    0.000    0.000 
#    0.000    0.000    0.000    0.000    0.000    0.000 
#
# Total GULP energy -111444.646498 kJ/mol
# GULP energy per Si atom -5572.232325 kJ/mol
# Density = 2.351211 g / cm^3
# Si number density = 23.565750 Si / 1000 Ang^3
#
#
#
# Elastic Constant Matrix: (Units=GPa)
#
#
# Indices 1 2 3 4 5 6 
#
# 1 81.6885 39.1832 37.9658 0.0000 -16.1254 0.0000
# 2 39.1832 109.3847 30.3707 0.0000 5.5131 0.0000
# 3 37.9658 30.3707 114.1129 0.0000 0.6751 0.0000
# 4 0.0000 0.0000 0.0000 33.0373 0.0000 -14.1485
# 5 -16.1254 5.5131 0.6751 0.0000 66.2639 0.0000
# 6 0.0000 0.0000 0.0000 -14.1485 0.0000 34.0055
#
#
#
# Elastic Compliance Matrix: (Units=1/GPa)
#
#
# Indices 1 2 3 4 5 6 
#
# 1 0.017901 -0.005394 -0.004549 0.000000 0.004851 0.000000
# 2 -0.005394 0.011539 -0.001263 0.000000 -0.002260 0.000000
# 3 -0.004549 -0.001263 0.010619 0.000000 -0.001110 0.000000
# 4 0.000000 0.000000 0.000000 0.036832 0.000000 0.015324
# 5 0.004851 -0.002260 -0.001110 0.000000 0.016471 0.000000
# 6 0.000000 0.000000 0.000000 0.015324 0.000000 0.035783
#
#
# Mechanical properties :
#
#
# Convention : Reuss Voigt Hill
#
# Bulk Modulus (GPa) = 56.66544 57.80284 57.23414
# Shear Modulus (GPa) = 31.75851 39.83910 35.79881
#
# Velocity S-wave (km/s) = 3.67503 4.11609 3.90180
# Velocity P-wave (km/s) = 6.48888 6.86813 6.68120
#
# Compressibility (1/GPa) = 0.01764744
#
# Stress axis : x y z
#
# Youngs Moduli (GPa) = 55.86413 86.66426 94.16754
#
# Poissons Ratio (x) = 0.46745 0.42834
# Poissons Ratio (y) = 0.30132 0.11894
# Poissons Ratio (z) = 0.25411 0.10947
#
# Static dielectric constant tensor:
#      x y z
#    x 1.892090 0.000000 -0.200660 
#    y 0.000000 2.015110 0.000000 
#    z -0.200660 0.000000 2.266510 
# 
# From -- ./inp_files/37892.got.cif
#   From: 2010.05.17/outbox.cif.g08.bks.cpg/sg15_19_cif.got.tgz:37892.got - 2010.06.03 18:47:42.
