data_PCOD9288891
_publ_section_title
;
Structure prediction by ZEFSAII (Michael W. Deem and Ramdas Pophale) SiO2 
 PCOD9288891
Probable space group: C 2/C
;
_chemical_formula_sum "Si O2"
_cell_formula_units_Z 48
_cell_length_a 21.016899
_cell_length_b 11.809925
_cell_length_c 27.140480
_cell_angle_alpha 90.000000
_cell_angle_beta 20.786890
_cell_angle_gamma 90.000000
_cell_volume 2390.731475
_symmetry_space_group_name_H-M "C 2/C"
_symmetry_group_IT_number 15
_symmetry_cell_setting 'monoclinic'
loop_
_space_group_symop_operation_xyz
x,y,z
-x,y,1/2-z
-x,-y,-z
x,-y,1/2+z
1/2+x,1/2+y,z
1/2-x,1/2+y,1/2-z
1/2-x,1/2-y,-z
1/2+x,1/2-y,1/2+z
loop_
_atom_site_type_symbol
_atom_site_label
_atom_site_fract_x
_atom_site_fract_y
_atom_site_fract_z
Si Si1 0.422610 0.221316 0.001279
Si Si2 0.859286 0.840728 0.492008
Si Si3 0.672663 0.793487 0.814989
Si Si4 0.658703 0.631320 0.607791
Si Si5 0.677186 0.074152 0.655350
Si Si6 0.995060 0.504074 0.619556
O O1 0.628281 0.264228 0.847722
O O2 0.423642 0.101362 0.973278
O O3 0.353758 0.205973 0.107038
O O4 0.298352 0.314234 0.064676
O O5 0.706123 0.743503 0.605332
O O6 0.902187 0.840944 0.402960
O O7 0.031501 0.799466 0.397063
O O8 0.785695 0.961735 0.561321
O O9 0.613376 0.913158 0.834297
O O10 0.500000 0.567032 0.750000
O O11 0.842016 0.562653 0.472830
O O12 0.500000 0.082791 0.750000
O O13 0.622266 0.057314 0.752091
#
# Coordination Sequence:
#
# PCOD9288891 Si02
#       6
#     8   8   8   8   8   8
#     4  12  27  47  69 100 142 184 229 279 342 426
#     4  10  23  40  71 102 138 173 226 286 341 405
#     4  11  26  44  72 102 139 180 227 285 344 409
#     4  10  22  39  67 105 135 174 226 286 343 395
#     4  12  25  47  73  99 137 183 230 282 349 409
#     4  11  25  46  68 100 135 180 234 284 340 411
#
# _framework density 20.077537
#
# number of rings (size 3 to 8) (size 9 to 14) (size 15 to 20)
#    0.000    1.000    3.333    2.000   11.667    4.000 
#    0.000    0.000    0.000    0.000    0.000    0.000 
#    0.000    0.000    0.000    0.000    0.000    0.000 
#
# Total GULP energy -134168.121125 kJ/mol
# GULP energy per Si atom -5590.338380 kJ/mol
# Density = 2.003184 g / cm^3
# Si number density = 20.077537 Si / 1000 Ang^3
#
#
#
# Elastic Constant Matrix: (Units=GPa)
#
#
# Indices 1 2 3 4 5 6 
#
# 1 79.0311 38.4157 18.5681 -0.0106 -0.1667 0.0017
# 2 38.4157 82.2505 10.1408 -0.0613 -14.9919 -0.0029
# 3 18.5681 10.1408 74.1175 -0.0814 1.6110 0.0023
# 4 -0.0106 -0.0613 -0.0814 -1.0011 -0.0041 -1.6910
# 5 -0.1667 -14.9919 1.6110 -0.0041 28.5033 -0.0017
# 6 0.0017 -0.0029 0.0023 -1.6910 -0.0017 10.8599
#
#
#
# Elastic Compliance Matrix: (Units=1/GPa)
#
#
# Indices 1 2 3 4 5 6 
#
# 1 0.017552 -0.008583 -0.003130 0.000491 -0.004235 0.000071
# 2 -0.008583 0.017946 -0.000511 -0.000806 0.009418 -0.000118
# 3 -0.003130 -0.000511 0.014369 -0.000867 -0.001099 -0.000138
# 4 0.000491 -0.000806 -0.000867 -0.790795 -0.000494 -0.123137
# 5 -0.004235 0.009418 -0.001099 -0.000494 0.040074 -0.000067
# 6 0.000071 -0.000118 -0.000138 -0.123137 -0.000067 0.072908
#
#
# Mechanical properties :
#
#
# Convention : Reuss Voigt Hill
#
# Bulk Modulus (GPa) = 39.34141 41.07202 40.20672
# Shear Modulus (GPa) = -8.40301 18.89073 5.24386
#
# Velocity S-wave (km/s) = -2.04802 3.07072 1.61786
# Velocity P-wave (km/s) = 3.74764 5.75096 4.85378
#
# Compressibility (1/GPa) = 0.02541851
#
# Stress axis : x y z
#
# Youngs Moduli (GPa) = 56.97331 55.72328 69.59391
#
# Poissons Ratio (x) = 0.47830 0.21784
# Poissons Ratio (y) = 0.48903 0.03553
# Poissons Ratio (z) = 0.17834 0.02845
#
# Static dielectric constant tensor:
#      x y z
#    x 1.687140 0.000000 0.002670 
#    y 0.000000 1.709610 0.000010 
#    z 0.002670 0.000010 1.707950 
# 
# From -- ./inp_files/110526.got.cif
#   From: 2010.05.17/outbox.cif.g08.bks.cpg/sg15_56_cif.got.tgz:110526.got - 2010.06.03 18:47:42.
