data_PCOD9288161
_publ_section_title
;
Structure prediction by ZEFSAII (Michael W. Deem and Ramdas Pophale) SiO2 
 PCOD9288161
Probable space group: C 2/C
;
_chemical_formula_sum "Si O2"
_cell_formula_units_Z 56
_cell_length_a 20.800984
_cell_length_b 5.499576
_cell_length_c 23.265297
_cell_angle_alpha 90.000000
_cell_angle_beta 62.926242
_cell_angle_gamma 90.000000
_cell_volume 2369.830345
_symmetry_space_group_name_H-M "C 2/C"
_symmetry_group_IT_number 15
_symmetry_cell_setting 'monoclinic'
loop_
_space_group_symop_operation_xyz
x,y,z
-x,y,1/2-z
-x,-y,-z
x,-y,1/2+z
1/2+x,1/2+y,z
1/2-x,1/2+y,1/2-z
1/2-x,1/2-y,-z
1/2+x,1/2-y,1/2+z
loop_
_atom_site_type_symbol
_atom_site_label
_atom_site_fract_x
_atom_site_fract_y
_atom_site_fract_z
Si Si1 0.912805 0.939113 0.597819
Si Si2 0.777315 0.302962 0.166085
Si Si3 0.971407 0.692423 0.466755
Si Si4 0.997387 0.576462 0.854458
Si Si5 0.857669 0.717386 0.854352
Si Si6 0.352956 0.030503 0.241717
Si Si7 0.783193 0.206093 0.924119
O O1 0.829434 0.933684 0.647720
O O2 0.076356 0.133820 0.474115
O O3 0.957636 0.761444 0.622549
O O4 0.955246 0.184937 0.584824
O O5 0.815700 0.474476 0.195938
O O6 0.777466 0.366885 0.099026
O O7 0.695131 0.248445 0.214590
O O8 0.000000 0.500000 0.500000
O O9 0.944455 0.569283 0.419926
O O10 0.061658 0.428130 0.797983
O O11 0.942833 0.694797 0.832236
O O12 0.844392 0.692579 0.790882
O O13 0.817595 0.468772 0.892459
O O14 0.833274 0.965571 0.896150
O O15 0.750000 0.250000 0.000000
#
# Coordination Sequence:
#
# PCOD9288161 Si02
#       7
#     8   8   8   8   8   8   8
#     4   9  20  37  60  97 129 177 227 285 348 413
#     4  10  22  40  69  95 139 178 234 292 346 429
#     4   9  19  36  58  94 131 171 227 274 349 408
#     4  10  22  38  64  94 132 178 230 293 345 420
#     4  11  25  46  69  99 141 182 233 287 350 420
#     4  10  22  43  64 101 130 183 238 284 359 412
#     4  11  26  46  69 104 137 186 228 286 358 422
#
# _framework density 23.630383999999999
#
# number of rings (size 3 to 8) (size 9 to 14) (size 15 to 20)
#    0.000    2.000    0.000    1.714    6.000    2.286 
#   10.286    2.857    0.000    0.000    0.000    0.000 
#    0.000    0.000    0.000    0.000    0.000    0.000 
#
# Total GULP energy -156036.860708 kJ/mol
# GULP energy per Si atom -5572.745025 kJ/mol
# Density = 2.357660 g / cm^3
# Si number density = 23.630384 Si / 1000 Ang^3
#
#
#
# Elastic Constant Matrix: (Units=GPa)
#
#
# Indices 1 2 3 4 5 6 
#
# 1 104.3620 7.5790 40.7607 -0.0206 10.4717 -0.0213
# 2 7.5790 73.8426 27.0707 -0.0677 -5.6132 -0.0057
# 3 40.7607 27.0707 111.9959 -0.0289 17.2084 0.0009
# 4 -0.0206 -0.0677 -0.0289 28.4986 0.0020 -0.1673
# 5 10.4717 -5.6132 17.2084 0.0020 37.2964 -0.0149
# 6 -0.0213 -0.0057 0.0009 -0.1673 -0.0149 12.6275
#
#
#
# Elastic Compliance Matrix: (Units=1/GPa)
#
#
# Indices 1 2 3 4 5 6 
#
# 1 0.011236 0.000189 -0.003934 0.000005 -0.001311 0.000018
# 2 0.000189 0.015497 -0.004483 0.000032 0.004347 0.000013
# 3 -0.003934 -0.004483 0.012246 -0.000001 -0.005221 -0.000016
# 4 0.000005 0.000032 -0.000001 0.035092 0.000002 0.000465
# 5 -0.001311 0.004347 -0.005221 0.000002 0.030244 0.000036
# 6 0.000018 0.000013 -0.000016 0.000465 0.000036 0.079199
#
#
# Mechanical properties :
#
#
# Convention : Reuss Voigt Hill
#
# Bulk Modulus (GPa) = 44.39506 49.00237 46.69871
# Shear Modulus (GPa) = 24.09916 30.00383 27.05149
#
# Velocity S-wave (km/s) = 3.19695 3.56717 3.38712
# Velocity P-wave (km/s) = 5.69697 6.14396 5.92468
#
# Compressibility (1/GPa) = 0.02252503
#
# Stress axis : x y z
#
# Youngs Moduli (GPa) = 88.99768 64.52973 81.65814
#
# Poissons Ratio (x) = -0.01221 0.32121
# Poissons Ratio (y) = -0.01683 0.36604
# Poissons Ratio (z) = 0.35008 0.28926
#
# Static dielectric constant tensor:
#      x y z
#    x 1.988340 0.000030 0.136060 
#    y 0.000030 1.918030 0.000130 
#    z 0.136060 0.000130 2.171680 
# 
# From -- ./inp_files/278904.got.cif
#   From: 2010.05.17/outbox.cif.g08.bks.cpg/sg15_140_cif.got.tgz:278904.got - 2010.06.03 18:47:42.
