data_PCOD9288812
_publ_section_title
;
Structure prediction by ZEFSAII (Michael W. Deem and Ramdas Pophale) SiO2 
 PCOD9288812
Probable space group: C 2/C
;
_chemical_formula_sum "Si O2"
_cell_formula_units_Z 52
_cell_length_a 10.075437
_cell_length_b 10.568945
_cell_length_c 23.406534
_cell_angle_alpha 90.000000
_cell_angle_beta 130.408183
_cell_angle_gamma 90.000000
_cell_volume 1897.892445
_symmetry_space_group_name_H-M "C 2/C"
_symmetry_group_IT_number 15
_symmetry_cell_setting 'monoclinic'
loop_
_space_group_symop_operation_xyz
x,y,z
-x,y,1/2-z
-x,-y,-z
x,-y,1/2+z
1/2+x,1/2+y,z
1/2-x,1/2+y,1/2-z
1/2-x,1/2-y,-z
1/2+x,1/2-y,1/2+z
loop_
_atom_site_type_symbol
_atom_site_label
_atom_site_fract_x
_atom_site_fract_y
_atom_site_fract_z
Si Si1 0.029829 0.689388 0.540714
Si Si2 0.326159 0.979040 0.063805
Si Si3 0.060300 0.882998 0.643086
Si Si4 0.750000 0.250000 0.500000
Si Si5 0.850392 0.695453 0.668101
Si Si6 0.411143 0.392132 0.165892
Si Si7 0.884268 0.647833 0.308998
O O1 0.034859 0.823409 0.574410
O O2 0.072865 0.702849 0.486496
O O3 0.204977 0.614764 0.610141
O O4 0.868130 0.610103 0.520636
O O5 0.514041 0.026324 0.140982
O O6 0.255281 0.900632 0.098547
O O7 0.229926 0.106194 0.019729
O O8 0.259452 0.877845 0.720374
O O9 0.954352 0.788358 0.654854
O O10 0.986604 0.019153 0.637975
O O11 0.734082 0.782479 0.676680
O O12 0.000000 0.634275 0.750000
O O13 0.500000 0.430645 0.250000
O O14 0.469758 0.251092 0.166144
#
# Coordination Sequence:
#
# PCOD9288812 Si02
#       7
#     8   8   8   4   8   8   8
#     4  11  24  45  64  92 124 172 212 267 319 369
#     4  11  24  43  66  86 130 166 212 267 313 371
#     4  10  22  39  65  95 132 164 201 252 317 391
#     4  12  26  44  64  94 120 166 234 270 314 366
#     4   9  21  39  62  98 127 163 201 247 319 386
#     4  12  22  38  66  99 134 164 201 252 320 392
#     4  11  22  37  65 100 130 163 200 249 318 389
#
# _framework density 27.398810000000001
#
# number of rings (size 3 to 8) (size 9 to 14) (size 15 to 20)
#    0.000    1.231    3.077    3.692    6.462    0.615 
#    0.000    3.077    0.000    5.538    0.000    0.000 
#    0.000    0.000    0.000    0.000    0.000    0.000 
#
# Total GULP energy -145373.244994 kJ/mol
# GULP energy per Si atom -5591.278654 kJ/mol
# Density = 2.733645 g / cm^3
# Si number density = 27.398810 Si / 1000 Ang^3
#
#
#
# Elastic Constant Matrix: (Units=GPa)
#
#
# Indices 1 2 3 4 5 6 
#
# 1 103.4092 20.9588 31.2577 0.0000 -25.0388 0.0000
# 2 20.9588 120.4942 3.8235 0.0000 -23.2811 0.0000
# 3 31.2577 3.8235 145.5180 0.0000 14.5491 0.0000
# 4 0.0000 0.0000 0.0000 30.0390 0.0000 -4.2966
# 5 -25.0388 -23.2811 14.5491 0.0000 60.6361 0.0000
# 6 0.0000 0.0000 0.0000 -4.2966 0.0000 40.5463
#
#
#
# Elastic Compliance Matrix: (Units=1/GPa)
#
#
# Indices 1 2 3 4 5 6 
#
# 1 0.012109 -0.000969 -0.003113 0.000000 0.005375 0.000000
# 2 -0.000969 0.009092 -0.000348 0.000000 0.003174 0.000000
# 3 -0.003113 -0.000348 0.007881 0.000000 -0.003310 0.000000
# 4 0.000000 0.000000 0.000000 0.033802 0.000000 0.003582
# 5 0.005375 0.003174 -0.003310 0.000000 0.020724 0.000000
# 6 0.000000 0.000000 0.000000 0.003582 0.000000 0.025043
#
#
# Mechanical properties :
#
#
# Convention : Reuss Voigt Hill
#
# Bulk Modulus (GPa) = 49.45156 53.50017 51.47586
# Shear Modulus (GPa) = 40.24066 47.13640 43.68853
#
# Velocity S-wave (km/s) = 3.83652 4.15225 3.99750
# Velocity P-wave (km/s) = 6.14111 6.52358 6.33523
#
# Compressibility (1/GPa) = 0.02022181
#
# Stress axis : x y z
#
# Youngs Moduli (GPa) = 82.58170 109.98617 126.89085
#
# Poissons Ratio (x) = 0.10657 0.39502
# Poissons Ratio (y) = 0.08002 0.04418
# Poissons Ratio (z) = 0.25708 0.03829
#
# Static dielectric constant tensor:
#      x y z
#    x 2.099960 0.000000 0.017730 
#    y 0.000000 2.075690 0.000000 
#    z 0.017730 0.000000 2.158310 
# 
# From -- ./inp_files/291685.got.cif
#   From: 2010.05.17/outbox.cif.g08.bks.cpg/sg15_146_cif.got.tgz:291685.got - 2010.06.03 18:47:42.
