data_PCOD9288444
_publ_section_title
;
Structure prediction by ZEFSAII (Michael W. Deem and Ramdas Pophale) SiO2 
 PCOD9288444
Probable space group: C 2/C
;
_chemical_formula_sum "Si O2"
_cell_formula_units_Z 48
_cell_length_a 11.470381
_cell_length_b 25.976437
_cell_length_c 11.912059
_cell_angle_alpha 90.000000
_cell_angle_beta 42.938130
_cell_angle_gamma 90.000000
_cell_volume 2417.820980
_symmetry_space_group_name_H-M "C 2/C"
_symmetry_group_IT_number 15
_symmetry_cell_setting 'monoclinic'
loop_
_space_group_symop_operation_xyz
x,y,z
-x,y,1/2-z
-x,-y,-z
x,-y,1/2+z
1/2+x,1/2+y,z
1/2-x,1/2+y,1/2-z
1/2-x,1/2-y,-z
1/2+x,1/2-y,1/2+z
loop_
_atom_site_type_symbol
_atom_site_label
_atom_site_fract_x
_atom_site_fract_y
_atom_site_fract_z
Si Si1 0.683591 0.192376 0.557695
Si Si2 0.928788 0.100341 0.426338
Si Si3 0.312154 0.397848 0.362512
Si Si4 0.813410 0.542256 0.748348
Si Si5 0.012330 0.371620 0.997107
Si Si6 0.733195 0.074781 0.169647
O O1 0.500000 0.190022 0.750000
O O2 0.750000 0.250000 0.500000
O O3 0.833558 0.155776 0.501207
O O4 0.632763 0.167807 0.474392
O O5 0.780758 0.062152 0.573746
O O6 0.000000 0.093294 0.250000
O O7 0.086805 0.089234 0.398044
O O8 0.500000 0.377329 0.250000
O O9 0.307110 0.443968 0.274278
O O10 0.181732 0.357180 0.398464
O O11 0.248376 0.419035 0.526315
O O12 0.977548 0.577829 0.601341
O O13 0.830654 0.481930 0.750331
O O14 0.099110 0.387395 0.820893
#
# Coordination Sequence:
#
# PCOD9288444 Si02
#       6
#     8   8   8   8   8   8
#     4  12  25  47  73 101 129 174 224 297 367 400
#     4  12  24  39  65  99 135 177 226 293 333 416
#     4  10  22  39  59  89 131 185 225 267 328 392
#     4  10  24  39  58  96 136 191 225 277 330 401
#     4  10  23  43  60  96 132 173 225 292 329 407
#     4  12  22  38  64  97 135 190 230 271 339 406
#
# _framework density 19.852585999999999
#
# number of rings (size 3 to 8) (size 9 to 14) (size 15 to 20)
#    1.000    0.000    5.000    2.000    2.333    0.000 
#    3.000    0.000    0.000    1.000    4.333    0.000 
#    0.000    0.000    0.000    0.000    0.000    0.000 
#
# Total GULP energy -133786.034679 kJ/mol
# GULP energy per Si atom -5574.418112 kJ/mol
# Density = 1.980740 g / cm^3
# Si number density = 19.852586 Si / 1000 Ang^3
#
#
#
# Elastic Constant Matrix: (Units=GPa)
#
#
# Indices 1 2 3 4 5 6 
#
# 1 98.8707 31.9204 5.9722 0.0000 1.6157 0.0000
# 2 31.9204 82.4285 11.9967 0.0000 8.6871 0.0000
# 3 5.9722 11.9967 115.4668 0.0000 23.9664 0.0000
# 4 0.0000 0.0000 0.0000 44.0995 0.0000 -25.7913
# 5 1.6157 8.6871 23.9664 0.0000 24.3345 0.0000
# 6 0.0000 0.0000 0.0000 -25.7913 0.0000 35.6444
#
#
#
# Elastic Compliance Matrix: (Units=1/GPa)
#
#
# Indices 1 2 3 4 5 6 
#
# 1 0.011590 -0.004563 -0.000382 0.000000 0.001235 0.000000
# 2 -0.004563 0.014423 -0.000323 0.000000 -0.004528 0.000000
# 3 -0.000382 -0.000323 0.010916 0.000000 -0.010610 0.000000
# 4 0.000000 0.000000 0.000000 0.039312 0.000000 0.028445
# 5 0.001235 -0.004528 -0.010610 0.000000 0.053078 0.000000
# 6 0.000000 0.000000 0.000000 0.028445 0.000000 0.048637
#
#
# Mechanical properties :
#
#
# Convention : Reuss Voigt Hill
#
# Bulk Modulus (GPa) = 37.88684 44.06052 40.97368
# Shear Modulus (GPa) = 25.34352 37.27413 31.30883
#
# Velocity S-wave (km/s) = 3.57681 4.33777 3.97554
# Velocity P-wave (km/s) = 6.01528 6.87970 6.46196
#
# Compressibility (1/GPa) = 0.02639439
#
# Stress axis : x y z
#
# Youngs Moduli (GPa) = 86.27955 69.33423 91.60794
#
# Poissons Ratio (x) = 0.31637 0.03498
# Poissons Ratio (y) = 0.39369 0.02956
# Poissons Ratio (z) = 0.03294 0.02237
#
# Static dielectric constant tensor:
#      x y z
#    x 1.754190 0.000000 -0.024600 
#    y 0.000000 1.678280 0.000000 
#    z -0.024600 0.000000 1.739220 
# 
# From -- ./inp_files/90624.got.cif
#   From: 2010.05.17/outbox.cif.g08.bks.cpg/sg15_46_cif.got.tgz:90624.got - 2010.06.03 18:47:42.
