data_PCOD9288159
_publ_section_title
;
Structure prediction by ZEFSAII (Michael W. Deem and Ramdas Pophale) SiO2 
 PCOD9288159
Probable space group: C 2/C
;
_chemical_formula_sum "Si O2"
_cell_formula_units_Z 44
_cell_length_a 5.170862
_cell_length_b 31.869412
_cell_length_c 11.585395
_cell_angle_alpha 90.000000
_cell_angle_beta 100.903721
_cell_angle_gamma 90.000000
_cell_volume 1874.716662
_symmetry_space_group_name_H-M "C 2/C"
_symmetry_group_IT_number 15
_symmetry_cell_setting 'monoclinic'
loop_
_space_group_symop_operation_xyz
x,y,z
-x,y,1/2-z
-x,-y,-z
x,-y,1/2+z
1/2+x,1/2+y,z
1/2-x,1/2+y,1/2-z
1/2-x,1/2-y,-z
1/2+x,1/2-y,1/2+z
loop_
_atom_site_type_symbol
_atom_site_label
_atom_site_fract_x
_atom_site_fract_y
_atom_site_fract_z
Si Si1 0.990511 0.193252 0.001114
Si Si2 0.500000 0.097218 0.750000
Si Si3 0.809097 0.035600 0.623653
Si Si4 0.369432 0.395935 0.475515
Si Si5 0.572442 0.777692 0.124735
Si Si6 0.785636 0.443632 0.832925
O O1 0.030813 0.144485 0.029973
O O2 0.678648 0.203139 0.964638
O O3 0.158184 0.202706 0.899616
O O4 0.091644 0.227999 0.099705
O O5 0.595535 0.066800 0.656904
O O6 0.265470 0.118631 0.658406
O O7 0.000000 0.030964 0.750000
O O8 0.961215 0.062114 0.539390
O O9 0.706902 0.988639 0.600480
O O10 0.185772 0.408343 0.567409
O O11 0.500000 0.785035 0.250000
O O12 0.500000 0.438472 0.750000
O O13 0.000000 0.443776 0.750000
#
# Coordination Sequence:
#
# PCOD9288159 Si02
#       6
#     8   4   8   8   8   8
#     4  10  24  41  64 102 125 162 220 257 326 401
#     4  10  22  38  64  94 130 176 226 274 330 380
#     4   9  20  40  60  94 128 177 229 274 327 387
#     4  11  25  40  67  99 135 173 222 286 333 391
#     4  10  22  43  68  91 129 170 204 262 327 397
#     4  11  25  44  66  94 135 184 231 272 331 395
#
# _framework density 23.470213000000001
#
# number of rings (size 3 to 8) (size 9 to 14) (size 15 to 20)
#    0.000    1.818    0.909    1.091    6.364    4.364 
#    0.000    3.636    0.000    0.000    0.000    0.000 
#    0.000    0.000    0.000    0.000    0.000    0.000 
#
# Total GULP energy -122824.903273 kJ/mol
# GULP energy per Si atom -5582.950149 kJ/mol
# Density = 2.341679 g / cm^3
# Si number density = 23.470213 Si / 1000 Ang^3
#
#
#
# Elastic Constant Matrix: (Units=GPa)
#
#
# Indices 1 2 3 4 5 6 
#
# 1 107.4988 25.3590 28.5953 0.0000 -23.7992 0.0000
# 2 25.3590 134.6095 40.5786 0.0000 -33.1901 0.0000
# 3 28.5953 40.5786 63.2142 0.0000 -4.4074 0.0000
# 4 0.0000 0.0000 0.0000 5.8580 0.0000 0.6134
# 5 -23.7992 -33.1901 -4.4074 0.0000 39.6781 0.0000
# 6 0.0000 0.0000 0.0000 0.6134 0.0000 17.4074
#
#
#
# Elastic Compliance Matrix: (Units=1/GPa)
#
#
# Indices 1 2 3 4 5 6 
#
# 1 0.012292 0.001416 -0.005919 0.000000 0.007900 0.000000
# 2 0.001416 0.011907 -0.007589 0.000000 0.009967 0.000000
# 3 -0.005919 -0.007589 0.022855 0.000000 -0.007360 0.000000
# 4 0.000000 0.000000 0.000000 0.171339 0.000000 -0.006038
# 5 0.007900 0.009967 -0.007360 0.000000 0.037461 0.000000
# 6 0.000000 0.000000 0.000000 -0.006038 0.000000 0.057660
#
#
# Mechanical properties :
#
#
# Convention : Reuss Voigt Hill
#
# Bulk Modulus (GPa) = 43.72342 54.93204 49.32773
# Shear Modulus (GPa) = 14.47929 26.64134 20.56031
#
# Velocity S-wave (km/s) = 2.48649 3.37280 2.96297
# Velocity P-wave (km/s) = 5.18780 6.21478 5.72437
#
# Compressibility (1/GPa) = 0.02287104
#
# Stress axis : x y z
#
# Youngs Moduli (GPa) = 81.35583 83.98110 43.75352
#
# Poissons Ratio (x) = -0.11896 0.25896
# Poissons Ratio (y) = -0.11524 0.33207
# Poissons Ratio (z) = 0.48152 0.63737
#
# Static dielectric constant tensor:
#      x y z
#    x 2.224270 0.000000 0.243700 
#    y 0.000000 1.924900 0.000000 
#    z 0.243700 0.000000 2.038500 
# 
# From -- ./inp_files/73975.got.cif
#   From: 2010.05.17/outbox.cif.g08.bks.cpg/sg15_37_cif.got.tgz:73975.got - 2010.06.03 18:47:42.
