data_PCOD9288167
_publ_section_title
;
Structure prediction by ZEFSAII (Michael W. Deem and Ramdas Pophale) SiO2 
 PCOD9288167
Probable space group: C 2/C
;
_chemical_formula_sum "Si O2"
_cell_formula_units_Z 44
_cell_length_a 14.964792
_cell_length_b 17.846282
_cell_length_c 8.551743
_cell_angle_alpha 90.000000
_cell_angle_beta 115.545035
_cell_angle_gamma 90.000000
_cell_volume 2060.622040
_symmetry_space_group_name_H-M "C 2/C"
_symmetry_group_IT_number 15
_symmetry_cell_setting 'monoclinic'
loop_
_space_group_symop_operation_xyz
x,y,z
-x,y,1/2-z
-x,-y,-z
x,-y,1/2+z
1/2+x,1/2+y,z
1/2-x,1/2+y,1/2-z
1/2-x,1/2-y,-z
1/2+x,1/2-y,1/2+z
loop_
_atom_site_type_symbol
_atom_site_label
_atom_site_fract_x
_atom_site_fract_y
_atom_site_fract_z
Si Si1 0.500000 0.562440 0.250000
Si Si2 0.414576 0.806259 0.804745
Si Si3 0.504286 0.352584 0.425572
Si Si4 0.281376 0.495143 0.673593
Si Si5 0.564538 0.059972 0.950905
Si Si6 0.220171 0.120180 0.041191
O O1 0.515711 0.603625 0.430266
O O2 0.609988 0.527830 0.307403
O O3 0.500000 0.829329 0.750000
O O4 0.436465 0.720556 0.863696
O O5 0.311701 0.826825 0.646500
O O6 0.425812 0.860296 0.959448
O O7 0.500000 0.391875 0.250000
O O8 0.621465 0.335265 0.513927
O O9 0.177739 0.467798 0.518034
O O10 0.278538 0.584311 0.632124
O O11 0.277120 0.452819 0.839073
O O12 0.500000 0.069040 0.750000
O O13 0.500000 0.000000 0.000000
#
# Coordination Sequence:
#
# PCOD9288167 Si02
#       6
#     4   8   8   8   8   8
#     4  10  24  44  64 100 136 164 230 272 332 404
#     4  10  22  41  60  90 129 171 217 264 325 401
#     4  10  24  42  64  92 130 180 213 268 332 393
#     4  10  22  38  64  95 125 173 207 284 334 376
#     4  11  21  38  62  94 126 168 222 273 333 386
#     4  10  22  40  63  96 127 163 224 264 335 395
#
# _framework density 21.352775000000001
#
# number of rings (size 3 to 8) (size 9 to 14) (size 15 to 20)
#    0.000    1.818    0.000    3.818    5.091    4.364 
#    3.273    2.727    0.000    0.000    0.000    0.000 
#    0.000    0.000    0.000    0.000    0.000    0.000 
#
# Total GULP energy -122567.545776 kJ/mol
# GULP energy per Si atom -5571.252081 kJ/mol
# Density = 2.130418 g / cm^3
# Si number density = 21.352775 Si / 1000 Ang^3
#
#
#
# Elastic Constant Matrix: (Units=GPa)
#
#
# Indices 1 2 3 4 5 6 
#
# 1 146.0317 48.7597 57.6981 0.0000 29.9712 0.0000
# 2 48.7597 79.3875 48.8920 0.0000 9.4848 0.0000
# 3 57.6981 48.8920 100.8184 0.0000 6.1397 0.0000
# 4 0.0000 0.0000 0.0000 47.9018 0.0000 9.7511
# 5 29.9712 9.4848 6.1397 0.0000 35.5766 0.0000
# 6 0.0000 0.0000 0.0000 9.7511 0.0000 35.3410
#
#
#
# Elastic Compliance Matrix: (Units=1/GPa)
#
#
# Indices 1 2 3 4 5 6 
#
# 1 0.011300 -0.003296 -0.004389 0.000000 -0.007884 0.000000
# 2 -0.003296 0.019319 -0.007416 0.000000 -0.001094 0.000000
# 3 -0.004389 -0.007416 0.015848 0.000000 0.002939 0.000000
# 4 0.000000 0.000000 0.000000 0.022118 0.000000 -0.006103
# 5 -0.007884 -0.001094 0.002939 0.000000 0.034534 0.000000
# 6 0.000000 0.000000 0.000000 -0.006103 0.000000 0.029980
#
#
# Mechanical properties :
#
#
# Convention : Reuss Voigt Hill
#
# Bulk Modulus (GPa) = 61.47778 70.77078 66.12428
# Shear Modulus (GPa) = 29.63460 35.15640 32.39550
#
# Velocity S-wave (km/s) = 3.72944 4.06206 3.89929
# Velocity P-wave (km/s) = 6.88469 7.43074 7.16292
#
# Compressibility (1/GPa) = 0.01626604
#
# Stress axis : x y z
#
# Youngs Moduli (GPa) = 88.49253 51.76368 63.10050
#
# Poissons Ratio (x) = 0.17061 0.27693
# Poissons Ratio (y) = 0.29166 0.46793
# Poissons Ratio (z) = 0.38837 0.38386
#
# Static dielectric constant tensor:
#      x y z
#    x 1.821940 0.000000 -0.279130 
#    y 0.000000 1.972020 0.000000 
#    z -0.279130 0.000000 3.138220 
# 
# From -- ./inp_files/39748.got.cif
#   From: 2010.05.17/outbox.cif.g08.bks.cpg/sg15_20_cif.got.tgz:39748.got - 2010.06.03 18:47:42.
