data_PCOD9288316
_publ_section_title
;
Structure prediction by ZEFSAII (Michael W. Deem and Ramdas Pophale) SiO2 
 PCOD9288316
Probable space group: C 2/C
;
_chemical_formula_sum "Si O2"
_cell_formula_units_Z 60
_cell_length_a 27.376183
_cell_length_b 21.654820
_cell_length_c 14.384443
_cell_angle_alpha 90.000000
_cell_angle_beta 163.940442
_cell_angle_gamma 90.000000
_cell_volume 2359.010544
_symmetry_space_group_name_H-M "C 2/C"
_symmetry_group_IT_number 15
_symmetry_cell_setting 'monoclinic'
loop_
_space_group_symop_operation_xyz
x,y,z
-x,y,1/2-z
-x,-y,-z
x,-y,1/2+z
1/2+x,1/2+y,z
1/2-x,1/2+y,1/2-z
1/2-x,1/2-y,-z
1/2+x,1/2-y,1/2+z
loop_
_atom_site_type_symbol
_atom_site_label
_atom_site_fract_x
_atom_site_fract_y
_atom_site_fract_z
Si Si1 0.628778 0.799595 0.827196
Si Si2 0.211074 0.499346 0.400003
Si Si3 0.500000 0.152608 0.250000
Si Si4 0.291288 0.996062 0.389045
Si Si5 0.218413 0.141610 0.243540
Si Si6 0.220513 0.102841 0.610841
Si Si7 0.322428 0.623907 0.541092
Si Si8 0.769291 0.237685 0.926227
O O1 0.663418 0.813357 0.999018
O O2 0.433964 0.772056 0.475320
O O3 0.750000 0.750000 0.000000
O O4 0.674775 0.856278 0.844379
O O5 0.252731 0.514345 0.582988
O O6 0.274016 0.433768 0.475665
O O7 0.301797 0.550318 0.500611
O O8 0.000000 0.500000 0.000000
O O9 0.583867 0.118535 0.491164
O O10 0.273580 0.070059 0.347102
O O11 0.179687 0.947889 0.119411
O O12 0.500000 0.986602 0.750000
O O13 0.327871 0.196765 0.490410
O O14 0.207167 0.154398 0.112959
O O15 0.023324 0.139898 0.932994
O O16 0.145336 0.171564 0.448106
O O17 0.750000 0.250000 0.000000
#
# Coordination Sequence:
#
# PCOD9288316 Si02
#       8
#     8   8   4   8   8   8   8   8
#     4  11  23  41  74  99 138 187 240 290 358 442
#     4  12  21  40  68  99 134 182 242 297 347 431
#     4  10  22  38  68 106 130 182 248 300 338 424
#     4  12  23  42  72 103 141 190 250 296 360 430
#     4  11  25  44  69 101 151 184 231 310 366 437
#     4  11  21  40  69  98 140 184 242 301 349 431
#     4  11  24  43  69 104 133 189 245 288 369 430
#     4  11  25  45  69 105 147 188 237 306 375 428
#
# _framework density 25.434391999999999
#
# number of rings (size 3 to 8) (size 9 to 14) (size 15 to 20)
#    0.000    0.800    4.667    3.200    3.733    1.600 
#    0.000    0.000    2.933    0.000    0.000    0.000 
#    0.000    0.000    0.000    0.000    0.000    0.000 
#
# Total GULP energy -167252.476417 kJ/mol
# GULP energy per Si atom -5575.082547 kJ/mol
# Density = 2.537650 g / cm^3
# Si number density = 25.434392 Si / 1000 Ang^3
#
#
#
# Elastic Constant Matrix: (Units=GPa)
#
#
# Indices 1 2 3 4 5 6 
#
# 1 166.3205 49.7892 9.6631 0.0000 1.1806 0.0000
# 2 49.7892 201.4624 3.9142 0.0000 -11.9008 0.0000
# 3 9.6631 3.9142 27.5161 0.0000 12.8632 0.0000
# 4 0.0000 0.0000 0.0000 18.0935 0.0000 -2.8068
# 5 1.1806 -11.9008 12.8632 0.0000 38.0620 0.0000
# 6 0.0000 0.0000 0.0000 -2.8068 0.0000 51.7071
#
#
#
# Elastic Compliance Matrix: (Units=1/GPa)
#
#
# Indices 1 2 3 4 5 6 
#
# 1 0.006611 -0.001593 -0.002098 0.000000 0.000006 0.000000
# 2 -0.001593 0.005511 -0.001251 0.000000 0.002195 0.000000
# 3 -0.002098 -0.001251 0.044429 0.000000 -0.015341 0.000000
# 4 0.000000 0.000000 0.000000 0.055738 0.000000 0.003026
# 5 0.000006 0.002195 -0.015341 0.000000 0.032144 0.000000
# 6 0.000000 0.000000 0.000000 0.003026 0.000000 0.019504
#
#
# Mechanical properties :
#
#
# Convention : Reuss Voigt Hill
#
# Bulk Modulus (GPa) = 21.42801 58.00355 39.71578
# Shear Modulus (GPa) = 26.40256 43.70137 35.05196
#
# Velocity S-wave (km/s) = 3.22540 4.14961 3.71635
# Velocity P-wave (km/s) = 4.72377 6.76858 5.83643
#
# Compressibility (1/GPa) = 0.04666789
#
# Stress axis : x y z
#
# Youngs Moduli (GPa) = 151.25989 181.44445 22.50800
#
# Poissons Ratio (x) = 0.28900 0.04722
# Poissons Ratio (y) = 0.24092 0.02816
# Poissons Ratio (z) = 0.31733 0.22698
#
# Static dielectric constant tensor:
#      x y z
#    x 1.990740 0.000000 0.037600 
#    y 0.000000 2.363950 0.000000 
#    z 0.037600 0.000000 2.122220 
# 
# From -- ./inp_files/179139.got.cif
#   From: 2010.05.17/outbox.cif.g08.bks.cpg/sg15_90_cif.got.tgz:179139.got - 2010.06.03 18:47:42.
