data_PCOD9288981
_publ_section_title
;
Structure prediction by ZEFSAII (Michael W. Deem and Ramdas Pophale) SiO2 
 PCOD9288981
Probable space group: C 2/C
;
_chemical_formula_sum "Si O2"
_cell_formula_units_Z 48
_cell_length_a 13.442118
_cell_length_b 12.780812
_cell_length_c 22.354420
_cell_angle_alpha 90.000000
_cell_angle_beta 141.243476
_cell_angle_gamma 90.000000
_cell_volume 2404.210015
_symmetry_space_group_name_H-M "C 2/C"
_symmetry_group_IT_number 15
_symmetry_cell_setting 'monoclinic'
loop_
_space_group_symop_operation_xyz
x,y,z
-x,y,1/2-z
-x,-y,-z
x,-y,1/2+z
1/2+x,1/2+y,z
1/2-x,1/2+y,1/2-z
1/2-x,1/2-y,-z
1/2+x,1/2-y,1/2+z
loop_
_atom_site_type_symbol
_atom_site_label
_atom_site_fract_x
_atom_site_fract_y
_atom_site_fract_z
Si Si1 0.311112 0.433128 0.166812
Si Si2 0.285914 0.162908 0.340700
Si Si3 0.857114 0.347509 0.529990
Si Si4 0.684705 0.708451 0.532153
Si Si5 0.881189 0.707337 0.837979
Si Si6 0.920770 0.536099 0.647558
O O1 0.500000 0.440159 0.250000
O O2 0.241599 0.541384 0.159712
O O3 0.232203 0.408151 0.065703
O O4 0.257863 0.344275 0.188501
O O5 0.469821 0.185432 0.412745
O O6 0.242123 0.223514 0.380527
O O7 0.181903 0.208814 0.238645
O O8 0.750000 0.250000 0.500000
O O9 0.894867 0.427303 0.601669
O O10 0.750000 0.750000 0.500000
O O11 0.499796 0.733864 0.439020
O O12 0.749053 0.592430 0.571845
O O13 0.972381 0.614510 0.844003
O O14 0.000000 0.526337 0.750000
#
# Coordination Sequence:
#
# PCOD9288981 Si02
#       6
#     8   8   8   8   8   8
#     4  12  26  44  72 104 140 185 236 286 354 424
#     4  12  24  44  73 104 138 183 240 290 345 424
#     4  12  27  49  71 101 146 187 230 294 363 423
#     4  10  22  39  70 101 136 176 233 292 344 403
#     4  11  23  44  68 107 141 183 234 296 347 413
#     4  11  23  44  72 104 141 182 236 295 351 415
#
# _framework density 19.964977999999999
#
# number of rings (size 3 to 8) (size 9 to 14) (size 15 to 20)
#    0.000    0.667    5.000    3.500    7.000    2.000 
#    0.000    0.833    0.000    0.000    0.000    0.000 
#    0.000    0.000    0.000    0.000    0.000    0.000 
#
# Total GULP energy -134154.883788 kJ/mol
# GULP energy per Si atom -5589.786824 kJ/mol
# Density = 1.991954 g / cm^3
# Si number density = 19.964978 Si / 1000 Ang^3
#
#
#
# Elastic Constant Matrix: (Units=GPa)
#
#
# Indices 1 2 3 4 5 6 
#
# 1 70.9583 46.8793 27.5629 0.0000 -5.8690 0.0000
# 2 46.8793 97.2365 38.6119 0.0000 -10.8599 0.0000
# 3 27.5629 38.6119 102.4979 0.0000 -23.9465 0.0000
# 4 0.0000 0.0000 0.0000 39.3149 0.0000 -3.5859
# 5 -5.8690 -10.8599 -23.9465 0.0000 45.3680 0.0000
# 6 0.0000 0.0000 0.0000 -3.5859 0.0000 32.3600
#
#
#
# Elastic Compliance Matrix: (Units=1/GPa)
#
#
# Indices 1 2 3 4 5 6 
#
# 1 0.021101 -0.009329 -0.002331 0.000000 -0.000734 0.000000
# 2 -0.009329 0.016230 -0.003399 0.000000 0.000884 0.000000
# 3 -0.002331 -0.003399 0.013007 0.000000 0.005750 0.000000
# 4 0.000000 0.000000 0.000000 0.025695 0.000000 0.002847
# 5 -0.000734 0.000884 0.005750 0.000000 0.025194 0.000000
# 6 0.000000 0.000000 0.000000 0.002847 0.000000 0.031218
#
#
# Mechanical properties :
#
#
# Convention : Reuss Voigt Hill
#
# Bulk Modulus (GPa) = 49.45714 55.20010 52.32862
# Shear Modulus (GPa) = 29.53250 33.91781 31.72516
#
# Velocity S-wave (km/s) = 3.85023 4.12620 3.99060
# Velocity P-wave (km/s) = 6.67768 7.09994 6.89205
#
# Compressibility (1/GPa) = 0.02021953
#
# Stress axis : x y z
#
# Youngs Moduli (GPa) = 47.39044 61.61242 76.88163
#
# Poissons Ratio (x) = 0.57481 0.17924
# Poissons Ratio (y) = 0.44213 0.26130
# Poissons Ratio (z) = 0.11049 0.20941
#
# Static dielectric constant tensor:
#      x y z
#    x 1.726240 0.000000 0.024550 
#    y 0.000000 1.629560 0.000000 
#    z 0.024550 0.000000 1.875470 
# 
# From -- ./inp_files/152186.got.cif
#   From: 2010.05.17/outbox.cif.g08.bks.cpg/sg15_77_cif.got.tgz:152186.got - 2010.06.03 18:47:42.
