data_PCOD9288589
_publ_section_title
;
Structure prediction by ZEFSAII (Michael W. Deem and Ramdas Pophale) SiO2 
 PCOD9288589
Probable space group: C 2/C
;
_chemical_formula_sum "Si O2"
_cell_formula_units_Z 60
_cell_length_a 11.316768
_cell_length_b 8.896202
_cell_length_c 25.811696
_cell_angle_alpha 90.000000
_cell_angle_beta 104.952751
_cell_angle_gamma 90.000000
_cell_volume 2510.632655
_symmetry_space_group_name_H-M "C 2/C"
_symmetry_group_IT_number 15
_symmetry_cell_setting 'monoclinic'
loop_
_space_group_symop_operation_xyz
x,y,z
-x,y,1/2-z
-x,-y,-z
x,-y,1/2+z
1/2+x,1/2+y,z
1/2-x,1/2+y,1/2-z
1/2-x,1/2-y,-z
1/2+x,1/2-y,1/2+z
loop_
_atom_site_type_symbol
_atom_site_label
_atom_site_fract_x
_atom_site_fract_y
_atom_site_fract_z
Si Si1 0.917882 0.460729 0.787132
Si Si2 0.272176 0.272308 0.376420
Si Si3 0.457814 0.815746 0.600974
Si Si4 0.500000 0.549866 0.250000
Si Si5 0.658307 0.918846 0.465149
Si Si6 0.721257 0.775031 0.255190
Si Si7 0.572142 0.602615 0.467373
Si Si8 0.885456 0.980163 0.132284
O O1 0.844234 0.316152 0.758104
O O2 0.818786 0.590983 0.786538
O O3 0.000000 0.520991 0.750000
O O4 0.998432 0.415032 0.845023
O O5 0.416447 0.265008 0.401068
O O6 0.206940 0.361964 0.414492
O O7 0.241693 0.335479 0.316155
O O8 0.222484 0.100103 0.370232
O O9 0.363620 0.686530 0.607915
O O10 0.407188 0.924948 0.551665
O O11 0.611462 0.656114 0.245107
O O12 0.458185 0.462916 0.194144
O O13 0.572934 0.782693 0.475263
O O14 0.782027 0.934131 0.512213
O O15 0.500000 0.500000 0.500000
O O16 0.536756 0.563467 0.404379
#
# Coordination Sequence:
#
# PCOD9288589 Si02
#       8
#     8   8   8   4   8   8   8   8
#     4  11  24  39  58  94 129 170 225 267 325 398
#     4   9  21  43  60  90 133 168 217 273 333 389
#     4  11  24  39  65  97 129 173 222 273 330 395
#     4  10  22  42  70  92 136 178 222 272 342 400
#     4  10  22  42  68  96 130 170 220 281 330 398
#     4  10  22  39  62  88 129 176 215 272 332 389
#     4  10  22  43  68  99 133 175 225 275 345 401
#     4  10  23  41  66  95 133 176 219 277 332 404
#
# _framework density 23.898358999999999
#
# number of rings (size 3 to 8) (size 9 to 14) (size 15 to 20)
#    0.000    1.867    0.667    1.600    8.400    3.733 
#    2.400    9.333    0.000    0.000    0.000    0.000 
#    0.000    0.000    0.000    0.000    0.000    0.000 
#
# Total GULP energy -167807.226806 kJ/mol
# GULP energy per Si atom -5593.574227 kJ/mol
# Density = 2.384397 g / cm^3
# Si number density = 23.898359 Si / 1000 Ang^3
#
#
#
# Elastic Constant Matrix: (Units=GPa)
#
#
# Indices 1 2 3 4 5 6 
#
# 1 54.7265 21.3229 9.4806 0.0000 2.9163 0.0000
# 2 21.3229 91.5639 33.6310 0.0000 9.8058 0.0000
# 3 9.4806 33.6310 74.4252 0.0000 -3.5255 0.0000
# 4 0.0000 0.0000 0.0000 47.4142 0.0000 -0.5010
# 5 2.9163 9.8058 -3.5255 0.0000 29.1020 0.0000
# 6 0.0000 0.0000 0.0000 -0.5010 0.0000 39.4126
#
#
#
# Elastic Compliance Matrix: (Units=1/GPa)
#
#
# Indices 1 2 3 4 5 6 
#
# 1 0.020124 -0.004399 -0.000604 0.000000 -0.000608 0.000000
# 2 -0.004399 0.014875 -0.006414 0.000000 -0.005348 0.000000
# 3 -0.000604 -0.006414 0.016612 0.000000 0.004234 0.000000
# 4 0.000000 0.000000 0.000000 0.021094 0.000000 0.000268
# 5 -0.000608 -0.005348 0.004234 0.000000 0.036738 0.000000
# 6 0.000000 0.000000 0.000000 0.000268 0.000000 0.025376
#
#
# Mechanical properties :
#
#
# Convention : Reuss Voigt Hill
#
# Bulk Modulus (GPa) = 34.75267 38.84272 36.79770
# Shear Modulus (GPa) = 29.89615 33.60450 31.75033
#
# Velocity S-wave (km/s) = 3.54074 3.75392 3.64889
# Velocity P-wave (km/s) = 5.59368 5.92266 5.76052
#
# Compressibility (1/GPa) = 0.02877477
#
# Stress axis : x y z
#
# Youngs Moduli (GPa) = 49.69233 67.22902 60.19607
#
# Poissons Ratio (x) = 0.29576 0.03638
# Poissons Ratio (y) = 0.21861 0.38612
# Poissons Ratio (z) = 0.03003 0.43123
#
# Static dielectric constant tensor:
#      x y z
#    x 1.904260 0.000000 -0.015490 
#    y 0.000000 1.910520 0.000000 
#    z -0.015490 0.000000 1.924830 
# 
# From -- ./inp_files/310360.got.cif
#   From: 2010.05.17/outbox.cif.g08.bks.cpg/sg15_156_cif.got.tgz:310360.got - 2010.06.03 18:47:42.
