data_PCOD9288911
_publ_section_title
;
Structure prediction by ZEFSAII (Michael W. Deem and Ramdas Pophale) SiO2 
 PCOD9288911
Probable space group: C 2/C
;
_chemical_formula_sum "Si O2"
_cell_formula_units_Z 40
_cell_length_a 16.245209
_cell_length_b 9.564766
_cell_length_c 20.713912
_cell_angle_alpha 90.000000
_cell_angle_beta 138.525806
_cell_angle_gamma 90.000000
_cell_volume 2131.597285
_symmetry_space_group_name_H-M "C 2/C"
_symmetry_group_IT_number 15
_symmetry_cell_setting 'monoclinic'
loop_
_space_group_symop_operation_xyz
x,y,z
-x,y,1/2-z
-x,-y,-z
x,-y,1/2+z
1/2+x,1/2+y,z
1/2-x,1/2+y,1/2-z
1/2-x,1/2-y,-z
1/2+x,1/2-y,1/2+z
loop_
_atom_site_type_symbol
_atom_site_label
_atom_site_fract_x
_atom_site_fract_y
_atom_site_fract_z
Si Si1 0.312528 0.395314 0.232729
Si Si2 0.901597 0.395218 0.911271
Si Si3 0.458688 0.241106 0.122598
Si Si4 0.255834 0.842743 0.600360
Si Si5 0.871911 0.088925 0.917596
O O1 0.231970 0.529078 0.165669
O O2 0.458722 0.371600 0.304436
O O3 0.254381 0.260659 0.161532
O O4 0.317176 0.400655 0.312986
O O5 0.898549 0.249947 0.948715
O O6 0.950662 0.357032 0.867503
O O7 0.000000 0.500000 0.000000
O O8 0.383889 0.172947 0.136906
O O9 0.354594 0.292018 0.011222
O O10 0.227607 0.001560 0.601169
O O11 0.000000 0.000000 0.000000
#
# Coordination Sequence:
#
# PCOD9288911 Si02
#       5
#     8   8   8   8   8
#     4  11  21  37  64  91 126 168 213 266 323 385
#     4  11  21  38  62  95 128 164 217 269 316 389
#     4  10  22  39  67  92 126 168 213 270 319 393
#     4  11  21  41  66  95 124 166 222 262 326 385
#     4  11  20  37  61  94 127 165 217 263 316 388
#
# _framework density 18.765270999999998
#
# number of rings (size 3 to 8) (size 9 to 14) (size 15 to 20)
#    0.000    1.200    6.000    3.000    0.000    0.000 
#    0.000    1.000    0.000    9.600    0.000    0.000 
#    0.000    0.000    0.000    0.000    0.000    0.000 
#
# Total GULP energy -111370.830868 kJ/mol
# GULP energy per Si atom -5568.541543 kJ/mol
# Density = 1.872256 g / cm^3
# Si number density = 18.765271 Si / 1000 Ang^3
#
#
#
# Elastic Constant Matrix: (Units=GPa)
#
#
# Indices 1 2 3 4 5 6 
#
# 1 119.2049 62.9335 25.0698 0.0000 11.6796 0.0000
# 2 62.9335 150.5213 53.2975 0.0000 6.0217 0.0000
# 3 25.0698 53.2975 119.8299 0.0000 14.1446 0.0000
# 4 0.0000 0.0000 0.0000 37.9501 0.0000 10.6759
# 5 11.6796 6.0217 14.1446 0.0000 28.3251 0.0000
# 6 0.0000 0.0000 0.0000 10.6759 0.0000 39.5812
#
#
#
# Elastic Compliance Matrix: (Units=1/GPa)
#
#
# Indices 1 2 3 4 5 6 
#
# 1 0.011125 -0.004550 0.000132 0.000000 -0.003685 0.000000
# 2 -0.004550 0.009747 -0.003571 0.000000 0.001587 0.000000
# 3 0.000132 -0.003571 0.010438 0.000000 -0.004507 0.000000
# 4 0.000000 0.000000 0.000000 0.028514 0.000000 -0.007691
# 5 -0.003685 0.001587 -0.004507 0.000000 0.038737 0.000000
# 6 0.000000 0.000000 0.000000 -0.007691 0.000000 0.027339
#
#
# Mechanical properties :
#
#
# Convention : Reuss Voigt Hill
#
# Bulk Modulus (GPa) = 65.22924 74.68417 69.95671
# Shear Modulus (GPa) = 34.01622 37.72164 35.86893
#
# Velocity S-wave (km/s) = 4.26223 4.48837 4.37676
# Velocity P-wave (km/s) = 7.68493 8.16983 7.93109
#
# Compressibility (1/GPa) = 0.01533055
#
# Stress axis : x y z
#
# Youngs Moduli (GPa) = 89.89000 102.59668 95.80569
#
# Poissons Ratio (x) = 0.46686 -0.01260
# Poissons Ratio (y) = 0.40904 0.34208
# Poissons Ratio (z) = -0.01182 0.36633
#
# Static dielectric constant tensor:
#      x y z
#    x 1.683680 0.000000 0.003320 
#    y 0.000000 1.663680 0.000000 
#    z 0.003320 0.000000 1.714310 
# 
# From -- ./inp_files/158746.got.cif
#   From: 2010.05.17/outbox.cif.g08.bks.cpg/sg15_80_cif.got.tgz:158746.got - 2010.06.03 18:47:42.
