data_PCOD9288815
_publ_section_title
;
Structure prediction by ZEFSAII (Michael W. Deem and Ramdas Pophale) SiO2 
 PCOD9288815
Probable space group: C 2/C
;
_chemical_formula_sum "Si O2"
_cell_formula_units_Z 48
_cell_length_a 22.097138
_cell_length_b 5.620403
_cell_length_c 18.578585
_cell_angle_alpha 90.000000
_cell_angle_beta 118.613210
_cell_angle_gamma 90.000000
_cell_volume 2025.571630
_symmetry_space_group_name_H-M "C 2/C"
_symmetry_group_IT_number 15
_symmetry_cell_setting 'monoclinic'
loop_
_space_group_symop_operation_xyz
x,y,z
-x,y,1/2-z
-x,-y,-z
x,-y,1/2+z
1/2+x,1/2+y,z
1/2-x,1/2+y,1/2-z
1/2-x,1/2-y,-z
1/2+x,1/2-y,1/2+z
loop_
_atom_site_type_symbol
_atom_site_label
_atom_site_fract_x
_atom_site_fract_y
_atom_site_fract_z
Si Si1 0.450474 0.045375 0.040265
Si Si2 0.232109 0.851811 0.154499
Si Si3 0.809167 0.528483 0.487329
Si Si4 0.641881 0.492045 0.727467
Si Si5 0.314698 0.222828 0.129686
Si Si6 0.503048 0.453392 0.915289
O O1 0.475049 0.280274 0.097109
O O2 0.450630 0.778659 0.074508
O O3 0.500000 0.000000 0.000000
O O4 0.370417 0.095374 0.976411
O O5 0.201933 0.774450 0.059920
O O6 0.295726 0.684969 0.215330
O O7 0.171941 0.854891 0.178308
O O8 0.264555 0.108263 0.160502
O O9 0.733649 0.412724 0.437619
O O10 0.832952 0.478963 0.582405
O O11 0.627982 0.647557 0.791041
O O12 0.571370 0.385255 0.658477
O O13 0.500000 0.500000 0.000000
#
# Coordination Sequence:
#
# PCOD9288815 Si02
#       6
#     8   8   8   8   8   8
#     4  10  22  39  65  96 124 173 223 276 318 393
#     4  11  21  37  65  97 128 174 211 287 337 402
#     4  10  23  41  66  96 130 170 226 271 343 414
#     4  11  23  37  64  98 133 168 228 281 340 399
#     4  10  23  41  64  96 134 169 213 285 349 397
#     4  10  23  39  63  95 127 173 221 274 324 390
#
# _framework density 23.697013999999999
#
# number of rings (size 3 to 8) (size 9 to 14) (size 15 to 20)
#    0.000    1.667    1.667    2.500    9.333    0.000 
#    0.000    0.833    0.000    0.000    0.000    0.000 
#    0.000    0.000    0.000    0.000    0.000    0.000 
#
# Total GULP energy -133727.740380 kJ/mol
# GULP energy per Si atom -5571.989182 kJ/mol
# Density = 2.364308 g / cm^3
# Si number density = 23.697014 Si / 1000 Ang^3
#
#
#
# Elastic Constant Matrix: (Units=GPa)
#
#
# Indices 1 2 3 4 5 6 
#
# 1 52.1388 6.9551 23.6305 0.0000 5.9390 0.0001
# 2 6.9551 97.0711 17.5539 -0.0002 -2.3873 0.0006
# 3 23.6305 17.5539 101.6667 0.0000 0.4599 0.0001
# 4 0.0000 -0.0002 0.0000 31.6801 0.0000 2.5723
# 5 5.9390 -2.3873 0.4599 0.0000 36.5470 -0.0001
# 6 0.0001 0.0006 0.0001 2.5723 -0.0001 29.7565
#
#
#
# Elastic Compliance Matrix: (Units=1/GPa)
#
#
# Indices 1 2 3 4 5 6 
#
# 1 0.021929 -0.000764 -0.004949 0.000000 -0.003551 0.000000
# 2 -0.000764 0.010679 -0.001670 0.000000 0.000843 0.000000
# 3 -0.004949 -0.001670 0.011272 0.000000 0.000553 0.000000
# 4 0.000000 0.000000 0.000000 0.031789 0.000000 -0.002748
# 5 -0.003551 0.000843 0.000553 0.000000 0.027987 0.000000
# 6 0.000000 0.000000 0.000000 -0.002748 0.000000 0.033844
#
#
# Mechanical properties :
#
#
# Convention : Reuss Voigt Hill
#
# Bulk Modulus (GPa) = 34.34690 38.57284 36.45987
# Shear Modulus (GPa) = 30.86982 33.11254 31.99118
#
# Velocity S-wave (km/s) = 3.61319 3.74214 3.67823
# Velocity P-wave (km/s) = 5.65089 5.91476 5.78433
#
# Compressibility (1/GPa) = 0.02911471
#
# Stress axis : x y z
#
# Youngs Moduli (GPa) = 45.60181 93.64000 88.71340
#
# Poissons Ratio (x) = 0.07150 0.43905
# Poissons Ratio (y) = 0.03482 0.14817
# Poissons Ratio (z) = 0.22569 0.15640
#
# Static dielectric constant tensor:
#      x y z
#    x 1.962860 0.000000 -0.018060 
#    y 0.000000 2.016890 0.000000 
#    z -0.018060 0.000000 1.923210 
# 
# From -- ./inp_files/254246.got.cif
#   From: 2010.05.17/outbox.cif.g08.bks.cpg/sg15_128_cif.got.tgz:254246.got - 2010.06.03 18:47:42.
