data_PCOD9288114
_publ_section_title
;
Structure prediction by ZEFSAII (Michael W. Deem and Ramdas Pophale) SiO2 
 PCOD9288114
Probable space group: C 2/C
;
_chemical_formula_sum "Si O2"
_cell_formula_units_Z 52
_cell_length_a 11.421416
_cell_length_b 15.455793
_cell_length_c 14.774835
_cell_angle_alpha 90.000000
_cell_angle_beta 74.122557
_cell_angle_gamma 90.000000
_cell_volume 2508.654316
_symmetry_space_group_name_H-M "C 2/C"
_symmetry_group_IT_number 15
_symmetry_cell_setting 'monoclinic'
loop_
_space_group_symop_operation_xyz
x,y,z
-x,y,1/2-z
-x,-y,-z
x,-y,1/2+z
1/2+x,1/2+y,z
1/2-x,1/2+y,1/2-z
1/2-x,1/2-y,-z
1/2+x,1/2-y,1/2+z
loop_
_atom_site_type_symbol
_atom_site_label
_atom_site_fract_x
_atom_site_fract_y
_atom_site_fract_z
Si Si1 0.496117 0.358796 0.592820
Si Si2 0.507220 0.829407 0.145534
Si Si3 0.737036 0.093678 0.522715
Si Si4 0.812679 0.540689 0.608778
Si Si5 0.000000 0.832028 0.250000
Si Si6 0.159147 0.020985 0.813333
Si Si7 0.852610 0.185018 0.942436
O O1 0.466743 0.269943 0.650225
O O2 0.639626 0.375432 0.551651
O O3 0.431655 0.440970 0.652103
O O4 0.441411 0.342144 0.504464
O O5 0.500000 0.860051 0.250000
O O6 0.643381 0.834725 0.077852
O O7 0.420060 0.892562 0.107636
O O8 0.779130 0.042058 0.603673
O O9 0.663663 0.034758 0.467211
O O10 0.758346 0.504410 0.714198
O O11 0.709044 0.598252 0.582312
O O12 0.914753 0.895437 0.207859
O O13 0.923795 0.778623 0.339775
O O14 0.750000 0.250000 0.000000
#
# Coordination Sequence:
#
# PCOD9288114 Si02
#       7
#     8   8   8   8   4   8   8
#     4  12  24  43  69 102 134 170 232 281 332 400
#     4  12  27  45  65  97 144 177 215 282 349 401
#     4  12  24  44  70  98 134 182 226 275 333 407
#     4  11  24  44  71  96 137 176 226 276 339 412
#     4  10  22  38  64 100 136 168 228 278 332 404
#     4  11  22  41  68 104 128 170 229 280 330 396
#     4  11  21  40  68  97 133 180 219 284 346 390
#
# _framework density 20.728244
#
# number of rings (size 3 to 8) (size 9 to 14) (size 15 to 20)
#    0.000    0.615    6.154    3.231    3.231    0.000 
#    0.000    0.000    1.692    0.000    0.000    0.000 
#    0.000    0.000    0.000    0.000    0.000    0.000 
#
# Total GULP energy -145334.177057 kJ/mol
# GULP energy per Si atom -5589.776041 kJ/mol
# Density = 2.068107 g / cm^3
# Si number density = 20.728244 Si / 1000 Ang^3
#
#
#
# Elastic Constant Matrix: (Units=GPa)
#
#
# Indices 1 2 3 4 5 6 
#
# 1 67.9627 17.0624 17.5827 0.0000 6.1736 0.0000
# 2 17.0624 60.8279 31.6694 0.0000 -2.9365 0.0000
# 3 17.5827 31.6694 106.9874 0.0000 -4.0430 0.0000
# 4 0.0000 0.0000 0.0000 22.3378 0.0000 -6.4003
# 5 6.1736 -2.9365 -4.0430 0.0000 40.0245 0.0000
# 6 0.0000 0.0000 0.0000 -6.4003 0.0000 30.5522
#
#
#
# Elastic Compliance Matrix: (Units=1/GPa)
#
#
# Indices 1 2 3 4 5 6 
#
# 1 0.016387 -0.003877 -0.001658 0.000000 -0.002980 0.000000
# 2 -0.003877 0.020381 -0.005337 0.000000 0.001554 0.000000
# 3 -0.001658 -0.005337 0.011237 0.000000 0.000999 0.000000
# 4 0.000000 0.000000 0.000000 0.047626 0.000000 0.009977
# 5 -0.002980 0.001554 0.000999 0.000000 0.025659 0.000000
# 6 0.000000 0.000000 0.000000 0.009977 0.000000 0.034821
#
#
# Mechanical properties :
#
#
# Convention : Reuss Voigt Hill
#
# Bulk Modulus (GPa) = 38.08009 40.93412 39.50711
# Shear Modulus (GPa) = 26.79394 29.88045 28.33720
#
# Velocity S-wave (km/s) = 3.59922 3.80087 3.70142
# Velocity P-wave (km/s) = 5.97356 6.24924 6.11296
#
# Compressibility (1/GPa) = 0.02626044
#
# Stress axis : x y z
#
# Youngs Moduli (GPa) = 61.02417 49.06492 88.99187
#
# Poissons Ratio (x) = 0.19024 0.14755
# Poissons Ratio (y) = 0.23660 0.47496
# Poissons Ratio (z) = 0.10118 0.26187
#
# Static dielectric constant tensor:
#      x y z
#    x 1.752250 0.000000 -0.023330 
#    y 0.000000 1.712160 0.000000 
#    z -0.023330 0.000000 1.764100 
# 
# From -- ./inp_files/144161.got.cif
#   From: 2010.05.17/outbox.cif.g08.bks.cpg/sg15_73_cif.got.tgz:144161.got - 2010.06.03 18:47:42.
