data_PCOD9288740
_publ_section_title
;
Structure prediction by ZEFSAII (Michael W. Deem and Ramdas Pophale) SiO2 
 PCOD9288740
Probable space group: C 2/C
;
_chemical_formula_sum "Si O2"
_cell_formula_units_Z 64
_cell_length_a 8.835970
_cell_length_b 17.564205
_cell_length_c 18.727249
_cell_angle_alpha 90.000000
_cell_angle_beta 82.874794
_cell_angle_gamma 90.000000
_cell_volume 2883.964060
_symmetry_space_group_name_H-M "C 2/C"
_symmetry_group_IT_number 15
_symmetry_cell_setting 'monoclinic'
loop_
_space_group_symop_operation_xyz
x,y,z
-x,y,1/2-z
-x,-y,-z
x,-y,1/2+z
1/2+x,1/2+y,z
1/2-x,1/2+y,1/2-z
1/2-x,1/2-y,-z
1/2+x,1/2-y,1/2+z
loop_
_atom_site_type_symbol
_atom_site_label
_atom_site_fract_x
_atom_site_fract_y
_atom_site_fract_z
Si Si1 0.909483 0.072369 0.686136
Si Si2 0.761598 0.218984 0.641345
Si Si3 0.199055 0.813096 0.775727
Si Si4 0.596105 0.771249 0.605139
Si Si5 0.191414 0.008763 0.091163
Si Si6 0.448762 0.669659 0.409929
Si Si7 0.835855 0.467419 0.722670
Si Si8 0.291544 0.360528 0.489800
O O1 0.824424 0.133713 0.641796
O O2 0.777579 0.019624 0.725073
O O3 0.000000 0.107311 0.750000
O O4 0.035354 0.022971 0.637120
O O5 0.693067 0.241680 0.722861
O O6 0.643160 0.251206 0.590448
O O7 0.917202 0.265462 0.622030
O O8 0.329642 0.798969 0.826427
O O9 0.049095 0.832393 0.830817
O O10 0.254648 0.885446 0.728034
O O11 0.672896 0.689186 0.582658
O O12 0.645905 0.827211 0.538737
O O13 0.325719 0.003712 0.141925
O O14 0.218350 0.949409 0.025949
O O15 0.159435 0.096452 0.075562
O O16 0.568838 0.661916 0.466545
O O17 0.000000 0.465223 0.750000
#
# Coordination Sequence:
#
# PCOD9288740 Si02
#       8
#     8   8   8   8   8   8   8   8
#     4  10  22  39  64  91 135 175 213 263 345 407
#     4  12  22  38  65 104 123 168 215 286 328 387
#     4  11  22  39  66  94 132 166 214 269 344 391
#     4  10  22  41  64  91 128 171 217 271 328 386
#     4  11  21  44  67  89 129 180 216 262 332 402
#     4  11  24  40  67  96 130 173 222 269 317 398
#     4  11  23  39  63  98 132 164 215 282 336 397
#     4  10  23  44  65  89 129 185 224 255 317 407
#
# _framework density 22.191678
#
# number of rings (size 3 to 8) (size 9 to 14) (size 15 to 20)
#    0.000    1.250    3.750    2.625    1.750    1.500 
#    4.500    0.625    0.000    0.000    0.000    0.000 
#    0.000    0.000    0.000    0.000    0.000    0.000 
#
# Total GULP energy -178886.413596 kJ/mol
# GULP energy per Si atom -5590.200425 kJ/mol
# Density = 2.214117 g / cm^3
# Si number density = 22.191678 Si / 1000 Ang^3
#
#
#
# Elastic Constant Matrix: (Units=GPa)
#
#
# Indices 1 2 3 4 5 6 
#
# 1 52.4020 1.7065 -6.6976 0.0000 8.1577 0.0000
# 2 1.7065 57.8051 0.0224 0.0000 7.0730 0.0000
# 3 -6.6976 0.0224 33.9248 0.0000 3.8913 0.0000
# 4 0.0000 0.0000 0.0000 29.3405 0.0000 4.4952
# 5 8.1577 7.0730 3.8913 0.0000 24.1956 0.0000
# 6 0.0000 0.0000 0.0000 4.4952 0.0000 29.3949
#
#
#
# Elastic Compliance Matrix: (Units=1/GPa)
#
#
# Indices 1 2 3 4 5 6 
#
# 1 0.020960 0.000356 0.005054 0.000000 -0.007984 0.000000
# 2 0.000356 0.017959 0.000687 0.000000 -0.005481 0.000000
# 3 0.005054 0.000687 0.031270 0.000000 -0.006934 0.000000
# 4 0.000000 0.000000 0.000000 0.034900 0.000000 -0.005337
# 5 -0.007984 -0.005481 -0.006934 0.000000 0.046739 0.000000
# 6 0.000000 0.000000 0.000000 -0.005337 0.000000 0.034836
#
#
# Mechanical properties :
#
#
# Convention : Reuss Voigt Hill
#
# Bulk Modulus (GPa) = 12.13843 14.91053 13.52448
# Shear Modulus (GPa) = 24.76091 26.52625 25.64358
#
# Velocity S-wave (km/s) = 3.34394 3.46110 3.40303
# Velocity P-wave (km/s) = 4.51564 4.76506 4.64202
#
# Compressibility (1/GPa) = 0.08238297
#
# Stress axis : x y z
#
# Youngs Moduli (GPa) = 47.70894 55.68142 31.98003
#
# Poissons Ratio (x) = -0.01983 -0.16162
# Poissons Ratio (y) = -0.01699 -0.02197
# Poissons Ratio (z) = -0.24110 -0.03826
#
# Static dielectric constant tensor:
#      x y z
#    x 1.794390 0.000000 0.012360 
#    y 0.000000 1.842740 0.000000 
#    z 0.012360 0.000000 1.865420 
# 
# From -- ./inp_files/232700.got.cif
#   From: 2010.05.17/outbox.cif.g08.bks.cpg/sg15_117_cif.got.tgz:232700.got - 2010.06.03 18:47:42.
