data_PCOD9288153
_publ_section_title
;
Structure prediction by ZEFSAII (Michael W. Deem and Ramdas Pophale) SiO2 
 PCOD9288153
Probable space group: C 2/C
;
_chemical_formula_sum "Si O2"
_cell_formula_units_Z 40
_cell_length_a 21.394685
_cell_length_b 8.700453
_cell_length_c 8.782892
_cell_angle_alpha 90.000000
_cell_angle_beta 100.543156
_cell_angle_gamma 90.000000
_cell_volume 1607.276786
_symmetry_space_group_name_H-M "C 2/C"
_symmetry_group_IT_number 15
_symmetry_cell_setting 'monoclinic'
loop_
_space_group_symop_operation_xyz
x,y,z
-x,y,1/2-z
-x,-y,-z
x,-y,1/2+z
1/2+x,1/2+y,z
1/2-x,1/2+y,1/2-z
1/2-x,1/2-y,-z
1/2+x,1/2-y,1/2+z
loop_
_atom_site_type_symbol
_atom_site_label
_atom_site_fract_x
_atom_site_fract_y
_atom_site_fract_z
Si Si1 0.500000 0.009319 0.250000
Si Si2 0.280692 0.837486 0.260042
Si Si3 0.722547 0.543387 0.448933
Si Si4 0.588064 0.542516 0.537263
Si Si5 0.918185 0.328028 0.460119
Si Si6 0.000000 0.992438 0.250000
O O1 0.461491 0.904551 0.350510
O O2 0.551553 0.107174 0.370629
O O3 0.273749 0.668116 0.185475
O O4 0.345925 0.865796 0.378294
O O5 0.227093 0.884514 0.359675
O O6 0.275626 0.936054 0.101795
O O7 0.658615 0.576997 0.515508
O O8 0.582334 0.357366 0.539706
O O9 0.541838 0.592577 0.382149
O O10 0.553644 0.596396 0.675510
#
# Coordination Sequence:
#
# PCOD9288153 Si02
#       6
#     4   8   8   8   8   4
#     4  10  24  40  60  96 128 170 224 272 328 406
#     4  11  24  43  67  98 135 178 223 278 336 401
#     4  11  25  43  67 100 137 176 228 277 333 400
#     4  11  22  41  65  94 127 170 217 274 331 395
#     4  11  22  40  63  88 128 170 218 271 330 390
#     4  10  22  38  64  94 122 158 212 268 336 394
#
# _framework density 24.886814000000001
#
# number of rings (size 3 to 8) (size 9 to 14) (size 15 to 20)
#    0.000    1.200    0.000    6.000    0.000    6.400 
#    0.000    6.000    0.000    0.000    0.000    0.000 
#    0.000    0.000    0.000    0.000    0.000    0.000 
#
# Total GULP energy -111797.543243 kJ/mol
# GULP energy per Si atom -5589.877162 kJ/mol
# Density = 2.483017 g / cm^3
# Si number density = 24.886814 Si / 1000 Ang^3
#
#
#
# Elastic Constant Matrix: (Units=GPa)
#
#
# Indices 1 2 3 4 5 6 
#
# 1 123.3017 23.6665 69.7857 0.0000 5.2941 0.0000
# 2 23.6665 81.2697 52.6768 0.0000 -13.9841 0.0000
# 3 69.7857 52.6768 171.4451 0.0000 12.3044 0.0000
# 4 0.0000 0.0000 0.0000 41.0115 0.0000 -9.6464
# 5 5.2941 -13.9841 12.3044 0.0000 46.8272 0.0000
# 6 0.0000 0.0000 0.0000 -9.6464 0.0000 21.6882
#
#
#
# Elastic Compliance Matrix: (Units=1/GPa)
#
#
# Indices 1 2 3 4 5 6 
#
# 1 0.010548 -0.000423 -0.004147 0.000000 -0.000229 0.000000
# 2 -0.000423 0.017194 -0.005588 0.000000 0.006651 0.000000
# 3 -0.004147 -0.005588 0.009503 0.000000 -0.003697 0.000000
# 4 0.000000 0.000000 0.000000 0.027232 0.000000 0.012112
# 5 -0.000229 0.006651 -0.003697 0.000000 0.024339 0.000000
# 6 0.000000 0.000000 0.000000 0.012112 0.000000 0.051495
#
#
# Mechanical properties :
#
#
# Convention : Reuss Voigt Hill
#
# Bulk Modulus (GPa) = 59.06989 74.25274 66.66131
# Shear Modulus (GPa) = 30.07116 37.23123 33.65119
#
# Velocity S-wave (km/s) = 3.47986 3.87204 3.68118
# Velocity P-wave (km/s) = 6.31924 7.06337 6.70164
#
# Compressibility (1/GPa) = 0.01692910
#
# Stress axis : x y z
#
# Youngs Moduli (GPa) = 94.80041 58.15840 105.22803
#
# Poissons Ratio (x) = 0.02461 0.43641
# Poissons Ratio (y) = 0.04011 0.58803
# Poissons Ratio (z) = 0.39316 0.32500
#
# Static dielectric constant tensor:
#      x y z
#    x 2.037850 0.000000 0.028150 
#    y 0.000000 2.046870 0.000000 
#    z 0.028150 0.000000 1.990660 
# 
# From -- ./inp_files/59975.got.cif
#   From: 2010.05.17/outbox.cif.g08.bks.cpg/sg15_30_cif.got.tgz:59975.got - 2010.06.03 18:47:42.
