data_PCOD9288633
_publ_section_title
;
Structure prediction by ZEFSAII (Michael W. Deem and Ramdas Pophale) SiO2 
 PCOD9288633
Probable space group: C 2/C
;
_chemical_formula_sum "Si O2"
_cell_formula_units_Z 40
_cell_length_a 17.036237
_cell_length_b 7.903548
_cell_length_c 12.785412
_cell_angle_alpha 90.000000
_cell_angle_beta 90.462875
_cell_angle_gamma 90.000000
_cell_volume 1721.457572
_symmetry_space_group_name_H-M "C 2/C"
_symmetry_group_IT_number 15
_symmetry_cell_setting 'monoclinic'
loop_
_space_group_symop_operation_xyz
x,y,z
-x,y,1/2-z
-x,-y,-z
x,-y,1/2+z
1/2+x,1/2+y,z
1/2-x,1/2+y,1/2-z
1/2-x,1/2-y,-z
1/2+x,1/2-y,1/2+z
loop_
_atom_site_type_symbol
_atom_site_label
_atom_site_fract_x
_atom_site_fract_y
_atom_site_fract_z
Si Si1 0.640587 0.777568 0.555283
Si Si2 0.353057 0.579574 0.162676
Si Si3 0.824258 0.641286 0.041853
Si Si4 0.238807 0.769828 0.262464
Si Si5 0.024786 0.139544 0.916385
O O1 0.648737 0.657368 0.453366
O O2 0.699229 0.726078 0.648091
O O3 0.552508 0.752439 0.600000
O O4 0.660056 0.964314 0.513760
O O5 0.329866 0.723067 0.246006
O O6 0.284511 0.443020 0.181336
O O7 0.802923 0.628805 0.164673
O O8 0.904390 0.747963 0.037406
O O9 0.750000 0.750000 0.000000
O O10 0.067749 0.970621 0.326403
O O11 0.000000 0.000000 0.000000
#
# Coordination Sequence:
#
# PCOD9288633 Si02
#       5
#     8   8   8   8   8
#     4  11  22  42  67  95 136 180 224 281 336 400
#     4  10  22  39  62  95 131 172 221 272 333 393
#     4  11  24  43  67  99 134 176 228 280 335 404
#     4  11  23  40  65  96 131 177 225 277 335 398
#     4   9  21  41  65  95 134 178 219 275 341 402
#
# _framework density 23.236124
#
# number of rings (size 3 to 8) (size 9 to 14) (size 15 to 20)
#    0.000    1.600    0.000    4.800    0.000    9.600 
#    0.000    2.000    0.000    7.200    0.000    0.000 
#    0.000    0.000    0.000    0.000    0.000    0.000 
#
# Total GULP energy -111687.738351 kJ/mol
# GULP energy per Si atom -5584.386918 kJ/mol
# Density = 2.318324 g / cm^3
# Si number density = 23.236124 Si / 1000 Ang^3
#
#
#
# Elastic Constant Matrix: (Units=GPa)
#
#
# Indices 1 2 3 4 5 6 
#
# 1 160.0781 69.8374 47.4881 0.0000 -26.6429 0.0000
# 2 69.8374 132.8548 48.8208 0.0000 -9.3224 0.0000
# 3 47.4881 48.8208 90.0880 0.0000 -18.3350 0.0000
# 4 0.0000 0.0000 0.0000 50.0570 0.0000 -20.9400
# 5 -26.6429 -9.3224 -18.3350 0.0000 44.6920 0.0000
# 6 0.0000 0.0000 0.0000 -20.9400 0.0000 50.6485
#
#
#
# Elastic Compliance Matrix: (Units=1/GPa)
#
#
# Indices 1 2 3 4 5 6 
#
# 1 0.009131 -0.003807 -0.001968 0.000000 0.003842 0.000000
# 2 -0.003807 0.010987 -0.004302 0.000000 -0.001743 0.000000
# 3 -0.001968 -0.004302 0.015327 0.000000 0.004217 0.000000
# 4 0.000000 0.000000 0.000000 0.024155 0.000000 0.009987
# 5 0.003842 -0.001743 0.004217 0.000000 0.026032 0.000000
# 6 0.000000 0.000000 0.000000 0.009987 0.000000 0.023873
#
#
# Mechanical properties :
#
#
# Convention : Reuss Voigt Hill
#
# Bulk Modulus (GPa) = 65.39795 79.47930 72.43862
# Shear Modulus (GPa) = 37.10387 43.53780 40.32083
#
# Velocity S-wave (km/s) = 4.00036 4.33334 4.17017
# Velocity P-wave (km/s) = 7.03869 7.70171 7.37765
#
# Compressibility (1/GPa) = 0.01529100
#
# Stress axis : x y z
#
# Youngs Moduli (GPa) = 109.51445 91.01808 65.24266
#
# Poissons Ratio (x) = 0.34652 0.12841
# Poissons Ratio (y) = 0.41693 0.28066
# Poissons Ratio (z) = 0.21555 0.39155
#
# Static dielectric constant tensor:
#      x y z
#    x 1.890900 0.000000 -0.028210 
#    y 0.000000 2.001970 0.000000 
#    z -0.028210 0.000000 1.962010 
# 
# From -- ./inp_files/208256.got.cif
#   From: 2010.05.17/outbox.cif.g08.bks.cpg/sg15_105_cif.got.tgz:208256.got - 2010.06.03 18:47:42.
