data_PCOD9288886
_publ_section_title
;
Structure prediction by ZEFSAII (Michael W. Deem and Ramdas Pophale) SiO2 
 PCOD9288886
Probable space group: C 2/C
;
_chemical_formula_sum "Si O2"
_cell_formula_units_Z 60
_cell_length_a 10.150274
_cell_length_b 18.721318
_cell_length_c 16.984036
_cell_angle_alpha 90.000000
_cell_angle_beta 102.757193
_cell_angle_gamma 90.000000
_cell_volume 3147.746981
_symmetry_space_group_name_H-M "C 2/C"
_symmetry_group_IT_number 15
_symmetry_cell_setting 'monoclinic'
loop_
_space_group_symop_operation_xyz
x,y,z
-x,y,1/2-z
-x,-y,-z
x,-y,1/2+z
1/2+x,1/2+y,z
1/2-x,1/2+y,1/2-z
1/2-x,1/2-y,-z
1/2+x,1/2-y,1/2+z
loop_
_atom_site_type_symbol
_atom_site_label
_atom_site_fract_x
_atom_site_fract_y
_atom_site_fract_z
Si Si1 0.000000 0.342698 0.250000
Si Si2 0.471002 0.416862 0.007569
Si Si3 0.262899 0.270783 0.702106
Si Si4 0.454959 0.919912 0.078367
Si Si5 0.214879 0.170177 0.464233
Si Si6 0.850691 0.421587 0.540817
Si Si7 0.123706 0.693345 0.327473
Si Si8 0.001984 0.829617 0.161261
O O1 0.875096 0.288814 0.229289
O O2 0.990938 0.388945 0.168828
O O3 0.501156 0.392298 0.100115
O O4 0.500000 0.500000 0.000000
O O5 0.571471 0.365082 0.971036
O O6 0.310167 0.410503 0.976009
O O7 0.283136 0.321836 0.630093
O O8 0.247155 0.312699 0.782878
O O9 0.130531 0.222143 0.666695
O O10 0.401318 0.001052 0.076740
O O11 0.333278 0.877647 0.018470
O O12 0.584027 0.914692 0.037192
O O13 0.250000 0.250000 0.500000
O O14 0.901872 0.361398 0.607066
O O15 0.122101 0.773739 0.361994
O O16 0.000000 0.687273 0.250000
O O17 0.000000 0.856389 0.250000
#
# Coordination Sequence:
#
# PCOD9288886 Si02
#       8
#     4   8   8   8   8   8   8   8
#     4  12  24  38  66 100 130 166 226 276 320 404
#     4  12  25  43  65  99 132 171 226 273 330 414
#     4  10  22  39  66  99 127 169 226 272 337 391
#     4  11  25  45  66  96 136 181 220 272 341 407
#     4  12  22  45  71  93 136 184 215 274 343 401
#     4  11  26  43  65  99 131 177 227 270 335 401
#     4   9  21  41  66  95 128 164 219 277 329 390
#     4   9  20  41  66  90 126 171 214 273 339 391
#
# _framework density 19.061252
#
# number of rings (size 3 to 8) (size 9 to 14) (size 15 to 20)
#    0.000    1.600    4.000    1.600    6.533    0.533 
#    0.000    1.333    0.000    0.000    0.000    0.000 
#    0.000    0.000    0.000    0.000    0.000    0.000 
#
# Total GULP energy -167205.628332 kJ/mol
# GULP energy per Si atom -5573.520944 kJ/mol
# Density = 1.901787 g / cm^3
# Si number density = 19.061252 Si / 1000 Ang^3
#
#
#
# Elastic Constant Matrix: (Units=GPa)
#
#
# Indices 1 2 3 4 5 6 
#
# 1 99.4718 30.1110 46.8108 0.0000 -11.1837 0.0000
# 2 30.1110 106.0738 69.6560 0.0000 -17.4991 0.0000
# 3 46.8108 69.6560 128.8277 0.0000 -28.4118 0.0000
# 4 0.0000 0.0000 0.0000 26.8930 0.0000 -8.4395
# 5 -11.1837 -17.4991 -28.4118 0.0000 29.1290 0.0000
# 6 0.0000 0.0000 0.0000 -8.4395 0.0000 26.3850
#
#
#
# Elastic Compliance Matrix: (Units=1/GPa)
#
#
# Indices 1 2 3 4 5 6 
#
# 1 0.012180 -0.000843 -0.003886 0.000000 0.000379 0.000000
# 2 -0.000843 0.014719 -0.007356 0.000000 0.001344 0.000000
# 3 -0.003886 -0.007356 0.015095 0.000000 0.008812 0.000000
# 4 0.000000 0.000000 0.000000 0.041333 0.000000 0.013221
# 5 0.000379 0.001344 0.008812 0.000000 0.043879 0.000000
# 6 0.000000 0.000000 0.000000 0.013221 0.000000 0.042129
#
#
# Mechanical properties :
#
#
# Convention : Reuss Voigt Hill
#
# Bulk Modulus (GPa) = 56.10389 69.72542 62.91466
# Shear Modulus (GPa) = 25.06958 29.00112 27.03535
#
# Velocity S-wave (km/s) = 3.63052 3.90483 3.77017
# Velocity P-wave (km/s) = 6.86087 7.54913 7.21322
#
# Compressibility (1/GPa) = 0.01782407
#
# Stress axis : x y z
#
# Youngs Moduli (GPa) = 82.10360 67.94136 66.24727
#
# Poissons Ratio (x) = 0.05727 0.25745
# Poissons Ratio (y) = 0.06920 0.48728
# Poissons Ratio (z) = 0.31907 0.49974
#
# Static dielectric constant tensor:
#      x y z
#    x 1.527110 0.000000 -0.109830 
#    y 0.000000 1.666400 0.000000 
#    z -0.109830 0.000000 1.641610 
# 
# From -- ./inp_files/192188.got.cif
#   From: 2010.05.17/outbox.cif.g08.bks.cpg/sg15_97_cif.got.tgz:192188.got - 2010.06.03 18:47:42.
