data_PCOD9288699
_publ_section_title
;
Structure prediction by ZEFSAII (Michael W. Deem and Ramdas Pophale) SiO2 
 PCOD9288699
Probable space group: C 2/C
;
_chemical_formula_sum "Si O2"
_cell_formula_units_Z 48
_cell_length_a 20.041636
_cell_length_b 13.179774
_cell_length_c 12.136884
_cell_angle_alpha 90.000000
_cell_angle_beta 139.212952
_cell_angle_gamma 90.000000
_cell_volume 2094.244565
_symmetry_space_group_name_H-M "C 2/C"
_symmetry_group_IT_number 15
_symmetry_cell_setting 'monoclinic'
loop_
_space_group_symop_operation_xyz
x,y,z
-x,y,1/2-z
-x,-y,-z
x,-y,1/2+z
1/2+x,1/2+y,z
1/2-x,1/2+y,1/2-z
1/2-x,1/2-y,-z
1/2+x,1/2-y,1/2+z
loop_
_atom_site_type_symbol
_atom_site_label
_atom_site_fract_x
_atom_site_fract_y
_atom_site_fract_z
Si Si1 0.235748 0.847617 0.405764
Si Si2 0.543033 0.991628 0.678844
Si Si3 0.261926 0.433459 0.492033
Si Si4 0.605213 0.404480 0.045882
Si Si5 0.053082 0.710168 0.416277
Si Si6 0.117076 0.876263 0.667670
O O1 0.250000 0.750000 0.500000
O O2 0.151204 0.839388 0.204637
O O3 0.346785 0.857883 0.486832
O O4 0.210243 0.949201 0.442022
O O5 0.500000 0.019058 0.750000
O O6 0.537913 0.868920 0.675695
O O7 0.500000 0.000000 0.500000
O O8 0.647261 0.054459 0.807993
O O9 0.332102 0.387913 0.485505
O O10 0.284068 0.372076 0.631562
O O11 0.624109 0.521534 0.104506
O O12 0.484641 0.389049 0.885597
O O13 0.093598 0.782752 0.560599
O O14 0.000000 0.772908 0.250000
#
# Coordination Sequence:
#
# PCOD9288699 Si02
#       6
#     8   8   8   8   8   8
#     4  11  21  37  65 101 132 182 241 301 354 432
#     4  11  24  45  73 101 142 188 244 307 370 440
#     4  11  22  41  67  98 137 187 237 299 372 439
#     4  10  22  39  63  95 142 186 232 288 370 439
#     4  11  21  42  68 105 140 184 251 310 364 435
#     4  10  23  40  64  99 144 184 236 302 369 434
#
# _framework density 22.91996
#
# number of rings (size 3 to 8) (size 9 to 14) (size 15 to 20)
#    0.000    1.333    3.333    3.500    2.333    2.667 
#    0.000    5.000    0.000    0.000    0.000    0.000 
#    0.000    0.000    0.000    0.000    0.000    0.000 
#
# Total GULP energy -133826.061338 kJ/mol
# GULP energy per Si atom -5576.085889 kJ/mol
# Density = 2.286779 g / cm^3
# Si number density = 22.919960 Si / 1000 Ang^3
#
#
#
# Elastic Constant Matrix: (Units=GPa)
#
#
# Indices 1 2 3 4 5 6 
#
# 1 44.9676 14.5317 31.4574 0.0000 -21.5078 0.0000
# 2 14.5317 41.8183 19.6522 0.0000 -17.2199 0.0000
# 3 31.4574 19.6522 182.4615 0.0000 -15.9665 0.0000
# 4 0.0000 0.0000 0.0000 41.6483 0.0000 -2.8857
# 5 -21.5078 -17.2199 -15.9665 0.0000 33.6875 0.0000
# 6 0.0000 0.0000 0.0000 -2.8857 0.0000 15.5037
#
#
#
# Elastic Compliance Matrix: (Units=1/GPa)
#
#
# Indices 1 2 3 4 5 6 
#
# 1 0.035077 -0.002327 -0.004112 0.000000 0.019256 0.000000
# 2 -0.002327 0.031152 -0.001764 0.000000 0.013602 0.000000
# 3 -0.004112 -0.001764 0.006334 0.000000 -0.000525 0.000000
# 4 0.000000 0.000000 0.000000 0.024324 0.000000 0.004527
# 5 0.019256 0.013602 -0.000525 0.000000 0.048683 0.000000
# 6 0.000000 0.000000 0.000000 0.004527 0.000000 0.065344
#
#
# Mechanical properties :
#
#
# Convention : Reuss Voigt Hill
#
# Bulk Modulus (GPa) = 17.80743 44.50333 31.15538
# Shear Modulus (GPa) = 20.32210 31.74162 26.03186
#
# Velocity S-wave (km/s) = 2.98091 3.72545 3.37378
# Velocity P-wave (km/s) = 4.43103 6.16152 5.36648
#
# Compressibility (1/GPa) = 0.05615633
#
# Stress axis : x y z
#
# Youngs Moduli (GPa) = 28.50864 32.10114 157.88978
#
# Poissons Ratio (x) = 0.07471 0.64920
# Poissons Ratio (y) = 0.06635 0.27847
# Poissons Ratio (z) = 0.11722 0.05662
#
# Static dielectric constant tensor:
#      x y z
#    x 2.074380 0.000000 -0.022900 
#    y 0.000000 1.845970 0.000000 
#    z -0.022900 0.000000 1.930070 
# 
# From -- ./inp_files/112940.got.cif
#   From: 2010.05.17/outbox.cif.g08.bks.cpg/sg15_57_cif.got.tgz:112940.got - 2010.06.03 18:47:42.
