data_PCOD9288511
_publ_section_title
;
Structure prediction by ZEFSAII (Michael W. Deem and Ramdas Pophale) SiO2 
 PCOD9288511
Probable space group: C 2/C
;
_chemical_formula_sum "Si O2"
_cell_formula_units_Z 48
_cell_length_a 15.715934
_cell_length_b 14.263599
_cell_length_c 8.236252
_cell_angle_alpha 90.000000
_cell_angle_beta 92.040805
_cell_angle_gamma 90.000000
_cell_volume 1845.114793
_symmetry_space_group_name_H-M "C 2/C"
_symmetry_group_IT_number 15
_symmetry_cell_setting 'monoclinic'
loop_
_space_group_symop_operation_xyz
x,y,z
-x,y,1/2-z
-x,-y,-z
x,-y,1/2+z
1/2+x,1/2+y,z
1/2-x,1/2+y,1/2-z
1/2-x,1/2-y,-z
1/2+x,1/2-y,1/2+z
loop_
_atom_site_type_symbol
_atom_site_label
_atom_site_fract_x
_atom_site_fract_y
_atom_site_fract_z
Si Si1 0.306200 0.333399 0.705108
Si Si2 0.434170 0.528845 0.128475
Si Si3 0.149945 0.373404 0.257183
Si Si4 0.571126 0.840575 0.932950
Si Si5 0.881367 0.362452 0.899571
Si Si6 0.170834 0.143106 0.914980
O O1 0.353361 0.407001 0.593277
O O2 0.358160 0.237813 0.705683
O O3 0.210673 0.316041 0.638261
O O4 0.309895 0.374249 0.890597
O O5 0.500000 0.581801 0.250000
O O6 0.394980 0.428323 0.171482
O O7 0.500000 0.500000 0.000000
O O8 0.087197 0.392274 0.103980
O O9 0.135225 0.416508 0.433216
O O10 0.243064 0.374751 0.179848
O O11 0.472155 0.810352 0.925985
O O12 0.597915 0.902977 0.778670
O O13 0.630512 0.747542 0.919235
#
# Coordination Sequence:
#
# PCOD9288511 Si02
#       6
#     8   8   8   8   8   8
#     4  11  23  43  60  93 133 177 222 275 333 397
#     4  12  28  42  63  96 138 184 218 262 342 414
#     4  11  22  39  67  96 133 177 224 281 334 392
#     4  10  22  39  61 101 131 167 223 284 327 386
#     4  11  22  36  65  94 127 176 221 274 329 390
#     4  11  23  43  63  95 139 174 220 281 336 397
#
# _framework density 26.014641999999998
#
# number of rings (size 3 to 8) (size 9 to 14) (size 15 to 20)
#    0.000    1.000    5.000    2.000    7.000    0.000 
#    0.000    0.000    0.000    1.000    4.333    0.000 
#    0.000    0.000    0.000    0.000    0.000    0.000 
#
# Total GULP energy -133833.368554 kJ/mol
# GULP energy per Si atom -5576.390356 kJ/mol
# Density = 2.595543 g / cm^3
# Si number density = 26.014642 Si / 1000 Ang^3
#
#
#
# Elastic Constant Matrix: (Units=GPa)
#
#
# Indices 1 2 3 4 5 6 
#
# 1 145.8141 8.5095 64.1618 0.0000 -10.0907 0.0000
# 2 8.5095 52.7880 16.1197 0.0000 -6.2789 0.0000
# 3 64.1618 16.1197 161.7954 0.0000 -11.5072 0.0000
# 4 0.0000 0.0000 0.0000 20.8203 0.0000 1.6290
# 5 -10.0907 -6.2789 -11.5072 0.0000 48.3575 0.0000
# 6 0.0000 0.0000 0.0000 1.6290 0.0000 9.0071
#
#
#
# Elastic Compliance Matrix: (Units=1/GPa)
#
#
# Indices 1 2 3 4 5 6 
#
# 1 0.008355 -0.000251 -0.003221 0.000000 0.000944 0.000000
# 2 -0.000251 0.019759 -0.001719 0.000000 0.002104 0.000000
# 3 -0.003221 -0.001719 0.007696 0.000000 0.000936 0.000000
# 4 0.000000 0.000000 0.000000 0.048719 0.000000 -0.008811
# 5 0.000944 0.002104 0.000936 0.000000 0.021372 0.000000
# 6 0.000000 0.000000 0.000000 -0.008811 0.000000 0.112617
#
#
# Mechanical properties :
#
#
# Convention : Reuss Voigt Hill
#
# Bulk Modulus (GPa) = 39.32744 59.77550 49.55147
# Shear Modulus (GPa) = 21.06341 33.74408 27.40374
#
# Velocity S-wave (km/s) = 2.84857 3.60546 3.24913
# Velocity P-wave (km/s) = 5.09601 6.35295 5.75888
#
# Compressibility (1/GPa) = 0.02542754
#
# Stress axis : x y z
#
# Youngs Moduli (GPa) = 119.68168 50.60861 129.93819
#
# Poissons Ratio (x) = 0.01270 0.41857
# Poissons Ratio (y) = 0.03003 0.22343
# Poissons Ratio (z) = 0.38553 0.08702
#
# Static dielectric constant tensor:
#      x y z
#    x 2.034580 0.000000 -0.011350 
#    y 0.000000 2.064900 0.000000 
#    z -0.011350 0.000000 2.232710 
# 
# From -- ./inp_files/39606.got.cif
#   From: 2010.05.17/outbox.cif.g08.bks.cpg/sg15_20_cif.got.tgz:39606.got - 2010.06.03 18:47:42.
