data_PCOD9288272
_publ_section_title
;
Structure prediction by ZEFSAII (Michael W. Deem and Ramdas Pophale) SiO2 
 PCOD9288272
Probable space group: C 2/C
;
_chemical_formula_sum "Si O2"
_cell_formula_units_Z 56
_cell_length_a 12.382933
_cell_length_b 28.680540
_cell_length_c 8.728209
_cell_angle_alpha 90.000000
_cell_angle_beta 62.705081
_cell_angle_gamma 90.000000
_cell_volume 2754.676419
_symmetry_space_group_name_H-M "C 2/C"
_symmetry_group_IT_number 15
_symmetry_cell_setting 'monoclinic'
loop_
_space_group_symop_operation_xyz
x,y,z
-x,y,1/2-z
-x,-y,-z
x,-y,1/2+z
1/2+x,1/2+y,z
1/2-x,1/2+y,1/2-z
1/2-x,1/2-y,-z
1/2+x,1/2-y,1/2+z
loop_
_atom_site_type_symbol
_atom_site_label
_atom_site_fract_x
_atom_site_fract_y
_atom_site_fract_z
Si Si1 0.037198 0.097726 0.906752
Si Si2 0.858060 0.357033 0.870622
Si Si3 0.626294 0.519219 0.073116
Si Si4 0.623680 0.761864 0.756400
Si Si5 0.620089 0.776707 0.096616
Si Si6 0.796110 0.067692 0.179896
Si Si7 0.754107 0.333566 0.249386
O O1 0.132275 0.138864 0.871607
O O2 0.000000 0.096005 0.750000
O O3 0.097913 0.051992 0.944841
O O4 0.913832 0.101160 0.084455
O O5 0.806913 0.305945 0.859841
O O6 0.812764 0.399556 0.798112
O O7 0.000000 0.352462 0.750000
O O8 0.817938 0.362272 0.072415
O O9 0.500000 0.511508 0.250000
O O10 0.706941 0.544993 0.149765
O O11 0.680563 0.472514 0.963484
O O12 0.500000 0.748536 0.750000
O O13 0.708448 0.717240 0.722790
O O14 0.582715 0.782290 0.946605
O O15 0.500000 0.753714 0.250000
O O16 0.654426 0.822366 0.171695
O O17 0.750000 0.750000 0.000000
#
# Coordination Sequence:
#
# PCOD9288272 Si02
#       7
#     8   8   8   8   8   8   8
#     4  11  20  38  64 100 120 161 204 265 324 383
#     4  11  24  40  62  88 128 172 217 255 315 381
#     4  10  22  38  66  96 128 157 201 265 345 381
#     4  10  22  41  64  93 126 172 216 265 317 367
#     4  10  22  42  63  89 125 170 221 272 320 375
#     4  11  22  40  66  93 130 160 210 266 325 387
#     4  11  23  40  66  91 131 168 215 261 320 383
#
# _framework density 20.329066999999998
#
# number of rings (size 3 to 8) (size 9 to 14) (size 15 to 20)
#    0.000    1.429    1.429    5.571    2.000    1.143 
#    5.143    1.429    0.000    0.000    0.000    0.000 
#    0.000    0.000    0.000    0.000    0.000    0.000 
#
# Total GULP energy -156119.579150 kJ/mol
# GULP energy per Si atom -5575.699255 kJ/mol
# Density = 2.028280 g / cm^3
# Si number density = 20.329067 Si / 1000 Ang^3
#
#
#
# Elastic Constant Matrix: (Units=GPa)
#
#
# Indices 1 2 3 4 5 6 
#
# 1 90.0360 36.6382 35.6173 0.0000 17.0402 0.0000
# 2 36.6382 87.8563 13.2915 0.0000 -1.0277 0.0000
# 3 35.6173 13.2915 79.8202 0.0000 15.2564 0.0000
# 4 0.0000 0.0000 0.0000 15.3214 0.0000 -1.9603
# 5 17.0402 -1.0277 15.2564 0.0000 34.0950 0.0000
# 6 0.0000 0.0000 0.0000 -1.9603 0.0000 54.5487
#
#
#
# Elastic Compliance Matrix: (Units=1/GPa)
#
#
# Indices 1 2 3 4 5 6 
#
# 1 0.016989 -0.006354 -0.005318 0.000000 -0.006303 0.000000
# 2 -0.006354 0.014109 -0.000221 0.000000 0.003700 0.000000
# 3 -0.005318 -0.000221 0.015781 0.000000 -0.004410 0.000000
# 4 0.000000 0.000000 0.000000 0.065570 0.000000 0.002356
# 5 -0.006303 0.003700 -0.004410 0.000000 0.034565 0.000000
# 6 0.000000 0.000000 0.000000 0.002356 0.000000 0.018417
#
#
# Mechanical properties :
#
#
# Convention : Reuss Voigt Hill
#
# Bulk Modulus (GPa) = 43.30504 47.64519 45.47511
# Shear Modulus (GPa) = 25.39181 32.27071 28.83126
#
# Velocity S-wave (km/s) = 3.53801 3.98856 3.77002
# Velocity P-wave (km/s) = 6.16752 6.68576 6.43186
#
# Compressibility (1/GPa) = 0.02309200
#
# Stress axis : x y z
#
# Youngs Moduli (GPa) = 58.86200 70.87806 63.36737
#
# Poissons Ratio (x) = 0.45036 0.33699
# Poissons Ratio (y) = 0.37401 0.01402
# Poissons Ratio (z) = 0.31303 0.01568
#
# Static dielectric constant tensor:
#      x y z
#    x 1.893910 0.000000 0.018100 
#    y 0.000000 1.746290 0.000000 
#    z 0.018100 0.000000 1.795180 
# 
# From -- ./inp_files/35572.got.cif
#   From: 2010.05.17/outbox.cif.g08.bks.cpg/sg15_18_cif.got.tgz:35572.got - 2010.06.03 18:47:42.
