data_PCOD9288544
_publ_section_title
;
Structure prediction by ZEFSAII (Michael W. Deem and Ramdas Pophale) SiO2 
 PCOD9288544
Probable space group: C 2/C
;
_chemical_formula_sum "Si O2"
_cell_formula_units_Z 48
_cell_length_a 19.777757
_cell_length_b 10.966180
_cell_length_c 13.025420
_cell_angle_alpha 90.000000
_cell_angle_beta 43.355334
_cell_angle_gamma 90.000000
_cell_volume 1939.446918
_symmetry_space_group_name_H-M "C 2/C"
_symmetry_group_IT_number 15
_symmetry_cell_setting 'monoclinic'
loop_
_space_group_symop_operation_xyz
x,y,z
-x,y,1/2-z
-x,-y,-z
x,-y,1/2+z
1/2+x,1/2+y,z
1/2-x,1/2+y,1/2-z
1/2-x,1/2-y,-z
1/2+x,1/2-y,1/2+z
loop_
_atom_site_type_symbol
_atom_site_label
_atom_site_fract_x
_atom_site_fract_y
_atom_site_fract_z
Si Si1 0.469184 0.865763 0.163771
Si Si2 0.176328 0.279746 0.422786
Si Si3 0.349525 0.633115 0.854906
Si Si4 0.849525 0.133115 0.354906
Si Si5 0.823672 0.279746 0.577214
Si Si6 0.469184 0.134237 0.163771
O O1 0.500000 0.872862 0.250000
O O2 0.404100 0.743770 0.237356
O O3 0.575688 0.840303 0.994855
O O4 0.427766 1.000000 0.184498
O O5 0.238122 0.362493 0.434650
O O6 0.150271 0.164392 0.524166
O O7 0.250000 0.250000 0.250000
O O8 0.075688 0.340303 0.494855
O O9 0.392179 0.500000 0.788142
O O10 0.404100 0.743770 0.737356
O O11 0.849729 0.164391 0.475834
O O12 0.738123 0.137507 0.434650
O O13 0.500000 0.127138 0.250000
#
# Coordination Sequence:
#
# PCOD9288544 Si02
#       6
#     8   8   8   8   8   8
#     4   9  19  38  61  84 118 161 200 242 299 364
#     4  10  22  39  61  90 122 159 201 247 302 362
#     4  10  22  40  62  89 121 156 200 253 302 352
#     4  10  22  40  62  89 121 156 200 253 302 352
#     4  10  22  39  61  90 122 159 201 247 302 362
#     4   9  19  38  61  84 118 161 200 242 299 364
#
# _framework density 24.749324000000001
#
# number of rings (size 3 to 8) (size 9 to 14) (size 15 to 20)
#    0.000    2.333    0.000    1.000    0.000   18.000 
#    0.000    3.333    0.000    0.000    0.000    0.000 
#    0.000    0.000    0.000    0.000    0.000    0.000 
#
# Total GULP energy -134122.688132 kJ/mol
# GULP energy per Si atom -5588.445339 kJ/mol
# Density = 2.469299 g / cm^3
# Si number density = 24.749324 Si / 1000 Ang^3
#
#
#
# Elastic Constant Matrix: (Units=GPa)
#
#
# Indices 1 2 3 4 5 6 
#
# 1 90.4952 49.8632 -1.3094 0.0000 -20.8062 0.0000
# 2 49.8632 246.1884 66.0651 0.0000 -19.4490 0.0000
# 3 -1.3094 66.0651 142.8434 0.0000 -8.2504 0.0000
# 4 0.0000 0.0000 0.0000 23.9373 0.0000 -5.9702
# 5 -20.8062 -19.4490 -8.2504 0.0000 42.4053 0.0000
# 6 0.0000 0.0000 0.0000 -5.9702 0.0000 12.3670
#
#
#
# Elastic Compliance Matrix: (Units=1/GPa)
#
#
# Indices 1 2 3 4 5 6 
#
# 1 0.014006 -0.002849 0.001788 0.000000 0.005913 0.000000
# 2 -0.002849 0.005346 -0.002465 0.000000 0.000574 0.000000
# 3 0.001788 -0.002465 0.008235 0.000000 0.001349 0.000000
# 4 0.000000 0.000000 0.000000 0.047494 0.000000 0.022928
# 5 0.005913 0.000574 0.001349 0.000000 0.027009 0.000000
# 6 0.000000 0.000000 0.000000 0.022928 0.000000 0.091929
#
#
# Mechanical properties :
#
#
# Convention : Reuss Voigt Hill
#
# Bulk Modulus (GPa) = 48.70284 78.75165 63.72725
# Shear Modulus (GPa) = 24.04799 40.06912 32.05856
#
# Velocity S-wave (km/s) = 3.12053 4.02804 3.60297
# Velocity P-wave (km/s) = 5.71881 7.31589 6.56609
#
# Compressibility (1/GPa) = 0.02053268
#
# Stress axis : x y z
#
# Youngs Moduli (GPa) = 71.39991 187.05519 121.42931
#
# Poissons Ratio (x) = 0.53298 -0.21708
# Poissons Ratio (y) = 0.20344 0.29938
# Poissons Ratio (z) = -0.12764 0.46118
#
# Static dielectric constant tensor:
#      x y z
#    x 2.044800 0.000000 0.040170 
#    y 0.000000 1.941010 0.000000 
#    z 0.040170 0.000000 2.092800 
# 
# From -- ./inp_files/111460.got.cif
#   From: 2010.05.17/outbox.cif.g08.bks.cpg/sg15_56_cif.got.tgz:111460.got - 2010.06.03 18:47:42.
