data_PCOD9288262
_publ_section_title
;
Structure prediction by ZEFSAII (Michael W. Deem and Ramdas Pophale) SiO2 
 PCOD9288262
Probable space group: C 2/C
;
_chemical_formula_sum "Si O2"
_cell_formula_units_Z 48
_cell_length_a 23.718536
_cell_length_b 16.524257
_cell_length_c 8.243639
_cell_angle_alpha 90.000000
_cell_angle_beta 134.570916
_cell_angle_gamma 90.000000
_cell_volume 2301.664140
_symmetry_space_group_name_H-M "C 2/C"
_symmetry_group_IT_number 15
_symmetry_cell_setting 'monoclinic'
loop_
_space_group_symop_operation_xyz
x,y,z
-x,y,1/2-z
-x,-y,-z
x,-y,1/2+z
1/2+x,1/2+y,z
1/2-x,1/2+y,1/2-z
1/2-x,1/2-y,-z
1/2+x,1/2-y,1/2+z
loop_
_atom_site_type_symbol
_atom_site_label
_atom_site_fract_x
_atom_site_fract_y
_atom_site_fract_z
Si Si1 0.410072 0.470610 0.850091
Si Si2 0.340265 0.884670 0.495758
Si Si3 0.934720 0.249955 0.880111
Si Si4 0.000000 0.868057 0.250000
Si Si5 0.843939 0.881506 0.399227
Si Si6 0.087806 0.494710 0.597212
Si Si7 0.000000 0.368372 0.250000
O O1 0.379673 0.416734 0.639409
O O2 0.358995 0.548332 0.795205
O O3 0.500000 0.500000 0.000000
O O4 0.423494 0.419089 0.041386
O O5 0.380284 0.805551 0.654664
O O6 0.249404 0.869296 0.272806
O O7 0.351519 0.954392 0.655723
O O8 0.385475 0.922527 0.431960
O O9 0.886584 0.199453 0.918917
O O10 0.979048 0.185954 0.860176
O O11 0.996701 0.310029 0.089928
O O12 0.074348 0.427095 0.429065
O O13 0.000000 0.500000 0.500000
#
# Coordination Sequence:
#
# PCOD9288262 Si02
#       7
#     8   8   8   4   8   8   4
#     4  12  22  41  70  93 121 170 223 266 313 375
#     4  11  25  40  66  95 132 173 206 267 330 379
#     4  11  25  39  63  95 135 165 212 263 328 383
#     4  12  24  38  66  98 120 164 222 272 308 376
#     4  12  23  44  63  96 134 166 212 267 328 385
#     4  11  21  41  66  95 123 166 228 260 305 381
#     4  10  22  38  66  92 122 170 214 270 306 366
#
# _framework density 20.854475999999998
#
# number of rings (size 3 to 8) (size 9 to 14) (size 15 to 20)
#    0.000    0.667    5.000    2.500    4.667    0.000 
#    0.000    0.833    0.000    0.000    0.000    0.000 
#    0.000    0.000    0.000    0.000    0.000    0.000 
#
# Total GULP energy -134035.077475 kJ/mol
# GULP energy per Si atom -5584.794895 kJ/mol
# Density = 2.080701 g / cm^3
# Si number density = 20.854476 Si / 1000 Ang^3
#
#
#
# Elastic Constant Matrix: (Units=GPa)
#
#
# Indices 1 2 3 4 5 6 
#
# 1 65.7543 23.7603 18.8239 0.0000 7.0064 0.0000
# 2 23.7603 97.4003 16.4677 0.0000 -1.3276 0.0000
# 3 18.8239 16.4677 96.4320 0.0000 2.3296 0.0000
# 4 0.0000 0.0000 0.0000 43.5687 0.0000 -21.3892
# 5 7.0064 -1.3276 2.3296 0.0000 23.1327 0.0000
# 6 0.0000 0.0000 0.0000 -21.3892 0.0000 30.3043
#
#
#
# Elastic Compliance Matrix: (Units=1/GPa)
#
#
# Indices 1 2 3 4 5 6 
#
# 1 0.018007 -0.004010 -0.002699 0.000000 -0.005412 0.000000
# 2 -0.004010 0.011480 -0.001226 0.000000 0.001997 0.000000
# 3 -0.002699 -0.001226 0.011115 0.000000 -0.000372 0.000000
# 4 0.000000 0.000000 0.000000 0.035122 0.000000 0.024790
# 5 -0.005412 0.001997 -0.000372 0.000000 0.045020 0.000000
# 6 0.000000 0.000000 0.000000 0.024790 0.000000 0.050496
#
#
# Mechanical properties :
#
#
# Convention : Reuss Voigt Hill
#
# Bulk Modulus (GPa) = 40.43518 41.96562 41.20040
# Shear Modulus (GPa) = 25.59457 32.77010 29.18233
#
# Velocity S-wave (km/s) = 3.50708 3.96835 3.74482
# Velocity P-wave (km/s) = 5.98588 6.41591 6.20462
#
# Compressibility (1/GPa) = 0.02473094
#
# Stress axis : x y z
#
# Youngs Moduli (GPa) = 55.53515 87.11102 89.96636
#
# Poissons Ratio (x) = 0.34932 0.24286
# Poissons Ratio (y) = 0.22270 0.11029
# Poissons Ratio (z) = 0.14991 0.10678
#
# Static dielectric constant tensor:
#      x y z
#    x 1.767330 0.000000 -0.067970 
#    y 0.000000 1.800220 0.000000 
#    z -0.067970 0.000000 1.769930 
# 
# From -- ./inp_files/66517.got.cif
#   From: 2010.05.17/outbox.cif.g08.bks.cpg/sg15_34_cif.got.tgz:66517.got - 2010.06.03 18:47:42.
