data_PCOD9288053
_publ_section_title
;
Structure prediction by ZEFSAII (Michael W. Deem and Ramdas Pophale) SiO2 
 PCOD9288053
Probable space group: C 2/C
;
_chemical_formula_sum "Si O2"
_cell_formula_units_Z 60
_cell_length_a 8.176325
_cell_length_b 26.659306
_cell_length_c 25.714389
_cell_angle_alpha 90.000000
_cell_angle_beta 31.198839
_cell_angle_gamma 90.000000
_cell_volume 2903.494901
_symmetry_space_group_name_H-M "C 2/C"
_symmetry_group_IT_number 15
_symmetry_cell_setting 'monoclinic'
loop_
_space_group_symop_operation_xyz
x,y,z
-x,y,1/2-z
-x,-y,-z
x,-y,1/2+z
1/2+x,1/2+y,z
1/2-x,1/2+y,1/2-z
1/2-x,1/2-y,-z
1/2+x,1/2-y,1/2+z
loop_
_atom_site_type_symbol
_atom_site_label
_atom_site_fract_x
_atom_site_fract_y
_atom_site_fract_z
Si Si1 0.484607 0.420020 0.601655
Si Si2 0.301697 0.964339 0.426163
Si Si3 0.243753 0.714324 0.778992
Si Si4 0.141794 0.445518 0.793962
Si Si5 0.621842 0.686548 0.106427
Si Si6 0.784513 0.632574 0.858948
Si Si7 0.679832 0.708203 0.562601
Si Si8 0.000000 0.137170 0.250000
O O1 0.777392 0.443147 0.490987
O O2 0.419170 0.444224 0.675620
O O3 0.518567 0.360773 0.600507
O O4 0.174041 0.430970 0.651759
O O5 0.260501 0.917534 0.398866
O O6 0.591805 0.000506 0.333368
O O7 0.000000 0.000000 0.500000
O O8 0.500000 0.694292 0.750000
O O9 0.421070 0.724522 0.675824
O O10 0.090663 0.764673 0.843467
O O11 0.970004 0.674649 0.841562
O O12 0.216086 0.400939 0.813531
O O13 0.575854 0.669994 0.179114
O O14 0.990144 0.697537 0.998960
O O15 0.464083 0.658779 0.926066
O O16 0.000000 0.621847 0.750000
O O17 0.750000 0.750000 0.500000
#
# Coordination Sequence:
#
# PCOD9288053 Si02
#       8
#     8   8   8   8   8   8   8   4
#     4   9  21  38  63  94 123 160 219 258 324 382
#     4  10  22  39  69  88 125 169 217 265 325 381
#     4  11  26  43  63  97 134 174 211 262 337 382
#     4   9  20  41  59  89 130 164 210 270 323 370
#     4  11  23  40  67  96 131 165 216 273 313 388
#     4  10  24  44  64  92 132 174 215 261 324 393
#     4  11  23  43  67  93 129 174 218 259 320 399
#     4  10  22  38  62  94 128 166 216 266 326 370
#
# _framework density 20.664750999999999
#
# number of rings (size 3 to 8) (size 9 to 14) (size 15 to 20)
#    0.000    1.867    1.333    0.800   14.000    1.600 
#    1.200    2.667    0.000    0.000    0.000    0.000 
#    0.000    0.000    0.000    0.000    0.000    0.000 
#
# Total GULP energy -167596.826727 kJ/mol
# GULP energy per Si atom -5586.560891 kJ/mol
# Density = 2.061772 g / cm^3
# Si number density = 20.664751 Si / 1000 Ang^3
#
#
#
# Elastic Constant Matrix: (Units=GPa)
#
#
# Indices 1 2 3 4 5 6 
#
# 1 37.8775 0.7607 2.8315 0.0002 3.1212 0.0001
# 2 0.7607 101.0166 49.9068 0.0001 16.8717 0.0000
# 3 2.8315 49.9068 63.5658 0.0013 0.1326 -0.0006
# 4 0.0002 0.0001 0.0013 29.3954 0.0000 8.4089
# 5 3.1212 16.8717 0.1326 0.0000 20.1112 -0.0001
# 6 0.0001 0.0000 -0.0006 8.4089 -0.0001 11.1997
#
#
#
# Elastic Compliance Matrix: (Units=1/GPa)
#
#
# Indices 1 2 3 4 5 6 
#
# 1 0.027082 0.002298 -0.002998 0.000000 -0.006111 0.000000
# 2 0.002298 0.021092 -0.016625 0.000001 -0.017941 -0.000002
# 3 -0.002998 -0.016625 0.028888 -0.000002 0.014222 0.000003
# 4 0.000000 0.000001 -0.000002 0.043324 -0.000001 -0.032528
# 5 -0.006111 -0.017941 0.014222 -0.000001 0.065630 0.000002
# 6 0.000000 -0.000002 0.000003 -0.032528 0.000002 0.113711
#
#
# Mechanical properties :
#
#
# Convention : Reuss Voigt Hill
#
# Bulk Modulus (GPa) = 23.57758 34.38420 28.98089
# Shear Modulus (GPa) = 14.34666 22.07200 18.20933
#
# Velocity S-wave (km/s) = 2.63774 3.27172 2.97168
# Velocity P-wave (km/s) = 4.55096 5.56304 5.08225
#
# Compressibility (1/GPa) = 0.04241318
#
# Stress axis : x y z
#
# Youngs Moduli (GPa) = 36.92436 47.41144 34.61653
#
# Poissons Ratio (x) = -0.10893 0.10376
# Poissons Ratio (y) = -0.08484 0.57549
# Poissons Ratio (z) = 0.11068 0.78820
#
# Static dielectric constant tensor:
#      x y z
#    x 1.733680 0.000000 0.013740 
#    y 0.000000 1.709250 0.000000 
#    z 0.013740 0.000000 1.754350 
# 
# From -- ./inp_files/309075.got.cif
#   From: 2010.05.17/outbox.cif.g08.bks.cpg/sg15_155_cif.got.tgz:309075.got - 2010.06.03 18:47:42.
