data_PCOD9288473
_publ_section_title
;
Structure prediction by ZEFSAII (Michael W. Deem and Ramdas Pophale) SiO2 
 PCOD9288473
Probable space group: C 2/C
;
_chemical_formula_sum "Si O2"
_cell_formula_units_Z 48
_cell_length_a 14.857220
_cell_length_b 18.883153
_cell_length_c 17.587833
_cell_angle_alpha 90.000000
_cell_angle_beta 151.817466
_cell_angle_gamma 90.000000
_cell_volume 2330.375326
_symmetry_space_group_name_H-M "C 2/C"
_symmetry_group_IT_number 15
_symmetry_cell_setting 'monoclinic'
loop_
_space_group_symop_operation_xyz
x,y,z
-x,y,1/2-z
-x,-y,-z
x,-y,1/2+z
1/2+x,1/2+y,z
1/2-x,1/2+y,1/2-z
1/2-x,1/2-y,-z
1/2+x,1/2-y,1/2+z
loop_
_atom_site_type_symbol
_atom_site_label
_atom_site_fract_x
_atom_site_fract_y
_atom_site_fract_z
Si Si1 0.313359 0.942499 0.004507
Si Si2 0.806407 0.473810 0.742427
Si Si3 0.000000 0.654325 0.750000
Si Si4 0.126393 0.646820 0.094320
Si Si5 0.025105 0.088387 0.600284
Si Si6 0.794555 0.705585 0.746453
Si Si7 0.500000 0.560962 0.750000
O O1 0.326432 0.893094 0.087771
O O2 0.527408 0.973582 0.158923
O O3 0.274053 0.892683 0.902715
O O4 0.172451 0.007757 0.898046
O O5 0.901413 0.413381 0.864216
O O6 0.662096 0.521137 0.685200
O O7 0.681069 0.436444 0.583850
O O8 0.910478 0.696156 0.753928
O O9 0.241083 0.712763 0.212491
O O10 0.933219 0.678223 0.915818
O O11 0.111617 0.153926 0.617067
O O12 0.031076 0.103063 0.694849
#
# Coordination Sequence:
#
# PCOD9288473 Si02
#       7
#     8   8   4   8   8   8   4
#     4  11  22  38  61  95 126 168 208 264 312 373
#     4  11  21  42  66  91 125 167 214 261 310 376
#     4  10  22  39  60  87 134 170 206 258 308 385
#     4  11  22  39  63  90 129 169 208 260 316 376
#     4  11  23  40  65  95 126 166 215 257 318 373
#     4  11  24  40  61  93 130 174 208 256 320 380
#     4  12  24  35  66  97 126 164 210 272 308 371
#
# _framework density 20.597541
#
# number of rings (size 3 to 8) (size 9 to 14) (size 15 to 20)
#    0.000    1.000    5.000    3.500    2.333    4.667 
#    0.000    0.000    0.000   10.000    0.000    0.000 
#    0.000    0.000    0.000    0.000    0.000    0.000 
#
# Total GULP energy -134120.980342 kJ/mol
# GULP energy per Si atom -5588.374181 kJ/mol
# Density = 2.055066 g / cm^3
# Si number density = 20.597541 Si / 1000 Ang^3
#
#
#
# Elastic Constant Matrix: (Units=GPa)
#
#
# Indices 1 2 3 4 5 6 
#
# 1 55.0912 5.3626 6.4708 0.0042 -7.8016 0.0030
# 2 5.3626 74.5388 -9.5497 0.0008 0.7880 0.0048
# 3 6.4708 -9.5497 45.2150 0.0172 3.3666 0.0284
# 4 0.0042 0.0008 0.0172 29.2755 0.0174 -6.9188
# 5 -7.8016 0.7880 3.3666 0.0174 20.0079 0.0179
# 6 0.0030 0.0048 0.0284 -6.9188 0.0179 11.4383
#
#
#
# Elastic Compliance Matrix: (Units=1/GPa)
#
#
# Indices 1 2 3 4 5 6 
#
# 1 0.020022 -0.002035 -0.003932 -0.000009 0.008549 -0.000013
# 2 -0.002035 0.014017 0.003394 -0.000004 -0.001917 -0.000013
# 3 -0.003932 0.003394 0.023819 -0.000026 -0.005674 -0.000066
# 4 -0.000009 -0.000004 -0.000026 0.039856 -0.000055 0.024108
# 5 0.008549 -0.001917 -0.005674 -0.000055 0.054344 -0.000106
# 6 -0.000013 -0.000013 -0.000066 0.024108 -0.000106 0.102008
#
#
# Mechanical properties :
#
#
# Convention : Reuss Voigt Hill
#
# Bulk Modulus (GPa) = 18.97003 19.93470 19.45236
# Shear Modulus (GPa) = 18.06479 23.64844 20.85662
#
# Velocity S-wave (km/s) = 2.96469 3.39207 3.18556
# Velocity P-wave (km/s) = 4.57701 5.00407 4.79530
#
# Compressibility (1/GPa) = 0.05271474
#
# Stress axis : x y z
#
# Youngs Moduli (GPa) = 49.94457 71.34014 41.98387
#
# Poissons Ratio (x) = 0.14514 0.16506
# Poissons Ratio (y) = 0.10161 -0.14251
# Poissons Ratio (z) = 0.19636 -0.24216
#
# Static dielectric constant tensor:
#      x y z
#    x 1.734950 0.000000 -0.002170 
#    y 0.000000 1.690790 -0.000010 
#    z -0.002170 -0.000010 1.768700 
# 
# From -- ./inp_files/39671.got.cif
#   From: 2010.05.17/outbox.cif.g08.bks.cpg/sg15_20_cif.got.tgz:39671.got - 2010.06.03 18:47:42.
