data_PCOD9288719
_publ_section_title
;
Structure prediction by ZEFSAII (Michael W. Deem and Ramdas Pophale) SiO2 
 PCOD9288719
Probable space group: C 2/C
;
_chemical_formula_sum "Si O2"
_cell_formula_units_Z 48
_cell_length_a 12.647417
_cell_length_b 19.543767
_cell_length_c 12.689284
_cell_angle_alpha 90.000000
_cell_angle_beta 132.268227
_cell_angle_gamma 90.000000
_cell_volume 2321.033528
_symmetry_space_group_name_H-M "C 2/C"
_symmetry_group_IT_number 15
_symmetry_cell_setting 'monoclinic'
loop_
_space_group_symop_operation_xyz
x,y,z
-x,y,1/2-z
-x,-y,-z
x,-y,1/2+z
1/2+x,1/2+y,z
1/2-x,1/2+y,1/2-z
1/2-x,1/2-y,-z
1/2+x,1/2-y,1/2+z
loop_
_atom_site_type_symbol
_atom_site_label
_atom_site_fract_x
_atom_site_fract_y
_atom_site_fract_z
Si Si1 0.661461 0.764637 0.336918
Si Si2 0.084371 0.023605 0.408042
Si Si3 0.878946 0.896326 0.912666
Si Si4 0.584922 0.266462 0.414390
Si Si5 0.630093 0.164404 0.127146
Si Si6 0.121150 0.594275 0.896468
O O1 0.500000 0.740417 0.250000
O O2 0.750000 0.750000 0.500000
O O3 0.748895 0.724017 0.308432
O O4 0.656001 0.846545 0.332630
O O5 0.239170 0.051976 0.484798
O O6 0.000000 0.998332 0.250000
O O7 0.990309 0.085368 0.394475
O O8 0.107511 0.961750 0.503350
O O9 0.719429 0.888034 0.758772
O O10 0.919932 0.828910 0.006049
O O11 0.500000 0.283733 0.250000
O O12 0.750000 0.250000 0.500000
O O13 0.504503 0.200733 0.410048
O O14 0.587480 0.131786 0.985440
O O15 0.000000 0.554003 0.750000
#
# Coordination Sequence:
#
# PCOD9288719 Si02
#       6
#     8   8   8   8   8   8
#     4   9  20  31  58  97 130 163 200 274 344 399
#     4  11  23  45  71  99 135 181 230 280 336 412
#     4  11  25  42  72  99 132 183 232 274 340 418
#     4  12  26  45  67  98 137 182 230 283 340 413
#     4  11  23  40  67  99 134 178 227 281 348 401
#     4  10  22  39  64 103 138 166 219 287 347 403
#
# _framework density 20.680443
#
# number of rings (size 3 to 8) (size 9 to 14) (size 15 to 20)
#    0.000    1.333    3.333    1.500   11.667    1.333 
#    3.000    0.833    0.000    0.000    0.000    0.000 
#    0.000    0.000    0.000    0.000    0.000    0.000 
#
# Total GULP energy -133946.494665 kJ/mol
# GULP energy per Si atom -5581.103944 kJ/mol
# Density = 2.063337 g / cm^3
# Si number density = 20.680443 Si / 1000 Ang^3
#
#
#
# Elastic Constant Matrix: (Units=GPa)
#
#
# Indices 1 2 3 4 5 6 
#
# 1 80.0150 17.0816 42.8674 0.0000 21.5235 0.0000
# 2 17.0816 47.4995 35.7270 0.0000 1.2908 0.0000
# 3 42.8674 35.7270 165.4658 0.0000 13.1182 0.0000
# 4 0.0000 0.0000 0.0000 26.1882 0.0000 -10.3480
# 5 21.5235 1.2908 13.1182 0.0000 38.6340 0.0000
# 6 0.0000 0.0000 0.0000 -10.3480 0.0000 16.4909
#
#
#
# Elastic Compliance Matrix: (Units=1/GPa)
#
#
# Indices 1 2 3 4 5 6 
#
# 1 0.017146 -0.003699 -0.002976 0.000000 -0.008418 0.000000
# 2 -0.003699 0.025973 -0.004876 0.000000 0.002848 0.000000
# 3 -0.002976 -0.004876 0.007937 0.000000 -0.000874 0.000000
# 4 0.000000 0.000000 0.000000 0.050775 0.000000 0.031861
# 5 -0.008418 0.002848 -0.000874 0.000000 0.030775 0.000000
# 6 0.000000 0.000000 0.000000 0.031861 0.000000 0.080633
#
#
# Mechanical properties :
#
#
# Convention : Reuss Voigt Hill
#
# Bulk Modulus (GPa) = 35.77223 53.81469 44.79346
# Shear Modulus (GPa) = 20.35357 29.41623 24.88490
#
# Velocity S-wave (km/s) = 3.14059 3.77559 3.47263
# Velocity P-wave (km/s) = 5.52143 6.71456 6.14701
#
# Compressibility (1/GPa) = 0.02795464
#
# Stress axis : x y z
#
# Youngs Moduli (GPa) = 58.32226 38.50191 125.99935
#
# Poissons Ratio (x) = 0.14241 0.37498
# Poissons Ratio (y) = 0.21572 0.61431
# Poissons Ratio (z) = 0.17357 0.18772
#
# Static dielectric constant tensor:
#      x y z
#    x 1.796630 0.000000 0.004700 
#    y 0.000000 1.783770 0.000000 
#    z 0.004700 0.000000 1.740600 
# 
# From -- ./inp_files/89765.got.cif
#   From: 2010.05.17/outbox.cif.g08.bks.cpg/sg15_45_cif.got.tgz:89765.got - 2010.06.03 18:47:42.
