data_PCOD9288364
_publ_section_title
;
Structure prediction by ZEFSAII (Michael W. Deem and Ramdas Pophale) SiO2 
 PCOD9288364
Probable space group: C 2/C
;
_chemical_formula_sum "Si O2"
_cell_formula_units_Z 48
_cell_length_a 15.878330
_cell_length_b 11.563410
_cell_length_c 13.599731
_cell_angle_alpha 90.000000
_cell_angle_beta 127.684110
_cell_angle_gamma 90.000000
_cell_volume 1976.120053
_symmetry_space_group_name_H-M "C 2/C"
_symmetry_group_IT_number 15
_symmetry_cell_setting 'monoclinic'
loop_
_space_group_symop_operation_xyz
x,y,z
-x,y,1/2-z
-x,-y,-z
x,-y,1/2+z
1/2+x,1/2+y,z
1/2-x,1/2+y,1/2-z
1/2-x,1/2-y,-z
1/2+x,1/2-y,1/2+z
loop_
_atom_site_type_symbol
_atom_site_label
_atom_site_fract_x
_atom_site_fract_y
_atom_site_fract_z
Si Si1 0.540939 0.122450 0.069152
Si Si2 0.592631 0.162943 0.890303
Si Si3 0.239008 0.523157 0.727182
Si Si4 0.822639 0.091631 0.110414
Si Si5 0.608027 0.518740 0.022113
Si Si6 0.334316 0.773531 0.472109
O O1 0.651478 0.074934 0.191212
O O2 0.552668 0.190723 0.973430
O O3 0.454926 0.179470 0.079785
O O4 0.500000 0.000000 0.000000
O O5 0.500000 0.117193 0.750000
O O6 0.697205 0.085023 0.987408
O O7 0.636230 0.278801 0.870984
O O8 0.322852 0.455363 0.719575
O O9 0.301165 0.563997 0.866921
O O10 0.203662 0.631837 0.635520
O O11 0.893804 0.011894 0.092889
O O12 0.646420 0.649060 0.060227
O O13 0.500000 0.500000 0.000000
O O14 0.250000 0.750000 0.500000
#
# Coordination Sequence:
#
# PCOD9288364 Si02
#       6
#     8   8   8   8   8   8
#     4   9  21  41  65  97 130 175 232 275 340 412
#     4  10  22  38  70  94 132 182 229 282 346 403
#     4  10  24  46  70  97 142 184 229 288 345 422
#     4  10  23  42  62 103 135 172 240 282 335 428
#     4  12  27  43  70 102 139 180 231 290 361 409
#     4  11  23  46  72 100 144 184 230 287 346 420
#
# _framework density 24.290023000000001
#
# number of rings (size 3 to 8) (size 9 to 14) (size 15 to 20)
#    0.000    1.667    1.667    1.000    9.333    4.000 
#    0.000    2.500    0.000    0.000    0.000    0.000 
#    0.000    0.000    0.000    0.000    0.000    0.000 
#
# Total GULP energy -133999.575492 kJ/mol
# GULP energy per Si atom -5583.315646 kJ/mol
# Density = 2.423474 g / cm^3
# Si number density = 24.290023 Si / 1000 Ang^3
#
#
#
# Elastic Constant Matrix: (Units=GPa)
#
#
# Indices 1 2 3 4 5 6 
#
# 1 189.5571 35.3535 39.0170 0.0000 0.8998 0.0000
# 2 35.3535 83.1577 7.1962 0.0000 -7.5362 0.0000
# 3 39.0170 7.1962 83.7343 0.0000 16.5820 0.0000
# 4 0.0000 0.0000 0.0000 13.5228 0.0000 -0.3868
# 5 0.8998 -7.5362 16.5820 0.0000 21.3124 0.0000
# 6 0.0000 0.0000 0.0000 -0.3868 0.0000 50.8216
#
#
#
# Elastic Compliance Matrix: (Units=1/GPa)
#
#
# Indices 1 2 3 4 5 6 
#
# 1 0.006317 -0.002314 -0.002990 0.000000 0.001242 0.000000
# 2 -0.002314 0.013654 -0.001266 0.000000 0.005911 0.000000
# 3 -0.002990 -0.001266 0.015969 0.000000 -0.012746 0.000000
# 4 0.000000 0.000000 0.000000 0.073965 0.000000 0.000563
# 5 0.001242 0.005911 -0.012746 0.000000 0.058875 0.000000
# 6 0.000000 0.000000 0.000000 0.000563 0.000000 0.019681
#
#
# Mechanical properties :
#
#
# Convention : Reuss Voigt Hill
#
# Bulk Modulus (GPa) = 43.86071 57.73140 50.79605
# Shear Modulus (GPa) = 23.90041 35.45686 29.67863
#
# Velocity S-wave (km/s) = 3.14022 3.82479 3.49928
# Velocity P-wave (km/s) = 5.58965 6.58213 6.10609
#
# Compressibility (1/GPa) = 0.02279945
#
# Stress axis : x y z
#
# Youngs Moduli (GPa) = 158.31126 73.23665 62.62250
#
# Poissons Ratio (x) = 0.16948 0.18726
# Poissons Ratio (y) = 0.36636 0.07926
# Poissons Ratio (z) = 0.47340 0.09269
#
# Static dielectric constant tensor:
#      x y z
#    x 1.983040 0.000000 0.111160 
#    y 0.000000 2.032360 0.000000 
#    z 0.111160 0.000000 1.810950 
# 
# From -- ./inp_files/152456.got.cif
#   From: 2010.05.17/outbox.cif.g08.bks.cpg/sg15_77_cif.got.tgz:152456.got - 2010.06.03 18:47:42.
