data_PCOD9288877
_publ_section_title
;
Structure prediction by ZEFSAII (Michael W. Deem and Ramdas Pophale) SiO2 
 PCOD9288877
Probable space group: C 2/C
;
_chemical_formula_sum "Si O2"
_cell_formula_units_Z 44
_cell_length_a 5.380335
_cell_length_b 15.829440
_cell_length_c 25.327002
_cell_angle_alpha 90.000000
_cell_angle_beta 71.375628
_cell_angle_gamma 90.000000
_cell_volume 2044.083665
_symmetry_space_group_name_H-M "C 2/C"
_symmetry_group_IT_number 15
_symmetry_cell_setting 'monoclinic'
loop_
_space_group_symop_operation_xyz
x,y,z
-x,y,1/2-z
-x,-y,-z
x,-y,1/2+z
1/2+x,1/2+y,z
1/2-x,1/2+y,1/2-z
1/2-x,1/2-y,-z
1/2+x,1/2-y,1/2+z
loop_
_atom_site_type_symbol
_atom_site_label
_atom_site_fract_x
_atom_site_fract_y
_atom_site_fract_z
Si Si1 0.500000 0.988057 0.750000
Si Si2 0.974295 0.957409 0.163856
Si Si3 0.914298 0.403305 0.646315
Si Si4 0.589109 0.721199 0.620083
Si Si5 0.270288 0.486462 0.058144
Si Si6 0.171997 0.300998 0.056466
O O1 0.514070 0.933331 0.696549
O O2 0.243328 0.043500 0.775667
O O3 0.870459 0.968165 0.110802
O O4 0.092461 0.863633 0.154799
O O5 0.154811 0.039544 0.159296
O O6 0.927394 0.303015 0.649560
O O7 0.083946 0.433533 0.583513
O O8 0.425691 0.702104 0.577504
O O9 0.898343 0.740543 0.593671
O O10 0.118346 0.401202 0.051153
O O11 0.500000 0.500000 0.000000
O O12 0.250000 0.250000 0.000000
#
# Coordination Sequence:
#
# PCOD9288877 Si02
#       6
#     4   8   8   8   8   8
#     4  10  24  46  68  96 124 176 230 288 352 414
#     4  10  23  46  65  96 136 174 230 289 348 418
#     4  11  23  44  69  94 136 174 234 286 350 426
#     4  11  25  43  68 100 137 180 229 285 351 417
#     4  10  22  39  66  97 136 183 223 280 344 410
#     4  11  23  42  63 101 143 182 232 281 338 421
#
# _framework density 21.525539999999999
#
# number of rings (size 3 to 8) (size 9 to 14) (size 15 to 20)
#    0.000    1.455    1.818    2.182    7.636    2.182 
#    6.545    0.000    0.000    0.000    0.000    0.000 
#    0.000    0.000    0.000    0.000    0.000    0.000 
#
# Total GULP energy -122504.324285 kJ/mol
# GULP energy per Si atom -5568.378377 kJ/mol
# Density = 2.147655 g / cm^3
# Si number density = 21.525540 Si / 1000 Ang^3
#
#
#
# Elastic Constant Matrix: (Units=GPa)
#
#
# Indices 1 2 3 4 5 6 
#
# 1 46.9021 2.8978 5.3290 0.0000 -13.7503 0.0000
# 2 2.8978 80.4701 26.2206 0.0000 -9.5515 0.0000
# 3 5.3290 26.2206 106.5131 0.0000 -27.6914 0.0000
# 4 0.0000 0.0000 0.0000 11.5503 0.0000 -3.5257
# 5 -13.7503 -9.5515 -27.6914 0.0000 34.2898 0.0000
# 6 0.0000 0.0000 0.0000 -3.5257 0.0000 16.4259
#
#
#
# Elastic Compliance Matrix: (Units=1/GPa)
#
#
# Indices 1 2 3 4 5 6 
#
# 1 0.024396 -0.000112 0.001699 0.000000 0.011124 0.000000
# 2 -0.000112 0.013562 -0.002990 0.000000 0.001318 0.000000
# 3 0.001699 -0.002990 0.012658 0.000000 0.010070 0.000000
# 4 0.000000 0.000000 0.000000 0.092649 0.000000 0.019887
# 5 0.011124 0.001318 0.010070 0.000000 0.042123 0.000000
# 6 0.000000 0.000000 0.000000 0.019887 0.000000 0.065148
#
#
# Mechanical properties :
#
#
# Convention : Reuss Voigt Hill
#
# Bulk Modulus (GPa) = 20.91645 33.64224 27.27934
# Shear Modulus (GPa) = 18.56813 25.74903 22.15858
#
# Velocity S-wave (km/s) = 2.94021 3.46238 3.21192
# Velocity P-wave (km/s) = 4.61135 5.62557 5.14352
#
# Compressibility (1/GPa) = 0.04780926
#
# Stress axis : x y z
#
# Youngs Moduli (GPa) = 40.99027 73.73645 79.00300
#
# Poissons Ratio (x) = 0.00824 -0.13422
# Poissons Ratio (y) = 0.00458 0.23624
# Poissons Ratio (z) = -0.06964 0.22050
#
# Static dielectric constant tensor:
#      x y z
#    x 1.977630 0.000000 -0.037120 
#    y 0.000000 2.119970 0.000000 
#    z -0.037120 0.000000 1.751460 
# 
# From -- ./inp_files/226935.got.cif
#   From: 2010.05.17/outbox.cif.g08.bks.cpg/sg15_114_cif.got.tgz:226935.got - 2010.06.03 18:47:42.
