data_PCOD9288464
_publ_section_title
;
Structure prediction by ZEFSAII (Michael W. Deem and Ramdas Pophale) SiO2 
 PCOD9288464
Probable space group: C 2/C
;
_chemical_formula_sum "Si O2"
_cell_formula_units_Z 48
_cell_length_a 17.063737
_cell_length_b 15.183469
_cell_length_c 15.463839
_cell_angle_alpha 90.000000
_cell_angle_beta 30.561766
_cell_angle_gamma 90.000000
_cell_volume 2037.160188
_symmetry_space_group_name_H-M "C 2/C"
_symmetry_group_IT_number 15
_symmetry_cell_setting 'monoclinic'
loop_
_space_group_symop_operation_xyz
x,y,z
-x,y,1/2-z
-x,-y,-z
x,-y,1/2+z
1/2+x,1/2+y,z
1/2-x,1/2+y,1/2-z
1/2-x,1/2-y,-z
1/2+x,1/2-y,1/2+z
loop_
_atom_site_type_symbol
_atom_site_label
_atom_site_fract_x
_atom_site_fract_y
_atom_site_fract_z
Si Si1 0.907688 0.528458 0.219396
Si Si2 0.108390 0.337159 0.225765
Si Si3 0.821441 0.297552 0.603072
Si Si4 0.443495 0.371473 0.213677
Si Si5 0.237019 0.291669 0.639114
Si Si6 0.262425 0.988086 0.667050
O O1 0.859078 0.622996 0.300649
O O2 0.818624 0.518410 0.212468
O O3 0.861088 0.440890 0.315444
O O4 0.089319 0.522739 0.027145
O O5 0.997537 0.323038 0.414634
O O6 0.000000 0.307920 0.250000
O O7 0.257564 0.280204 0.104316
O O8 0.800480 0.276909 0.723579
O O9 0.729100 0.387847 0.670983
O O10 0.500000 0.412186 0.250000
O O11 0.314347 0.298200 0.356633
O O12 0.376000 0.445464 0.215823
O O13 0.586049 0.318404 0.038210
#
# Coordination Sequence:
#
# PCOD9288464 Si02
#       6
#     8   8   8   8   8   8
#     4   9  20  39  63  85 114 156 200 245 290 352
#     4  11  22  36  58  87 118 149 185 238 295 343
#     4  10  22  39  60  83 113 154 194 235 282 350
#     4  12  25  39  60  90 123 155 195 251 304 353
#     4  11  23  40  62  84 114 159 201 241 290 353
#     4   9  20  40  61  86 117 154 200 243 293 351
#
# _framework density 23.562211999999999
#
# number of rings (size 3 to 8) (size 9 to 14) (size 15 to 20)
#    0.000    1.667    0.000    5.000    0.000    8.000 
#    0.000    0.000    0.000    0.000    0.000    0.000 
#    0.000    0.000    0.000    0.000    0.000    0.000 
#
# Total GULP energy -134325.063210 kJ/mol
# GULP energy per Si atom -5596.877634 kJ/mol
# Density = 2.350858 g / cm^3
# Si number density = 23.562212 Si / 1000 Ang^3
#
#
#
# Elastic Constant Matrix: (Units=GPa)
#
#
# Indices 1 2 3 4 5 6 
#
# 1 64.0558 21.6163 0.8360 0.0002 -1.0122 -0.0002
# 2 21.6163 91.8629 -11.0168 0.0006 -15.9722 -0.0007
# 3 0.8360 -11.0168 26.6707 0.0013 4.2579 -0.0010
# 4 0.0002 0.0006 0.0013 33.9161 -0.0005 -17.8580
# 5 -1.0122 -15.9722 4.2579 -0.0005 21.4352 0.0005
# 6 -0.0002 -0.0007 -0.0010 -17.8580 0.0005 15.8717
#
#
#
# Elastic Compliance Matrix: (Units=1/GPa)
#
#
# Indices 1 2 3 4 5 6 
#
# 1 0.017186 -0.004691 -0.002115 0.000000 -0.002264 0.000000
# 2 -0.004691 0.014171 0.004493 0.000000 0.009445 0.000001
# 3 -0.002115 0.004493 0.040172 0.000000 -0.004732 0.000002
# 4 0.000000 0.000000 0.000000 0.072342 0.000000 0.081395
# 5 -0.002264 0.009445 -0.004732 0.000000 0.054523 -0.000001
# 6 0.000000 0.000001 0.000002 0.081395 -0.000001 0.154587
#
#
# Mechanical properties :
#
#
# Convention : Reuss Voigt Hill
#
# Bulk Modulus (GPa) = 14.94746 22.82893 18.88819
# Shear Modulus (GPa) = 13.16104 25.65487 19.40796
#
# Velocity S-wave (km/s) = 2.36596 3.30330 2.87311
# Velocity P-wave (km/s) = 3.71770 4.92533 4.36349
#
# Compressibility (1/GPa) = 0.06690102
#
# Stress axis : x y z
#
# Youngs Moduli (GPa) = 58.18559 70.56775 24.89308
#
# Poissons Ratio (x) = 0.33106 0.05265
# Poissons Ratio (y) = 0.27297 -0.11184
# Poissons Ratio (z) = 0.12307 -0.31704
#
# Static dielectric constant tensor:
#      x y z
#    x 1.910040 0.000000 0.054120 
#    y 0.000000 1.880200 0.000000 
#    z 0.054120 0.000000 1.931430 
# 
# From -- ./inp_files/211303.got.cif
#   From: 2010.05.17/outbox.cif.g08.bks.cpg/sg15_106_cif.got.tgz:211303.got - 2010.06.03 18:47:42.
