data_PCOD9288507
_publ_section_title
;
Structure prediction by ZEFSAII (Michael W. Deem and Ramdas Pophale) SiO2 
 PCOD9288507
Probable space group: C 2/C
;
_chemical_formula_sum "Si O2"
_cell_formula_units_Z 56
_cell_length_a 5.838000
_cell_length_b 27.811637
_cell_length_c 15.660532
_cell_angle_alpha 90.000000
_cell_angle_beta 111.258483
_cell_angle_gamma 90.000000
_cell_volume 2369.691022
_symmetry_space_group_name_H-M "C 2/C"
_symmetry_group_IT_number 15
_symmetry_cell_setting 'monoclinic'
loop_
_space_group_symop_operation_xyz
x,y,z
-x,y,1/2-z
-x,-y,-z
x,-y,1/2+z
1/2+x,1/2+y,z
1/2-x,1/2+y,1/2-z
1/2-x,1/2-y,-z
1/2+x,1/2-y,1/2+z
loop_
_atom_site_type_symbol
_atom_site_label
_atom_site_fract_x
_atom_site_fract_y
_atom_site_fract_z
Si Si1 0.981215 0.605656 0.849288
Si Si2 0.000000 0.143130 0.750000
Si Si3 0.630433 0.318097 0.089125
Si Si4 0.209272 0.219458 0.343087
Si Si5 0.138312 0.028922 0.404511
Si Si6 0.500000 0.155808 0.250000
Si Si7 0.133622 0.498038 0.897073
Si Si8 0.043294 0.133850 0.086691
O O1 0.693822 0.609823 0.824857
O O2 0.000000 0.609027 0.750000
O O3 0.127398 0.651411 0.904217
O O4 0.086412 0.554631 0.885984
O O5 0.902052 0.175332 0.813722
O O6 0.668339 0.261553 0.085589
O O7 0.425576 0.345298 0.004820
O O8 0.394582 0.190848 0.308028
O O9 0.000000 0.239769 0.250000
O O10 0.085637 0.178657 0.384018
O O11 0.237903 0.992695 0.492325
O O12 0.110837 0.084842 0.427855
O O13 0.361071 0.025728 0.365347
O O14 0.848251 0.014368 0.357578
O O15 0.291194 0.125636 0.173991
#
# Coordination Sequence:
#
# PCOD9288507 Si02
#       8
#     8   4   8   8   8   4   8   8
#     4  10  22  39  60  97 135 174 225 290 348 422
#     4  10  23  36  66 102 144 170 224 292 359 416
#     4  11  22  41  69  99 136 181 230 284 361 428
#     4  10  22  42  65  94 139 178 227 293 353 424
#     4  10  23  41  70  98 134 183 236 290 350 420
#     4  10  25  44  64  94 144 178 236 294 347 416
#     4  10  22  42  67  97 136 181 232 292 354 417
#     4  11  24  43  68  99 136 183 239 289 353 425
#
# _framework density 23.631774
#
# number of rings (size 3 to 8) (size 9 to 14) (size 15 to 20)
#    0.000    1.714    1.429    2.143    6.000    4.000 
#    1.286    0.000    0.000    0.000    0.000    0.000 
#    0.000    0.000    0.000    0.000    0.000    0.000 
#
# Total GULP energy -156122.681722 kJ/mol
# GULP energy per Si atom -5575.810062 kJ/mol
# Density = 2.357799 g / cm^3
# Si number density = 23.631774 Si / 1000 Ang^3
#
#
#
# Elastic Constant Matrix: (Units=GPa)
#
#
# Indices 1 2 3 4 5 6 
#
# 1 128.1612 36.2850 28.2451 0.0000 8.7236 0.0000
# 2 36.2850 88.3884 25.7379 0.0000 15.6299 0.0000
# 3 28.2451 25.7379 92.3290 0.0000 4.5107 0.0000
# 4 0.0000 0.0000 0.0000 13.5257 0.0000 -1.3719
# 5 8.7236 15.6299 4.5107 0.0000 23.2018 0.0000
# 6 0.0000 0.0000 0.0000 -1.3719 0.0000 -1.9763
#
#
#
# Elastic Compliance Matrix: (Units=1/GPa)
#
#
# Indices 1 2 3 4 5 6 
#
# 1 0.009148 -0.003017 -0.001907 0.000000 -0.001036 0.000000
# 2 -0.003017 0.014840 -0.002808 0.000000 -0.008317 0.000000
# 3 -0.001907 -0.002808 0.012185 0.000000 0.000239 0.000000
# 4 0.000000 0.000000 0.000000 0.069070 0.000000 -0.047948
# 5 -0.001036 -0.008317 0.000239 0.000000 0.049046 0.000000
# 6 0.000000 0.000000 0.000000 -0.047948 0.000000 -0.472708
#
#
# Mechanical properties :
#
#
# Convention : Reuss Voigt Hill
#
# Bulk Modulus (GPa) = 48.28451 54.37941 51.33196
# Shear Modulus (GPa) = -16.88889 21.52428 2.31770
#
# Velocity S-wave (km/s) = -2.67623 3.02125 0.99141
# Velocity P-wave (km/s) = 3.30557 5.93563 4.80409
#
# Compressibility (1/GPa) = 0.02071057
#
# Stress axis : x y z
#
# Youngs Moduli (GPa) = 109.31888 67.38333 82.06695
#
# Poissons Ratio (x) = 0.20328 0.15649
# Poissons Ratio (y) = 0.32978 0.23043
# Poissons Ratio (z) = 0.20845 0.18920
#
# Static dielectric constant tensor:
#      x y z
#    x 2.150760 0.000000 0.041080 
#    y 0.000000 1.856420 0.000000 
#    z 0.041080 0.000000 2.006110 
# 
# From -- ./inp_files/186246.got.cif
#   From: 2010.05.17/outbox.cif.g08.bks.cpg/sg15_94_cif.got.tgz:186246.got - 2010.06.03 18:47:42.
