data_PCOD9288076
_publ_section_title
;
Structure prediction by ZEFSAII (Michael W. Deem and Ramdas Pophale) SiO2 
 PCOD9288076
Probable space group: C 2/C
;
_chemical_formula_sum "Si O2"
_cell_formula_units_Z 56
_cell_length_a 15.903485
_cell_length_b 10.101858
_cell_length_c 14.162992
_cell_angle_alpha 90.000000
_cell_angle_beta 76.045589
_cell_angle_gamma 90.000000
_cell_volume 2208.201511
_symmetry_space_group_name_H-M "C 2/C"
_symmetry_group_IT_number 15
_symmetry_cell_setting 'monoclinic'
loop_
_space_group_symop_operation_xyz
x,y,z
-x,y,1/2-z
-x,-y,-z
x,-y,1/2+z
1/2+x,1/2+y,z
1/2-x,1/2+y,1/2-z
1/2-x,1/2-y,-z
1/2+x,1/2-y,1/2+z
loop_
_atom_site_type_symbol
_atom_site_label
_atom_site_fract_x
_atom_site_fract_y
_atom_site_fract_z
Si Si1 0.911635 0.016741 0.577809
Si Si2 0.611436 0.453143 0.207711
Si Si3 0.900942 0.321470 0.550770
Si Si4 0.252703 0.135672 0.420970
Si Si5 0.554123 0.836808 0.644927
Si Si6 0.589395 0.748017 0.165967
Si Si7 0.736687 0.255657 0.281916
O O1 0.832020 0.951773 0.543727
O O2 0.930428 0.988249 0.683120
O O3 0.889687 0.169053 0.582081
O O4 0.000000 0.000000 0.500000
O O5 0.572448 0.321409 0.164405
O O6 0.613240 0.589880 0.149686
O O7 0.692555 0.380274 0.237320
O O8 0.912550 0.316927 0.436067
O O9 0.815005 0.354021 0.636374
O O10 0.990810 0.361281 0.574856
O O11 0.250000 0.250000 0.500000
O O12 0.353485 0.095781 0.395676
O O13 0.236965 0.174060 0.317234
O O14 0.500000 0.884360 0.750000
O O15 0.500000 0.767261 0.250000
O O16 0.676262 0.802968 0.191602
#
# Coordination Sequence:
#
# PCOD9288076 Si02
#       7
#     8   8   8   8   8   8   8
#     4  11  21  35  59  95 130 164 211 275 338 381
#     4  10  22  38  63  90 135 160 216 273 329 382
#     4  11  24  38  66  85 137 170 218 264 337 391
#     4  11  23  33  60  91 137 166 220 273 338 393
#     4  11  20  39  59  92 129 173 210 272 328 394
#     4  12  25  39  66  98 127 172 223 274 337 392
#     4  10  23  43  56  93 135 176 210 270 340 399
#
# _framework density 25.360004
#
# number of rings (size 3 to 8) (size 9 to 14) (size 15 to 20)
#    0.000    1.143    5.714    2.571    8.000    0.000 
#    0.000    0.000    0.000    6.857    0.000    7.000 
#    0.000    0.000    0.000    0.000    0.000    0.000 
#
# Total GULP energy -155950.663066 kJ/mol
# GULP energy per Si atom -5569.666538 kJ/mol
# Density = 2.530228 g / cm^3
# Si number density = 25.360004 Si / 1000 Ang^3
#
#
#
# Elastic Constant Matrix: (Units=GPa)
#
#
# Indices 1 2 3 4 5 6 
#
# 1 197.8901 14.3016 57.3143 0.0000 16.0330 0.0000
# 2 14.3016 57.5943 1.9792 0.0000 -3.8597 0.0000
# 3 57.3143 1.9792 179.0431 0.0000 12.6198 0.0000
# 4 0.0000 0.0000 0.0000 3.2662 0.0000 43.0686
# 5 16.0330 -3.8597 12.6198 0.0000 45.5446 0.0000
# 6 0.0000 0.0000 0.0000 43.0686 0.0000 -352.7890
#
#
#
# Elastic Compliance Matrix: (Units=1/GPa)
#
#
# Indices 1 2 3 4 5 6 
#
# 1 0.005796 -0.001494 -0.001720 0.000000 -0.001690 0.000000
# 2 -0.001494 0.017863 0.000140 0.000000 0.002001 0.000000
# 3 -0.001720 0.000140 0.006212 0.000000 -0.001104 0.000000
# 4 0.000000 0.000000 0.000000 0.117315 0.000000 0.014322
# 5 -0.001690 0.002001 -0.001104 0.000000 0.023027 0.000000
# 6 0.000000 0.000000 0.000000 0.014322 0.000000 -0.001086
#
#
# Mechanical properties :
#
#
# Convention : Reuss Voigt Hill
#
# Bulk Modulus (GPa) = 42.15157 64.63529 53.39343
# Shear Modulus (GPa) = 27.29511 -36.73346 -4.71918
#
# Velocity S-wave (km/s) = 3.28427 -3.81002 -1.36562
# Velocity P-wave (km/s) = 5.57129 2.48746 4.31432
#
# Compressibility (1/GPa) = 0.02372391
#
# Stress axis : x y z
#
# Youngs Moduli (GPa) = 172.52338 55.98169 160.97720
#
# Poissons Ratio (x) = 0.08361 0.27685
# Poissons Ratio (y) = 0.25767 -0.02247
# Poissons Ratio (z) = 0.29671 -0.00782
#
# Static dielectric constant tensor:
#      x y z
#    x 1.886940 0.000000 0.046370 
#    y 0.000000 2.137240 0.000000 
#    z 0.046370 0.000000 2.008010 
# 
# From -- ./inp_files/153395.got.cif
#   From: 2010.05.17/outbox.cif.g08.bks.cpg/sg15_77_cif.got.tgz:153395.got - 2010.06.03 18:47:42.
