data_PCOD9288486
_publ_section_title
;
Structure prediction by ZEFSAII (Michael W. Deem and Ramdas Pophale) SiO2 
 PCOD9288486
Probable space group: C 2/C
;
_chemical_formula_sum "Si O2"
_cell_formula_units_Z 40
_cell_length_a 12.170530
_cell_length_b 11.365390
_cell_length_c 19.140198
_cell_angle_alpha 90.000000
_cell_angle_beta 39.958310
_cell_angle_gamma 90.000000
_cell_volume 1700.320844
_symmetry_space_group_name_H-M "C 2/C"
_symmetry_group_IT_number 15
_symmetry_cell_setting 'monoclinic'
loop_
_space_group_symop_operation_xyz
x,y,z
-x,y,1/2-z
-x,-y,-z
x,-y,1/2+z
1/2+x,1/2+y,z
1/2-x,1/2+y,1/2-z
1/2-x,1/2-y,-z
1/2+x,1/2-y,1/2+z
loop_
_atom_site_type_symbol
_atom_site_label
_atom_site_fract_x
_atom_site_fract_y
_atom_site_fract_z
Si Si1 0.434383 0.987656 0.951290
Si Si2 0.892381 0.675305 0.242206
Si Si3 0.394765 0.209397 0.704974
Si Si4 0.038974 0.035380 0.152865
Si Si5 0.330416 0.536803 0.624437
O O1 0.502487 0.099203 0.874372
O O2 0.507803 0.873238 0.874785
O O3 0.230256 0.994266 0.044401
O O4 0.500000 0.000000 0.000000
O O5 0.734280 0.749212 0.292283
O O6 0.810459 0.561998 0.320721
O O7 0.000000 0.736468 0.250000
O O8 0.510941 0.323169 0.661967
O O9 0.270727 0.160672 0.827987
O O10 0.000000 0.002676 0.250000
O O11 0.898866 0.979146 0.170059
O O12 0.500000 0.500000 0.500000
#
# Coordination Sequence:
#
# PCOD9288486 Si02
#       5
#     8   8   8   8   8
#     4  11  23  42  63  90 125 162 203 253 304 359
#     4  10  22  39  60  89 122 160 202 250 304 360
#     4  10  23  40  62  90 122 159 207 250 301 364
#     4  11  23  40  63  91 122 162 204 252 304 359
#     4  10  22  41  61  88 124 161 201 251 303 360
#
# _framework density 23.524972000000002
#
# number of rings (size 3 to 8) (size 9 to 14) (size 15 to 20)
#    0.000    1.600    0.000    5.400    0.000   13.600 
#    0.000    3.000    0.000    0.000    0.000    0.000 
#    0.000    0.000    0.000    0.000    0.000    0.000 
#
# Total GULP energy -111816.924801 kJ/mol
# GULP energy per Si atom -5590.846240 kJ/mol
# Density = 2.347143 g / cm^3
# Si number density = 23.524972 Si / 1000 Ang^3
#
#
#
# Elastic Constant Matrix: (Units=GPa)
#
#
# Indices 1 2 3 4 5 6 
#
# 1 84.2744 -7.4084 1.2017 0.0000 5.1746 0.0000
# 2 -7.4084 51.6687 2.8399 0.0000 -5.4028 0.0000
# 3 1.2017 2.8399 108.5014 -0.0001 -8.2425 0.0000
# 4 0.0000 0.0000 -0.0001 20.1023 0.0000 -5.1316
# 5 5.1746 -5.4028 -8.2425 0.0000 44.4032 0.0000
# 6 0.0000 0.0000 0.0000 -5.1316 0.0000 12.6783
#
#
#
# Elastic Compliance Matrix: (Units=1/GPa)
#
#
# Indices 1 2 3 4 5 6 
#
# 1 0.012090 0.001616 -0.000272 0.000000 -0.001263 0.000000
# 2 0.001616 0.019832 -0.000373 0.000000 0.002155 0.000000
# 3 -0.000272 -0.000373 0.009360 0.000000 0.001724 0.000000
# 4 0.000000 0.000000 0.000000 0.055478 0.000000 0.022455
# 5 -0.001263 0.002155 0.001724 0.000000 0.023250 0.000000
# 6 0.000000 0.000000 0.000000 0.022455 0.000000 0.087964
#
#
# Mechanical properties :
#
#
# Convention : Reuss Voigt Hill
#
# Bulk Modulus (GPa) = 23.13559 26.41231 24.77395
# Shear Modulus (GPa) = 22.68203 31.95752 27.31978
#
# Velocity S-wave (km/s) = 3.10847 3.68972 3.41150
# Velocity P-wave (km/s) = 4.76858 5.42252 5.10603
#
# Compressibility (1/GPa) = 0.04322345
#
# Stress axis : x y z
#
# Youngs Moduli (GPa) = 82.71638 50.42419 106.83525
#
# Poissons Ratio (x) = -0.08150 0.02907
# Poissons Ratio (y) = -0.13370 0.03987
# Poissons Ratio (z) = 0.02251 0.01882
#
# Static dielectric constant tensor:
#      x y z
#    x 1.982730 0.000000 -0.058660 
#    y 0.000000 1.906610 0.000000 
#    z -0.058660 0.000000 2.023410 
# 
# From -- ./inp_files/237371.got.cif
#   From: 2010.05.17/outbox.cif.g08.bks.cpg/sg15_119_cif.got.tgz:237371.got - 2010.06.03 18:47:42.
