data_PCOD9288545
_publ_section_title
;
Structure prediction by ZEFSAII (Michael W. Deem and Ramdas Pophale) SiO2 
 PCOD9288545
Probable space group: C 2/C
;
_chemical_formula_sum "Si O2"
_cell_formula_units_Z 52
_cell_length_a 14.144770
_cell_length_b 14.359662
_cell_length_c 17.739397
_cell_angle_alpha 90.000000
_cell_angle_beta 43.364896
_cell_angle_gamma 90.000000
_cell_volume 2474.055665
_symmetry_space_group_name_H-M "C 2/C"
_symmetry_group_IT_number 15
_symmetry_cell_setting 'monoclinic'
loop_
_space_group_symop_operation_xyz
x,y,z
-x,y,1/2-z
-x,-y,-z
x,-y,1/2+z
1/2+x,1/2+y,z
1/2-x,1/2+y,1/2-z
1/2-x,1/2-y,-z
1/2+x,1/2-y,1/2+z
loop_
_atom_site_type_symbol
_atom_site_label
_atom_site_fract_x
_atom_site_fract_y
_atom_site_fract_z
Si Si1 0.769638 0.062897 0.412552
Si Si2 0.699615 0.132846 0.903930
Si Si3 0.158107 0.477581 0.132017
Si Si4 0.339482 0.172743 0.329438
Si Si5 0.500000 0.295621 0.750000
Si Si6 0.783280 0.331540 0.283092
Si Si7 0.609394 0.157842 0.370606
O O1 0.790349 0.954288 0.379580
O O2 0.675588 0.068590 0.541027
O O3 0.691008 0.101472 0.385746
O O4 0.897454 0.132320 0.351195
O O5 0.760728 0.232810 0.889623
O O6 0.687007 0.136049 0.819637
O O7 0.548557 0.129373 0.028615
O O8 0.209226 0.583443 0.096269
O O9 0.234388 0.417893 0.150957
O O10 0.000000 0.481992 0.250000
O O11 0.500000 0.191181 0.250000
O O12 0.332680 0.140911 0.246221
O O13 0.592059 0.230909 0.752376
O O14 0.647849 0.266189 0.361617
#
# Coordination Sequence:
#
# PCOD9288545 Si02
#       7
#     8   8   8   8   4   8   8
#     4  11  24  39  66  93 128 160 211 256 315 370
#     4  11  22  40  63  90 126 172 198 259 313 371
#     4  11  21  38  64  93 119 163 208 258 300 372
#     4  10  23  40  60  88 125 160 214 250 306 374
#     4  10  24  42  62  98 126 162 210 266 304 376
#     4  10  22  39  65  91 127 164 206 259 313 368
#     4  10  22  39  61  90 123 163 208 257 306 378
#
# _framework density 21.018121000000001
#
# number of rings (size 3 to 8) (size 9 to 14) (size 15 to 20)
#    0.000    1.538    0.769    4.154    3.231    3.692 
#    2.769    0.769    0.000    0.000    0.000    0.000 
#    0.000    0.000    0.000    0.000    0.000    0.000 
#
# Total GULP energy -145224.680474 kJ/mol
# GULP energy per Si atom -5585.564634 kJ/mol
# Density = 2.097028 g / cm^3
# Si number density = 21.018121 Si / 1000 Ang^3
#
#
#
# Elastic Constant Matrix: (Units=GPa)
#
#
# Indices 1 2 3 4 5 6 
#
# 1 35.4194 3.8665 -6.1030 0.0000 8.6131 0.0000
# 2 3.8665 81.2729 13.6459 0.0000 3.2475 0.0000
# 3 -6.1030 13.6459 44.8369 0.0000 12.0177 0.0001
# 4 0.0000 0.0000 0.0000 1.9122 0.0000 12.6348
# 5 8.6131 3.2475 12.0177 0.0000 25.5580 0.0000
# 6 0.0000 0.0000 0.0001 12.6348 0.0000 16.3843
#
#
#
# Elastic Compliance Matrix: (Units=1/GPa)
#
#
# Indices 1 2 3 4 5 6 
#
# 1 0.033976 -0.002605 0.009609 0.000000 -0.015637 0.000000
# 2 -0.002605 0.013168 -0.004747 0.000000 0.001437 0.000000
# 3 0.009609 -0.004747 0.029477 0.000000 -0.016495 0.000000
# 4 0.000000 0.000000 0.000000 -0.127695 0.000001 0.098473
# 5 -0.015637 0.001437 -0.016495 0.000001 0.051970 0.000000
# 6 0.000000 0.000000 0.000000 0.098473 0.000000 -0.014904
#
#
# Mechanical properties :
#
#
# Convention : Reuss Voigt Hill
#
# Bulk Modulus (GPa) = 12.32535 20.48311 16.40423
# Shear Modulus (GPa) = 586.59824 18.77889 302.68857
#
# Velocity S-wave (km/s) = 16.72416 2.99233 12.01357
# Velocity P-wave (km/s) = 19.46296 4.65889 14.15119
#
# Compressibility (1/GPa) = 0.08113357
#
# Stress axis : x y z
#
# Youngs Moduli (GPa) = 29.43285 75.94277 33.92465
#
# Poissons Ratio (x) = 0.19782 -0.32597
# Poissons Ratio (y) = 0.07667 0.16105
# Poissons Ratio (z) = -0.28281 0.36052
#
# Static dielectric constant tensor:
#      x y z
#    x 1.781610 0.000000 0.012240 
#    y 0.000000 1.795830 0.000000 
#    z 0.012240 0.000000 1.725760 
# 
# From -- ./inp_files/205664.got.cif
#   From: 2010.05.17/outbox.cif.g08.bks.cpg/sg15_103_cif.got.tgz:205664.got - 2010.06.03 18:47:42.
