data_PCOD9288265
_publ_section_title
;
Structure prediction by ZEFSAII (Michael W. Deem and Ramdas Pophale) SiO2 
 PCOD9288265
Probable space group: C 2/C
;
_chemical_formula_sum "Si O2"
_cell_formula_units_Z 56
_cell_length_a 9.573587
_cell_length_b 15.068263
_cell_length_c 22.992951
_cell_angle_alpha 90.000000
_cell_angle_beta 56.424500
_cell_angle_gamma 90.000000
_cell_volume 2763.502471
_symmetry_space_group_name_H-M "C 2/C"
_symmetry_group_IT_number 15
_symmetry_cell_setting 'monoclinic'
loop_
_space_group_symop_operation_xyz
x,y,z
-x,y,1/2-z
-x,-y,-z
x,-y,1/2+z
1/2+x,1/2+y,z
1/2-x,1/2+y,1/2-z
1/2-x,1/2-y,-z
1/2+x,1/2-y,1/2+z
loop_
_atom_site_type_symbol
_atom_site_label
_atom_site_fract_x
_atom_site_fract_y
_atom_site_fract_z
Si Si1 0.101296 0.276244 0.786729
Si Si2 0.171605 0.787169 0.577439
Si Si3 0.173459 0.107400 0.489542
Si Si4 0.449762 0.460778 0.602459
Si Si5 0.656007 0.026898 0.258444
Si Si6 0.487717 0.786381 0.936445
Si Si7 0.428143 0.157754 0.700981
O O1 0.165621 0.376358 0.783877
O O2 0.993224 0.253538 0.868251
O O3 0.257909 0.212578 0.743528
O O4 0.000000 0.274302 0.750000
O O5 0.250000 0.750000 0.500000
O O6 0.058497 0.874297 0.593834
O O7 0.327200 0.807292 0.584016
O O8 0.058936 0.709588 0.631189
O O9 0.359666 0.131492 0.467690
O O10 0.164180 0.066695 0.427031
O O11 0.081415 0.203079 0.510828
O O12 0.071497 0.039586 0.553627
O O13 0.324966 0.488737 0.682639
O O14 0.500000 0.033410 0.250000
O O15 0.613994 0.942748 0.307830
O O16 0.500000 0.153962 0.750000
#
# Coordination Sequence:
#
# PCOD9288265 Si02
#       7
#     8   8   8   8   8   8   8
#     4  11  22  40  65  93 130 172 223 280 332 396
#     4  12  25  41  67  97 137 175 223 275 344 401
#     4  10  23  39  68  96 135 171 221 267 333 407
#     4  11  22  42  66  99 130 177 223 272 331 410
#     4  10  22  38  66  94 126 173 227 270 328 397
#     4  11  23  42  64  97 133 177 216 280 336 398
#     4  11  23  42  67  95 130 179 225 278 332 397
#
# _framework density 20.264140000000001
#
# number of rings (size 3 to 8) (size 9 to 14) (size 15 to 20)
#    0.000    1.143    4.286    2.571    2.000    1.714 
#    0.000    3.571    0.000    0.000    0.000    0.000 
#    0.000    0.000    0.000    0.000    0.000    0.000 
#
# Total GULP energy -156469.972354 kJ/mol
# GULP energy per Si atom -5588.213298 kJ/mol
# Density = 2.021802 g / cm^3
# Si number density = 20.264140 Si / 1000 Ang^3
#
#
#
# Elastic Constant Matrix: (Units=GPa)
#
#
# Indices 1 2 3 4 5 6 
#
# 1 71.4123 28.1179 14.5977 0.0000 -7.9542 0.0000
# 2 28.1179 82.6037 -6.8069 0.0000 -7.7539 0.0000
# 3 14.5977 -6.8069 64.8537 0.0000 -3.9976 0.0000
# 4 0.0000 0.0000 0.0000 35.0708 0.0000 -9.7551
# 5 -7.9542 -7.7539 -3.9976 0.0000 27.1332 0.0000
# 6 0.0000 0.0000 0.0000 -9.7551 0.0000 18.5730
#
#
#
# Elastic Compliance Matrix: (Units=1/GPa)
#
#
# Indices 1 2 3 4 5 6 
#
# 1 0.017622 -0.006104 -0.004437 0.000000 0.002768 0.000000
# 2 -0.006104 0.014708 0.003095 0.000000 0.002870 0.000000
# 3 -0.004437 0.003095 0.016870 0.000000 0.002069 0.000000
# 4 0.000000 0.000000 0.000000 0.033392 0.000000 0.017538
# 5 0.002768 0.002870 0.002069 0.000000 0.038792 0.000000
# 6 0.000000 0.000000 0.000000 0.017538 0.000000 0.063053
#
#
# Mechanical properties :
#
#
# Convention : Reuss Voigt Hill
#
# Bulk Modulus (GPa) = 29.14759 32.29857 30.72308
# Shear Modulus (GPa) = 23.72306 28.35280 26.03793
#
# Velocity S-wave (km/s) = 3.42525 3.74459 3.58848
# Velocity P-wave (km/s) = 5.48253 5.88807 5.68892
#
# Compressibility (1/GPa) = 0.03430816
#
# Stress axis : x y z
#
# Youngs Moduli (GPa) = 56.74779 67.98926 59.27582
#
# Poissons Ratio (x) = 0.41502 0.26298
# Poissons Ratio (y) = 0.34640 -0.18343
# Poissons Ratio (z) = 0.25176 -0.21040
#
# Static dielectric constant tensor:
#      x y z
#    x 1.706600 0.000000 0.005190 
#    y 0.000000 1.718280 0.000000 
#    z 0.005190 0.000000 1.714660 
# 
# From -- ./inp_files/265455.got.cif
#   From: 2010.05.17/outbox.cif.g08.bks.cpg/sg15_133_cif.got.tgz:265455.got - 2010.06.03 18:47:42.
