data_PCOD9288447
_publ_section_title
;
Structure prediction by ZEFSAII (Michael W. Deem and Ramdas Pophale) SiO2 
 PCOD9288447
Probable space group: C 2/C
;
_chemical_formula_sum "Si O2"
_cell_formula_units_Z 32
_cell_length_a 16.703696
_cell_length_b 7.305986
_cell_length_c 18.563408
_cell_angle_alpha 90.000000
_cell_angle_beta 40.880942
_cell_angle_gamma 90.000000
_cell_volume 1482.694631
_symmetry_space_group_name_H-M "C 2/C"
_symmetry_group_IT_number 15
_symmetry_cell_setting 'monoclinic'
loop_
_space_group_symop_operation_xyz
x,y,z
-x,y,1/2-z
-x,-y,-z
x,-y,1/2+z
1/2+x,1/2+y,z
1/2-x,1/2+y,1/2-z
1/2-x,1/2-y,-z
1/2+x,1/2-y,1/2+z
loop_
_atom_site_type_symbol
_atom_site_label
_atom_site_fract_x
_atom_site_fract_y
_atom_site_fract_z
Si Si1 0.415422 0.501448 0.683560
Si Si2 0.698356 0.230063 0.346964
Si Si3 0.724007 0.922980 0.426524
Si Si4 0.194378 0.000337 0.975989
O O1 0.392232 0.668952 0.644788
O O2 0.320761 0.341980 0.724209
O O3 0.359993 0.559908 0.798561
O O4 0.554778 0.445146 0.588106
O O5 0.649541 0.051380 0.422372
O O6 0.738463 0.371553 0.381769
O O7 0.727228 0.005596 0.504393
O O8 0.691253 0.711729 0.454258
#
# Coordination Sequence:
#
# PCOD9288447 Si02
#       4
#     8   8   8   8
#     4  10  22  39  62  86 125 157 197 249 303 348
#     4  10  22  39  59  90 123 154 202 249 289 371
#     4   9  23  39  64  87 122 154 208 247 293 368
#     4  11  20  43  62  88 121 161 198 252 301 351
#
# _framework density 21.582329000000001
#
# number of rings (size 3 to 8) (size 9 to 14) (size 15 to 20)
#    1.500    0.500    0.000    3.750    0.000    1.000 
#    9.000    0.000   11.000    0.000    0.000    0.000 
#    0.000    0.000    0.000    0.000    0.000    0.000 
#
# Total GULP energy -89197.204882 kJ/mol
# GULP energy per Si atom -5574.825305 kJ/mol
# Density = 2.153321 g / cm^3
# Si number density = 21.582329 Si / 1000 Ang^3
#
#
#
# Elastic Constant Matrix: (Units=GPa)
#
#
# Indices 1 2 3 4 5 6 
#
# 1 32.2500 12.6632 12.6646 0.0000 5.3955 0.0000
# 2 12.6632 58.5096 7.8072 0.0000 8.3755 0.0000
# 3 12.6646 7.8072 40.3163 0.0000 2.3799 0.0000
# 4 0.0000 0.0000 0.0000 40.2558 0.0000 20.0771
# 5 5.3955 8.3755 2.3799 0.0000 35.4767 0.0000
# 6 0.0000 0.0000 0.0000 20.0771 0.0000 23.5533
#
#
#
# Elastic Compliance Matrix: (Units=1/GPa)
#
#
# Indices 1 2 3 4 5 6 
#
# 1 0.038259 -0.006353 -0.010575 0.000000 -0.003609 0.000000
# 2 -0.006353 0.019163 -0.001511 0.000000 -0.003456 0.000000
# 3 -0.010575 -0.001511 0.028415 0.000000 0.000059 0.000000
# 4 0.000000 0.000000 0.000000 0.043212 0.000000 -0.036834
# 5 -0.003609 -0.003456 0.000059 0.000000 0.029549 0.000000
# 6 0.000000 0.000000 0.000000 -0.036834 0.000000 0.073854
#
#
# Mechanical properties :
#
#
# Convention : Reuss Voigt Hill
#
# Bulk Modulus (GPa) = 20.42539 21.92732 21.17636
# Shear Modulus (GPa) = 17.50406 26.38658 21.94532
#
# Velocity S-wave (km/s) = 2.85096 3.50036 3.19222
# Velocity P-wave (km/s) = 4.50797 5.14963 4.83944
#
# Compressibility (1/GPa) = 0.04895867
#
# Stress axis : x y z
#
# Youngs Moduli (GPa) = 26.13777 52.18521 35.19266
#
# Poissons Ratio (x) = 0.33151 0.37216
# Poissons Ratio (y) = 0.16604 0.05318
# Poissons Ratio (z) = 0.27641 0.07886
#
# Static dielectric constant tensor:
#      x y z
#    x 1.760350 0.000000 0.031960 
#    y 0.000000 1.798490 0.000000 
#    z 0.031960 0.000000 1.783590 
# 
# From -- ./inp_files/102228.got.cif
#   From: 2010.05.17/outbox.cif.g08.bks.cpg/sg15_52_cif.got.tgz:102228.got - 2010.06.03 18:47:42.
