data_PCOD9288179
_publ_section_title
;
Structure prediction by ZEFSAII (Michael W. Deem and Ramdas Pophale) SiO2 
 PCOD9288179
Probable space group: C 2/C
;
_chemical_formula_sum "Si O2"
_cell_formula_units_Z 48
_cell_length_a 6.875685
_cell_length_b 28.277450
_cell_length_c 15.335599
_cell_angle_alpha 90.000000
_cell_angle_beta 131.620080
_cell_angle_gamma 90.000000
_cell_volume 2228.979787
_symmetry_space_group_name_H-M "C 2/C"
_symmetry_group_IT_number 15
_symmetry_cell_setting 'monoclinic'
loop_
_space_group_symop_operation_xyz
x,y,z
-x,y,1/2-z
-x,-y,-z
x,-y,1/2+z
1/2+x,1/2+y,z
1/2-x,1/2+y,1/2-z
1/2-x,1/2-y,-z
1/2+x,1/2-y,1/2+z
loop_
_atom_site_type_symbol
_atom_site_label
_atom_site_fract_x
_atom_site_fract_y
_atom_site_fract_z
Si Si1 0.500000 0.162995 0.250000
Si Si2 0.013238 0.280836 0.574988
Si Si3 0.964539 0.653032 0.892273
Si Si4 0.500000 0.781182 0.250000
Si Si5 0.982513 0.894130 0.969832
Si Si6 0.158713 0.038862 0.378542
Si Si7 0.745182 0.930325 0.074892
O O1 0.447473 0.194283 0.319874
O O2 0.250816 0.131878 0.149803
O O3 0.979012 0.318601 0.487394
O O4 0.272001 0.249623 0.638320
O O5 0.750000 0.250000 0.500000
O O6 0.872042 0.686504 0.786928
O O7 0.794900 0.606038 0.857680
O O8 0.256834 0.636915 0.955320
O O9 0.047088 0.941620 0.935601
O O10 0.898903 0.905944 0.042569
O O11 0.450698 0.057981 0.456306
O O12 0.000000 0.058502 0.250000
O O13 0.148335 0.982266 0.373836
#
# Coordination Sequence:
#
# PCOD9288179 Si02
#       7
#     4   8   8   4   8   8   8
#     4  12  22  38  72  99 124 184 221 266 344 396
#     4  12  25  46  67 100 135 172 228 288 335 398
#     4  11  25  44  66  96 133 170 224 273 328 404
#     4  12  26  44  68  99 132 182 223 276 348 400
#     4  11  22  40  66  97 133 171 219 272 325 397
#     4  10  22  38  64  96 128 174 215 267 327 392
#     4  10  22  43  62  94 136 168 217 273 323 393
#
# _framework density 21.534514999999999
#
# number of rings (size 3 to 8) (size 9 to 14) (size 15 to 20)
#    0.000    1.000    1.667    5.000    2.333    1.333 
#    0.000    0.000    0.000    0.000    0.000    0.000 
#    0.000    0.000    0.000    0.000    0.000    0.000 
#
# Total GULP energy -134331.231317 kJ/mol
# GULP energy per Si atom -5597.134638 kJ/mol
# Density = 2.148550 g / cm^3
# Si number density = 21.534515 Si / 1000 Ang^3
#
#
#
# Elastic Constant Matrix: (Units=GPa)
#
#
# Indices 1 2 3 4 5 6 
#
# 1 102.5336 29.2025 5.3934 0.0000 -6.3468 0.0000
# 2 29.2025 84.7287 -3.4411 0.0000 3.6043 0.0000
# 3 5.3934 -3.4411 48.9676 0.0000 0.1499 0.0000
# 4 0.0000 0.0000 0.0000 0.5687 0.0000 -12.2680
# 5 -6.3468 3.6043 0.1499 0.0000 40.1080 0.0000
# 6 0.0000 0.0000 0.0000 -12.2680 0.0000 31.0610
#
#
#
# Elastic Compliance Matrix: (Units=1/GPa)
#
#
# Indices 1 2 3 4 5 6 
#
# 1 0.011096 -0.003976 -0.001508 0.000000 0.002119 0.000000
# 2 -0.003976 0.013306 0.001379 0.000000 -0.001830 0.000000
# 3 -0.001508 0.001379 0.020686 0.000000 -0.000440 0.000000
# 4 0.000000 0.000000 0.000000 -0.233823 0.000000 -0.092351
# 5 0.002119 -0.001830 -0.000440 0.000000 0.025434 0.000000
# 6 0.000000 0.000000 0.000000 -0.092351 0.000000 -0.004281
#
#
# Mechanical properties :
#
#
# Convention : Reuss Voigt Hill
#
# Bulk Modulus (GPa) = 27.11634 33.17104 30.14369
# Shear Modulus (GPa) = -33.99544 28.01919 -2.98812
#
# Velocity S-wave (km/s) = -3.97753 3.61103 -1.17924
# Velocity P-wave (km/s) = 2.91118 5.72915 3.48914
#
# Compressibility (1/GPa) = 0.03687813
#
# Stress axis : x y z
#
# Youngs Moduli (GPa) = 90.12538 75.15158 48.34188
#
# Poissons Ratio (x) = 0.29877 0.07290
# Poissons Ratio (y) = 0.35830 -0.06664
# Poissons Ratio (z) = 0.13591 -0.10360
#
# Static dielectric constant tensor:
#      x y z
#    x 1.752020 0.000000 0.003970 
#    y 0.000000 1.791580 0.000000 
#    z 0.003970 0.000000 1.741220 
# 
# From -- ./inp_files/130946.got.cif
#   From: 2010.05.17/outbox.cif.g08.bks.cpg/sg15_66_cif.got.tgz:130946.got - 2010.06.03 18:47:42.
