data_PCOD9288389
_publ_section_title
;
Structure prediction by ZEFSAII (Michael W. Deem and Ramdas Pophale) SiO2 
 PCOD9288389
Probable space group: C 2/C
;
_chemical_formula_sum "Si O2"
_cell_formula_units_Z 64
_cell_length_a 12.790182
_cell_length_b 32.665563
_cell_length_c 8.416760
_cell_angle_alpha 90.000000
_cell_angle_beta 96.466432
_cell_angle_gamma 90.000000
_cell_volume 3494.137661
_symmetry_space_group_name_H-M "C 2/C"
_symmetry_group_IT_number 15
_symmetry_cell_setting 'monoclinic'
loop_
_space_group_symop_operation_xyz
x,y,z
-x,y,1/2-z
-x,-y,-z
x,-y,1/2+z
1/2+x,1/2+y,z
1/2-x,1/2+y,1/2-z
1/2-x,1/2-y,-z
1/2+x,1/2-y,1/2+z
loop_
_atom_site_type_symbol
_atom_site_label
_atom_site_fract_x
_atom_site_fract_y
_atom_site_fract_z
Si Si1 0.230431 0.618595 0.976602
Si Si2 0.695029 0.290467 0.558866
Si Si3 0.031229 0.763246 0.073732
Si Si4 0.383801 0.677028 0.147598
Si Si5 0.370806 0.037645 0.567428
Si Si6 0.531405 0.832291 0.570818
Si Si7 0.314449 0.862054 0.399577
Si Si8 0.391717 0.949738 0.449144
O O1 0.216057 0.570263 0.997276
O O2 0.219595 0.630377 0.788030
O O3 0.335972 0.635244 0.073400
O O4 0.129787 0.640499 0.039097
O O5 0.750000 0.250000 0.500000
O O6 0.575407 0.276218 0.529642
O O7 0.700498 0.304010 0.742557
O O8 0.734261 0.330134 0.467843
O O9 0.056140 0.715771 0.057633
O O10 0.000000 0.770922 0.250000
O O11 0.113508 0.792552 0.003059
O O12 0.500000 0.671571 0.250000
O O13 0.481691 0.050659 0.503227
O O14 0.382628 0.043501 0.758248
O O15 0.350334 0.990430 0.526453
O O16 0.500000 0.839073 0.750000
O O17 0.430395 0.842247 0.443011
O O18 0.332722 0.907394 0.478220
#
# Coordination Sequence:
#
# PCOD9288389 Si02
#       8
#     8   8   8   8   8   8   8   8
#     4  11  22  36  58  81 111 154 191 231 288 336
#     4  11  22  36  55  78 110 146 191 231 281 329
#     4  10  22  39  55  77 107 149 193 239 283 328
#     4  10  24  41  57  79 109 147 198 244 286 326
#     4   9  18  33  52  80 113 148 184 218 276 341
#     4  11  22  33  52  82 117 148 190 230 277 338
#     4  11  21  36  55  83 118 152 186 229 279 343
#     4   9  18  33  51  80 116 150 177 223 273 334
#
# _framework density 18.316393000000001
#
# number of rings (size 3 to 8) (size 9 to 14) (size 15 to 20)
#    0.000    1.750    2.500    1.875    3.500    3.500 
#    0.000    0.000    0.000    0.000    0.000   14.875 
#    0.000    0.000    0.000    0.000    0.000    0.000 
#
# Total GULP energy -178331.255788 kJ/mol
# GULP energy per Si atom -5572.851743 kJ/mol
# Density = 1.827470 g / cm^3
# Si number density = 18.316393 Si / 1000 Ang^3
#
#
#
# Elastic Constant Matrix: (Units=GPa)
#
#
# Indices 1 2 3 4 5 6 
#
# 1 34.5814 26.0978 10.3127 0.0000 0.6643 0.0000
# 2 26.0978 134.8437 42.3237 0.0000 -15.2610 0.0000
# 3 10.3127 42.3237 37.5224 0.0000 1.5181 0.0000
# 4 0.0000 0.0000 0.0000 29.3201 0.0000 -1.4869
# 5 0.6643 -15.2610 1.5181 0.0000 25.8826 0.0000
# 6 0.0000 0.0000 0.0000 -1.4869 0.0000 30.9202
#
#
#
# Elastic Compliance Matrix: (Units=1/GPa)
#
#
# Indices 1 2 3 4 5 6 
#
# 1 0.034569 -0.006658 -0.001800 0.000000 -0.004708 0.000000
# 2 -0.006658 0.014449 -0.014855 0.000000 0.009562 0.000000
# 3 -0.001800 -0.014855 0.044360 0.000000 -0.011315 0.000000
# 4 0.000000 0.000000 0.000000 0.034190 0.000000 0.001644
# 5 -0.004708 0.009562 -0.011315 0.000000 0.045058 0.000000
# 6 0.000000 0.000000 0.000000 0.001644 0.000000 0.032420
#
#
# Mechanical properties :
#
#
# Convention : Reuss Voigt Hill
#
# Bulk Modulus (GPa) = 21.39016 40.49066 30.94041
# Shear Modulus (GPa) = 18.70848 25.77213 22.24030
#
# Velocity S-wave (km/s) = 3.19941 3.75514 3.48836
# Velocity P-wave (km/s) = 5.03506 6.39966 5.75793
#
# Compressibility (1/GPa) = 0.04675047
#
# Stress axis : x y z
#
# Youngs Moduli (GPa) = 28.92728 69.20656 22.54306
#
# Poissons Ratio (x) = 0.46080 0.04059
# Poissons Ratio (y) = 0.19261 0.33488
# Poissons Ratio (z) = 0.05208 1.02809
#
# Static dielectric constant tensor:
#      x y z
#    x 1.641290 0.000000 -0.031930 
#    y 0.000000 1.642320 0.000000 
#    z -0.031930 0.000000 1.731240 
# 
# From -- ./inp_files/35660.got.cif
#   From: 2010.05.17/outbox.cif.g08.bks.cpg/sg15_18_cif.got.tgz:35660.got - 2010.06.03 18:47:42.
