data_PCOD9288214
_publ_section_title
;
Structure prediction by ZEFSAII (Michael W. Deem and Ramdas Pophale) SiO2 
 PCOD9288214
Probable space group: C 2/C
;
_chemical_formula_sum "Si O2"
_cell_formula_units_Z 64
_cell_length_a 15.589774
_cell_length_b 15.603203
_cell_length_c 16.673025
_cell_angle_alpha 90.000000
_cell_angle_beta 134.130986
_cell_angle_gamma 90.000000
_cell_volume 2910.992473
_symmetry_space_group_name_H-M "C 2/C"
_symmetry_group_IT_number 15
_symmetry_cell_setting 'monoclinic'
loop_
_space_group_symop_operation_xyz
x,y,z
-x,y,1/2-z
-x,-y,-z
x,-y,1/2+z
1/2+x,1/2+y,z
1/2-x,1/2+y,1/2-z
1/2-x,1/2-y,-z
1/2+x,1/2-y,1/2+z
loop_
_atom_site_type_symbol
_atom_site_label
_atom_site_fract_x
_atom_site_fract_y
_atom_site_fract_z
Si Si1 0.097108 0.180795 0.958819
Si Si2 0.311698 0.131486 0.020116
Si Si3 0.192008 0.299413 0.678659
Si Si4 0.928529 0.123247 0.386304
Si Si5 0.264519 0.531661 0.832277
Si Si6 0.468298 0.953393 0.896321
Si Si7 0.344258 0.350963 0.238096
Si Si8 0.812585 0.180072 0.978449
O O1 0.220441 0.127846 0.033807
O O2 0.987106 0.140723 0.837967
O O3 0.127078 0.274614 0.943667
O O4 0.060063 0.181922 0.026889
O O5 0.222039 0.126310 0.886129
O O6 0.412968 0.061519 0.077763
O O7 0.317257 0.348493 0.760017
O O8 0.082163 0.363012 0.606492
O O9 0.182874 0.246856 0.755509
O O10 0.185632 0.237624 0.599788
O O11 0.051653 0.143286 0.418677
O O12 0.878744 0.033193 0.392762
O O13 0.138160 0.489392 0.727754
O O14 0.286682 0.595091 0.771808
O O15 0.255627 0.589816 0.907282
O O16 0.500000 0.000000 0.000000
O O17 0.750000 0.250000 0.000000
#
# Coordination Sequence:
#
# PCOD9288214 Si02
#       8
#     8   8   8   8   8   8   8   8
#     4  11  22  36  65  91 129 170 221 277 332 411
#     4  11  22  37  60 100 129 168 217 278 341 408
#     4  10  22  38  65  91 126 182 224 276 349 428
#     4  11  21  42  66  94 132 173 224 284 349 410
#     4  10  23  39  69  97 130 183 231 279 352 421
#     4  11  21  41  65  95 137 176 217 282 361 418
#     4  11  19  38  62  91 125 176 229 265 336 427
#     4  11  24  44  71  96 129 181 241 290 346 421
#
# _framework density 21.985628999999999
#
# number of rings (size 3 to 8) (size 9 to 14) (size 15 to 20)
#    0.000    1.250    6.250    0.750    0.000    0.500 
#    2.250    2.500    5.500    0.000    0.000    0.000 
#    0.000    0.000    0.000    0.000    0.000    0.000 
#
# Total GULP energy -178289.634461 kJ/mol
# GULP energy per Si atom -5571.551077 kJ/mol
# Density = 2.193559 g / cm^3
# Si number density = 21.985629 Si / 1000 Ang^3
#
#
#
# Elastic Constant Matrix: (Units=GPa)
#
#
# Indices 1 2 3 4 5 6 
#
# 1 105.4182 30.3260 41.9388 0.0000 25.0434 0.0000
# 2 30.3260 81.2667 25.4207 0.0000 11.3183 0.0000
# 3 41.9388 25.4207 99.6103 0.0000 32.5392 0.0000
# 4 0.0000 0.0000 0.0000 34.0550 0.0000 2.6428
# 5 25.0434 11.3183 32.5392 0.0000 37.5949 0.0000
# 6 0.0000 0.0000 0.0000 2.6428 0.0000 35.3210
#
#
#
# Elastic Compliance Matrix: (Units=1/GPa)
#
#
# Indices 1 2 3 4 5 6 
#
# 1 0.012745 -0.003142 -0.002927 0.000000 -0.005010 0.000000
# 2 -0.003142 0.014208 -0.002216 0.000000 -0.000266 0.000000
# 3 -0.002927 -0.002216 0.015311 0.000000 -0.010635 0.000000
# 4 0.000000 0.000000 0.000000 0.029536 0.000000 -0.002210
# 5 -0.005010 -0.000266 -0.010635 0.000000 0.039222 0.000000
# 6 0.000000 0.000000 0.000000 -0.002210 0.000000 0.028477
#
#
# Mechanical properties :
#
#
# Convention : Reuss Voigt Hill
#
# Bulk Modulus (GPa) = 38.92160 53.51847 46.22003
# Shear Modulus (GPa) = 30.37032 33.96817 32.16925
#
# Velocity S-wave (km/s) = 3.72071 3.93493 3.82932
# Velocity P-wave (km/s) = 6.01664 6.71120 6.37339
#
# Compressibility (1/GPa) = 0.02569268
#
# Stress axis : x y z
#
# Youngs Moduli (GPa) = 78.46315 70.38265 65.31151
#
# Poissons Ratio (x) = 0.22118 0.19119
# Poissons Ratio (y) = 0.24657 0.14472
# Poissons Ratio (z) = 0.22969 0.15596
#
# Static dielectric constant tensor:
#      x y z
#    x 1.836170 0.000000 0.016890 
#    y 0.000000 1.892510 0.000000 
#    z 0.016890 0.000000 1.823530 
# 
# From -- ./inp_files/206490.got.cif
#   From: 2010.05.17/outbox.cif.g08.bks.cpg/sg15_104_cif.got.tgz:206490.got - 2010.06.03 18:47:42.
