data_PCOD9288249
_publ_section_title
;
Structure prediction by ZEFSAII (Michael W. Deem and Ramdas Pophale) SiO2 
 PCOD9288249
Probable space group: C 2/C
;
_chemical_formula_sum "Si O2"
_cell_formula_units_Z 52
_cell_length_a 29.150457
_cell_length_b 7.331017
_cell_length_c 14.425114
_cell_angle_alpha 90.000000
_cell_angle_beta 130.899071
_cell_angle_gamma 90.000000
_cell_volume 2330.089263
_symmetry_space_group_name_H-M "C 2/C"
_symmetry_group_IT_number 15
_symmetry_cell_setting 'monoclinic'
loop_
_space_group_symop_operation_xyz
x,y,z
-x,y,1/2-z
-x,-y,-z
x,-y,1/2+z
1/2+x,1/2+y,z
1/2-x,1/2+y,1/2-z
1/2-x,1/2-y,-z
1/2+x,1/2-y,1/2+z
loop_
_atom_site_type_symbol
_atom_site_label
_atom_site_fract_x
_atom_site_fract_y
_atom_site_fract_z
Si Si1 0.328385 0.671071 0.817800
Si Si2 0.566688 0.528693 0.970261
Si Si3 0.559106 0.366265 0.674050
Si Si4 0.902290 0.723145 0.252471
Si Si5 0.742207 0.328341 0.844521
Si Si6 0.000000 0.710296 0.250000
Si Si7 0.663898 0.104239 0.869884
O O1 0.379473 0.784653 0.829119
O O2 0.297224 0.512957 0.714344
O O3 0.275052 0.787434 0.791568
O O4 0.367944 0.563652 0.947077
O O5 0.511890 0.380822 0.894315
O O6 0.551297 0.672452 0.870948
O O7 0.562322 0.626392 0.065798
O O8 0.586086 0.562151 0.740869
O O9 0.600669 0.213582 0.774864
O O10 0.962867 0.631936 0.288712
O O11 0.848690 0.609822 0.135256
O O12 0.699651 0.164998 0.824490
O O13 0.795280 0.339950 0.990202
#
# Coordination Sequence:
#
# PCOD9288249 Si02
#       7
#     8   8   8   8   8   4   8
#     4  11  23  44  64  99 136 179 219 278 336 399
#     4   9  19  37  68  89 130 172 217 269 342 389
#     4   9  19  43  65  95 125 173 216 277 340 391
#     4  10  22  43  65  95 135 168 217 274 339 383
#     4  11  25  41  68 101 133 179 230 263 342 394
#     4  10  22  38  66 102 124 178 220 272 344 398
#     4  11  23  44  67  99 133 172 229 280 317 411
#
# _framework density 22.316741
#
# number of rings (size 3 to 8) (size 9 to 14) (size 15 to 20)
#    0.000    1.846    3.077    1.846    4.308    1.846 
#    5.538   10.769    0.000    0.000    0.000    0.000 
#    0.000    0.000    0.000    0.000    0.000    0.000 
#
# Total GULP energy -144756.904159 kJ/mol
# GULP energy per Si atom -5567.573237 kJ/mol
# Density = 2.226595 g / cm^3
# Si number density = 22.316741 Si / 1000 Ang^3
#
#
#
# Elastic Constant Matrix: (Units=GPa)
#
#
# Indices 1 2 3 4 5 6 
#
# 1 108.3371 14.3317 9.3676 0.0000 2.8122 0.0000
# 2 14.3317 47.7520 35.5369 0.0000 3.6023 0.0000
# 3 9.3676 35.5369 101.4344 0.0000 17.3814 0.0000
# 4 0.0000 0.0000 0.0000 25.7986 0.0000 6.1426
# 5 2.8122 3.6023 17.3814 0.0000 25.3003 0.0000
# 6 0.0000 0.0000 0.0000 6.1426 0.0000 11.8816
#
#
#
# Elastic Compliance Matrix: (Units=1/GPa)
#
#
# Indices 1 2 3 4 5 6 
#
# 1 0.009631 -0.003075 0.000336 0.000000 -0.000863 0.000000
# 2 -0.003075 0.029533 -0.010655 0.000000 0.003457 0.000000
# 3 0.000336 -0.010655 0.015083 0.000000 -0.008882 0.000000
# 4 0.000000 0.000000 0.000000 0.044203 0.000000 -0.022852
# 5 -0.000863 0.003457 -0.008882 0.000000 0.045231 0.000000
# 6 0.000000 0.000000 0.000000 -0.022852 0.000000 0.095978
#
#
# Mechanical properties :
#
#
# Convention : Reuss Voigt Hill
#
# Bulk Modulus (GPa) = 36.42006 41.77735 39.09871
# Shear Modulus (GPa) = 18.14226 25.81524 21.97875
#
# Velocity S-wave (km/s) = 2.85431 3.40482 3.14164
# Velocity P-wave (km/s) = 5.21707 5.84960 5.54237
#
# Compressibility (1/GPa) = 0.02745739
#
# Stress axis : x y z
#
# Youngs Moduli (GPa) = 103.83529 33.86011 66.30200
#
# Poissons Ratio (x) = 0.10413 -0.02227
# Poissons Ratio (y) = 0.31933 0.70646
# Poissons Ratio (z) = -0.03488 0.36078
#
# Static dielectric constant tensor:
#      x y z
#    x 1.949600 0.000000 -0.007680 
#    y 0.000000 1.842500 0.000000 
#    z -0.007680 0.000000 1.817730 
# 
# From -- ./inp_files/181243.got.cif
#   From: 2010.05.17/outbox.cif.g08.bks.cpg/sg15_91_cif.got.tgz:181243.got - 2010.06.03 18:47:42.
