data_PCOD9288108
_publ_section_title
;
Structure prediction by ZEFSAII (Michael W. Deem and Ramdas Pophale) SiO2 
 PCOD9288108
Probable space group: C 2/C
;
_chemical_formula_sum "Si O2"
_cell_formula_units_Z 52
_cell_length_a 19.050373
_cell_length_b 14.035043
_cell_length_c 19.137810
_cell_angle_alpha 90.000000
_cell_angle_beta 31.130827
_cell_angle_gamma 90.000000
_cell_volume 2645.421834
_symmetry_space_group_name_H-M "C 2/C"
_symmetry_group_IT_number 15
_symmetry_cell_setting 'monoclinic'
loop_
_space_group_symop_operation_xyz
x,y,z
-x,y,1/2-z
-x,-y,-z
x,-y,1/2+z
1/2+x,1/2+y,z
1/2-x,1/2+y,1/2-z
1/2-x,1/2-y,-z
1/2+x,1/2-y,1/2+z
loop_
_atom_site_type_symbol
_atom_site_label
_atom_site_fract_x
_atom_site_fract_y
_atom_site_fract_z
Si Si1 0.418222 0.773478 0.197205
Si Si2 0.789099 0.703454 0.541298
Si Si3 0.145470 0.349187 0.912864
Si Si4 0.392605 0.157194 0.215457
Si Si5 0.733219 0.482830 0.579956
Si Si6 0.862419 0.462154 0.324615
Si Si7 0.500000 0.348268 0.750000
O O1 0.284915 0.710437 0.298800
O O2 0.358609 0.873249 0.276459
O O3 0.519055 0.726875 0.169887
O O4 0.513436 0.790691 0.049812
O O5 0.750000 0.750000 0.500000
O O6 0.714999 0.764764 0.664634
O O7 0.733979 0.595154 0.590258
O O8 0.952936 0.695465 0.406891
O O9 0.127542 0.373495 0.847421
O O10 0.160104 0.434997 0.956911
O O11 0.368233 0.063168 0.282042
O O12 0.756212 0.462196 0.478105
O O13 0.598613 0.422288 0.704795
O O14 0.000000 0.452264 0.250000
#
# Coordination Sequence:
#
# PCOD9288108 Si02
#       7
#     8   8   8   8   8   8   4
#     4  11  21  40  66  91 131 162 213 258 327 371
#     4  12  24  43  67  91 125 173 217 264 299 374
#     4  11  24  41  61  97 130 170 202 264 323 385
#     4  12  26  41  64  94 133 164 219 258 319 371
#     4  11  23  40  67  93 126 164 217 258 324 364
#     4  12  20  40  66  93 116 166 215 267 297 377
#     4  10  22  38  64 100 122 162 208 274 306 382
#
# _framework density 19.656600000000001
#
# number of rings (size 3 to 8) (size 9 to 14) (size 15 to 20)
#    0.000    0.615    5.385    2.308    2.154    6.154 
#    0.000    0.000    0.000    6.462    0.000    0.000 
#    0.000    0.000    0.000    0.000    0.000    0.000 
#
# Total GULP energy -144961.679929 kJ/mol
# GULP energy per Si atom -5575.449228 kJ/mol
# Density = 1.961186 g / cm^3
# Si number density = 19.656600 Si / 1000 Ang^3
#
#
#
# Elastic Constant Matrix: (Units=GPa)
#
#
# Indices 1 2 3 4 5 6 
#
# 1 79.3981 25.5518 27.7799 0.0000 8.3857 0.0000
# 2 25.5518 109.4340 34.9465 -0.0001 -6.4004 0.0000
# 3 27.7799 34.9465 56.7249 -0.0003 12.6279 0.0001
# 4 0.0000 -0.0001 -0.0003 24.6874 0.0001 5.5536
# 5 8.3857 -6.4004 12.6279 0.0001 28.6634 0.0000
# 6 0.0000 0.0000 0.0001 5.5536 0.0000 29.5191
#
#
#
# Elastic Compliance Matrix: (Units=1/GPa)
#
#
# Indices 1 2 3 4 5 6 
#
# 1 0.015517 -0.001868 -0.005926 0.000000 -0.002346 0.000000
# 2 -0.001868 0.012705 -0.008499 0.000000 0.007128 0.000000
# 3 -0.005926 -0.008499 0.028610 0.000000 -0.012768 0.000000
# 4 0.000000 0.000000 0.000000 0.042297 0.000000 -0.007957
# 5 -0.002346 0.007128 -0.012768 0.000000 0.042791 0.000000
# 6 0.000000 0.000000 0.000000 -0.007957 0.000000 0.035373
#
#
# Mechanical properties :
#
#
# Convention : Reuss Voigt Hill
#
# Bulk Modulus (GPa) = 41.24513 46.90150 44.07332
# Shear Modulus (GPa) = 22.93984 27.05923 24.99954
#
# Velocity S-wave (km/s) = 3.41989 3.71428 3.57012
# Velocity P-wave (km/s) = 6.05166 6.50436 6.28209
#
# Compressibility (1/GPa) = 0.02424529
#
# Stress axis : x y z
#
# Youngs Moduli (GPa) = 64.44497 78.70873 34.95302
#
# Poissons Ratio (x) = 0.14701 0.20714
# Poissons Ratio (y) = 0.12037 0.29708
# Poissons Ratio (z) = 0.38192 0.66897
#
# Static dielectric constant tensor:
#      x y z
#    x 1.711650 0.000000 -0.062440 
#    y 0.000000 1.681830 0.000000 
#    z -0.062440 0.000000 1.540230 
# 
# From -- ./inp_files/252705.got.cif
#   From: 2010.05.17/outbox.cif.g08.bks.cpg/sg15_127_cif.got.tgz:252705.got - 2010.06.03 18:47:42.
