data_PCOD9288069
_publ_section_title
;
Structure prediction by ZEFSAII (Michael W. Deem and Ramdas Pophale) SiO2 
 PCOD9288069
Probable space group: C 2/C
;
_chemical_formula_sum "Si O2"
_cell_formula_units_Z 56
_cell_length_a 13.819739
_cell_length_b 22.465017
_cell_length_c 8.938241
_cell_angle_alpha 90.000000
_cell_angle_beta 74.134151
_cell_angle_gamma 90.000000
_cell_volume 2669.258156
_symmetry_space_group_name_H-M "C 2/C"
_symmetry_group_IT_number 15
_symmetry_cell_setting 'monoclinic'
loop_
_space_group_symop_operation_xyz
x,y,z
-x,y,1/2-z
-x,-y,-z
x,-y,1/2+z
1/2+x,1/2+y,z
1/2-x,1/2+y,1/2-z
1/2-x,1/2-y,-z
1/2+x,1/2-y,1/2+z
loop_
_atom_site_type_symbol
_atom_site_label
_atom_site_fract_x
_atom_site_fract_y
_atom_site_fract_z
Si Si1 0.990432 0.308413 0.410094
Si Si2 0.904588 0.820404 0.886770
Si Si3 0.203501 0.687521 0.973369
Si Si4 0.788753 0.924014 0.821138
Si Si5 0.117984 0.990760 0.432067
Si Si6 0.610115 0.372605 0.275387
Si Si7 0.900880 0.614659 0.213780
O O1 0.104927 0.297505 0.415249
O O2 0.000000 0.343980 0.250000
O O3 0.924547 0.250002 0.394240
O O4 0.938364 0.339959 0.570998
O O5 0.812636 0.854287 0.844737
O O6 0.000000 0.843240 0.750000
O O7 0.900253 0.843130 0.057318
O O8 0.294518 0.654005 0.851152
O O9 0.250000 0.750000 0.000000
O O10 0.162026 0.649285 0.131226
O O11 0.671255 0.930936 0.840306
O O12 0.839678 0.947560 0.648034
O O13 0.831347 0.961583 0.943131
O O14 0.130827 0.941854 0.296404
O O15 0.000000 0.000000 0.500000
O O16 0.500000 0.364643 0.250000
O O17 0.000000 0.588763 0.250000
#
# Coordination Sequence:
#
# PCOD9288069 Si02
#       7
#     8   8   8   8   8   8   8
#     4  10  23  41  65  94 137 172 229 281 328 400
#     4  10  22  38  62  98 131 174 218 272 336 402
#     4  11  24  40  66  96 137 183 222 277 342 408
#     4  11  24  41  71  92 136 174 222 271 352 391
#     4  11  24  42  64 101 135 170 217 289 341 403
#     4  11  23  38  64  96 135 173 224 271 340 415
#     4  10  25  46  66  94 137 181 226 280 333 400
#
# _framework density 20.979611999999999
#
# number of rings (size 3 to 8) (size 9 to 14) (size 15 to 20)
#    0.000    1.429    0.000    4.714   14.000    1.714 
#    0.000    0.714    0.000    0.000    0.000    0.000 
#    0.000    0.000    0.000    0.000    0.000    0.000 
#
# Total GULP energy -156257.872216 kJ/mol
# GULP energy per Si atom -5580.638293 kJ/mol
# Density = 2.093186 g / cm^3
# Si number density = 20.979612 Si / 1000 Ang^3
#
#
#
# Elastic Constant Matrix: (Units=GPa)
#
#
# Indices 1 2 3 4 5 6 
#
# 1 168.9085 38.1023 60.8623 0.0000 9.9344 0.0000
# 2 38.1023 50.9997 21.9855 0.0000 0.2392 0.0000
# 3 60.8623 21.9855 122.1159 0.0000 -8.4429 0.0000
# 4 0.0000 0.0000 0.0000 7.8062 0.0000 -3.3117
# 5 9.9344 0.2392 -8.4429 0.0000 33.5800 0.0000
# 6 0.0000 0.0000 0.0000 -3.3117 0.0000 24.4053
#
#
#
# Elastic Compliance Matrix: (Units=1/GPa)
#
#
# Indices 1 2 3 4 5 6 
#
# 1 0.008498 -0.004777 -0.003609 0.000000 -0.003388 0.000000
# 2 -0.004777 0.023986 -0.001884 0.000000 0.000769 0.000000
# 3 -0.003609 -0.001884 0.010586 0.000000 0.003743 0.000000
# 4 0.000000 0.000000 0.000000 0.135928 0.000000 0.018445
# 5 -0.003388 0.000769 0.003743 0.000000 0.031717 0.000000
# 6 0.000000 0.000000 0.000000 0.018445 0.000000 0.043478
#
#
# Mechanical properties :
#
#
# Convention : Reuss Voigt Hill
#
# Bulk Modulus (GPa) = 44.38956 64.88048 54.63502
# Shear Modulus (GPa) = 17.71524 27.89657 22.80590
#
# Velocity S-wave (km/s) = 2.90901 3.65046 3.30062
# Velocity P-wave (km/s) = 5.69978 6.98287 6.37369
#
# Compressibility (1/GPa) = 0.02252782
#
# Stress axis : x y z
#
# Youngs Moduli (GPa) = 117.67824 41.69178 94.46506
#
# Poissons Ratio (x) = 0.19916 0.34097
# Poissons Ratio (y) = 0.56213 0.17801
# Poissons Ratio (z) = 0.42475 0.07856
#
# Static dielectric constant tensor:
#      x y z
#    x 1.848110 0.000000 0.014360 
#    y 0.000000 1.708890 0.000000 
#    z 0.014360 0.000000 1.766890 
# 
# From -- ./inp_files/42094.got.cif
#   From: 2010.05.17/outbox.cif.g08.bks.cpg/sg15_22_cif.got.tgz:42094.got - 2010.06.03 18:47:42.
