data_PCOD9288945
_publ_section_title
;
Structure prediction by ZEFSAII (Michael W. Deem and Ramdas Pophale) SiO2 
 PCOD9288945
Probable space group: C 2/C
;
_chemical_formula_sum "Si O2"
_cell_formula_units_Z 64
_cell_length_a 12.044984
_cell_length_b 27.064394
_cell_length_c 15.089232
_cell_angle_alpha 90.000000
_cell_angle_beta 139.910676
_cell_angle_gamma 90.000000
_cell_volume 3167.705402
_symmetry_space_group_name_H-M "C 2/C"
_symmetry_group_IT_number 15
_symmetry_cell_setting 'monoclinic'
loop_
_space_group_symop_operation_xyz
x,y,z
-x,y,1/2-z
-x,-y,-z
x,-y,1/2+z
1/2+x,1/2+y,z
1/2-x,1/2+y,1/2-z
1/2-x,1/2-y,-z
1/2+x,1/2-y,1/2+z
loop_
_atom_site_type_symbol
_atom_site_label
_atom_site_fract_x
_atom_site_fract_y
_atom_site_fract_z
Si Si1 0.913358 0.504757 0.851397
Si Si2 0.864704 0.568562 0.095662
Si Si3 0.101510 0.050400 0.077570
Si Si4 0.211937 0.336416 0.572595
Si Si5 0.983694 0.754550 0.474917
Si Si6 0.833205 0.203292 0.709575
Si Si7 0.006842 0.850446 0.900756
Si Si8 0.636200 0.105816 0.607637
O O1 0.763419 0.465637 0.738754
O O2 0.835559 0.559387 0.810040
O O3 0.066174 0.487518 0.879349
O O4 0.000000 0.500000 0.000000
O O5 0.683916 0.567746 0.034877
O O6 0.000000 0.591323 0.250000
O O7 0.859573 0.592445 0.995188
O O8 0.002782 0.095578 0.061670
O O9 0.000000 0.000000 0.000000
O O10 0.125253 0.282597 0.529844
O O11 0.348825 0.344962 0.735042
O O12 0.317409 0.343132 0.546852
O O13 0.054156 0.374130 0.486912
O O14 0.878943 0.763905 0.322039
O O15 0.011454 0.806724 0.539531
O O16 0.164562 0.728042 0.563204
O O17 0.773372 0.149149 0.704155
O O18 0.000000 0.200395 0.750000
#
# Coordination Sequence:
#
# PCOD9288945 Si02
#       8
#     8   8   8   8   8   8   8   8
#     4   9  19  40  62  85 128 172 215 257 316 389
#     4   9  19  39  62  86 130 172 214 262 321 393
#     4  11  25  39  60 100 128 170 217 273 325 380
#     4  10  22  43  67 101 122 178 223 269 331 399
#     4  11  23  46  66  97 135 167 224 271 337 400
#     4  11  25  43  66 100 132 172 213 274 337 400
#     4  11  23  41  69  91 141 171 219 272 331 394
#     4  10  22  39  68  94 128 169 226 268 331 389
#
# _framework density 20.203899
#
# number of rings (size 3 to 8) (size 9 to 14) (size 15 to 20)
#    0.000    1.750    1.250    3.000    5.250    0.000 
#    2.250    0.000    0.000    0.000    0.000    0.000 
#    0.000    0.000    0.000    0.000    0.000    0.000 
#
# Total GULP energy -178605.313622 kJ/mol
# GULP energy per Si atom -5581.416051 kJ/mol
# Density = 2.015791 g / cm^3
# Si number density = 20.203899 Si / 1000 Ang^3
#
#
#
# Elastic Constant Matrix: (Units=GPa)
#
#
# Indices 1 2 3 4 5 6 
#
# 1 91.1762 32.4981 10.0986 0.0000 31.9924 0.0000
# 2 32.4981 116.4100 14.0321 0.0000 16.8426 0.0000
# 3 10.0986 14.0321 36.3886 0.0000 10.0956 0.0000
# 4 0.0000 0.0000 0.0000 32.0327 0.0000 -4.0345
# 5 31.9924 16.8426 10.0956 0.0000 23.1212 0.0000
# 6 0.0000 0.0000 0.0000 -4.0345 0.0000 26.3449
#
#
#
# Elastic Compliance Matrix: (Units=1/GPa)
#
#
# Indices 1 2 3 4 5 6 
#
# 1 0.021994 -0.002141 0.003109 0.000000 -0.030231 0.000000
# 2 -0.002141 0.009941 -0.002335 0.000000 -0.003260 0.000000
# 3 0.003109 -0.002335 0.032133 0.000000 -0.016632 0.000000
# 4 0.000000 0.000000 0.000000 0.031832 0.000000 0.004875
# 5 -0.030231 -0.003260 -0.016632 0.000000 0.094717 0.000000
# 6 0.000000 0.000000 0.000000 0.004875 0.000000 0.038705
#
#
# Mechanical properties :
#
#
# Convention : Reuss Voigt Hill
#
# Bulk Modulus (GPa) = 16.30407 39.69249 27.99828
# Shear Modulus (GPa) = 19.80196 28.78948 24.29572
#
# Velocity S-wave (km/s) = 3.13406 3.77894 3.47151
# Velocity P-wave (km/s) = 4.60258 6.22327 5.47325
#
# Compressibility (1/GPa) = 0.06133440
#
# Stress axis : x y z
#
# Youngs Moduli (GPa) = 45.46678 100.59256 31.12070
#
# Poissons Ratio (x) = 0.21536 -0.09675
# Poissons Ratio (y) = 0.09734 0.07266
# Poissons Ratio (z) = -0.14136 0.23488
#
# Static dielectric constant tensor:
#      x y z
#    x 1.696410 0.000000 0.003270 
#    y 0.000000 1.739080 0.000000 
#    z 0.003270 0.000000 1.731880 
# 
# From -- ./inp_files/148784.got.cif
#   From: 2010.05.17/outbox.cif.g08.bks.cpg/sg15_75_cif.got.tgz:148784.got - 2010.06.03 18:47:42.
