data_PCOD9288922
_publ_section_title
;
Structure prediction by ZEFSAII (Michael W. Deem and Ramdas Pophale) SiO2 
 PCOD9288922
Probable space group: C 2/C
;
_chemical_formula_sum "Si O2"
_cell_formula_units_Z 44
_cell_length_a 12.518242
_cell_length_b 7.354393
_cell_length_c 30.508942
_cell_angle_alpha 90.000000
_cell_angle_beta 41.875619
_cell_angle_gamma 90.000000
_cell_volume 1874.903215
_symmetry_space_group_name_H-M "C 2/C"
_symmetry_group_IT_number 15
_symmetry_cell_setting 'monoclinic'
loop_
_space_group_symop_operation_xyz
x,y,z
-x,y,1/2-z
-x,-y,-z
x,-y,1/2+z
1/2+x,1/2+y,z
1/2-x,1/2+y,1/2-z
1/2-x,1/2-y,-z
1/2+x,1/2-y,1/2+z
loop_
_atom_site_type_symbol
_atom_site_label
_atom_site_fract_x
_atom_site_fract_y
_atom_site_fract_z
Si Si1 0.354015 0.819344 0.652959
Si Si2 0.878622 0.296671 0.109854
Si Si3 0.585565 0.617580 0.647040
Si Si4 0.500000 0.347898 0.750000
Si Si5 0.798362 0.558851 0.006989
Si Si6 0.468035 0.560017 0.960168
O O1 0.452125 0.735317 0.663280
O O2 0.448426 0.742819 0.581419
O O3 0.171274 0.752199 0.703678
O O4 0.353795 0.041234 0.652980
O O5 0.712173 0.266671 0.136393
O O6 0.949506 0.096285 0.095953
O O7 0.018393 0.395308 0.039125
O O8 0.514188 0.473276 0.702618
O O9 0.700101 0.508420 0.578496
O O10 0.722328 0.432552 0.991416
O O11 0.750000 0.750000 0.000000
O O12 0.500000 0.500000 0.000000
#
# Coordination Sequence:
#
# PCOD9288922 Si02
#       6
#     8   8   8   4   8   8
#     4  10  24  46  65  90 135 175 218 284 333 392
#     4  10  22  39  67  96 131 170 204 274 334 393
#     4  10  22  43  65  96 127 172 233 266 335 415
#     4  10  24  48  68  92 136 180 234 288 332 398
#     4   9  20  36  62  97 136 164 203 273 335 398
#     4  10  23  37  63 106 134 167 223 257 338 424
#
# _framework density 23.467877000000001
#
# number of rings (size 3 to 8) (size 9 to 14) (size 15 to 20)
#    0.000    2.182    0.000    0.545   15.273    1.455 
#   22.909    0.909    0.000    0.000    0.000    0.000 
#    0.000    0.000    0.000    0.000    0.000    0.000 
#
# Total GULP energy -122536.890796 kJ/mol
# GULP energy per Si atom -5569.858673 kJ/mol
# Density = 2.341446 g / cm^3
# Si number density = 23.467877 Si / 1000 Ang^3
#
#
#
# Elastic Constant Matrix: (Units=GPa)
#
#
# Indices 1 2 3 4 5 6 
#
# 1 146.2155 26.1171 18.2799 -0.0008 -22.8379 0.0003
# 2 26.1171 99.2440 -16.9531 0.0002 -14.2130 -0.0004
# 3 18.2799 -16.9531 28.0325 -0.0001 -10.8087 -0.0002
# 4 -0.0008 0.0002 -0.0001 21.4199 0.0003 -16.9397
# 5 -22.8379 -14.2130 -10.8087 0.0003 39.9613 -0.0003
# 6 0.0003 -0.0004 -0.0002 -16.9397 -0.0003 10.3272
#
#
#
# Elastic Compliance Matrix: (Units=1/GPa)
#
#
# Indices 1 2 3 4 5 6 
#
# 1 0.008538 -0.003108 -0.006690 0.000000 0.001964 0.000000
# 2 -0.003108 0.014125 0.013198 -0.000002 0.006817 -0.000002
# 3 -0.006690 0.013198 0.053982 -0.000004 0.015472 -0.000004
# 4 0.000000 -0.000002 -0.000004 -0.157076 -0.000002 -0.257653
# 5 0.001964 0.006817 0.015472 -0.000002 0.032756 -0.000002
# 6 0.000000 -0.000002 -0.000004 -0.257653 -0.000002 -0.325796
#
#
# Mechanical properties :
#
#
# Convention : Reuss Voigt Hill
#
# Bulk Modulus (GPa) = 11.98404 36.48663 24.23533
# Shear Modulus (GPa) = -14.18615 30.74489 8.27937
#
# Velocity S-wave (km/s) = -2.46131 3.62343 1.88032
# Velocity P-wave (km/s) = 1.72039 5.75212 3.88119
#
# Compressibility (1/GPa) = 0.08344430
#
# Stress axis : x y z
#
# Youngs Moduli (GPa) = 117.12950 70.79719 18.52460
#
# Poissons Ratio (x) = 0.22005 0.12392
# Poissons Ratio (y) = 0.36406 -0.24448
# Poissons Ratio (z) = 0.78355 -0.93435
#
# Static dielectric constant tensor:
#      x y z
#    x 1.864380 0.000000 0.042650 
#    y 0.000000 1.901380 0.000000 
#    z 0.042650 0.000000 1.889210 
# 
# From -- ./inp_files/309861.got.cif
#   From: 2010.05.17/outbox.cif.g08.bks.cpg/sg15_155_cif.got.tgz:309861.got - 2010.06.03 18:47:42.
