data_PCOD9288875
_publ_section_title
;
Structure prediction by ZEFSAII (Michael W. Deem and Ramdas Pophale) SiO2 
 PCOD9288875
Probable space group: C 2/C
;
_chemical_formula_sum "Si O2"
_cell_formula_units_Z 64
_cell_length_a 12.327931
_cell_length_b 23.211987
_cell_length_c 11.075021
_cell_angle_alpha 90.000000
_cell_angle_beta 72.144602
_cell_angle_gamma 90.000000
_cell_volume 3016.532454
_symmetry_space_group_name_H-M "C 2/C"
_symmetry_group_IT_number 15
_symmetry_cell_setting 'monoclinic'
loop_
_space_group_symop_operation_xyz
x,y,z
-x,y,1/2-z
-x,-y,-z
x,-y,1/2+z
1/2+x,1/2+y,z
1/2-x,1/2+y,1/2-z
1/2-x,1/2-y,-z
1/2+x,1/2-y,1/2+z
loop_
_atom_site_type_symbol
_atom_site_label
_atom_site_fract_x
_atom_site_fract_y
_atom_site_fract_z
Si Si1 0.109283 0.564129 0.379429
Si Si2 0.709534 0.534989 0.369699
Si Si3 0.774534 0.152902 0.447610
Si Si4 0.376761 0.260321 0.737718
Si Si5 0.863969 0.441740 0.023999
Si Si6 0.570861 0.427134 0.332511
Si Si7 0.280016 0.142268 0.748199
Si Si8 0.465749 0.625880 0.092995
O O1 0.171653 0.537980 0.241855
O O2 0.185356 0.616242 0.401378
O O3 0.118567 0.510226 0.467137
O O4 0.977133 0.580706 0.418057
O O5 0.747780 0.559293 0.486407
O O6 0.648793 0.472957 0.379860
O O7 0.620156 0.576805 0.334432
O O8 0.796178 0.213710 0.371608
O O9 0.728686 0.148232 0.601696
O O10 0.905180 0.128955 0.401166
O O11 0.500000 0.242442 0.750000
O O12 0.320602 0.205213 0.695461
O O13 0.406930 0.313198 0.638773
O O14 0.854613 0.406374 0.153205
O O15 0.500000 0.456259 0.250000
O O16 0.654615 0.378223 0.254696
O O17 0.487361 0.394286 0.449988
#
# Coordination Sequence:
#
# PCOD9288875 Si02
#       8
#     8   8   8   8   8   8   8   8
#     4  11  24  40  67  90 137 173 221 268 329 391
#     4  12  23  43  67  95 137 172 215 269 339 400
#     4  10  22  42  67 103 126 169 224 283 325 385
#     4  10  22  41  67  98 129 169 227 280 324 383
#     4  11  25  42  59  99 133 179 219 264 326 409
#     4  11  24  41  67 100 132 172 220 276 334 402
#     4  11  23  42  66  93 134 172 221 272 332 384
#     4  10  22  39  66  97 134 161 216 280 331 385
#
# _framework density 21.216412999999999
#
# number of rings (size 3 to 8) (size 9 to 14) (size 15 to 20)
#    0.000    1.250    2.500    3.375    3.500    0.000 
#    0.000    2.500    0.000    0.000    0.000    0.000 
#    0.000    0.000    0.000    0.000    0.000    0.000 
#
# Total GULP energy -178290.368578 kJ/mol
# GULP energy per Si atom -5571.574018 kJ/mol
# Density = 2.116812 g / cm^3
# Si number density = 21.216413 Si / 1000 Ang^3
#
#
#
# Elastic Constant Matrix: (Units=GPa)
#
#
# Indices 1 2 3 4 5 6 
#
# 1 87.4936 60.3167 21.6934 0.0000 -8.9596 0.0000
# 2 60.3167 114.7792 28.5662 0.0000 -3.9942 0.0000
# 3 21.6934 28.5662 80.4856 0.0000 -11.8374 0.0000
# 4 0.0000 0.0000 0.0000 28.3103 0.0000 1.7337
# 5 -8.9596 -3.9942 -11.8374 0.0000 33.1400 0.0000
# 6 0.0000 0.0000 0.0000 1.7337 0.0000 24.5906
#
#
#
# Elastic Compliance Matrix: (Units=1/GPa)
#
#
# Indices 1 2 3 4 5 6 
#
# 1 0.018488 -0.009303 -0.001172 0.000000 0.003458 0.000000
# 2 -0.009303 0.014238 -0.002811 0.000000 -0.001803 0.000000
# 3 -0.001172 -0.002811 0.014398 0.000000 0.004487 0.000000
# 4 0.000000 0.000000 0.000000 0.035476 0.000000 -0.002501
# 5 0.003458 -0.001803 0.004487 0.000000 0.032495 0.000000
# 6 0.000000 0.000000 0.000000 -0.002501 0.000000 0.040842
#
#
# Mechanical properties :
#
#
# Convention : Reuss Voigt Hill
#
# Bulk Modulus (GPa) = 48.66065 55.99011 52.32538
# Shear Modulus (GPa) = 26.40449 28.68698 27.54574
#
# Velocity S-wave (km/s) = 3.53162 3.68110 3.60713
# Velocity P-wave (km/s) = 6.29404 6.67193 6.48574
#
# Compressibility (1/GPa) = 0.02055048
#
# Stress axis : x y z
#
# Youngs Moduli (GPa) = 54.08998 70.23404 69.45262
#
# Poissons Ratio (x) = 0.65340 0.08143
# Poissons Ratio (y) = 0.50321 0.19524
# Poissons Ratio (z) = 0.06342 0.19744
#
# Static dielectric constant tensor:
#      x y z
#    x 1.796520 0.000000 -0.017330 
#    y 0.000000 1.738770 0.000000 
#    z -0.017330 0.000000 1.918700 
# 
# From -- ./inp_files/91259.got.cif
#   From: 2010.05.17/outbox.cif.g08.bks.cpg/sg15_46_cif.got.tgz:91259.got - 2010.06.03 18:47:42.
