data_PCOD9288314
_publ_section_title
;
Structure prediction by ZEFSAII (Michael W. Deem and Ramdas Pophale) SiO2 
 PCOD9288314
Probable space group: C 2/C
;
_chemical_formula_sum "Si O2"
_cell_formula_units_Z 56
_cell_length_a 21.698756
_cell_length_b 8.706425
_cell_length_c 14.716864
_cell_angle_alpha 90.000000
_cell_angle_beta 112.360421
_cell_angle_gamma 90.000000
_cell_volume 2571.236634
_symmetry_space_group_name_H-M "C 2/C"
_symmetry_group_IT_number 15
_symmetry_cell_setting 'monoclinic'
loop_
_space_group_symop_operation_xyz
x,y,z
-x,y,1/2-z
-x,-y,-z
x,-y,1/2+z
1/2+x,1/2+y,z
1/2-x,1/2+y,1/2-z
1/2-x,1/2-y,-z
1/2+x,1/2-y,1/2+z
loop_
_atom_site_type_symbol
_atom_site_label
_atom_site_fract_x
_atom_site_fract_y
_atom_site_fract_z
Si Si1 0.822798 0.261881 0.934577
Si Si2 0.878300 0.449203 0.563396
Si Si3 0.962931 0.661391 0.958073
Si Si4 0.935279 0.161405 0.874353
Si Si5 0.750000 0.750000 0.000000
Si Si6 0.936202 0.842761 0.778527
Si Si7 0.000000 0.638724 0.250000
Si Si8 0.194536 0.061615 0.403318
O O1 0.862385 0.211463 0.867737
O O2 0.754234 0.353228 0.883555
O O3 0.867397 0.382950 0.016173
O O4 0.808514 0.122016 0.994444
O O5 0.901032 0.339079 0.492589
O O6 0.808223 0.380773 0.555489
O O7 0.939881 0.449865 0.667078
O O8 0.938130 0.690984 0.842535
O O9 0.000000 0.500000 0.000000
O O10 0.015285 0.790975 0.016755
O O11 0.963535 0.256335 0.804774
O O12 0.937588 0.985159 0.849156
O O13 0.792074 0.881093 0.082640
O O14 0.872372 0.880330 0.681894
O O15 0.000000 0.843498 0.750000
#
# Coordination Sequence:
#
# PCOD9288314 Si02
#       8
#     8   8   8   8   4   8   4   8
#     4  10  22  46  68  94 142 182 232 285 366 425
#     4  10  22  42  66 100 134 186 229 293 354 431
#     4  11  24  43  67 100 137 182 231 288 367 419
#     4  11  22  43  65  98 139 182 221 296 353 427
#     4  10  22  42  72  92 138 188 232 280 360 422
#     4  12  26  44  70 105 142 182 242 301 352 431
#     4  10  22  38  68 104 142 172 250 290 356 426
#     4  10  24  45  69 103 134 190 238 290 353 430
#
# _framework density 21.779405000000001
#
# number of rings (size 3 to 8) (size 9 to 14) (size 15 to 20)
#    0.000    1.429    2.143    2.143    4.000    2.286 
#    9.000    1.429    0.000    0.000    0.000    0.000 
#    0.000    0.000    0.000    0.000    0.000    0.000 
#
# Total GULP energy -155971.883562 kJ/mol
# GULP energy per Si atom -5570.424413 kJ/mol
# Density = 2.172983 g / cm^3
# Si number density = 21.779405 Si / 1000 Ang^3
#
#
#
# Elastic Constant Matrix: (Units=GPa)
#
#
# Indices 1 2 3 4 5 6 
#
# 1 120.1470 31.0763 59.4397 0.0000 -1.2637 0.0000
# 2 31.0763 80.1085 41.6028 0.0000 1.7028 0.0000
# 3 59.4397 41.6028 81.7097 0.0000 11.3846 0.0000
# 4 0.0000 0.0000 0.0000 28.6259 0.0000 -7.9319
# 5 -1.2637 1.7028 11.3846 0.0000 33.5807 0.0000
# 6 0.0000 0.0000 0.0000 -7.9319 0.0000 12.2826
#
#
#
# Elastic Compliance Matrix: (Units=1/GPa)
#
#
# Indices 1 2 3 4 5 6 
#
# 1 0.013503 0.000095 -0.010434 0.000000 0.004041 0.000000
# 2 0.000095 0.017123 -0.009096 0.000000 0.002219 0.000000
# 3 -0.010434 -0.009096 0.025663 0.000000 -0.008632 0.000000
# 4 0.000000 0.000000 0.000000 0.042547 0.000000 0.027476
# 5 0.004041 0.002219 -0.008632 0.000000 0.032745 0.000000
# 6 0.000000 0.000000 0.000000 0.027476 0.000000 0.099160
#
#
# Mechanical properties :
#
#
# Convention : Reuss Voigt Hill
#
# Bulk Modulus (GPa) = 57.41331 60.68919 59.05125
# Shear Modulus (GPa) = 18.15425 24.88760 21.52093
#
# Velocity S-wave (km/s) = 2.89026 3.38407 3.14687
# Velocity P-wave (km/s) = 6.12835 6.57230 6.35420
#
# Compressibility (1/GPa) = 0.01741756
#
# Stress axis : x y z
#
# Youngs Moduli (GPa) = 74.05681 58.40022 38.96702
#
# Poissons Ratio (x) = -0.00552 0.40658
# Poissons Ratio (y) = -0.00700 0.35446
# Poissons Ratio (z) = 0.77271 0.53123
#
# Static dielectric constant tensor:
#      x y z
#    x 1.830540 0.000000 -0.001620 
#    y 0.000000 1.794910 0.000000 
#    z -0.001620 0.000000 1.808360 
# 
# From -- ./inp_files/172020.got.cif
#   From: 2010.05.17/outbox.cif.g08.bks.cpg/sg15_87_cif.got.tgz:172020.got - 2010.06.03 18:47:42.
