data_PCOD9288950
_publ_section_title
;
Structure prediction by ZEFSAII (Michael W. Deem and Ramdas Pophale) SiO2 
 PCOD9288950
Probable space group: C 2/C
;
_chemical_formula_sum "Si O2"
_cell_formula_units_Z 48
_cell_length_a 5.269699
_cell_length_b 30.200535
_cell_length_c 14.364887
_cell_angle_alpha 90.000000
_cell_angle_beta 56.142661
_cell_angle_gamma 90.000000
_cell_volume 1898.472444
_symmetry_space_group_name_H-M "C 2/C"
_symmetry_group_IT_number 15
_symmetry_cell_setting 'monoclinic'
loop_
_space_group_symop_operation_xyz
x,y,z
-x,y,1/2-z
-x,-y,-z
x,-y,1/2+z
1/2+x,1/2+y,z
1/2-x,1/2+y,1/2-z
1/2-x,1/2-y,-z
1/2+x,1/2-y,1/2+z
loop_
_atom_site_type_symbol
_atom_site_label
_atom_site_fract_x
_atom_site_fract_y
_atom_site_fract_z
Si Si1 0.844298 0.116320 0.535580
Si Si2 0.125977 0.040798 0.827291
Si Si3 0.587866 0.770700 0.410810
Si Si4 0.500000 0.881945 0.750000
Si Si5 0.375520 0.182367 0.413098
Si Si6 0.500000 0.178666 0.750000
Si Si7 0.538651 0.558073 0.131298
O O1 0.961948 0.077635 0.580265
O O2 0.646923 0.144785 0.647430
O O3 0.714778 0.087665 0.474508
O O4 0.070007 0.154813 0.454447
O O5 0.500000 0.036360 0.750000
O O6 0.000000 0.051734 0.750000
O O7 0.975595 0.993671 0.885391
O O8 0.605158 0.811239 0.480543
O O9 0.824645 0.731936 0.387817
O O10 0.644604 0.787804 0.295560
O O11 0.250000 0.750000 0.500000
O O12 0.386332 0.847563 0.693083
O O13 0.736289 0.916703 0.658086
O O14 0.500000 0.562595 0.250000
#
# Coordination Sequence:
#
# PCOD9288950 Si02
#       7
#     8   8   8   4   8   4   8
#     4  11  24  45  69 107 137 191 236 302 353 436
#     4  11  24  46  74 109 151 196 241 303 369 435
#     4  11  25  45  63  97 135 180 225 290 358 428
#     4  10  22  39  68  96 128 176 236 291 336 434
#     4  10  25  42  67  96 134 180 233 286 364 414
#     4  12  26  41  74  98 142 178 242 287 366 424
#     4  10  23  45  69 101 142 185 238 291 360 427
#
# _framework density 25.283487000000001
#
# number of rings (size 3 to 8) (size 9 to 14) (size 15 to 20)
#    0.000    1.333    3.333    0.500    7.000    0.000 
#    4.500    2.500    0.000    0.000    0.000    0.000 
#    0.000    0.000    0.000    0.000    0.000    0.000 
#
# Total GULP energy -133847.107669 kJ/mol
# GULP energy per Si atom -5576.962820 kJ/mol
# Density = 2.522594 g / cm^3
# Si number density = 25.283487 Si / 1000 Ang^3
#
#
#
# Elastic Constant Matrix: (Units=GPa)
#
#
# Indices 1 2 3 4 5 6 
#
# 1 56.9260 21.6589 30.9374 0.0000 23.8863 0.0000
# 2 21.6589 155.1825 68.2599 0.0000 23.3237 0.0000
# 3 30.9374 68.2599 132.1328 0.0000 36.4385 0.0000
# 4 0.0000 0.0000 0.0000 -81.7273 0.0000 34.6086
# 5 23.8863 23.3237 36.4385 0.0000 48.5338 0.0000
# 6 0.0000 0.0000 0.0000 34.6086 0.0000 15.9065
#
#
#
# Elastic Compliance Matrix: (Units=1/GPa)
#
#
# Indices 1 2 3 4 5 6 
#
# 1 0.023026 -0.000749 -0.002495 0.000000 -0.009099 0.000000
# 2 -0.000749 0.008400 -0.003976 0.000000 -0.000683 0.000000
# 3 -0.002495 -0.003976 0.011780 0.000000 -0.005705 0.000000
# 4 0.000000 0.000000 0.000000 -0.006368 0.000000 0.013856
# 5 -0.009099 -0.000683 -0.005705 0.000000 0.029694 0.000000
# 6 0.000000 0.000000 0.000000 0.013856 0.000000 0.032720
#
#
# Mechanical properties :
#
#
# Convention : Reuss Voigt Hill
#
# Bulk Modulus (GPa) = 34.76293 65.10597 49.93445
# Shear Modulus (GPa) = 40.55835 11.43494 25.99664
#
# Velocity S-wave (km/s) = 4.00952 2.12897 3.21004
# Velocity P-wave (km/s) = 5.93415 5.64355 5.79067
#
# Compressibility (1/GPa) = 0.02876628
#
# Stress axis : x y z
#
# Youngs Moduli (GPa) = 43.42995 119.04745 84.89255
#
# Poissons Ratio (x) = 0.08911 0.21182
# Poissons Ratio (y) = 0.03251 0.33751
# Poissons Ratio (z) = 0.10837 0.47330
#
# Static dielectric constant tensor:
#      x y z
#    x 2.069080 0.000000 -0.105510 
#    y 0.000000 1.961820 0.000000 
#    z -0.105510 0.000000 1.790260 
# 
# From -- ./inp_files/130617.got.cif
#   From: 2010.05.17/outbox.cif.g08.bks.cpg/sg15_66_cif.got.tgz:130617.got - 2010.06.03 18:47:42.
