data_PCOD9288942
_publ_section_title
;
Structure prediction by ZEFSAII (Michael W. Deem and Ramdas Pophale) SiO2 
 PCOD9288942
Probable space group: C 2/C
;
_chemical_formula_sum "Si O2"
_cell_formula_units_Z 52
_cell_length_a 6.283668
_cell_length_b 15.338587
_cell_length_c 24.347814
_cell_angle_alpha 90.000000
_cell_angle_beta 73.037980
_cell_angle_gamma 90.000000
_cell_volume 2244.619783
_symmetry_space_group_name_H-M "C 2/C"
_symmetry_group_IT_number 15
_symmetry_cell_setting 'monoclinic'
loop_
_space_group_symop_operation_xyz
x,y,z
-x,y,1/2-z
-x,-y,-z
x,-y,1/2+z
1/2+x,1/2+y,z
1/2-x,1/2+y,1/2-z
1/2-x,1/2-y,-z
1/2+x,1/2-y,1/2+z
loop_
_atom_site_type_symbol
_atom_site_label
_atom_site_fract_x
_atom_site_fract_y
_atom_site_fract_z
Si Si1 0.015409 0.132973 0.408492
Si Si2 0.182433 0.297844 0.695754
Si Si3 0.935795 0.140692 0.652935
Si Si4 0.000000 0.318007 0.250000
Si Si5 0.852904 0.391357 0.966506
Si Si6 0.688807 0.024283 0.913863
Si Si7 0.681706 0.733674 0.941796
O O1 0.210362 0.127838 0.349851
O O2 0.110797 0.129878 0.462360
O O3 0.904307 0.223766 0.399723
O O4 0.837896 0.057629 0.420187
O O5 0.361293 0.244012 0.718654
O O6 0.000000 0.337073 0.750000
O O7 0.046198 0.229509 0.667982
O O8 0.701589 0.129703 0.703521
O O9 0.873727 0.152044 0.592785
O O10 0.146009 0.073860 0.640312
O O11 0.954261 0.473382 0.924546
O O12 0.986719 0.303149 0.947109
O O13 0.855462 0.414417 0.030347
O O14 0.750000 0.750000 0.000000
#
# Coordination Sequence:
#
# PCOD9288942 Si02
#       7
#     8   8   8   4   8   8   8
#     4  11  21  41  61  90 124 168 202 251 313 372
#     4  10  22  39  68  89 116 162 212 263 309 367
#     4  11  22  41  63  94 122 163 210 261 312 374
#     4  10  22  42  68  90 124 154 216 270 318 366
#     4  10  22  41  57  90 134 167 201 251 307 384
#     4  10  24  37  61  91 131 166 200 249 318 377
#     4  11  23  35  64  96 123 162 211 251 308 378
#
# _framework density 23.166509000000001
#
# number of rings (size 3 to 8) (size 9 to 14) (size 15 to 20)
#    0.000    1.538    3.077    1.385    2.154    4.923 
#    1.385    0.000    5.077    0.000    0.000    0.000 
#    0.000    0.000    0.000    0.000    0.000    0.000 
#
# Total GULP energy -144831.259121 kJ/mol
# GULP energy per Si atom -5570.433043 kJ/mol
# Density = 2.311378 g / cm^3
# Si number density = 23.166509 Si / 1000 Ang^3
#
#
#
# Elastic Constant Matrix: (Units=GPa)
#
#
# Indices 1 2 3 4 5 6 
#
# 1 70.9788 7.3979 13.4341 0.0000 -9.2879 0.0000
# 2 7.3979 11.6639 -9.3275 0.0000 -4.2190 0.0000
# 3 13.4341 -9.3275 84.9546 0.0000 -19.2454 0.0000
# 4 0.0000 0.0000 0.0000 27.6951 0.0000 -10.6317
# 5 -9.2879 -4.2190 -19.2454 0.0000 42.0584 0.0000
# 6 0.0000 0.0000 0.0000 -10.6317 0.0000 14.0517
#
#
#
# Elastic Compliance Matrix: (Units=1/GPa)
#
#
# Indices 1 2 3 4 5 6 
#
# 1 0.016279 -0.013300 -0.003930 0.000000 0.000463 0.000000
# 2 -0.013300 0.115291 0.018649 0.000000 0.017162 0.000000
# 3 -0.003930 0.018649 0.016363 0.000000 0.008491 0.000000
# 4 0.000000 0.000000 0.000000 0.050888 0.000000 0.038503
# 5 0.000463 0.017162 0.008491 0.000000 0.029485 0.000000
# 6 0.000000 0.000000 0.000000 0.038503 0.000000 0.100297
#
#
# Mechanical properties :
#
#
# Convention : Reuss Voigt Hill
#
# Bulk Modulus (GPa) = 6.63253 21.17848 13.90550
# Shear Modulus (GPa) = 13.29701 27.16723 20.23212
#
# Velocity S-wave (km/s) = 2.39838 3.42818 2.95843
# Velocity P-wave (km/s) = 3.24635 4.98313 4.20538
#
# Compressibility (1/GPa) = 0.15077212
#
# Stress axis : x y z
#
# Youngs Moduli (GPa) = 61.42775 8.67368 61.11181
#
# Poissons Ratio (x) = 0.11536 0.24016
# Poissons Ratio (y) = 0.81702 -1.13969
# Poissons Ratio (z) = 0.24140 -0.16176
#
# Static dielectric constant tensor:
#      x y z
#    x 1.921070 0.000000 -0.000840 
#    y 0.000000 1.846980 0.000000 
#    z -0.000840 0.000000 1.984120 
# 
# From -- ./inp_files/285807.got.cif
#   From: 2010.05.17/outbox.cif.g08.bks.cpg/sg15_143_cif.got.tgz:285807.got - 2010.06.03 18:47:42.
