data_PCOD9288722
_publ_section_title
;
Structure prediction by ZEFSAII (Michael W. Deem and Ramdas Pophale) SiO2 
 PCOD9288722
Probable space group: C 2/C
;
_chemical_formula_sum "Si O2"
_cell_formula_units_Z 48
_cell_length_a 5.328902
_cell_length_b 24.764292
_cell_length_c 18.594624
_cell_angle_alpha 90.000000
_cell_angle_beta 90.625519
_cell_angle_gamma 90.000000
_cell_volume 2453.720937
_symmetry_space_group_name_H-M "C 2/C"
_symmetry_group_IT_number 15
_symmetry_cell_setting 'monoclinic'
loop_
_space_group_symop_operation_xyz
x,y,z
-x,y,1/2-z
-x,-y,-z
x,-y,1/2+z
1/2+x,1/2+y,z
1/2-x,1/2+y,1/2-z
1/2-x,1/2-y,-z
1/2+x,1/2-y,1/2+z
loop_
_atom_site_type_symbol
_atom_site_label
_atom_site_fract_x
_atom_site_fract_y
_atom_site_fract_z
Si Si1 0.923225 0.100089 0.331548
Si Si2 0.743617 0.006392 0.795567
Si Si3 0.497523 0.815773 0.037056
Si Si4 0.699316 0.523142 0.443237
Si Si5 0.992622 0.806460 0.941841
Si Si6 0.057330 0.431247 0.419392
O O1 0.000000 0.111285 0.250000
O O2 0.101601 0.063105 0.382231
O O3 0.919140 0.155750 0.374790
O O4 0.700254 0.055802 0.322307
O O5 0.500000 0.022963 0.750000
O O6 0.759819 0.045697 0.864177
O O7 0.000000 0.007130 0.750000
O O8 0.487156 0.757308 0.074695
O O9 0.487082 0.868077 0.087412
O O10 0.257949 0.819604 0.981954
O O11 0.762396 0.815981 0.996118
O O12 0.500000 0.500000 0.500000
O O13 0.880547 0.556826 0.496720
O O14 0.827051 0.471711 0.407375
#
# Coordination Sequence:
#
# PCOD9288722 Si02
#       6
#     8   8   8   8   8   8
#     4  11  22  39  62  89 130 160 203 256 317 367
#     4  11  25  40  57  91 129 166 203 252 323 379
#     4  10  22  39  64  86 119 156 207 256 304 355
#     4  11  21  36  58  96 124 160 207 254 309 379
#     4  10  22  40  59  90 118 158 205 253 303 368
#     4  11  22  35  63  87 125 162 206 259 306 378
#
# _framework density 19.562125999999999
#
# number of rings (size 3 to 8) (size 9 to 14) (size 15 to 20)
#    0.000    1.333    3.333    3.000    2.333    2.667 
#    0.000    0.833    0.000    0.000    0.000    1.167 
#    0.000    0.000    0.000    0.000    0.000    0.000 
#
# Total GULP energy -133771.096953 kJ/mol
# GULP energy per Si atom -5573.795706 kJ/mol
# Density = 1.951760 g / cm^3
# Si number density = 19.562126 Si / 1000 Ang^3
#
#
#
# Elastic Constant Matrix: (Units=GPa)
#
#
# Indices 1 2 3 4 5 6 
#
# 1 77.5741 6.4533 19.6532 0.0000 -4.0815 0.0000
# 2 6.4533 168.6038 55.9299 0.0000 -14.6744 0.0000
# 3 19.6532 55.9299 103.6963 0.0000 3.5754 0.0000
# 4 0.0000 0.0000 0.0000 34.0565 0.0000 5.7650
# 5 -4.0815 -14.6744 3.5754 0.0000 28.4113 0.0000
# 6 0.0000 0.0000 0.0000 5.7650 0.0000 19.4815
#
#
#
# Elastic Compliance Matrix: (Units=1/GPa)
#
#
# Indices 1 2 3 4 5 6 
#
# 1 0.013760 0.000742 -0.003103 0.000000 0.002750 0.000000
# 2 0.000742 0.007810 -0.004516 0.000000 0.004709 0.000000
# 3 -0.003103 -0.004516 0.012819 0.000000 -0.004391 0.000000
# 4 0.000000 0.000000 0.000000 0.030911 0.000000 -0.009147
# 5 0.002750 0.004709 -0.004391 0.000000 0.038577 0.000000
# 6 0.000000 0.000000 0.000000 -0.009147 0.000000 0.054038
#
#
# Mechanical properties :
#
#
# Convention : Reuss Voigt Hill
#
# Bulk Modulus (GPa) = 48.45913 57.10521 52.78217
# Shear Modulus (GPa) = 28.00377 34.24570 31.12474
#
# Velocity S-wave (km/s) = 3.78766 4.18857 3.99315
# Velocity P-wave (km/s) = 6.62980 7.25584 6.94987
#
# Compressibility (1/GPa) = 0.02063595
#
# Stress axis : x y z
#
# Youngs Moduli (GPa) = 72.67437 128.03328 78.01138
#
# Poissons Ratio (x) = -0.09501 0.24207
# Poissons Ratio (y) = -0.05393 0.35227
# Poissons Ratio (z) = 0.22551 0.57816
#
# Static dielectric constant tensor:
#      x y z
#    x 1.778960 0.000000 0.013640 
#    y 0.000000 1.715360 0.000000 
#    z 0.013640 0.000000 1.680400 
# 
# From -- ./inp_files/185233.got.cif
#   From: 2010.05.17/outbox.cif.g08.bks.cpg/sg15_93_cif.got.tgz:185233.got - 2010.06.03 18:47:42.
