data_PCOD9288034
_publ_section_title
;
Structure prediction by ZEFSAII (Michael W. Deem and Ramdas Pophale) SiO2 
 PCOD9288034
Probable space group: C 2/C
;
_chemical_formula_sum "Si O2"
_cell_formula_units_Z 48
_cell_length_a 12.851710
_cell_length_b 19.890822
_cell_length_c 15.465646
_cell_angle_alpha 90.000000
_cell_angle_beta 141.180882
_cell_angle_gamma 90.000000
_cell_volume 2478.305941
_symmetry_space_group_name_H-M "C 2/C"
_symmetry_group_IT_number 15
_symmetry_cell_setting 'monoclinic'
loop_
_space_group_symop_operation_xyz
x,y,z
-x,y,1/2-z
-x,-y,-z
x,-y,1/2+z
1/2+x,1/2+y,z
1/2-x,1/2+y,1/2-z
1/2-x,1/2-y,-z
1/2+x,1/2-y,1/2+z
loop_
_atom_site_type_symbol
_atom_site_label
_atom_site_fract_x
_atom_site_fract_y
_atom_site_fract_z
Si Si1 0.918812 0.413449 0.378775
Si Si2 0.089301 0.728754 0.543810
Si Si3 0.278289 0.049829 0.304187
Si Si4 0.121501 0.667718 0.251369
Si Si5 0.500000 0.400468 0.750000
Si Si6 0.669648 0.692238 0.504561
Si Si7 0.500000 0.881179 0.250000
O O1 0.866213 0.337979 0.371126
O O2 0.781632 0.471490 0.281250
O O3 0.018544 0.417394 0.353183
O O4 0.047040 0.433224 0.536898
O O5 0.248526 0.775803 0.632068
O O6 0.992957 0.702396 0.396710
O O7 0.960470 0.773977 0.515338
O O8 0.277982 0.104958 0.226779
O O9 0.138101 0.060079 0.285470
O O10 0.000000 0.645309 0.250000
O O11 0.415940 0.355927 0.620634
O O12 0.750000 0.750000 0.500000
O O13 0.828152 0.658460 0.652094
#
# Coordination Sequence:
#
# PCOD9288034 Si02
#       7
#     8   8   8   8   4   8   4
#     4  10  22  38  62  90 125 166 202 250 311 377
#     4  11  22  40  62  95 125 161 211 260 311 364
#     4  10  22  43  63  89 124 165 208 250 316 369
#     4  11  23  41  65  88 124 169 210 254 304 377
#     4  12  21  42  64  94 121 164 202 262 318 369
#     4  12  22  34  64  99 128 155 202 264 323 366
#     4  12  21  36  62  98 125 164 204 260 314 375
#
# _framework density 19.368068999999998
#
# number of rings (size 3 to 8) (size 9 to 14) (size 15 to 20)
#    0.000    1.000    5.000    3.000    1.167    0.000 
#    1.500    0.833    7.333    0.000    0.000    0.000 
#    0.000    0.000    0.000    0.000    0.000    0.000 
#
# Total GULP energy -133805.073448 kJ/mol
# GULP energy per Si atom -5575.211394 kJ/mol
# Density = 1.932399 g / cm^3
# Si number density = 19.368069 Si / 1000 Ang^3
#
#
#
# Elastic Constant Matrix: (Units=GPa)
#
#
# Indices 1 2 3 4 5 6 
#
# 1 114.8968 41.7928 -2.5459 0.0000 6.5621 0.0000
# 2 41.7928 91.7708 14.8622 0.0000 17.8602 0.0000
# 3 -2.5459 14.8622 53.4875 -0.0001 0.6740 0.0000
# 4 0.0000 0.0000 -0.0001 15.4442 0.0000 8.8116
# 5 6.5621 17.8602 0.6740 0.0000 25.4206 0.0000
# 6 0.0000 0.0000 0.0000 8.8116 0.0000 1.9834
#
#
#
# Elastic Compliance Matrix: (Units=1/GPa)
#
#
# Indices 1 2 3 4 5 6 
#
# 1 0.010640 -0.005354 0.001982 0.000000 0.000962 0.000000
# 2 -0.005354 0.015965 -0.004569 0.000000 -0.009714 0.000000
# 3 0.001982 -0.004569 0.020032 0.000000 0.002167 0.000000
# 4 0.000000 0.000000 0.000000 -0.042191 0.000000 0.187435
# 5 0.000962 -0.009714 0.002167 0.000000 0.045857 0.000000
# 6 0.000000 0.000000 0.000000 0.187435 0.000000 -0.328519
#
#
# Mechanical properties :
#
#
# Convention : Reuss Voigt Hill
#
# Bulk Modulus (GPa) = 32.51322 40.93037 36.72180
# Shear Modulus (GPa) = -19.83478 22.30605 1.23564
#
# Velocity S-wave (km/s) = -3.20362 3.39734 0.79960
# Velocity P-wave (km/s) = 1.77178 6.04715 4.45574
#
# Compressibility (1/GPa) = 0.03075672
#
# Stress axis : x y z
#
# Youngs Moduli (GPa) = 93.98714 62.63663 49.91905
#
# Poissons Ratio (x) = 0.33533 -0.09893
# Poissons Ratio (y) = 0.50317 0.22806
# Poissons Ratio (z) = -0.18627 0.28616
#
# Static dielectric constant tensor:
#      x y z
#    x 1.680010 0.000000 -0.036090 
#    y 0.000000 2.862680 0.000000 
#    z -0.036090 0.000000 1.708030 
# 
# From -- ./inp_files/57748.got.cif
#   From: 2010.05.17/outbox.cif.g08.bks.cpg/sg15_29_cif.got.tgz:57748.got - 2010.06.03 18:47:42.
