data_PCOD9288991
_publ_section_title
;
Structure prediction by ZEFSAII (Michael W. Deem and Ramdas Pophale) SiO2 
 PCOD9288991
Probable space group: C 2/C
;
_chemical_formula_sum "Si O2"
_cell_formula_units_Z 60
_cell_length_a 8.515096
_cell_length_b 26.295592
_cell_length_c 14.620691
_cell_angle_alpha 90.000000
_cell_angle_beta 67.601891
_cell_angle_gamma 90.000000
_cell_volume 3026.738125
_symmetry_space_group_name_H-M "C 2/C"
_symmetry_group_IT_number 15
_symmetry_cell_setting 'monoclinic'
loop_
_space_group_symop_operation_xyz
x,y,z
-x,y,1/2-z
-x,-y,-z
x,-y,1/2+z
1/2+x,1/2+y,z
1/2-x,1/2+y,1/2-z
1/2-x,1/2-y,-z
1/2+x,1/2-y,1/2+z
loop_
_atom_site_type_symbol
_atom_site_label
_atom_site_fract_x
_atom_site_fract_y
_atom_site_fract_z
Si Si1 0.201068 0.804011 0.687718
Si Si2 0.122434 0.051831 0.579229
Si Si3 0.291704 0.815313 0.291041
Si Si4 0.995443 0.560886 0.993077
Si Si5 0.000000 0.128861 0.750000
Si Si6 0.652995 0.903911 0.782315
Si Si7 0.030123 0.943733 0.887966
Si Si8 0.760079 0.138204 0.503410
O O1 0.231498 0.745555 0.704386
O O2 0.299676 0.844555 0.728395
O O3 0.261532 0.819019 0.570957
O O4 0.000000 0.812811 0.750000
O O5 0.308128 0.071682 0.562490
O O6 0.008073 0.090879 0.660769
O O7 0.107330 0.050469 0.472764
O O8 0.076263 0.993782 0.614415
O O9 0.500000 0.824689 0.250000
O O10 0.218390 0.835586 0.404008
O O11 0.171602 0.838640 0.236544
O O12 0.914965 0.580870 0.104312
O O13 0.883595 0.594209 0.948593
O O14 0.000000 0.500000 0.000000
O O15 0.500000 0.916089 0.750000
O O16 0.820487 0.933983 0.716062
O O17 0.913351 0.894679 0.927163
#
# Coordination Sequence:
#
# PCOD9288991 Si02
#       8
#     8   8   8   8   4   8   8   8
#     4  10  22  39  70  93 123 165 216 273 332 383
#     4  11  24  41  59  94 130 168 214 260 321 391
#     4  11  25  46  64  96 132 172 222 274 332 392
#     4  11  23  38  62  95 129 165 209 260 318 389
#     4  12  26  42  68  94 130 182 218 268 330 394
#     4  11  23  40  64  96 126 165 213 271 321 380
#     4  11  22  41  65  91 127 169 209 263 318 384
#     4  11  21  42  68  91 129 169 213 266 328 385
#
# _framework density 19.823319999999999
#
# number of rings (size 3 to 8) (size 9 to 14) (size 15 to 20)
#    0.000    1.067    5.333    1.200    2.800    0.000 
#    0.000    0.000    0.000    5.600    0.000    0.000 
#    0.000    0.000    0.000    0.000    0.000    0.000 
#
# Total GULP energy -167166.567242 kJ/mol
# GULP energy per Si atom -5572.218908 kJ/mol
# Density = 1.977820 g / cm^3
# Si number density = 19.823320 Si / 1000 Ang^3
#
#
#
# Elastic Constant Matrix: (Units=GPa)
#
#
# Indices 1 2 3 4 5 6 
#
# 1 63.4140 23.2469 5.4467 0.0000 -17.4454 0.0000
# 2 23.2469 112.8127 36.9919 0.0000 -14.3697 0.0000
# 3 5.4467 36.9919 35.0589 0.0000 -11.2356 0.0000
# 4 0.0000 0.0000 0.0000 3.2746 0.0000 29.6242
# 5 -17.4454 -14.3697 -11.2356 0.0000 28.9338 0.0000
# 6 0.0000 0.0000 0.0000 29.6242 0.0000 -1.9845
#
#
#
# Elastic Compliance Matrix: (Units=1/GPa)
#
#
# Indices 1 2 3 4 5 6 
#
# 1 0.020250 -0.004390 0.005369 0.000000 0.012114 0.000000
# 2 -0.004390 0.014551 -0.015081 0.000000 -0.001276 0.000000
# 3 0.005369 -0.015081 0.048242 0.000000 0.014481 0.000000
# 4 0.000000 0.000000 0.000000 0.002245 0.000000 0.033508
# 5 0.012114 -0.001276 0.014481 0.000000 0.046855 0.000000
# 6 0.000000 0.000000 0.000000 0.033508 0.000000 -0.003704
#
#
# Mechanical properties :
#
#
# Convention : Reuss Voigt Hill
#
# Bulk Modulus (GPa) = 18.23513 38.07295 28.15404
# Shear Modulus (GPa) = 28.58380 15.75144 22.16762
#
# Velocity S-wave (km/s) = 3.80139 2.82191 3.34767
# Velocity P-wave (km/s) = 5.33725 5.46492 5.40146
#
# Compressibility (1/GPa) = 0.05483920
#
# Stress axis : x y z
#
# Youngs Moduli (GPa) = 49.38193 68.72209 20.72874
#
# Poissons Ratio (x) = 0.30170 -0.11128
# Poissons Ratio (y) = 0.21680 0.31260
# Poissons Ratio (z) = -0.26511 1.03637
#
# Static dielectric constant tensor:
#      x y z
#    x 1.782470 0.000000 0.005100 
#    y 0.000000 1.710600 0.000000 
#    z 0.005100 0.000000 1.681150 
# 
# From -- ./inp_files/137793.got.cif
#   From: 2010.05.17/outbox.cif.g08.bks.cpg/sg15_69_cif.got.tgz:137793.got - 2010.06.03 18:47:42.
