data_PCOD9288225
_publ_section_title
;
Structure prediction by ZEFSAII (Michael W. Deem and Ramdas Pophale) SiO2 
 PCOD9288225
Probable space group: C 2/C
;
_chemical_formula_sum "Si O2"
_cell_formula_units_Z 48
_cell_length_a 18.301982
_cell_length_b 14.792401
_cell_length_c 9.172628
_cell_angle_alpha 90.000000
_cell_angle_beta 52.806120
_cell_angle_gamma 90.000000
_cell_volume 1978.189425
_symmetry_space_group_name_H-M "C 2/C"
_symmetry_group_IT_number 15
_symmetry_cell_setting 'monoclinic'
loop_
_space_group_symop_operation_xyz
x,y,z
-x,y,1/2-z
-x,-y,-z
x,-y,1/2+z
1/2+x,1/2+y,z
1/2-x,1/2+y,1/2-z
1/2-x,1/2-y,-z
1/2+x,1/2-y,1/2+z
loop_
_atom_site_type_symbol
_atom_site_label
_atom_site_fract_x
_atom_site_fract_y
_atom_site_fract_z
Si Si1 0.604229 0.931884 0.482927
Si Si2 0.450157 0.136964 0.949994
Si Si3 0.593387 0.421194 0.206280
Si Si4 0.848214 0.736548 0.450253
Si Si5 0.250344 0.801591 0.653082
Si Si6 0.796091 0.994214 0.689524
O O1 0.526985 0.882821 0.479319
O O2 0.618497 0.865590 0.601877
O O3 0.577986 0.033505 0.555454
O O4 0.704297 0.946317 0.289173
O O5 0.500000 0.179146 0.750000
O O6 0.355188 0.191388 0.089520
O O7 0.500000 0.458202 0.250000
O O8 0.622650 0.450348 0.331353
O O9 0.590358 0.313213 0.194619
O O10 0.673863 0.454290 0.001085
O O11 0.750000 0.750000 0.500000
O O12 0.824276 0.756648 0.648866
O O13 0.250000 0.750000 0.500000
O O14 0.221232 0.906927 0.686529
#
# Coordination Sequence:
#
# PCOD9288225 Si02
#       6
#     8   8   8   8   8   8
#     4  10  22  39  63  95 128 167 210 264 320 388
#     4  10  22  38  65  95 126 165 216 262 317 382
#     4  11  24  42  64  96 127 169 221 266 321 393
#     4  11  23  40  65  92 129 169 209 258 329 378
#     4  10  23  41  63  95 128 170 212 262 324 382
#     4  10  23  41  68  91 130 172 214 263 330 386
#
# _framework density 24.264613000000001
#
# number of rings (size 3 to 8) (size 9 to 14) (size 15 to 20)
#    0.000    1.667    1.667    1.500    7.000    4.667 
#    0.000    4.167    0.000    0.000    0.000    0.000 
#    0.000    0.000    0.000    0.000    0.000    0.000 
#
# Total GULP energy -134167.687154 kJ/mol
# GULP energy per Si atom -5590.320298 kJ/mol
# Density = 2.420939 g / cm^3
# Si number density = 24.264613 Si / 1000 Ang^3
#
#
#
# Elastic Constant Matrix: (Units=GPa)
#
#
# Indices 1 2 3 4 5 6 
#
# 1 87.2295 34.8962 5.3979 0.0000 -21.3194 0.0000
# 2 34.8962 97.4511 8.0020 0.0000 -2.4242 0.0000
# 3 5.3979 8.0020 27.2517 0.0000 -6.1025 0.0000
# 4 0.0000 0.0000 0.0000 20.1329 0.0000 -1.4345
# 5 -21.3194 -2.4242 -6.1025 0.0000 41.6438 0.0000
# 6 0.0000 0.0000 0.0000 -1.4345 0.0000 44.4135
#
#
#
# Elastic Compliance Matrix: (Units=1/GPa)
#
#
# Indices 1 2 3 4 5 6 
#
# 1 0.015463 -0.005365 0.000223 0.000000 0.007637 0.000000
# 2 -0.005365 0.012378 -0.003128 0.000000 -0.002485 0.000000
# 3 0.000223 -0.003128 0.038828 0.000000 0.005622 0.000000
# 4 0.000000 0.000000 0.000000 0.049785 0.000000 0.001608
# 5 0.007637 -0.002485 0.005622 0.000000 0.028602 0.000000
# 6 0.000000 0.000000 0.000000 0.001608 0.000000 0.022568
#
#
# Mechanical properties :
#
#
# Convention : Reuss Voigt Hill
#
# Bulk Modulus (GPa) = 19.94918 34.28050 27.11484
# Shear Modulus (GPa) = 24.89116 32.14712 28.51914
#
# Velocity S-wave (km/s) = 3.20632 3.64381 3.43204
# Velocity P-wave (km/s) = 4.68473 5.64460 5.18692
#
# Compressibility (1/GPa) = 0.05012736
#
# Stress axis : x y z
#
# Youngs Moduli (GPa) = 64.67001 80.78891 25.75439
#
# Poissons Ratio (x) = 0.43347 -0.00573
# Poissons Ratio (y) = 0.34699 0.08056
# Poissons Ratio (z) = -0.01440 0.25272
#
# Static dielectric constant tensor:
#      x y z
#    x 1.952640 0.000000 0.000430 
#    y 0.000000 1.945200 0.000000 
#    z 0.000430 0.000000 1.974320 
# 
# From -- ./inp_files/106273.got.cif
#   From: 2010.05.17/outbox.cif.g08.bks.cpg/sg15_54_cif.got.tgz:106273.got - 2010.06.03 18:47:42.
