data_PCOD9288454
_publ_section_title
;
Structure prediction by ZEFSAII (Michael W. Deem and Ramdas Pophale) SiO2 
 PCOD9288454
Probable space group: C 2/C
;
_chemical_formula_sum "Si O2"
_cell_formula_units_Z 52
_cell_length_a 6.930311
_cell_length_b 17.207117
_cell_length_c 27.566863
_cell_angle_alpha 90.000000
_cell_angle_beta 125.662333
_cell_angle_gamma 90.000000
_cell_volume 2670.877090
_symmetry_space_group_name_H-M "C 2/C"
_symmetry_group_IT_number 15
_symmetry_cell_setting 'monoclinic'
loop_
_space_group_symop_operation_xyz
x,y,z
-x,y,1/2-z
-x,-y,-z
x,-y,1/2+z
1/2+x,1/2+y,z
1/2-x,1/2+y,1/2-z
1/2-x,1/2-y,-z
1/2+x,1/2-y,1/2+z
loop_
_atom_site_type_symbol
_atom_site_label
_atom_site_fract_x
_atom_site_fract_y
_atom_site_fract_z
Si Si1 0.253277 0.258498 0.305652
Si Si2 0.132621 0.856329 0.412903
Si Si3 0.498796 0.724478 0.058120
Si Si4 0.137058 0.487367 0.571992
Si Si5 0.000000 0.318544 0.750000
Si Si6 0.524163 0.350490 0.848942
Si Si7 0.842449 0.076540 0.475186
O O1 0.386841 0.322984 0.356924
O O2 0.422979 0.232506 0.285833
O O3 0.175971 0.182784 0.326030
O O4 0.000000 0.289082 0.250000
O O5 0.310738 0.785085 0.432724
O O6 0.130655 0.881809 0.468639
O O7 0.241070 0.930104 0.400079
O O8 0.480719 0.719669 0.113103
O O9 0.574106 0.639496 0.051037
O O10 0.250000 0.750000 0.000000
O O11 0.339722 0.422207 0.606231
O O12 0.000000 0.500000 0.500000
O O13 0.923518 0.453857 0.572963
O O14 0.753840 0.364817 0.703794
O O15 0.000000 0.000000 0.500000
#
# Coordination Sequence:
#
# PCOD9288454 Si02
#       7
#     8   8   8   8   4   8   8
#     4  10  22  42  70  94 124 168 221 277 319 378
#     4  11  21  39  60  93 130 166 215 265 319 387
#     4  12  21  34  63  97 127 169 215 264 325 392
#     4  10  22  39  59  93 135 167 204 261 322 396
#     4  10  22  44  70  90 124 170 228 264 334 374
#     4  11  22  41  67  93 129 170 215 262 325 399
#     4  11  22  38  59  93 139 176 206 261 331 393
#
# _framework density 19.469259999999998
#
# number of rings (size 3 to 8) (size 9 to 14) (size 15 to 20)
#    0.000    1.231    1.538    6.923    0.000    0.000 
#    1.385    0.000    5.077    0.000    0.000    0.000 
#    0.000    0.000    0.000    0.000    0.000    0.000 
#
# Total GULP energy -145070.112683 kJ/mol
# GULP energy per Si atom -5579.619719 kJ/mol
# Density = 1.942495 g / cm^3
# Si number density = 19.469260 Si / 1000 Ang^3
#
#
#
# Elastic Constant Matrix: (Units=GPa)
#
#
# Indices 1 2 3 4 5 6 
#
# 1 119.7893 52.5706 41.0447 0.0000 7.3256 0.0000
# 2 52.5706 106.8326 33.8980 0.0000 16.0668 0.0000
# 3 41.0447 33.8980 85.1501 0.0000 25.4029 0.0000
# 4 0.0000 0.0000 0.0000 28.5693 0.0000 8.9726
# 5 7.3256 16.0668 25.4029 0.0000 50.7783 0.0000
# 6 0.0000 0.0000 0.0000 8.9726 0.0000 41.7185
#
#
#
# Elastic Compliance Matrix: (Units=1/GPa)
#
#
# Indices 1 2 3 4 5 6 
#
# 1 0.011804 -0.004709 -0.004410 0.000000 0.001993 0.000000
# 2 -0.004709 0.012687 -0.002099 0.000000 -0.002285 0.000000
# 3 -0.004410 -0.002099 0.016829 0.000000 -0.007119 0.000000
# 4 0.000000 0.000000 0.000000 0.037538 0.000000 -0.008074
# 5 0.001993 -0.002285 -0.007119 0.000000 0.023690 0.000000
# 6 0.000000 0.000000 0.000000 -0.008074 0.000000 0.025707
#
#
# Mechanical properties :
#
#
# Convention : Reuss Voigt Hill
#
# Bulk Modulus (GPa) = 52.95456 62.97762 57.96609
# Shear Modulus (GPa) = 31.85011 36.49714 34.17363
#
# Velocity S-wave (km/s) = 4.04904 4.33437 4.19413
# Velocity P-wave (km/s) = 7.00840 7.58066 7.30014
#
# Compressibility (1/GPa) = 0.01888412
#
# Stress axis : x y z
#
# Youngs Moduli (GPa) = 84.72016 78.81860 59.42135
#
# Poissons Ratio (x) = 0.37115 0.26203
# Poissons Ratio (y) = 0.39894 0.12475
# Poissons Ratio (z) = 0.37359 0.16547
#
# Static dielectric constant tensor:
#      x y z
#    x 1.702620 0.000000 -0.010650 
#    y 0.000000 1.655830 0.000000 
#    z -0.010650 0.000000 1.711060 
# 
# From -- ./inp_files/286142.got.cif
#   From: 2010.05.17/outbox.cif.g08.bks.cpg/sg15_144_cif.got.tgz:286142.got - 2010.06.03 18:47:42.
