data_PCOD9288967
_publ_section_title
;
Structure prediction by ZEFSAII (Michael W. Deem and Ramdas Pophale) SiO2 
 PCOD9288967
Probable space group: C 2/C
;
_chemical_formula_sum "Si O2"
_cell_formula_units_Z 40
_cell_length_a 10.933201
_cell_length_b 29.764968
_cell_length_c 5.912355
_cell_angle_alpha 90.000000
_cell_angle_beta 65.894658
_cell_angle_gamma 90.000000
_cell_volume 1756.252810
_symmetry_space_group_name_H-M "C 2/C"
_symmetry_group_IT_number 15
_symmetry_cell_setting 'monoclinic'
loop_
_space_group_symop_operation_xyz
x,y,z
-x,y,1/2-z
-x,-y,-z
x,-y,1/2+z
1/2+x,1/2+y,z
1/2-x,1/2+y,1/2-z
1/2-x,1/2-y,-z
1/2+x,1/2-y,1/2+z
loop_
_atom_site_type_symbol
_atom_site_label
_atom_site_fract_x
_atom_site_fract_y
_atom_site_fract_z
Si Si1 0.886708 0.264153 0.013351
Si Si2 0.859992 0.821331 0.764706
Si Si3 0.654007 0.606545 0.566722
Si Si4 0.136085 0.359637 0.260418
Si Si5 0.843162 0.015598 0.134190
O O1 0.000000 0.250503 0.750000
O O2 0.750000 0.250000 0.000000
O O3 0.878184 0.231801 0.236702
O O4 0.905484 0.316162 0.059066
O O5 0.842783 0.843399 0.533177
O O6 0.000000 0.840730 0.750000
O O7 0.735809 0.837481 0.003218
O O8 0.500000 0.597582 0.750000
O O9 0.769248 0.606361 0.670015
O O10 0.678164 0.569212 0.357723
O O11 0.000000 0.377975 0.250000
O O12 0.791869 0.999195 0.419874
O O13 0.000000 0.000000 0.000000
#
# Coordination Sequence:
#
# PCOD9288967 Si02
#       5
#     8   8   8   8   8
#     4  12  23  43  63  89 136 185 234 287 350 406
#     4  12  24  40  69  95 129 177 240 295 338 404
#     4  12  24  42  69 103 135 173 233 296 341 425
#     4  12  27  43  65  96 140 186 231 285 361 424
#     4  10  22  39  69 106 144 177 224 299 371 422
#
# _framework density 22.775763999999999
#
# number of rings (size 3 to 8) (size 9 to 14) (size 15 to 20)
#    0.000    0.400    6.000    4.200    5.600    0.000 
#    0.000    0.000    0.000    1.200    0.000    0.000 
#    0.000    0.000    0.000    0.000    0.000    0.000 
#
# Total GULP energy -111603.737871 kJ/mol
# GULP energy per Si atom -5580.186894 kJ/mol
# Density = 2.272392 g / cm^3
# Si number density = 22.775764 Si / 1000 Ang^3
#
#
#
# Elastic Constant Matrix: (Units=GPa)
#
#
# Indices 1 2 3 4 5 6 
#
# 1 174.1106 13.4779 30.7791 0.0000 6.9790 0.0000
# 2 13.4779 82.2073 1.8315 0.0000 10.3383 0.0000
# 3 30.7791 1.8315 84.0091 0.0000 -5.5069 0.0000
# 4 0.0000 0.0000 0.0000 13.5456 0.0000 9.6104
# 5 6.9790 10.3383 -5.5069 0.0000 39.6830 0.0000
# 6 0.0000 0.0000 0.0000 9.6104 0.0000 9.1806
#
#
#
# Elastic Compliance Matrix: (Units=1/GPa)
#
#
# Indices 1 2 3 4 5 6 
#
# 1 0.006273 -0.000823 -0.002360 0.000000 -0.001216 0.000000
# 2 -0.000823 0.012705 -0.000185 0.000000 -0.003191 0.000000
# 3 -0.002360 -0.000185 0.012920 0.000000 0.002256 0.000000
# 4 0.000000 0.000000 0.000000 0.286912 0.000000 -0.300341
# 5 -0.001216 -0.003191 0.002256 0.000000 0.026558 0.000000
# 6 0.000000 0.000000 0.000000 -0.300341 0.000000 0.423324
#
#
# Mechanical properties :
#
#
# Convention : Reuss Voigt Hill
#
# Bulk Modulus (GPa) = 39.74166 48.05599 43.89882
# Shear Modulus (GPa) = 6.37906 32.09775 19.23841
#
# Velocity S-wave (km/s) = 1.67538 3.75813 2.90950
# Velocity P-wave (km/s) = 4.60755 6.32272 5.53201
#
# Compressibility (1/GPa) = 0.02516251
#
# Stress axis : x y z
#
# Youngs Moduli (GPa) = 159.40930 78.71124 77.39884
#
# Poissons Ratio (x) = 0.06477 0.18267
# Poissons Ratio (y) = 0.13118 0.01429
# Poissons Ratio (z) = 0.37623 0.01453
#
# Static dielectric constant tensor:
#      x y z
#    x 1.947010 0.000000 0.131610 
#    y 0.000000 1.846740 0.000000 
#    z 0.131610 0.000000 1.938250 
# 
# From -- ./inp_files/5702.got.cif
#   From: 2010.05.17/outbox.cif.g08.bks.cpg/sg15_3_cif.got.tgz:5702.got - 2010.06.03 18:47:42.
