data_PCOD9288756
_publ_section_title
;
Structure prediction by ZEFSAII (Michael W. Deem and Ramdas Pophale) SiO2 
 PCOD9288756
Probable space group: C 2/C
;
_chemical_formula_sum "Si O2"
_cell_formula_units_Z 52
_cell_length_a 21.847812
_cell_length_b 14.950540
_cell_length_c 7.597529
_cell_angle_alpha 90.000000
_cell_angle_beta 98.727083
_cell_angle_gamma 90.000000
_cell_volume 2452.899309
_symmetry_space_group_name_H-M "C 2/C"
_symmetry_group_IT_number 15
_symmetry_cell_setting 'monoclinic'
loop_
_space_group_symop_operation_xyz
x,y,z
-x,y,1/2-z
-x,-y,-z
x,-y,1/2+z
1/2+x,1/2+y,z
1/2-x,1/2+y,1/2-z
1/2-x,1/2-y,-z
1/2+x,1/2-y,1/2+z
loop_
_atom_site_type_symbol
_atom_site_label
_atom_site_fract_x
_atom_site_fract_y
_atom_site_fract_z
Si Si1 0.726692 0.417590 0.598889
Si Si2 0.755712 0.874292 0.299412
Si Si3 0.919606 0.092063 0.397061
Si Si4 0.500000 0.002544 0.250000
Si Si5 0.944128 0.628622 0.508343
Si Si6 0.000000 0.776438 0.750000
Si Si7 0.187772 0.305545 0.595398
Si Si8 0.000000 0.939154 0.250000
O O1 0.747707 0.385004 0.413412
O O2 0.737826 0.524297 0.626835
O O3 0.652698 0.408197 0.594422
O O4 0.763006 0.358734 0.760412
O O5 0.809079 0.800445 0.363026
O O6 0.702649 0.827790 0.396585
O O7 0.940205 0.164361 0.263724
O O8 0.959730 0.111745 0.588849
O O9 0.949218 0.000419 0.331767
O O10 0.482745 0.069187 0.394904
O O11 0.557071 0.936345 0.320687
O O12 0.879174 0.654580 0.400646
O O13 0.982092 0.714739 0.580412
#
# Coordination Sequence:
#
# PCOD9288756 Si02
#       8
#     8   8   8   4   8   4   8   4
#     4  12  24  45  70 101 134 185 222 281 338 410
#     4  11  26  43  65 104 137 177 229 265 351 394
#     4  10  22  39  64  93 132 167 221 261 323 402
#     4   9  22  44  68  95 120 170 228 267 332 405
#     4  10  23  44  67  94 128 168 218 279 334 395
#     4  10  24  40  62  96 130 172 212 276 334 385
#     4  11  27  45  69 101 139 178 222 289 334 405
#     4   9  20  38  58  91 124 178 210 255 310 382
#
# _framework density 21.199403
#
# number of rings (size 3 to 8) (size 9 to 14) (size 15 to 20)
#    0.000    1.538    1.538    1.385    6.462    5.538 
#    5.538    0.000    0.000    0.000    0.000    0.000 
#    0.000    0.000    0.000    0.000    0.000    0.000 
#
# Total GULP energy -144999.540556 kJ/mol
# GULP energy per Si atom -5576.905406 kJ/mol
# Density = 2.115115 g / cm^3
# Si number density = 21.199403 Si / 1000 Ang^3
#
#
#
# Elastic Constant Matrix: (Units=GPa)
#
#
# Indices 1 2 3 4 5 6 
#
# 1 54.9867 11.0010 21.3745 0.0000 12.8388 0.0000
# 2 11.0010 101.7637 25.2753 0.0000 4.8872 0.0000
# 3 21.3745 25.2753 74.9090 0.0000 -9.5971 0.0000
# 4 0.0000 0.0000 0.0000 93.1736 0.0000 19.1126
# 5 12.8388 4.8872 -9.5971 0.0000 30.7217 0.0000
# 6 0.0000 0.0000 0.0000 19.1126 0.0000 27.4483
#
#
#
# Elastic Compliance Matrix: (Units=1/GPa)
#
#
# Indices 1 2 3 4 5 6 
#
# 1 0.024596 0.000136 -0.008733 0.000000 -0.013029 0.000000
# 2 0.000136 0.010990 -0.004144 0.000000 -0.003100 0.000000
# 3 -0.008733 -0.004144 0.018534 0.000000 0.010099 0.000000
# 4 0.000000 0.000000 0.000000 0.012521 0.000000 -0.008719
# 5 -0.013029 -0.003100 0.010099 0.000000 0.041643 0.000000
# 6 0.000000 0.000000 0.000000 -0.008719 0.000000 0.042503
#
#
# Mechanical properties :
#
#
# Convention : Reuss Voigt Hill
#
# Bulk Modulus (GPa) = 34.92028 38.55124 36.73576
# Shear Modulus (GPa) = 26.90848 41.86926 34.38887
#
# Velocity S-wave (km/s) = 3.56659 4.44894 4.03198
# Velocity P-wave (km/s) = 5.78523 6.67947 6.24837
#
# Compressibility (1/GPa) = 0.02863666
#
# Stress axis : x y z
#
# Youngs Moduli (GPa) = 40.65724 90.99057 53.95614
#
# Poissons Ratio (x) = -0.01236 0.47121
# Poissons Ratio (y) = -0.00552 0.22360
# Poissons Ratio (z) = 0.35507 0.37708
#
# Static dielectric constant tensor:
#      x y z
#    x 1.748980 0.000000 0.019980 
#    y 0.000000 1.765620 0.000000 
#    z 0.019980 0.000000 1.989110 
# 
# From -- ./inp_files/55397.got.cif
#   From: 2010.05.17/outbox.cif.g08.bks.cpg/sg15_28_cif.got.tgz:55397.got - 2010.06.03 18:47:42.
