data_PCOD9288016
_publ_section_title
;
Structure prediction by ZEFSAII (Michael W. Deem and Ramdas Pophale) SiO2 
 PCOD9288016
Probable space group: C 2/C
;
_chemical_formula_sum "Si O2"
_cell_formula_units_Z 56
_cell_length_a 21.008466
_cell_length_b 11.690294
_cell_length_c 12.196877
_cell_angle_alpha 90.000000
_cell_angle_beta 93.706920
_cell_angle_gamma 90.000000
_cell_volume 2989.226642
_symmetry_space_group_name_H-M "C 2/C"
_symmetry_group_IT_number 15
_symmetry_cell_setting 'monoclinic'
loop_
_space_group_symop_operation_xyz
x,y,z
-x,y,1/2-z
-x,-y,-z
x,-y,1/2+z
1/2+x,1/2+y,z
1/2-x,1/2+y,1/2-z
1/2-x,1/2-y,-z
1/2+x,1/2-y,1/2+z
loop_
_atom_site_type_symbol
_atom_site_label
_atom_site_fract_x
_atom_site_fract_y
_atom_site_fract_z
Si Si1 0.289366 0.209510 0.715640
Si Si2 0.317634 0.200148 0.966759
Si Si3 0.312674 0.046604 0.510859
Si Si4 0.040236 0.090863 0.648539
Si Si5 0.648431 0.249455 0.122078
Si Si6 0.584226 0.595613 0.995027
Si Si7 0.328720 0.412838 0.585147
O O1 0.309187 0.171686 0.837477
O O2 0.307064 0.118429 0.622836
O O3 0.213367 0.231735 0.697178
O O4 0.322103 0.330926 0.688743
O O5 0.250000 0.250000 0.000000
O O6 0.371713 0.295228 0.985505
O O7 0.334608 0.082464 0.029643
O O8 0.352263 0.121661 0.427091
O O9 0.241065 0.039408 0.452759
O O10 0.087529 0.197020 0.674351
O O11 0.000000 0.060257 0.750000
O O12 0.987099 0.123535 0.551646
O O13 0.078037 0.982639 0.603173
O O14 0.655597 0.327675 0.013767
O O15 0.619683 0.512596 0.911054
#
# Coordination Sequence:
#
# PCOD9288016 Si02
#       7
#     8   8   8   8   8   8   8
#     4   9  20  35  61  84 115 161 185 234 309 348
#     4  12  24  35  55  95 125 142 190 254 296 348
#     4   9  18  37  56  84 120 153 187 239 299 355
#     4  10  22  38  62  81 115 164 198 236 282 346
#     4   8  17  36  59  82 109 157 204 226 280 357
#     4  10  22  39  55  92 121 144 196 251 284 337
#     4   8  15  35  59  80 115 149 190 235 291 354
#
# _framework density 18.733941999999999
#
# number of rings (size 3 to 8) (size 9 to 14) (size 15 to 20)
#    0.000    2.571    1.429    1.714    4.000    2.286 
#    0.000    0.714    0.000    0.857    0.000    0.000 
#    0.000    0.000    0.000    0.000    0.000    0.000 
#
# Total GULP energy -156166.291538 kJ/mol
# GULP energy per Si atom -5577.367555 kJ/mol
# Density = 1.869130 g / cm^3
# Si number density = 18.733942 Si / 1000 Ang^3
#
#
#
# Elastic Constant Matrix: (Units=GPa)
#
#
# Indices 1 2 3 4 5 6 
#
# 1 72.6223 59.5577 11.9999 0.0000 -9.5385 0.0000
# 2 59.5577 134.0955 21.6570 0.0000 -9.1487 0.0000
# 3 11.9999 21.6570 47.0017 0.0000 -6.8959 0.0000
# 4 0.0000 0.0000 0.0000 14.2185 0.0000 -0.6349
# 5 -9.5385 -9.1487 -6.8959 0.0000 22.0277 0.0000
# 6 0.0000 0.0000 0.0000 -0.6349 0.0000 31.9409
#
#
#
# Elastic Compliance Matrix: (Units=1/GPa)
#
#
# Indices 1 2 3 4 5 6 
#
# 1 0.022348 -0.009460 -0.000528 0.000000 0.005583 0.000000
# 2 -0.009460 0.012173 -0.003200 0.000000 -0.000042 0.000000
# 3 -0.000528 -0.003200 0.023747 0.000000 0.005877 0.000000
# 4 0.000000 0.000000 0.000000 0.070393 0.000000 0.001399
# 5 0.005583 -0.000042 0.005877 0.000000 0.049637 0.000000
# 6 0.000000 0.000000 0.000000 0.001399 0.000000 0.031336
#
#
# Mechanical properties :
#
#
# Convention : Reuss Voigt Hill
#
# Bulk Modulus (GPa) = 31.35442 48.90539 40.12991
# Shear Modulus (GPa) = 20.27243 24.33775 22.30509
#
# Velocity S-wave (km/s) = 3.29313 3.60825 3.45429
# Velocity P-wave (km/s) = 5.58862 6.59706 6.11367
#
# Compressibility (1/GPa) = 0.03189343
#
# Stress axis : x y z
#
# Youngs Moduli (GPa) = 44.74608 82.15068 42.11026
#
# Poissons Ratio (x) = 0.77712 0.02223
# Poissons Ratio (y) = 0.42328 0.13475
# Poissons Ratio (z) = 0.02362 0.26287
#
# Static dielectric constant tensor:
#      x y z
#    x 1.658110 0.000000 -0.019100 
#    y 0.000000 1.668250 0.000000 
#    z -0.019100 0.000000 1.677310 
# 
# From -- ./inp_files/111088.got.cif
#   From: 2010.05.17/outbox.cif.g08.bks.cpg/sg15_56_cif.got.tgz:111088.got - 2010.06.03 18:47:42.
