data_PCOD9288954
_publ_section_title
;
Structure prediction by ZEFSAII (Michael W. Deem and Ramdas Pophale) SiO2 
 PCOD9288954
Probable space group: C 2/C
;
_chemical_formula_sum "Si O2"
_cell_formula_units_Z 52
_cell_length_a 29.666936
_cell_length_b 8.837717
_cell_length_c 14.960725
_cell_angle_alpha 90.000000
_cell_angle_beta 39.341734
_cell_angle_gamma 90.000000
_cell_volume 2486.660937
_symmetry_space_group_name_H-M "C 2/C"
_symmetry_group_IT_number 15
_symmetry_cell_setting 'monoclinic'
loop_
_space_group_symop_operation_xyz
x,y,z
-x,y,1/2-z
-x,-y,-z
x,-y,1/2+z
1/2+x,1/2+y,z
1/2-x,1/2+y,1/2-z
1/2-x,1/2-y,-z
1/2+x,1/2-y,1/2+z
loop_
_atom_site_type_symbol
_atom_site_label
_atom_site_fract_x
_atom_site_fract_y
_atom_site_fract_z
Si Si1 0.744064 0.506805 0.004189
Si Si2 0.806848 0.086551 0.735749
Si Si3 0.457920 0.441305 0.478869
Si Si4 0.307566 0.930345 0.714248
Si Si5 0.941736 0.619952 0.556992
Si Si6 0.868941 0.271477 0.350828
Si Si7 0.000000 0.846893 0.750000
O O1 0.713758 0.400629 0.128238
O O2 0.680103 0.622611 0.079591
O O3 0.772144 0.444273 0.867262
O O4 0.810730 0.595456 0.946943
O O5 0.820079 0.253736 0.677605
O O6 0.875478 0.981285 0.619800
O O7 0.744973 0.006148 0.775445
O O8 0.500000 0.500000 0.500000
O O9 0.468710 0.260578 0.456330
O O10 0.483576 0.541547 0.357102
O O11 0.379836 0.025307 0.604985
O O12 0.908325 0.698032 0.696449
O O13 0.000000 0.500000 0.500000
O O14 0.930886 0.251277 0.328692
#
# Coordination Sequence:
#
# PCOD9288954 Si02
#       7
#     8   8   8   8   8   8   4
#     4  10  22  44  65  94 139 168 221 265 342 380
#     4  12  24  42  70  98 133 174 222 270 333 393
#     4  12  24  43  69  97 133 177 217 274 332 395
#     4  11  26  40  67 101 132 174 221 276 324 397
#     4  11  23  45  65  97 135 178 221 270 333 389
#     4  10  22  39  68  97 131 175 212 279 323 395
#     4  12  24  40  70 102 130 168 232 262 340 390
#
# _framework density 20.911577000000001
#
# number of rings (size 3 to 8) (size 9 to 14) (size 15 to 20)
#    0.000    0.923    3.077    3.231    6.462    0.000 
#    0.000    8.462    0.000    0.000    0.000    0.000 
#    0.000    0.000    0.000    0.000    0.000    0.000 
#
# Total GULP energy -145399.959643 kJ/mol
# GULP energy per Si atom -5592.306140 kJ/mol
# Density = 2.086398 g / cm^3
# Si number density = 20.911577 Si / 1000 Ang^3
#
#
#
# Elastic Constant Matrix: (Units=GPa)
#
#
# Indices 1 2 3 4 5 6 
#
# 1 115.8626 -0.4125 22.9971 0.0000 -21.0601 0.0000
# 2 -0.4125 66.9597 -8.8096 -0.0001 -8.1066 0.0000
# 3 22.9971 -8.8096 47.8210 0.0000 -5.5483 0.0000
# 4 0.0000 -0.0001 0.0000 20.0751 0.0000 2.1544
# 5 -21.0601 -8.1066 -5.5483 0.0000 41.3514 0.0000
# 6 0.0000 0.0000 0.0000 2.1544 0.0000 34.9804
#
#
#
# Elastic Compliance Matrix: (Units=1/GPa)
#
#
# Indices 1 2 3 4 5 6 
#
# 1 0.010364 0.000049 -0.004430 0.000000 0.004693 0.000000
# 2 0.000049 0.015801 0.003301 0.000000 0.003566 0.000000
# 3 -0.004430 0.003301 0.023834 0.000000 0.001589 0.000000
# 4 0.000000 0.000000 0.000000 0.050144 0.000000 -0.003088
# 5 0.004693 0.003566 0.001589 0.000000 0.027485 0.000000
# 6 0.000000 0.000000 0.000000 -0.003088 0.000000 0.028778
#
#
# Mechanical properties :
#
#
# Convention : Reuss Voigt Hill
#
# Bulk Modulus (GPa) = 20.90393 28.68815 24.79604
# Shear Modulus (GPa) = 28.65131 33.73928 31.19530
#
# Velocity S-wave (km/s) = 3.70552 4.02111 3.86654
# Velocity P-wave (km/s) = 5.32221 5.94202 5.64064
#
# Compressibility (1/GPa) = 0.04783790
#
# Stress axis : x y z
#
# Youngs Moduli (GPa) = 96.49228 63.28876 41.95649
#
# Poissons Ratio (x) = -0.00311 0.18588
# Poissons Ratio (y) = -0.00475 -0.13849
# Poissons Ratio (z) = 0.42748 -0.20890
#
# Static dielectric constant tensor:
#      x y z
#    x 1.693030 0.000000 0.030220 
#    y 0.000000 1.729710 0.000000 
#    z 0.030220 0.000000 1.762350 
# 
# From -- ./inp_files/181069.got.cif
#   From: 2010.05.17/outbox.cif.g08.bks.cpg/sg15_91_cif.got.tgz:181069.got - 2010.06.03 18:47:42.
