data_PCOD9288865
_publ_section_title
;
Structure prediction by ZEFSAII (Michael W. Deem and Ramdas Pophale) SiO2 
 PCOD9288865
Probable space group: C 2/C
;
_chemical_formula_sum "Si O2"
_cell_formula_units_Z 64
_cell_length_a 11.227611
_cell_length_b 13.014818
_cell_length_c 17.388283
_cell_angle_alpha 90.000000
_cell_angle_beta 92.560620
_cell_angle_gamma 90.000000
_cell_volume 2538.331283
_symmetry_space_group_name_H-M "C 2/C"
_symmetry_group_IT_number 15
_symmetry_cell_setting 'monoclinic'
loop_
_space_group_symop_operation_xyz
x,y,z
-x,y,1/2-z
-x,-y,-z
x,-y,1/2+z
1/2+x,1/2+y,z
1/2-x,1/2+y,1/2-z
1/2-x,1/2-y,-z
1/2+x,1/2-y,1/2+z
loop_
_atom_site_type_symbol
_atom_site_label
_atom_site_fract_x
_atom_site_fract_y
_atom_site_fract_z
Si Si1 0.855100 0.562113 0.560102
Si Si2 0.916513 0.979843 0.571798
Si Si3 0.164207 0.729642 0.223479
Si Si4 0.015267 0.641272 0.082689
Si Si5 0.134136 0.949443 0.163725
Si Si6 0.672124 0.339046 0.668209
Si Si7 0.358228 0.675293 0.511243
Si Si8 0.915342 0.767962 0.644702
O O1 0.883474 0.597473 0.473600
O O2 0.720250 0.567126 0.590818
O O3 0.916594 0.654336 0.609535
O O4 0.916472 0.450913 0.577558
O O5 0.999588 0.984123 0.356687
O O6 0.888640 0.861331 0.583564
O O7 0.825269 0.073685 0.558914
O O8 0.000000 0.000000 0.500000
O O9 0.075718 0.662911 0.167916
O O10 0.130086 0.846186 0.210049
O O11 0.198689 0.710752 0.313340
O O12 0.299467 0.722016 0.194886
O O13 0.964507 0.751163 0.047352
O O14 0.188086 0.048691 0.206702
O O15 0.639854 0.358977 0.577908
O O16 0.547500 0.283688 0.682044
O O17 0.250000 0.750000 0.500000
#
# Coordination Sequence:
#
# PCOD9288865 Si02
#       8
#     8   8   8   8   8   8   8   8
#     4  10  22  39  66  96 127 163 211 267 316 374
#     4  11  20  38  69  94 122 160 219 264 306 373
#     4  11  25  40  66  93 132 168 214 265 322 385
#     4  11  23  39  64  99 133 160 218 266 320 379
#     4  10  22  41  66  90 124 172 212 260 317 378
#     4  11  23  44  63  93 132 169 215 261 323 389
#     4  12  24  42  68  95 130 170 214 266 333 375
#     4  10  22  41  67  96 124 169 216 263 319 374
#
# _framework density 25.213415000000001
#
# number of rings (size 3 to 8) (size 9 to 14) (size 15 to 20)
#    0.000    1.250    5.000    1.125    1.750    3.000 
#    2.250    3.750    0.000    0.000    0.000    0.000 
#    0.000    0.000    0.000    0.000    0.000    0.000 
#
# Total GULP energy -178420.339512 kJ/mol
# GULP energy per Si atom -5575.635610 kJ/mol
# Density = 2.515603 g / cm^3
# Si number density = 25.213415 Si / 1000 Ang^3
#
#
#
# Elastic Constant Matrix: (Units=GPa)
#
#
# Indices 1 2 3 4 5 6 
#
# 1 80.2068 15.3607 29.4379 0.0000 18.3258 0.0000
# 2 15.3607 154.9515 35.8811 0.0000 14.3933 0.0000
# 3 29.4379 35.8811 81.4665 0.0000 28.3950 0.0000
# 4 0.0000 0.0000 0.0000 28.6588 0.0000 0.7447
# 5 18.3258 14.3933 28.3950 0.0000 41.3958 0.0000
# 6 0.0000 0.0000 0.0000 0.7447 0.0000 33.6140
#
#
#
# Elastic Compliance Matrix: (Units=1/GPa)
#
#
# Indices 1 2 3 4 5 6 
#
# 1 0.014820 -0.000204 -0.003947 0.000000 -0.003782 0.000000
# 2 -0.000204 0.007195 -0.002963 0.000000 -0.000379 0.000000
# 3 -0.003947 -0.002963 0.018449 0.000000 -0.009877 0.000000
# 4 0.000000 0.000000 0.000000 0.034913 0.000000 -0.000774
# 5 -0.003782 -0.000379 -0.009877 0.000000 0.032738 0.000000
# 6 0.000000 0.000000 0.000000 -0.000774 0.000000 0.029767
#
#
# Mechanical properties :
#
#
# Convention : Reuss Voigt Hill
#
# Bulk Modulus (GPa) = 38.11600 53.10936 45.61268
# Shear Modulus (GPa) = 31.08372 36.46341 33.77356
#
# Velocity S-wave (km/s) = 3.51497 3.80701 3.66390
# Velocity P-wave (km/s) = 5.62348 6.35878 6.00240
#
# Compressibility (1/GPa) = 0.02623570
#
# Stress axis : x y z
#
# Youngs Moduli (GPa) = 67.47807 138.98082 54.20312
#
# Poissons Ratio (x) = 0.02832 0.21394
# Poissons Ratio (y) = 0.01375 0.16062
# Poissons Ratio (z) = 0.26633 0.41185
#
# Static dielectric constant tensor:
#      x y z
#    x 2.203740 0.000000 -0.125360 
#    y 0.000000 2.123790 0.000000 
#    z -0.125360 0.000000 2.305510 
# 
# From -- ./inp_files/243744.got.cif
#   From: 2010.05.17/outbox.cif.g08.bks.cpg/sg15_122_cif.got.tgz:243744.got - 2010.06.03 18:47:42.
