data_PCOD9288150
_publ_section_title
;
Structure prediction by ZEFSAII (Michael W. Deem and Ramdas Pophale) SiO2 
 PCOD9288150
Probable space group: C 2/C
;
_chemical_formula_sum "Si O2"
_cell_formula_units_Z 60
_cell_length_a 9.979425
_cell_length_b 21.198629
_cell_length_c 24.005918
_cell_angle_alpha 90.000000
_cell_angle_beta 138.676673
_cell_angle_gamma 90.000000
_cell_volume 3353.341832
_symmetry_space_group_name_H-M "C 2/C"
_symmetry_group_IT_number 15
_symmetry_cell_setting 'monoclinic'
loop_
_space_group_symop_operation_xyz
x,y,z
-x,y,1/2-z
-x,-y,-z
x,-y,1/2+z
1/2+x,1/2+y,z
1/2-x,1/2+y,1/2-z
1/2-x,1/2-y,-z
1/2+x,1/2-y,1/2+z
loop_
_atom_site_type_symbol
_atom_site_label
_atom_site_fract_x
_atom_site_fract_y
_atom_site_fract_z
Si Si1 0.208318 0.347931 0.231414
Si Si2 0.056762 0.224449 0.328910
Si Si3 0.123969 0.874475 0.944318
Si Si4 0.433642 0.495545 0.415392
Si Si5 0.407670 0.846038 0.427225
Si Si6 0.605433 0.364068 0.425034
Si Si7 0.000000 0.552953 0.750000
Si Si8 0.487583 0.284759 0.490131
O O1 0.212456 0.360876 0.166878
O O2 0.427882 0.341532 0.327767
O O3 0.085452 0.401500 0.227605
O O4 0.086417 0.283184 0.201335
O O5 0.039390 0.170264 0.369254
O O6 0.284702 0.252632 0.401916
O O7 0.000000 0.201341 0.250000
O O8 0.023627 0.942926 0.913344
O O9 0.366422 0.872366 0.011788
O O10 0.078345 0.840508 0.988915
O O11 0.500000 0.500000 0.500000
O O12 0.532203 0.431450 0.423754
O O13 0.191543 0.487380 0.331371
O O14 0.306282 0.871634 0.451506
O O15 0.415643 0.770674 0.442290
O O16 0.615173 0.315391 0.479760
#
# Coordination Sequence:
#
# PCOD9288150 Si02
#       8
#     8   8   8   8   8   8   4   8
#     4  11  18  35  61  85 114 145 197 249 294 339
#     4  11  18  34  60  87 112 150 195 242 295 351
#     4  11  22  37  60  86 118 158 197 234 295 360
#     4  11  22  41  64  85 119 162 204 241 289 360
#     4  11  22  36  56  91 121 147 188 252 304 343
#     4  11  23  36  58  90 118 152 199 246 293 348
#     4  10  22  38  64  94 108 150 216 252 276 352
#     4  11  19  36  60  86 115 148 201 247 284 357
#
# _framework density 17.892599000000001
#
# number of rings (size 3 to 8) (size 9 to 14) (size 15 to 20)
#    0.000    1.067    6.000    3.200    0.000    0.533 
#    0.000    6.667    0.000    0.000    0.000    0.000 
#    0.000    0.000    0.000    0.000    0.000    0.000 
#
# Total GULP energy -167486.758217 kJ/mol
# GULP energy per Si atom -5582.891941 kJ/mol
# Density = 1.785187 g / cm^3
# Si number density = 17.892599 Si / 1000 Ang^3
#
#
#
# Elastic Constant Matrix: (Units=GPa)
#
#
# Indices 1 2 3 4 5 6 
#
# 1 95.7363 21.3442 33.4533 0.0000 -15.1516 0.0000
# 2 21.3442 78.8060 31.6594 0.0000 -2.4349 -0.0001
# 3 33.4533 31.6594 85.8218 0.0001 -21.6907 -0.0001
# 4 0.0000 0.0000 0.0001 27.1244 0.0001 -4.4638
# 5 -15.1516 -2.4349 -21.6907 0.0001 23.3759 -0.0001
# 6 0.0000 -0.0001 -0.0001 -4.4638 -0.0001 16.0275
#
#
#
# Elastic Compliance Matrix: (Units=1/GPa)
#
#
# Indices 1 2 3 4 5 6 
#
# 1 0.012770 -0.002165 -0.002801 0.000000 0.005452 0.000000
# 2 -0.002165 0.015659 -0.006369 0.000000 -0.005682 0.000000
# 3 -0.002801 -0.006369 0.018899 0.000000 0.015058 0.000000
# 4 0.000000 0.000000 0.000000 0.038638 0.000000 0.010761
# 5 0.005452 -0.005682 0.015058 0.000000 0.059693 0.000000
# 6 0.000000 0.000000 0.000000 0.010761 0.000000 0.065390
#
#
# Mechanical properties :
#
#
# Convention : Reuss Voigt Hill
#
# Bulk Modulus (GPa) = 40.55396 48.14197 44.34796
# Shear Modulus (GPa) = 20.66656 24.89938 22.78297
#
# Velocity S-wave (km/s) = 3.40227 3.73447 3.57223
# Velocity P-wave (km/s) = 6.17643 6.74977 6.46946
#
# Compressibility (1/GPa) = 0.02465850
#
# Stress axis : x y z
#
# Youngs Moduli (GPa) = 78.31060 63.86235 52.91319
#
# Poissons Ratio (x) = 0.13825 0.14821
# Poissons Ratio (y) = 0.16953 0.33698
# Poissons Ratio (z) = 0.21934 0.40671
#
# Static dielectric constant tensor:
#      x y z
#    x 1.621730 0.000000 -0.002930 
#    y 0.000000 1.598570 0.000000 
#    z -0.002930 0.000000 1.622930 
# 
# From -- ./inp_files/192117.got.cif
#   From: 2010.05.17/outbox.cif.g08.bks.cpg/sg15_97_cif.got.tgz:192117.got - 2010.06.03 18:47:42.
