data_PCOD9288177
_publ_section_title
;
Structure prediction by ZEFSAII (Michael W. Deem and Ramdas Pophale) SiO2 
 PCOD9288177
Probable space group: C 2/C
;
_chemical_formula_sum "Si O2"
_cell_formula_units_Z 56
_cell_length_a 19.170340
_cell_length_b 5.065174
_cell_length_c 28.469185
_cell_angle_alpha 90.000000
_cell_angle_beta 113.676496
_cell_angle_gamma 90.000000
_cell_volume 2531.703568
_symmetry_space_group_name_H-M "C 2/C"
_symmetry_group_IT_number 15
_symmetry_cell_setting 'monoclinic'
loop_
_space_group_symop_operation_xyz
x,y,z
-x,y,1/2-z
-x,-y,-z
x,-y,1/2+z
1/2+x,1/2+y,z
1/2-x,1/2+y,1/2-z
1/2-x,1/2-y,-z
1/2+x,1/2-y,1/2+z
loop_
_atom_site_type_symbol
_atom_site_label
_atom_site_fract_x
_atom_site_fract_y
_atom_site_fract_z
Si Si1 0.364520 0.054319 0.308271
Si Si2 0.827975 0.821008 0.883704
Si Si3 0.161027 0.211411 0.383347
Si Si4 0.284391 0.843078 0.199295
Si Si5 0.479807 0.002784 0.111120
Si Si6 0.763777 0.720069 0.058154
Si Si7 0.515039 0.481669 0.059417
O O1 0.356531 0.876339 0.352261
O O2 0.346151 0.904927 0.255176
O O3 0.453165 0.121404 0.336998
O O4 0.292764 0.250771 0.294736
O O5 0.808354 0.701610 0.928872
O O6 0.748509 0.915016 0.839749
O O7 0.892925 0.043152 0.907738
O O8 0.180850 0.173051 0.333685
O O9 0.083744 0.371960 0.372492
O O10 0.220161 0.414675 0.424453
O O11 0.170283 0.924989 0.408991
O O12 0.495903 0.754465 0.080654
O O13 0.469699 0.244273 0.071858
O O14 0.750000 0.750000 0.000000
O O15 0.500000 0.500000 0.000000
#
# Coordination Sequence:
#
# PCOD9288177 Si02
#       7
#     8   8   8   8   8   8   8
#     4  11  21  40  67  93 130 169 222 278 339 391
#     4  10  22  38  64  96 126 170 225 282 312 404
#     4  11  25  43  64  96 136 171 218 276 333 414
#     4  11  21  40  67  93 130 169 222 278 339 391
#     4  11  25  43  64  96 136 171 218 276 333 414
#     4  11  24  42  65  93 132 178 222 269 334 395
#     4  11  24  42  65  93 132 178 222 269 334 395
#
# _framework density 22.119494
#
# number of rings (size 3 to 8) (size 9 to 14) (size 15 to 20)
#    0.000    1.143    4.286    1.714    4.000    0.571 
#    0.000    0.000    0.000    3.429    0.000    0.000 
#    0.000    0.000    0.000    0.000    0.000    0.000 
#
# Total GULP energy -156013.574147 kJ/mol
# GULP energy per Si atom -5571.913362 kJ/mol
# Density = 2.206915 g / cm^3
# Si number density = 22.119494 Si / 1000 Ang^3
#
#
#
# Elastic Constant Matrix: (Units=GPa)
#
#
# Indices 1 2 3 4 5 6 
#
# 1 67.5225 5.3643 23.0746 0.0001 -12.0346 -0.0006
# 2 5.3643 88.9449 17.0712 0.0001 -6.9918 -0.0017
# 3 23.0746 17.0712 99.5458 -0.0001 -18.2274 0.0007
# 4 0.0001 0.0001 -0.0001 20.3582 0.0000 -0.8570
# 5 -12.0346 -6.9918 -18.2274 0.0000 25.7653 0.0001
# 6 -0.0006 -0.0017 0.0007 -0.8570 0.0001 30.4475
#
#
#
# Elastic Compliance Matrix: (Units=1/GPa)
#
#
# Indices 1 2 3 4 5 6 
#
# 1 0.016820 -0.000012 -0.002825 0.000000 0.005855 0.000000
# 2 -0.000012 0.011716 -0.001637 0.000000 0.002015 0.000001
# 3 -0.002825 -0.001637 0.012244 0.000000 0.006898 0.000000
# 4 0.000000 0.000000 0.000000 0.049179 0.000000 0.001384
# 5 0.005855 0.002015 0.006898 0.000000 0.046974 0.000000
# 6 0.000000 0.000001 0.000000 0.001384 0.000000 0.032882
#
#
# Mechanical properties :
#
#
# Convention : Reuss Voigt Hill
#
# Bulk Modulus (GPa) = 31.41493 38.55927 34.98710
# Shear Modulus (GPa) = 26.40278 29.34772 27.87525
#
# Velocity S-wave (km/s) = 3.45866 3.64645 3.55380
# Velocity P-wave (km/s) = 5.49391 5.93287 5.71760
#
# Compressibility (1/GPa) = 0.03183199
#
# Stress axis : x y z
#
# Youngs Moduli (GPa) = 59.45442 85.35093 81.67041
#
# Poissons Ratio (x) = 0.00103 0.23069
# Poissons Ratio (y) = 0.00072 0.13373
# Poissons Ratio (z) = 0.16794 0.13976
#
# Static dielectric constant tensor:
#      x y z
#    x 1.939450 0.000000 -0.337610 
#    y 0.000000 1.870730 0.000010 
#    z -0.337610 0.000010 0.465200 
# 
# From -- ./inp_files/278984.got.cif
#   From: 2010.05.17/outbox.cif.g08.bks.cpg/sg15_140_cif.got.tgz:278984.got - 2010.06.03 18:47:42.
