data_PCOD9288067
_publ_section_title
;
Structure prediction by ZEFSAII (Michael W. Deem and Ramdas Pophale) SiO2 
 PCOD9288067
Probable space group: C 2/C
;
_chemical_formula_sum "Si O2"
_cell_formula_units_Z 52
_cell_length_a 16.186546
_cell_length_b 8.367360
_cell_length_c 17.786334
_cell_angle_alpha 90.000000
_cell_angle_beta 72.912120
_cell_angle_gamma 90.000000
_cell_volume 2302.614249
_symmetry_space_group_name_H-M "C 2/C"
_symmetry_group_IT_number 15
_symmetry_cell_setting 'monoclinic'
loop_
_space_group_symop_operation_xyz
x,y,z
-x,y,1/2-z
-x,-y,-z
x,-y,1/2+z
1/2+x,1/2+y,z
1/2-x,1/2+y,1/2-z
1/2-x,1/2-y,-z
1/2+x,1/2-y,1/2+z
loop_
_atom_site_type_symbol
_atom_site_label
_atom_site_fract_x
_atom_site_fract_y
_atom_site_fract_z
Si Si1 0.466809 0.021172 0.114215
Si Si2 0.096978 0.210315 0.619314
Si Si3 0.182505 0.805684 0.699142
Si Si4 0.798287 0.047786 0.473434
Si Si5 0.885281 0.357320 0.486959
Si Si6 0.675573 0.061863 0.223465
Si Si7 0.000000 0.958540 0.750000
O O1 0.534449 0.165392 0.097010
O O2 0.409574 0.033706 0.202910
O O3 0.529598 0.869491 0.087401
O O4 0.407990 0.051917 0.057523
O O5 0.151099 0.305429 0.668283
O O6 0.158849 0.123329 0.543662
O O7 0.036307 0.076790 0.675445
O O8 0.200444 0.885571 0.613216
O O9 0.247915 0.875006 0.743630
O O10 0.196295 0.616109 0.689868
O O11 0.084036 0.852622 0.747009
O O12 0.855479 0.174669 0.504174
O O13 0.699161 0.056121 0.523766
#
# Coordination Sequence:
#
# PCOD9288067 Si02
#       7
#     8   8   8   8   8   8   4
#     4  11  23  41  63  92 128 169 212 261 306 387
#     4  11  23  40  66  94 131 155 213 264 324 366
#     4  11  24  39  65  94 128 163 211 260 332 368
#     4  10  22  43  64  92 125 170 214 263 306 380
#     4  10  23  42  65  85 127 176 216 249 309 372
#     4  12  24  41  65  98 128 169 203 272 327 378
#     4  10  22  38  62  98 120 160 198 264 322 384
#
# _framework density 22.583026
#
# number of rings (size 3 to 8) (size 9 to 14) (size 15 to 20)
#    0.000    1.231    3.077    2.769    6.462    1.231 
#    0.000    0.000    0.000    0.000    0.000    0.000 
#    0.000    0.000    0.000    0.000    0.000    0.000 
#
# Total GULP energy -145454.691073 kJ/mol
# GULP energy per Si atom -5594.411195 kJ/mol
# Density = 2.253163 g / cm^3
# Si number density = 22.583026 Si / 1000 Ang^3
#
#
#
# Elastic Constant Matrix: (Units=GPa)
#
#
# Indices 1 2 3 4 5 6 
#
# 1 125.6352 41.0390 18.5897 0.0000 -5.3901 0.0000
# 2 41.0390 70.2271 9.0476 0.0000 2.3834 0.0000
# 3 18.5897 9.0476 40.6992 0.0000 -5.7567 0.0000
# 4 0.0000 0.0000 0.0000 28.9067 0.0000 -6.0291
# 5 -5.3901 2.3834 -5.7567 0.0000 15.8928 0.0000
# 6 0.0000 0.0000 0.0000 -6.0291 0.0000 42.4174
#
#
#
# Elastic Compliance Matrix: (Units=1/GPa)
#
#
# Indices 1 2 3 4 5 6 
#
# 1 0.010453 -0.005834 -0.003006 0.000000 0.003331 0.000000
# 2 -0.005834 0.018109 -0.002134 0.000000 -0.005468 0.000000
# 3 -0.003006 -0.002134 0.027740 0.000000 0.009349 0.000000
# 4 0.000000 0.000000 0.000000 0.035651 0.000000 0.005067
# 5 0.003331 -0.005468 0.009349 0.000000 0.068258 0.000000
# 6 0.000000 0.000000 0.000000 0.005067 0.000000 0.024295
#
#
# Mechanical properties :
#
#
# Convention : Reuss Voigt Hill
#
# Bulk Modulus (GPa) = 29.10947 41.54599 35.32773
# Shear Modulus (GPa) = 22.94547 28.63574 25.79060
#
# Velocity S-wave (km/s) = 3.19101 3.56479 3.38307
# Velocity P-wave (km/s) = 5.14730 5.94816 5.56216
#
# Compressibility (1/GPa) = 0.03435308
#
# Stress axis : x y z
#
# Youngs Moduli (GPa) = 95.66558 55.21976 36.04843
#
# Poissons Ratio (x) = 0.32217 0.10837
# Poissons Ratio (y) = 0.55814 0.07694
# Poissons Ratio (z) = 0.28760 0.11786
#
# Static dielectric constant tensor:
#      x y z
#    x 1.820110 0.000000 -0.034640 
#    y 0.000000 1.838330 0.000000 
#    z -0.034640 0.000000 1.863180 
# 
# From -- ./inp_files/242407.got.cif
#   From: 2010.05.17/outbox.cif.g08.bks.cpg/sg15_122_cif.got.tgz:242407.got - 2010.06.03 18:47:42.
