data_PCOD9288357
_publ_section_title
;
Structure prediction by ZEFSAII (Michael W. Deem and Ramdas Pophale) SiO2 
 PCOD9288357
Probable space group: C 2/C
;
_chemical_formula_sum "Si O2"
_cell_formula_units_Z 52
_cell_length_a 18.845171
_cell_length_b 6.774675
_cell_length_c 19.274689
_cell_angle_alpha 90.000000
_cell_angle_beta 85.768494
_cell_angle_gamma 90.000000
_cell_volume 2454.089786
_symmetry_space_group_name_H-M "C 2/C"
_symmetry_group_IT_number 15
_symmetry_cell_setting 'monoclinic'
loop_
_space_group_symop_operation_xyz
x,y,z
-x,y,1/2-z
-x,-y,-z
x,-y,1/2+z
1/2+x,1/2+y,z
1/2-x,1/2+y,1/2-z
1/2-x,1/2-y,-z
1/2+x,1/2-y,1/2+z
loop_
_atom_site_type_symbol
_atom_site_label
_atom_site_fract_x
_atom_site_fract_y
_atom_site_fract_z
Si Si1 0.500000 0.027594 0.750000
Si Si2 0.059055 0.823615 0.157130
Si Si3 0.295180 0.466840 0.811797
Si Si4 0.288037 0.142539 0.932624
Si Si5 0.945974 0.508251 0.941185
Si Si6 0.457071 0.686568 0.151625
Si Si7 0.202528 0.834160 0.849432
O O1 0.555923 0.178948 0.779535
O O2 0.456312 0.873425 0.798525
O O3 0.130486 0.922572 0.178576
O O4 0.062116 0.720290 0.082317
O O5 0.995102 0.980234 0.164760
O O6 0.293835 0.283258 0.864453
O O7 0.232304 0.613576 0.839719
O O8 0.289878 0.421512 0.729891
O O9 0.366165 0.084935 0.953897
O O10 0.246931 0.953888 0.903745
O O11 0.250000 0.250000 0.000000
O O12 0.986137 0.672574 0.890522
O O13 0.000000 0.500000 0.000000
O O14 0.380452 0.658071 0.123898
#
# Coordination Sequence:
#
# PCOD9288357 Si02
#       7
#     4   8   8   8   8   8   8
#     4  10  22  38  70 102 140 172 234 294 360 424
#     4  11  23  44  70 101 143 185 235 301 362 424
#     4  12  25  46  74 107 150 189 241 303 371 432
#     4  12  29  50  73 107 152 194 245 302 367 440
#     4  11  27  48  70 100 142 194 247 297 357 444
#     4  11  25  42  71 105 138 184 241 295 361 427
#     4  12  27  44  75 110 145 192 241 304 369 434
#
# _framework density 21.189119999999999
#
# number of rings (size 3 to 8) (size 9 to 14) (size 15 to 20)
#    0.000    0.615    4.615    2.308    8.615    3.692 
#    0.000    0.000    0.000    0.000    0.000    0.000 
#    0.000    0.000    0.000    0.000    0.000    0.000 
#
# Total GULP energy -145125.543336 kJ/mol
# GULP energy per Si atom -5581.751667 kJ/mol
# Density = 2.114089 g / cm^3
# Si number density = 21.189120 Si / 1000 Ang^3
#
#
#
# Elastic Constant Matrix: (Units=GPa)
#
#
# Indices 1 2 3 4 5 6 
#
# 1 148.8320 40.1410 21.4105 0.0000 11.1134 0.0000
# 2 40.1410 104.6173 14.1895 0.0000 3.8556 0.0000
# 3 21.4105 14.1895 40.6637 0.0000 14.9647 0.0000
# 4 0.0000 0.0000 0.0000 9.9822 0.0000 -4.6334
# 5 11.1134 3.8556 14.9647 0.0000 30.1632 0.0000
# 6 0.0000 0.0000 0.0000 -4.6334 0.0000 28.3640
#
#
#
# Elastic Compliance Matrix: (Units=1/GPa)
#
#
# Indices 1 2 3 4 5 6 
#
# 1 0.007918 -0.002612 -0.002822 0.000000 -0.001183 0.000000
# 2 -0.002612 0.010903 -0.002778 0.000000 0.000947 0.000000
# 3 -0.002822 -0.002778 0.032461 0.000000 -0.014710 0.000000
# 4 0.000000 0.000000 0.000000 0.108398 0.000000 0.017707
# 5 -0.001183 0.000947 -0.014710 0.000000 0.040766 0.000000
# 6 0.000000 0.000000 0.000000 0.017707 0.000000 0.038149
#
#
# Mechanical properties :
#
#
# Convention : Reuss Voigt Hill
#
# Bulk Modulus (GPa) = 28.68795 49.51056 39.09926
# Shear Modulus (GPa) = 18.75222 28.26000 23.50611
#
# Velocity S-wave (km/s) = 2.97811 3.65595 3.33430
# Velocity P-wave (km/s) = 5.03924 6.42169 5.77200
#
# Compressibility (1/GPa) = 0.03485784
#
# Stress axis : x y z
#
# Youngs Moduli (GPa) = 126.29956 91.72154 30.80664
#
# Poissons Ratio (x) = 0.23954 0.08694
# Poissons Ratio (y) = 0.32984 0.08557
# Poissons Ratio (z) = 0.35643 0.25478
#
# Static dielectric constant tensor:
#      x y z
#    x 1.691300 0.000000 0.063620 
#    y 0.000000 1.762290 0.000000 
#    z 0.063620 0.000000 1.862950 
# 
# From -- ./inp_files/251069.got.cif
#   From: 2010.05.17/outbox.cif.g08.bks.cpg/sg15_126_cif.got.tgz:251069.got - 2010.06.03 18:47:42.
