data_PCOD9288828
_publ_section_title
;
Structure prediction by ZEFSAII (Michael W. Deem and Ramdas Pophale) SiO2 
 PCOD9288828
Probable space group: C 2/C
;
_chemical_formula_sum "Si O2"
_cell_formula_units_Z 56
_cell_length_a 21.992852
_cell_length_b 5.578956
_cell_length_c 21.418051
_cell_angle_alpha 90.000000
_cell_angle_beta 61.244088
_cell_angle_gamma 90.000000
_cell_volume 2303.849520
_symmetry_space_group_name_H-M "C 2/C"
_symmetry_group_IT_number 15
_symmetry_cell_setting 'monoclinic'
loop_
_space_group_symop_operation_xyz
x,y,z
-x,y,1/2-z
-x,-y,-z
x,-y,1/2+z
1/2+x,1/2+y,z
1/2-x,1/2+y,1/2-z
1/2-x,1/2-y,-z
1/2+x,1/2-y,1/2+z
loop_
_atom_site_type_symbol
_atom_site_label
_atom_site_fract_x
_atom_site_fract_y
_atom_site_fract_z
Si Si1 0.450079 0.402589 0.970805
Si Si2 0.830485 0.723794 0.679561
Si Si3 0.827174 0.421291 0.561019
Si Si4 0.832703 0.780916 0.227003
Si Si5 0.455180 0.839404 0.335069
Si Si6 0.179437 0.048777 0.138578
Si Si7 0.131681 0.285997 0.567006
O O1 0.477958 0.271745 0.892182
O O2 0.404214 0.616236 0.965564
O O3 0.500000 0.500000 0.000000
O O4 0.396740 0.227910 0.032637
O O5 0.829327 0.639263 0.608861
O O6 0.859891 0.991150 0.673639
O O7 0.750459 0.746646 0.742052
O O8 0.861238 0.487611 0.700239
O O9 0.751554 0.310214 0.611364
O O10 0.832198 0.500238 0.487222
O O11 0.839646 0.888739 0.292349
O O12 0.500000 0.819741 0.250000
O O13 0.384045 0.709497 0.350346
O O14 0.431535 0.110640 0.360649
O O15 0.186347 0.856998 0.080319
#
# Coordination Sequence:
#
# PCOD9288828 Si02
#       7
#     8   8   8   8   8   8   8
#     4  10  24  46  68  97 135 181 237 290 356 427
#     4   9  19  35  56  89 136 178 224 277 346 423
#     4  10  22  39  66 100 136 176 224 290 358 428
#     4   9  19  35  56  90 133 180 224 277 345 424
#     4  10  24  45  66  98 135 182 238 287 354 429
#     4  10  22  40  66  97 137 176 224 289 359 423
#     4  10  23  41  65  95 133 173 233 284 356 427
#
# _framework density 24.307141999999999
#
# number of rings (size 3 to 8) (size 9 to 14) (size 15 to 20)
#    0.000    2.286    0.000    0.429    4.000   12.000 
#    2.571    0.000    0.000    0.000    0.000    0.000 
#    0.000    0.000    0.000    0.000    0.000    0.000 
#
# Total GULP energy -156251.319988 kJ/mol
# GULP energy per Si atom -5580.404285 kJ/mol
# Density = 2.425182 g / cm^3
# Si number density = 24.307142 Si / 1000 Ang^3
#
#
#
# Elastic Constant Matrix: (Units=GPa)
#
#
# Indices 1 2 3 4 5 6 
#
# 1 48.2213 -9.0330 52.3764 -0.0044 11.4840 -0.0057
# 2 -9.0330 53.9962 25.6280 0.0054 -9.3853 0.0106
# 3 52.3764 25.6280 146.2544 0.0099 -4.6175 0.0019
# 4 -0.0044 0.0054 0.0099 49.5846 0.0128 7.1159
# 5 11.4840 -9.3853 -4.6175 0.0128 28.4210 -0.0050
# 6 -0.0057 0.0106 0.0019 7.1159 -0.0050 16.3452
#
#
#
# Elastic Compliance Matrix: (Units=1/GPa)
#
#
# Indices 1 2 3 4 5 6 
#
# 1 0.052506 0.015925 -0.022212 0.000013 -0.019566 -0.000001
# 2 0.015925 0.026150 -0.010269 0.000002 0.000532 -0.000011
# 3 -0.022212 -0.010269 0.016854 -0.000007 0.008322 0.000002
# 4 0.000013 0.000002 -0.000007 0.021512 -0.000017 -0.009365
# 5 -0.019566 0.000532 0.008322 -0.000017 0.044619 0.000013
# 6 -0.000001 -0.000011 0.000002 -0.009365 0.000013 0.065257
#
#
# Mechanical properties :
#
#
# Convention : Reuss Voigt Hill
#
# Bulk Modulus (GPa) = 16.02568 42.93497 29.48033
# Shear Modulus (GPa) = 17.80576 30.83686 24.32131
#
# Velocity S-wave (km/s) = 2.70947 3.56565 3.16663
# Velocity P-wave (km/s) = 4.04915 5.88674 5.05219
#
# Compressibility (1/GPa) = 0.06239984
#
# Stress axis : x y z
#
# Youngs Moduli (GPa) = 19.04544 38.24072 59.33349
#
# Poissons Ratio (x) = -0.60899 1.31789
# Poissons Ratio (y) = -0.30330 0.60927
# Poissons Ratio (z) = 0.42303 0.39268
#
# Static dielectric constant tensor:
#      x y z
#    x 1.954970 0.000180 0.002560 
#    y 0.000180 1.955810 -0.000010 
#    z 0.002560 -0.000010 1.966060 
# 
# From -- ./inp_files/254316.got.cif
#   From: 2010.05.17/outbox.cif.g08.bks.cpg/sg15_128_cif.got.tgz:254316.got - 2010.06.03 18:47:42.
