data_PCOD9288713
_publ_section_title
;
Structure prediction by ZEFSAII (Michael W. Deem and Ramdas Pophale) SiO2 
 PCOD9288713
Probable space group: C 2/C
;
_chemical_formula_sum "Si O2"
_cell_formula_units_Z 44
_cell_length_a 25.393126
_cell_length_b 6.622059
_cell_length_c 13.756794
_cell_angle_alpha 90.000000
_cell_angle_beta 63.034498
_cell_angle_gamma 90.000000
_cell_volume 2061.771198
_symmetry_space_group_name_H-M "C 2/C"
_symmetry_group_IT_number 15
_symmetry_cell_setting 'monoclinic'
loop_
_space_group_symop_operation_xyz
x,y,z
-x,y,1/2-z
-x,-y,-z
x,-y,1/2+z
1/2+x,1/2+y,z
1/2-x,1/2+y,1/2-z
1/2-x,1/2-y,-z
1/2+x,1/2-y,1/2+z
loop_
_atom_site_type_symbol
_atom_site_label
_atom_site_fract_x
_atom_site_fract_y
_atom_site_fract_z
Si Si1 0.116422 0.912381 0.517103
Si Si2 0.683676 0.344529 0.110908
Si Si3 0.688996 0.949309 0.215770
Si Si4 0.600548 0.392500 0.823072
Si Si5 0.500000 0.368874 0.750000
Si Si6 0.781144 0.388427 0.602076
O O1 0.061297 0.889555 0.634634
O O2 0.155463 0.706651 0.478294
O O3 0.159353 0.081575 0.528382
O O4 0.096563 0.993866 0.429024
O O5 0.671984 0.116711 0.152156
O O6 0.644281 0.470393 0.221571
O O7 0.750604 0.421164 0.074503
O O8 0.717702 0.057703 0.284611
O O9 0.634057 0.821377 0.301661
O O10 0.735001 0.795042 0.129537
O O11 0.539759 0.358066 0.817690
#
# Coordination Sequence:
#
# PCOD9288713 Si02
#       6
#     8   8   8   8   4   8
#     4  11  22  42  68  94 129 176 216 265 320 372
#     4  10  22  39  64 100 137 165 206 258 318 404
#     4  11  20  39  66  96 133 163 207 258 324 394
#     4  10  22  43  67  93 123 171 214 272 325 376
#     4  10  24  46  68  84 130 172 228 274 314 368
#     4  11  20  37  64  98 134 171 201 254 324 388
#
# _framework density 21.340873999999999
#
# number of rings (size 3 to 8) (size 9 to 14) (size 15 to 20)
#    0.000    1.455    3.636    2.182    0.000    0.727 
#    9.818    4.545    0.000    0.000    0.000    0.000 
#    0.000    0.000    0.000    0.000    0.000    0.000 
#
# Total GULP energy -122507.013985 kJ/mol
# GULP energy per Si atom -5568.500636 kJ/mol
# Density = 2.129230 g / cm^3
# Si number density = 21.340874 Si / 1000 Ang^3
#
#
#
# Elastic Constant Matrix: (Units=GPa)
#
#
# Indices 1 2 3 4 5 6 
#
# 1 104.1015 15.5563 38.2722 0.0000 -2.0497 0.0000
# 2 15.5563 81.6791 4.5952 0.0000 -8.6288 0.0000
# 3 38.2722 4.5952 104.9113 0.0000 -8.0300 0.0000
# 4 0.0000 0.0000 0.0000 18.3069 0.0000 12.6916
# 5 -2.0497 -8.6288 -8.0300 0.0000 50.3642 0.0000
# 6 0.0000 0.0000 0.0000 12.6916 0.0000 6.6931
#
#
#
# Elastic Compliance Matrix: (Units=1/GPa)
#
#
# Indices 1 2 3 4 5 6 
#
# 1 0.011407 -0.001997 -0.004115 0.000000 -0.000534 0.000000
# 2 -0.001997 0.012834 0.000333 0.000000 0.002171 0.000000
# 3 -0.004115 0.000333 0.011146 0.000000 0.001667 0.000000
# 4 0.000000 0.000000 0.000000 -0.173646 0.000000 0.329269
# 5 -0.000534 0.002171 0.001667 0.000000 0.020471 0.000000
# 6 0.000000 0.000000 0.000000 0.329269 0.000000 -0.474953
#
#
# Mechanical properties :
#
#
# Convention : Reuss Voigt Hill
#
# Bulk Modulus (GPa) = 41.96758 45.28214 43.62486
# Shear Modulus (GPa) = -8.72234 30.55740 10.91753
#
# Velocity S-wave (km/s) = -2.02386 3.78811 2.26426
# Velocity P-wave (km/s) = 3.77448 6.35591 5.22706
#
# Compressibility (1/GPa) = 0.02382792
#
# Stress axis : x y z
#
# Youngs Moduli (GPa) = 87.66792 77.91775 89.71920
#
# Poissons Ratio (x) = 0.15563 0.36916
# Poissons Ratio (y) = 0.17511 -0.02985
# Poissons Ratio (z) = 0.36072 -0.02592
#
# Static dielectric constant tensor:
#      x y z
#    x 1.769190 0.000000 0.016100 
#    y 0.000000 1.794720 0.000000 
#    z 0.016100 0.000000 1.793430 
# 
# From -- ./inp_files/175645.got.cif
#   From: 2010.05.17/outbox.cif.g08.bks.cpg/sg15_88_cif.got.tgz:175645.got - 2010.06.03 18:47:42.
