data_PCOD9288366
_publ_section_title
;
Structure prediction by ZEFSAII (Michael W. Deem and Ramdas Pophale) SiO2 
 PCOD9288366
Probable space group: C 2/C
;
_chemical_formula_sum "Si O2"
_cell_formula_units_Z 44
_cell_length_a 5.228480
_cell_length_b 19.226964
_cell_length_c 25.307857
_cell_angle_alpha 90.000000
_cell_angle_beta 125.204758
_cell_angle_gamma 90.000000
_cell_volume 2078.811767
_symmetry_space_group_name_H-M "C 2/C"
_symmetry_group_IT_number 15
_symmetry_cell_setting 'monoclinic'
loop_
_space_group_symop_operation_xyz
x,y,z
-x,y,1/2-z
-x,-y,-z
x,-y,1/2+z
1/2+x,1/2+y,z
1/2-x,1/2+y,1/2-z
1/2-x,1/2-y,-z
1/2+x,1/2-y,1/2+z
loop_
_atom_site_type_symbol
_atom_site_label
_atom_site_fract_x
_atom_site_fract_y
_atom_site_fract_z
Si Si1 0.000000 0.113668 0.250000
Si Si2 0.714720 0.045794 0.487225
Si Si3 0.372238 0.066784 0.140533
Si Si4 0.821174 0.196525 0.322587
Si Si5 0.948542 0.920703 0.377705
Si Si6 0.799657 0.354620 0.324002
O O1 0.692342 0.066128 0.212744
O O2 0.050236 0.164947 0.305665
O O3 0.555699 0.066823 0.413454
O O4 0.879548 0.099571 0.546742
O O5 0.500000 0.000000 0.500000
O O6 0.000000 0.000000 0.500000
O O7 0.205832 0.138873 0.135701
O O8 0.155511 0.001602 0.130956
O O9 0.500000 0.197033 0.250000
O O10 0.867537 0.274507 0.347273
O O11 0.616131 0.881825 0.334613
O O12 0.188506 0.901895 0.359829
O O13 0.500000 0.355162 0.250000
#
# Coordination Sequence:
#
# PCOD9288366 Si02
#       6
#     4   8   8   8   8   8
#     4  10  22  38  70  96 126 164 230 266 324 382
#     4  10  22  42  65  90 132 174 206 259 331 387
#     4  10  23  40  67  94 125 165 222 267 316 378
#     4   9  22  40  62  89 128 173 212 259 328 391
#     4  11  24  41  64  98 127 167 215 262 321 386
#     4  11  25  41  63  92 135 169 206 266 331 377
#
# _framework density 21.165938000000001
#
# number of rings (size 3 to 8) (size 9 to 14) (size 15 to 20)
#    0.000    1.818    0.000    2.727   16.545    2.909 
#    0.000    1.818    0.000    0.000    0.000    0.000 
#    0.000    0.000    0.000    0.000    0.000    0.000 
#
# Total GULP energy -122720.357602 kJ/mol
# GULP energy per Si atom -5578.198073 kJ/mol
# Density = 2.111776 g / cm^3
# Si number density = 21.165938 Si / 1000 Ang^3
#
#
#
# Elastic Constant Matrix: (Units=GPa)
#
#
# Indices 1 2 3 4 5 6 
#
# 1 78.1913 -4.6435 10.8482 0.0000 -5.4872 0.0000
# 2 -4.6435 67.4642 25.7548 0.0000 4.7499 0.0000
# 3 10.8482 25.7548 69.7634 0.0000 -14.4393 0.0000
# 4 0.0000 0.0000 0.0000 5.3152 0.0000 -16.6016
# 5 -5.4872 4.7499 -14.4393 0.0000 37.3876 0.0000
# 6 0.0000 0.0000 0.0000 -16.6016 0.0000 12.7884
#
#
#
# Elastic Compliance Matrix: (Units=1/GPa)
#
#
# Indices 1 2 3 4 5 6 
#
# 1 0.013312 0.001863 -0.002611 0.000000 0.000709 0.000000
# 2 0.001863 0.018442 -0.008180 0.000000 -0.005229 0.000000
# 3 -0.002611 -0.008180 0.019451 0.000000 0.008168 0.000000
# 4 0.000000 0.000000 0.000000 -0.061589 0.000000 -0.079954
# 5 0.000709 -0.005229 0.008168 0.000000 0.030670 0.000000
# 6 0.000000 0.000000 0.000000 -0.079954 0.000000 -0.025598
#
#
# Mechanical properties :
#
#
# Convention : Reuss Voigt Hill
#
# Bulk Modulus (GPa) = 29.98682 31.03755 30.51219
# Shear Modulus (GPa) = 211.33664 23.32886 117.33275
#
# Velocity S-wave (km/s) = 10.00321 3.32352 7.45353
# Velocity P-wave (km/s) = 12.14979 5.42434 9.40853
#
# Compressibility (1/GPa) = 0.03334798
#
# Stress axis : x y z
#
# Youngs Moduli (GPa) = 75.12138 54.22438 51.41205
#
# Poissons Ratio (x) = -0.10103 0.13424
# Poissons Ratio (y) = -0.13996 0.42056
# Poissons Ratio (z) = 0.19615 0.44357
#
# Static dielectric constant tensor:
#      x y z
#    x 1.827650 0.000000 0.008090 
#    y 0.000000 1.760590 0.000000 
#    z 0.008090 0.000000 1.836410 
# 
# From -- ./inp_files/260790.got.cif
#   From: 2010.05.17/outbox.cif.g08.bks.cpg/sg15_131_cif.got.tgz:260790.got - 2010.06.03 18:47:42.
