data_PCOD9288098
_publ_section_title
;
Structure prediction by ZEFSAII (Michael W. Deem and Ramdas Pophale) SiO2 
 PCOD9288098
Probable space group: C 2/C
;
_chemical_formula_sum "Si O2"
_cell_formula_units_Z 48
_cell_length_a 8.665928
_cell_length_b 28.841955
_cell_length_c 9.288570
_cell_angle_alpha 90.000000
_cell_angle_beta 92.619529
_cell_angle_gamma 90.000000
_cell_volume 2319.180637
_symmetry_space_group_name_H-M "C 2/C"
_symmetry_group_IT_number 15
_symmetry_cell_setting 'monoclinic'
loop_
_space_group_symop_operation_xyz
x,y,z
-x,y,1/2-z
-x,-y,-z
x,-y,1/2+z
1/2+x,1/2+y,z
1/2-x,1/2+y,1/2-z
1/2-x,1/2-y,-z
1/2+x,1/2-y,1/2+z
loop_
_atom_site_type_symbol
_atom_site_label
_atom_site_fract_x
_atom_site_fract_y
_atom_site_fract_z
Si Si1 0.681607 0.138738 0.282488
Si Si2 0.669992 0.544392 0.682733
Si Si3 0.667590 0.545893 0.332350
Si Si4 0.321041 0.647004 0.789798
Si Si5 0.189379 0.299911 0.532040
Si Si6 0.323026 0.199977 0.963183
O O1 0.500000 0.130459 0.250000
O O2 0.758829 0.093730 0.218215
O O3 0.712159 0.186003 0.197024
O O4 0.728824 0.154988 0.443390
O O5 0.500000 0.546548 0.750000
O O6 0.660979 0.541065 0.506933
O O7 0.745545 0.499505 0.761396
O O8 0.739585 0.594421 0.725775
O O9 0.500000 0.546906 0.250000
O O10 0.500000 0.649218 0.750000
O O11 0.227988 0.685146 0.696691
O O12 0.289851 0.662398 0.950718
O O13 0.250000 0.250000 0.500000
O O14 0.007547 0.300106 0.488933
O O15 0.250000 0.250000 0.000000
#
# Coordination Sequence:
#
# PCOD9288098 Si02
#       6
#     8   8   8   8   8   8
#     4  10  24  42  60  89 128 162 203 258 316 373
#     4  10  22  38  63  97 127 159 208 263 312 369
#     4  11  22  39  67  93 124 164 211 259 314 372
#     4  11  23  39  62  93 128 162 211 258 311 374
#     4  11  22  42  64  89 127 163 209 265 313 376
#     4  11  24  40  64  93 124 169 212 257 318 373
#
# _framework density 20.696964000000001
#
# number of rings (size 3 to 8) (size 9 to 14) (size 15 to 20)
#    0.000    1.333    1.667    4.500    7.000    2.667 
#    0.000    2.500    0.000    0.000    0.000    0.000 
#    0.000    0.000    0.000    0.000    0.000    0.000 
#
# Total GULP energy -133796.490048 kJ/mol
# GULP energy per Si atom -5574.853752 kJ/mol
# Density = 2.064986 g / cm^3
# Si number density = 20.696964 Si / 1000 Ang^3
#
#
#
# Elastic Constant Matrix: (Units=GPa)
#
#
# Indices 1 2 3 4 5 6 
#
# 1 30.2453 20.4964 5.8951 0.0000 -13.4527 0.0000
# 2 20.4964 153.6567 19.3769 0.0000 -13.4651 0.0000
# 3 5.8951 19.3769 83.9812 0.0000 -8.7619 0.0000
# 4 0.0000 0.0000 0.0000 36.0701 0.0000 -8.7167
# 5 -13.4527 -13.4651 -8.7619 0.0000 20.8380 0.0000
# 6 0.0000 0.0000 0.0000 -8.7167 0.0000 15.6218
#
#
#
# Elastic Compliance Matrix: (Units=1/GPa)
#
#
# Indices 1 2 3 4 5 6 
#
# 1 0.048568 -0.004006 0.000540 0.000000 0.028993 0.000000
# 2 -0.004006 0.007342 -0.001242 0.000000 0.001636 0.000000
# 3 0.000540 -0.001242 0.012664 0.000000 0.004871 0.000000
# 4 0.000000 0.000000 0.000000 0.032045 0.000000 0.017880
# 5 0.028993 0.001636 0.004871 0.000000 0.069812 0.000000
# 6 0.000000 0.000000 0.000000 0.017880 0.000000 0.073990
#
#
# Mechanical properties :
#
#
# Convention : Reuss Voigt Hill
#
# Bulk Modulus (GPa) = 16.90371 39.93556 28.41964
# Shear Modulus (GPa) = 18.27765 29.31365 23.79565
#
# Velocity S-wave (km/s) = 2.97494 3.76749 3.39443
# Velocity P-wave (km/s) = 4.47049 6.18568 5.39666
#
# Compressibility (1/GPa) = 0.05915862
#
# Stress axis : x y z
#
# Youngs Moduli (GPa) = 20.58953 136.19554 78.96197
#
# Poissons Ratio (x) = 0.54559 -0.04263
# Poissons Ratio (y) = 0.08248 0.09809
# Poissons Ratio (z) = -0.01112 0.16918
#
# Static dielectric constant tensor:
#      x y z
#    x 1.741430 0.000000 -0.040440 
#    y 0.000000 1.798050 0.000000 
#    z -0.040440 0.000000 1.715230 
# 
# From -- ./inp_files/26106.got.cif
#   From: 2010.05.17/outbox.cif.g08.bks.cpg/sg15_14_cif.got.tgz:26106.got - 2010.06.03 18:47:42.
