data_PCOD9288582
_publ_section_title
;
Structure prediction by ZEFSAII (Michael W. Deem and Ramdas Pophale) SiO2 
 PCOD9288582
Probable space group: C 2/C
;
_chemical_formula_sum "Si O2"
_cell_formula_units_Z 48
_cell_length_a 8.343238
_cell_length_b 17.972591
_cell_length_c 14.737620
_cell_angle_alpha 90.000000
_cell_angle_beta 93.375011
_cell_angle_gamma 90.000000
_cell_volume 2206.067432
_symmetry_space_group_name_H-M "C 2/C"
_symmetry_group_IT_number 15
_symmetry_cell_setting 'monoclinic'
loop_
_space_group_symop_operation_xyz
x,y,z
-x,y,1/2-z
-x,-y,-z
x,-y,1/2+z
1/2+x,1/2+y,z
1/2-x,1/2+y,1/2-z
1/2-x,1/2-y,-z
1/2+x,1/2-y,1/2+z
loop_
_atom_site_type_symbol
_atom_site_label
_atom_site_fract_x
_atom_site_fract_y
_atom_site_fract_z
Si Si1 0.179639 0.555586 0.418302
Si Si2 0.684415 0.998736 0.613517
Si Si3 0.608321 0.354105 0.845611
Si Si4 0.808525 0.786181 0.909511
Si Si5 0.183883 0.227420 0.727517
Si Si6 0.325296 0.562133 0.791022
O O1 0.218208 0.547869 0.525995
O O2 0.205664 0.639392 0.386689
O O3 0.291956 0.498430 0.366926
O O4 0.995665 0.532163 0.399076
O O5 0.809641 0.930577 0.623031
O O6 0.702863 0.044221 0.706089
O O7 0.500000 0.364279 0.750000
O O8 0.489095 0.317647 0.914787
O O9 0.746050 0.294558 0.828163
O O10 0.784588 0.730287 0.824850
O O11 0.750000 0.750000 0.000000
O O12 0.197405 0.147377 0.680346
O O13 0.000000 0.238280 0.750000
O O14 0.500000 0.556075 0.750000
#
# Coordination Sequence:
#
# PCOD9288582 Si02
#       6
#     8   8   8   8   8   8
#     4  11  25  40  62  92 121 160 204 248 303 361
#     4  11  23  41  63  89 123 160 202 253 303 358
#     4  10  22  39  62  87 119 162 202 247 303 361
#     4  11  23  40  62  89 121 157 200 250 301 355
#     4  10  22  40  62  88 120 159 200 245 301 362
#     4  11  23  40  64  92 123 160 201 249 303 358
#
# _framework density 21.758175000000001
#
# number of rings (size 3 to 8) (size 9 to 14) (size 15 to 20)
#    0.000    1.333    0.000    6.000    0.000   12.000 
#    0.000    2.500    0.000    0.000    0.000    0.000 
#    0.000    0.000    0.000    0.000    0.000    0.000 
#
# Total GULP energy -134288.589502 kJ/mol
# GULP energy per Si atom -5595.357896 kJ/mol
# Density = 2.170865 g / cm^3
# Si number density = 21.758175 Si / 1000 Ang^3
#
#
#
# Elastic Constant Matrix: (Units=GPa)
#
#
# Indices 1 2 3 4 5 6 
#
# 1 69.9733 15.8365 -11.1312 0.0000 -8.9644 0.0000
# 2 15.8365 85.4313 -6.4778 0.0000 -4.2307 0.0000
# 3 -11.1312 -6.4778 31.0147 0.0000 -13.0365 0.0000
# 4 0.0000 0.0000 0.0000 33.8865 0.0000 -2.1995
# 5 -8.9644 -4.2307 -13.0365 0.0000 22.7797 0.0000
# 6 0.0000 0.0000 0.0000 -2.1995 0.0000 10.2669
#
#
#
# Elastic Compliance Matrix: (Units=1/GPa)
#
#
# Indices 1 2 3 4 5 6 
#
# 1 0.018374 -0.001815 0.011999 0.000000 0.013760 0.000000
# 2 -0.001815 0.012482 0.003463 0.000000 0.003586 0.000000
# 3 0.011999 0.003463 0.052048 0.000000 0.035151 0.000000
# 4 0.000000 0.000000 0.000000 0.029926 0.000000 0.006411
# 5 0.013760 0.003586 0.035151 0.000000 0.070096 0.000000
# 6 0.000000 0.000000 0.000000 0.006411 0.000000 0.098773
#
#
# Mechanical properties :
#
#
# Convention : Reuss Voigt Hill
#
# Bulk Modulus (GPa) = 9.07455 20.31935 14.69695
# Shear Modulus (GPa) = 17.17405 25.93276 21.55340
#
# Velocity S-wave (km/s) = 2.81252 3.45608 3.15078
# Velocity P-wave (km/s) = 3.83754 5.02842 4.47279
#
# Compressibility (1/GPa) = 0.11019825
#
# Stress axis : x y z
#
# Youngs Moduli (GPa) = 54.42618 80.11631 19.21309
#
# Poissons Ratio (x) = 0.14538 -0.23054
# Poissons Ratio (y) = 0.09876 -0.06653
# Poissons Ratio (z) = -0.65307 -0.27744
#
# Static dielectric constant tensor:
#      x y z
#    x 1.802970 0.000000 0.008870 
#    y 0.000000 1.751830 0.000000 
#    z 0.008870 0.000000 1.783930 
# 
# From -- ./inp_files/134813.got.cif
#   From: 2010.05.17/outbox.cif.g08.bks.cpg/sg15_68_cif.got.tgz:134813.got - 2010.06.03 18:47:42.
