data_PCOD9288904
_publ_section_title
;
Structure prediction by ZEFSAII (Michael W. Deem and Ramdas Pophale) SiO2 
 PCOD9288904
Probable space group: C 2/C
;
_chemical_formula_sum "Si O2"
_cell_formula_units_Z 40
_cell_length_a 16.113513
_cell_length_b 10.026884
_cell_length_c 9.667673
_cell_angle_alpha 90.000000
_cell_angle_beta 95.797846
_cell_angle_gamma 90.000000
_cell_volume 1553.999393
_symmetry_space_group_name_H-M "C 2/C"
_symmetry_group_IT_number 15
_symmetry_cell_setting 'monoclinic'
loop_
_space_group_symop_operation_xyz
x,y,z
-x,y,1/2-z
-x,-y,-z
x,-y,1/2+z
1/2+x,1/2+y,z
1/2-x,1/2+y,1/2-z
1/2-x,1/2-y,-z
1/2+x,1/2-y,1/2+z
loop_
_atom_site_type_symbol
_atom_site_label
_atom_site_fract_x
_atom_site_fract_y
_atom_site_fract_z
Si Si1 0.961561 0.698491 0.015604
Si Si2 0.863837 0.773637 0.408837
Si Si3 0.246817 0.417148 0.197932
Si Si4 0.898050 0.570825 0.628341
Si Si5 0.333724 0.433487 0.938478
O O1 0.914455 0.579815 0.085012
O O2 0.041814 0.743270 0.119840
O O3 0.013360 0.640163 0.892549
O O4 0.902400 0.819762 0.963861
O O5 0.798342 0.795422 0.276287
O O6 0.840553 0.655927 0.510494
O O7 0.869218 0.919235 0.481032
O O8 0.152764 0.421330 0.237847
O O9 0.262882 0.407693 0.039843
O O10 0.294794 0.540291 0.281084
#
# Coordination Sequence:
#
# PCOD9288904 Si02
#       5
#     8   8   8   8   8
#     4   9  19  39  63  89 126 158 209 252 318 349
#     4   8  19  38  63  88 117 166 200 257 294 379
#     4  10  22  39  67  90 125 162 215 244 314 357
#     4   9  19  39  63  90 122 164 204 260 301 376
#     4  10  22  39  67  91 123 165 208 258 295 378
#
# _framework density 25.740036
#
# number of rings (size 3 to 8) (size 9 to 14) (size 15 to 20)
#    2.400    0.400    0.000    1.200    0.000    3.200 
#    0.000    0.000    4.400    0.000    0.000    0.000 
#    0.000    0.000    0.000    0.000    0.000    0.000 
#
# Total GULP energy -111737.272913 kJ/mol
# GULP energy per Si atom -5586.863646 kJ/mol
# Density = 2.568145 g / cm^3
# Si number density = 25.740036 Si / 1000 Ang^3
#
#
#
# Elastic Constant Matrix: (Units=GPa)
#
#
# Indices 1 2 3 4 5 6 
#
# 1 155.6096 57.5151 23.9847 0.0000 -13.9880 0.0000
# 2 57.5151 169.2832 16.7886 0.0000 -1.3578 0.0000
# 3 23.9847 16.7886 84.4779 0.0000 -26.4670 0.0000
# 4 0.0000 0.0000 0.0000 7.5473 0.0000 5.8793
# 5 -13.9880 -1.3578 -26.4670 0.0000 31.6398 0.0000
# 6 0.0000 0.0000 0.0000 5.8793 0.0000 56.5781
#
#
#
# Elastic Compliance Matrix: (Units=1/GPa)
#
#
# Indices 1 2 3 4 5 6 
#
# 1 0.007724 -0.002515 -0.000890 0.000000 0.002562 0.000000
# 2 -0.002515 0.006869 -0.001229 0.000000 -0.001845 0.000000
# 3 -0.000890 -0.001229 0.016526 0.000000 0.013377 0.000000
# 4 0.000000 0.000000 0.000000 0.144168 0.000000 -0.014981
# 5 0.002562 -0.001845 0.013377 0.000000 0.043849 0.000000
# 6 0.000000 0.000000 0.000000 -0.014981 0.000000 0.019231
#
#
# Mechanical properties :
#
#
# Convention : Reuss Voigt Hill
#
# Bulk Modulus (GPa) = 45.76948 67.32750 56.54849
# Shear Modulus (GPa) = 19.61407 39.89187 29.75297
#
# Velocity S-wave (km/s) = 2.76344 3.94102 3.40354
# Velocity P-wave (km/s) = 5.29171 6.84999 6.12064
#
# Compressibility (1/GPa) = 0.02184862
#
# Stress axis : x y z
#
# Youngs Moduli (GPa) = 129.47443 145.58297 60.51207
#
# Poissons Ratio (x) = 0.36618 0.05388
# Poissons Ratio (y) = 0.32566 0.07438
# Poissons Ratio (z) = 0.11528 0.17894
#
# Static dielectric constant tensor:
#      x y z
#    x 2.031530 0.000000 0.092600 
#    y 0.000000 2.032980 0.000000 
#    z 0.092600 0.000000 2.071580 
# 
# From -- ./inp_files/54128.got.cif
#   From: 2010.05.17/outbox.cif.g08.bks.cpg/sg15_28_cif.got.tgz:54128.got - 2010.06.03 18:47:42.
