data_PCOD9288669
_publ_section_title
;
Structure prediction by ZEFSAII (Michael W. Deem and Ramdas Pophale) SiO2 
 PCOD9288669
Probable space group: C 2/C
;
_chemical_formula_sum "Si O2"
_cell_formula_units_Z 40
_cell_length_a 24.369678
_cell_length_b 8.399612
_cell_length_c 9.252613
_cell_angle_alpha 90.000000
_cell_angle_beta 102.791299
_cell_angle_gamma 90.000000
_cell_volume 1846.968677
_symmetry_space_group_name_H-M "C 2/C"
_symmetry_group_IT_number 15
_symmetry_cell_setting 'monoclinic'
loop_
_space_group_symop_operation_xyz
x,y,z
-x,y,1/2-z
-x,-y,-z
x,-y,1/2+z
1/2+x,1/2+y,z
1/2-x,1/2+y,1/2-z
1/2-x,1/2-y,-z
1/2+x,1/2-y,1/2+z
loop_
_atom_site_type_symbol
_atom_site_label
_atom_site_fract_x
_atom_site_fract_y
_atom_site_fract_z
Si Si1 0.210591 0.831008 0.281629
Si Si2 0.167441 0.667848 0.541360
Si Si3 0.033610 0.882749 0.130039
Si Si4 0.624500 0.816648 0.515266
Si Si5 0.631899 0.385576 0.744136
O O1 0.190523 0.712722 0.397472
O O2 0.277607 0.839329 0.323021
O O3 0.178319 0.768351 0.122411
O O4 0.187199 0.007541 0.299489
O O5 0.133886 0.504508 0.526332
O O6 0.132105 0.813966 0.583634
O O7 0.068744 0.748861 0.063193
O O8 0.000000 0.818632 0.250000
O O9 0.080765 0.994617 0.229093
O O10 0.000000 0.000000 0.000000
O O11 0.624724 0.755450 0.352248
#
# Coordination Sequence:
#
# PCOD9288669 Si02
#       5
#     8   8   8   8   8
#     4  10  22  39  63  91 132 176 207 253 320 388
#     4  11  23  39  61  97 132 165 213 264 315 374
#     4  11  23  45  70  90 120 169 214 260 325 393
#     4  11  23  39  63  95 127 163 214 271 313 378
#     4  11  23  40  65  91 123 170 213 255 321 393
#
# _framework density 21.657108999999998
#
# number of rings (size 3 to 8) (size 9 to 14) (size 15 to 20)
#    0.000    1.200    2.000    4.800    2.800    6.400 
#    0.000    2.000    0.000    0.000    0.000    0.000 
#    0.000    0.000    0.000    0.000    0.000    0.000 
#
# Total GULP energy -111830.580564 kJ/mol
# GULP energy per Si atom -5591.529028 kJ/mol
# Density = 2.160782 g / cm^3
# Si number density = 21.657109 Si / 1000 Ang^3
#
#
#
# Elastic Constant Matrix: (Units=GPa)
#
#
# Indices 1 2 3 4 5 6 
#
# 1 57.0797 36.4588 11.1599 0.0000 -11.0077 0.0000
# 2 36.4588 112.6704 -1.2891 0.0000 -12.0630 0.0000
# 3 11.1599 -1.2891 51.4313 0.0000 -9.5039 0.0000
# 4 0.0000 0.0000 0.0000 24.2604 0.0000 -8.7509
# 5 -11.0077 -12.0630 -9.5039 0.0000 24.2964 0.0000
# 6 0.0000 0.0000 0.0000 -8.7509 0.0000 27.2539
#
#
#
# Elastic Compliance Matrix: (Units=1/GPa)
#
#
# Indices 1 2 3 4 5 6 
#
# 1 0.024081 -0.007242 -0.004371 0.000000 0.005604 0.000000
# 2 -0.007242 0.011619 0.002503 0.000000 0.003467 0.000000
# 3 -0.004371 0.002503 0.021901 0.000000 0.007830 0.000000
# 4 0.000000 0.000000 0.000000 0.046619 0.000000 0.014969
# 5 0.005604 0.003467 0.007830 0.000000 0.048481 0.000000
# 6 0.000000 0.000000 0.000000 0.014969 0.000000 0.041498
#
#
# Mechanical properties :
#
#
# Convention : Reuss Voigt Hill
#
# Bulk Modulus (GPa) = 25.39305 34.87117 30.13211
# Shear Modulus (GPa) = 22.16843 26.81892 24.49367
#
# Velocity S-wave (km/s) = 3.20286 3.52283 3.36665
# Velocity P-wave (km/s) = 5.04264 5.71695 5.39035
#
# Compressibility (1/GPa) = 0.03938086
#
# Stress axis : x y z
#
# Youngs Moduli (GPa) = 41.52726 86.06796 45.65906
#
# Poissons Ratio (x) = 0.62332 0.19958
# Poissons Ratio (y) = 0.30075 -0.11430
# Poissons Ratio (z) = 0.18152 -0.21545
#
# Static dielectric constant tensor:
#      x y z
#    x 1.847690 0.000000 -0.005640 
#    y 0.000000 1.759640 0.000000 
#    z -0.005640 0.000000 1.780500 
# 
# From -- ./inp_files/59948.got.cif
#   From: 2010.05.17/outbox.cif.g08.bks.cpg/sg15_30_cif.got.tgz:59948.got - 2010.06.03 18:47:42.
