data_PCOD9288239
_publ_section_title
;
Structure prediction by ZEFSAII (Michael W. Deem and Ramdas Pophale) SiO2 
 PCOD9288239
Probable space group: C 2/C
;
_chemical_formula_sum "Si O2"
_cell_formula_units_Z 48
_cell_length_a 21.946301
_cell_length_b 13.189228
_cell_length_c 8.661264
_cell_angle_alpha 90.000000
_cell_angle_beta 115.829330
_cell_angle_gamma 90.000000
_cell_volume 2256.580059
_symmetry_space_group_name_H-M "C 2/C"
_symmetry_group_IT_number 15
_symmetry_cell_setting 'monoclinic'
loop_
_space_group_symop_operation_xyz
x,y,z
-x,y,1/2-z
-x,-y,-z
x,-y,1/2+z
1/2+x,1/2+y,z
1/2-x,1/2+y,1/2-z
1/2-x,1/2-y,-z
1/2+x,1/2-y,1/2+z
loop_
_atom_site_type_symbol
_atom_site_label
_atom_site_fract_x
_atom_site_fract_y
_atom_site_fract_z
Si Si1 0.565798 0.867510 0.625294
Si Si2 0.302547 0.784502 0.236371
Si Si3 0.000000 0.810670 0.250000
Si Si4 0.283927 0.453871 0.203124
Si Si5 0.000000 0.465721 0.250000
Si Si6 0.363230 0.381634 0.994680
Si Si7 0.187654 0.374866 0.547361
O O1 0.536602 0.764874 0.667569
O O2 0.526202 0.902109 0.425363
O O3 0.642118 0.860172 0.647182
O O4 0.555751 0.956622 0.740377
O O5 0.249354 0.869643 0.226170
O O6 0.346784 0.732295 0.416774
O O7 0.255365 0.691462 0.134320
O O8 0.346166 0.831624 0.145348
O O9 0.056848 0.880174 0.391349
O O10 0.333550 0.531207 0.348738
O O11 0.217826 0.513511 0.067411
O O12 0.324545 0.402051 0.110926
#
# Coordination Sequence:
#
# PCOD9288239 Si02
#       7
#     8   8   4   8   4   8   8
#     4  10  22  39  62  90 132 171 227 271 336 391
#     4  10  22  40  65 100 131 166 218 277 341 394
#     4  11  26  46  60  95 136 194 226 263 318 405
#     4  11  22  43  69 103 131 170 220 285 342 395
#     4   9  22  38  58  95 124 174 224 275 324 403
#     4  11  25  43  69  95 138 177 227 274 333 404
#     4  10  22  38  66 100 129 166 214 283 342 389
#
# _framework density 21.271127
#
# number of rings (size 3 to 8) (size 9 to 14) (size 15 to 20)
#    0.000    1.667    1.667    1.500    4.667    4.667 
#    0.000    0.000    0.000    0.000    0.000    0.000 
#    0.000    0.000    0.000    0.000    0.000    0.000 
#
# Total GULP energy -133955.645020 kJ/mol
# GULP energy per Si atom -5581.485209 kJ/mol
# Density = 2.122271 g / cm^3
# Si number density = 21.271127 Si / 1000 Ang^3
#
#
#
# Elastic Constant Matrix: (Units=GPa)
#
#
# Indices 1 2 3 4 5 6 
#
# 1 91.1158 9.3882 35.2198 0.0000 -17.0484 0.0000
# 2 9.3882 69.1157 35.0818 0.0000 -6.1355 0.0000
# 3 35.2198 35.0818 87.3108 0.0000 -9.3285 0.0000
# 4 0.0000 0.0000 0.0000 0.0463 0.0000 0.3660
# 5 -17.0484 -6.1355 -9.3285 0.0000 37.1623 0.0000
# 6 0.0000 0.0000 0.0000 0.3660 0.0000 41.6332
#
#
#
# Elastic Compliance Matrix: (Units=1/GPa)
#
#
# Indices 1 2 3 4 5 6 
#
# 1 0.013996 0.001439 -0.005665 0.000000 0.005236 0.000000
# 2 0.001439 0.018375 -0.007778 0.000000 0.001742 0.000000
# 3 -0.005665 -0.007778 0.016902 0.000000 0.000360 0.000000
# 4 0.000000 0.000000 0.000000 23.233382 0.000000 -0.204243
# 5 0.005236 0.001742 0.000360 0.000000 0.029689 0.000000
# 6 0.000000 0.000000 0.000000 -0.204243 0.000000 0.025815
#
#
# Mechanical properties :
#
#
# Convention : Reuss Voigt Hill
#
# Bulk Modulus (GPa) = 39.57751 45.21355 42.39553
# Shear Modulus (GPa) = 0.21394 26.95850 13.58622
#
# Velocity S-wave (km/s) = 0.31749 3.56388 2.53003
# Velocity P-wave (km/s) = 4.33371 6.18361 5.33938
#
# Compressibility (1/GPa) = 0.02526688
#
# Stress axis : x y z
#
# Youngs Moduli (GPa) = 71.44839 54.42044 59.16502
#
# Poissons Ratio (x) = -0.07831 0.33514
# Poissons Ratio (y) = -0.10281 0.46017
# Poissons Ratio (z) = 0.40472 0.42327
#
# Static dielectric constant tensor:
#      x y z
#    x 1.746730 0.000000 0.052600 
#    y 0.000000 1.775770 0.000000 
#    z 0.052600 0.000000 1.959880 
# 
# From -- ./inp_files/55267.got.cif
#   From: 2010.05.17/outbox.cif.g08.bks.cpg/sg15_28_cif.got.tgz:55267.got - 2010.06.03 18:47:42.
