data_PCOD9288798
_publ_section_title
;
Structure prediction by ZEFSAII (Michael W. Deem and Ramdas Pophale) SiO2 
 PCOD9288798
Probable space group: C 2/C
;
_chemical_formula_sum "Si O2"
_cell_formula_units_Z 64
_cell_length_a 29.256529
_cell_length_b 12.388692
_cell_length_c 15.408579
_cell_angle_alpha 90.000000
_cell_angle_beta 38.627230
_cell_angle_gamma 90.000000
_cell_volume 3486.342536
_symmetry_space_group_name_H-M "C 2/C"
_symmetry_group_IT_number 15
_symmetry_cell_setting 'monoclinic'
loop_
_space_group_symop_operation_xyz
x,y,z
-x,y,1/2-z
-x,-y,-z
x,-y,1/2+z
1/2+x,1/2+y,z
1/2-x,1/2+y,1/2-z
1/2-x,1/2-y,-z
1/2+x,1/2-y,1/2+z
loop_
_atom_site_type_symbol
_atom_site_label
_atom_site_fract_x
_atom_site_fract_y
_atom_site_fract_z
Si Si1 0.438692 0.115691 0.270276
Si Si2 0.988021 0.736062 0.025369
Si Si3 0.077357 0.942109 0.902889
Si Si4 0.948223 0.359202 0.244812
Si Si5 0.785858 0.078562 0.412536
Si Si6 0.192709 0.245473 0.975794
Si Si7 0.272785 0.154540 0.531008
Si Si8 0.150240 0.855300 0.356107
O O1 0.500000 0.142613 0.250000
O O2 0.463407 0.162817 0.141499
O O3 0.359555 0.159789 0.415326
O O4 0.433440 0.986376 0.271278
O O5 0.915741 0.798215 0.098204
O O6 0.050877 0.820886 0.962478
O O7 0.017334 0.671922 0.898269
O O8 0.129904 0.939241 0.740452
O O9 0.123456 0.019111 0.900012
O O10 0.000000 0.000000 0.000000
O O11 0.874663 0.292960 0.369446
O O12 0.000000 0.332135 0.250000
O O13 0.777100 0.145469 0.513615
O O14 0.750472 0.155962 0.390796
O O15 0.746872 0.963694 0.477630
O O16 0.164572 0.202485 0.925857
O O17 0.250000 0.250000 0.500000
O O18 0.223675 0.156962 0.690462
#
# Coordination Sequence:
#
# PCOD9288798 Si02
#       8
#     8   8   8   8   8   8   8   8
#     4  11  25  42  61  95 129 169 214 262 321 384
#     4  11  20  40  65  91 127 165 209 261 319 379
#     4   9  20  38  60  89 123 158 203 256 313 376
#     4  11  21  38  66  93 124 161 214 265 315 382
#     4  10  22  40  64  91 126 162 207 269 314 377
#     4  11  21  40  64  96 123 158 220 264 318 372
#     4  11  22  45  64  86 130 172 211 257 326 385
#     4  10  22  39  65  93 120 167 212 261 315 379
#
# _framework density 18.357347000000001
#
# number of rings (size 3 to 8) (size 9 to 14) (size 15 to 20)
#    0.000    1.500    5.000    0.375    0.000    1.000 
#    6.750    1.250    0.000    0.000    0.000    0.000 
#    0.000    0.000    0.000    0.000    0.000    0.000 
#
# Total GULP energy -178460.743081 kJ/mol
# GULP energy per Si atom -5576.898221 kJ/mol
# Density = 1.831557 g / cm^3
# Si number density = 18.357347 Si / 1000 Ang^3
#
#
#
# Elastic Constant Matrix: (Units=GPa)
#
#
# Indices 1 2 3 4 5 6 
#
# 1 101.5183 58.8454 55.4744 0.0000 1.1606 0.0000
# 2 58.8454 82.9018 23.2956 0.0000 -1.3811 0.0000
# 3 55.4744 23.2956 118.0639 0.0000 -15.1439 0.0000
# 4 0.0000 0.0000 0.0000 28.0655 0.0000 -2.8659
# 5 1.1606 -1.3811 -15.1439 0.0000 29.3239 0.0000
# 6 0.0000 0.0000 0.0000 -2.8659 0.0000 22.0459
#
#
#
# Elastic Compliance Matrix: (Units=1/GPa)
#
#
# Indices 1 2 3 4 5 6 
#
# 1 0.022621 -0.013713 -0.008697 0.000000 -0.006032 0.000000
# 2 -0.013713 0.021099 0.002653 0.000000 0.002907 0.000000
# 3 -0.008697 0.002653 0.012951 0.000000 0.007157 0.000000
# 4 0.000000 0.000000 0.000000 0.036110 0.000000 0.004694
# 5 -0.006032 0.002907 0.007157 0.000000 0.038174 0.000000
# 6 0.000000 0.000000 0.000000 0.004694 0.000000 0.045970
#
#
# Mechanical properties :
#
#
# Convention : Reuss Voigt Hill
#
# Bulk Modulus (GPa) = 58.28499 64.19055 61.23777
# Shear Modulus (GPa) = 22.50650 26.87829 24.69239
#
# Velocity S-wave (km/s) = 3.50526 3.83060 3.67153
# Velocity P-wave (km/s) = 6.94274 7.38971 7.16971
#
# Compressibility (1/GPa) = 0.01715707
#
# Stress axis : x y z
#
# Youngs Moduli (GPa) = 44.20740 47.39481 77.21501
#
# Poissons Ratio (x) = 0.64994 0.67151
# Poissons Ratio (y) = 0.60623 -0.20486
# Poissons Ratio (z) = 0.38446 -0.12574
#
# Static dielectric constant tensor:
#      x y z
#    x 1.619670 0.000000 -0.029660 
#    y 0.000000 1.665590 0.000000 
#    z -0.029660 0.000000 1.617380 
# 
# From -- ./inp_files/177821.got.cif
#   From: 2010.05.17/outbox.cif.g08.bks.cpg/sg15_89_cif.got.tgz:177821.got - 2010.06.03 18:47:42.
