data_PCOD9288992
_publ_section_title
;
Structure prediction by ZEFSAII (Michael W. Deem and Ramdas Pophale) SiO2 
 PCOD9288992
Probable space group: C 2/C
;
_chemical_formula_sum "Si O2"
_cell_formula_units_Z 52
_cell_length_a 20.614466
_cell_length_b 8.603461
_cell_length_c 16.001684
_cell_angle_alpha 90.000000
_cell_angle_beta 50.602711
_cell_angle_gamma 90.000000
_cell_volume 2193.095953
_symmetry_space_group_name_H-M "C 2/C"
_symmetry_group_IT_number 15
_symmetry_cell_setting 'monoclinic'
loop_
_space_group_symop_operation_xyz
x,y,z
-x,y,1/2-z
-x,-y,-z
x,-y,1/2+z
1/2+x,1/2+y,z
1/2-x,1/2+y,1/2-z
1/2-x,1/2-y,-z
1/2+x,1/2-y,1/2+z
loop_
_atom_site_type_symbol
_atom_site_label
_atom_site_fract_x
_atom_site_fract_y
_atom_site_fract_z
Si Si1 0.628369 0.559807 0.161385
Si Si2 0.215112 0.005285 0.334567
Si Si3 0.783178 0.314882 0.621927
Si Si4 0.500000 0.814316 0.250000
Si Si5 0.549034 0.033798 0.548179
Si Si6 0.603688 0.710201 0.550910
Si Si7 0.055132 0.067727 0.880422
O O1 0.724281 0.594281 0.103754
O O2 0.579293 0.704128 0.162355
O O3 0.618236 0.395851 0.121102
O O4 0.576099 0.551769 0.290438
O O5 0.254067 0.861423 0.352175
O O6 0.146914 0.902569 0.339047
O O7 0.265601 0.100636 0.225226
O O8 0.163919 0.124209 0.434676
O O9 0.881815 0.334116 0.526246
O O10 0.510562 0.917002 0.325656
O O11 0.500000 0.000000 0.500000
O O12 0.608743 0.893563 0.534381
O O13 0.504636 0.693892 0.610416
O O14 0.000000 0.000000 0.000000
#
# Coordination Sequence:
#
# PCOD9288992 Si02
#       7
#     8   8   8   4   8   8   8
#     4  11  24  44  73  99 149 186 251 303 374 438
#     4  10  22  39  70  96 142 186 249 294 357 443
#     4  11  25  46  67 110 140 197 242 307 368 439
#     4  12  28  46  72 110 144 190 244 320 360 446
#     4  12  30  48  73 108 153 190 250 308 374 436
#     4  11  22  42  71 103 138 193 239 297 369 443
#     4   9  19  36  67  95 131 187 242 285 353 432
#
# _framework density 23.710771999999999
#
# number of rings (size 3 to 8) (size 9 to 14) (size 15 to 20)
#    0.000    1.231    1.538    2.769   12.923    3.077 
#    0.000    0.000    0.000    0.000    0.000    0.000 
#    0.000    0.000    0.000    0.000    0.000    0.000 
#
# Total GULP energy -144901.022643 kJ/mol
# GULP energy per Si atom -5573.116256 kJ/mol
# Density = 2.365681 g / cm^3
# Si number density = 23.710772 Si / 1000 Ang^3
#
#
#
# Elastic Constant Matrix: (Units=GPa)
#
#
# Indices 1 2 3 4 5 6 
#
# 1 57.1698 13.9443 43.9190 0.0001 10.1246 -0.0002
# 2 13.9443 126.3781 33.1016 0.0000 17.9097 -0.0003
# 3 43.9190 33.1016 117.6982 -0.0001 12.3445 0.0000
# 4 0.0001 0.0000 -0.0001 44.6969 0.0000 8.4234
# 5 10.1246 17.9097 12.3445 0.0000 30.0076 0.0000
# 6 -0.0002 -0.0003 0.0000 8.4234 0.0000 17.8965
#
#
#
# Elastic Compliance Matrix: (Units=1/GPa)
#
#
# Indices 1 2 3 4 5 6 
#
# 1 0.025184 0.000271 -0.008952 0.000000 -0.004976 0.000000
# 2 0.000271 0.009110 -0.002177 0.000000 -0.004633 0.000000
# 3 -0.008952 -0.002177 0.012537 0.000000 -0.000838 0.000000
# 4 0.000000 0.000000 0.000000 0.024551 0.000000 -0.011555
# 5 -0.004976 -0.004633 -0.000838 0.000000 0.038113 0.000000
# 6 0.000000 0.000000 0.000000 -0.011555 0.000000 0.061316
#
#
# Mechanical properties :
#
#
# Convention : Reuss Voigt Hill
#
# Bulk Modulus (GPa) = 39.81736 53.68622 46.75179
# Shear Modulus (GPa) = 24.88839 32.53896 28.71367
#
# Velocity S-wave (km/s) = 3.24337 3.70851 3.48371
# Velocity P-wave (km/s) = 5.55476 6.40537 5.99517
#
# Compressibility (1/GPa) = 0.02511468
#
# Stress axis : x y z
#
# Youngs Moduli (GPa) = 39.70813 109.77348 79.76514
#
# Poissons Ratio (x) = -0.02977 0.71403
# Poissons Ratio (y) = -0.01077 0.17367
# Poissons Ratio (z) = 0.35545 0.23901
#
# Static dielectric constant tensor:
#      x y z
#    x 2.070530 0.000000 0.060340 
#    y 0.000000 1.786070 0.000000 
#    z 0.060340 0.000000 1.896030 
# 
# From -- ./inp_files/214246.got.cif
#   From: 2010.05.17/outbox.cif.g08.bks.cpg/sg15_108_cif.got.tgz:214246.got - 2010.06.03 18:47:42.
