data_PCOD9288346
_publ_section_title
;
Structure prediction by ZEFSAII (Michael W. Deem and Ramdas Pophale) SiO2 
 PCOD9288346
Probable space group: C 2/C
;
_chemical_formula_sum "Si O2"
_cell_formula_units_Z 64
_cell_length_a 15.479341
_cell_length_b 7.743530
_cell_length_c 30.426063
_cell_angle_alpha 90.000000
_cell_angle_beta 44.875671
_cell_angle_gamma 90.000000
_cell_volume 2573.225045
_symmetry_space_group_name_H-M "C 2/C"
_symmetry_group_IT_number 15
_symmetry_cell_setting 'monoclinic'
loop_
_space_group_symop_operation_xyz
x,y,z
-x,y,1/2-z
-x,-y,-z
x,-y,1/2+z
1/2+x,1/2+y,z
1/2-x,1/2+y,1/2-z
1/2-x,1/2-y,-z
1/2+x,1/2-y,1/2+z
loop_
_atom_site_type_symbol
_atom_site_label
_atom_site_fract_x
_atom_site_fract_y
_atom_site_fract_z
Si Si1 0.203418 0.390871 0.112752
Si Si2 0.300896 0.692743 0.663013
Si Si3 0.408526 0.161927 0.535914
Si Si4 0.858248 0.415707 0.144753
Si Si5 0.932590 0.563290 0.713863
Si Si6 0.142062 0.997271 0.113890
Si Si7 0.834778 0.898924 0.490815
Si Si8 0.892376 0.837963 0.224866
O O1 0.299345 0.407106 0.117752
O O2 0.173014 0.190879 0.116293
O O3 0.252642 0.476999 0.050756
O O4 0.073365 0.464662 0.174952
O O5 0.365737 0.877947 0.633561
O O6 0.154400 0.693099 0.728062
O O7 0.354123 0.614065 0.688558
O O8 0.426122 0.306698 0.492462
O O9 0.500000 0.000000 0.500000
O O10 0.410002 0.200597 0.587130
O O11 0.267799 0.103686 0.578727
O O12 0.925773 0.375079 0.165794
O O13 0.713394 0.398550 0.204760
O O14 0.882395 0.368907 0.731800
O O15 0.027853 0.913438 0.180651
O O16 0.115475 0.988381 0.071036
O O17 0.750000 0.750000 0.500000
#
# Coordination Sequence:
#
# PCOD9288346 Si02
#       8
#     8   8   8   8   8   8   8   8
#     4  12  23  43  69 100 138 180 232 286 345 412
#     4  10  22  42  64 100 140 176 231 277 347 400
#     4  11  25  44  73  99 132 180 232 285 342 414
#     4  10  22  43  69  98 136 184 227 273 349 411
#     4  10  22  38  69 100 142 182 218 288 339 412
#     4  11  24  45  70 100 133 185 225 285 351 404
#     4  10  25  44  66  94 134 175 230 277 341 412
#     4  10  23  43  72  99 141 181 227 279 347 419
#
# _framework density 24.871511000000002
#
# number of rings (size 3 to 8) (size 9 to 14) (size 15 to 20)
#    0.000    1.500    1.250    3.000    8.750    1.500 
#    2.250    1.250    0.000    0.000    0.000    0.000 
#    0.000    0.000    0.000    0.000    0.000    0.000 
#
# Total GULP energy -178924.664233 kJ/mol
# GULP energy per Si atom -5591.395757 kJ/mol
# Density = 2.481490 g / cm^3
# Si number density = 24.871511 Si / 1000 Ang^3
#
#
#
# Elastic Constant Matrix: (Units=GPa)
#
#
# Indices 1 2 3 4 5 6 
#
# 1 81.8446 -4.0223 23.6100 0.0006 8.4566 -0.0002
# 2 -4.0223 52.5295 -0.2199 0.0034 8.9723 0.0023
# 3 23.6100 -0.2199 66.1882 0.0012 6.0458 0.0004
# 4 0.0006 0.0034 0.0012 31.8198 0.0012 2.7645
# 5 8.4566 8.9723 6.0458 0.0012 53.6095 0.0009
# 6 -0.0002 0.0023 0.0004 2.7645 0.0009 35.1090
#
#
#
# Elastic Compliance Matrix: (Units=1/GPa)
#
#
# Indices 1 2 3 4 5 6 
#
# 1 0.013854 0.001361 -0.004766 0.000000 -0.001876 0.000000
# 2 0.001361 0.019740 -0.000100 -0.000002 -0.003507 -0.000001
# 3 -0.004766 -0.000100 0.016912 0.000000 -0.001139 0.000000
# 4 0.000000 -0.000002 0.000000 0.031643 0.000000 -0.002492
# 5 -0.001876 -0.003507 -0.001139 0.000000 0.019665 0.000000
# 6 0.000000 -0.000001 0.000000 -0.002492 0.000000 0.028679
#
#
# Mechanical properties :
#
#
# Convention : Reuss Voigt Hill
#
# Bulk Modulus (GPa) = 22.99001 26.58864 24.78933
# Shear Modulus (GPa) = 32.89460 36.18728 34.54094
#
# Velocity S-wave (km/s) = 3.64068 3.81854 3.73067
# Velocity P-wave (km/s) = 5.19002 5.49139 5.34283
#
# Compressibility (1/GPa) = 0.04349716
#
# Stress axis : x y z
#
# Youngs Moduli (GPa) = 72.18216 50.65909 59.12897
#
# Poissons Ratio (x) = -0.06896 0.28181
# Poissons Ratio (y) = -0.09826 0.00589
# Poissons Ratio (z) = 0.34402 0.00505
#
# Static dielectric constant tensor:
#      x y z
#    x 2.034070 -0.000010 0.000550 
#    y -0.000010 2.020280 0.000000 
#    z 0.000550 0.000000 1.992590 
# 
# From -- ./inp_files/313153.got.cif
#   From: 2010.05.17/outbox.cif.g08.bks.cpg/sg15_157_cif.got.tgz:313153.got - 2010.06.03 18:47:42.
