data_PCOD9288397
_publ_section_title
;
Structure prediction by ZEFSAII (Michael W. Deem and Ramdas Pophale) SiO2 
 PCOD9288397
Probable space group: C 2/C
;
_chemical_formula_sum "Si O2"
_cell_formula_units_Z 48
_cell_length_a 11.486315
_cell_length_b 11.997534
_cell_length_c 17.859441
_cell_angle_alpha 90.000000
_cell_angle_beta 127.708667
_cell_angle_gamma 90.000000
_cell_volume 1947.103270
_symmetry_space_group_name_H-M "C 2/C"
_symmetry_group_IT_number 15
_symmetry_cell_setting 'monoclinic'
loop_
_space_group_symop_operation_xyz
x,y,z
-x,y,1/2-z
-x,-y,-z
x,-y,1/2+z
1/2+x,1/2+y,z
1/2-x,1/2+y,1/2-z
1/2-x,1/2-y,-z
1/2+x,1/2-y,1/2+z
loop_
_atom_site_type_symbol
_atom_site_label
_atom_site_fract_x
_atom_site_fract_y
_atom_site_fract_z
Si Si1 0.503450 0.212089 0.923538
Si Si2 0.280076 0.425939 0.996396
Si Si3 0.500931 0.435314 0.667615
Si Si4 0.354262 0.080504 0.656981
Si Si5 0.710428 0.350082 0.247591
Si Si6 0.993157 0.286533 0.583609
O O1 0.484258 0.338197 0.887117
O O2 0.598895 0.148589 0.898444
O O3 0.336799 0.163068 0.858572
O O4 0.567979 0.201212 0.031921
O O5 0.273045 0.496857 0.917918
O O6 0.111966 0.390330 0.942862
O O7 0.350641 0.500502 0.088691
O O8 0.383509 0.318925 0.030261
O O9 0.500000 0.384841 0.750000
O O10 0.623806 0.533241 0.717241
O O11 0.500000 0.025304 0.750000
O O12 0.705286 0.153212 0.798495
O O13 0.596566 0.248292 0.193370
#
# Coordination Sequence:
#
# PCOD9288397 Si02
#       6
#     8   8   8   8   8   8
#     4  11  23  38  60  86 116 150 189 235 283 336
#     4  10  22  39  59  84 116 150 190 234 282 336
#     4  11  22  38  60  84 114 150 188 234 283 336
#     4  10  22  39  57  84 116 149 188 233 283 335
#     4  10  22  39  58  83 115 150 189 232 283 336
#     4  10  22  39  59  85 114 151 191 233 282 335
#
# _framework density 24.652006
#
# number of rings (size 3 to 8) (size 9 to 14) (size 15 to 20)
#    0.000    1.667    0.000    4.500    0.000   11.333 
#    0.000    1.667    0.000    0.000    0.000    0.000 
#    0.000    0.000    0.000    0.000    0.000    0.000 
#
# Total GULP energy -134287.865838 kJ/mol
# GULP energy per Si atom -5595.327743 kJ/mol
# Density = 2.459590 g / cm^3
# Si number density = 24.652006 Si / 1000 Ang^3
#
#
#
# Elastic Constant Matrix: (Units=GPa)
#
#
# Indices 1 2 3 4 5 6 
#
# 1 41.2093 2.9671 -4.8170 0.0000 -3.3860 0.0000
# 2 2.9671 69.5815 2.2741 0.0000 8.6023 0.0000
# 3 -4.8170 2.2741 51.7388 0.0000 3.4197 0.0000
# 4 0.0000 0.0000 0.0000 30.3094 0.0000 2.4216
# 5 -3.3860 8.6023 3.4197 0.0000 38.4462 0.0000
# 6 0.0000 0.0000 0.0000 2.4216 0.0000 15.7397
#
#
#
# Elastic Compliance Matrix: (Units=1/GPa)
#
#
# Indices 1 2 3 4 5 6 
#
# 1 0.024817 -0.001416 0.002220 0.000000 0.002305 0.000000
# 2 -0.001416 0.014871 -0.000561 0.000000 -0.003402 0.000000
# 3 0.002220 -0.000561 0.019654 0.000000 -0.001427 0.000000
# 4 0.000000 0.000000 0.000000 0.033404 0.000000 -0.005139
# 5 0.002305 -0.003402 -0.001427 0.000000 0.027102 0.000000
# 6 0.000000 0.000000 0.000000 -0.005139 0.000000 0.064324
#
#
# Mechanical properties :
#
#
# Convention : Reuss Voigt Hill
#
# Bulk Modulus (GPa) = 16.71408 18.15312 17.43360
# Shear Modulus (GPa) = 24.55475 27.70607 26.13041
#
# Velocity S-wave (km/s) = 3.15946 3.35608 3.25925
# Velocity P-wave (km/s) = 4.48378 4.73259 4.60987
#
# Compressibility (1/GPa) = 0.05982978
#
# Stress axis : x y z
#
# Youngs Moduli (GPa) = 40.29460 67.24527 50.88142
#
# Poissons Ratio (x) = 0.09521 -0.11298
# Poissons Ratio (y) = 0.05705 0.02852
# Poissons Ratio (z) = -0.08947 0.03769
#
# Static dielectric constant tensor:
#      x y z
#    x 1.981890 0.000000 0.039210 
#    y 0.000000 1.934470 0.000000 
#    z 0.039210 0.000000 1.968340 
# 
# From -- ./inp_files/237731.got.cif
#   From: 2010.05.17/outbox.cif.g08.bks.cpg/sg15_119_cif.got.tgz:237731.got - 2010.06.03 18:47:42.
