data_PCOD9288834
_publ_section_title
;
Structure prediction by ZEFSAII (Michael W. Deem and Ramdas Pophale) SiO2 
 PCOD9288834
Probable space group: C 2/C
;
_chemical_formula_sum "Si O2"
_cell_formula_units_Z 32
_cell_length_a 7.726486
_cell_length_b 25.739633
_cell_length_c 7.608351
_cell_angle_alpha 90.000000
_cell_angle_beta 71.659881
_cell_angle_gamma 90.000000
_cell_volume 1436.266747
_symmetry_space_group_name_H-M "C 2/C"
_symmetry_group_IT_number 15
_symmetry_cell_setting 'monoclinic'
loop_
_space_group_symop_operation_xyz
x,y,z
-x,y,1/2-z
-x,-y,-z
x,-y,1/2+z
1/2+x,1/2+y,z
1/2-x,1/2+y,1/2-z
1/2-x,1/2-y,-z
1/2+x,1/2-y,1/2+z
loop_
_atom_site_type_symbol
_atom_site_label
_atom_site_fract_x
_atom_site_fract_y
_atom_site_fract_z
Si Si1 0.500000 0.908213 0.750000
Si Si2 0.000000 0.132425 0.750000
Si Si3 0.759061 0.715917 0.733512
Si Si4 0.417988 0.555653 0.083595
Si Si5 0.877699 0.313327 0.558192
O O1 0.307280 0.939126 0.848605
O O2 0.439131 0.868821 0.611944
O O3 0.844586 0.173655 0.846824
O O4 0.996737 0.095017 0.584313
O O5 0.692807 0.774590 0.770421
O O6 0.954993 0.715867 0.586097
O O7 0.743754 0.689487 0.933358
O O8 0.500000 0.567249 0.250000
O O9 0.500000 0.500000 0.000000
#
# Coordination Sequence:
#
# PCOD9288834 Si02
#       5
#     4   4   8   8   8
#     4  12  25  46  76 102 142 198 239 302 376 442
#     4  12  23  46  72  98 144 192 237 306 366 424
#     4  10  22  39  66 103 147 188 231 289 349 441
#     4  12  28  51  74 108 139 186 253 317 374 436
#     4  10  22  40  64 107 144 187 236 281 358 440
#
# _framework density 22.279985
#
# number of rings (size 3 to 8) (size 9 to 14) (size 15 to 20)
#    0.000    1.000    3.750    2.250    3.500    3.000 
#    0.000    0.000    0.000    0.000    0.000    0.000 
#    0.000    0.000    0.000    0.000    0.000    0.000 
#
# Total GULP energy -89171.572027 kJ/mol
# GULP energy per Si atom -5573.223252 kJ/mol
# Density = 2.222927 g / cm^3
# Si number density = 22.279985 Si / 1000 Ang^3
#
#
#
# Elastic Constant Matrix: (Units=GPa)
#
#
# Indices 1 2 3 4 5 6 
#
# 1 90.6914 52.1987 28.0890 0.0000 -10.8990 0.0000
# 2 52.1987 121.7824 47.9478 0.0000 -20.6018 0.0000
# 3 28.0890 47.9478 102.4147 0.0000 3.1533 0.0000
# 4 0.0000 0.0000 0.0000 47.5168 0.0000 -3.9992
# 5 -10.8990 -20.6018 3.1533 0.0000 50.0785 0.0000
# 6 0.0000 0.0000 0.0000 -3.9992 0.0000 40.0872
#
#
#
# Elastic Compliance Matrix: (Units=1/GPa)
#
#
# Indices 1 2 3 4 5 6 
#
# 1 0.014831 -0.005604 -0.001475 0.000000 0.001015 0.000000
# 2 -0.005604 0.013281 -0.004821 0.000000 0.004547 0.000000
# 3 -0.001475 -0.004821 0.012521 0.000000 -0.003093 0.000000
# 4 0.000000 0.000000 0.000000 0.021223 0.000000 0.002117
# 5 0.001015 0.004547 -0.003093 0.000000 0.022255 0.000000
# 6 0.000000 0.000000 0.000000 0.002117 0.000000 0.025157
#
#
# Mechanical properties :
#
#
# Convention : Reuss Voigt Hill
#
# Bulk Modulus (GPa) = 59.40909 63.48441 61.44675
# Shear Modulus (GPa) = 36.05452 39.98002 38.01727
#
# Velocity S-wave (km/s) = 4.02711 4.24067 4.13527
# Velocity P-wave (km/s) = 6.95314 7.24800 7.10210
#
# Compressibility (1/GPa) = 0.01683244
#
# Stress axis : x y z
#
# Youngs Moduli (GPa) = 67.42663 75.29686 79.86655
#
# Poissons Ratio (x) = 0.42199 0.11781
# Poissons Ratio (y) = 0.37789 0.38501
# Poissons Ratio (z) = 0.09946 0.36298
#
# Static dielectric constant tensor:
#      x y z
#    x 1.407130 0.000000 0.455700 
#    y 0.000000 1.765260 0.000000 
#    z 0.455700 0.000000 1.607810 
# 
# From -- ./inp_files/23037.got.cif
#   From: 2010.05.17/outbox.cif.g08.bks.cpg/sg15_12_cif.got.tgz:23037.got - 2010.06.03 18:47:42.
