data_PCOD9288855
_publ_section_title
;
Structure prediction by ZEFSAII (Michael W. Deem and Ramdas Pophale) SiO2 
 PCOD9288855
Probable space group: C 2/C
;
_chemical_formula_sum "Si O2"
_cell_formula_units_Z 64
_cell_length_a 24.878830
_cell_length_b 12.201088
_cell_length_c 14.459741
_cell_angle_alpha 90.000000
_cell_angle_beta 39.623762
_cell_angle_gamma 90.000000
_cell_volume 2799.207270
_symmetry_space_group_name_H-M "C 2/C"
_symmetry_group_IT_number 15
_symmetry_cell_setting 'monoclinic'
loop_
_space_group_symop_operation_xyz
x,y,z
-x,y,1/2-z
-x,-y,-z
x,-y,1/2+z
1/2+x,1/2+y,z
1/2-x,1/2+y,1/2-z
1/2-x,1/2-y,-z
1/2+x,1/2-y,1/2+z
loop_
_atom_site_type_symbol
_atom_site_label
_atom_site_fract_x
_atom_site_fract_y
_atom_site_fract_z
Si Si1 0.825022 0.483034 0.978165
Si Si2 0.847994 0.895755 0.847928
Si Si3 0.900385 0.184553 0.089010
Si Si4 0.345961 0.495637 0.036589
Si Si5 0.507665 0.128506 0.504042
Si Si6 0.684988 0.860716 0.698053
Si Si7 0.247121 0.328638 0.286251
Si Si8 0.080759 0.311124 0.189904
O O1 0.842298 0.402382 0.867642
O O2 0.893250 0.578586 0.895761
O O3 0.737573 0.546438 0.071201
O O4 0.813305 0.419688 0.088894
O O5 0.904621 0.875547 0.682740
O O6 0.843892 0.774082 0.897530
O O7 0.881742 0.965512 0.889105
O O8 0.969405 0.279679 0.985431
O O9 0.809556 0.247162 0.200732
O O10 0.900384 0.086968 0.015666
O O11 0.255149 0.552715 0.137429
O O12 0.321313 0.390301 0.132318
O O13 0.607109 0.145012 0.371401
O O14 0.451962 0.152699 0.667166
O O15 0.500000 0.000000 0.500000
O O16 0.723513 0.740202 0.662247
O O17 0.000000 0.256125 0.250000
#
# Coordination Sequence:
#
# PCOD9288855 Si02
#       8
#     8   8   8   8   8   8   8   8
#     4  11  22  41  64  90 129 165 215 270 322 377
#     4  10  23  42  65  93 131 166 221 263 321 381
#     4  10  23  41  63  99 130 172 213 271 325 391
#     4  10  22  39  66  94 127 173 216 272 314 379
#     4  11  22  42  64  92 133 166 208 264 339 388
#     4  10  23  40  61  95 123 169 212 265 324 384
#     4  11  23  36  66  91 127 163 222 265 317 383
#     4  11  26  37  63  95 126 168 208 271 320 392
#
# _framework density 22.863614999999999
#
# number of rings (size 3 to 8) (size 9 to 14) (size 15 to 20)
#    0.000    1.500    2.500    1.500   12.250    0.000 
#    0.000    1.875    0.000    0.000    0.000    0.000 
#    0.000    0.000    0.000    0.000    0.000    0.000 
#
# Total GULP energy -178604.053494 kJ/mol
# GULP energy per Si atom -5581.376672 kJ/mol
# Density = 2.281158 g / cm^3
# Si number density = 22.863615 Si / 1000 Ang^3
#
#
#
# Elastic Constant Matrix: (Units=GPa)
#
#
# Indices 1 2 3 4 5 6 
#
# 1 56.9634 41.9698 14.8314 0.0000 17.7796 0.0000
# 2 41.9698 103.1561 39.0569 0.0000 13.6074 0.0000
# 3 14.8314 39.0569 49.2794 0.0000 10.1416 0.0000
# 4 0.0000 0.0000 0.0000 35.6079 0.0000 -0.1264
# 5 17.7796 13.6074 10.1416 0.0000 28.6509 0.0000
# 6 0.0000 0.0000 0.0000 -0.1264 0.0000 24.6341
#
#
#
# Elastic Compliance Matrix: (Units=1/GPa)
#
#
# Indices 1 2 3 4 5 6 
#
# 1 0.029433 -0.011240 0.002924 0.000000 -0.013962 0.000000
# 2 -0.011240 0.018371 -0.011667 0.000000 0.002380 0.000000
# 3 0.002924 -0.011667 0.030084 0.000000 -0.006922 0.000000
# 4 0.000000 0.000000 0.000000 0.028084 0.000000 0.000144
# 5 -0.013962 0.002380 -0.006922 0.000000 0.044887 0.000000
# 6 0.000000 0.000000 0.000000 0.000144 0.000000 0.040595
#
#
# Mechanical properties :
#
#
# Convention : Reuss Voigt Hill
#
# Bulk Modulus (GPa) = 26.37090 44.56836 35.46963
# Shear Modulus (GPa) = 20.48670 25.34795 22.91733
#
# Velocity S-wave (km/s) = 2.99664 3.33327 3.16942
# Velocity P-wave (km/s) = 4.85100 5.86086 5.37968
#
# Compressibility (1/GPa) = 0.03792058
#
# Stress axis : x y z
#
# Youngs Moduli (GPa) = 33.97492 54.43494 33.24066
#
# Poissons Ratio (x) = 0.61187 -0.09718
# Poissons Ratio (y) = 0.38189 0.38781
# Poissons Ratio (z) = -0.09933 0.63507
#
# Static dielectric constant tensor:
#      x y z
#    x 1.890350 0.000000 -0.005860 
#    y 0.000000 1.906460 0.000000 
#    z -0.005860 0.000000 1.846550 
# 
# From -- ./inp_files/177800.got.cif
#   From: 2010.05.17/outbox.cif.g08.bks.cpg/sg15_89_cif.got.tgz:177800.got - 2010.06.03 18:47:42.
