data_PCOD9288724
_publ_section_title
;
Structure prediction by ZEFSAII (Michael W. Deem and Ramdas Pophale) SiO2 
 PCOD9288724
Probable space group: C 2/C
;
_chemical_formula_sum "Si O2"
_cell_formula_units_Z 64
_cell_length_a 14.727337
_cell_length_b 8.057092
_cell_length_c 30.758078
_cell_angle_alpha 90.000000
_cell_angle_beta 127.224910
_cell_angle_gamma 90.000000
_cell_volume 2906.166226
_symmetry_space_group_name_H-M "C 2/C"
_symmetry_group_IT_number 15
_symmetry_cell_setting 'monoclinic'
loop_
_space_group_symop_operation_xyz
x,y,z
-x,y,1/2-z
-x,-y,-z
x,-y,1/2+z
1/2+x,1/2+y,z
1/2-x,1/2+y,1/2-z
1/2-x,1/2-y,-z
1/2+x,1/2-y,1/2+z
loop_
_atom_site_type_symbol
_atom_site_label
_atom_site_fract_x
_atom_site_fract_y
_atom_site_fract_z
Si Si1 0.995599 0.379360 0.957513
Si Si2 0.881564 0.052916 0.487715
Si Si3 0.997408 0.452233 0.134128
Si Si4 0.337864 0.546567 0.822314
Si Si5 0.270377 0.377278 0.625144
Si Si6 0.690825 0.996944 0.360078
Si Si7 0.239025 0.430599 0.708894
Si Si8 0.583150 0.579375 0.411427
O O1 0.012237 0.457760 0.915100
O O2 0.862111 0.327186 0.919691
O O3 0.000000 0.500000 0.000000
O O4 0.091425 0.240591 0.991017
O O5 0.782558 0.034656 0.424202
O O6 0.863006 0.943498 0.525419
O O7 0.000000 0.000000 0.500000
O O8 0.128600 0.457299 0.186121
O O9 0.927368 0.548074 0.151619
O O10 0.955202 0.267199 0.110240
O O11 0.250546 0.460856 0.831581
O O12 0.327336 0.458794 0.772772
O O13 0.303509 0.739519 0.806638
O O14 0.466988 0.528210 0.876716
O O15 0.329366 0.200860 0.650050
O O16 0.281066 0.477582 0.672843
O O17 0.326341 0.463931 0.599936
#
# Coordination Sequence:
#
# PCOD9288724 Si02
#       8
#     8   8   8   8   8   8   8   8
#     4  11  23  39  56  87 126 163 198 251 296 350
#     4  12  21  39  62  88 125 167 207 243 297 362
#     4  10  23  40  59  94 123 154 205 251 304 366
#     4  11  22  42  67  87 118 163 202 254 307 362
#     4   9  21  40  60  86 121 158 202 248 302 367
#     4  10  22  39  64  87 121 166 204 244 303 372
#     4  10  22  44  63  88 124 155 202 258 307 359
#     4  11  22  38  66  90 118 162 207 244 303 374
#
# _framework density 22.02214
#
# number of rings (size 3 to 8) (size 9 to 14) (size 15 to 20)
#    0.000    1.500    2.500    3.000    1.750    2.500 
#    2.250    5.000    0.000    0.000    0.000    0.000 
#    0.000    0.000    0.000    0.000    0.000    0.000 
#
# Total GULP energy -178662.854649 kJ/mol
# GULP energy per Si atom -5583.214208 kJ/mol
# Density = 2.197202 g / cm^3
# Si number density = 22.022140 Si / 1000 Ang^3
#
#
#
# Elastic Constant Matrix: (Units=GPa)
#
#
# Indices 1 2 3 4 5 6 
#
# 1 121.2282 -1.7239 7.9339 0.0000 -27.6107 0.0000
# 2 -1.7239 40.8224 -5.3131 0.0000 -0.4734 0.0000
# 3 7.9339 -5.3131 62.4334 0.0000 -16.5892 0.0000
# 4 0.0000 0.0000 0.0000 29.1492 0.0000 0.6421
# 5 -27.6107 -0.4734 -16.5892 0.0000 21.6875 0.0000
# 6 0.0000 0.0000 0.0000 0.6421 0.0000 17.3276
#
#
#
# Elastic Compliance Matrix: (Units=1/GPa)
#
#
# Indices 1 2 3 4 5 6 
#
# 1 0.012163 0.001160 0.003357 0.000000 0.018078 0.000000
# 2 0.001160 0.025008 0.003161 0.000000 0.004441 0.000000
# 3 0.003357 0.003161 0.021353 0.000000 0.020676 0.000000
# 4 0.000000 0.000000 0.000000 0.034334 0.000000 -0.001272
# 5 0.018078 0.004441 0.020676 0.000000 0.085037 0.000000
# 6 0.000000 0.000000 0.000000 -0.001272 0.000000 0.057758
#
#
# Mechanical properties :
#
#
# Convention : Reuss Voigt Hill
#
# Bulk Modulus (GPa) = 13.53558 25.14196 19.33877
# Shear Modulus (GPa) = 20.41432 28.53867 24.47649
#
# Velocity S-wave (km/s) = 3.04795 3.60378 3.33746
# Velocity P-wave (km/s) = 4.30655 5.36262 4.86334
#
# Compressibility (1/GPa) = 0.07387935
#
# Stress axis : x y z
#
# Youngs Moduli (GPa) = 82.21577 39.98686 46.83122
#
# Poissons Ratio (x) = -0.04639 -0.15719
# Poissons Ratio (y) = -0.09538 -0.14802
# Poissons Ratio (z) = -0.27596 -0.12639
#
# Static dielectric constant tensor:
#      x y z
#    x 1.891390 0.000000 0.001410 
#    y 0.000000 1.843680 0.000000 
#    z 0.001410 0.000000 1.808120 
# 
# From -- ./inp_files/313178.got.cif
#   From: 2010.05.17/outbox.cif.g08.bks.cpg/sg15_157_cif.got.tgz:313178.got - 2010.06.03 18:47:42.
