data_PCOD9288195
_publ_section_title
;
Structure prediction by ZEFSAII (Michael W. Deem and Ramdas Pophale) SiO2 
 PCOD9288195
Probable space group: C 2/C
;
_chemical_formula_sum "Si O2"
_cell_formula_units_Z 48
_cell_length_a 11.745501
_cell_length_b 22.427982
_cell_length_c 12.485580
_cell_angle_alpha 90.000000
_cell_angle_beta 142.819162
_cell_angle_gamma 90.000000
_cell_volume 1987.680392
_symmetry_space_group_name_H-M "C 2/C"
_symmetry_group_IT_number 15
_symmetry_cell_setting 'monoclinic'
loop_
_space_group_symop_operation_xyz
x,y,z
-x,y,1/2-z
-x,-y,-z
x,-y,1/2+z
1/2+x,1/2+y,z
1/2-x,1/2+y,1/2-z
1/2-x,1/2-y,-z
1/2+x,1/2-y,1/2+z
loop_
_atom_site_type_symbol
_atom_site_label
_atom_site_fract_x
_atom_site_fract_y
_atom_site_fract_z
Si Si1 0.571311 0.732514 0.573277
Si Si2 0.184131 0.446363 0.318349
Si Si3 0.624409 0.052073 0.152345
Si Si4 0.500000 0.860669 0.750000
Si Si5 0.750000 0.750000 0.000000
Si Si6 0.540531 0.173121 0.652502
Si Si7 0.963152 0.871280 0.837029
O O1 0.453407 0.744016 0.590569
O O2 0.608369 0.791138 0.528723
O O3 0.776131 0.707666 0.752578
O O4 0.475826 0.680079 0.433865
O O5 0.253103 0.507228 0.320072
O O6 0.095438 0.395202 0.174096
O O7 0.354416 0.413435 0.505057
O O8 0.000000 0.461820 0.250000
O O9 0.526849 0.097041 0.164517
O O10 0.774253 0.090004 0.197092
O O11 0.500000 0.000000 0.000000
O O12 0.318432 0.818177 0.592625
O O13 0.500000 0.178239 0.750000
O O14 0.000000 0.842759 0.750000
#
# Coordination Sequence:
#
# PCOD9288195 Si02
#       7
#     8   8   8   4   4   8   8
#     4  11  23  41  67  97 140 186 250 311 377 452
#     4  10  22  43  67 101 146 189 250 306 376 465
#     4  12  26  47  74 108 148 203 253 318 386 459
#     4  12  28  52  80 110 158 200 266 316 388 474
#     4  12  26  50  70 108 148 200 258 320 390 458
#     4  10  22  38  64  98 134 186 237 311 375 451
#     4  11  24  44  70 105 144 193 249 319 381 465
#
# _framework density 24.148752000000002
#
# number of rings (size 3 to 8) (size 9 to 14) (size 15 to 20)
#    0.000    1.000    2.500    3.500    2.333    2.667 
#    0.000    0.000    0.000    0.000    0.000    0.000 
#    0.000    0.000    0.000    0.000    0.000    0.000 
#
# Total GULP energy -133644.483978 kJ/mol
# GULP energy per Si atom -5568.520166 kJ/mol
# Density = 2.409379 g / cm^3
# Si number density = 24.148752 Si / 1000 Ang^3
#
#
#
# Elastic Constant Matrix: (Units=GPa)
#
#
# Indices 1 2 3 4 5 6 
#
# 1 154.9637 45.5204 16.3175 0.0000 13.4670 0.0000
# 2 45.5204 134.2286 24.1398 0.0000 -1.9414 0.0000
# 3 16.3175 24.1398 74.5271 0.0000 14.8539 0.0000
# 4 0.0000 0.0000 0.0000 48.6336 0.0000 19.6161
# 5 13.4670 -1.9414 14.8539 0.0000 32.3610 0.0000
# 6 0.0000 0.0000 0.0000 19.6161 0.0000 187.2664
#
#
#
# Elastic Compliance Matrix: (Units=1/GPa)
#
#
# Indices 1 2 3 4 5 6 
#
# 1 0.007501 -0.002558 -0.000177 0.000000 -0.003194 0.000000
# 2 -0.002558 0.008881 -0.002900 0.000000 0.002929 0.000000
# 3 -0.000177 -0.002900 0.015868 0.000000 -0.007384 0.000000
# 4 0.000000 0.000000 0.000000 0.021469 0.000000 -0.002249
# 5 -0.003194 0.002929 -0.007384 0.000000 0.035795 0.000000
# 6 0.000000 0.000000 0.000000 -0.002249 0.000000 0.005576
#
#
# Mechanical properties :
#
#
# Convention : Reuss Voigt Hill
#
# Bulk Modulus (GPa) = 47.66724 59.51941 53.59332
# Shear Modulus (GPa) = 44.10970 72.16832 58.13901
#
# Velocity S-wave (km/s) = 4.27849 5.47264 4.91199
# Velocity P-wave (km/s) = 6.64749 8.03950 7.37641
#
# Compressibility (1/GPa) = 0.02097877
#
# Stress axis : x y z
#
# Youngs Moduli (GPa) = 133.32045 112.59456 63.02074
#
# Poissons Ratio (x) = 0.28802 0.01117
# Poissons Ratio (y) = 0.34103 0.18278
# Poissons Ratio (z) = 0.02363 0.32657
#
# Static dielectric constant tensor:
#      x y z
#    x 1.895790 0.000000 -0.092110 
#    y 0.000000 1.921040 0.000000 
#    z -0.092110 0.000000 2.106460 
# 
# From -- ./inp_files/147478.got.cif
#   From: 2010.05.17/outbox.cif.g08.bks.cpg/sg15_74_cif.got.tgz:147478.got - 2010.06.03 18:47:42.
