data_PCOD9288944
_publ_section_title
;
Structure prediction by ZEFSAII (Michael W. Deem and Ramdas Pophale) SiO2 
 PCOD9288944
Probable space group: C 2/C
;
_chemical_formula_sum "Si O2"
_cell_formula_units_Z 60
_cell_length_a 8.266090
_cell_length_b 17.757006
_cell_length_c 27.835082
_cell_angle_alpha 90.000000
_cell_angle_beta 135.865902
_cell_angle_gamma 90.000000
_cell_volume 2845.009678
_symmetry_space_group_name_H-M "C 2/C"
_symmetry_group_IT_number 15
_symmetry_cell_setting 'monoclinic'
loop_
_space_group_symop_operation_xyz
x,y,z
-x,y,1/2-z
-x,-y,-z
x,-y,1/2+z
1/2+x,1/2+y,z
1/2-x,1/2+y,1/2-z
1/2-x,1/2-y,-z
1/2+x,1/2-y,1/2+z
loop_
_atom_site_type_symbol
_atom_site_label
_atom_site_fract_x
_atom_site_fract_y
_atom_site_fract_z
Si Si1 0.000000 0.622143 0.750000
Si Si2 0.235144 0.717467 0.882802
Si Si3 0.829245 0.433009 0.447754
Si Si4 0.166571 0.998620 0.687475
Si Si5 0.291024 0.911676 0.046239
Si Si6 0.559372 0.151766 0.434176
Si Si7 0.955514 0.139904 0.186712
Si Si8 0.210636 0.941185 0.594425
O O1 0.850937 0.670105 0.681066
O O2 0.824781 0.566036 0.739962
O O3 0.253153 0.661369 0.930705
O O4 0.050038 0.786705 0.848761
O O5 0.473141 0.762660 0.922704
O O6 0.578499 0.463372 0.379466
O O7 0.815174 0.379750 0.491733
O O8 0.000000 0.500000 0.500000
O O9 0.974886 0.399588 0.434167
O O10 0.273205 0.961199 0.661979
O O11 0.123742 0.928724 0.712849
O O12 0.286157 0.986059 0.078933
O O13 0.067418 0.927771 0.965245
O O14 0.307828 0.110449 0.375720
O O15 0.688296 0.130068 0.412809
O O16 0.000000 0.167484 0.250000
#
# Coordination Sequence:
#
# PCOD9288944 Si02
#       8
#     4   8   8   8   8   8   8   8
#     4  12  26  44  66  92 134 176 226 276 328 404
#     4  10  23  45  63  94 136 178 212 276 340 406
#     4  12  19  41  65 101 135 171 223 286 339 403
#     4  12  25  41  70 101 132 174 236 282 333 409
#     4  11  21  36  69  96 139 167 219 275 344 397
#     4  10  22  39  68  93 137 178 214 272 352 402
#     4  10  22  43  68  89 133 183 218 265 339 408
#     4  11  20  37  64 104 129 169 218 281 329 413
#
# _framework density 21.089559000000001
#
# number of rings (size 3 to 8) (size 9 to 14) (size 15 to 20)
#    0.800    0.267    6.000    0.800    1.867    2.133 
#    0.000    0.000    0.000    0.000    0.000    0.000 
#    0.000    0.000    0.000    0.000    0.000    0.000 
#
# Total GULP energy -167371.158779 kJ/mol
# GULP energy per Si atom -5579.038626 kJ/mol
# Density = 2.104156 g / cm^3
# Si number density = 21.089559 Si / 1000 Ang^3
#
#
#
# Elastic Constant Matrix: (Units=GPa)
#
#
# Indices 1 2 3 4 5 6 
#
# 1 80.9511 28.3152 3.3785 0.0000 1.2526 0.0000
# 2 28.3152 106.8648 30.6362 0.0000 5.5246 0.0000
# 3 3.3785 30.6362 47.2136 0.0000 -1.2671 0.0000
# 4 0.0000 0.0000 0.0000 37.3582 0.0000 -0.9519
# 5 1.2526 5.5246 -1.2671 0.0000 24.3259 0.0000
# 6 0.0000 0.0000 0.0000 -0.9519 0.0000 43.5408
#
#
#
# Elastic Compliance Matrix: (Units=1/GPa)
#
#
# Indices 1 2 3 4 5 6 
#
# 1 0.013727 -0.004146 0.001717 0.000000 0.000324 0.000000
# 2 -0.004146 0.012972 -0.008205 0.000000 -0.003160 0.000000
# 3 0.001717 -0.008205 0.026466 0.000000 0.003154 0.000000
# 4 0.000000 0.000000 0.000000 0.026783 0.000000 0.000586
# 5 0.000324 -0.003160 0.003154 0.000000 0.041974 0.000000
# 6 0.000000 0.000000 0.000000 0.000586 0.000000 0.022980
#
#
# Mechanical properties :
#
#
# Convention : Reuss Voigt Hill
#
# Bulk Modulus (GPa) = 31.35216 39.96547 35.65882
# Shear Modulus (GPa) = 28.28018 32.55829 30.41924
#
# Velocity S-wave (km/s) = 3.66588 3.93340 3.80199
# Velocity P-wave (km/s) = 5.72859 6.29447 6.01818
#
# Compressibility (1/GPa) = 0.03189573
#
# Stress axis : x y z
#
# Youngs Moduli (GPa) = 72.85092 77.09019 37.78371
#
# Poissons Ratio (x) = 0.31961 -0.06486
# Poissons Ratio (y) = 0.30204 0.31003
# Poissons Ratio (z) = -0.12506 0.63255
#
# Static dielectric constant tensor:
#      x y z
#    x 1.804050 0.000000 0.029760 
#    y 0.000000 1.785520 0.000000 
#    z 0.029760 0.000000 1.761020 
# 
# From -- ./inp_files/308933.got.cif
#   From: 2010.05.17/outbox.cif.g08.bks.cpg/sg15_155_cif.got.tgz:308933.got - 2010.06.03 18:47:42.
