data_PCOD9288047
_publ_section_title
;
Structure prediction by ZEFSAII (Michael W. Deem and Ramdas Pophale) SiO2 
 PCOD9288047
Probable space group: C 2/C
;
_chemical_formula_sum "Si O2"
_cell_formula_units_Z 56
_cell_length_a 17.247677
_cell_length_b 22.156908
_cell_length_c 10.451261
_cell_angle_alpha 90.000000
_cell_angle_beta 143.971377
_cell_angle_gamma 90.000000
_cell_volume 2349.230360
_symmetry_space_group_name_H-M "C 2/C"
_symmetry_group_IT_number 15
_symmetry_cell_setting 'monoclinic'
loop_
_space_group_symop_operation_xyz
x,y,z
-x,y,1/2-z
-x,-y,-z
x,-y,1/2+z
1/2+x,1/2+y,z
1/2-x,1/2+y,1/2-z
1/2-x,1/2-y,-z
1/2+x,1/2-y,1/2+z
loop_
_atom_site_type_symbol
_atom_site_label
_atom_site_fract_x
_atom_site_fract_y
_atom_site_fract_z
Si Si1 0.500000 0.151100 0.750000
Si Si2 0.249764 0.594657 0.770374
Si Si3 0.044195 0.407285 0.585919
Si Si4 0.540590 0.317794 0.047537
Si Si5 0.781018 0.965194 0.822581
Si Si6 0.278912 0.634289 0.095195
Si Si7 0.500000 0.605330 0.750000
Si Si8 0.113593 0.286869 0.792688
O O1 0.489175 0.112924 0.603952
O O2 0.350826 0.176804 0.561273
O O3 0.322948 0.652940 0.814736
O O4 0.315606 0.531517 0.819213
O O5 0.095863 0.591312 0.531041
O O6 0.269303 0.600933 0.947915
O O7 0.136486 0.465409 0.695562
O O8 0.131128 0.355526 0.771750
O O9 0.515427 0.351018 0.149294
O O10 0.552167 0.247386 0.088541
O O11 0.417540 0.332256 0.793802
O O12 0.777707 0.916887 0.703621
O O13 0.880231 0.938900 0.058644
O O14 0.000000 0.283503 0.750000
O O15 0.250000 0.250000 0.000000
#
# Coordination Sequence:
#
# PCOD9288047 Si02
#       8
#     4   8   8   8   8   8   4   8
#     4   8  18  40  64  83 129 168 212 268 316 392
#     4  11  23  40  64  99 133 168 224 271 326 401
#     4  10  22  44  63  99 128 176 221 268 332 393
#     4  11  23  41  64  95 133 170 217 276 330 395
#     4  10  22  38  68  90 136 172 212 274 330 391
#     4   9  21  39  61  93 129 169 217 266 329 386
#     4  10  22  38  62  93 123 174 214 258 346 388
#     4  12  26  45  72  99 135 176 224 283 336 403
#
# _framework density 23.837593999999999
#
# number of rings (size 3 to 8) (size 9 to 14) (size 15 to 20)
#    0.000    1.714    0.714    2.571    8.000    1.143 
#    2.571    1.429    0.000    0.000    0.000    0.000 
#    0.000    0.000    0.000    0.000    0.000    0.000 
#
# Total GULP energy -156420.853617 kJ/mol
# GULP energy per Si atom -5586.459058 kJ/mol
# Density = 2.378334 g / cm^3
# Si number density = 23.837594 Si / 1000 Ang^3
#
#
#
# Elastic Constant Matrix: (Units=GPa)
#
#
# Indices 1 2 3 4 5 6 
#
# 1 64.1157 4.2317 20.4112 0.0000 11.2862 0.0000
# 2 4.2317 67.1369 1.1344 0.0000 -2.7777 0.0000
# 3 20.4112 1.1344 86.7843 0.0000 -0.0431 0.0000
# 4 0.0000 0.0000 0.0000 13.7956 0.0000 2.8875
# 5 11.2862 -2.7777 -0.0431 0.0000 24.8643 0.0000
# 6 0.0000 0.0000 0.0000 2.8875 0.0000 20.0775
#
#
#
# Elastic Compliance Matrix: (Units=1/GPa)
#
#
# Indices 1 2 3 4 5 6 
#
# 1 0.018596 -0.001455 -0.004359 0.000000 -0.008611 0.000000
# 2 -0.001455 0.015081 0.000146 0.000000 0.002345 0.000000
# 3 -0.004359 0.000146 0.012547 0.000000 0.002017 0.000000
# 4 0.000000 0.000000 0.000000 0.074737 0.000000 -0.010749
# 5 -0.008611 0.002345 0.002017 0.000000 0.044393 0.000000
# 6 0.000000 0.000000 0.000000 -0.010749 0.000000 0.051353
#
#
# Mechanical properties :
#
#
# Convention : Reuss Voigt Hill
#
# Bulk Modulus (GPa) = 28.66198 29.95463 29.30831
# Shear Modulus (GPa) = 20.86187 24.56479 22.71333
#
# Velocity S-wave (km/s) = 2.96153 3.21363 3.09015
# Velocity P-wave (km/s) = 4.87280 5.13452 5.00537
#
# Compressibility (1/GPa) = 0.03488943
#
# Stress axis : x y z
#
# Youngs Moduli (GPa) = 53.77402 66.30773 79.69951
#
# Poissons Ratio (x) = 0.09646 0.34741
# Poissons Ratio (y) = 0.07823 -0.01165
# Poissons Ratio (z) = 0.23440 -0.00969
#
# Static dielectric constant tensor:
#      x y z
#    x 1.950110 0.000000 0.045200 
#    y 0.000000 1.855090 0.000000 
#    z 0.045200 0.000000 1.914160 
# 
# From -- ./inp_files/114774.got.cif
#   From: 2010.05.17/outbox.cif.g08.bks.cpg/sg15_58_cif.got.tgz:114774.got - 2010.06.03 18:47:42.
