data_PCOD9288844
_publ_section_title
;
Structure prediction by ZEFSAII (Michael W. Deem and Ramdas Pophale) SiO2 
 PCOD9288844
Probable space group: C 2/C
;
_chemical_formula_sum "Si O2"
_cell_formula_units_Z 44
_cell_length_a 8.166794
_cell_length_b 17.137280
_cell_length_c 16.076830
_cell_angle_alpha 90.000000
_cell_angle_beta 128.341139
_cell_angle_gamma 90.000000
_cell_volume 1764.791414
_symmetry_space_group_name_H-M "C 2/C"
_symmetry_group_IT_number 15
_symmetry_cell_setting 'monoclinic'
loop_
_space_group_symop_operation_xyz
x,y,z
-x,y,1/2-z
-x,-y,-z
x,-y,1/2+z
1/2+x,1/2+y,z
1/2-x,1/2+y,1/2-z
1/2-x,1/2-y,-z
1/2+x,1/2-y,1/2+z
loop_
_atom_site_type_symbol
_atom_site_label
_atom_site_fract_x
_atom_site_fract_y
_atom_site_fract_z
Si Si1 0.423232 0.293072 0.322799
Si Si2 0.656887 0.148143 0.379119
Si Si3 0.500000 0.721102 0.250000
Si Si4 0.561749 0.619083 0.426165
Si Si5 0.878109 0.963378 0.298072
Si Si6 0.560447 0.017073 0.923173
O O1 0.500000 0.298091 0.250000
O O2 0.556001 0.219877 0.397511
O O3 0.183891 0.269937 0.264748
O O4 0.445531 0.381769 0.359535
O O5 0.500000 0.139415 0.250000
O O6 0.890985 0.167385 0.423591
O O7 0.650085 0.065619 0.422034
O O8 0.597218 0.665319 0.351649
O O9 0.438285 0.538627 0.368915
O O10 0.777854 0.588591 0.530998
O O11 0.637724 0.963551 0.196078
O O12 0.000000 0.972406 0.250000
O O13 0.500000 0.000000 0.000000
#
# Coordination Sequence:
#
# PCOD9288844 Si02
#       6
#     8   8   4   8   8   8
#     4  10  22  39  66  90 133 177 218 268 338 400
#     4  11  21  42  67  93 137 179 222 273 340 397
#     4  12  20  42  70  96 130 188 218 272 346 398
#     4  12  22  40  70  99 130 177 227 278 331 398
#     4  11  22  41  66  96 133 173 220 279 334 396
#     4  12  23  39  69 105 131 173 235 280 330 404
#
# _framework density 24.932123000000001
#
# number of rings (size 3 to 8) (size 9 to 14) (size 15 to 20)
#    0.000    0.727    8.182    1.636    0.000    1.455 
#    0.000    1.818    8.000    0.000    0.000    0.000 
#    0.000    0.000    0.000    0.000    0.000    0.000 
#
# Total GULP energy -123191.864670 kJ/mol
# GULP energy per Si atom -5599.630212 kJ/mol
# Density = 2.487538 g / cm^3
# Si number density = 24.932123 Si / 1000 Ang^3
#
#
#
# Elastic Constant Matrix: (Units=GPa)
#
#
# Indices 1 2 3 4 5 6 
#
# 1 145.7366 33.6067 35.6212 0.0000 14.6193 0.0000
# 2 33.6067 104.0509 6.3448 0.0000 -4.3252 0.0000
# 3 35.6212 6.3448 89.1955 0.0000 23.7790 0.0000
# 4 0.0000 0.0000 0.0000 13.3786 0.0000 6.1719
# 5 14.6193 -4.3252 23.7790 0.0000 45.1045 0.0000
# 6 0.0000 0.0000 0.0000 6.1719 0.0000 23.9395
#
#
#
# Elastic Compliance Matrix: (Units=1/GPa)
#
#
# Indices 1 2 3 4 5 6 
#
# 1 0.008268 -0.002567 -0.002722 0.000000 -0.001491 0.000000
# 2 -0.002567 0.010537 -0.000251 0.000000 0.001975 0.000000
# 3 -0.002722 -0.000251 0.014064 0.000000 -0.006556 0.000000
# 4 0.000000 0.000000 0.000000 0.084836 0.000000 -0.021872
# 5 -0.001491 0.001975 -0.006556 0.000000 0.026300 0.000000
# 6 0.000000 0.000000 0.000000 -0.021872 0.000000 0.047411
#
#
# Mechanical properties :
#
#
# Convention : Reuss Voigt Hill
#
# Bulk Modulus (GPa) = 45.89157 54.45870 50.17514
# Shear Modulus (GPa) = 23.83686 34.04520 28.94103
#
# Velocity S-wave (km/s) = 3.09539 3.69930 3.41074
# Velocity P-wave (km/s) = 5.58765 6.33535 5.97321
#
# Compressibility (1/GPa) = 0.02179049
#
# Stress axis : x y z
#
# Youngs Moduli (GPa) = 120.94191 94.90346 71.10288
#
# Poissons Ratio (x) = 0.24358 0.19354
# Poissons Ratio (y) = 0.31040 0.01784
# Poissons Ratio (z) = 0.32921 0.02382
#
# Static dielectric constant tensor:
#      x y z
#    x 2.004250 0.000000 0.001140 
#    y 0.000000 1.934960 0.000000 
#    z 0.001140 0.000000 1.960440 
# 
# From -- ./inp_files/134554.got.cif
#   From: 2010.05.17/outbox.cif.g08.bks.cpg/sg15_68_cif.got.tgz:134554.got - 2010.06.03 18:47:42.
