data_PCOD9288164
_publ_section_title
;
Structure prediction by ZEFSAII (Michael W. Deem and Ramdas Pophale) SiO2 
 PCOD9288164
Probable space group: C 2/C
;
_chemical_formula_sum "Si O2"
_cell_formula_units_Z 56
_cell_length_a 23.008830
_cell_length_b 7.343813
_cell_length_c 16.486905
_cell_angle_alpha 90.000000
_cell_angle_beta 57.615348
_cell_angle_gamma 90.000000
_cell_volume 2352.557467
_symmetry_space_group_name_H-M "C 2/C"
_symmetry_group_IT_number 15
_symmetry_cell_setting 'monoclinic'
loop_
_space_group_symop_operation_xyz
x,y,z
-x,y,1/2-z
-x,-y,-z
x,-y,1/2+z
1/2+x,1/2+y,z
1/2-x,1/2+y,1/2-z
1/2-x,1/2-y,-z
1/2+x,1/2-y,1/2+z
loop_
_atom_site_type_symbol
_atom_site_label
_atom_site_fract_x
_atom_site_fract_y
_atom_site_fract_z
Si Si1 0.108722 0.814149 0.441795
Si Si2 0.637064 0.833839 0.762495
Si Si3 0.052372 0.164153 0.142851
Si Si4 0.932784 0.432190 0.830737
Si Si5 0.204396 0.857905 0.808185
Si Si6 0.321727 0.466565 0.852689
Si Si7 0.672308 0.055208 0.961418
O O1 0.086883 0.716861 0.374169
O O2 0.053647 0.891647 0.547340
O O3 0.146509 0.645680 0.457680
O O4 0.162346 0.970229 0.375049
O O5 0.609513 0.977982 0.719189
O O6 0.714011 0.874227 0.736020
O O7 0.642982 0.651278 0.704713
O O8 0.039821 0.380934 0.151122
O O9 0.128325 0.126255 0.121196
O O10 0.000000 0.091116 0.250000
O O11 0.000000 0.326136 0.750000
O O12 0.880908 0.354814 0.936144
O O13 0.191696 0.855676 0.721089
O O14 0.180312 0.681784 0.876485
O O15 0.247720 0.525089 0.942854
#
# Coordination Sequence:
#
# PCOD9288164 Si02
#       7
#     8   8   8   8   8   8   8
#     4  10  22  40  63  92 124 168 201 256 318 368
#     4  10  22  39  63  91 128 156 209 260 306 373
#     4  10  24  43  60  90 129 165 209 256 309 377
#     4  10  24  42  60  91 126 168 210 251 315 372
#     4  10  22  39  62  99 125 153 210 266 306 369
#     4  10  22  38  64  95 121 162 207 256 321 357
#     4  10  22  39  64  95 122 163 212 251 319 369
#
# _framework density 23.803882999999999
#
# number of rings (size 3 to 8) (size 9 to 14) (size 15 to 20)
#    0.000    2.000    1.429    0.000    8.000    2.857 
#    2.571    3.571    0.000    0.000    0.000    0.000 
#    0.000    0.000    0.000    0.000    0.000    0.000 
#
# Total GULP energy -156330.119613 kJ/mol
# GULP energy per Si atom -5583.218558 kJ/mol
# Density = 2.374970 g / cm^3
# Si number density = 23.803883 Si / 1000 Ang^3
#
#
#
# Elastic Constant Matrix: (Units=GPa)
#
#
# Indices 1 2 3 4 5 6 
#
# 1 19.4280 4.3609 13.0566 -0.0004 3.2177 0.0000
# 2 4.3609 67.0731 14.7861 -0.0014 1.7819 0.0000
# 3 13.0566 14.7861 184.6261 -0.0004 -3.5825 0.0001
# 4 -0.0004 -0.0014 -0.0004 -1.0015 -0.0001 12.4226
# 5 3.2177 1.7819 -3.5825 -0.0001 27.7494 0.0000
# 6 0.0000 0.0000 0.0001 12.4226 0.0000 14.7444
#
#
#
# Elastic Compliance Matrix: (Units=1/GPa)
#
#
# Indices 1 2 3 4 5 6 
#
# 1 0.055781 -0.002593 -0.003869 -0.000001 -0.006801 0.000001
# 2 -0.002593 0.015333 -0.001061 -0.000002 -0.000821 0.000001
# 3 -0.003869 -0.001061 0.005799 0.000000 0.001265 0.000000
# 4 -0.000001 -0.000002 0.000000 -0.087200 0.000000 0.073468
# 5 -0.006801 -0.000821 0.001265 0.000000 0.037042 0.000000
# 6 0.000001 0.000001 0.000000 0.073468 0.000000 0.005923
#
#
# Mechanical properties :
#
#
# Convention : Reuss Voigt Hill
#
# Bulk Modulus (GPa) = 16.16341 37.28162 26.72252
# Shear Modulus (GPa) = 73.15640 24.22669 48.69154
#
# Velocity S-wave (km/s) = 5.54975 3.19370 4.52766
# Velocity P-wave (km/s) = 6.91890 5.41254 6.21156
#
# Compressibility (1/GPa) = 0.06186814
#
# Stress axis : x y z
#
# Youngs Moduli (GPa) = 17.92731 65.21753 172.42983
#
# Poissons Ratio (x) = 0.16912 0.66714
# Poissons Ratio (y) = 0.04649 0.18287
# Poissons Ratio (z) = 0.06936 0.06917
#
# Static dielectric constant tensor:
#      x y z
#    x 1.917520 0.000000 -0.004940 
#    y 0.000000 1.950260 0.000000 
#    z -0.004940 0.000000 1.994910 
# 
# From -- ./inp_files/218517.got.cif
#   From: 2010.05.17/outbox.cif.g08.bks.cpg/sg15_110_cif.got.tgz:218517.got - 2010.06.03 18:47:42.
