data_PCOD9288303
_publ_section_title
;
Structure prediction by ZEFSAII (Michael W. Deem and Ramdas Pophale) SiO2 
 PCOD9288303
Probable space group: C 2/C
;
_chemical_formula_sum "Si O2"
_cell_formula_units_Z 44
_cell_length_a 4.984274
_cell_length_b 24.165617
_cell_length_c 17.840397
_cell_angle_alpha 90.000000
_cell_angle_beta 122.662324
_cell_angle_gamma 90.000000
_cell_volume 1809.035969
_symmetry_space_group_name_H-M "C 2/C"
_symmetry_group_IT_number 15
_symmetry_cell_setting 'monoclinic'
loop_
_space_group_symop_operation_xyz
x,y,z
-x,y,1/2-z
-x,-y,-z
x,-y,1/2+z
1/2+x,1/2+y,z
1/2-x,1/2+y,1/2-z
1/2-x,1/2-y,-z
1/2+x,1/2-y,1/2+z
loop_
_atom_site_type_symbol
_atom_site_label
_atom_site_fract_x
_atom_site_fract_y
_atom_site_fract_z
Si Si1 0.284598 0.322143 0.346003
Si Si2 0.257918 0.113324 0.014994
Si Si3 0.278978 0.536115 0.354486
Si Si4 0.500000 0.625798 0.750000
Si Si5 0.602008 0.775371 0.552257
Si Si6 0.137661 0.465229 0.108936
O O1 0.424863 0.359114 0.434454
O O2 0.561279 0.330965 0.326967
O O3 0.220024 0.259503 0.356965
O O4 0.000000 0.344776 0.250000
O O5 0.203394 0.090219 0.090251
O O6 0.533592 0.160348 0.053760
O O7 0.362746 0.066676 0.970420
O O8 0.594907 0.513185 0.361583
O O9 0.000000 0.540519 0.250000
O O10 0.175239 0.490719 0.401424
O O11 0.756841 0.579863 0.814146
O O12 0.750000 0.750000 0.500000
O O13 0.250000 0.750000 0.500000
#
# Coordination Sequence:
#
# PCOD9288303 Si02
#       6
#     8   8   8   4   8   8
#     4  10  24  42  73 101 135 182 241 296 348 419
#     4  10  25  44  71 104 140 190 231 296 362 422
#     4  12  24  45  65 105 146 190 235 292 351 433
#     4  10  22  38  68 100 132 182 240 292 348 408
#     4  10  24  46  66  99 138 176 231 292 351 421
#     4  11  24  41  68  98 141 183 242 294 346 422
#
# _framework density 24.322344999999999
#
# number of rings (size 3 to 8) (size 9 to 14) (size 15 to 20)
#    0.000    1.455    1.818    1.091   12.727    4.364 
#    1.636    1.818    0.000    0.000    0.000    0.000 
#    0.000    0.000    0.000    0.000    0.000    0.000 
#
# Total GULP energy -122635.402932 kJ/mol
# GULP energy per Si atom -5574.336497 kJ/mol
# Density = 2.426699 g / cm^3
# Si number density = 24.322345 Si / 1000 Ang^3
#
#
#
# Elastic Constant Matrix: (Units=GPa)
#
#
# Indices 1 2 3 4 5 6 
#
# 1 95.7978 29.2053 26.6668 0.0000 -5.8498 0.0000
# 2 29.2053 116.1928 76.7798 0.0000 -10.5897 0.0000
# 3 26.6668 76.7798 135.1200 0.0000 9.6311 0.0000
# 4 0.0000 0.0000 0.0000 55.1960 0.0000 -4.7959
# 5 -5.8498 -10.5897 9.6311 0.0000 25.8487 0.0000
# 6 0.0000 0.0000 0.0000 -4.7959 0.0000 30.4124
#
#
#
# Elastic Compliance Matrix: (Units=1/GPa)
#
#
# Indices 1 2 3 4 5 6 
#
# 1 0.011518 -0.001683 -0.001493 0.000000 0.002474 0.000000
# 2 -0.001683 0.016295 -0.009631 0.000000 0.009883 0.000000
# 3 -0.001493 -0.009631 0.013841 0.000000 -0.009441 0.000000
# 4 0.000000 0.000000 0.000000 0.018369 0.000000 0.002897
# 5 0.002474 0.009883 -0.009441 0.000000 0.046813 0.000000
# 6 0.000000 0.000000 0.000000 0.002897 0.000000 0.033338
#
#
# Mechanical properties :
#
#
# Convention : Reuss Voigt Hill
#
# Bulk Modulus (GPa) = 62.34783 68.04603 65.19693
# Shear Modulus (GPa) = 29.21647 36.58867 32.90257
#
# Velocity S-wave (km/s) = 3.46962 3.88277 3.68199
# Velocity P-wave (km/s) = 6.46070 6.93820 6.70371
#
# Compressibility (1/GPa) = 0.01603905
#
# Stress axis : x y z
#
# Youngs Moduli (GPa) = 86.81719 61.36999 72.24713
#
# Poissons Ratio (x) = 0.10329 0.10788
# Poissons Ratio (y) = 0.14612 0.69585
# Poissons Ratio (z) = 0.12963 0.59108
#
# Static dielectric constant tensor:
#      x y z
#    x 1.248710 0.000000 0.312370 
#    y 0.000000 2.029960 0.000000 
#    z 0.312370 0.000000 1.890580 
# 
# From -- ./inp_files/185379.got.cif
#   From: 2010.05.17/outbox.cif.g08.bks.cpg/sg15_93_cif.got.tgz:185379.got - 2010.06.03 18:47:42.
