data_PCOD9288521
_publ_section_title
;
Structure prediction by ZEFSAII (Michael W. Deem and Ramdas Pophale) SiO2 
 PCOD9288521
Probable space group: C 2/C
;
_chemical_formula_sum "Si O2"
_cell_formula_units_Z 40
_cell_length_a 7.033671
_cell_length_b 8.031738
_cell_length_c 31.627051
_cell_angle_alpha 90.000000
_cell_angle_beta 67.314125
_cell_angle_gamma 90.000000
_cell_volume 1648.463591
_symmetry_space_group_name_H-M "C 2/C"
_symmetry_group_IT_number 15
_symmetry_cell_setting 'monoclinic'
loop_
_space_group_symop_operation_xyz
x,y,z
-x,y,1/2-z
-x,-y,-z
x,-y,1/2+z
1/2+x,1/2+y,z
1/2-x,1/2+y,1/2-z
1/2-x,1/2-y,-z
1/2+x,1/2-y,1/2+z
loop_
_atom_site_type_symbol
_atom_site_label
_atom_site_fract_x
_atom_site_fract_y
_atom_site_fract_z
Si Si1 0.065941 0.802762 0.791221
Si Si2 0.420160 0.621133 0.468998
Si Si3 0.841944 0.651928 0.135751
Si Si4 0.690099 0.706201 0.553405
Si Si5 0.096469 0.846454 0.182869
O O1 0.877185 0.755635 0.838881
O O2 0.060404 0.004605 0.791977
O O3 0.000000 0.749423 0.750000
O O4 0.281293 0.738581 0.789602
O O5 0.500000 0.500000 0.500000
O O6 0.250000 0.750000 0.500000
O O7 0.620372 0.719582 0.436762
O O8 0.334150 0.491733 0.442391
O O9 0.977539 0.708241 0.084657
O O10 0.773023 0.460550 0.144855
O O11 0.983469 0.712956 0.163068
O O12 0.750000 0.750000 0.500000
#
# Coordination Sequence:
#
# PCOD9288521 Si02
#       5
#     8   8   8   8   8
#     4  10  26  43  72  96 135 170 218 267 332 396
#     4  10  22  39  61  87 120 160 214 260 309 371
#     4  10  26  42  67  97 137 170 221 272 325 389
#     4  10  23  42  65  92 129 173 218 265 323 379
#     4  10  26  41  68  97 133 167 220 262 337 381
#
# _framework density 24.26502
#
# number of rings (size 3 to 8) (size 9 to 14) (size 15 to 20)
#    1.200    0.800    0.000    0.600    8.400    6.400 
#    3.600    0.000    0.000    0.000    0.000    0.000 
#    0.000    0.000    0.000    0.000    0.000    0.000 
#
# Total GULP energy -111673.406694 kJ/mol
# GULP energy per Si atom -5583.670335 kJ/mol
# Density = 2.420979 g / cm^3
# Si number density = 24.265020 Si / 1000 Ang^3
#
#
#
# Elastic Constant Matrix: (Units=GPa)
#
#
# Indices 1 2 3 4 5 6 
#
# 1 128.1850 79.6496 23.7936 0.0000 -10.0022 0.0000
# 2 79.6496 123.4596 15.8479 0.0000 -3.1885 0.0000
# 3 23.7936 15.8479 75.9441 0.0000 -18.3225 0.0000
# 4 0.0000 0.0000 0.0000 26.3402 0.0000 2.0423
# 5 -10.0022 -3.1885 -18.3225 0.0000 47.0741 0.0000
# 6 0.0000 0.0000 0.0000 2.0423 0.0000 63.6821
#
#
#
# Elastic Compliance Matrix: (Units=1/GPa)
#
#
# Indices 1 2 3 4 5 6 
#
# 1 0.013550 -0.008430 -0.002129 0.000000 0.001479 0.000000
# 2 -0.008430 0.013568 -0.000442 0.000000 -0.001044 0.000000
# 3 -0.002129 -0.000442 0.015242 0.000000 0.005450 0.000000
# 4 0.000000 0.000000 0.000000 0.038059 0.000000 -0.001221
# 5 0.001479 -0.001044 0.005450 0.000000 0.023608 0.000000
# 6 0.000000 0.000000 0.000000 -0.001221 0.000000 0.015742
#
#
# Mechanical properties :
#
#
# Convention : Reuss Voigt Hill
#
# Bulk Modulus (GPa) = 49.12281 62.90789 56.01535
# Shear Modulus (GPa) = 33.65663 41.30578 37.48121
#
# Velocity S-wave (km/s) = 3.72834 4.13034 3.93448
# Velocity P-wave (km/s) = 6.23075 6.98054 6.61628
#
# Compressibility (1/GPa) = 0.02035714
#
# Stress axis : x y z
#
# Youngs Moduli (GPa) = 73.79965 73.70057 65.60881
#
# Poissons Ratio (x) = 0.62132 0.13969
# Poissons Ratio (y) = 0.62216 0.02901
# Poissons Ratio (z) = 0.15713 0.03259
#
# Static dielectric constant tensor:
#      x y z
#    x 1.849330 0.000000 -0.098970 
#    y 0.000000 1.944660 0.000000 
#    z -0.098970 0.000000 1.868940 
# 
# From -- ./inp_files/306430.got.cif
#   From: 2010.05.17/outbox.cif.g08.bks.cpg/sg15_154_cif.got.tgz:306430.got - 2010.06.03 18:47:42.
