data_PCOD9288027
_publ_section_title
;
Structure prediction by ZEFSAII (Michael W. Deem and Ramdas Pophale) SiO2 
 PCOD9288027
Probable space group: C 2/C
;
_chemical_formula_sum "Si O2"
_cell_formula_units_Z 52
_cell_length_a 31.102697
_cell_length_b 6.537304
_cell_length_c 14.431993
_cell_angle_alpha 90.000000
_cell_angle_beta 61.970172
_cell_angle_gamma 90.000000
_cell_volume 2590.226106
_symmetry_space_group_name_H-M "C 2/C"
_symmetry_group_IT_number 15
_symmetry_cell_setting 'monoclinic'
loop_
_space_group_symop_operation_xyz
x,y,z
-x,y,1/2-z
-x,-y,-z
x,-y,1/2+z
1/2+x,1/2+y,z
1/2-x,1/2+y,1/2-z
1/2-x,1/2-y,-z
1/2+x,1/2-y,1/2+z
loop_
_atom_site_type_symbol
_atom_site_label
_atom_site_fract_x
_atom_site_fract_y
_atom_site_fract_z
Si Si1 0.378344 0.661654 0.629920
Si Si2 0.426579 0.188078 0.903156
Si Si3 0.416753 0.427610 0.283269
Si Si4 0.660021 0.122777 0.052724
Si Si5 0.700769 0.336451 0.834439
Si Si6 0.694225 0.984777 0.712962
Si Si7 0.500000 0.116533 0.250000
O O1 0.417815 0.719415 0.513185
O O2 0.401659 0.541327 0.692444
O O3 0.335829 0.526918 0.626816
O O4 0.352013 0.861937 0.699279
O O5 0.431030 0.369025 0.823792
O O6 0.471283 0.031873 0.849065
O O7 0.378304 0.057025 0.928497
O O8 0.371258 0.318781 0.381217
O O9 0.460310 0.263021 0.243137
O O10 0.693738 0.053331 0.103747
O O11 0.687423 0.184054 0.931744
O O12 0.756287 0.400727 0.792087
O O13 0.692251 0.218685 0.746768
#
# Coordination Sequence:
#
# PCOD9288027 Si02
#       7
#     8   8   8   8   8   8   4
#     4  11  23  39  65  90 124 170 200 252 304 361
#     4  11  21  43  65  90 123 158 203 249 314 368
#     4  10  22  42  63  92 124 157 205 247 314 369
#     4  10  22  38  62  88 125 168 205 254 301 358
#     4  12  21  40  59  91 127 165 214 251 298 355
#     4  11  23  38  58  92 128 166 212 252 296 353
#     4  10  24  42  66  92 124 154 194 264 302 384
#
# _framework density 20.075468000000001
#
# number of rings (size 3 to 8) (size 9 to 14) (size 15 to 20)
#    0.000    1.231    4.615    1.846    0.000    0.615 
#    0.000    4.615    0.000    0.000    0.000    0.000 
#    0.000    0.000    0.000    0.000    0.000    0.000 
#
# Total GULP energy -145305.737008 kJ/mol
# GULP energy per Si atom -5588.682193 kJ/mol
# Density = 2.002978 g / cm^3
# Si number density = 20.075468 Si / 1000 Ang^3
#
#
#
# Elastic Constant Matrix: (Units=GPa)
#
#
# Indices 1 2 3 4 5 6 
#
# 1 44.1985 -3.5207 22.8788 0.0000 -6.4716 0.0000
# 2 -3.5207 55.0252 13.7231 0.0000 -8.1465 0.0000
# 3 22.8788 13.7231 70.9669 0.0000 5.6625 0.0000
# 4 0.0000 0.0000 0.0000 24.9270 0.0000 -5.6450
# 5 -6.4716 -8.1465 5.6625 0.0000 28.1297 0.0000
# 6 0.0000 0.0000 0.0000 -5.6450 0.0000 19.0805
#
#
#
# Elastic Compliance Matrix: (Units=1/GPa)
#
#
# Indices 1 2 3 4 5 6 
#
# 1 0.031244 0.006793 -0.012315 0.000000 0.011634 0.000000
# 2 0.006793 0.021767 -0.007141 0.000000 0.009304 0.000000
# 3 -0.012315 -0.007141 0.020157 0.000000 -0.008959 0.000000
# 4 0.000000 0.000000 0.000000 0.042998 0.000000 0.012721
# 5 0.011634 0.009304 -0.008959 0.000000 0.042724 0.000000
# 6 0.000000 0.000000 0.000000 0.012721 0.000000 0.056173
#
#
# Mechanical properties :
#
#
# Convention : Reuss Voigt Hill
#
# Bulk Modulus (GPa) = 20.90235 26.26143 23.58189
# Shear Modulus (GPa) = 19.50560 23.56807 21.53683
#
# Velocity S-wave (km/s) = 3.12045 3.43005 3.27891
# Velocity P-wave (km/s) = 4.83916 5.36626 5.10951
#
# Compressibility (1/GPa) = 0.04784151
#
# Stress axis : x y z
#
# Youngs Moduli (GPa) = 32.00580 45.94199 49.61076
#
# Poissons Ratio (x) = -0.31207 0.61094
# Poissons Ratio (y) = -0.21741 0.35429
# Poissons Ratio (z) = 0.39414 0.32809
#
# Static dielectric constant tensor:
#      x y z
#    x 1.681180 0.000000 0.001080 
#    y 0.000000 1.706970 0.000000 
#    z 0.001080 0.000000 1.694100 
# 
# From -- ./inp_files/180033.got.cif
#   From: 2010.05.17/outbox.cif.g08.bks.cpg/sg15_91_cif.got.tgz:180033.got - 2010.06.03 18:47:42.
