data_PCOD9288536
_publ_section_title
;
Structure prediction by ZEFSAII (Michael W. Deem and Ramdas Pophale) SiO2 
 PCOD9288536
Probable space group: C 2/C
;
_chemical_formula_sum "Si O2"
_cell_formula_units_Z 40
_cell_length_a 11.760960
_cell_length_b 22.663017
_cell_length_c 7.584528
_cell_angle_alpha 90.000000
_cell_angle_beta 60.313835
_cell_angle_gamma 90.000000
_cell_volume 1756.242315
_symmetry_space_group_name_H-M "C 2/C"
_symmetry_group_IT_number 15
_symmetry_cell_setting 'monoclinic'
loop_
_space_group_symop_operation_xyz
x,y,z
-x,y,1/2-z
-x,-y,-z
x,-y,1/2+z
1/2+x,1/2+y,z
1/2-x,1/2+y,1/2-z
1/2-x,1/2-y,-z
1/2+x,1/2-y,1/2+z
loop_
_atom_site_type_symbol
_atom_site_label
_atom_site_fract_x
_atom_site_fract_y
_atom_site_fract_z
Si Si1 0.137081 0.955590 0.558976
Si Si2 0.408195 0.916389 0.471048
Si Si3 0.860140 0.087543 0.845606
Si Si4 0.137536 0.711561 0.664322
Si Si5 0.103323 0.649260 0.049085
O O1 0.266910 0.945957 0.578380
O O2 0.162384 0.928004 0.345400
O O3 0.000000 0.933574 0.750000
O O4 0.122747 0.026316 0.561613
O O5 0.500000 0.945118 0.250000
O O6 0.376215 0.849340 0.433736
O O7 0.510096 0.904431 0.549683
O O8 0.736694 0.121939 0.018828
O O9 0.000000 0.119458 0.750000
O O10 0.250000 0.750000 0.500000
O O11 0.150369 0.690526 0.854248
O O12 0.000000 0.744373 0.750000
O O13 0.000000 0.682965 0.250000
#
# Coordination Sequence:
#
# PCOD9288536 Si02
#       5
#     8   8   8   8   8
#     4  11  22  36  56  85 128 163 212 250 296 356
#     4   9  19  39  57  85 119 155 202 250 298 371
#     4  11  23  38  54  89 129 168 206 250 298 354
#     4   9  19  41  64  89 118 149 200 250 311 376
#     4  10  22  39  61  89 124 157 202 258 305 357
#
# _framework density 22.775901999999999
#
# number of rings (size 3 to 8) (size 9 to 14) (size 15 to 20)
#    0.000    2.400    4.000    2.400    5.600    2.400 
#    0.000    4.000    0.000    1.200    0.000    0.000 
#    0.000    0.000    0.000    0.000    0.000    0.000 
#
# Total GULP energy -111572.180003 kJ/mol
# GULP energy per Si atom -5578.609000 kJ/mol
# Density = 2.272406 g / cm^3
# Si number density = 22.775902 Si / 1000 Ang^3
#
#
#
# Elastic Constant Matrix: (Units=GPa)
#
#
# Indices 1 2 3 4 5 6 
#
# 1 95.4289 11.5604 43.4677 0.0000 -42.7101 0.0000
# 2 11.5604 25.5091 34.2142 0.0000 -20.7779 0.0000
# 3 43.4677 34.2142 130.9410 0.0000 -36.9969 0.0000
# 4 0.0000 0.0000 0.0000 19.2395 0.0000 -6.2859
# 5 -42.7101 -20.7779 -36.9969 0.0000 63.3717 0.0000
# 6 0.0000 0.0000 0.0000 -6.2859 0.0000 -3.5800
#
#
#
# Elastic Compliance Matrix: (Units=1/GPa)
#
#
# Indices 1 2 3 4 5 6 
#
# 1 0.016443 0.007145 -0.004230 0.000000 0.010955 0.000000
# 2 0.007145 0.073348 -0.016025 0.000000 0.019509 0.000000
# 3 -0.004230 -0.016025 0.013099 0.000000 -0.000458 0.000000
# 4 0.000000 0.000000 0.000000 0.033029 0.000000 -0.057993
# 5 0.010955 0.019509 -0.000458 0.000000 0.029293 0.000000
# 6 0.000000 0.000000 0.000000 -0.057993 0.000000 -0.177502
#
#
# Mechanical properties :
#
#
# Convention : Reuss Voigt Hill
#
# Bulk Modulus (GPa) = 13.04286 47.81818 30.43052
# Shear Modulus (GPa) = 126.62231 26.64869 76.63550
#
# Velocity S-wave (km/s) = 7.46429 3.42429 5.80695
# Velocity P-wave (km/s) = 8.94575 6.05599 7.63877
#
# Compressibility (1/GPa) = 0.07667032
#
# Stress axis : x y z
#
# Youngs Moduli (GPa) = 60.81443 13.63365 76.34006
#
# Poissons Ratio (x) = -0.09742 0.32294
# Poissons Ratio (y) = -0.43454 1.22337
# Poissons Ratio (z) = 0.25726 0.21848
#
# Static dielectric constant tensor:
#      x y z
#    x 2.197360 0.000000 -0.052750 
#    y 0.000000 1.809090 0.000000 
#    z -0.052750 0.000000 2.015050 
# 
# From -- ./inp_files/33321.got.cif
#   From: 2010.05.17/outbox.cif.g08.bks.cpg/sg15_17_cif.got.tgz:33321.got - 2010.06.03 18:47:42.
