data_PCOD9288093
_publ_section_title
;
Structure prediction by ZEFSAII (Michael W. Deem and Ramdas Pophale) SiO2 
 PCOD9288093
Probable space group: C 2/C
;
_chemical_formula_sum "Si O2"
_cell_formula_units_Z 48
_cell_length_a 30.866972
_cell_length_b 5.180747
_cell_length_c 15.989238
_cell_angle_alpha 90.000000
_cell_angle_beta 116.995361
_cell_angle_gamma 90.000000
_cell_volume 2278.310848
_symmetry_space_group_name_H-M "C 2/C"
_symmetry_group_IT_number 15
_symmetry_cell_setting 'monoclinic'
loop_
_space_group_symop_operation_xyz
x,y,z
-x,y,1/2-z
-x,-y,-z
x,-y,1/2+z
1/2+x,1/2+y,z
1/2-x,1/2+y,1/2-z
1/2-x,1/2-y,-z
1/2+x,1/2-y,1/2+z
loop_
_atom_site_type_symbol
_atom_site_label
_atom_site_fract_x
_atom_site_fract_y
_atom_site_fract_z
Si Si1 0.282196 0.036386 0.287451
Si Si2 0.390539 0.599905 0.640962
Si Si3 0.357333 0.744846 0.438264
Si Si4 0.863977 0.855584 0.295300
Si Si5 0.554899 0.987627 0.080862
Si Si6 0.446596 0.878777 0.231326
O O1 0.251008 0.789305 0.231947
O O2 0.313417 0.948761 0.395623
O O3 0.325980 0.118695 0.263765
O O4 0.361088 0.608684 0.530031
O O5 0.362899 0.528438 0.702183
O O6 0.432119 0.383858 0.672147
O O7 0.411181 0.886792 0.675697
O O8 0.348577 0.547047 0.354929
O O9 0.409235 0.871100 0.458058
O O10 0.917601 0.752214 0.368119
O O11 0.554878 0.838355 0.169647
O O12 0.500000 0.000000 0.000000
O O13 0.500000 0.958572 0.250000
#
# Coordination Sequence:
#
# PCOD9288093 Si02
#       6
#     8   8   8   8   8   8
#     4  11  23  43  74  97 128 169 213 273 337 399
#     4  11  25  41  63  93 134 171 222 271 322 388
#     4  11  23  42  69  95 130 178 220 266 334 389
#     4  10  23  44  65  97 131 177 212 277 327 386
#     4  10  22  38  63  95 133 179 227 265 323 387
#     4  11  23  40  58  93 133 178 223 277 316 368
#
# _framework density 21.068241
#
# number of rings (size 3 to 8) (size 9 to 14) (size 15 to 20)
#    0.000    1.333    3.333    1.500    7.000    2.000 
#    0.000    1.667    0.000    0.000    0.000    0.000 
#    0.000    0.000    0.000    0.000    0.000    0.000 
#
# Total GULP energy -133948.672919 kJ/mol
# GULP energy per Si atom -5581.194705 kJ/mol
# Density = 2.102029 g / cm^3
# Si number density = 21.068241 Si / 1000 Ang^3
#
#
#
# Elastic Constant Matrix: (Units=GPa)
#
#
# Indices 1 2 3 4 5 6 
#
# 1 72.1151 30.3579 47.8389 0.0000 27.4950 0.0000
# 2 30.3579 86.5623 30.3642 -0.0001 9.3680 0.0002
# 3 47.8389 30.3642 105.7036 0.0000 -11.2214 0.0000
# 4 0.0000 -0.0001 0.0000 10.9704 0.0000 0.4361
# 5 27.4950 9.3680 -11.2214 0.0000 33.5686 0.0000
# 6 0.0000 0.0002 0.0000 0.4361 0.0000 27.0763
#
#
#
# Elastic Compliance Matrix: (Units=1/GPa)
#
#
# Indices 1 2 3 4 5 6 
#
# 1 0.057209 -0.003096 -0.030984 0.000000 -0.056352 0.000000
# 2 -0.003096 0.013877 -0.002827 0.000000 -0.002281 0.000000
# 3 -0.030984 -0.002827 0.028069 0.000000 0.035550 0.000000
# 4 0.000000 0.000000 0.000000 0.091213 0.000000 -0.001469
# 5 -0.056352 -0.002281 0.035550 0.000000 0.088466 0.000000
# 6 0.000000 0.000000 0.000000 -0.001469 0.000000 0.036956
#
#
# Mechanical properties :
#
#
# Convention : Reuss Voigt Hill
#
# Bulk Modulus (GPa) = 39.46376 53.50034 46.48205
# Shear Modulus (GPa) = 12.56116 24.71105 18.63611
#
# Velocity S-wave (km/s) = 2.44440 3.42849 2.97738
# Velocity P-wave (km/s) = 5.17096 6.41262 5.82497
#
# Compressibility (1/GPa) = 0.02533970
#
# Stress axis : x y z
#
# Youngs Moduli (GPa) = 17.47976 72.06225 35.62630
#
# Poissons Ratio (x) = 0.22314 1.10385
# Poissons Ratio (y) = 0.05413 0.10072
# Poissons Ratio (z) = 0.54160 0.20372
#
# Static dielectric constant tensor:
#      x y z
#    x 1.774270 0.000000 -0.008300 
#    y 0.000000 1.850450 0.000000 
#    z -0.008300 0.000000 1.754070 
# 
# From -- ./inp_files/179788.got.cif
#   From: 2010.05.17/outbox.cif.g08.bks.cpg/sg15_90_cif.got.tgz:179788.got - 2010.06.03 18:47:42.
