data_PCOD9288652
_publ_section_title
;
Structure prediction by ZEFSAII (Michael W. Deem and Ramdas Pophale) SiO2 
 PCOD9288652
Probable space group: C 2/C
;
_chemical_formula_sum "Si O2"
_cell_formula_units_Z 40
_cell_length_a 28.554070
_cell_length_b 5.536646
_cell_length_c 11.964902
_cell_angle_alpha 90.000000
_cell_angle_beta 113.930630
_cell_angle_gamma 90.000000
_cell_volume 1728.971409
_symmetry_space_group_name_H-M "C 2/C"
_symmetry_group_IT_number 15
_symmetry_cell_setting 'monoclinic'
loop_
_space_group_symop_operation_xyz
x,y,z
-x,y,1/2-z
-x,-y,-z
x,-y,1/2+z
1/2+x,1/2+y,z
1/2-x,1/2+y,1/2-z
1/2-x,1/2-y,-z
1/2+x,1/2-y,1/2+z
loop_
_atom_site_type_symbol
_atom_site_label
_atom_site_fract_x
_atom_site_fract_y
_atom_site_fract_z
Si Si1 0.455159 0.380352 0.797257
Si Si2 0.322768 0.854002 0.656623
Si Si3 0.777485 0.951925 0.452223
Si Si4 0.375629 0.232903 0.547001
Si Si5 0.429595 0.127835 0.385566
O O1 0.500000 0.374397 0.750000
O O2 0.403469 0.383171 0.671745
O O3 0.457742 0.628215 0.870817
O O4 0.452212 0.128178 0.864558
O O5 0.299726 0.629000 0.568529
O O6 0.371917 0.845889 0.781953
O O7 0.270835 0.953780 0.665182
O O8 0.345433 0.019978 0.578683
O O9 0.750000 0.750000 0.500000
O O10 0.829772 0.877535 0.441811
O O11 0.419691 0.137700 0.508037
#
# Coordination Sequence:
#
# PCOD9288652 Si02
#       5
#     8   8   8   8   8
#     4  11  25  44  65  92 124 158 207 267 316 369
#     4   9  19  38  58  87 128 161 204 251 300 365
#     4   9  17  36  60  84 125 166 199 253 303 354
#     4  10  22  39  63  88 128 163 206 256 306 366
#     4  11  24  41  67  92 121 166 207 252 316 371
#
# _framework density 23.135141000000001
#
# number of rings (size 3 to 8) (size 9 to 14) (size 15 to 20)
#    0.000    2.000    2.000    0.600    2.800    1.600 
#   10.800    0.000    0.000    0.000    0.000    0.000 
#    0.000    0.000    0.000    0.000    0.000    0.000 
#
# Total GULP energy -111448.764330 kJ/mol
# GULP energy per Si atom -5572.438217 kJ/mol
# Density = 2.308248 g / cm^3
# Si number density = 23.135141 Si / 1000 Ang^3
#
#
#
# Elastic Constant Matrix: (Units=GPa)
#
#
# Indices 1 2 3 4 5 6 
#
# 1 121.4344 54.1712 15.2048 0.0000 -6.4139 0.0000
# 2 54.1712 93.8458 16.9802 0.0000 0.6715 0.0000
# 3 15.2048 16.9802 28.9621 0.0000 0.4970 0.0000
# 4 0.0000 0.0000 0.0000 19.1863 0.0000 2.2343
# 5 -6.4139 0.6715 0.4970 0.0000 40.8220 0.0000
# 6 0.0000 0.0000 0.0000 2.2343 0.0000 37.4845
#
#
#
# Elastic Compliance Matrix: (Units=1/GPa)
#
#
# Indices 1 2 3 4 5 6 
#
# 1 0.011379 -0.006148 -0.002403 0.000000 0.001918 0.000000
# 2 -0.006148 0.015242 -0.005689 0.000000 -0.001147 0.000000
# 3 -0.002403 -0.005689 0.039138 0.000000 -0.000760 0.000000
# 4 0.000000 0.000000 0.000000 0.052485 0.000000 -0.003128
# 5 0.001918 -0.001147 -0.000760 0.000000 0.024826 0.000000
# 6 0.000000 0.000000 0.000000 -0.003128 0.000000 0.026864
#
#
# Mechanical properties :
#
#
# Convention : Reuss Voigt Hill
#
# Bulk Modulus (GPa) = 26.82377 46.32829 36.57603
# Shear Modulus (GPa) = 23.71464 30.02429 26.86946
#
# Velocity S-wave (km/s) = 3.20511 3.60638 3.41165
# Velocity P-wave (km/s) = 5.03155 6.11636 5.60028
#
# Compressibility (1/GPa) = 0.03728037
#
# Stress axis : x y z
#
# Youngs Moduli (GPa) = 87.87734 65.60824 25.55074
#
# Poissons Ratio (x) = 0.40334 0.06139
# Poissons Ratio (y) = 0.54024 0.14536
# Poissons Ratio (z) = 0.21115 0.37325
#
# Static dielectric constant tensor:
#      x y z
#    x 1.874310 0.000000 0.052970 
#    y 0.000000 1.975360 0.000000 
#    z 0.052970 0.000000 1.937190 
# 
# From -- ./inp_files/120706.got.cif
#   From: 2010.05.17/outbox.cif.g08.bks.cpg/sg15_61_cif.got.tgz:120706.got - 2010.06.03 18:47:42.
