data_PCOD9288747
_publ_section_title
;
Structure prediction by ZEFSAII (Michael W. Deem and Ramdas Pophale) SiO2 
 PCOD9288747
Probable space group: C 2/C
;
_chemical_formula_sum "Si O2"
_cell_formula_units_Z 44
_cell_length_a 14.541703
_cell_length_b 10.813605
_cell_length_c 19.757979
_cell_angle_alpha 90.000000
_cell_angle_beta 39.897844
_cell_angle_gamma 90.000000
_cell_volume 1992.834833
_symmetry_space_group_name_H-M "C 2/C"
_symmetry_group_IT_number 15
_symmetry_cell_setting 'monoclinic'
loop_
_space_group_symop_operation_xyz
x,y,z
-x,y,1/2-z
-x,-y,-z
x,-y,1/2+z
1/2+x,1/2+y,z
1/2-x,1/2+y,1/2-z
1/2-x,1/2-y,-z
1/2+x,1/2-y,1/2+z
loop_
_atom_site_type_symbol
_atom_site_label
_atom_site_fract_x
_atom_site_fract_y
_atom_site_fract_z
Si Si1 0.000000 0.452011 0.750000
Si Si2 0.990307 0.942831 0.337059
Si Si3 0.744318 0.380115 0.710112
Si Si4 0.792691 0.559281 0.030176
Si Si5 0.463392 0.178747 0.699282
Si Si6 0.052793 0.324878 0.592030
O O1 0.902179 0.549984 0.764276
O O2 0.085626 0.369403 0.649834
O O3 0.945528 0.822443 0.405292
O O4 0.000000 0.915499 0.250000
O O5 0.140732 0.001227 0.275974
O O6 0.864207 0.044444 0.413335
O O7 0.786820 0.380218 0.606786
O O8 0.645491 0.261266 0.779925
O O9 0.890843 0.366057 0.667229
O O10 0.901018 0.633945 0.920820
O O11 0.848476 0.416482 0.007473
O O12 0.500000 0.246555 0.750000
#
# Coordination Sequence:
#
# PCOD9288747 Si02
#       6
#     4   8   8   8   8   8
#     4   8  20  38  60  84 120 168 198 238 318 362
#     4  10  22  39  64  92 128 169 208 247 310 377
#     4  11  24  38  65  98 124 161 210 267 308 358
#     4  10  22  42  64  91 124 168 214 247 312 380
#     4   9  20  40  66  85 123 164 205 255 310 367
#     4  11  21  41  63  90 130 162 208 259 310 366
#
# _framework density 22.079101000000001
#
# number of rings (size 3 to 8) (size 9 to 14) (size 15 to 20)
#    0.545    1.455    0.909    2.727    5.091    2.909 
#    0.000    0.000    0.000    6.545    0.000    0.000 
#    0.000    0.000    0.000    0.000    0.000    0.000 
#
# Total GULP energy -122609.922137 kJ/mol
# GULP energy per Si atom -5573.178279 kJ/mol
# Density = 2.202885 g / cm^3
# Si number density = 22.079101 Si / 1000 Ang^3
#
#
#
# Elastic Constant Matrix: (Units=GPa)
#
#
# Indices 1 2 3 4 5 6 
#
# 1 49.8270 21.6775 18.5608 0.0000 -22.3253 0.0000
# 2 21.6775 81.0896 30.4535 0.0000 0.7550 0.0000
# 3 18.5608 30.4535 97.5014 0.0000 -7.0572 0.0000
# 4 0.0000 0.0000 0.0000 24.1263 0.0000 -7.0212
# 5 -22.3253 0.7550 -7.0572 0.0000 26.0006 0.0000
# 6 0.0000 0.0000 0.0000 -7.0212 0.0000 20.8232
#
#
#
# Elastic Compliance Matrix: (Units=1/GPa)
#
#
# Indices 1 2 3 4 5 6 
#
# 1 0.041130 -0.010576 -0.001987 0.000000 0.035084 0.000000
# 2 -0.010576 0.016757 -0.003992 0.000000 -0.010651 0.000000
# 3 -0.001987 -0.003992 0.012002 0.000000 0.001667 0.000000
# 4 0.000000 0.000000 0.000000 0.045958 0.000000 0.015496
# 5 0.035084 -0.010651 0.001667 0.000000 0.069347 0.000000
# 6 0.000000 0.000000 0.000000 0.015496 0.000000 0.053248
#
#
# Mechanical properties :
#
#
# Convention : Reuss Voigt Hill
#
# Bulk Modulus (GPa) = 27.18814 41.08906 34.13860
# Shear Modulus (GPa) = 17.61727 24.70511 21.16119
#
# Velocity S-wave (km/s) = 2.82781 3.34868 3.09920
# Velocity P-wave (km/s) = 4.79611 5.79671 5.31999
#
# Compressibility (1/GPa) = 0.03678075
#
# Stress axis : x y z
#
# Youngs Moduli (GPa) = 24.31303 59.67501 83.31955
#
# Poissons Ratio (x) = 0.63110 0.16557
# Poissons Ratio (y) = 0.25712 0.33259
# Poissons Ratio (z) = 0.04831 0.23820
#
# Static dielectric constant tensor:
#      x y z
#    x 1.840470 0.000000 -0.011000 
#    y 0.000000 1.857160 0.000000 
#    z -0.011000 0.000000 1.817270 
# 
# From -- ./inp_files/243607.got.cif
#   From: 2010.05.17/outbox.cif.g08.bks.cpg/sg15_122_cif.got.tgz:243607.got - 2010.06.03 18:47:42.
