data_PCOD9288005
_publ_section_title
;
Structure prediction by ZEFSAII (Michael W. Deem and Ramdas Pophale) SiO2 
 PCOD9288005
Probable space group: C 2/C
;
_chemical_formula_sum "Si O2"
_cell_formula_units_Z 52
_cell_length_a 11.427034
_cell_length_b 26.589564
_cell_length_c 8.747396
_cell_angle_alpha 90.000000
_cell_angle_beta 85.602175
_cell_angle_gamma 90.000000
_cell_volume 2649.982026
_symmetry_space_group_name_H-M "C 2/C"
_symmetry_group_IT_number 15
_symmetry_cell_setting 'monoclinic'
loop_
_space_group_symop_operation_xyz
x,y,z
-x,y,1/2-z
-x,-y,-z
x,-y,1/2+z
1/2+x,1/2+y,z
1/2-x,1/2+y,1/2-z
1/2-x,1/2-y,-z
1/2+x,1/2-y,1/2+z
loop_
_atom_site_type_symbol
_atom_site_label
_atom_site_fract_x
_atom_site_fract_y
_atom_site_fract_z
Si Si1 0.333135 0.629163 0.885581
Si Si2 0.220567 0.944010 0.554874
Si Si3 0.124344 0.376484 0.161046
Si Si4 0.636730 0.648147 0.262486
Si Si5 0.330975 0.788046 0.580978
Si Si6 0.000000 0.217299 0.750000
Si Si7 0.123925 0.978701 0.257152
O O1 0.216469 0.632621 0.791064
O O2 0.408939 0.678300 0.834721
O O3 0.381941 0.574762 0.828708
O O4 0.334885 0.629678 0.069001
O O5 0.330794 0.922522 0.449659
O O6 0.158578 0.896606 0.639657
O O7 0.141158 0.967902 0.431915
O O8 0.228980 0.987339 0.680503
O O9 0.000000 0.385284 0.250000
O O10 0.123879 0.329681 0.043499
O O11 0.500000 0.664912 0.250000
O O12 0.740814 0.687227 0.211563
O O13 0.250000 0.750000 0.500000
O O14 0.433680 0.754801 0.642627
O O15 0.000000 0.006209 0.250000
#
# Coordination Sequence:
#
# PCOD9288005 Si02
#       7
#     8   8   8   8   8   4   8
#     4  11  23  40  66  93 131 170 210 267 328 376
#     4  10  22  38  61  98 126 167 213 263 321 382
#     4  10  24  45  65  89 134 172 220 267 317 377
#     4  11  23  39  62  95 132 164 211 266 322 386
#     4  11  24  42  63  91 127 172 216 269 321 381
#     4  12  24  42  64  94 134 164 224 270 316 378
#     4  11  19  35  64  94 131 167 204 264 328 384
#
# _framework density 19.622774
#
# number of rings (size 3 to 8) (size 9 to 14) (size 15 to 20)
#    0.000    1.231    2.308    3.692    4.308    2.462 
#    0.000    3.077    0.000    0.000    0.000    0.000 
#    0.000    0.000    0.000    0.000    0.000    0.000 
#
# Total GULP energy -145003.444859 kJ/mol
# GULP energy per Si atom -5577.055572 kJ/mol
# Density = 1.957811 g / cm^3
# Si number density = 19.622774 Si / 1000 Ang^3
#
#
#
# Elastic Constant Matrix: (Units=GPa)
#
#
# Indices 1 2 3 4 5 6 
#
# 1 120.3075 40.9228 48.0514 0.0000 -12.0804 0.0000
# 2 40.9228 75.0643 17.3894 0.0000 -8.1036 0.0000
# 3 48.0514 17.3894 104.3302 0.0000 -8.0462 0.0000
# 4 0.0000 0.0000 0.0000 27.1146 0.0000 1.9961
# 5 -12.0804 -8.1036 -8.0462 0.0000 31.1079 0.0000
# 6 0.0000 0.0000 0.0000 1.9961 0.0000 11.4620
#
#
#
# Elastic Compliance Matrix: (Units=1/GPa)
#
#
# Indices 1 2 3 4 5 6 
#
# 1 0.012161 -0.005345 -0.004544 0.000000 0.002155 0.000000
# 2 -0.005345 0.016500 -0.000120 0.000000 0.002192 0.000000
# 3 -0.004544 -0.000120 0.011795 0.000000 0.001255 0.000000
# 4 0.000000 0.000000 0.000000 0.037359 0.000000 -0.006506
# 5 0.002155 0.002192 0.001255 0.000000 0.033879 0.000000
# 6 0.000000 0.000000 0.000000 -0.006506 0.000000 0.088377
#
#
# Mechanical properties :
#
#
# Convention : Reuss Voigt Hill
#
# Bulk Modulus (GPa) = 48.92552 56.93658 52.93105
# Shear Modulus (GPa) = 22.03603 26.82614 24.43108
#
# Velocity S-wave (km/s) = 3.35473 3.70143 3.53234
# Velocity P-wave (km/s) = 6.32398 6.88084 6.60828
#
# Compressibility (1/GPa) = 0.02043923
#
# Stress axis : x y z
#
# Youngs Moduli (GPa) = 82.22760 60.60624 84.78493
#
# Poissons Ratio (x) = 0.32392 0.38527
# Poissons Ratio (y) = 0.43948 0.01013
# Poissons Ratio (z) = 0.37365 0.00724
#
# Static dielectric constant tensor:
#      x y z
#    x 1.697990 0.000000 -0.068760 
#    y 0.000000 1.729500 0.000000 
#    z -0.068760 0.000000 1.800900 
# 
# From -- ./inp_files/33554.got.cif
#   From: 2010.05.17/outbox.cif.g08.bks.cpg/sg15_17_cif.got.tgz:33554.got - 2010.06.03 18:47:42.
