data_PCOD9288897
_publ_section_title
;
Structure prediction by ZEFSAII (Michael W. Deem and Ramdas Pophale) SiO2 
 PCOD9288897
Probable space group: C 2/C
;
_chemical_formula_sum "Si O2"
_cell_formula_units_Z 52
_cell_length_a 9.047870
_cell_length_b 13.279980
_cell_length_c 23.716683
_cell_angle_alpha 90.000000
_cell_angle_beta 132.876737
_cell_angle_gamma 90.000000
_cell_volume 2088.308106
_symmetry_space_group_name_H-M "C 2/C"
_symmetry_group_IT_number 15
_symmetry_cell_setting 'monoclinic'
loop_
_space_group_symop_operation_xyz
x,y,z
-x,y,1/2-z
-x,-y,-z
x,-y,1/2+z
1/2+x,1/2+y,z
1/2-x,1/2+y,1/2-z
1/2-x,1/2-y,-z
1/2+x,1/2-y,1/2+z
loop_
_atom_site_type_symbol
_atom_site_label
_atom_site_fract_x
_atom_site_fract_y
_atom_site_fract_z
Si Si1 0.614933 0.335724 0.023506
Si Si2 0.000000 0.532071 0.250000
Si Si3 0.765514 0.472696 0.886722
Si Si4 0.075582 0.087953 0.631850
Si Si5 0.094086 0.274682 0.718941
Si Si6 0.961580 0.631623 0.536241
Si Si7 0.045878 0.780495 0.818714
O O1 0.528291 0.398352 0.052745
O O2 0.741458 0.384933 0.006274
O O3 0.801224 0.276521 0.101836
O O4 0.483718 0.247885 0.960537
O O5 0.208488 0.469116 0.305543
O O6 0.000194 0.612333 0.197203
O O7 0.593591 0.523948 0.880090
O O8 0.657176 0.382042 0.827465
O O9 0.880033 0.565544 0.887962
O O10 0.936102 0.413604 0.967021
O O11 0.070111 0.199076 0.660218
O O12 0.331005 0.293905 0.791145
O O13 0.000000 0.223038 0.750000
O O14 0.000000 0.721000 0.750000
#
# Coordination Sequence:
#
# PCOD9288897 Si02
#       7
#     8   4   8   8   8   8   8
#     4  10  22  39  67  88 127 169 214 280 328 391
#     4  10  24  44  60 102 144 166 224 272 340 422
#     4  10  22  40  64  90 127 169 224 266 330 402
#     4  12  22  41  67  95 127 182 215 271 346 395
#     4  10  23  41  58  97 138 170 213 270 330 412
#     4   9  22  44  60  93 123 168 227 275 321 392
#     4  11  20  40  62  92 129 164 213 270 338 400
#
# _framework density 24.900538999999998
#
# number of rings (size 3 to 8) (size 9 to 14) (size 15 to 20)
#    0.462    1.231    3.077    0.923    2.154    3.077 
#    5.538    0.000    0.000    0.000    0.000    0.000 
#    0.000    0.000    0.000    0.000    0.000    0.000 
#
# Total GULP energy -144989.188794 kJ/mol
# GULP energy per Si atom -5576.507261 kJ/mol
# Density = 2.484386 g / cm^3
# Si number density = 24.900539 Si / 1000 Ang^3
#
#
#
# Elastic Constant Matrix: (Units=GPa)
#
#
# Indices 1 2 3 4 5 6 
#
# 1 58.1402 19.8009 -15.1790 0.0000 6.7954 0.0000
# 2 19.8009 108.8412 21.8096 0.0000 8.8509 0.0000
# 3 -15.1790 21.8096 37.9013 0.0000 -6.2951 0.0000
# 4 0.0000 0.0000 0.0000 27.7108 0.0000 7.3363
# 5 6.7954 8.8509 -6.2951 0.0000 36.2567 0.0000
# 6 0.0000 0.0000 0.0000 7.3363 0.0000 29.3381
#
#
#
# Elastic Compliance Matrix: (Units=1/GPa)
#
#
# Indices 1 2 3 4 5 6 
#
# 1 0.022938 -0.006747 0.013003 0.000000 -0.000395 0.000000
# 2 -0.006747 0.012869 -0.010728 0.000000 -0.003740 0.000000
# 3 0.013003 -0.010728 0.038918 0.000000 0.006939 0.000000
# 4 0.000000 0.000000 0.000000 0.038645 0.000000 -0.009664
# 5 -0.000395 -0.003740 0.006939 0.000000 0.029773 0.000000
# 6 0.000000 0.000000 0.000000 -0.009664 0.000000 0.036502
#
#
# Mechanical properties :
#
#
# Convention : Reuss Voigt Hill
#
# Bulk Modulus (GPa) = 15.20174 28.63841 21.92008
# Shear Modulus (GPa) = 23.75119 30.55786 27.15453
#
# Velocity S-wave (km/s) = 3.09178 3.50694 3.30588
# Velocity P-wave (km/s) = 4.34324 5.28434 4.83673
#
# Compressibility (1/GPa) = 0.06578193
#
# Stress axis : x y z
#
# Youngs Moduli (GPa) = 43.59501 77.70672 25.69517
#
# Poissons Ratio (x) = 0.52425 -0.33412
# Poissons Ratio (y) = 0.29412 0.27566
# Poissons Ratio (z) = -0.56687 0.83366
#
# Static dielectric constant tensor:
#      x y z
#    x 2.035680 0.000000 -0.048800 
#    y 0.000000 2.064720 0.000000 
#    z -0.048800 0.000000 2.025940 
# 
# From -- ./inp_files/288913.got.cif
#   From: 2010.05.17/outbox.cif.g08.bks.cpg/sg15_145_cif.got.tgz:288913.got - 2010.06.03 18:47:42.
