data_PCOD9288763
_publ_section_title
;
Structure prediction by ZEFSAII (Michael W. Deem and Ramdas Pophale) SiO2 
 PCOD9288763
Probable space group: C 2/C
;
_chemical_formula_sum "Si O2"
_cell_formula_units_Z 44
_cell_length_a 18.663381
_cell_length_b 15.252638
_cell_length_c 8.775848
_cell_angle_alpha 90.000000
_cell_angle_beta 75.592396
_cell_angle_gamma 90.000000
_cell_volume 2419.616232
_symmetry_space_group_name_H-M "C 2/C"
_symmetry_group_IT_number 15
_symmetry_cell_setting 'monoclinic'
loop_
_space_group_symop_operation_xyz
x,y,z
-x,y,1/2-z
-x,-y,-z
x,-y,1/2+z
1/2+x,1/2+y,z
1/2-x,1/2+y,1/2-z
1/2-x,1/2-y,-z
1/2+x,1/2-y,1/2+z
loop_
_atom_site_type_symbol
_atom_site_label
_atom_site_fract_x
_atom_site_fract_y
_atom_site_fract_z
Si Si1 0.500000 0.995160 0.750000
Si Si2 0.246760 0.155077 0.580244
Si Si3 0.482041 0.699780 0.081279
Si Si4 0.116868 0.056567 0.522621
Si Si5 0.114166 0.879440 0.351582
Si Si6 0.414430 0.111237 0.554028
O O1 0.444008 0.056253 0.683136
O O2 0.546614 0.934896 0.610359
O O3 0.250000 0.250000 0.500000
O O4 0.200697 0.092476 0.490120
O O5 0.193593 0.158021 0.757714
O O6 0.326408 0.116708 0.578476
O O7 0.500000 0.699554 0.250000
O O8 0.441355 0.788984 0.057971
O O9 0.431220 0.616875 0.063530
O O10 0.556966 0.691158 0.943451
O O11 0.087294 0.075180 0.708487
O O12 0.117135 0.956523 0.473363
#
# Coordination Sequence:
#
# PCOD9288763 Si02
#       6
#     4   8   8   8   8   8
#     4  10  26  42  66  88 124 166 220 262 308 370
#     4  10  23  40  66  92 129 163 212 251 321 372
#     4  12  23  40  65  92 132 166 216 256 318 386
#     4  10  22  39  64  95 130 163 205 257 321 375
#     4  10  23  39  65  97 124 171 200 266 314 378
#     4  11  23  44  64  93 121 170 212 265 312 373
#
# _framework density 18.184701
#
# number of rings (size 3 to 8) (size 9 to 14) (size 15 to 20)
#    1.091    0.364    2.727    2.182    7.636    0.000 
#    0.000    0.909    0.000    0.000    0.000    0.000 
#    0.000    0.000    0.000    0.000    0.000    0.000 
#
# Total GULP energy -122682.695994 kJ/mol
# GULP energy per Si atom -5576.486182 kJ/mol
# Density = 1.814331 g / cm^3
# Si number density = 18.184701 Si / 1000 Ang^3
#
#
#
# Elastic Constant Matrix: (Units=GPa)
#
#
# Indices 1 2 3 4 5 6 
#
# 1 146.1857 14.6115 35.6816 0.0000 -13.9294 0.0000
# 2 14.6115 15.5169 10.6041 0.0000 -8.5701 0.0000
# 3 35.6816 10.6041 83.3728 0.0000 -11.4728 0.0000
# 4 0.0000 0.0000 0.0000 17.5249 0.0000 -2.1852
# 5 -13.9294 -8.5701 -11.4728 0.0000 20.6705 0.0000
# 6 0.0000 0.0000 0.0000 -2.1852 0.0000 27.6747
#
#
#
# Elastic Compliance Matrix: (Units=1/GPa)
#
#
# Indices 1 2 3 4 5 6 
#
# 1 0.008147 -0.004748 -0.002597 0.000000 0.002080 0.000000
# 2 -0.004748 0.089575 -0.005078 0.000000 0.031120 0.000000
# 3 -0.002597 -0.005078 0.014314 0.000000 0.004090 0.000000
# 4 0.000000 0.000000 0.000000 0.057629 0.000000 0.004550
# 5 0.002080 0.031120 0.004090 0.000000 0.064952 0.000000
# 6 0.000000 0.000000 0.000000 0.004550 0.000000 0.036493
#
#
# Mechanical properties :
#
#
# Convention : Reuss Voigt Hill
#
# Bulk Modulus (GPa) = 11.46923 40.76332 26.11627
# Shear Modulus (GPa) = 15.38362 25.45259 20.41810
#
# Velocity S-wave (km/s) = 2.91170 3.74528 3.35448
# Velocity P-wave (km/s) = 4.19819 6.41621 5.42183
#
# Compressibility (1/GPa) = 0.08718983
#
# Stress axis : x y z
#
# Youngs Moduli (GPa) = 122.74090 11.16381 69.86031
#
# Poissons Ratio (x) = 0.05301 0.18140
# Poissons Ratio (y) = 0.58282 0.35478
# Poissons Ratio (z) = 0.31871 0.05669
#
# Static dielectric constant tensor:
#      x y z
#    x 1.627810 0.000000 0.005060 
#    y 0.000000 1.600540 0.000000 
#    z 0.005060 0.000000 1.628590 
# 
# From -- ./inp_files/47075.got.cif
#   From: 2010.05.17/outbox.cif.g08.bks.cpg/sg15_24_cif.got.tgz:47075.got - 2010.06.03 18:47:42.
