data_PCOD9288625
_publ_section_title
;
Structure prediction by ZEFSAII (Michael W. Deem and Ramdas Pophale) SiO2 
 PCOD9288625
Probable space group: C 2/C
;
_chemical_formula_sum "Si O2"
_cell_formula_units_Z 64
_cell_length_a 21.268757
_cell_length_b 7.920336
_cell_length_c 14.195655
_cell_angle_alpha 90.000000
_cell_angle_beta 81.405027
_cell_angle_gamma 90.000000
_cell_volume 2364.483085
_symmetry_space_group_name_H-M "C 2/C"
_symmetry_group_IT_number 15
_symmetry_cell_setting 'monoclinic'
loop_
_space_group_symop_operation_xyz
x,y,z
-x,y,1/2-z
-x,-y,-z
x,-y,1/2+z
1/2+x,1/2+y,z
1/2-x,1/2+y,1/2-z
1/2-x,1/2-y,-z
1/2+x,1/2-y,1/2+z
loop_
_atom_site_type_symbol
_atom_site_label
_atom_site_fract_x
_atom_site_fract_y
_atom_site_fract_z
Si Si1 0.943994 0.734917 0.933527
Si Si2 0.747687 0.064018 0.124151
Si Si3 0.360034 0.905904 0.596657
Si Si4 0.115056 0.571627 0.726847
Si Si5 0.427195 0.219282 0.491463
Si Si6 0.381548 0.430526 0.663236
Si Si7 0.917173 0.943887 0.331536
Si Si8 0.770189 0.960358 0.396954
O O1 0.931311 0.605468 0.850488
O O2 0.954660 0.911107 0.878539
O O3 0.004089 0.683256 0.981843
O O4 0.885919 0.736430 0.021234
O O5 0.809270 0.008636 0.169146
O O6 0.741254 0.267605 0.134353
O O7 0.684059 0.970260 0.169009
O O8 0.760688 0.033551 0.011345
O O9 0.394755 0.933386 0.688725
O O10 0.378567 0.073351 0.531332
O O11 0.284636 0.916917 0.630353
O O12 0.115792 0.749052 0.783760
O O13 0.405000 0.384848 0.554168
O O14 0.425615 0.269513 0.383351
O O15 0.424222 0.551772 0.717987
O O16 0.843092 0.999093 0.359830
#
# Coordination Sequence:
#
# PCOD9288625 Si02
#       8
#     8   8   8   8   8   8   8   8
#     4  11  25  43  65  95 134 172 225 277 326 394
#     4  11  19  39  63  94 133 170 215 267 328 407
#     4  11  22  44  67  99 128 175 220 280 334 393
#     4  10  22  39  62  94 132 171 221 269 335 395
#     4  11  22  46  70  90 129 180 227 266 331 400
#     4  10  22  39  64  96 128 178 220 271 338 392
#     4  11  24  41  65  99 131 175 220 273 335 396
#     4  11  20  38  69  91 132 172 212 264 339 393
#
# _framework density 27.067226000000002
#
# number of rings (size 3 to 8) (size 9 to 14) (size 15 to 20)
#    0.000    1.250    5.000    2.250    0.000    5.000 
#    4.500    0.000    0.000    0.000    0.000    0.000 
#    0.000    0.000    0.000    0.000    0.000    0.000 
#
# Total GULP energy -179470.189422 kJ/mol
# GULP energy per Si atom -5608.443419 kJ/mol
# Density = 2.700562 g / cm^3
# Si number density = 27.067226 Si / 1000 Ang^3
#
#
#
# Elastic Constant Matrix: (Units=GPa)
#
#
# Indices 1 2 3 4 5 6 
#
# 1 117.2906 10.8637 20.3798 0.0000 14.3876 0.0000
# 2 10.8637 97.8917 28.0644 0.0000 0.1881 0.0000
# 3 20.3798 28.0644 127.2661 0.0000 17.1457 0.0000
# 4 0.0000 0.0000 0.0000 39.0583 0.0000 -2.9058
# 5 14.3876 0.1881 17.1457 0.0000 37.0643 0.0000
# 6 0.0000 0.0000 0.0000 -2.9058 0.0000 19.1428
#
#
#
# Elastic Compliance Matrix: (Units=1/GPa)
#
#
# Indices 1 2 3 4 5 6 
#
# 1 0.009132 -0.000757 -0.000873 0.000000 -0.003137 0.000000
# 2 -0.000757 0.011012 -0.002495 0.000000 0.001392 0.000000
# 3 -0.000873 -0.002495 0.009065 0.000000 -0.003842 0.000000
# 4 0.000000 0.000000 0.000000 0.025895 0.000000 0.003931
# 5 -0.003137 0.001392 -0.003842 0.000000 0.029968 0.000000
# 6 0.000000 0.000000 0.000000 0.003931 0.000000 0.052836
#
#
# Mechanical properties :
#
#
# Convention : Reuss Voigt Hill
#
# Bulk Modulus (GPa) = 47.70952 51.22935 49.46943
# Shear Modulus (GPa) = 32.64889 37.92910 35.28900
#
# Velocity S-wave (km/s) = 3.47683 3.74745 3.61467
# Velocity P-wave (km/s) = 5.81226 6.13940 5.97807
#
# Compressibility (1/GPa) = 0.02096018
#
# Stress axis : x y z
#
# Youngs Moduli (GPa) = 109.49939 90.81074 110.31422
#
# Poissons Ratio (x) = 0.06877 0.09628
# Poissons Ratio (y) = 0.08292 0.27519
# Poissons Ratio (z) = 0.09557 0.22654
#
# Static dielectric constant tensor:
#      x y z
#    x 2.112560 0.000000 -0.024140 
#    y 0.000000 2.111860 0.000000 
#    z -0.024140 0.000000 2.123440 
# 
# From -- ./inp_files/172409.got.cif
#   From: 2010.05.17/outbox.cif.g08.bks.cpg/sg15_87_cif.got.tgz:172409.got - 2010.06.03 18:47:42.
