data_PCOD9288345
_publ_section_title
;
Structure prediction by ZEFSAII (Michael W. Deem and Ramdas Pophale) SiO2 
 PCOD9288345
Probable space group: C 2/C
;
_chemical_formula_sum "Si O2"
_cell_formula_units_Z 48
_cell_length_a 17.213559
_cell_length_b 11.701156
_cell_length_c 11.279862
_cell_angle_alpha 90.000000
_cell_angle_beta 54.290413
_cell_angle_gamma 90.000000
_cell_volume 1844.810248
_symmetry_space_group_name_H-M "C 2/C"
_symmetry_group_IT_number 15
_symmetry_cell_setting 'monoclinic'
loop_
_space_group_symop_operation_xyz
x,y,z
-x,y,1/2-z
-x,-y,-z
x,-y,1/2+z
1/2+x,1/2+y,z
1/2-x,1/2+y,1/2-z
1/2-x,1/2-y,-z
1/2+x,1/2-y,1/2+z
loop_
_atom_site_type_symbol
_atom_site_label
_atom_site_fract_x
_atom_site_fract_y
_atom_site_fract_z
Si Si1 0.396753 0.901609 0.682260
Si Si2 0.161672 0.641736 0.687360
Si Si3 0.552936 0.372261 0.821339
Si Si4 0.754666 0.536263 0.103395
Si Si5 0.741750 0.785603 0.363528
Si Si6 0.032905 0.210556 0.587219
O O1 0.344634 0.933999 0.606320
O O2 0.331973 0.796665 0.787290
O O3 0.499065 0.841401 0.590783
O O4 0.392446 0.020132 0.755332
O O5 0.087207 0.744784 0.753044
O O6 0.233201 0.621745 0.516000
O O7 0.226358 0.668321 0.744007
O O8 0.500000 0.417612 0.750000
O O9 0.652040 0.439752 0.752906
O O10 0.501697 0.360051 0.996217
O O11 0.754523 0.403931 0.069211
O O12 0.646970 0.715568 0.478856
O O13 0.000000 0.178975 0.750000
#
# Coordination Sequence:
#
# PCOD9288345 Si02
#       6
#     8   8   8   8   8   8
#     4  11  23  44  70  98 144 181 233 295 347 415
#     4  10  22  38  68  99 131 183 230 289 349 402
#     4  11  24  43  70 106 142 181 240 287 351 423
#     4  11  22  43  69  99 142 188 233 283 354 420
#     4  10  24  44  64 103 139 181 237 284 351 421
#     4  11  24  42  69 105 138 184 234 294 353 408
#
# _framework density 26.018937000000001
#
# number of rings (size 3 to 8) (size 9 to 14) (size 15 to 20)
#    0.000    1.333    3.333    2.500    2.333   10.667 
#    0.000    3.333    0.000    0.000    0.000    0.000 
#    0.000    0.000    0.000    0.000    0.000    0.000 
#
# Total GULP energy -134319.488107 kJ/mol
# GULP energy per Si atom -5596.645338 kJ/mol
# Density = 2.595972 g / cm^3
# Si number density = 26.018937 Si / 1000 Ang^3
#
#
#
# Elastic Constant Matrix: (Units=GPa)
#
#
# Indices 1 2 3 4 5 6 
#
# 1 89.6192 26.2157 26.5526 0.0000 9.2805 0.0000
# 2 26.2157 107.4048 8.0062 0.0000 10.2121 0.0000
# 3 26.5526 8.0062 135.2144 0.0000 29.6559 0.0000
# 4 0.0000 0.0000 0.0000 34.6489 0.0000 -7.0068
# 5 9.2805 10.2121 29.6559 0.0000 34.7118 0.0000
# 6 0.0000 0.0000 0.0000 -7.0068 0.0000 20.9559
#
#
#
# Elastic Compliance Matrix: (Units=1/GPa)
#
#
# Indices 1 2 3 4 5 6 
#
# 1 0.012716 -0.002875 -0.002174 0.000000 -0.000696 0.000000
# 2 -0.002875 0.010229 0.000554 0.000000 -0.002714 0.000000
# 3 -0.002174 0.000554 0.009473 0.000000 -0.007675 0.000000
# 4 0.000000 0.000000 0.000000 0.030954 0.000000 0.010350
# 5 -0.000696 -0.002714 -0.007675 0.000000 0.036351 0.000000
# 6 0.000000 0.000000 0.000000 0.010350 0.000000 0.051180
#
#
# Mechanical properties :
#
#
# Convention : Reuss Voigt Hill
#
# Bulk Modulus (GPa) = 42.68481 50.42083 46.55282
# Shear Modulus (GPa) = 29.81483 36.16091 32.98787
#
# Velocity S-wave (km/s) = 3.38877 3.73204 3.56454
# Velocity P-wave (km/s) = 5.63494 6.16371 5.90525
#
# Compressibility (1/GPa) = 0.02342754
#
# Stress axis : x y z
#
# Youngs Moduli (GPa) = 78.64303 97.75975 105.56181
#
# Poissons Ratio (x) = 0.28110 0.22950
# Poissons Ratio (y) = 0.22613 -0.05851
# Poissons Ratio (z) = 0.17097 -0.05418
#
# Static dielectric constant tensor:
#      x y z
#    x 2.015390 0.000000 0.068050 
#    y 0.000000 2.013140 0.000000 
#    z 0.068050 0.000000 2.080090 
# 
# From -- ./inp_files/111434.got.cif
#   From: 2010.05.17/outbox.cif.g08.bks.cpg/sg15_56_cif.got.tgz:111434.got - 2010.06.03 18:47:42.
