data_PCOD9288173
_publ_section_title
;
Structure prediction by ZEFSAII (Michael W. Deem and Ramdas Pophale) SiO2 
 PCOD9288173
Probable space group: C 2/C
;
_chemical_formula_sum "Si O2"
_cell_formula_units_Z 36
_cell_length_a 8.738588
_cell_length_b 30.342141
_cell_length_c 7.407714
_cell_angle_alpha 90.000000
_cell_angle_beta 64.561124
_cell_angle_gamma 90.000000
_cell_volume 1773.701881
_symmetry_space_group_name_H-M "C 2/C"
_symmetry_group_IT_number 15
_symmetry_cell_setting 'monoclinic'
loop_
_space_group_symop_operation_xyz
x,y,z
-x,y,1/2-z
-x,-y,-z
x,-y,1/2+z
1/2+x,1/2+y,z
1/2-x,1/2+y,1/2-z
1/2-x,1/2-y,-z
1/2+x,1/2-y,1/2+z
loop_
_atom_site_type_symbol
_atom_site_label
_atom_site_fract_x
_atom_site_fract_y
_atom_site_fract_z
Si Si1 0.505278 0.948287 0.961742
Si Si2 0.794977 0.812745 0.095440
Si Si3 0.000000 0.756338 0.750000
Si Si4 0.697730 0.614878 0.195151
Si Si5 0.186648 0.890269 0.128777
O O1 0.500000 0.943293 0.750000
O O2 0.679688 0.924678 0.929219
O O3 0.340052 0.921842 0.113097
O O4 0.500000 0.000000 0.000000
O O5 0.657945 0.775454 0.203566
O O6 0.814441 0.846409 0.249171
O O7 0.961210 0.787351 0.940958
O O8 0.744153 0.842418 0.947233
O O9 0.500000 0.607176 0.250000
O O10 0.710169 0.620134 0.404726
O O11 0.000000 0.911148 0.250000
#
# Coordination Sequence:
#
# PCOD9288173 Si02
#       5
#     8   8   4   8   8
#     4  10  25  40  62  96 127 157 214 258 307 369
#     4  11  21  41  63  89 129 159 211 253 322 351
#     4  10  22  38  64  96 120 162 210 268 294 386
#     4  11  22  42  65  89 125 172 206 250 315 374
#     4  11  22  41  65  92 122 172 207 249 316 374
#
# _framework density 20.296534000000001
#
# number of rings (size 3 to 8) (size 9 to 14) (size 15 to 20)
#    0.000    1.333    3.333    1.333    3.111    0.889 
#    0.000   16.667    0.000    0.000    0.000    0.000 
#    0.000    0.000    0.000    0.000    0.000    0.000 
#
# Total GULP energy -100512.915387 kJ/mol
# GULP energy per Si atom -5584.050855 kJ/mol
# Density = 2.025034 g / cm^3
# Si number density = 20.296534 Si / 1000 Ang^3
#
#
#
# Elastic Constant Matrix: (Units=GPa)
#
#
# Indices 1 2 3 4 5 6 
#
# 1 71.3826 63.3145 53.3546 0.0000 -14.3271 0.0000
# 2 63.3145 156.6518 73.7480 0.0000 -25.4290 0.0000
# 3 53.3546 73.7480 131.0772 0.0000 -1.8292 0.0000
# 4 0.0000 0.0000 0.0000 44.7230 0.0000 2.4655
# 5 -14.3271 -25.4290 -1.8292 0.0000 38.1184 0.0000
# 6 0.0000 0.0000 0.0000 2.4655 0.0000 13.7314
#
#
#
# Elastic Compliance Matrix: (Units=1/GPa)
#
#
# Indices 1 2 3 4 5 6 
#
# 1 0.025811 -0.006378 -0.006846 0.000000 0.005118 0.000000
# 2 -0.006378 0.011623 -0.003871 0.000000 0.005171 0.000000
# 3 -0.006846 -0.003871 0.012530 0.000000 -0.004554 0.000000
# 4 0.000000 0.000000 0.000000 0.022583 0.000000 -0.004055
# 5 0.005118 0.005171 -0.004554 0.000000 0.031389 0.000000
# 6 0.000000 0.000000 0.000000 -0.004055 0.000000 0.073554
#
#
# Mechanical properties :
#
#
# Convention : Reuss Voigt Hill
#
# Bulk Modulus (GPa) = 63.39924 82.21620 72.80772
# Shear Modulus (GPa) = 23.04796 30.56086 26.80441
#
# Velocity S-wave (km/s) = 3.37346 3.88457 3.63800
# Velocity P-wave (km/s) = 6.81748 7.79200 7.32097
#
# Compressibility (1/GPa) = 0.01577306
#
# Stress axis : x y z
#
# Youngs Moduli (GPa) = 38.74384 86.03348 79.80643
#
# Poissons Ratio (x) = 0.54874 0.54636
# Poissons Ratio (y) = 0.24712 0.30895
# Poissons Ratio (z) = 0.26524 0.33306
#
# Static dielectric constant tensor:
#      x y z
#    x 1.754050 0.000000 -0.013130 
#    y 0.000000 1.711160 0.000000 
#    z -0.013130 0.000000 1.751640 
# 
# From -- ./inp_files/25006.got.cif
#   From: 2010.05.17/outbox.cif.g08.bks.cpg/sg15_13_cif.got.tgz:25006.got - 2010.06.03 18:47:42.
