data_PCOD9288008
_publ_section_title
;
Structure prediction by ZEFSAII (Michael W. Deem and Ramdas Pophale) SiO2 
 PCOD9288008
Probable space group: C 2/C
;
_chemical_formula_sum "Si O2"
_cell_formula_units_Z 44
_cell_length_a 12.197271
_cell_length_b 19.469341
_cell_length_c 11.492638
_cell_angle_alpha 90.000000
_cell_angle_beta 124.205843
_cell_angle_gamma 90.000000
_cell_volume 2257.102962
_symmetry_space_group_name_H-M "C 2/C"
_symmetry_group_IT_number 15
_symmetry_cell_setting 'monoclinic'
loop_
_space_group_symop_operation_xyz
x,y,z
-x,y,1/2-z
-x,-y,-z
x,-y,1/2+z
1/2+x,1/2+y,z
1/2-x,1/2+y,1/2-z
1/2-x,1/2-y,-z
1/2+x,1/2-y,1/2+z
loop_
_atom_site_type_symbol
_atom_site_label
_atom_site_fract_x
_atom_site_fract_y
_atom_site_fract_z
Si Si1 0.787665 0.116474 0.790053
Si Si2 0.000000 0.908720 0.250000
Si Si3 0.822275 0.017222 0.453012
Si Si4 0.360441 0.401580 0.738470
Si Si5 0.158607 0.746991 0.829468
Si Si6 0.144787 0.510773 0.535842
O O1 0.713992 0.181966 0.793628
O O2 0.912728 0.135497 0.785306
O O3 0.830329 0.061408 0.914221
O O4 0.700238 0.071131 0.650393
O O5 0.085138 0.957748 0.385804
O O6 0.862698 0.063255 0.366773
O O7 0.674425 0.028317 0.418189
O O8 0.500000 0.405987 0.750000
O O9 0.327686 0.321032 0.723689
O O10 0.238097 0.443449 0.608092
O O11 0.000000 0.737273 0.750000
O O12 0.250000 0.750000 0.000000
O O13 0.000000 0.500000 0.500000
#
# Coordination Sequence:
#
# PCOD9288008 Si02
#       6
#     8   4   8   8   8   8
#     4  10  23  38  64  93 132 169 224 276 326 402
#     4  10  22  38  62 100 128 178 214 276 338 394
#     4  10  22  38  66  95 135 169 226 273 333 393
#     4  10  24  41  67  99 132 174 227 277 332 402
#     4  11  26  45  69  99 132 180 225 275 335 402
#     4  10  23  39  64  97 132 173 219 277 339 389
#
# _framework density 19.494015999999998
#
# number of rings (size 3 to 8) (size 9 to 14) (size 15 to 20)
#    0.000    1.818    0.000    1.636   24.182    2.182 
#    1.636    5.455    0.000    0.000    0.000    0.000 
#    0.000    0.000    0.000    0.000    0.000    0.000 
#
# Total GULP energy -122663.513085 kJ/mol
# GULP energy per Si atom -5575.614231 kJ/mol
# Density = 1.944965 g / cm^3
# Si number density = 19.494016 Si / 1000 Ang^3
#
#
#
# Elastic Constant Matrix: (Units=GPa)
#
#
# Indices 1 2 3 4 5 6 
#
# 1 201.4192 83.8505 62.5661 0.0000 -7.6361 0.0000
# 2 83.8505 177.9173 35.0736 0.0000 -10.0151 0.0000
# 3 62.5661 35.0736 69.7691 0.0000 -13.6361 0.0000
# 4 0.0000 0.0000 0.0000 0.1276 0.0000 -3.5889
# 5 -7.6361 -10.0151 -13.6361 0.0000 32.6330 0.0000
# 6 0.0000 0.0000 0.0000 -3.5889 0.0000 44.9332
#
#
#
# Elastic Compliance Matrix: (Units=1/GPa)
#
#
# Indices 1 2 3 4 5 6 
#
# 1 0.007866 -0.002601 -0.006036 0.000000 -0.001480 0.000000
# 2 -0.002601 0.007112 -0.001018 0.000000 0.001148 0.000000
# 3 -0.006036 -0.001018 0.021692 0.000000 0.007339 0.000000
# 4 0.000000 0.000000 0.000000 -6.288892 0.000000 -0.502299
# 5 -0.001480 0.001148 0.007339 0.000000 0.033717 0.000000
# 6 0.000000 0.000000 0.000000 -0.502299 0.000000 -0.017864
#
#
# Mechanical properties :
#
#
# Convention : Reuss Voigt Hill
#
# Bulk Modulus (GPa) = 57.60372 90.23179 73.91776
# Shear Modulus (GPa) = -0.80499 33.37979 16.28740
#
# Velocity S-wave (km/s) = -0.64330 4.14250 2.89365
# Velocity P-wave (km/s) = 5.39090 8.32273 7.01176
#
# Compressibility (1/GPa) = 0.01735999
#
# Stress axis : x y z
#
# Youngs Moduli (GPa) = 127.12523 140.61365 46.09942
#
# Poissons Ratio (x) = 0.36569 0.27825
# Poissons Ratio (y) = 0.33061 0.04695
# Poissons Ratio (z) = 0.76732 0.14321
#
# Static dielectric constant tensor:
#      x y z
#    x 1.776200 0.000000 0.013190 
#    y 0.000000 1.647450 0.000000 
#    z 0.013190 0.000000 1.776850 
# 
# From -- ./inp_files/87970.got.cif
#   From: 2010.05.17/outbox.cif.g08.bks.cpg/sg15_44_cif.got.tgz:87970.got - 2010.06.03 18:47:42.
