data_PCOD9288416
_publ_section_title
;
Structure prediction by ZEFSAII (Michael W. Deem and Ramdas Pophale) SiO2 
 PCOD9288416
Probable space group: C 2/C
;
_chemical_formula_sum "Si O2"
_cell_formula_units_Z 56
_cell_length_a 10.851900
_cell_length_b 9.306332
_cell_length_c 29.142827
_cell_angle_alpha 90.000000
_cell_angle_beta 61.348834
_cell_angle_gamma 90.000000
_cell_volume 2582.797876
_symmetry_space_group_name_H-M "C 2/C"
_symmetry_group_IT_number 15
_symmetry_cell_setting 'monoclinic'
loop_
_space_group_symop_operation_xyz
x,y,z
-x,y,1/2-z
-x,-y,-z
x,-y,1/2+z
1/2+x,1/2+y,z
1/2-x,1/2+y,1/2-z
1/2-x,1/2-y,-z
1/2+x,1/2-y,1/2+z
loop_
_atom_site_type_symbol
_atom_site_label
_atom_site_fract_x
_atom_site_fract_y
_atom_site_fract_z
Si Si1 0.373545 0.443074 0.687892
Si Si2 0.354122 0.182033 0.942908
Si Si3 0.481146 0.062676 0.054007
Si Si4 0.658936 0.191458 0.736067
Si Si5 0.438937 0.411151 0.577400
Si Si6 0.381536 0.649032 0.985796
Si Si7 0.689778 0.368803 0.638786
O O1 0.346711 0.293204 0.718396
O O2 0.270330 0.565475 0.724554
O O3 0.347201 0.442621 0.637863
O O4 0.542962 0.457345 0.664208
O O5 0.504263 0.251621 0.927814
O O6 0.320539 0.245762 0.899036
O O7 0.392923 0.014611 0.940547
O O8 0.250000 0.250000 0.000000
O O9 0.496076 0.234398 0.045087
O O10 0.327613 0.039891 0.102399
O O11 0.500000 0.000000 0.000000
O O12 0.500000 0.143067 0.750000
O O13 0.705156 0.291246 0.684928
O O14 0.575722 0.516031 0.553756
O O15 0.379216 0.416699 0.537203
O O16 0.250000 0.750000 0.000000
#
# Coordination Sequence:
#
# PCOD9288416 Si02
#       7
#     8   8   8   8   8   8   8
#     4  10  23  44  71  91 127 169 216 279 334 381
#     4  11  20  36  61  87 127 174 210 250 306 375
#     4  12  22  37  61  95 131 172 219 250 309 390
#     4  10  23  47  68  94 122 163 221 277 334 389
#     4  10  22  39  58  88 127 168 205 253 322 380
#     4  11  23  37  58  92 135 170 209 256 308 384
#     4  10  23  41  65  94 133 170 211 272 325 384
#
# _framework density 21.681913000000002
#
# number of rings (size 3 to 8) (size 9 to 14) (size 15 to 20)
#    0.000    1.429    2.857    1.714    2.000    6.857 
#    0.000    7.857    0.000    0.000    0.000    0.000 
#    0.000    0.000    0.000    0.000    0.000    0.000 
#
# Total GULP energy -156211.285458 kJ/mol
# GULP energy per Si atom -5578.974481 kJ/mol
# Density = 2.163256 g / cm^3
# Si number density = 21.681913 Si / 1000 Ang^3
#
#
#
# Elastic Constant Matrix: (Units=GPa)
#
#
# Indices 1 2 3 4 5 6 
#
# 1 98.1456 42.3139 33.6658 0.0000 -28.1484 0.0000
# 2 42.3139 91.5733 27.4708 0.0000 -18.7269 0.0000
# 3 33.6658 27.4708 101.2225 0.0000 -12.8378 0.0000
# 4 0.0000 0.0000 0.0000 33.8423 0.0000 -4.1552
# 5 -28.1484 -18.7269 -12.8378 0.0000 39.8650 0.0000
# 6 0.0000 0.0000 0.0000 -4.1552 0.0000 40.3872
#
#
#
# Elastic Compliance Matrix: (Units=1/GPa)
#
#
# Indices 1 2 3 4 5 6 
#
# 1 0.015417 -0.004674 -0.002874 0.000000 0.007765 0.000000
# 2 -0.004674 0.014230 -0.001958 0.000000 0.002754 0.000000
# 3 -0.002874 -0.001958 0.011461 0.000000 0.000741 0.000000
# 4 0.000000 0.000000 0.000000 0.029927 0.000000 0.003079
# 5 0.007765 0.002754 0.000741 0.000000 0.032100 0.000000
# 6 0.000000 0.000000 0.000000 0.003079 0.000000 0.025077
#
#
# Mechanical properties :
#
#
# Convention : Reuss Voigt Hill
#
# Bulk Modulus (GPa) = 45.25821 55.31580 50.28701
# Shear Modulus (GPa) = 32.34379 35.31829 33.83104
#
# Velocity S-wave (km/s) = 3.86650 4.04038 3.95439
# Velocity P-wave (km/s) = 6.39156 6.87997 6.64026
#
# Compressibility (1/GPa) = 0.02209544
#
# Stress axis : x y z
#
# Youngs Moduli (GPa) = 64.86456 70.27166 87.25478
#
# Poissons Ratio (x) = 0.32842 0.25080
# Poissons Ratio (y) = 0.30315 0.17087
# Poissons Ratio (z) = 0.18644 0.13761
#
# Static dielectric constant tensor:
#      x y z
#    x 1.867650 0.000000 -0.007410 
#    y 0.000000 1.935650 0.000000 
#    z -0.007410 0.000000 1.810800 
# 
# From -- ./inp_files/310209.got.cif
#   From: 2010.05.17/outbox.cif.g08.bks.cpg/sg15_156_cif.got.tgz:310209.got - 2010.06.03 18:47:42.
