data_PCOD9288838
_publ_section_title
;
Structure prediction by ZEFSAII (Michael W. Deem and Ramdas Pophale) SiO2 
 PCOD9288838
Probable space group: C 2/C
;
_chemical_formula_sum "Si O2"
_cell_formula_units_Z 40
_cell_length_a 24.189452
_cell_length_b 5.783398
_cell_length_c 14.518626
_cell_angle_alpha 90.000000
_cell_angle_beta 119.916531
_cell_angle_gamma 90.000000
_cell_volume 1760.475259
_symmetry_space_group_name_H-M "C 2/C"
_symmetry_group_IT_number 15
_symmetry_cell_setting 'monoclinic'
loop_
_space_group_symop_operation_xyz
x,y,z
-x,y,1/2-z
-x,-y,-z
x,-y,1/2+z
1/2+x,1/2+y,z
1/2-x,1/2+y,1/2-z
1/2-x,1/2-y,-z
1/2+x,1/2-y,1/2+z
loop_
_atom_site_type_symbol
_atom_site_label
_atom_site_fract_x
_atom_site_fract_y
_atom_site_fract_z
Si Si1 0.865285 0.660042 0.515274
Si Si2 0.067861 0.105351 0.585835
Si Si3 0.881270 0.747369 0.733805
Si Si4 0.283870 0.967147 0.291461
Si Si5 0.499078 0.055025 0.343632
O O1 0.887411 0.863891 0.465137
O O2 0.851963 0.750085 0.606971
O O3 0.811658 0.518489 0.416494
O O4 0.928999 0.502663 0.572248
O O5 0.040690 0.336985 0.607586
O O6 0.108660 0.976545 0.697829
O O7 0.000000 0.000000 0.500000
O O8 0.839255 0.577646 0.762111
O O9 0.953911 0.660730 0.781617
O O10 0.248686 0.715671 0.261008
O O11 0.500000 0.204023 0.250000
#
# Coordination Sequence:
#
# PCOD9288838 Si02
#       5
#     8   8   8   8   8
#     4  11  24  47  72 108 148 194 239 309 380 442
#     4  12  22  37  70 104 153 189 229 294 373 456
#     4  11  25  46  70 108 147 184 246 303 375 453
#     4  12  28  52  75 104 147 202 263 312 359 430
#     4  10  22  39  66 109 143 177 230 294 380 455
#
# _framework density 22.721139000000001
#
# number of rings (size 3 to 8) (size 9 to 14) (size 15 to 20)
#    0.000    0.800    4.000    3.000    2.800    1.600 
#    3.600    0.000    0.000    0.000    0.000    0.000 
#    0.000    0.000    0.000    0.000    0.000    0.000 
#
# Total GULP energy -111536.058504 kJ/mol
# GULP energy per Si atom -5576.802925 kJ/mol
# Density = 2.266943 g / cm^3
# Si number density = 22.721139 Si / 1000 Ang^3
#
#
#
# Elastic Constant Matrix: (Units=GPa)
#
#
# Indices 1 2 3 4 5 6 
#
# 1 70.0824 37.0947 29.1544 0.0000 -0.3371 0.0000
# 2 37.0947 88.8329 58.7699 0.0000 11.7831 0.0000
# 3 29.1544 58.7699 181.7831 0.0000 -10.8246 0.0000
# 4 0.0000 0.0000 0.0000 33.6846 0.0000 8.2799
# 5 -0.3371 11.7831 -10.8246 0.0000 42.3431 0.0000
# 6 0.0000 0.0000 0.0000 8.2799 0.0000 40.6512
#
#
#
# Elastic Compliance Matrix: (Units=1/GPa)
#
#
# Indices 1 2 3 4 5 6 
#
# 1 0.018560 -0.007847 -0.000306 0.000000 0.002253 0.000000
# 2 -0.007847 0.018886 -0.005244 0.000000 -0.006659 0.000000
# 3 -0.000306 -0.005244 0.007445 0.000000 0.003360 0.000000
# 4 0.000000 0.000000 0.000000 0.031252 0.000000 -0.006365
# 5 0.002253 -0.006659 0.003360 0.000000 0.026346 0.000000
# 6 0.000000 0.000000 0.000000 -0.006365 0.000000 0.025896
#
#
# Mechanical properties :
#
#
# Convention : Reuss Voigt Hill
#
# Bulk Modulus (GPa) = 55.25162 65.63740 60.44451
# Shear Modulus (GPa) = 31.01492 37.71441 34.36467
#
# Velocity S-wave (km/s) = 3.69863 4.07858 3.89325
# Velocity P-wave (km/s) = 6.52763 7.15058 6.84619
#
# Compressibility (1/GPa) = 0.01809902
#
# Stress axis : x y z
#
# Youngs Moduli (GPa) = 53.87821 52.94827 134.30954
#
# Poissons Ratio (x) = 0.41549 0.04104
# Poissons Ratio (y) = 0.42279 0.70430
# Poissons Ratio (z) = 0.01646 0.27765
#
# Static dielectric constant tensor:
#      x y z
#    x 1.914680 0.000000 -0.042100 
#    y 0.000000 1.968150 0.000000 
#    z -0.042100 0.000000 1.985570 
# 
# From -- ./inp_files/170925.got.cif
#   From: 2010.05.17/outbox.cif.g08.bks.cpg/sg15_86_cif.got.tgz:170925.got - 2010.06.03 18:47:42.
