data_PCOD9288372
_publ_section_title
;
Structure prediction by ZEFSAII (Michael W. Deem and Ramdas Pophale) SiO2 
 PCOD9288372
Probable space group: C 2/C
;
_chemical_formula_sum "Si O2"
_cell_formula_units_Z 40
_cell_length_a 32.313823
_cell_length_b 8.650574
_cell_length_c 21.898290
_cell_angle_alpha 90.000000
_cell_angle_beta 162.577579
_cell_angle_gamma 90.000000
_cell_volume 1832.803218
_symmetry_space_group_name_H-M "C 2/C"
_symmetry_group_IT_number 15
_symmetry_cell_setting 'monoclinic'
loop_
_space_group_symop_operation_xyz
x,y,z
-x,y,1/2-z
-x,-y,-z
x,-y,1/2+z
1/2+x,1/2+y,z
1/2-x,1/2+y,1/2-z
1/2-x,1/2-y,-z
1/2+x,1/2-y,1/2+z
loop_
_atom_site_type_symbol
_atom_site_label
_atom_site_fract_x
_atom_site_fract_y
_atom_site_fract_z
Si Si1 0.510675 0.878219 0.835061
Si Si2 0.453058 0.747332 0.431830
Si Si3 0.817392 0.963377 0.308764
Si Si4 0.595829 0.537158 0.934620
Si Si5 0.360445 0.025710 0.231839
O O1 0.500000 0.926332 0.750000
O O2 0.515741 0.691435 0.843037
O O3 0.380624 0.943893 0.689210
O O4 0.657573 0.933632 0.069067
O O5 0.361889 0.626625 0.341330
O O6 0.581327 0.659318 0.581140
O O7 0.514090 0.874865 0.563409
O O8 0.374141 0.846711 0.269613
O O9 0.850017 0.959816 0.427139
O O10 0.500000 0.449486 0.750000
O O11 0.726429 0.586413 0.077719
#
# Coordination Sequence:
#
# PCOD9288372 Si02
#       5
#     8   8   8   8   8
#     4  11  25  42  68  96 131 172 217 265 320 392
#     4  10  22  38  71  95 131 171 219 255 329 381
#     4  11  22  43  64 100 132 173 208 273 316 382
#     4  11  25  42  68  96 131 172 217 265 320 392
#     4  11  22  41  64  98 127 173 213 268 319 392
#
# _framework density 21.824493
#
# number of rings (size 3 to 8) (size 9 to 14) (size 15 to 20)
#    0.000    1.200    4.000    2.400    0.000    6.400 
#    0.000    6.000    0.000    0.000    0.000    0.000 
#    0.000    0.000    0.000    0.000    0.000    0.000 
#
# Total GULP energy -111737.631404 kJ/mol
# GULP energy per Si atom -5586.881570 kJ/mol
# Density = 2.177482 g / cm^3
# Si number density = 21.824493 Si / 1000 Ang^3
#
#
#
# Elastic Constant Matrix: (Units=GPa)
#
#
# Indices 1 2 3 4 5 6 
#
# 1 155.4319 16.6049 26.6295 0.0000 -15.3958 0.0000
# 2 16.6049 64.9928 8.9171 0.0000 -5.1460 0.0000
# 3 26.6295 8.9171 70.4638 0.0000 -17.5485 0.0000
# 4 0.0000 0.0000 0.0000 12.4055 0.0000 7.4361
# 5 -15.3958 -5.1460 -17.5485 0.0000 39.2369 0.0000
# 6 0.0000 0.0000 0.0000 7.4361 0.0000 1.2627
#
#
#
# Elastic Compliance Matrix: (Units=1/GPa)
#
#
# Indices 1 2 3 4 5 6 
#
# 1 0.007107 -0.001396 -0.002093 0.000000 0.001669 0.000000
# 2 -0.001396 0.015993 -0.001249 0.000000 0.000991 0.000000
# 3 -0.002093 -0.001249 0.016763 0.000000 0.006512 0.000000
# 4 0.000000 0.000000 0.000000 -0.031859 0.000000 0.187629
# 5 0.001669 0.000991 0.006512 0.000000 0.029183 0.000000
# 6 0.000000 0.000000 0.000000 0.187629 0.000000 -0.313016
#
#
# Mechanical properties :
#
#
# Convention : Reuss Voigt Hill
#
# Bulk Modulus (GPa) = 32.91195 43.91016 38.41106
# Shear Modulus (GPa) = -19.51421 26.49679 3.49129
#
# Velocity S-wave (km/s) = -2.99347 3.48815 1.26617
# Velocity P-wave (km/s) = 1.77911 6.03211 4.44700
#
# Compressibility (1/GPa) = 0.03038410
#
# Stress axis : x y z
#
# Youngs Moduli (GPa) = 140.70932 62.52753 59.65650
#
# Poissons Ratio (x) = 0.08731 0.12488
# Poissons Ratio (y) = 0.19648 0.07454
# Poissons Ratio (z) = 0.29456 0.07812
#
# Static dielectric constant tensor:
#      x y z
#    x 1.838690 0.000000 -0.036440 
#    y 0.000000 1.795960 0.000000 
#    z -0.036440 0.000000 1.804720 
# 
# From -- ./inp_files/76834.got.cif
#   From: 2010.05.17/outbox.cif.g08.bks.cpg/sg15_39_cif.got.tgz:76834.got - 2010.06.03 18:47:42.
