data_PCOD9288440
_publ_section_title
;
Structure prediction by ZEFSAII (Michael W. Deem and Ramdas Pophale) SiO2 
 PCOD9288440
Probable space group: C 2/C
;
_chemical_formula_sum "Si O2"
_cell_formula_units_Z 56
_cell_length_a 17.893310
_cell_length_b 13.809837
_cell_length_c 12.186110
_cell_angle_alpha 90.000000
_cell_angle_beta 76.661881
_cell_angle_gamma 90.000000
_cell_volume 2930.006619
_symmetry_space_group_name_H-M "C 2/C"
_symmetry_group_IT_number 15
_symmetry_cell_setting 'monoclinic'
loop_
_space_group_symop_operation_xyz
x,y,z
-x,y,1/2-z
-x,-y,-z
x,-y,1/2+z
1/2+x,1/2+y,z
1/2-x,1/2+y,1/2-z
1/2-x,1/2-y,-z
1/2+x,1/2-y,1/2+z
loop_
_atom_site_type_symbol
_atom_site_label
_atom_site_fract_x
_atom_site_fract_y
_atom_site_fract_z
Si Si1 0.039999 0.378464 0.348048
Si Si2 0.333916 0.669921 0.706490
Si Si3 0.302046 0.452065 0.676447
Si Si4 0.828037 0.507617 0.122508
Si Si5 0.667074 0.736051 0.206057
Si Si6 0.285024 0.352665 0.453299
Si Si7 0.388481 0.199123 0.007103
O O1 0.088783 0.462635 0.386577
O O2 0.101176 0.296576 0.290865
O O3 0.000000 0.414293 0.250000
O O4 0.973073 0.334448 0.444470
O O5 0.337235 0.558531 0.668713
O O6 0.248709 0.714843 0.709849
O O7 0.343543 0.669610 0.834416
O O8 0.388870 0.735396 0.614968
O O9 0.213880 0.467750 0.747784
O O10 0.333462 0.374379 0.753377
O O11 0.311852 0.404585 0.554701
O O12 0.776076 0.427057 0.080329
O O13 0.837070 0.604613 0.049551
O O14 0.649572 0.746132 0.083235
O O15 0.250000 0.250000 0.500000
#
# Coordination Sequence:
#
# PCOD9288440 Si02
#       7
#     8   8   8   8   8   8   8
#     4  10  22  39  59  88 129 167 198 246 315 374
#     4  11  22  36  59  92 116 154 211 252 304 352
#     4  11  22  35  62  91 119 157 206 259 305 355
#     4  11  21  37  61  93 124 162 204 253 314 368
#     4  11  20  40  59  86 121 163 201 252 304 369
#     4  11  20  35  58  88 125 156 198 257 307 357
#     4  11  23  37  61  89 124 160 208 252 306 373
#
# _framework density 19.112584999999999
#
# number of rings (size 3 to 8) (size 9 to 14) (size 15 to 20)
#    0.000    1.143    5.714    1.714    6.000    0.000 
#    0.000    0.714    0.000    0.000    0.000    0.000 
#    0.000    0.000    0.000    0.000    0.000    0.000 
#
# Total GULP energy -156353.696766 kJ/mol
# GULP energy per Si atom -5584.060599 kJ/mol
# Density = 1.906908 g / cm^3
# Si number density = 19.112585 Si / 1000 Ang^3
#
#
#
# Elastic Constant Matrix: (Units=GPa)
#
#
# Indices 1 2 3 4 5 6 
#
# 1 30.9356 0.0329 21.8348 0.0000 2.6314 0.0000
# 2 0.0329 115.5516 50.0353 0.0000 14.1020 0.0000
# 3 21.8348 50.0353 156.0596 0.0000 0.6643 0.0000
# 4 0.0000 0.0000 0.0000 29.5385 0.0000 2.2489
# 5 2.6314 14.1020 0.6643 0.0000 12.4343 0.0000
# 6 0.0000 0.0000 0.0000 2.2489 0.0000 17.2278
#
#
#
# Elastic Compliance Matrix: (Units=1/GPa)
#
#
# Indices 1 2 3 4 5 6 
#
# 1 0.038142 0.004452 -0.006710 0.000000 -0.012762 0.000000
# 2 0.004452 0.012426 -0.004544 0.000000 -0.014791 0.000000
# 3 -0.006710 -0.004544 0.008777 0.000000 0.006104 0.000000
# 4 0.000000 0.000000 0.000000 0.034194 0.000000 -0.004464
# 5 -0.012762 -0.014791 0.006104 0.000000 0.099573 0.000000
# 6 0.000000 0.000000 0.000000 -0.004464 0.000000 0.058628
#
#
# Mechanical properties :
#
#
# Convention : Reuss Voigt Hill
#
# Bulk Modulus (GPa) = 21.86174 49.59477 35.72826
# Shear Modulus (GPa) = 17.81959 27.21636 22.51798
#
# Velocity S-wave (km/s) = 3.05675 3.77769 3.43618
# Velocity P-wave (km/s) = 4.89096 6.71066 5.87173
#
# Compressibility (1/GPa) = 0.04574200
#
# Stress axis : x y z
#
# Youngs Moduli (GPa) = 26.21795 80.47941 113.92898
#
# Poissons Ratio (x) = -0.35830 0.76442
# Poissons Ratio (y) = -0.11672 0.51767
# Poissons Ratio (z) = 0.17591 0.36568
#
# Static dielectric constant tensor:
#      x y z
#    x 1.653110 0.000000 -0.007080 
#    y 0.000000 1.655910 0.000000 
#    z -0.007080 0.000000 1.691490 
# 
# From -- ./inp_files/105265.got.cif
#   From: 2010.05.17/outbox.cif.g08.bks.cpg/sg15_53_cif.got.tgz:105265.got - 2010.06.03 18:47:42.
