data_PCOD9288445
_publ_section_title
;
Structure prediction by ZEFSAII (Michael W. Deem and Ramdas Pophale) SiO2 
 PCOD9288445
Probable space group: C 2/C
;
_chemical_formula_sum "Si O2"
_cell_formula_units_Z 64
_cell_length_a 14.847678
_cell_length_b 26.099895
_cell_length_c 12.800783
_cell_angle_alpha 90.000000
_cell_angle_beta 39.985271
_cell_angle_gamma 90.000000
_cell_volume 3187.632500
_symmetry_space_group_name_H-M "C 2/C"
_symmetry_group_IT_number 15
_symmetry_cell_setting 'monoclinic'
loop_
_space_group_symop_operation_xyz
x,y,z
-x,y,1/2-z
-x,-y,-z
x,-y,1/2+z
1/2+x,1/2+y,z
1/2-x,1/2+y,1/2-z
1/2-x,1/2-y,-z
1/2+x,1/2-y,1/2+z
loop_
_atom_site_type_symbol
_atom_site_label
_atom_site_fract_x
_atom_site_fract_y
_atom_site_fract_z
Si Si1 0.502026 0.641836 0.630150
Si Si2 0.273677 0.722230 0.865072
Si Si3 0.657254 0.956126 0.139178
Si Si4 0.962814 0.643281 0.404014
Si Si5 0.807110 0.087593 0.304241
Si Si6 0.248364 0.820512 0.770942
Si Si7 0.921606 0.539790 0.145211
Si Si8 0.425183 0.444985 0.037456
O O1 0.500000 0.622993 0.750000
O O2 0.425229 0.697541 0.705607
O O3 0.653891 0.651898 0.444203
O O4 0.435862 0.596974 0.619405
O O5 0.227938 0.760864 0.813952
O O6 0.250000 0.750000 0.000000
O O7 0.178863 0.672185 0.950118
O O8 0.500000 0.935068 0.250000
O O9 0.765315 0.943582 0.138274
O O10 0.624780 0.014081 0.204988
O O11 0.744986 0.939353 0.960913
O O12 0.000000 0.647490 0.250000
O O13 0.088622 0.670734 0.352848
O O14 0.969536 0.584922 0.431521
O O15 0.788262 0.148870 0.302482
O O16 0.713608 0.062748 0.293592
O O17 0.969209 0.075348 0.145282
O O18 0.000000 0.500000 0.000000
O O19 0.500000 0.500000 0.000000
#
# Coordination Sequence:
#
# PCOD9288445 Si02
#       8
#     8   8   8   8   8   8   8   8
#     4  11  23  40  64 100 137 176 222 273 341 418
#     4  12  22  37  63  95 136 175 218 277 348 408
#     4  12  24  43  70  92 136 182 224 283 342 398
#     4  11  22  35  58  91 131 173 215 263 341 403
#     4  10  23  43  62  92 130 180 227 274 332 404
#     4  10  22  39  59  89 135 168 219 273 325 409
#     4  11  23  40  62  99 135 174 227 272 332 413
#     4  11  25  44  64  97 134 182 234 274 335 408
#
# _framework density 20.077597000000001
#
# number of rings (size 3 to 8) (size 9 to 14) (size 15 to 20)
#    0.000    1.000    5.000    1.500    1.750    1.000 
#    2.250    0.000    0.000    0.750    0.000    3.500 
#    0.000    0.000    0.000    0.000    0.000    0.000 
#
# Total GULP energy -178256.634416 kJ/mol
# GULP energy per Si atom -5570.519825 kJ/mol
# Density = 2.003190 g / cm^3
# Si number density = 20.077597 Si / 1000 Ang^3
#
#
#
# Elastic Constant Matrix: (Units=GPa)
#
#
# Indices 1 2 3 4 5 6 
#
# 1 82.4441 23.9226 18.1110 0.0000 -6.3431 0.0000
# 2 23.9226 108.4772 31.8854 0.0000 14.8060 0.0000
# 3 18.1110 31.8854 78.4213 0.0000 2.3125 0.0000
# 4 0.0000 0.0000 0.0000 35.9672 0.0000 -5.3112
# 5 -6.3431 14.8060 2.3125 0.0000 34.0405 0.0000
# 6 0.0000 0.0000 0.0000 -5.3112 0.0000 18.8200
#
#
#
# Elastic Compliance Matrix: (Units=1/GPa)
#
#
# Indices 1 2 3 4 5 6 
#
# 1 0.013756 -0.002965 -0.002089 0.000000 0.003995 0.000000
# 2 -0.002965 0.011768 -0.003941 0.000000 -0.005403 0.000000
# 3 -0.002089 -0.003941 0.014827 0.000000 0.000318 0.000000
# 4 0.000000 0.000000 0.000000 0.029012 0.000000 0.008187
# 5 0.003995 -0.005403 0.000318 0.000000 0.032450 0.000000
# 6 0.000000 0.000000 0.000000 0.008187 0.000000 0.055446
#
#
# Mechanical properties :
#
#
# Convention : Reuss Voigt Hill
#
# Bulk Modulus (GPa) = 44.71939 46.35339 45.53639
# Shear Modulus (GPa) = 27.36694 30.79379 29.08037
#
# Velocity S-wave (km/s) = 3.69597 3.92055 3.80991
# Velocity P-wave (km/s) = 6.36673 6.60541 6.48717
#
# Compressibility (1/GPa) = 0.02236166
#
# Stress axis : x y z
#
# Youngs Moduli (GPa) = 72.69556 84.97483 67.44424
#
# Poissons Ratio (x) = 0.25193 0.14091
# Poissons Ratio (y) = 0.21552 0.26578
# Poissons Ratio (z) = 0.15188 0.33487
#
# Static dielectric constant tensor:
#      x y z
#    x 1.770220 0.000000 -0.027060 
#    y 0.000000 1.768430 0.000000 
#    z -0.027060 0.000000 1.738250 
# 
# From -- ./inp_files/101301.got.cif
#   From: 2010.05.17/outbox.cif.g08.bks.cpg/sg15_51_cif.got.tgz:101301.got - 2010.06.03 18:47:42.
