data_PCOD9288112
_publ_section_title
;
Structure prediction by ZEFSAII (Michael W. Deem and Ramdas Pophale) SiO2 
 PCOD9288112
Probable space group: C 2/C
;
_chemical_formula_sum "Si O2"
_cell_formula_units_Z 48
_cell_length_a 11.096776
_cell_length_b 26.750591
_cell_length_c 8.581831
_cell_angle_alpha 90.000000
_cell_angle_beta 64.628061
_cell_angle_gamma 90.000000
_cell_volume 2301.760165
_symmetry_space_group_name_H-M "C 2/C"
_symmetry_group_IT_number 15
_symmetry_cell_setting 'monoclinic'
loop_
_space_group_symop_operation_xyz
x,y,z
-x,y,1/2-z
-x,-y,-z
x,-y,1/2+z
1/2+x,1/2+y,z
1/2-x,1/2+y,1/2-z
1/2-x,1/2-y,-z
1/2+x,1/2-y,1/2+z
loop_
_atom_site_type_symbol
_atom_site_label
_atom_site_fract_x
_atom_site_fract_y
_atom_site_fract_z
Si Si1 0.850234 0.065497 0.899103
Si Si2 0.880581 0.692336 0.120458
Si Si3 0.145595 0.862759 0.591623
Si Si4 0.835878 0.336868 0.003498
Si Si5 0.112070 0.197664 0.817976
Si Si6 0.851390 0.035642 0.262935
O O1 0.000000 0.075465 0.750000
O O2 0.791612 0.018472 0.833938
O O3 0.751810 0.112757 0.946626
O O4 0.857948 0.048973 0.077002
O O5 0.753662 0.676358 0.092647
O O6 0.846491 0.682704 0.321057
O O7 0.914983 0.750504 0.079219
O O8 0.013728 0.660015 0.016696
O O9 0.119803 0.849552 0.427457
O O10 0.202164 0.916915 0.610318
O O11 0.000000 0.858112 0.750000
O O12 0.753439 0.298459 0.154032
O O13 0.000000 0.191757 0.750000
O O14 0.000000 0.030568 0.250000
#
# Coordination Sequence:
#
# PCOD9288112 Si02
#       6
#     8   8   8   8   8   8
#     4  11  22  40  69  99 132 173 225 275 336 395
#     4  11  24  47  62  95 139 174 220 278 324 400
#     4  11  25  42  68  98 134 171 221 284 328 387
#     4  11  24  40  70  91 133 177 218 264 337 394
#     4  12  25  40  70  96 130 178 229 264 330 399
#     4  10  22  38  64 100 134 165 223 282 329 383
#
# _framework density 20.853605999999999
#
# number of rings (size 3 to 8) (size 9 to 14) (size 15 to 20)
#    0.000    1.000    3.333    4.500   11.667    0.667 
#    0.000    0.833    0.000    0.000    0.000    0.000 
#    0.000    0.000    0.000    0.000    0.000    0.000 
#
# Total GULP energy -134078.643263 kJ/mol
# GULP energy per Si atom -5586.610136 kJ/mol
# Density = 2.080614 g / cm^3
# Si number density = 20.853606 Si / 1000 Ang^3
#
#
#
# Elastic Constant Matrix: (Units=GPa)
#
#
# Indices 1 2 3 4 5 6 
#
# 1 92.8070 28.4788 28.3370 0.0000 -2.6640 0.0000
# 2 28.4788 117.0931 37.8263 0.0000 3.6876 0.0000
# 3 28.3370 37.8263 62.5712 0.0000 -12.0616 0.0000
# 4 0.0000 0.0000 0.0000 -19.1172 0.0000 -11.1748
# 5 -2.6640 3.6876 -12.0616 0.0000 26.6920 0.0000
# 6 0.0000 0.0000 0.0000 -11.1748 0.0000 20.5750
#
#
#
# Elastic Compliance Matrix: (Units=1/GPa)
#
#
# Indices 1 2 3 4 5 6 
#
# 1 0.012737 -0.001439 -0.005055 0.000000 -0.000814 0.000000
# 2 -0.001439 0.011363 -0.007173 0.000000 -0.004955 0.000000
# 3 -0.005055 -0.007173 0.024867 0.000000 0.011724 0.000000
# 4 0.000000 0.000000 0.000000 -0.039704 0.000000 -0.021564
# 5 -0.000814 -0.004955 0.011724 0.000000 0.043365 0.000000
# 6 0.000000 0.000000 0.000000 -0.021564 0.000000 0.036891
#
#
# Mechanical properties :
#
#
# Convention : Reuss Voigt Hill
#
# Bulk Modulus (GPa) = 46.22545 51.30617 48.76581
# Shear Modulus (GPa) = 40.30137 17.48524 28.89330
#
# Velocity S-wave (km/s) = 4.40089 2.89879 3.72631
# Velocity P-wave (km/s) = 6.93098 5.98835 6.47684
#
# Compressibility (1/GPa) = 0.02163310
#
# Stress axis : x y z
#
# Youngs Moduli (GPa) = 78.51270 88.00140 40.21335
#
# Poissons Ratio (x) = 0.12664 0.20329
# Poissons Ratio (y) = 0.11299 0.28845
# Poissons Ratio (z) = 0.39690 0.63123
#
# Static dielectric constant tensor:
#      x y z
#    x 1.735390 0.000000 0.004410 
#    y 0.000000 1.839920 0.000000 
#    z 0.004410 0.000000 1.777340 
# 
# From -- ./inp_files/33391.got.cif
#   From: 2010.05.17/outbox.cif.g08.bks.cpg/sg15_17_cif.got.tgz:33391.got - 2010.06.03 18:47:42.
