data_PCOD9288095
_publ_section_title
;
Structure prediction by ZEFSAII (Michael W. Deem and Ramdas Pophale) SiO2 
 PCOD9288095
Probable space group: C 2/C
;
_chemical_formula_sum "Si O2"
_cell_formula_units_Z 48
_cell_length_a 13.103017
_cell_length_b 30.091258
_cell_length_c 13.803455
_cell_angle_alpha 90.000000
_cell_angle_beta 157.725984
_cell_angle_gamma 90.000000
_cell_volume 2062.911146
_symmetry_space_group_name_H-M "C 2/C"
_symmetry_group_IT_number 15
_symmetry_cell_setting 'monoclinic'
loop_
_space_group_symop_operation_xyz
x,y,z
-x,y,1/2-z
-x,-y,-z
x,-y,1/2+z
1/2+x,1/2+y,z
1/2-x,1/2+y,1/2-z
1/2-x,1/2-y,-z
1/2+x,1/2-y,1/2+z
loop_
_atom_site_type_symbol
_atom_site_label
_atom_site_fract_x
_atom_site_fract_y
_atom_site_fract_z
Si Si1 0.256349 0.921024 0.688473
Si Si2 0.500000 0.859943 0.250000
Si Si3 0.000000 0.487883 0.750000
Si Si4 0.262497 0.932959 0.919470
Si Si5 0.331275 0.624446 0.693502
Si Si6 0.259196 0.278000 0.396272
Si Si7 0.047146 0.775932 0.154460
O O1 0.315954 0.958319 0.659468
O O2 0.233962 0.937205 0.779520
O O3 0.983448 0.896314 0.419146
O O4 0.519836 0.889125 0.914649
O O5 0.542340 0.892526 0.378274
O O6 0.736490 0.825613 0.428019
O O7 0.850682 0.520718 0.544534
O O8 0.000000 0.920291 0.750000
O O9 0.500000 0.606447 0.750000
O O10 0.379433 0.676842 0.736546
O O11 0.465831 0.243762 0.625240
O O12 0.363502 0.282279 0.378409
O O13 0.238668 0.739780 0.375173
#
# Coordination Sequence:
#
# PCOD9288095 Si02
#       7
#     8   4   4   8   8   8   8
#     4  12  27  49  77 107 149 186 243 301 355 441
#     4  11  24  42  62 102 144 186 242 288 356 421
#     4  11  26  52  74 110 138 190 240 300 364 443
#     4  11  29  45  74 110 145 194 234 296 374 425
#     4  12  25  46  75 109 140 196 246 294 369 422
#     4  10  22  38  63  95 135 190 238 286 349 412
#     4  10  22  39  63  99 141 185 236 296 354 416
#
# _framework density 23.268090000000001
#
# number of rings (size 3 to 8) (size 9 to 14) (size 15 to 20)
#    0.000    1.000    1.667    3.000   11.667    2.667 
#    0.000    0.000    0.000    0.000    0.000    0.000 
#    0.000    0.000    0.000    0.000    0.000    0.000 
#
# Total GULP energy -134236.816434 kJ/mol
# GULP energy per Si atom -5593.200685 kJ/mol
# Density = 2.321513 g / cm^3
# Si number density = 23.268090 Si / 1000 Ang^3
#
#
#
# Elastic Constant Matrix: (Units=GPa)
#
#
# Indices 1 2 3 4 5 6 
#
# 1 122.6364 25.1586 5.4183 -0.0001 -21.1893 0.0001
# 2 25.1586 129.3348 33.3798 -0.0001 -14.5693 0.0000
# 3 5.4183 33.3798 77.1929 -0.0006 -4.4726 0.0003
# 4 -0.0001 -0.0001 -0.0006 23.2492 -0.0009 12.8377
# 5 -21.1893 -14.5693 -4.4726 -0.0009 30.8884 0.0001
# 6 0.0001 0.0000 0.0003 12.8377 0.0001 15.9899
#
#
#
# Elastic Compliance Matrix: (Units=1/GPa)
#
#
# Indices 1 2 3 4 5 6 
#
# 1 0.009417 -0.001219 0.000209 0.000001 0.005915 -0.000001
# 2 -0.001219 0.009275 -0.003751 0.000000 0.002995 0.000000
# 3 0.000209 -0.003751 0.014590 0.000001 0.000487 -0.000001
# 4 0.000001 0.000000 0.000001 0.077266 0.000003 -0.062034
# 5 0.005915 0.002995 0.000487 0.000003 0.037916 -0.000003
# 6 -0.000001 0.000000 -0.000001 -0.062034 -0.000003 0.112344
#
#
# Mechanical properties :
#
#
# Convention : Reuss Voigt Hill
#
# Bulk Modulus (GPa) = 42.09040 50.78637 46.43838
# Shear Modulus (GPa) = 17.96937 31.70599 24.83768
#
# Velocity S-wave (km/s) = 2.78200 3.69540 3.27074
# Velocity P-wave (km/s) = 5.33366 6.33103 5.85363
#
# Compressibility (1/GPa) = 0.02375839
#
# Stress axis : x y z
#
# Youngs Moduli (GPa) = 106.18909 107.82077 68.53878
#
# Poissons Ratio (x) = 0.13148 -0.01433
# Poissons Ratio (y) = 0.12949 0.25712
# Poissons Ratio (z) = -0.02220 0.40448
#
# Static dielectric constant tensor:
#      x y z
#    x 1.783640 0.000000 -0.060130 
#    y 0.000000 1.862550 0.000000 
#    z -0.060130 0.000000 1.934820 
# 
# From -- ./inp_files/157747.got.cif
#   From: 2010.05.17/outbox.cif.g08.bks.cpg/sg15_79_cif.got.tgz:157747.got - 2010.06.03 18:47:42.
