data_PCOD9288789
_publ_section_title
;
Structure prediction by ZEFSAII (Michael W. Deem and Ramdas Pophale) SiO2 
 PCOD9288789
Probable space group: C 2/C
;
_chemical_formula_sum "Si O2"
_cell_formula_units_Z 44
_cell_length_a 16.360365
_cell_length_b 14.151962
_cell_length_c 21.618750
_cell_angle_alpha 90.000000
_cell_angle_beta 154.769215
_cell_angle_gamma 90.000000
_cell_volume 2133.635837
_symmetry_space_group_name_H-M "C 2/C"
_symmetry_group_IT_number 15
_symmetry_cell_setting 'monoclinic'
loop_
_space_group_symop_operation_xyz
x,y,z
-x,y,1/2-z
-x,-y,-z
x,-y,1/2+z
1/2+x,1/2+y,z
1/2-x,1/2+y,1/2-z
1/2-x,1/2-y,-z
1/2+x,1/2-y,1/2+z
loop_
_atom_site_type_symbol
_atom_site_label
_atom_site_fract_x
_atom_site_fract_y
_atom_site_fract_z
Si Si1 0.064496 0.684517 0.385538
Si Si2 0.787782 0.697713 0.622205
Si Si3 0.066454 0.327092 0.151505
Si Si4 0.273464 0.179748 0.875593
Si Si5 0.822863 0.472312 0.057090
Si Si6 0.500000 0.473769 0.250000
O O1 0.250000 0.750000 0.500000
O O2 0.064033 0.684294 0.460303
O O3 0.114385 0.580966 0.393632
O O4 0.870973 0.730306 0.226512
O O5 0.612020 0.754451 0.473321
O O6 0.793284 0.591571 0.597597
O O7 0.000000 0.736318 0.750000
O O8 0.780348 0.701640 0.691294
O O9 0.978161 0.422401 0.119389
O O10 0.148025 0.336326 0.139056
O O11 0.140804 0.093638 0.807557
O O12 0.625875 0.469171 0.884214
#
# Coordination Sequence:
#
# PCOD9288789 Si02
#       6
#     8   8   8   8   8   4
#     4  11  21  41  64  89 122 170 204 248 301 371
#     4  10  22  42  63  93 122 164 203 251 316 368
#     4  11  24  40  64  96 125 157 207 264 303 366
#     4  11  22  42  61  93 127 158 212 250 309 362
#     4  10  22  39  65  89 122 167 208 245 311 370
#     4  10  22  40  64  88 120 174 202 248 306 378
#
# _framework density 20.622076
#
# number of rings (size 3 to 8) (size 9 to 14) (size 15 to 20)
#    0.000    1.455    3.636    3.273    3.818    7.273 
#    3.273    0.909    0.000    0.000    0.000    0.000 
#    0.000    0.000    0.000    0.000    0.000    0.000 
#
# Total GULP energy -122850.788299 kJ/mol
# GULP energy per Si atom -5584.126741 kJ/mol
# Density = 2.057514 g / cm^3
# Si number density = 20.622076 Si / 1000 Ang^3
#
#
#
# Elastic Constant Matrix: (Units=GPa)
#
#
# Indices 1 2 3 4 5 6 
#
# 1 141.1154 32.6163 18.6836 0.0003 -22.7161 -0.0005
# 2 32.6163 113.2602 33.0732 -0.0038 -3.4120 -0.0029
# 3 18.6836 33.0732 97.5327 -0.0042 -32.4672 -0.0099
# 4 0.0003 -0.0038 -0.0042 17.1183 0.0012 -8.3122
# 5 -22.7161 -3.4120 -32.4672 0.0012 34.8696 0.0002
# 6 -0.0005 -0.0029 -0.0099 -8.3122 0.0002 17.0505
#
#
#
# Elastic Compliance Matrix: (Units=1/GPa)
#
#
# Indices 1 2 3 4 5 6 
#
# 1 0.008600 -0.002718 0.001523 -0.000001 0.006754 0.000000
# 2 -0.002718 0.010894 -0.004939 0.000001 -0.005303 0.000000
# 3 0.001523 -0.004939 0.017108 0.000008 0.016438 0.000013
# 4 -0.000001 0.000001 0.000008 0.076534 0.000004 0.037311
# 5 0.006754 -0.005303 0.016438 0.000004 0.047865 0.000010
# 6 0.000000 0.000000 0.000013 0.037311 0.000010 0.076838
#
#
# Mechanical properties :
#
#
# Convention : Reuss Voigt Hill
#
# Bulk Modulus (GPa) = 41.09439 57.85051 49.47245
# Shear Modulus (GPa) = 19.36333 31.64336 25.50334
#
# Velocity S-wave (km/s) = 3.06757 3.92144 3.52049
# Velocity P-wave (km/s) = 5.70239 6.97261 6.36924
#
# Compressibility (1/GPa) = 0.02433422
#
# Stress axis : x y z
#
# Youngs Moduli (GPa) = 116.27526 91.79047 58.45196
#
# Poissons Ratio (x) = 0.24947 -0.08900
# Poissons Ratio (y) = 0.31601 0.28869
# Poissons Ratio (z) = -0.17704 0.45335
#
# Static dielectric constant tensor:
#      x y z
#    x 1.751250 0.000000 -0.051070 
#    y 0.000000 1.743570 0.000000 
#    z -0.051070 0.000000 1.808530 
# 
# From -- ./inp_files/244618.got.cif
#   From: 2010.05.17/outbox.cif.g08.bks.cpg/sg15_123_cif.got.tgz:244618.got - 2010.06.03 18:47:42.
