data_PCOD9288059
_publ_section_title
;
Structure prediction by ZEFSAII (Michael W. Deem and Ramdas Pophale) SiO2 
 PCOD9288059
Probable space group: C 2/C
;
_chemical_formula_sum "Si O2"
_cell_formula_units_Z 48
_cell_length_a 11.256068
_cell_length_b 20.189756
_cell_length_c 13.109758
_cell_angle_alpha 90.000000
_cell_angle_beta 137.648750
_cell_angle_gamma 90.000000
_cell_volume 2007.068201
_symmetry_space_group_name_H-M "C 2/C"
_symmetry_group_IT_number 15
_symmetry_cell_setting 'monoclinic'
loop_
_space_group_symop_operation_xyz
x,y,z
-x,y,1/2-z
-x,-y,-z
x,-y,1/2+z
1/2+x,1/2+y,z
1/2-x,1/2+y,1/2-z
1/2-x,1/2-y,-z
1/2+x,1/2-y,1/2+z
loop_
_atom_site_type_symbol
_atom_site_label
_atom_site_fract_x
_atom_site_fract_y
_atom_site_fract_z
Si Si1 0.983999 0.731240 0.392041
Si Si2 0.241024 0.175708 0.539550
Si Si3 0.564257 0.854515 0.131315
Si Si4 0.757949 0.325661 0.602519
Si Si5 0.927733 0.915625 0.889102
Si Si6 0.621224 0.447528 0.227385
O O1 0.986017 0.697666 0.501165
O O2 0.110373 0.682362 0.405947
O O3 0.068229 0.803415 0.443224
O O4 0.810573 0.732002 0.215041
O O5 0.250000 0.250000 0.500000
O O6 0.316038 0.177505 0.702874
O O7 0.380819 0.126599 0.571899
O O8 0.047234 0.142657 0.415913
O O9 0.690362 0.909635 0.158563
O O10 0.748441 0.388508 0.667811
O O11 0.876445 0.972335 0.777474
O O12 0.036958 0.935569 0.060754
O O13 0.500000 0.429579 0.250000
#
# Coordination Sequence:
#
# PCOD9288059 Si02
#       6
#     8   8   8   8   8   8
#     4  10  22  38  62  95 130 169 215 272 346 400
#     4  10  22  41  64  99 133 175 222 277 347 408
#     4  10  22  40  65  93 130 176 219 276 335 404
#     4  10  22  39  61  97 129 169 218 277 337 407
#     4  10  22  42  65  92 134 173 225 279 334 404
#     4  10  22  42  66  94 126 180 230 277 333 397
#
# _framework density 23.915481
#
# number of rings (size 3 to 8) (size 9 to 14) (size 15 to 20)
#    0.000    2.000    0.000    2.000    7.000    1.333 
#    3.000   13.333    0.000    0.000    0.000    0.000 
#    0.000    0.000    0.000    0.000    0.000    0.000 
#
# Total GULP energy -133733.692626 kJ/mol
# GULP energy per Si atom -5572.237193 kJ/mol
# Density = 2.386105 g / cm^3
# Si number density = 23.915481 Si / 1000 Ang^3
#
#
#
# Elastic Constant Matrix: (Units=GPa)
#
#
# Indices 1 2 3 4 5 6 
#
# 1 146.9755 44.4139 0.6897 0.0000 -19.0580 0.0000
# 2 44.4139 89.0158 9.8459 0.0000 -9.4083 0.0000
# 3 0.6897 9.8459 46.9191 0.0000 -16.2403 0.0000
# 4 0.0000 0.0000 0.0000 17.3656 0.0000 -14.1226
# 5 -19.0580 -9.4083 -16.2403 0.0000 30.9118 0.0000
# 6 0.0000 0.0000 0.0000 -14.1226 0.0000 45.1631
#
#
#
# Elastic Compliance Matrix: (Units=1/GPa)
#
#
# Indices 1 2 3 4 5 6 
#
# 1 0.008738 -0.004067 0.002642 0.000000 0.005538 0.000000
# 2 -0.004067 0.013585 -0.002723 0.000000 0.000197 0.000000
# 3 0.002642 -0.002723 0.027040 0.000000 0.015006 0.000000
# 4 0.000000 0.000000 0.000000 0.077224 0.000000 0.024148
# 5 0.005538 0.000197 0.015006 0.000000 0.043708 0.000000
# 6 0.000000 0.000000 0.000000 0.024148 0.000000 0.029693
#
#
# Mechanical properties :
#
#
# Convention : Reuss Voigt Hill
#
# Bulk Modulus (GPa) = 24.35020 43.64550 33.99785
# Shear Modulus (GPa) = 22.52520 33.88548 28.20534
#
# Velocity S-wave (km/s) = 3.07231 3.76824 3.43793
# Velocity P-wave (km/s) = 4.77382 6.10101 5.47776
#
# Compressibility (1/GPa) = 0.04106743
#
# Stress axis : x y z
#
# Youngs Moduli (GPa) = 114.43647 73.61002 36.98224
#
# Poissons Ratio (x) = 0.29937 -0.09770
# Poissons Ratio (y) = 0.46540 0.10070
# Poissons Ratio (z) = -0.30231 0.20043
#
# Static dielectric constant tensor:
#      x y z
#    x 1.969410 0.000000 0.024550 
#    y 0.000000 1.972190 0.000000 
#    z 0.024550 0.000000 1.939410 
# 
# From -- ./inp_files/89789.got.cif
#   From: 2010.05.17/outbox.cif.g08.bks.cpg/sg15_45_cif.got.tgz:89789.got - 2010.06.03 18:47:42.
