data_PCOD9288065
_publ_section_title
;
Structure prediction by ZEFSAII (Michael W. Deem and Ramdas Pophale) SiO2 
 PCOD9288065
Probable space group: C 2/C
;
_chemical_formula_sum "Si O2"
_cell_formula_units_Z 64
_cell_length_a 17.631287
_cell_length_b 12.712771
_cell_length_c 16.255078
_cell_angle_alpha 90.000000
_cell_angle_beta 47.923880
_cell_angle_gamma 90.000000
_cell_volume 2704.372714
_symmetry_space_group_name_H-M "C 2/C"
_symmetry_group_IT_number 15
_symmetry_cell_setting 'monoclinic'
loop_
_space_group_symop_operation_xyz
x,y,z
-x,y,1/2-z
-x,-y,-z
x,-y,1/2+z
1/2+x,1/2+y,z
1/2-x,1/2+y,1/2-z
1/2-x,1/2-y,-z
1/2+x,1/2-y,1/2+z
loop_
_atom_site_type_symbol
_atom_site_label
_atom_site_fract_x
_atom_site_fract_y
_atom_site_fract_z
Si Si1 0.866283 0.137277 0.084481
Si Si2 0.054564 0.644164 0.014381
Si Si3 0.441181 0.131326 0.680119
Si Si4 0.628840 0.896796 0.743772
Si Si5 0.243411 0.330510 0.080614
Si Si6 0.460168 0.665874 0.406964
Si Si7 0.306126 0.946178 0.968570
Si Si8 0.081856 0.948159 0.127273
O O1 0.748494 0.102254 0.186032
O O2 0.940908 0.138285 0.109453
O O3 0.871482 0.254796 0.043549
O O4 0.917473 0.074440 0.971275
O O5 0.118946 0.552286 0.010091
O O6 0.949642 0.664665 0.140509
O O7 0.039147 0.620382 0.930737
O O8 0.337135 0.186317 0.788206
O O9 0.524960 0.218412 0.643351
O O10 0.425315 0.012120 0.720135
O O11 0.642797 0.870433 0.637218
O O12 0.214253 0.442031 0.059970
O O13 0.250000 0.250000 0.000000
O O14 0.357085 0.331091 0.035930
O O15 0.433452 0.574501 0.362458
O O16 0.193214 0.912277 0.075251
O O17 0.000000 0.902654 0.250000
#
# Coordination Sequence:
#
# PCOD9288065 Si02
#       8
#     8   8   8   8   8   8   8   8
#     4  10  24  43  65  93 136 181 225 280 340 416
#     4  11  23  41  66  99 130 178 233 283 345 409
#     4  10  24  41  65  97 132 175 231 280 346 417
#     4  10  22  44  64  91 134 176 229 282 345 405
#     4  10  23  42  66  97 139 175 222 285 347 413
#     4  10  23  41  65  95 130 176 225 277 349 407
#     4   9  22  40  62  97 129 176 223 272 344 405
#     4  10  22  38  62  97 130 172 226 276 338 398
#
# _framework density 23.665376999999999
#
# number of rings (size 3 to 8) (size 9 to 14) (size 15 to 20)
#    0.000    2.000    0.000    1.875    5.250   10.000 
#    2.250    0.000    0.000    0.000    0.000    0.000 
#    0.000    0.000    0.000    0.000    0.000    0.000 
#
# Total GULP energy -178345.299663 kJ/mol
# GULP energy per Si atom -5573.290614 kJ/mol
# Density = 2.361151 g / cm^3
# Si number density = 23.665377 Si / 1000 Ang^3
#
#
#
# Elastic Constant Matrix: (Units=GPa)
#
#
# Indices 1 2 3 4 5 6 
#
# 1 89.7933 11.6267 50.4295 0.0000 -6.4952 0.0000
# 2 11.6267 62.4401 17.3769 0.0000 -15.2477 0.0000
# 3 50.4295 17.3769 191.0963 0.0000 -11.9521 0.0000
# 4 0.0000 0.0000 0.0000 27.1891 0.0000 -0.6639
# 5 -6.4952 -15.2477 -11.9521 0.0000 22.9493 0.0000
# 6 0.0000 0.0000 0.0000 -0.6639 0.0000 26.6702
#
#
#
# Elastic Compliance Matrix: (Units=1/GPa)
#
#
# Indices 1 2 3 4 5 6 
#
# 1 0.013242 -0.001254 -0.003306 0.000000 0.001193 0.000000
# 2 -0.001254 0.019414 -0.000672 0.000000 0.012194 0.000000
# 3 -0.003306 -0.000672 0.006285 0.000000 0.001891 0.000000
# 4 0.000000 0.000000 0.000000 0.036802 0.000000 0.000916
# 5 0.001193 0.012194 0.001891 0.000000 0.052998 0.000000
# 6 0.000000 0.000000 0.000000 0.000916 0.000000 0.037518
#
#
# Mechanical properties :
#
#
# Convention : Reuss Voigt Hill
#
# Bulk Modulus (GPa) = 35.11686 55.79954 45.45820
# Shear Modulus (GPa) = 26.85076 32.95481 29.90279
#
# Velocity S-wave (km/s) = 3.37204 3.73571 3.55852
# Velocity P-wave (km/s) = 5.48015 6.49901 6.01120
#
# Compressibility (1/GPa) = 0.02847635
#
# Stress axis : x y z
#
# Youngs Moduli (GPa) = 75.51718 51.51054 159.11599
#
# Poissons Ratio (x) = 0.06462 0.52601
# Poissons Ratio (y) = 0.09474 0.10687
# Poissons Ratio (z) = 0.24965 0.03460
#
# Static dielectric constant tensor:
#      x y z
#    x 1.928430 0.000000 -0.018330 
#    y 0.000000 2.041190 0.000000 
#    z -0.018330 0.000000 1.935180 
# 
# From -- ./inp_files/211362.got.cif
#   From: 2010.05.17/outbox.cif.g08.bks.cpg/sg15_106_cif.got.tgz:211362.got - 2010.06.03 18:47:42.
