data_PCOD9288930
_publ_section_title
;
Structure prediction by ZEFSAII (Michael W. Deem and Ramdas Pophale) SiO2 
 PCOD9288930
Probable space group: C 2/C
;
_chemical_formula_sum "Si O2"
_cell_formula_units_Z 32
_cell_length_a 15.931182
_cell_length_b 18.760487
_cell_length_c 14.695848
_cell_angle_alpha 90.000000
_cell_angle_beta 160.830483
_cell_angle_gamma 90.000000
_cell_volume 1442.256530
_symmetry_space_group_name_H-M "C 2/C"
_symmetry_group_IT_number 15
_symmetry_cell_setting 'monoclinic'
loop_
_space_group_symop_operation_xyz
x,y,z
-x,y,1/2-z
-x,-y,-z
x,-y,1/2+z
1/2+x,1/2+y,z
1/2-x,1/2+y,1/2-z
1/2-x,1/2-y,-z
1/2+x,1/2-y,1/2+z
loop_
_atom_site_type_symbol
_atom_site_label
_atom_site_fract_x
_atom_site_fract_y
_atom_site_fract_z
Si Si1 0.734642 0.833941 0.922997
Si Si2 0.883002 0.714315 0.391354
Si Si3 0.955289 0.976424 0.099742
Si Si4 0.818147 0.432004 0.316974
O O1 0.500000 0.827281 0.750000
O O2 0.688404 0.783889 0.789231
O O3 0.743297 0.914543 0.892625
O O4 0.000000 0.825573 0.250000
O O5 0.101229 0.771365 0.643537
O O6 0.027897 0.638994 0.550184
O O7 0.000000 0.997035 0.250000
O O8 0.173456 0.934236 0.265873
O O9 0.888080 0.045256 0.971142
O O10 0.000000 0.500000 0.500000
#
# Coordination Sequence:
#
# PCOD9288930 Si02
#       4
#     8   8   8   8
#     4  11  22  38  61  93 131 170 211 254 320 402
#     4  12  25  40  60  90 132 174 211 263 326 384
#     4  10  22  39  67  98 129 164 218 279 321 374
#     4  11  23  41  68  94 128 171 225 266 320 390
#
# _framework density 22.187453999999999
#
# number of rings (size 3 to 8) (size 9 to 14) (size 15 to 20)
#    0.000    1.000    2.500    6.000    3.500    3.000 
#    0.000    1.250    0.000    1.500    0.000    0.000 
#    0.000    0.000    0.000    0.000    0.000    0.000 
#
# Total GULP energy -89327.344419 kJ/mol
# GULP energy per Si atom -5582.959026 kJ/mol
# Density = 2.213695 g / cm^3
# Si number density = 22.187454 Si / 1000 Ang^3
#
#
#
# Elastic Constant Matrix: (Units=GPa)
#
#
# Indices 1 2 3 4 5 6 
#
# 1 79.2217 6.6655 16.6136 0.0006 -8.9036 0.0002
# 2 6.6655 94.0476 36.0184 -0.0002 -13.7975 0.0003
# 3 16.6136 36.0184 130.1866 -0.0061 -2.1573 0.0000
# 4 0.0006 -0.0002 -0.0061 23.3524 0.0005 -5.0559
# 5 -8.9036 -13.7975 -2.1573 0.0005 18.9685 0.0004
# 6 0.0002 0.0003 0.0000 -5.0559 0.0004 23.9552
#
#
#
# Elastic Compliance Matrix: (Units=1/GPa)
#
#
# Indices 1 2 3 4 5 6 
#
# 1 0.013706 0.000722 -0.001837 -0.000001 0.006750 0.000000
# 2 0.000722 0.013393 -0.003637 -0.000001 0.009667 -0.000001
# 3 -0.001837 -0.003637 0.008881 0.000003 -0.002498 0.000001
# 4 -0.000001 -0.000001 0.000003 0.044873 -0.000002 0.009471
# 5 0.006750 0.009667 -0.002498 -0.000002 0.062635 -0.000002
# 6 0.000000 -0.000001 0.000001 0.009471 -0.000002 0.043744
#
#
# Mechanical properties :
#
#
# Convention : Reuss Voigt Hill
#
# Bulk Modulus (GPa) = 37.77076 46.89456 42.33266
# Shear Modulus (GPa) = 24.32376 29.53243 26.92809
#
# Velocity S-wave (km/s) = 3.31461 3.65230 3.48755
# Velocity P-wave (km/s) = 5.63110 6.24238 5.94460
#
# Compressibility (1/GPa) = 0.02647551
#
# Stress axis : x y z
#
# Youngs Moduli (GPa) = 72.96128 74.66566 112.60398
#
# Poissons Ratio (x) = -0.05394 0.20686
# Poissons Ratio (y) = -0.05271 0.40959
# Poissons Ratio (z) = 0.13404 0.27159
#
# Static dielectric constant tensor:
#      x y z
#    x 1.903070 -0.000010 -0.029080 
#    y -0.000010 1.894120 0.000000 
#    z -0.029080 0.000000 1.956870 
# 
# From -- ./inp_files/10006.got.cif
#   From: 2010.05.17/outbox.cif.g08.bks.cpg/sg15_6_cif.got.tgz:10006.got - 2010.06.03 18:47:42.
