data_PCOD9288238
_publ_section_title
;
Structure prediction by ZEFSAII (Michael W. Deem and Ramdas Pophale) SiO2 
 PCOD9288238
Probable space group: C 2/C
;
_chemical_formula_sum "Si O2"
_cell_formula_units_Z 56
_cell_length_a 11.468659
_cell_length_b 10.660583
_cell_length_c 29.378924
_cell_angle_alpha 90.000000
_cell_angle_beta 130.980962
_cell_angle_gamma 90.000000
_cell_volume 2711.656943
_symmetry_space_group_name_H-M "C 2/C"
_symmetry_group_IT_number 15
_symmetry_cell_setting 'monoclinic'
loop_
_space_group_symop_operation_xyz
x,y,z
-x,y,1/2-z
-x,-y,-z
x,-y,1/2+z
1/2+x,1/2+y,z
1/2-x,1/2+y,1/2-z
1/2-x,1/2-y,-z
1/2+x,1/2-y,1/2+z
loop_
_atom_site_type_symbol
_atom_site_label
_atom_site_fract_x
_atom_site_fract_y
_atom_site_fract_z
Si Si1 0.898551 0.510934 0.184913
Si Si2 0.569475 0.781179 0.956271
Si Si3 0.955196 0.803382 0.187055
Si Si4 0.559366 0.551444 0.627272
Si Si5 0.412640 0.978661 0.088460
Si Si6 0.101025 0.316138 0.064960
Si Si7 0.865266 0.128090 0.028054
O O1 0.962335 0.651873 0.192391
O O2 0.723715 0.510077 0.158257
O O3 0.917305 0.442092 0.141857
O O4 0.000000 0.449862 0.250000
O O5 0.474792 0.656571 0.920343
O O6 0.534617 0.880591 0.908036
O O7 0.750000 0.750000 0.000000
O O8 0.555068 0.849392 0.001460
O O9 0.779942 0.823013 0.123493
O O10 0.000000 0.847351 0.250000
O O11 0.054368 0.876826 0.174353
O O12 0.422278 0.447282 0.587261
O O13 0.514960 0.894378 0.081601
O O14 0.235112 0.966594 0.027302
O O15 0.025235 0.177695 0.048327
O O16 0.750000 0.250000 0.000000
#
# Coordination Sequence:
#
# PCOD9288238 Si02
#       7
#     8   8   8   8   8   8   8
#     4  11  25  44  67  95 131 182 231 276 330 405
#     4  12  21  36  64 100 128 168 220 270 340 402
#     4  11  24  43  68  97 130 181 232 275 334 401
#     4  12  23  42  73  96 137 175 228 281 341 408
#     4  11  22  40  62  96 137 173 219 275 337 402
#     4  11  22  39  63  95 138 171 215 282 333 401
#     4  10  22  38  65  99 136 170 212 276 345 395
#
# _framework density 20.651579999999999
#
# number of rings (size 3 to 8) (size 9 to 14) (size 15 to 20)
#    0.000    0.857    5.714    1.286    2.000    2.286 
#    0.000    0.000    0.000    4.286    0.000    0.000 
#    0.000    0.000    0.000    0.000    0.000    0.000 
#
# Total GULP energy -156035.015963 kJ/mol
# GULP energy per Si atom -5572.679142 kJ/mol
# Density = 2.060458 g / cm^3
# Si number density = 20.651580 Si / 1000 Ang^3
#
#
#
# Elastic Constant Matrix: (Units=GPa)
#
#
# Indices 1 2 3 4 5 6 
#
# 1 74.4087 8.6337 38.1043 0.0000 -26.8519 0.0000
# 2 8.6337 50.9691 3.9674 0.0000 -7.6731 0.0000
# 3 38.1043 3.9674 121.4806 0.0000 -29.5079 0.0000
# 4 0.0000 0.0000 0.0000 11.9811 0.0000 -2.1577
# 5 -26.8519 -7.6731 -29.5079 0.0000 38.3632 0.0000
# 6 0.0000 0.0000 0.0000 -2.1577 0.0000 21.1920
#
#
#
# Elastic Compliance Matrix: (Units=1/GPa)
#
#
# Indices 1 2 3 4 5 6 
#
# 1 0.019132 -0.001396 -0.003407 0.000000 0.010491 0.000000
# 2 -0.001396 0.020346 0.000645 0.000000 0.003588 0.000000
# 3 -0.003407 0.000645 0.010738 0.000000 0.006003 0.000000
# 4 0.000000 0.000000 0.000000 0.085024 0.000000 0.008657
# 5 0.010491 0.003588 0.006003 0.000000 0.038745 0.000000
# 6 0.000000 0.000000 0.000000 0.008657 0.000000 0.048069
#
#
# Mechanical properties :
#
#
# Convention : Reuss Voigt Hill
#
# Bulk Modulus (GPa) = 23.86659 38.69657 31.28158
# Shear Modulus (GPa) = 20.46356 27.38413 23.92384
#
# Velocity S-wave (km/s) = 3.15126 3.64539 3.40729
# Velocity P-wave (km/s) = 4.98222 6.04127 5.53712
#
# Compressibility (1/GPa) = 0.04189958
#
# Stress axis : x y z
#
# Youngs Moduli (GPa) = 52.26832 49.14912 93.13055
#
# Poissons Ratio (x) = 0.06862 0.31730
# Poissons Ratio (y) = 0.07298 -0.06008
# Poissons Ratio (z) = 0.17808 -0.03171
#
# Static dielectric constant tensor:
#      x y z
#    x 1.771070 0.000000 -0.026180 
#    y 0.000000 1.862350 0.000000 
#    z -0.026180 0.000000 1.775130 
# 
# From -- ./inp_files/237111.got.cif
#   From: 2010.05.17/outbox.cif.g08.bks.cpg/sg15_119_cif.got.tgz:237111.got - 2010.06.03 18:47:42.
