data_PCOD9288126
_publ_section_title
;
Structure prediction by ZEFSAII (Michael W. Deem and Ramdas Pophale) SiO2 
 PCOD9288126
Probable space group: C 2/C
;
_chemical_formula_sum "Si O2"
_cell_formula_units_Z 44
_cell_length_a 9.754156
_cell_length_b 11.626011
_cell_length_c 16.299923
_cell_angle_alpha 90.000000
_cell_angle_beta 74.970867
_cell_angle_gamma 90.000000
_cell_volume 1785.215002
_symmetry_space_group_name_H-M "C 2/C"
_symmetry_group_IT_number 15
_symmetry_cell_setting 'monoclinic'
loop_
_space_group_symop_operation_xyz
x,y,z
-x,y,1/2-z
-x,-y,-z
x,-y,1/2+z
1/2+x,1/2+y,z
1/2-x,1/2+y,1/2-z
1/2-x,1/2-y,-z
1/2+x,1/2-y,1/2+z
loop_
_atom_site_type_symbol
_atom_site_label
_atom_site_fract_x
_atom_site_fract_y
_atom_site_fract_z
Si Si1 0.719061 0.403096 0.094071
Si Si2 0.405293 0.789265 0.632357
Si Si3 0.891928 0.826568 0.536613
Si Si4 0.004867 0.478288 0.098203
Si Si5 0.582168 0.732514 0.150641
Si Si6 0.500000 0.364774 0.250000
O O1 0.775068 0.270713 0.077165
O O2 0.839949 0.449808 0.133753
O O3 0.580131 0.429120 0.166719
O O4 0.687397 0.427674 0.002386
O O5 0.493283 0.724280 0.546966
O O6 0.244373 0.811428 0.628299
O O7 0.391842 0.714509 0.716264
O O8 0.509391 0.896692 0.636884
O O9 0.984967 0.840362 0.602980
O O10 0.086784 0.365903 0.115530
O O11 0.000000 0.500000 0.000000
O O12 0.500000 0.734318 0.250000
#
# Coordination Sequence:
#
# PCOD9288126 Si02
#       6
#     8   8   8   8   8   4
#     4   9  18  37  59  88 123 156 205 251 307 369
#     4  11  21  39  64  89 118 163 211 250 313 377
#     4   9  18  35  63  83 115 163 198 245 306 372
#     4  11  22  39  63  92 117 158 212 259 301 377
#     4  11  23  40  61  91 129 162 202 265 316 363
#     4  10  22  38  64  86 120 170 194 252 328 362
#
# _framework density 24.646892999999999
#
# number of rings (size 3 to 8) (size 9 to 14) (size 15 to 20)
#    0.000    1.818    3.636    2.727    1.273    0.000 
#    1.636    0.909    0.000    0.000    0.000    0.000 
#    0.000    0.000    0.000    0.000    0.000    0.000 
#
# Total GULP energy -122502.575696 kJ/mol
# GULP energy per Si atom -5568.298895 kJ/mol
# Density = 2.459080 g / cm^3
# Si number density = 24.646893 Si / 1000 Ang^3
#
#
#
# Elastic Constant Matrix: (Units=GPa)
#
#
# Indices 1 2 3 4 5 6 
#
# 1 87.0145 -6.4988 -2.4327 0.0000 3.0604 0.0000
# 2 -6.4988 60.2506 6.5764 0.0000 0.2147 0.0000
# 3 -2.4327 6.5764 105.6814 0.0000 -1.1138 0.0000
# 4 0.0000 0.0000 0.0000 14.0536 0.0000 5.3649
# 5 3.0604 0.2147 -1.1138 0.0000 42.0197 0.0000
# 6 0.0000 0.0000 0.0000 5.3649 0.0000 30.3585
#
#
#
# Elastic Compliance Matrix: (Units=1/GPa)
#
#
# Indices 1 2 3 4 5 6 
#
# 1 0.011620 0.001237 0.000182 0.000000 -0.000848 0.000000
# 2 0.001237 0.016843 -0.001022 0.000000 -0.000203 0.000000
# 3 0.000182 -0.001022 0.009533 0.000000 0.000245 0.000000
# 4 0.000000 0.000000 0.000000 0.076304 0.000000 -0.013484
# 5 -0.000848 -0.000203 0.000245 0.000000 0.023868 0.000000
# 6 0.000000 0.000000 0.000000 -0.013484 0.000000 0.035323
#
#
# Mechanical properties :
#
#
# Convention : Reuss Voigt Hill
#
# Bulk Modulus (GPa) = 25.78120 27.58180 26.68150
# Shear Modulus (GPa) = 26.93591 34.30648 30.62119
#
# Velocity S-wave (km/s) = 3.30945 3.73489 3.52859
# Velocity P-wave (km/s) = 5.00861 5.46025 5.23930
#
# Compressibility (1/GPa) = 0.03878796
#
# Stress axis : x y z
#
# Youngs Moduli (GPa) = 86.06159 59.37196 104.90154
#
# Poissons Ratio (x) = -0.07341 -0.01905
# Poissons Ratio (y) = -0.10642 0.10719
# Poissons Ratio (z) = -0.01563 0.06067
#
# Static dielectric constant tensor:
#      x y z
#    x 1.706280 0.000000 0.190440 
#    y 0.000000 1.402210 0.000000 
#    z 0.190440 0.000000 1.859410 
# 
# From -- ./inp_files/188770.got.cif
#   From: 2010.05.17/outbox.cif.g08.bks.cpg/sg15_95_cif.got.tgz:188770.got - 2010.06.03 18:47:42.
