data_PCOD9288448
_publ_section_title
;
Structure prediction by ZEFSAII (Michael W. Deem and Ramdas Pophale) SiO2 
 PCOD9288448
Probable space group: C 2/C
;
_chemical_formula_sum "Si O2"
_cell_formula_units_Z 36
_cell_length_a 23.761111
_cell_length_b 11.765711
_cell_length_c 5.246137
_cell_angle_alpha 90.000000
_cell_angle_beta 87.586429
_cell_angle_gamma 90.000000
_cell_volume 1465.342368
_symmetry_space_group_name_H-M "C 2/C"
_symmetry_group_IT_number 15
_symmetry_cell_setting 'monoclinic'
loop_
_space_group_symop_operation_xyz
x,y,z
-x,y,1/2-z
-x,-y,-z
x,-y,1/2+z
1/2+x,1/2+y,z
1/2-x,1/2+y,1/2-z
1/2-x,1/2-y,-z
1/2+x,1/2-y,1/2+z
loop_
_atom_site_type_symbol
_atom_site_label
_atom_site_fract_x
_atom_site_fract_y
_atom_site_fract_z
Si Si1 0.938067 0.549114 0.051198
Si Si2 0.189170 0.581121 0.709048
Si Si3 0.602897 0.274049 0.569381
Si Si4 0.684572 0.572483 0.745213
Si Si5 0.000000 0.078034 0.250000
O O1 0.910532 0.492908 0.297210
O O2 0.936487 0.682030 0.066596
O O3 0.000000 0.500000 0.000000
O O4 0.187489 0.510605 0.442272
O O5 0.148628 0.693774 0.707354
O O6 0.253891 0.625521 0.722885
O O7 0.635962 0.344670 0.351753
O O8 0.557756 0.347746 0.734546
O O9 0.679746 0.530700 0.454453
O O10 0.000000 0.000000 0.500000
#
# Coordination Sequence:
#
# PCOD9288448 Si02
#       5
#     8   8   8   8   4
#     4  10  22  39  59  90 124 157 205 264 313 366
#     4  10  23  42  67 101 132 161 209 270 327 386
#     4  12  24  43  70  93 128 178 216 259 327 385
#     4  10  23  43  65  95 132 167 214 268 316 382
#     4  12  30  48  64  94 132 174 224 268 308 374
#
# _framework density 24.567637000000001
#
# number of rings (size 3 to 8) (size 9 to 14) (size 15 to 20)
#    0.000    1.333    0.000    4.667    0.000    8.889 
#    0.000    6.667    0.000    0.000    0.000    0.000 
#    0.000    0.000    0.000    0.000    0.000    0.000 
#
# Total GULP energy -100577.810769 kJ/mol
# GULP energy per Si atom -5587.656154 kJ/mol
# Density = 2.451172 g / cm^3
# Si number density = 24.567637 Si / 1000 Ang^3
#
#
#
# Elastic Constant Matrix: (Units=GPa)
#
#
# Indices 1 2 3 4 5 6 
#
# 1 133.4698 55.3100 11.1356 0.0000 -31.6657 0.0000
# 2 55.3100 113.3072 20.3333 0.0000 -19.8032 0.0000
# 3 11.1356 20.3333 128.6265 0.0000 -6.8239 0.0000
# 4 0.0000 0.0000 0.0000 26.0271 0.0000 -18.8984
# 5 -31.6657 -19.8032 -6.8239 0.0000 34.2022 0.0000
# 6 0.0000 0.0000 0.0000 -18.8984 0.0000 65.3644
#
#
#
# Elastic Compliance Matrix: (Units=1/GPa)
#
#
# Indices 1 2 3 4 5 6 
#
# 1 0.011023 -0.004018 0.000100 0.000000 0.007899 0.000000
# 2 -0.004018 0.011492 -0.001327 0.000000 0.002669 0.000000
# 3 0.000100 -0.001327 0.008025 0.000000 0.000925 0.000000
# 4 0.000000 0.000000 0.000000 0.048631 0.000000 0.014060
# 5 0.007899 0.002669 0.000925 0.000000 0.038281 0.000000
# 6 0.000000 0.000000 0.000000 0.014060 0.000000 0.019364
#
#
# Mechanical properties :
#
#
# Convention : Reuss Voigt Hill
#
# Bulk Modulus (GPa) = 49.87884 60.99570 55.43727
# Shear Modulus (GPa) = 32.46986 44.36037 38.41511
#
# Velocity S-wave (km/s) = 3.63940 4.25390 3.95859
# Velocity P-wave (km/s) = 6.16498 7.00065 6.59606
#
# Compressibility (1/GPa) = 0.02004858
#
# Stress axis : x y z
#
# Youngs Moduli (GPa) = 90.71758 87.01992 124.61568
#
# Poissons Ratio (x) = 0.34967 -0.01246
# Poissons Ratio (y) = 0.36453 0.16538
# Poissons Ratio (z) = -0.00907 0.11549
#
# Static dielectric constant tensor:
#      x y z
#    x 1.494560 0.000000 0.026810 
#    y 0.000000 1.935440 0.000000 
#    z 0.026810 0.000000 1.963340 
# 
# From -- ./inp_files/16704.got.cif
#   From: 2010.05.17/outbox.cif.g08.bks.cpg/sg15_9_cif.got.tgz:16704.got - 2010.06.03 18:47:42.
