data_PCOD9288496
_publ_section_title
;
Structure prediction by ZEFSAII (Michael W. Deem and Ramdas Pophale) SiO2 
 PCOD9288496
Probable space group: C 2/C
;
_chemical_formula_sum "Si O2"
_cell_formula_units_Z 32
_cell_length_a 10.907346
_cell_length_b 25.522256
_cell_length_c 5.180896
_cell_angle_alpha 90.000000
_cell_angle_beta 74.789563
_cell_angle_gamma 90.000000
_cell_volume 1391.734072
_symmetry_space_group_name_H-M "C 2/C"
_symmetry_group_IT_number 15
_symmetry_cell_setting 'monoclinic'
loop_
_space_group_symop_operation_xyz
x,y,z
-x,y,1/2-z
-x,-y,-z
x,-y,1/2+z
1/2+x,1/2+y,z
1/2-x,1/2+y,1/2-z
1/2-x,1/2-y,-z
1/2+x,1/2-y,1/2+z
loop_
_atom_site_type_symbol
_atom_site_label
_atom_site_fract_x
_atom_site_fract_y
_atom_site_fract_z
Si Si1 0.358845 0.655524 0.337752
Si Si2 0.694242 0.135016 0.923718
Si Si3 0.356887 0.021076 0.745234
Si Si4 0.105956 0.255592 0.482104
O O1 0.500000 0.631407 0.250000
O O2 0.298637 0.646752 0.647599
O O3 0.263489 0.636599 0.163662
O O4 0.380701 0.717433 0.269337
O O5 0.640226 0.078573 0.878903
O O6 0.592571 0.182074 0.952320
O O7 0.500000 0.005253 0.750000
O O8 0.294108 0.984287 0.562259
O O9 0.250000 0.250000 0.500000
O O10 0.000000 0.238395 0.750000
#
# Coordination Sequence:
#
# PCOD9288496 Si02
#       4
#     8   8   8   8
#     4  11  22  40  61  89 127 166 206 251 308 370
#     4  11  23  39  64  91 121 165 210 254 308 377
#     4  10  22  40  62  89 120 154 198 258 321 373
#     4  10  22  39  60  92 130 167 209 254 306 373
#
# _framework density 22.992895999999998
#
# number of rings (size 3 to 8) (size 9 to 14) (size 15 to 20)
#    0.000    1.500    0.000    6.000    0.000   10.000 
#    0.000    0.000    0.000   15.000    0.000    0.000 
#    0.000    0.000    0.000    0.000    0.000    0.000 
#
# Total GULP energy -89266.264694 kJ/mol
# GULP energy per Si atom -5579.141543 kJ/mol
# Density = 2.294056 g / cm^3
# Si number density = 22.992896 Si / 1000 Ang^3
#
#
#
# Elastic Constant Matrix: (Units=GPa)
#
#
# Indices 1 2 3 4 5 6 
#
# 1 57.8294 0.2380 15.3971 0.0000 10.6304 0.0000
# 2 0.2380 128.8288 12.8233 0.0000 17.3244 0.0000
# 3 15.3971 12.8233 90.2517 0.0000 1.9415 0.0000
# 4 0.0000 0.0000 0.0000 37.0891 0.0000 10.3926
# 5 10.6304 17.3244 1.9415 0.0000 52.5641 0.0000
# 6 0.0000 0.0000 0.0000 10.3926 0.0000 11.5931
#
#
#
# Elastic Compliance Matrix: (Units=1/GPa)
#
#
# Indices 1 2 3 4 5 6 
#
# 1 0.018885 0.000823 -0.003253 0.000000 -0.003970 0.000000
# 2 0.000823 0.008268 -0.001254 0.000000 -0.002845 0.000000
# 3 -0.003253 -0.001254 0.011800 0.000000 0.000635 0.000000
# 4 0.000000 0.000000 0.000000 0.036007 0.000000 -0.032278
# 5 -0.003970 -0.002845 0.000635 0.000000 0.020742 0.000000
# 6 0.000000 0.000000 0.000000 -0.032278 0.000000 0.115194
#
#
# Mechanical properties :
#
#
# Convention : Reuss Voigt Hill
#
# Bulk Modulus (GPa) = 31.66175 37.09186 34.37680
# Shear Modulus (GPa) = 21.85396 36.81270 29.33333
#
# Velocity S-wave (km/s) = 3.08631 4.00565 3.57565
# Velocity P-wave (km/s) = 5.14786 6.12866 5.65955
#
# Compressibility (1/GPa) = 0.03158385
#
# Stress axis : x y z
#
# Youngs Moduli (GPa) = 52.95247 120.94621 84.74834
#
# Poissons Ratio (x) = -0.09952 0.27571
# Poissons Ratio (y) = -0.04357 0.10627
# Poissons Ratio (z) = 0.17227 0.15166
#
# Static dielectric constant tensor:
#      x y z
#    x 1.978210 0.000000 0.034990 
#    y 0.000000 1.949940 0.000000 
#    z 0.034990 0.000000 2.002300 
# 
# From -- ./inp_files/3981.got.cif
#   From: 2010.05.17/outbox.cif.g08.bks.cpg/sg15_2_cif.got.tgz:3981.got - 2010.06.03 18:47:42.
