data_PCOD9288250
_publ_section_title
;
Structure prediction by ZEFSAII (Michael W. Deem and Ramdas Pophale) SiO2 
 PCOD9288250
Probable space group: C 2/C
;
_chemical_formula_sum "Si O2"
_cell_formula_units_Z 60
_cell_length_a 15.666507
_cell_length_b 11.187728
_cell_length_c 21.548107
_cell_angle_alpha 90.000000
_cell_angle_beta 37.798959
_cell_angle_gamma 90.000000
_cell_volume 2314.768940
_symmetry_space_group_name_H-M "C 2/C"
_symmetry_group_IT_number 15
_symmetry_cell_setting 'monoclinic'
loop_
_space_group_symop_operation_xyz
x,y,z
-x,y,1/2-z
-x,-y,-z
x,-y,1/2+z
1/2+x,1/2+y,z
1/2-x,1/2+y,1/2-z
1/2-x,1/2-y,-z
1/2+x,1/2-y,1/2+z
loop_
_atom_site_type_symbol
_atom_site_label
_atom_site_fract_x
_atom_site_fract_y
_atom_site_fract_z
Si Si1 0.000000 0.788868 0.250000
Si Si2 0.299220 0.160731 0.103368
Si Si3 0.589692 0.568306 0.581255
Si Si4 0.404604 0.855013 0.251648
Si Si5 0.688103 0.707324 0.410856
Si Si6 0.376997 0.930270 0.981707
Si Si7 0.813458 0.570668 0.234097
Si Si8 0.398799 0.710510 0.445189
O O1 0.996668 0.870394 0.188710
O O2 0.145805 0.717636 0.165120
O O3 0.156958 0.235382 0.181940
O O4 0.294353 0.096494 0.172473
O O5 0.340968 0.056512 0.032645
O O6 0.395181 0.268398 0.021424
O O7 0.596153 0.624728 0.509209
O O8 0.745813 0.595541 0.514623
O O9 0.570308 0.426474 0.588752
O O10 0.500000 0.915019 0.250000
O O11 0.495540 0.802981 0.144675
O O12 0.296897 0.945256 0.280461
O O13 0.626530 0.838045 0.459135
O O14 0.711578 0.660183 0.328363
O O15 0.517684 0.915281 0.861839
O O16 0.250000 0.750000 0.500000
#
# Coordination Sequence:
#
# PCOD9288250 Si02
#       8
#     4   8   8   8   8   8   8   8
#     4  10  22  38  66 102 144 186 232 300 376 432
#     4  12  27  45  68 107 145 187 244 311 378 439
#     4  11  22  40  68 107 137 180 241 315 356 437
#     4  12  26  45  79 108 140 194 255 307 363 447
#     4  11  24  40  66 100 142 185 248 291 372 441
#     4  11  23  44  68  96 142 191 242 300 374 447
#     4  12  27  44  73  99 147 197 244 303 385 445
#     4  12  23  42  71 106 140 182 249 316 369 435
#
# _framework density 25.920511999999999
#
# number of rings (size 3 to 8) (size 9 to 14) (size 15 to 20)
#    0.000    0.533    4.000    4.400    9.333    0.000 
#    0.000    0.000    0.000    4.000    0.000    0.000 
#    0.000    0.000    0.000    0.000    0.000    0.000 
#
# Total GULP energy -167616.164700 kJ/mol
# GULP energy per Si atom -5587.205490 kJ/mol
# Density = 2.586152 g / cm^3
# Si number density = 25.920512 Si / 1000 Ang^3
#
#
#
# Elastic Constant Matrix: (Units=GPa)
#
#
# Indices 1 2 3 4 5 6 
#
# 1 69.2122 18.5625 17.2135 0.0000 21.3628 0.0000
# 2 18.5625 117.4128 58.7795 0.0000 19.5305 0.0000
# 3 17.2135 58.7795 180.2416 -0.0001 36.7040 0.0000
# 4 0.0000 0.0000 -0.0001 41.4110 0.0001 6.7441
# 5 21.3628 19.5305 36.7040 0.0001 40.8854 0.0000
# 6 0.0000 0.0000 0.0000 6.7441 0.0000 28.3304
#
#
#
# Elastic Compliance Matrix: (Units=1/GPa)
#
#
# Indices 1 2 3 4 5 6 
#
# 1 0.017482 -0.001613 0.000685 0.000000 -0.008979 0.000000
# 2 -0.001613 0.010508 -0.002964 0.000000 -0.001516 0.000000
# 3 0.000685 -0.002964 0.007628 0.000000 -0.005790 0.000000
# 4 0.000000 0.000000 0.000000 0.025122 0.000000 -0.005980
# 5 -0.008979 -0.001516 -0.005790 0.000000 0.035072 0.000000
# 6 0.000000 0.000000 0.000000 -0.005980 0.000000 0.036721
#
#
# Mechanical properties :
#
#
# Convention : Reuss Voigt Hill
#
# Bulk Modulus (GPa) = 35.92771 61.77529 48.85150
# Shear Modulus (GPa) = 33.42318 40.27943 36.85130
#
# Velocity S-wave (km/s) = 3.59479 3.94631 3.77464
# Velocity P-wave (km/s) = 5.57860 6.68197 6.15506
#
# Compressibility (1/GPa) = 0.02783367
#
# Stress axis : x y z
#
# Youngs Moduli (GPa) = 57.20175 95.16547 131.08828
#
# Poissons Ratio (x) = 0.15352 -0.08979
# Poissons Ratio (y) = 0.09228 0.38856
# Poissons Ratio (z) = -0.03918 0.28208
#
# Static dielectric constant tensor:
#      x y z
#    x 2.289280 0.000000 -0.065930 
#    y 0.000000 2.048490 0.000000 
#    z -0.065930 0.000000 2.032830 
# 
# From -- ./inp_files/248739.got.cif
#   From: 2010.05.17/outbox.cif.g08.bks.cpg/sg15_125_cif.got.tgz:248739.got - 2010.06.03 18:47:42.
