data_PCOD9288972
_publ_section_title
;
Structure prediction by ZEFSAII (Michael W. Deem and Ramdas Pophale) SiO2 
 PCOD9288972
Probable space group: C 2/C
;
_chemical_formula_sum "Si O2"
_cell_formula_units_Z 60
_cell_length_a 9.444141
_cell_length_b 17.172648
_cell_length_c 17.460123
_cell_angle_alpha 90.000000
_cell_angle_beta 91.059000
_cell_angle_gamma 90.000000
_cell_volume 2831.214948
_symmetry_space_group_name_H-M "C 2/C"
_symmetry_group_IT_number 15
_symmetry_cell_setting 'monoclinic'
loop_
_space_group_symop_operation_xyz
x,y,z
-x,y,1/2-z
-x,-y,-z
x,-y,1/2+z
1/2+x,1/2+y,z
1/2-x,1/2+y,1/2-z
1/2-x,1/2-y,-z
1/2+x,1/2-y,1/2+z
loop_
_atom_site_type_symbol
_atom_site_label
_atom_site_fract_x
_atom_site_fract_y
_atom_site_fract_z
Si Si1 0.811273 0.257500 0.829300
Si Si2 0.160223 0.313414 0.453538
Si Si3 0.852620 0.275567 0.651067
Si Si4 0.709605 0.062599 0.427012
Si Si5 0.037702 0.478195 0.162736
Si Si6 0.500000 0.500000 0.500000
Si Si7 0.258755 0.410072 0.588122
Si Si8 0.359843 0.161384 0.923768
O O1 0.739592 0.184595 0.872506
O O2 0.812001 0.255103 0.737979
O O3 0.726569 0.332475 0.860261
O O4 0.976728 0.269469 0.854373
O O5 0.250000 0.250000 0.500000
O O6 0.170170 0.385806 0.511130
O O7 0.997776 0.288461 0.445652
O O8 0.798732 0.361641 0.628840
O O9 0.775050 0.213370 0.596016
O O10 0.668161 0.100987 0.508302
O O11 0.859160 0.022933 0.445376
O O12 0.594766 0.003720 0.390814
O O13 0.167440 0.531821 0.138083
O O14 0.086583 0.390487 0.146526
O O15 0.000000 0.491182 0.250000
O O16 0.398637 0.449040 0.557135
#
# Coordination Sequence:
#
# PCOD9288972 Si02
#       8
#     8   8   8   8   8   4   8   8
#     4  10  23  45  70 102 144 183 234 292 367 425
#     4  10  22  39  69  97 137 180 227 289 349 425
#     4  11  25  43  72 105 140 188 235 298 358 429
#     4  12  24  47  71 101 138 189 241 292 350 438
#     4  12  25  47  75 101 140 191 243 296 362 435
#     4  12  28  40  68 106 136 174 242 304 344 408
#     4  11  22  46  70 100 133 191 239 287 354 430
#     4  12  25  43  68 105 139 180 239 290 355 427
#
# _framework density 21.192316000000002
#
# number of rings (size 3 to 8) (size 9 to 14) (size 15 to 20)
#    0.000    0.800    4.000    3.200    7.467    0.000 
#    0.000    2.000    0.000    0.000    0.000    0.000 
#    0.000    0.000    0.000    0.000    0.000    0.000 
#
# Total GULP energy -167081.742883 kJ/mol
# GULP energy per Si atom -5569.391429 kJ/mol
# Density = 2.114408 g / cm^3
# Si number density = 21.192316 Si / 1000 Ang^3
#
#
#
# Elastic Constant Matrix: (Units=GPa)
#
#
# Indices 1 2 3 4 5 6 
#
# 1 86.7201 1.4835 5.9711 0.0000 3.1529 0.0000
# 2 1.4835 38.7062 2.7124 0.0000 -1.2397 0.0000
# 3 5.9711 2.7124 88.3005 0.0000 -20.9797 0.0000
# 4 0.0000 0.0000 0.0000 33.8492 0.0000 -0.2495
# 5 3.1529 -1.2397 -20.9797 0.0000 32.6987 0.0000
# 6 0.0000 0.0000 0.0000 -0.2495 0.0000 13.9548
#
#
#
# Elastic Compliance Matrix: (Units=1/GPa)
#
#
# Indices 1 2 3 4 5 6 
#
# 1 0.011694 -0.000424 -0.001238 0.000000 -0.001938 0.000000
# 2 -0.000424 0.025915 -0.000619 0.000000 0.000626 0.000000
# 3 -0.001238 -0.000619 0.013510 0.000000 0.008764 0.000000
# 4 0.000000 0.000000 0.000000 0.029547 0.000000 0.000528
# 5 -0.001938 0.000626 0.008764 0.000000 0.036416 0.000000
# 6 0.000000 0.000000 0.000000 0.000528 0.000000 0.071669
#
#
# Mechanical properties :
#
#
# Convention : Reuss Voigt Hill
#
# Bulk Modulus (GPa) = 21.47820 26.00678 23.74249
# Shear Modulus (GPa) = 23.94272 29.67121 26.80696
#
# Velocity S-wave (km/s) = 3.36487 3.74584 3.56045
# Velocity P-wave (km/s) = 5.02527 5.56838 5.30378
#
# Compressibility (1/GPa) = 0.04655884
#
# Stress axis : x y z
#
# Youngs Moduli (GPa) = 85.51155 38.58720 74.01936
#
# Poissons Ratio (x) = 0.01634 0.09166
# Poissons Ratio (y) = 0.03622 0.04579
# Poissons Ratio (z) = 0.10589 0.02387
#
# Static dielectric constant tensor:
#      x y z
#    x 1.727510 0.000000 -0.001040 
#    y 0.000000 1.835910 0.000000 
#    z -0.001040 0.000000 1.800950 
# 
# From -- ./inp_files/191002.got.cif
#   From: 2010.05.17/outbox.cif.g08.bks.cpg/sg15_96_cif.got.tgz:191002.got - 2010.06.03 18:47:42.
