data_PCOD9288427
_publ_section_title
;
Structure prediction by ZEFSAII (Michael W. Deem and Ramdas Pophale) SiO2 
 PCOD9288427
Probable space group: C 2/C
;
_chemical_formula_sum "Si O2"
_cell_formula_units_Z 56
_cell_length_a 12.330162
_cell_length_b 23.921679
_cell_length_c 9.385522
_cell_angle_alpha 90.000000
_cell_angle_beta 63.650622
_cell_angle_gamma 90.000000
_cell_volume 2480.718083
_symmetry_space_group_name_H-M "C 2/C"
_symmetry_group_IT_number 15
_symmetry_cell_setting 'monoclinic'
loop_
_space_group_symop_operation_xyz
x,y,z
-x,y,1/2-z
-x,-y,-z
x,-y,1/2+z
1/2+x,1/2+y,z
1/2-x,1/2+y,1/2-z
1/2-x,1/2-y,-z
1/2+x,1/2-y,1/2+z
loop_
_atom_site_type_symbol
_atom_site_label
_atom_site_fract_x
_atom_site_fract_y
_atom_site_fract_z
Si Si1 0.779371 0.957840 0.421053
Si Si2 0.589229 0.260290 0.988329
Si Si3 0.516347 0.940648 0.570192
Si Si4 0.152939 0.107417 0.868366
Si Si5 0.713741 0.911410 0.949715
Si Si6 0.663088 0.269538 0.261613
Si Si7 0.395863 0.388044 0.599698
O O1 0.654566 0.923302 0.471788
O O2 0.851659 0.944221 0.236632
O O3 0.843045 0.934212 0.522969
O O4 0.743771 0.022405 0.449870
O O5 0.691221 0.238844 0.817596
O O6 0.606562 0.327027 0.968634
O O7 0.627778 0.244676 0.127405
O O8 0.443551 0.248065 0.067629
O O9 0.500000 0.946686 0.750000
O O10 0.414380 0.903942 0.553881
O O11 0.500000 0.000000 0.500000
O O12 0.143842 0.163742 0.782285
O O13 0.269381 0.111177 0.901689
O O14 0.037326 0.100858 0.038138
O O15 0.812891 0.886938 0.785695
#
# Coordination Sequence:
#
# PCOD9288427 Si02
#       7
#     8   8   8   8   8   8   8
#     4  11  22  38  61  85 123 165 213 252 293 365
#     4   9  18  36  63  87 123 156 204 259 313 375
#     4  10  22  39  59  81 117 165 211 257 304 351
#     4  11  23  37  60  90 127 161 200 257 312 363
#     4  11  24  38  58  88 126 167 207 249 306 368
#     4   9  18  37  60  91 119 156 203 260 317 371
#     4  11  21  39  59  91 124 163 202 253 311 363
#
# _framework density 22.574110000000001
#
# number of rings (size 3 to 8) (size 9 to 14) (size 15 to 20)
#    0.000    1.714    2.857    1.714    6.000    3.429 
#    2.571    2.143    0.000    0.000    0.000    0.000 
#    0.000    0.000    0.000    0.000    0.000    0.000 
#
# Total GULP energy -156102.675082 kJ/mol
# GULP energy per Si atom -5575.095539 kJ/mol
# Density = 2.252273 g / cm^3
# Si number density = 22.574110 Si / 1000 Ang^3
#
#
#
# Elastic Constant Matrix: (Units=GPa)
#
#
# Indices 1 2 3 4 5 6 
#
# 1 87.6270 8.8545 20.2866 0.0000 -9.9904 0.0000
# 2 8.8545 28.6801 7.2969 0.0000 -11.6463 0.0000
# 3 20.2866 7.2969 68.3087 0.0000 -17.4864 0.0000
# 4 0.0000 0.0000 0.0000 30.4220 0.0000 9.4465
# 5 -9.9904 -11.6463 -17.4864 0.0000 50.7519 0.0000
# 6 0.0000 0.0000 0.0000 9.4465 0.0000 50.7538
#
#
#
# Elastic Compliance Matrix: (Units=1/GPa)
#
#
# Indices 1 2 3 4 5 6 
#
# 1 0.012522 -0.002750 -0.003242 0.000000 0.000717 0.000000
# 2 -0.002750 0.039312 -0.001329 0.000000 0.008022 0.000000
# 3 -0.003242 -0.001329 0.017002 0.000000 0.004915 0.000000
# 4 0.000000 0.000000 0.000000 0.034887 0.000000 -0.006493
# 5 0.000717 0.008022 0.004915 0.000000 0.023379 0.000000
# 6 0.000000 0.000000 0.000000 -0.006493 0.000000 0.020912
#
#
# Mechanical properties :
#
#
# Convention : Reuss Voigt Hill
#
# Bulk Modulus (GPa) = 18.45191 28.61018 23.53105
# Shear Modulus (GPa) = 27.66699 36.26408 31.96553
#
# Velocity S-wave (km/s) = 3.50466 4.01240 3.76709
# Velocity P-wave (km/s) = 4.95667 5.84527 5.41921
#
# Compressibility (1/GPa) = 0.05419493
#
# Stress axis : x y z
#
# Youngs Moduli (GPa) = 79.85890 25.43745 58.81563
#
# Poissons Ratio (x) = 0.06995 0.19065
# Poissons Ratio (y) = 0.21962 0.07818
# Poissons Ratio (z) = 0.25887 0.03381
#
# Static dielectric constant tensor:
#      x y z
#    x 1.929910 0.000000 -0.052660 
#    y 0.000000 1.836810 0.000000 
#    z -0.052660 0.000000 1.877870 
# 
# From -- ./inp_files/35585.got.cif
#   From: 2010.05.17/outbox.cif.g08.bks.cpg/sg15_18_cif.got.tgz:35585.got - 2010.06.03 18:47:42.
