data_PCOD9288033
_publ_section_title
;
Structure prediction by ZEFSAII (Michael W. Deem and Ramdas Pophale) SiO2 
 PCOD9288033
Probable space group: C 2/C
;
_chemical_formula_sum "Si O2"
_cell_formula_units_Z 48
_cell_length_a 25.744658
_cell_length_b 10.105444
_cell_length_c 8.775226
_cell_angle_alpha 90.000000
_cell_angle_beta 120.776533
_cell_angle_gamma 90.000000
_cell_volume 1961.461153
_symmetry_space_group_name_H-M "C 2/C"
_symmetry_group_IT_number 15
_symmetry_cell_setting 'monoclinic'
loop_
_space_group_symop_operation_xyz
x,y,z
-x,y,1/2-z
-x,-y,-z
x,-y,1/2+z
1/2+x,1/2+y,z
1/2-x,1/2+y,1/2-z
1/2-x,1/2-y,-z
1/2+x,1/2-y,1/2+z
loop_
_atom_site_type_symbol
_atom_site_label
_atom_site_fract_x
_atom_site_fract_y
_atom_site_fract_z
Si Si1 0.750000 0.750000 0.500000
Si Si2 0.001066 0.355800 0.432401
Si Si3 0.000000 0.012244 0.750000
Si Si4 0.206635 0.859081 0.261242
Si Si5 0.424561 0.631034 0.881868
Si Si6 0.824467 0.403665 0.591062
Si Si7 0.129998 0.333009 0.169651
O O1 0.774058 0.822674 0.379005
O O2 0.818750 0.759287 0.681666
O O3 0.938369 0.289725 0.395375
O O4 0.000000 0.362260 0.250000
O O5 0.000000 0.500000 0.500000
O O6 0.062691 0.286237 0.578660
O O7 0.052690 0.094735 0.750305
O O8 0.970581 0.925122 0.575359
O O9 0.140954 0.921458 0.177032
O O10 0.195014 0.719014 0.331871
O O11 0.259298 0.946186 0.418929
O O12 0.861172 0.355101 0.497733
O O13 0.854697 0.526619 0.721894
#
# Coordination Sequence:
#
# PCOD9288033 Si02
#       7
#     4   8   4   8   8   8   8
#     4  10  22  38  62  90 124 170 210 272 326 396
#     4  12  25  40  67 100 134 176 218 282 347 412
#     4  10  26  46  66  98 130 186 234 286 334 404
#     4  10  22  41  65  93 131 169 220 280 338 409
#     4  11  24  46  68  98 138 178 237 281 348 412
#     4  10  22  40  61  94 125 167 214 271 333 405
#     4  11  22  39  61  90 128 166 217 265 337 404
#
# _framework density 24.471550000000001
#
# number of rings (size 3 to 8) (size 9 to 14) (size 15 to 20)
#    0.000    1.333    0.833    4.000    3.500    2.667 
#    3.000    0.000    0.000    0.000    0.000    0.000 
#    0.000    0.000    0.000    0.000    0.000    0.000 
#
# Total GULP energy -133883.906409 kJ/mol
# GULP energy per Si atom -5578.496100 kJ/mol
# Density = 2.441585 g / cm^3
# Si number density = 24.471550 Si / 1000 Ang^3
#
#
#
# Elastic Constant Matrix: (Units=GPa)
#
#
# Indices 1 2 3 4 5 6 
#
# 1 162.8895 -7.0596 37.9404 0.0000 2.1638 0.0000
# 2 -7.0596 39.9421 24.3357 0.0000 -8.8102 0.0000
# 3 37.9404 24.3357 72.4927 0.0000 -21.7115 0.0000
# 4 0.0000 0.0000 0.0000 22.8418 0.0000 -0.2701
# 5 2.1638 -8.8102 -21.7115 0.0000 57.0330 0.0000
# 6 0.0000 0.0000 0.0000 -0.2701 0.0000 21.4467
#
#
#
# Elastic Compliance Matrix: (Units=1/GPa)
#
#
# Indices 1 2 3 4 5 6 
#
# 1 0.007839 0.004791 -0.006296 0.000000 -0.001954 0.000000
# 2 0.004791 0.034447 -0.014144 0.000000 -0.000245 0.000000
# 3 -0.006296 -0.014144 0.023990 0.000000 0.007187 0.000000
# 4 0.000000 0.000000 0.000000 0.043786 0.000000 0.000551
# 5 -0.001954 -0.000245 0.007187 0.000000 0.020306 0.000000
# 6 0.000000 0.000000 0.000000 0.000551 0.000000 0.046634
#
#
# Mechanical properties :
#
#
# Convention : Reuss Voigt Hill
#
# Bulk Modulus (GPa) = 28.59079 42.86193 35.72636
# Shear Modulus (GPa) = 22.73127 34.93816 28.83471
#
# Velocity S-wave (km/s) = 3.05107 3.78260 3.43635
# Velocity P-wave (km/s) = 4.91128 6.05231 5.51140
#
# Compressibility (1/GPa) = 0.03497630
#
# Stress axis : x y z
#
# Youngs Moduli (GPa) = 127.56280 29.03035 41.68320
#
# Poissons Ratio (x) = -0.13908 0.26245
# Poissons Ratio (y) = -0.61111 0.58958
# Poissons Ratio (z) = 0.80318 0.41062
#
# Static dielectric constant tensor:
#      x y z
#    x 1.955560 0.000000 0.093430 
#    y 0.000000 2.058550 0.000000 
#    z 0.093430 0.000000 1.966290 
# 
# From -- ./inp_files/65060.got.cif
#   From: 2010.05.17/outbox.cif.g08.bks.cpg/sg15_33_cif.got.tgz:65060.got - 2010.06.03 18:47:42.
