data_PCOD9288928
_publ_section_title
;
Structure prediction by ZEFSAII (Michael W. Deem and Ramdas Pophale) SiO2 
 PCOD9288928
Probable space group: C 2/C
;
_chemical_formula_sum "Si O2"
_cell_formula_units_Z 52
_cell_length_a 11.029784
_cell_length_b 19.682058
_cell_length_c 13.303144
_cell_angle_alpha 90.000000
_cell_angle_beta 59.577544
_cell_angle_gamma 90.000000
_cell_volume 2490.335646
_symmetry_space_group_name_H-M "C 2/C"
_symmetry_group_IT_number 15
_symmetry_cell_setting 'monoclinic'
loop_
_space_group_symop_operation_xyz
x,y,z
-x,y,1/2-z
-x,-y,-z
x,-y,1/2+z
1/2+x,1/2+y,z
1/2-x,1/2+y,1/2-z
1/2-x,1/2-y,-z
1/2+x,1/2-y,1/2+z
loop_
_atom_site_type_symbol
_atom_site_label
_atom_site_fract_x
_atom_site_fract_y
_atom_site_fract_z
Si Si1 0.018218 0.847053 0.885819
Si Si2 0.431723 0.516331 0.420322
Si Si3 0.904482 0.472174 0.195656
Si Si4 0.320053 0.357771 0.156768
Si Si5 0.353168 0.080503 0.044974
Si Si6 0.000000 0.894618 0.250000
Si Si7 0.213237 0.212052 0.166048
O O1 0.034785 0.923999 0.838506
O O2 0.904510 0.806715 0.867034
O O3 0.160940 0.809471 0.799326
O O4 0.949843 0.857200 0.023209
O O5 0.500000 0.500000 0.500000
O O6 0.278856 0.551517 0.466117
O O7 0.432329 0.447237 0.357659
O O8 0.777459 0.424746 0.290035
O O9 0.858422 0.534127 0.143160
O O10 0.000000 0.494552 0.250000
O O11 0.007242 0.428851 0.079699
O O12 0.387889 0.350585 0.237863
O O13 0.236240 0.291725 0.157924
O O14 0.333709 0.159183 0.083015
#
# Coordination Sequence:
#
# PCOD9288928 Si02
#       7
#     8   8   8   8   8   4   8
#     4  10  22  39  67  98 121 172 219 273 326 386
#     4  11  20  39  70  96 128 165 218 280 325 385
#     4  11  24  40  67  97 132 174 215 272 336 393
#     4  12  25  42  66  96 133 172 220 274 333 399
#     4  10  23  44  64  99 135 169 223 272 330 402
#     4  12  24  42  64 100 130 166 226 270 338 394
#     4  10  23  40  65  93 133 167 222 272 324 393
#
# _framework density 20.880721000000001
#
# number of rings (size 3 to 8) (size 9 to 14) (size 15 to 20)
#    0.000    1.231    3.077    4.154    4.308    0.000 
#    1.385    0.769    0.000    0.000    0.000    0.000 
#    0.000    0.000    0.000    0.000    0.000    0.000 
#
# Total GULP energy -144900.477878 kJ/mol
# GULP energy per Si atom -5573.095303 kJ/mol
# Density = 2.083320 g / cm^3
# Si number density = 20.880721 Si / 1000 Ang^3
#
#
#
# Elastic Constant Matrix: (Units=GPa)
#
#
# Indices 1 2 3 4 5 6 
#
# 1 63.8332 -9.9243 14.8288 0.0000 30.2392 0.0000
# 2 -9.9243 51.5118 9.1432 0.0000 15.6451 0.0000
# 3 14.8288 9.1432 114.5938 0.0000 10.1223 0.0000
# 4 0.0000 0.0000 0.0000 20.4984 0.0000 0.8593
# 5 30.2392 15.6451 10.1223 0.0000 42.8673 0.0000
# 6 0.0000 0.0000 0.0000 0.8593 0.0000 28.6030
#
#
#
# Elastic Compliance Matrix: (Units=1/GPa)
#
#
# Indices 1 2 3 4 5 6 
#
# 1 0.031269 0.014649 -0.002854 0.000000 -0.026730 0.000000
# 2 0.014649 0.028823 -0.002404 0.000000 -0.020286 0.000000
# 3 -0.002854 -0.002404 0.009225 0.000000 0.000712 0.000000
# 4 0.000000 0.000000 0.000000 0.048846 0.000000 -0.001467
# 5 -0.026730 -0.020286 0.000712 0.000000 0.049419 0.000000
# 6 0.000000 0.000000 0.000000 -0.001467 0.000000 0.035005
#
#
# Mechanical properties :
#
#
# Convention : Reuss Voigt Hill
#
# Bulk Modulus (GPa) = 11.35061 28.67046 20.01053
# Shear Modulus (GPa) = 23.45537 32.78649 28.12093
#
# Velocity S-wave (km/s) = 3.35521 3.96685 3.67378
# Velocity P-wave (km/s) = 4.52301 5.89420 5.25353
#
# Compressibility (1/GPa) = 0.08810102
#
# Stress axis : x y z
#
# Youngs Moduli (GPa) = 31.98033 34.69419 108.40518
#
# Poissons Ratio (x) = -0.50825 0.30939
# Poissons Ratio (y) = -0.46850 0.26055
# Poissons Ratio (z) = 0.09127 0.08339
#
# Static dielectric constant tensor:
#      x y z
#    x 1.778570 0.000000 -0.026570 
#    y 0.000000 1.756500 0.000000 
#    z -0.026570 0.000000 1.861560 
# 
# From -- ./inp_files/88842.got.cif
#   From: 2010.05.17/outbox.cif.g08.bks.cpg/sg15_45_cif.got.tgz:88842.got - 2010.06.03 18:47:42.
