data_PCOD9288617
_publ_section_title
;
Structure prediction by ZEFSAII (Michael W. Deem and Ramdas Pophale) SiO2 
 PCOD9288617
Probable space group: C 2/C
;
_chemical_formula_sum "Si O2"
_cell_formula_units_Z 64
_cell_length_a 5.034664
_cell_length_b 23.193453
_cell_length_c 23.319333
_cell_angle_alpha 90.000000
_cell_angle_beta 96.245587
_cell_angle_gamma 90.000000
_cell_volume 2706.865567
_symmetry_space_group_name_H-M "C 2/C"
_symmetry_group_IT_number 15
_symmetry_cell_setting 'monoclinic'
loop_
_space_group_symop_operation_xyz
x,y,z
-x,y,1/2-z
-x,-y,-z
x,-y,1/2+z
1/2+x,1/2+y,z
1/2-x,1/2+y,1/2-z
1/2-x,1/2-y,-z
1/2+x,1/2-y,1/2+z
loop_
_atom_site_type_symbol
_atom_site_label
_atom_site_fract_x
_atom_site_fract_y
_atom_site_fract_z
Si Si1 0.209024 0.807191 0.035125
Si Si2 0.053493 0.896183 0.850227
Si Si3 0.039590 0.603580 0.484457
Si Si4 0.917196 0.671416 0.125541
Si Si5 0.746517 0.299289 0.390130
Si Si6 0.647403 0.487261 0.563114
Si Si7 0.836241 0.921607 0.111951
Si Si8 0.256757 0.998237 0.287441
O O1 0.271433 0.864765 0.000374
O O2 0.438069 0.803453 0.089808
O O3 0.916860 0.803646 0.054089
O O4 0.250000 0.750000 0.000000
O O5 0.273964 0.846666 0.863868
O O6 0.765413 0.866969 0.836743
O O7 0.166804 0.938291 0.804915
O O8 0.005108 0.938971 0.902986
O O9 0.923477 0.455514 0.551500
O O10 0.153639 0.651054 0.441564
O O11 0.180643 0.588166 0.548200
O O12 0.844251 0.737499 0.134902
O O13 0.646495 0.358486 0.359178
O O14 0.500000 0.500000 0.500000
O O15 0.608077 0.545259 0.599547
O O16 0.691185 0.962565 0.153765
O O17 0.500000 0.999845 0.250000
O O18 0.000000 0.971443 0.250000
#
# Coordination Sequence:
#
# PCOD9288617 Si02
#       8
#     8   8   8   8   8   8   8   8
#     4  11  21  33  52  81 129 180 228 239 285 356
#     4  10  22  39  62  93 116 154 208 255 313 383
#     4   9  19  32  57  87 130 175 211 258 299 370
#     4  11  21  36  60  92 134 168 202 247 314 377
#     4  11  23  37  57  89 132 175 212 254 297 373
#     4   8  16  36  56  83 123 160 202 252 308 358
#     4   9  21  39  62  95 126 169 219 261 318 390
#     4  11  24  46  73  91 117 155 210 277 335 382
#
# _framework density 23.643584000000001
#
# number of rings (size 3 to 8) (size 9 to 14) (size 15 to 20)
#    0.000    2.000    1.250    1.875    1.750    5.000 
#    0.000   20.625    0.000    4.500    0.000    0.000 
#    0.000    0.000    0.000    0.000    0.000    0.000 
#
# Total GULP energy -178631.644284 kJ/mol
# GULP energy per Si atom -5582.238884 kJ/mol
# Density = 2.358977 g / cm^3
# Si number density = 23.643584 Si / 1000 Ang^3
#
#
#
# Elastic Constant Matrix: (Units=GPa)
#
#
# Indices 1 2 3 4 5 6 
#
# 1 70.6365 3.2393 18.9251 0.0000 -11.9710 0.0000
# 2 3.2393 139.1704 28.1767 0.0000 -7.5395 0.0000
# 3 18.9251 28.1767 66.3464 0.0000 -21.4385 0.0000
# 4 0.0000 0.0000 0.0000 -150.8780 0.0000 89.6544
# 5 -11.9710 -7.5395 -21.4385 0.0000 35.2613 0.0000
# 6 0.0000 0.0000 0.0000 89.6544 0.0000 -16.3730
#
#
#
# Elastic Compliance Matrix: (Units=1/GPa)
#
#
# Indices 1 2 3 4 5 6 
#
# 1 0.015657 0.000551 -0.003664 0.000000 0.003205 0.000000
# 2 0.000551 0.007886 -0.003610 0.000000 -0.000322 0.000000
# 3 -0.003664 -0.003610 0.021156 0.000000 0.010846 0.000000
# 4 0.000000 0.000000 0.000000 0.002941 0.000000 0.016103
# 5 0.003205 -0.000322 0.010846 0.000000 0.035974 0.000000
# 6 0.000000 0.000000 0.000000 0.016103 0.000000 0.027099
#
#
# Mechanical properties :
#
#
# Convention : Reuss Voigt Hill
#
# Bulk Modulus (GPa) = 31.99856 41.87061 36.93459
# Shear Modulus (GPa) = 37.15353 -11.34380 12.90487
#
# Velocity S-wave (km/s) = 3.96839 -2.19277 2.33879
# Velocity P-wave (km/s) = 5.87883 3.36698 4.79047
#
# Compressibility (1/GPa) = 0.03125141
#
# Stress axis : x y z
#
# Youngs Moduli (GPa) = 63.87043 126.80477 47.26841
#
# Poissons Ratio (x) = -0.06989 0.17321
# Poissons Ratio (y) = -0.03520 0.17066
# Poissons Ratio (z) = 0.23405 0.45781
#
# Static dielectric constant tensor:
#      x y z
#    x 1.963120 0.000000 0.025400 
#    y 0.000000 1.991790 0.000000 
#    z 0.025400 0.000000 1.878270 
# 
# From -- ./inp_files/261697.got.cif
#   From: 2010.05.17/outbox.cif.g08.bks.cpg/sg15_131_cif.got.tgz:261697.got - 2010.06.03 18:47:42.
