data_PCOD9288979
_publ_section_title
;
Structure prediction by ZEFSAII (Michael W. Deem and Ramdas Pophale) SiO2 
 PCOD9288979
Probable space group: C 2/C
;
_chemical_formula_sum "Si O2"
_cell_formula_units_Z 56
_cell_length_a 5.268113
_cell_length_b 17.968722
_cell_length_c 27.553020
_cell_angle_alpha 90.000000
_cell_angle_beta 72.443617
_cell_angle_gamma 90.000000
_cell_volume 2486.714910
_symmetry_space_group_name_H-M "C 2/C"
_symmetry_group_IT_number 15
_symmetry_cell_setting 'monoclinic'
loop_
_space_group_symop_operation_xyz
x,y,z
-x,y,1/2-z
-x,-y,-z
x,-y,1/2+z
1/2+x,1/2+y,z
1/2-x,1/2+y,1/2-z
1/2-x,1/2-y,-z
1/2+x,1/2-y,1/2+z
loop_
_atom_site_type_symbol
_atom_site_label
_atom_site_fract_x
_atom_site_fract_y
_atom_site_fract_z
Si Si1 0.543873 0.178196 0.190419
Si Si2 0.210134 0.944290 0.695483
Si Si3 0.926492 0.059757 0.115151
Si Si4 0.488288 0.651421 0.015844
Si Si5 0.374033 0.937560 0.331096
Si Si6 0.137089 0.152069 0.659156
Si Si7 0.419838 0.173061 0.542104
O O1 0.500000 0.166541 0.250000
O O2 0.274557 0.142667 0.185166
O O3 0.765004 0.126574 0.151777
O O4 0.583748 0.263671 0.177377
O O5 0.000000 0.954108 0.750000
O O6 0.131945 0.966593 0.645224
O O7 0.461287 0.992430 0.699280
O O8 0.009239 0.095726 0.059965
O O9 0.758851 0.983840 0.116752
O O10 0.442953 0.736807 0.036608
O O11 0.233533 0.640061 0.995867
O O12 0.772945 0.648379 0.972380
O O13 0.607767 0.879825 0.327717
O O14 0.132795 0.895738 0.318357
O O15 0.234681 0.152979 0.597987
#
# Coordination Sequence:
#
# PCOD9288979 Si02
#       7
#     8   8   8   8   8   8   8
#     4  11  25  42  71 107 132 177 234 292 341 399
#     4  11  24  46  74  99 137 183 241 281 334 416
#     4  11  23  47  71  99 137 183 234 286 334 410
#     4  10  22  39  70 101 130 177 233 281 347 407
#     4  11  27  45  69  98 144 189 221 271 357 417
#     4  12  25  48  68 103 149 179 223 292 351 406
#     4  10  22  40  66 104 135 173 226 289 347 403
#
# _framework density 22.519672
#
# number of rings (size 3 to 8) (size 9 to 14) (size 15 to 20)
#    0.000    1.143    4.286    0.857    6.000    1.714 
#    2.571    4.286    0.000    0.000    0.000    0.000 
#    0.000    0.000    0.000    0.000    0.000    0.000 
#
# Total GULP energy -156132.033346 kJ/mol
# GULP energy per Si atom -5576.144048 kJ/mol
# Density = 2.246842 g / cm^3
# Si number density = 22.519672 Si / 1000 Ang^3
#
#
#
# Elastic Constant Matrix: (Units=GPa)
#
#
# Indices 1 2 3 4 5 6 
#
# 1 121.2623 37.7091 11.4888 0.0000 -2.2276 0.0000
# 2 37.7091 112.1493 -1.5160 0.0000 -5.5909 0.0000
# 3 11.4888 -1.5160 48.9971 0.0000 -2.7170 0.0000
# 4 0.0000 0.0000 0.0000 1.7051 0.0000 -13.2020
# 5 -2.2276 -5.5909 -2.7170 0.0000 24.6737 0.0000
# 6 0.0000 0.0000 0.0000 -13.2020 0.0000 32.2175
#
#
#
# Elastic Compliance Matrix: (Units=1/GPa)
#
#
# Indices 1 2 3 4 5 6 
#
# 1 0.009466 -0.003221 -0.002327 0.000000 -0.000131 0.000000
# 2 -0.003221 0.010122 0.001187 0.000000 0.002133 0.000000
# 3 -0.002327 0.001187 0.021124 0.000000 0.002385 0.000000
# 4 0.000000 0.000000 0.000000 -0.269922 0.000000 -0.110608
# 5 -0.000131 0.002133 0.002385 0.000000 0.041263 0.000000
# 6 0.000000 0.000000 0.000000 -0.110608 0.000000 -0.014286
#
#
# Mechanical properties :
#
#
# Convention : Reuss Voigt Hill
#
# Bulk Modulus (GPa) = 31.25913 41.97473 36.61693
# Shear Modulus (GPa) = -27.34521 27.36771 0.01125
#
# Velocity S-wave (km/s) = -3.48843 3.48987 0.07075
# Velocity P-wave (km/s) = 1.52139 5.90919 4.03757
#
# Compressibility (1/GPa) = 0.03199065
#
# Stress axis : x y z
#
# Youngs Moduli (GPa) = 105.63876 98.79383 47.33979
#
# Poissons Ratio (x) = 0.31821 0.11014
# Poissons Ratio (y) = 0.34025 -0.05618
# Poissons Ratio (z) = 0.24578 -0.11724
#
# Static dielectric constant tensor:
#      x y z
#    x 1.926580 0.000000 -0.015100 
#    y 0.000000 1.863610 0.000000 
#    z -0.015100 0.000000 1.843970 
# 
# From -- ./inp_files/286028.got.cif
#   From: 2010.05.17/outbox.cif.g08.bks.cpg/sg15_144_cif.got.tgz:286028.got - 2010.06.03 18:47:42.
