data_PCOD9288109
_publ_section_title
;
Structure prediction by ZEFSAII (Michael W. Deem and Ramdas Pophale) SiO2 
 PCOD9288109
Probable space group: C 2/C
;
_chemical_formula_sum "Si O2"
_cell_formula_units_Z 36
_cell_length_a 26.636425
_cell_length_b 4.873814
_cell_length_c 16.340220
_cell_angle_alpha 90.000000
_cell_angle_beta 129.923890
_cell_angle_gamma 90.000000
_cell_volume 1626.822537
_symmetry_space_group_name_H-M "C 2/C"
_symmetry_group_IT_number 15
_symmetry_cell_setting 'monoclinic'
loop_
_space_group_symop_operation_xyz
x,y,z
-x,y,1/2-z
-x,-y,-z
x,-y,1/2+z
1/2+x,1/2+y,z
1/2-x,1/2+y,1/2-z
1/2-x,1/2-y,-z
1/2+x,1/2-y,1/2+z
loop_
_atom_site_type_symbol
_atom_site_label
_atom_site_fract_x
_atom_site_fract_y
_atom_site_fract_z
Si Si1 0.500000 0.368550 0.250000
Si Si2 0.121277 0.434542 0.792470
Si Si3 0.596696 0.419577 0.984371
Si Si4 0.186332 0.940390 0.936248
Si Si5 0.576088 0.926902 0.067459
O O1 0.443923 0.189463 0.235062
O O2 0.464430 0.533838 0.140301
O O3 0.133039 0.732113 0.842684
O O4 0.112906 0.480954 0.687606
O O5 0.179358 0.221391 0.877815
O O6 0.661447 0.500052 0.001770
O O7 0.585841 0.612724 0.051719
O O8 0.600302 0.107979 0.016643
O O9 0.250000 0.750000 0.000000
O O10 0.500000 0.000000 0.000000
#
# Coordination Sequence:
#
# PCOD9288109 Si02
#       5
#     4   8   8   8   8
#     4  10  22  38  64 100 126 170 212 266 332 398
#     4  11  24  40  68  96 134 170 220 273 336 394
#     4  11  24  39  65  94 135 169 217 267 334 396
#     4  11  25  46  68  92 127 181 236 270 311 386
#     4  12  24  39  62 103 140 165 203 271 352 407
#
# _framework density 22.129028000000002
#
# number of rings (size 3 to 8) (size 9 to 14) (size 15 to 20)
#    0.000    0.889    2.222    5.333    6.222    1.778 
#    0.000    4.444    0.000    0.000    0.000    0.000 
#    0.000    0.000    0.000    0.000    0.000    0.000 
#
# Total GULP energy -100721.532908 kJ/mol
# GULP energy per Si atom -5595.640717 kJ/mol
# Density = 2.207866 g / cm^3
# Si number density = 22.129028 Si / 1000 Ang^3
#
#
#
# Elastic Constant Matrix: (Units=GPa)
#
#
# Indices 1 2 3 4 5 6 
#
# 1 64.6853 -2.4152 22.3183 -0.0008 -1.0460 -0.0002
# 2 -2.4152 98.3450 12.3299 -0.0031 -1.3700 -0.0006
# 3 22.3183 12.3299 76.2492 -0.0005 -15.7021 -0.0005
# 4 -0.0008 -0.0031 -0.0005 50.2912 -0.0005 -6.9979
# 5 -1.0460 -1.3700 -15.7021 -0.0005 22.9803 -0.0005
# 6 -0.0002 -0.0006 -0.0005 -6.9979 -0.0005 40.2039
#
#
#
# Elastic Compliance Matrix: (Units=1/GPa)
#
#
# Indices 1 2 3 4 5 6 
#
# 1 0.017510 0.001134 -0.005971 0.000000 -0.003215 0.000000
# 2 0.001134 0.010460 -0.002193 0.000001 -0.000823 0.000000
# 3 -0.005971 -0.002193 0.017612 0.000000 0.011632 0.000000
# 4 0.000000 0.000001 0.000000 0.020378 0.000001 0.003547
# 5 -0.003215 -0.000823 0.011632 0.000001 0.051268 0.000001
# 6 0.000000 0.000000 0.000000 0.003547 0.000001 0.025491
#
#
# Mechanical properties :
#
#
# Convention : Reuss Voigt Hill
#
# Bulk Modulus (GPa) = 31.72307 33.74947 32.73627
# Shear Modulus (GPa) = 29.88914 36.49818 33.19366
#
# Velocity S-wave (km/s) = 3.67914 4.06561 3.87719
# Velocity P-wave (km/s) = 5.69339 6.10927 5.90499
#
# Compressibility (1/GPa) = 0.03152280
#
# Stress axis : x y z
#
# Youngs Moduli (GPa) = 57.11073 95.60618 56.77803
#
# Poissons Ratio (x) = -0.10840 0.33900
# Poissons Ratio (y) = -0.06475 0.12450
# Poissons Ratio (z) = 0.34098 0.20964
#
# Static dielectric constant tensor:
#      x y z
#    x 1.864960 0.000000 0.024700 
#    y 0.000000 1.780310 0.000000 
#    z 0.024700 0.000000 1.826560 
# 
# From -- ./inp_files/170660.got.cif
#   From: 2010.05.17/outbox.cif.g08.bks.cpg/sg15_86_cif.got.tgz:170660.got - 2010.06.03 18:47:42.
