data_PCOD9288551
_publ_section_title
;
Structure prediction by ZEFSAII (Michael W. Deem and Ramdas Pophale) SiO2 
 PCOD9288551
Probable space group: C 2/C
;
_chemical_formula_sum "Si O2"
_cell_formula_units_Z 40
_cell_length_a 20.614616
_cell_length_b 10.018116
_cell_length_c 10.587952
_cell_angle_alpha 90.000000
_cell_angle_beta 40.148530
_cell_angle_gamma 90.000000
_cell_volume 1409.869653
_symmetry_space_group_name_H-M "C 2/C"
_symmetry_group_IT_number 15
_symmetry_cell_setting 'monoclinic'
loop_
_space_group_symop_operation_xyz
x,y,z
-x,y,1/2-z
-x,-y,-z
x,-y,1/2+z
1/2+x,1/2+y,z
1/2-x,1/2+y,1/2-z
1/2-x,1/2-y,-z
1/2+x,1/2-y,1/2+z
loop_
_atom_site_type_symbol
_atom_site_label
_atom_site_fract_x
_atom_site_fract_y
_atom_site_fract_z
Si Si1 0.002835 0.177652 0.381607
Si Si2 0.062850 0.524219 0.782235
Si Si3 0.617864 0.756248 0.602918
Si Si4 0.726035 0.367238 0.307316
Si Si5 0.318837 0.485073 0.854985
O O1 0.000000 0.106346 0.250000
O O2 0.066564 0.314762 0.275809
O O3 0.882548 0.195064 0.573142
O O4 0.077587 0.084019 0.345503
O O5 0.000000 0.502728 0.750000
O O6 0.132408 0.391897 0.666437
O O7 0.000000 0.500000 0.000000
O O8 0.500000 0.736825 0.750000
O O9 0.681635 0.780198 0.380742
O O10 0.654974 0.627137 0.621586
O O11 0.727004 0.402797 0.455532
O O12 0.737146 0.495576 0.196314
#
# Coordination Sequence:
#
# PCOD9288551 Si02
#       5
#     8   8   8   8   8
#     4   9  20  41  67  94 129 173 219 269 327 392
#     4  10  22  39  61  91 129 169 209 263 324 381
#     4  11  25  43  67  99 135 175 222 274 330 395
#     4  11  24  42  70 100 133 174 221 275 334 393
#     4  11  24  45  70 100 132 173 225 277 329 395
#
# _framework density 28.371417000000001
#
# number of rings (size 3 to 8) (size 9 to 14) (size 15 to 20)
#    0.000    1.600    0.000    4.200    0.000   12.800 
#    0.000    2.000    0.000    0.000    0.000    0.000 
#    0.000    0.000    0.000    0.000    0.000    0.000 
#
# Total GULP energy -111581.838157 kJ/mol
# GULP energy per Si atom -5579.091908 kJ/mol
# Density = 2.830684 g / cm^3
# Si number density = 28.371417 Si / 1000 Ang^3
#
#
#
# Elastic Constant Matrix: (Units=GPa)
#
#
# Indices 1 2 3 4 5 6 
#
# 1 117.3016 27.5077 60.3485 0.0000 -5.6804 0.0000
# 2 27.5077 152.5889 43.9761 0.0000 -9.6508 0.0000
# 3 60.3485 43.9761 188.5161 0.0000 -6.9180 0.0000
# 4 0.0000 0.0000 0.0000 30.7863 0.0000 5.5155
# 5 -5.6804 -9.6508 -6.9180 0.0000 59.9182 0.0000
# 6 0.0000 0.0000 0.0000 5.5155 0.0000 43.4851
#
#
#
# Elastic Compliance Matrix: (Units=1/GPa)
#
#
# Indices 1 2 3 4 5 6 
#
# 1 0.010353 -0.000950 -0.003075 0.000000 0.000473 0.000000
# 2 -0.000950 0.007167 -0.001334 0.000000 0.000910 0.000000
# 3 -0.003075 -0.001334 0.006610 0.000000 0.000257 0.000000
# 4 0.000000 0.000000 0.000000 0.033237 0.000000 -0.004216
# 5 0.000473 0.000910 0.000257 0.000000 0.016911 0.000000
# 6 0.000000 0.000000 0.000000 -0.004216 0.000000 0.023531
#
#
# Mechanical properties :
#
#
# Convention : Reuss Voigt Hill
#
# Bulk Modulus (GPa) = 74.56968 80.23013 77.39991
# Shear Modulus (GPa) = 44.24865 48.60953 46.42909
#
# Velocity S-wave (km/s) = 3.95349 4.14373 4.04972
# Velocity P-wave (km/s) = 6.86881 7.15778 7.01478
#
# Compressibility (1/GPa) = 0.01341028
#
# Stress axis : x y z
#
# Youngs Moduli (GPa) = 96.59156 139.52918 151.29261
#
# Poissons Ratio (x) = 0.13257 0.46525
# Poissons Ratio (y) = 0.09178 0.20187
# Poissons Ratio (z) = 0.29704 0.18618
#
# Static dielectric constant tensor:
#      x y z
#    x 2.325080 0.000000 -0.172920 
#    y 0.000000 2.379680 0.000000 
#    z -0.172920 0.000000 2.433800 
# 
# From -- ./inp_files/122769.got.cif
#   From: 2010.05.17/outbox.cif.g08.bks.cpg/sg15_62_cif.got.tgz:122769.got - 2010.06.03 18:47:42.
