data_PCOD9288881
_publ_section_title
;
Structure prediction by ZEFSAII (Michael W. Deem and Ramdas Pophale) SiO2 
 PCOD9288881
Probable space group: C 2/C
;
_chemical_formula_sum "Si O2"
_cell_formula_units_Z 40
_cell_length_a 9.672783
_cell_length_b 12.448308
_cell_length_c 21.738387
_cell_angle_alpha 90.000000
_cell_angle_beta 143.986115
_cell_angle_gamma 90.000000
_cell_volume 1539.049520
_symmetry_space_group_name_H-M "C 2/C"
_symmetry_group_IT_number 15
_symmetry_cell_setting 'monoclinic'
loop_
_space_group_symop_operation_xyz
x,y,z
-x,y,1/2-z
-x,-y,-z
x,-y,1/2+z
1/2+x,1/2+y,z
1/2-x,1/2+y,1/2-z
1/2-x,1/2-y,-z
1/2+x,1/2-y,1/2+z
loop_
_atom_site_type_symbol
_atom_site_label
_atom_site_fract_x
_atom_site_fract_y
_atom_site_fract_z
Si Si1 0.067678 0.286854 0.517172
Si Si2 0.589159 0.515671 0.351339
Si Si3 0.018770 0.650157 0.643482
Si Si4 0.085363 0.571309 0.213224
Si Si5 0.496492 0.706161 0.624444
O O1 0.200027 0.400221 0.575636
O O2 0.919312 0.304651 0.401732
O O3 0.275803 0.203729 0.575085
O O4 0.960408 0.240499 0.541037
O O5 0.500000 0.495113 0.250000
O O6 0.368311 0.570486 0.307319
O O7 0.632205 0.401648 0.399216
O O8 0.995460 0.521702 0.635132
O O9 0.226581 0.674447 0.766088
O O10 0.984806 0.686799 0.160741
O O11 0.000000 0.540808 0.250000
#
# Coordination Sequence:
#
# PCOD9288881 Si02
#       5
#     8   8   8   8   8
#     4  11  21  43  68  97 130 178 225 275 338 400
#     4  11  21  41  69  95 128 184 226 267 342 401
#     4  10  22  39  66  98 126 176 226 272 335 406
#     4  11  22  40  65  95 135 175 220 280 335 393
#     4  11  22  41  66  95 137 173 222 275 340 395
#
# _framework density 25.990067
#
# number of rings (size 3 to 8) (size 9 to 14) (size 15 to 20)
#    0.000    1.200    4.000    3.600    0.000    0.800 
#    3.600    4.000    0.000    0.000    0.000    0.000 
#    0.000    0.000    0.000    0.000    0.000    0.000 
#
# Total GULP energy -112227.548389 kJ/mol
# GULP energy per Si atom -5611.377419 kJ/mol
# Density = 2.593091 g / cm^3
# Si number density = 25.990067 Si / 1000 Ang^3
#
#
#
# Elastic Constant Matrix: (Units=GPa)
#
#
# Indices 1 2 3 4 5 6 
#
# 1 156.6164 43.0618 30.0002 0.0000 -26.6691 0.0000
# 2 43.0618 190.4076 42.6104 0.0000 0.8954 0.0000
# 3 30.0002 42.6104 100.2357 0.0000 -13.6145 0.0000
# 4 0.0000 0.0000 0.0000 47.5974 0.0000 -0.1884
# 5 -26.6691 0.8954 -13.6145 0.0000 42.8278 0.0000
# 6 0.0000 0.0000 0.0000 -0.1884 0.0000 47.3618
#
#
#
# Elastic Compliance Matrix: (Units=1/GPa)
#
#
# Indices 1 2 3 4 5 6 
#
# 1 0.007786 -0.001546 -0.001056 0.000000 0.004545 0.000000
# 2 -0.001546 0.006148 -0.002403 0.000000 -0.001855 0.000000
# 3 -0.001056 -0.002403 0.011738 0.000000 0.003124 0.000000
# 4 0.000000 0.000000 0.000000 0.021010 0.000000 0.000084
# 5 0.004545 -0.001855 0.003124 0.000000 0.027212 0.000000
# 6 0.000000 0.000000 0.000000 0.000084 0.000000 0.021114
#
#
# Mechanical properties :
#
#
# Convention : Reuss Voigt Hill
#
# Bulk Modulus (GPa) = 63.84345 75.40052 69.62198
# Shear Modulus (GPa) = 45.35609 49.66323 47.50966
#
# Velocity S-wave (km/s) = 4.18201 4.37607 4.28014
# Velocity P-wave (km/s) = 6.92364 7.38970 7.16046
#
# Compressibility (1/GPa) = 0.01566331
#
# Stress axis : x y z
#
# Youngs Moduli (GPa) = 128.43013 162.65562 85.19149
#
# Poissons Ratio (x) = 0.25147 0.08995
# Poissons Ratio (y) = 0.19856 0.20469
# Poissons Ratio (z) = 0.13560 0.39082
#
# Static dielectric constant tensor:
#      x y z
#    x 2.088790 0.000000 0.062480 
#    y 0.000000 2.003360 0.000000 
#    z 0.062480 0.000000 2.022100 
# 
# From -- ./inp_files/142139.got.cif
#   From: 2010.05.17/outbox.cif.g08.bks.cpg/sg15_72_cif.got.tgz:142139.got - 2010.06.03 18:47:42.
