data_PCOD9288218
_publ_section_title
;
Structure prediction by ZEFSAII (Michael W. Deem and Ramdas Pophale) SiO2 
 PCOD9288218
Probable space group: C 2/C
;
_chemical_formula_sum "Si O2"
_cell_formula_units_Z 44
_cell_length_a 11.300545
_cell_length_b 9.944934
_cell_length_c 17.690810
_cell_angle_alpha 90.000000
_cell_angle_beta 55.047018
_cell_angle_gamma 90.000000
_cell_volume 1629.531879
_symmetry_space_group_name_H-M "C 2/C"
_symmetry_group_IT_number 15
_symmetry_cell_setting 'monoclinic'
loop_
_space_group_symop_operation_xyz
x,y,z
-x,y,1/2-z
-x,-y,-z
x,-y,1/2+z
1/2+x,1/2+y,z
1/2-x,1/2+y,1/2-z
1/2-x,1/2-y,-z
1/2+x,1/2-y,1/2+z
loop_
_atom_site_type_symbol
_atom_site_label
_atom_site_fract_x
_atom_site_fract_y
_atom_site_fract_z
Si Si1 0.841766 0.252974 0.172399
Si Si2 0.133879 0.232932 0.610186
Si Si3 0.500000 0.775380 0.250000
Si Si4 0.812052 0.943947 0.908563
Si Si5 0.365966 0.865206 0.649663
Si Si6 0.588711 0.634549 0.982017
O O1 0.708499 0.271595 0.164473
O O2 0.772509 0.128660 0.245129
O O3 0.904897 0.345127 0.218296
O O4 0.973778 0.225431 0.068897
O O5 0.250000 0.250000 0.500000
O O6 0.015573 0.348254 0.639495
O O7 0.089889 0.076291 0.621654
O O8 0.598729 0.674510 0.163925
O O9 0.670772 0.963134 0.907299
O O10 0.784422 0.901300 0.005271
O O11 0.367332 0.718890 0.606466
O O12 0.500000 0.500000 0.000000
#
# Coordination Sequence:
#
# PCOD9288218 Si02
#       6
#     8   8   4   8   8   8
#     4  10  22  39  65  97 132 163 227 275 334 412
#     4  12  23  41  63  93 134 179 214 280 349 407
#     4   8  20  40  64  92 122 170 214 274 326 400
#     4  10  22  38  65  92 127 172 226 270 342 407
#     4  11  23  39  65  97 127 174 224 283 336 404
#     4  11  20  42  68  95 130 176 228 279 342 420
#
# _framework density 27.001621
#
# number of rings (size 3 to 8) (size 9 to 14) (size 15 to 20)
#    0.000    1.455    3.636    1.091    2.545    2.182 
#    0.000    0.000    8.000    0.000    0.000    0.000 
#    0.000    0.000    0.000    0.000    0.000    0.000 
#
# Total GULP energy -122598.560120 kJ/mol
# GULP energy per Si atom -5572.661824 kJ/mol
# Density = 2.694016 g / cm^3
# Si number density = 27.001621 Si / 1000 Ang^3
#
#
#
# Elastic Constant Matrix: (Units=GPa)
#
#
# Indices 1 2 3 4 5 6 
#
# 1 186.8141 18.5553 12.8727 0.0000 40.5922 0.0000
# 2 18.5553 65.5212 3.0957 0.0000 1.4763 0.0000
# 3 12.8727 3.0957 63.8503 0.0000 -4.0995 0.0000
# 4 0.0000 0.0000 0.0000 11.1497 0.0000 -7.6975
# 5 40.5922 1.4763 -4.0995 0.0000 65.2398 0.0000
# 6 0.0000 0.0000 0.0000 -7.6975 0.0000 41.2567
#
#
#
# Elastic Compliance Matrix: (Units=1/GPa)
#
#
# Indices 1 2 3 4 5 6 
#
# 1 0.006516 -0.001682 -0.001496 0.000000 -0.004110 0.000000
# 2 -0.001682 0.015742 -0.000381 0.000000 0.000666 0.000000
# 3 -0.001496 -0.000381 0.016107 0.000000 0.001952 0.000000
# 4 0.000000 0.000000 0.000000 0.102949 0.000000 0.019208
# 5 -0.004110 0.000666 0.001952 0.000000 0.017993 0.000000
# 6 0.000000 0.000000 0.000000 0.019208 0.000000 0.027822
#
#
# Mechanical properties :
#
#
# Convention : Reuss Voigt Hill
#
# Bulk Modulus (GPa) = 32.00416 42.80368 37.40392
# Shear Modulus (GPa) = 24.43039 42.30670 33.36854
#
# Velocity S-wave (km/s) = 3.01121 3.96260 3.51921
# Velocity P-wave (km/s) = 4.89574 6.06819 5.51322
#
# Compressibility (1/GPa) = 0.03124594
#
# Stress axis : x y z
#
# Youngs Moduli (GPa) = 153.46386 63.52603 62.08468
#
# Poissons Ratio (x) = 0.10685 0.09288
# Poissons Ratio (y) = 0.25813 0.02367
# Poissons Ratio (z) = 0.22959 0.02422
#
# Static dielectric constant tensor:
#      x y z
#    x 2.318950 0.000000 -0.037750 
#    y 0.000000 2.164690 0.000000 
#    z -0.037750 0.000000 2.025130 
# 
# From -- ./inp_files/196449.got.cif
#   From: 2010.05.17/outbox.cif.g08.bks.cpg/sg15_99_cif.got.tgz:196449.got - 2010.06.03 18:47:42.
