data_PCOD9288338
_publ_section_title
;
Structure prediction by ZEFSAII (Michael W. Deem and Ramdas Pophale) SiO2 
 PCOD9288338
Probable space group: C 2/C
;
_chemical_formula_sum "Si O2"
_cell_formula_units_Z 36
_cell_length_a 15.291715
_cell_length_b 13.097407
_cell_length_c 11.713681
_cell_angle_alpha 90.000000
_cell_angle_beta 139.997259
_cell_angle_gamma 90.000000
_cell_volume 1508.089677
_symmetry_space_group_name_H-M "C 2/C"
_symmetry_group_IT_number 15
_symmetry_cell_setting 'monoclinic'
loop_
_space_group_symop_operation_xyz
x,y,z
-x,y,1/2-z
-x,-y,-z
x,-y,1/2+z
1/2+x,1/2+y,z
1/2-x,1/2+y,1/2-z
1/2-x,1/2-y,-z
1/2+x,1/2-y,1/2+z
loop_
_atom_site_type_symbol
_atom_site_label
_atom_site_fract_x
_atom_site_fract_y
_atom_site_fract_z
Si Si1 0.500000 0.966950 0.750000
Si Si2 0.475168 0.192842 0.428101
Si Si3 0.275765 0.643454 0.765947
Si Si4 0.786672 0.575597 0.412834
Si Si5 0.506102 0.555960 0.380926
O O1 0.527666 0.892045 0.672805
O O2 0.369511 0.038727 0.605205
O O3 0.390891 0.294021 0.309983
O O4 0.633484 0.203570 0.618527
O O5 0.387524 0.146621 0.443625
O O6 0.236294 0.533048 0.675410
O O7 0.357629 0.621767 0.964884
O O8 0.634891 0.617551 0.269611
O O9 0.500000 0.500042 0.250000
O O10 0.500000 0.500000 0.500000
#
# Coordination Sequence:
#
# PCOD9288338 Si02
#       5
#     4   8   8   8   8
#     4  10  22  38  68  96 132 186 230 282 346 402
#     4  11  23  42  66  97 140 177 234 283 344 415
#     4  10  22  43  63  98 136 177 224 282 347 401
#     4  10  23  40  67  95 135 176 228 282 346 406
#     4  10  23  42  68 102 138 180 231 281 343 408
#
# _framework density 23.871258999999998
#
# number of rings (size 3 to 8) (size 9 to 14) (size 15 to 20)
#    0.000    1.778    0.000    4.000    9.333    3.556 
#   10.000    2.222    0.000    0.000    0.000    0.000 
#    0.000    0.000    0.000    0.000    0.000    0.000 
#
# Total GULP energy -100231.350198 kJ/mol
# GULP energy per Si atom -5568.408344 kJ/mol
# Density = 2.381693 g / cm^3
# Si number density = 23.871259 Si / 1000 Ang^3
#
#
#
# Elastic Constant Matrix: (Units=GPa)
#
#
# Indices 1 2 3 4 5 6 
#
# 1 87.2064 6.9639 55.0715 0.0000 4.4731 0.0000
# 2 6.9639 50.0327 12.1273 0.0000 6.0505 0.0000
# 3 55.0715 12.1273 186.4302 0.0000 28.7259 0.0000
# 4 0.0000 0.0000 0.0000 -0.7391 0.0000 27.5107
# 5 4.4731 6.0505 28.7259 0.0000 54.8224 0.0000
# 6 0.0000 0.0000 0.0000 27.5107 0.0000 17.3629
#
#
#
# Elastic Compliance Matrix: (Units=1/GPa)
#
#
# Indices 1 2 3 4 5 6 
#
# 1 0.014217 -0.001080 -0.004318 0.000000 0.001222 0.000000
# 2 -0.001080 0.020533 -0.000741 0.000000 -0.001790 0.000000
# 3 -0.004318 -0.000741 0.007202 0.000000 -0.003340 0.000000
# 4 0.000000 0.000000 0.000000 -0.022559 0.000000 0.035743
# 5 0.001222 -0.001790 -0.003340 0.000000 0.020089 0.000000
# 6 0.000000 0.000000 0.000000 0.035743 0.000000 0.000960
#
#
# Mechanical properties :
#
#
# Convention : Reuss Voigt Hill
#
# Bulk Modulus (GPa) = 33.69786 52.44387 43.07087
# Shear Modulus (GPa) = 79.85687 30.92301 55.38994
#
# Velocity S-wave (km/s) = 5.79014 3.60308 4.82224
# Velocity P-wave (km/s) = 7.67126 6.27110 7.00624
#
# Compressibility (1/GPa) = 0.02967548
#
# Stress axis : x y z
#
# Youngs Moduli (GPa) = 70.33665 48.70146 138.84632
#
# Poissons Ratio (x) = 0.05260 0.59951
# Poissons Ratio (y) = 0.07596 0.10287
# Poissons Ratio (z) = 0.30370 0.03608
#
# Static dielectric constant tensor:
#      x y z
#    x 1.912770 0.000000 -0.008380 
#    y 0.000000 2.011980 0.000000 
#    z -0.008380 0.000000 1.940210 
# 
# From -- ./inp_files/97254.got.cif
#   From: 2010.05.17/outbox.cif.g08.bks.cpg/sg15_49_cif.got.tgz:97254.got - 2010.06.03 18:47:42.
