data_PCOD9288777
_publ_section_title
;
Structure prediction by ZEFSAII (Michael W. Deem and Ramdas Pophale) SiO2 
 PCOD9288777
Probable space group: C 2/C
;
_chemical_formula_sum "Si O2"
_cell_formula_units_Z 44
_cell_length_a 6.825481
_cell_length_b 22.972227
_cell_length_c 16.642075
_cell_angle_alpha 90.000000
_cell_angle_beta 56.248548
_cell_angle_gamma 90.000000
_cell_volume 2169.615943
_symmetry_space_group_name_H-M "C 2/C"
_symmetry_group_IT_number 15
_symmetry_cell_setting 'monoclinic'
loop_
_space_group_symop_operation_xyz
x,y,z
-x,y,1/2-z
-x,-y,-z
x,-y,1/2+z
1/2+x,1/2+y,z
1/2-x,1/2+y,1/2-z
1/2-x,1/2-y,-z
1/2+x,1/2-y,1/2+z
loop_
_atom_site_type_symbol
_atom_site_label
_atom_site_fract_x
_atom_site_fract_y
_atom_site_fract_z
Si Si1 0.378609 0.635477 0.983217
Si Si2 0.543751 0.699234 0.102861
Si Si3 0.494767 0.054481 0.154218
Si Si4 0.551009 0.817931 0.429273
Si Si5 0.628340 0.076648 0.635788
Si Si6 0.000000 0.892534 0.750000
O O1 0.465200 0.679022 0.032471
O O2 0.165785 0.598604 0.069638
O O3 0.281996 0.670378 0.928714
O O4 0.597579 0.592869 0.916181
O O5 0.443149 0.764206 0.134539
O O6 0.459979 0.651084 0.184642
O O7 0.828499 0.698167 0.037486
O O8 0.500000 0.062444 0.250000
O O9 0.229484 0.067845 0.186589
O O10 0.581947 0.989036 0.117934
O O11 0.481133 0.877211 0.400846
O O12 0.500000 0.083047 0.750000
#
# Coordination Sequence:
#
# PCOD9288777 Si02
#       6
#     8   8   8   8   8   4
#     4  11  21  42  65  93 125 167 213 259 331 376
#     4  10  22  39  64  98 127 164 210 265 312 393
#     4  11  23  41  64  94 129 164 216 269 314 389
#     4  10  22  41  64  92 131 165 208 262 326 380
#     4  10  25  42  61  91 126 168 217 268 317 379
#     4  12  22  40  68  94 130 170 216 262 332 370
#
# _framework density 20.280086000000001
#
# number of rings (size 3 to 8) (size 9 to 14) (size 15 to 20)
#    0.000    1.455    3.636    1.091    1.273    4.364 
#    0.000    1.818    0.000    0.000    0.000    0.000 
#    0.000    0.000    0.000    0.000    0.000    0.000 
#
# Total GULP energy -122919.186918 kJ/mol
# GULP energy per Si atom -5587.235769 kJ/mol
# Density = 2.023393 g / cm^3
# Si number density = 20.280086 Si / 1000 Ang^3
#
#
#
# Elastic Constant Matrix: (Units=GPa)
#
#
# Indices 1 2 3 4 5 6 
#
# 1 116.4161 42.2651 13.7984 0.0000 -17.3430 0.0000
# 2 42.2651 105.7776 8.6539 0.0000 -8.7567 0.0000
# 3 13.7984 8.6539 27.2151 0.0000 -15.8042 0.0000
# 4 0.0000 0.0000 0.0000 20.6053 0.0000 1.8030
# 5 -17.3430 -8.7567 -15.8042 0.0000 34.7000 0.0000
# 6 0.0000 0.0000 0.0000 1.8030 0.0000 25.3767
#
#
#
# Elastic Compliance Matrix: (Units=1/GPa)
#
#
# Indices 1 2 3 4 5 6 
#
# 1 0.010753 -0.003831 -0.002276 0.000000 0.003371 0.000000
# 2 -0.003831 0.011123 -0.001463 0.000000 0.000226 0.000000
# 3 -0.002276 -0.001463 0.050969 0.000000 0.021707 0.000000
# 4 0.000000 0.000000 0.000000 0.048835 0.000000 -0.003470
# 5 0.003371 0.000226 0.021707 0.000000 0.040447 0.000000
# 6 0.000000 0.000000 0.000000 -0.003470 0.000000 0.039653
#
#
# Mechanical properties :
#
#
# Convention : Reuss Voigt Hill
#
# Bulk Modulus (GPa) = 17.32991 42.09372 29.71182
# Shear Modulus (GPa) = 21.17250 28.44914 24.81082
#
# Velocity S-wave (km/s) = 3.23461 3.74948 3.50152
# Velocity P-wave (km/s) = 4.74490 6.28856 5.57046
#
# Compressibility (1/GPa) = 0.05770370
#
# Stress axis : x y z
#
# Youngs Moduli (GPa) = 92.99972 89.90374 19.61965
#
# Poissons Ratio (x) = 0.34444 0.04466
# Poissons Ratio (y) = 0.35630 0.02871
# Poissons Ratio (z) = 0.21167 0.13157
#
# Static dielectric constant tensor:
#      x y z
#    x 1.716760 0.000000 0.005430 
#    y 0.000000 1.729810 0.000000 
#    z 0.005430 0.000000 1.716080 
# 
# From -- ./inp_files/129334.got.cif
#   From: 2010.05.17/outbox.cif.g08.bks.cpg/sg15_65_cif.got.tgz:129334.got - 2010.06.03 18:47:42.
