data_PCOD9288799
_publ_section_title
;
Structure prediction by ZEFSAII (Michael W. Deem and Ramdas Pophale) SiO2 
 PCOD9288799
Probable space group: C 2/C
;
_chemical_formula_sum "Si O2"
_cell_formula_units_Z 64
_cell_length_a 19.520909
_cell_length_b 15.178610
_cell_length_c 16.883977
_cell_angle_alpha 90.000000
_cell_angle_beta 146.172438
_cell_angle_gamma 90.000000
_cell_volume 2784.994497
_symmetry_space_group_name_H-M "C 2/C"
_symmetry_group_IT_number 15
_symmetry_cell_setting 'monoclinic'
loop_
_space_group_symop_operation_xyz
x,y,z
-x,y,1/2-z
-x,-y,-z
x,-y,1/2+z
1/2+x,1/2+y,z
1/2-x,1/2+y,1/2-z
1/2-x,1/2-y,-z
1/2+x,1/2-y,1/2+z
loop_
_atom_site_type_symbol
_atom_site_label
_atom_site_fract_x
_atom_site_fract_y
_atom_site_fract_z
Si Si1 0.404361 0.448337 0.796566
Si Si2 0.848957 0.262631 0.426369
Si Si3 0.482413 0.746598 0.325536
Si Si4 0.654337 0.495704 0.581689
Si Si5 0.722027 0.078848 0.571563
Si Si6 0.271906 0.700441 0.846907
Si Si7 0.690828 0.862441 0.866886
Si Si8 0.459350 0.698503 0.800479
O O1 0.435802 0.353390 0.793609
O O2 0.380303 0.455223 0.867043
O O3 0.276680 0.483198 0.637334
O O4 0.532068 0.504045 0.908383
O O5 0.867194 0.367529 0.455430
O O6 0.760630 0.251387 0.267287
O O7 0.794528 0.215022 0.453951
O O8 0.971752 0.205291 0.547697
O O9 0.500000 0.765194 0.250000
O O10 0.615147 0.748385 0.498461
O O11 0.363837 0.800760 0.242679
O O12 0.688869 0.598324 0.625786
O O13 0.762688 0.438080 0.647409
O O14 0.683716 0.094550 0.445447
O O15 0.843412 0.137433 0.703662
O O16 0.573759 0.802081 0.740551
O O17 0.500000 0.671568 0.750000
#
# Coordination Sequence:
#
# PCOD9288799 Si02
#       8
#     8   8   8   8   8   8   8   8
#     4  10  22  39  65  93 124 162 217 280 329 378
#     4  11  21  38  60  90 133 170 210 260 329 406
#     4  11  26  47  71  97 128 174 233 284 335 392
#     4  10  22  41  61  94 128 162 219 275 325 388
#     4  11  21  34  61  97 127 162 211 267 327 383
#     4  11  25  45  70  95 130 176 224 284 337 391
#     4  11  22  35  61  92 127 167 213 261 321 392
#     4  11  20  35  55  91 133 170 198 245 319 405
#
# _framework density 22.980298000000001
#
# number of rings (size 3 to 8) (size 9 to 14) (size 15 to 20)
#    0.000    1.250    3.750    2.625    7.000    0.000 
#    0.000    2.500    0.000    0.000    0.000    0.000 
#    0.000    0.000    0.000    0.000    0.000    0.000 
#
# Total GULP energy -178210.044064 kJ/mol
# GULP energy per Si atom -5569.063877 kJ/mol
# Density = 2.292799 g / cm^3
# Si number density = 22.980298 Si / 1000 Ang^3
#
#
#
# Elastic Constant Matrix: (Units=GPa)
#
#
# Indices 1 2 3 4 5 6 
#
# 1 71.8442 -4.6242 8.4710 0.0000 -6.8851 0.0000
# 2 -4.6242 46.5579 1.7401 0.0000 0.2933 0.0000
# 3 8.4710 1.7401 90.4192 0.0000 -17.8753 0.0000
# 4 0.0000 0.0000 0.0000 39.5727 0.0000 11.0464
# 5 -6.8851 0.2933 -17.8753 0.0000 23.4739 0.0000
# 6 0.0000 0.0000 0.0000 11.0464 0.0000 32.6592
#
#
#
# Elastic Compliance Matrix: (Units=1/GPa)
#
#
# Indices 1 2 3 4 5 6 
#
# 1 0.014445 0.001435 -0.000644 0.000000 0.003729 0.000000
# 2 0.001435 0.021646 -0.000614 0.000000 -0.000317 0.000000
# 3 -0.000644 -0.000614 0.013062 0.000000 0.009766 0.000000
# 4 0.000000 0.000000 0.000000 0.027905 0.000000 -0.009438
# 5 0.003729 -0.000317 0.009766 0.000000 0.051135 0.000000
# 6 0.000000 0.000000 0.000000 -0.009438 0.000000 0.033812
#
#
# Mechanical properties :
#
#
# Convention : Reuss Voigt Hill
#
# Bulk Modulus (GPa) = 20.19846 24.44388 22.32117
# Shear Modulus (GPa) = 28.06602 32.69011 30.37806
#
# Velocity S-wave (km/s) = 3.49851 3.77573 3.63976
# Velocity P-wave (km/s) = 5.01278 5.44685 5.23432
#
# Compressibility (1/GPa) = 0.04950873
#
# Stress axis : x y z
#
# Youngs Moduli (GPa) = 69.22994 46.19767 76.55575
#
# Poissons Ratio (x) = -0.06631 0.04928
# Poissons Ratio (y) = -0.09936 0.04698
# Poissons Ratio (z) = 0.04457 0.02835
#
# Static dielectric constant tensor:
#      x y z
#    x 2.002790 0.000000 0.133790 
#    y 0.000000 1.975020 0.000000 
#    z 0.133790 0.000000 2.045190 
# 
# From -- ./inp_files/219738.got.cif
#   From: 2010.05.17/outbox.cif.g08.bks.cpg/sg15_110_cif.got.tgz:219738.got - 2010.06.03 18:47:42.
