data_PCOD9288347
_publ_section_title
;
Structure prediction by ZEFSAII (Michael W. Deem and Ramdas Pophale) SiO2 
 PCOD9288347
Probable space group: C 2/C
;
_chemical_formula_sum "Si O2"
_cell_formula_units_Z 56
_cell_length_a 5.719146
_cell_length_b 26.448473
_cell_length_c 18.796957
_cell_angle_alpha 90.000000
_cell_angle_beta 67.575317
_cell_angle_gamma 90.000000
_cell_volume 2628.274447
_symmetry_space_group_name_H-M "C 2/C"
_symmetry_group_IT_number 15
_symmetry_cell_setting 'monoclinic'
loop_
_space_group_symop_operation_xyz
x,y,z
-x,y,1/2-z
-x,-y,-z
x,-y,1/2+z
1/2+x,1/2+y,z
1/2-x,1/2+y,1/2-z
1/2-x,1/2-y,-z
1/2+x,1/2-y,1/2+z
loop_
_atom_site_type_symbol
_atom_site_label
_atom_site_fract_x
_atom_site_fract_y
_atom_site_fract_z
Si Si1 0.938006 0.953533 0.059890
Si Si2 0.968473 0.226073 0.427588
Si Si3 0.825518 0.848875 0.481494
Si Si4 0.308544 0.076199 0.207905
Si Si5 0.916377 0.215859 0.839257
Si Si6 0.900576 0.514231 0.590074
Si Si7 0.387218 0.176350 0.119738
O O1 0.631176 0.954012 0.099873
O O2 0.044277 0.901424 0.015450
O O3 0.122397 0.961316 0.107503
O O4 0.000000 0.000000 0.000000
O O5 0.750000 0.250000 0.500000
O O6 0.891646 0.187288 0.375948
O O7 0.115572 0.194326 0.468523
O O8 0.120975 0.270666 0.374035
O O9 0.932430 0.829146 0.394257
O O10 0.525478 0.846845 0.532195
O O11 0.500000 0.061638 0.250000
O O12 0.394391 0.132483 0.175899
O O13 0.000000 0.075801 0.250000
O O14 0.366173 0.036347 0.139001
O O15 0.000000 0.205163 0.750000
O O16 0.036576 0.268277 0.856872
O O17 0.000000 0.500000 0.500000
#
# Coordination Sequence:
#
# PCOD9288347 Si02
#       7
#     8   8   8   8   8   8   8
#     4  10  22  38  69 102 127 170 231 290 338 396
#     4  11  21  40  67  95 130 184 236 288 340 426
#     4  11  23  40  66  98 134 177 239 292 344 427
#     4  12  28  45  70 109 146 180 224 300 373 426
#     4  11  24  41  59  94 141 181 231 287 357 420
#     4  10  22  44  68  97 132 178 228 275 342 425
#     4  11  23  40  66  96 137 182 230 283 352 432
#
# _framework density 21.306754000000002
#
# number of rings (size 3 to 8) (size 9 to 14) (size 15 to 20)
#    0.000    1.143    2.857    3.857   12.000    0.000 
#    0.000    2.143    0.000    1.714    0.000    0.000 
#    0.000    0.000    0.000    0.000    0.000    0.000 
#
# Total GULP energy -155899.347929 kJ/mol
# GULP energy per Si atom -5567.833855 kJ/mol
# Density = 2.125826 g / cm^3
# Si number density = 21.306754 Si / 1000 Ang^3
#
#
#
# Elastic Constant Matrix: (Units=GPa)
#
#
# Indices 1 2 3 4 5 6 
#
# 1 105.4869 10.1626 18.4073 0.0000 4.5305 0.0000
# 2 10.1626 67.3000 30.0444 0.0000 -9.1170 0.0000
# 3 18.4073 30.0444 107.4727 0.0000 8.5775 0.0000
# 4 0.0000 0.0000 0.0000 31.8304 0.0000 5.9305
# 5 4.5305 -9.1170 8.5775 0.0000 20.4930 0.0000
# 6 0.0000 0.0000 0.0000 5.9305 0.0000 27.9814
#
#
#
# Elastic Compliance Matrix: (Units=1/GPa)
#
#
# Indices 1 2 3 4 5 6 
#
# 1 0.009903 -0.001289 -0.001154 0.000000 -0.002280 0.000000
# 2 -0.001289 0.019322 -0.006093 0.000000 0.011432 0.000000
# 3 -0.001154 -0.006093 0.011796 0.000000 -0.007393 0.000000
# 4 0.000000 0.000000 0.000000 0.032708 0.000000 -0.006932
# 5 -0.002280 0.011432 -0.007393 0.000000 0.057481 0.000000
# 6 0.000000 0.000000 0.000000 -0.006932 0.000000 0.037207
#
#
# Mechanical properties :
#
#
# Convention : Reuss Voigt Hill
#
# Bulk Modulus (GPa) = 41.75559 44.16537 42.96048
# Shear Modulus (GPa) = 25.84336 30.83730 28.34033
#
# Velocity S-wave (km/s) = 3.48648 3.80847 3.65102
# Velocity P-wave (km/s) = 5.98726 6.33345 6.16279
#
# Compressibility (1/GPa) = 0.02394889
#
# Stress axis : x y z
#
# Youngs Moduli (GPa) = 100.97627 51.75374 84.77657
#
# Poissons Ratio (x) = 0.06672 0.09782
# Poissons Ratio (y) = 0.13018 0.51656
# Poissons Ratio (z) = 0.11651 0.31534
#
# Static dielectric constant tensor:
#      x y z
#    x 1.838690 0.000000 0.041420 
#    y 0.000000 1.767100 0.000000 
#    z 0.041420 0.000000 1.670980 
# 
# From -- ./inp_files/186128.got.cif
#   From: 2010.05.17/outbox.cif.g08.bks.cpg/sg15_94_cif.got.tgz:186128.got - 2010.06.03 18:47:42.
