data_PCOD9288966
_publ_section_title
;
Structure prediction by ZEFSAII (Michael W. Deem and Ramdas Pophale) SiO2 
 PCOD9288966
Probable space group: C 2/C
;
_chemical_formula_sum "Si O2"
_cell_formula_units_Z 60
_cell_length_a 8.104023
_cell_length_b 19.001791
_cell_length_c 23.438177
_cell_angle_alpha 90.000000
_cell_angle_beta 45.953343
_cell_angle_gamma 90.000000
_cell_volume 2594.247002
_symmetry_space_group_name_H-M "C 2/C"
_symmetry_group_IT_number 15
_symmetry_cell_setting 'monoclinic'
loop_
_space_group_symop_operation_xyz
x,y,z
-x,y,1/2-z
-x,-y,-z
x,-y,1/2+z
1/2+x,1/2+y,z
1/2-x,1/2+y,1/2-z
1/2-x,1/2-y,-z
1/2+x,1/2-y,1/2+z
loop_
_atom_site_type_symbol
_atom_site_label
_atom_site_fract_x
_atom_site_fract_y
_atom_site_fract_z
Si Si1 0.706556 0.207244 0.914922
Si Si2 0.493255 0.409731 0.104791
Si Si3 0.389964 0.129660 0.215648
Si Si4 0.132894 0.130521 0.448827
Si Si5 0.224654 0.147773 0.067896
Si Si6 0.500000 0.879918 0.250000
Si Si7 0.539449 0.528882 0.177609
Si Si8 0.622341 0.760374 0.307172
O O1 0.662637 0.285103 0.950541
O O2 0.737430 0.219162 0.839810
O O3 0.915792 0.164366 0.891811
O O4 0.474589 0.163107 0.983203
O O5 0.602690 0.470438 0.116697
O O6 0.224096 0.421638 0.178932
O O7 0.546309 0.408041 0.025607
O O8 0.500000 0.144575 0.250000
O O9 0.607126 0.107410 0.126602
O O10 0.200942 0.070377 0.270277
O O11 0.260383 0.203648 0.235190
O O12 0.953266 0.122712 0.439349
O O13 0.217931 0.092281 0.121703
O O14 0.109713 0.219589 0.118305
O O15 0.566561 0.829403 0.286022
O O16 0.500000 0.497613 0.250000
#
# Coordination Sequence:
#
# PCOD9288966 Si02
#       8
#     8   8   8   8   8   4   8   8
#     4  11  22  42  70 105 143 168 224 289 358 412
#     4  12  29  43  67  99 139 186 230 288 344 407
#     4  11  21  45  77  99 134 186 228 277 340 418
#     4  11  22  45  71 110 134 173 229 285 355 418
#     4  10  22  42  71  96 140 178 223 287 344 408
#     4  12  26  40  66 100 142 178 224 284 360 400
#     4  11  28  48  66  96 135 191 246 278 336 408
#     4  10  22  39  69 106 136 177 222 279 352 413
#
# _framework density 23.128097
#
# number of rings (size 3 to 8) (size 9 to 14) (size 15 to 20)
#    0.000    1.067    4.000    4.400    8.400    1.067 
#    0.000    0.000    0.000    0.000    0.000    0.000 
#    0.000    0.000    0.000    0.000    0.000    0.000 
#
# Total GULP energy -167741.705189 kJ/mol
# GULP energy per Si atom -5591.390173 kJ/mol
# Density = 2.307546 g / cm^3
# Si number density = 23.128097 Si / 1000 Ang^3
#
#
#
# Elastic Constant Matrix: (Units=GPa)
#
#
# Indices 1 2 3 4 5 6 
#
# 1 33.7253 -9.2099 22.9133 -0.0028 -4.5306 -0.0010
# 2 -9.2099 32.3678 12.4007 0.0075 8.7285 0.0007
# 3 22.9133 12.4007 135.3358 0.0286 1.4096 0.0042
# 4 -0.0028 0.0075 0.0286 -237.2619 -0.0136 -55.1355
# 5 -4.5306 8.7285 1.4096 -0.0136 33.9666 -0.0018
# 6 -0.0010 0.0007 0.0042 -55.1355 -0.0018 -4.2016
#
#
#
# Elastic Compliance Matrix: (Units=1/GPa)
#
#
# Indices 1 2 3 4 5 6 
#
# 1 0.038965 0.013548 -0.007860 -0.000001 0.002042 0.000000
# 2 0.013548 0.039130 -0.005796 0.000000 -0.008008 0.000005
# 3 -0.007860 -0.005796 0.009250 0.000001 0.000057 0.000002
# 4 -0.000001 0.000000 0.000001 0.002057 -0.000001 -0.026987
# 5 0.002042 -0.008008 0.000057 -0.000001 0.031768 -0.000006
# 6 0.000000 0.000005 0.000002 -0.026987 -0.000006 0.116132
#
#
# Mechanical properties :
#
#
# Convention : Reuss Voigt Hill
#
# Bulk Modulus (GPa) = 11.47717 28.18189 19.82953
# Shear Modulus (GPa) = 18.75745 -29.81106 -5.52680
#
# Velocity S-wave (km/s) = 2.85094 -3.59410 -1.54753
# Velocity P-wave (km/s) = 3.97622 2.23870 2.32363
#
# Compressibility (1/GPa) = 0.08712953
#
# Stress axis : x y z
#
# Youngs Moduli (GPa) = 25.66387 25.55609 108.10587
#
# Poissons Ratio (x) = -0.34622 0.84968
# Poissons Ratio (y) = -0.34768 0.62655
# Poissons Ratio (z) = 0.20171 0.14812
#
# Static dielectric constant tensor:
#      x y z
#    x 1.668210 0.000000 0.104580 
#    y 0.000000 1.847530 0.000000 
#    z 0.104580 0.000000 1.828820 
# 
# From -- ./inp_files/266230.got.cif
#   From: 2010.05.17/outbox.cif.g08.bks.cpg/sg15_134_cif.got.tgz:266230.got - 2010.06.03 18:47:42.
