data_PCOD9288317
_publ_section_title
;
Structure prediction by ZEFSAII (Michael W. Deem and Ramdas Pophale) SiO2 
 PCOD9288317
Probable space group: C 2/C
;
_chemical_formula_sum "Si O2"
_cell_formula_units_Z 52
_cell_length_a 7.966588
_cell_length_b 11.807016
_cell_length_c 25.770880
_cell_angle_alpha 90.000000
_cell_angle_beta 90.840357
_cell_angle_gamma 90.000000
_cell_volume 2423.790303
_symmetry_space_group_name_H-M "C 2/C"
_symmetry_group_IT_number 15
_symmetry_cell_setting 'monoclinic'
loop_
_space_group_symop_operation_xyz
x,y,z
-x,y,1/2-z
-x,-y,-z
x,-y,1/2+z
1/2+x,1/2+y,z
1/2-x,1/2+y,1/2-z
1/2-x,1/2-y,-z
1/2+x,1/2-y,1/2+z
loop_
_atom_site_type_symbol
_atom_site_label
_atom_site_fract_x
_atom_site_fract_y
_atom_site_fract_z
Si Si1 0.500000 0.486684 0.750000
Si Si2 0.546881 0.734306 0.405748
Si Si3 0.117286 0.867955 0.346568
Si Si4 0.387042 0.611082 0.493375
Si Si5 0.128838 0.536899 0.571556
Si Si6 0.569290 0.780416 0.572643
Si Si7 0.589809 0.276141 0.702898
O O1 0.456677 0.561279 0.700705
O O2 0.637110 0.395310 0.730120
O O3 0.408423 0.658307 0.435395
O O4 0.496078 0.864437 0.412433
O O5 0.729228 0.722851 0.431742
O O6 0.539278 0.704032 0.345076
O O7 0.212508 0.949733 0.388233
O O8 0.257561 0.787588 0.322087
O O9 0.986442 0.788697 0.376464
O O10 0.500000 0.500000 0.500000
O O11 0.210422 0.571992 0.516709
O O12 0.466964 0.712963 0.528034
O O13 0.043238 0.415122 0.574034
O O14 0.500000 0.210871 0.750000
#
# Coordination Sequence:
#
# PCOD9288317 Si02
#       7
#     4   8   8   8   8   8   8
#     4  10  22  38  68  86 124 166 202 262 316 362
#     4  11  22  42  67  91 127 170 208 260 313 376
#     4  10  23  41  62  93 124 161 211 261 313 373
#     4  11  23  41  65  93 133 167 206 263 313 373
#     4  10  23  43  62  93 131 166 209 260 311 379
#     4  11  24  41  64  96 127 165 213 254 316 377
#     4   9  23  43  62  90 123 160 212 255 313 369
#
# _framework density 21.453999
#
# number of rings (size 3 to 8) (size 9 to 14) (size 15 to 20)
#    0.462    1.231    1.538    1.846    4.308    1.846 
#    8.308    0.000    0.000    0.000    0.000    0.000 
#    0.000    0.000    0.000    0.000    0.000    0.000 
#
# Total GULP energy -145156.650344 kJ/mol
# GULP energy per Si atom -5582.948090 kJ/mol
# Density = 2.140517 g / cm^3
# Si number density = 21.453999 Si / 1000 Ang^3
#
#
#
# Elastic Constant Matrix: (Units=GPa)
#
#
# Indices 1 2 3 4 5 6 
#
# 1 8.6236 5.5337 2.1755 0.0000 -5.4945 0.0000
# 2 5.5337 148.5466 35.2519 0.0000 1.4408 0.0000
# 3 2.1755 35.2519 111.1643 0.0000 -10.3935 0.0000
# 4 0.0000 0.0000 0.0000 34.1887 0.0000 -0.9242
# 5 -5.4945 1.4408 -10.3935 0.0000 10.6806 0.0000
# 6 0.0000 0.0000 0.0000 -0.9242 0.0000 33.0622
#
#
#
# Elastic Compliance Matrix: (Units=1/GPa)
#
#
# Indices 1 2 3 4 5 6 
#
# 1 0.189064 -0.010394 0.009704 0.000000 0.108107 0.000000
# 2 -0.010394 0.007976 -0.003219 0.000000 -0.009556 0.000000
# 3 0.009704 -0.003219 0.011368 0.000000 0.016489 0.000000
# 4 0.000000 0.000000 0.000000 0.029272 0.000000 0.000818
# 5 0.108107 -0.009556 0.016489 0.000000 0.166577 0.000000
# 6 0.000000 0.000000 0.000000 0.000818 0.000000 0.030269
#
#
# Mechanical properties :
#
#
# Convention : Reuss Voigt Hill
#
# Bulk Modulus (GPa) = 4.98532 39.36185 22.17359
# Shear Modulus (GPa) = 9.81915 30.61119 20.21517
#
# Velocity S-wave (km/s) = 2.14168 3.78144 3.07295
# Velocity P-wave (km/s) = 2.90594 6.11985 4.79046
#
# Compressibility (1/GPa) = 0.20058881
#
# Stress axis : x y z
#
# Youngs Moduli (GPa) = 5.28920 125.37973 87.96354
#
# Poissons Ratio (x) = 1.30326 -0.85359
# Poissons Ratio (y) = 0.05498 0.28318
# Poissons Ratio (z) = -0.05133 0.40363
#
# Static dielectric constant tensor:
#      x y z
#    x 1.816570 0.000000 -0.001380 
#    y 0.000000 1.788450 0.000000 
#    z -0.001380 0.000000 1.861170 
# 
# From -- ./inp_files/287672.got.cif
#   From: 2010.05.17/outbox.cif.g08.bks.cpg/sg15_144_cif.got.tgz:287672.got - 2010.06.03 18:47:42.
