data_PCOD9288962
_publ_section_title
;
Structure prediction by ZEFSAII (Michael W. Deem and Ramdas Pophale) SiO2 
 PCOD9288962
Probable space group: C 2/C
;
_chemical_formula_sum "Si O2"
_cell_formula_units_Z 52
_cell_length_a 18.938883
_cell_length_b 19.180183
_cell_length_c 11.440028
_cell_angle_alpha 90.000000
_cell_angle_beta 36.752467
_cell_angle_gamma 90.000000
_cell_volume 2486.543694
_symmetry_space_group_name_H-M "C 2/C"
_symmetry_group_IT_number 15
_symmetry_cell_setting 'monoclinic'
loop_
_space_group_symop_operation_xyz
x,y,z
-x,y,1/2-z
-x,-y,-z
x,-y,1/2+z
1/2+x,1/2+y,z
1/2-x,1/2+y,1/2-z
1/2-x,1/2-y,-z
1/2+x,1/2-y,1/2+z
loop_
_atom_site_type_symbol
_atom_site_label
_atom_site_fract_x
_atom_site_fract_y
_atom_site_fract_z
Si Si1 0.880831 0.919957 0.486923
Si Si2 0.910220 0.345245 0.030350
Si Si3 0.000000 0.856376 0.750000
Si Si4 0.985276 0.191894 0.013820
Si Si5 0.442578 0.971953 0.699251
Si Si6 0.767313 0.828814 0.439267
Si Si7 0.231502 0.944273 0.403910
O O1 0.906964 0.869460 0.560714
O O2 0.796060 0.877201 0.511508
O O3 0.000000 0.931985 0.250000
O O4 0.823990 0.993278 0.601603
O O5 0.939956 0.266718 0.028549
O O6 0.840183 0.347728 0.001743
O O7 0.818739 0.386369 0.235213
O O8 0.028776 0.390555 0.862240
O O9 0.994146 0.810954 0.640932
O O10 0.116662 0.904261 0.600537
O O11 0.114493 0.173406 0.794933
O O12 0.500000 0.987951 0.750000
O O13 0.500000 0.000000 0.500000
O O14 0.315550 0.009240 0.875262
O O15 0.750000 0.750000 0.500000
#
# Coordination Sequence:
#
# PCOD9288962 Si02
#       7
#     8   8   4   8   8   8   8
#     4  10  22  39  69 102 131 173 232 285 350 409
#     4  11  24  44  69 104 142 179 239 291 361 417
#     4  12  26  48  70  92 150 190 244 280 350 442
#     4  11  26  43  67 104 134 189 235 291 350 425
#     4  10  24  43  70 105 142 182 234 295 363 429
#     4  11  22  41  71 102 136 173 230 299 355 411
#     4  11  24  47  68 102 141 192 227 294 354 430
#
# _framework density 20.912562000000001
#
# number of rings (size 3 to 8) (size 9 to 14) (size 15 to 20)
#    0.000    1.231    3.846    0.923    4.308    4.923 
#    5.538    0.000    0.000    0.000    0.000    0.000 
#    0.000    0.000    0.000    0.000    0.000    0.000 
#
# Total GULP energy -144961.769936 kJ/mol
# GULP energy per Si atom -5575.452690 kJ/mol
# Density = 2.086496 g / cm^3
# Si number density = 20.912562 Si / 1000 Ang^3
#
#
#
# Elastic Constant Matrix: (Units=GPa)
#
#
# Indices 1 2 3 4 5 6 
#
# 1 92.8273 6.3496 31.9161 0.0000 2.6216 0.0000
# 2 6.3496 64.6278 17.0300 0.0000 -8.4498 0.0000
# 3 31.9161 17.0300 82.2973 0.0000 -9.4230 0.0000
# 4 0.0000 0.0000 0.0000 35.5545 0.0000 -11.3698
# 5 2.6216 -8.4498 -9.4230 0.0000 38.8727 0.0000
# 6 0.0000 0.0000 0.0000 -11.3698 0.0000 30.3603
#
#
#
# Elastic Compliance Matrix: (Units=1/GPa)
#
#
# Indices 1 2 3 4 5 6 
#
# 1 0.012595 -0.000173 -0.005092 0.000000 -0.002121 0.000000
# 2 -0.000173 0.016673 -0.003051 0.000000 0.002896 0.000000
# 3 -0.005092 -0.003051 0.015141 0.000000 0.003350 0.000000
# 4 0.000000 0.000000 0.000000 0.031952 0.000000 0.011966
# 5 -0.002121 0.002896 0.003350 0.000000 0.027310 0.000000
# 6 0.000000 0.000000 0.000000 0.011966 0.000000 0.037419
#
#
# Mechanical properties :
#
#
# Convention : Reuss Voigt Hill
#
# Bulk Modulus (GPa) = 36.00174 38.92709 37.46442
# Shear Modulus (GPa) = 29.94353 33.25461 31.59907
#
# Velocity S-wave (km/s) = 3.78808 3.99202 3.89139
# Velocity P-wave (km/s) = 6.03203 6.31688 6.17610
#
# Compressibility (1/GPa) = 0.02777643
#
# Stress axis : x y z
#
# Youngs Moduli (GPa) = 79.39627 59.97733 66.04706
#
# Poissons Ratio (x) = 0.01038 0.33629
# Poissons Ratio (y) = 0.01374 0.20154
# Poissons Ratio (z) = 0.40426 0.18302
#
# Static dielectric constant tensor:
#      x y z
#    x 1.763740 0.000000 0.010650 
#    y 0.000000 1.758810 0.000000 
#    z 0.010650 0.000000 1.876980 
# 
# From -- ./inp_files/107461.got.cif
#   From: 2010.05.17/outbox.cif.g08.bks.cpg/sg15_54_cif.got.tgz:107461.got - 2010.06.03 18:47:42.
