data_PCOD9288113
_publ_section_title
;
Structure prediction by ZEFSAII (Michael W. Deem and Ramdas Pophale) SiO2 
 PCOD9288113
Probable space group: C 2/C
;
_chemical_formula_sum "Si O2"
_cell_formula_units_Z 52
_cell_length_a 19.870302
_cell_length_b 18.993284
_cell_length_c 12.517904
_cell_angle_alpha 90.000000
_cell_angle_beta 149.530565
_cell_angle_gamma 90.000000
_cell_volume 2395.584358
_symmetry_space_group_name_H-M "C 2/C"
_symmetry_group_IT_number 15
_symmetry_cell_setting 'monoclinic'
loop_
_space_group_symop_operation_xyz
x,y,z
-x,y,1/2-z
-x,-y,-z
x,-y,1/2+z
1/2+x,1/2+y,z
1/2-x,1/2+y,1/2-z
1/2-x,1/2-y,-z
1/2+x,1/2-y,1/2+z
loop_
_atom_site_type_symbol
_atom_site_label
_atom_site_fract_x
_atom_site_fract_y
_atom_site_fract_z
Si Si1 0.270403 0.142524 0.307800
Si Si2 0.540946 0.285026 0.599407
Si Si3 0.598752 0.436776 0.089117
Si Si4 0.645340 0.058336 0.413668
Si Si5 0.500000 0.184185 0.750000
Si Si6 0.145668 0.030968 0.983602
Si Si7 0.138430 0.294727 0.788946
O O1 0.187092 0.188779 0.275663
O O2 0.399777 0.130713 0.554125
O O3 0.303451 0.186228 0.247418
O O4 0.198121 0.076138 0.156326
O O5 0.457686 0.357988 0.482650
O O6 0.533892 0.237402 0.696592
O O7 0.494098 0.244912 0.427342
O O8 0.743553 0.438416 0.341884
O O9 0.500000 0.500000 0.000000
O O10 0.615987 0.454898 0.989098
O O11 0.500000 0.030251 0.250000
O O12 0.738389 0.026994 0.445313
O O13 0.614801 0.135754 0.324507
O O14 0.000000 0.061133 0.750000
O O15 0.250000 0.250000 0.000000
#
# Coordination Sequence:
#
# PCOD9288113 Si02
#       7
#     8   8   8   8   4   8   8
#     4  10  22  40  63  92 132 175 221 278 339 408
#     4  11  22  39  67  96 130 175 234 283 336 412
#     4  12  23  42  68 100 131 183 234 275 342 415
#     4  11  25  43  67 104 141 177 232 291 346 404
#     4  10  24  40  58  96 134 174 222 278 360 404
#     4  11  23  44  72  97 130 181 232 281 338 411
#     4  10  22  38  64 100 135 175 221 287 348 402
#
# _framework density 21.706603000000001
#
# number of rings (size 3 to 8) (size 9 to 14) (size 15 to 20)
#    0.000    1.231    4.615    0.462    5.385    0.615 
#    1.385    1.538    0.000    0.000    0.000    0.000 
#    0.000    0.000    0.000    0.000    0.000    0.000 
#
# Total GULP energy -144793.499383 kJ/mol
# GULP energy per Si atom -5568.980746 kJ/mol
# Density = 2.165720 g / cm^3
# Si number density = 21.706603 Si / 1000 Ang^3
#
#
#
# Elastic Constant Matrix: (Units=GPa)
#
#
# Indices 1 2 3 4 5 6 
#
# 1 103.5689 13.7120 55.8386 0.0000 13.5490 0.0000
# 2 13.7120 53.1580 40.0770 0.0000 -1.5670 0.0000
# 3 55.8386 40.0770 174.6941 0.0000 -18.1764 0.0000
# 4 0.0000 0.0000 0.0000 -110.9307 0.0000 281.2585
# 5 13.5490 -1.5670 -18.1764 0.0000 31.4889 0.0000
# 6 0.0000 0.0000 0.0000 281.2585 0.0000 -628.5971
#
#
#
# Elastic Compliance Matrix: (Units=1/GPa)
#
#
# Indices 1 2 3 4 5 6 
#
# 1 0.013690 0.000251 -0.005367 0.000000 -0.008976 0.000000
# 2 0.000251 0.022870 -0.005553 0.000000 -0.002175 0.000000
# 3 -0.005367 -0.005553 0.009496 0.000000 0.007514 0.000000
# 4 0.000000 0.000000 0.000000 0.067046 0.000000 0.029999
# 5 -0.008976 -0.002175 0.007514 0.000000 0.039849 0.000000
# 6 0.000000 0.000000 0.000000 0.029999 0.000000 0.011832
#
#
# Mechanical properties :
#
#
# Convention : Reuss Voigt Hill
#
# Bulk Modulus (GPa) = 40.45954 61.18625 50.82290
# Shear Modulus (GPa) = 25.72542 -126.82156 -50.54807
#
# Velocity S-wave (km/s) = 3.44632 -7.65194 -4.83089
# Velocity P-wave (km/s) = 5.87503 7.05837 2.76628
#
# Compressibility (1/GPa) = 0.02471605
#
# Stress axis : x y z
#
# Youngs Moduli (GPa) = 73.04434 43.72611 105.31128
#
# Poissons Ratio (x) = -0.01096 0.56524
# Poissons Ratio (y) = -0.01830 0.58479
# Poissons Ratio (z) = 0.39206 0.24281
#
# Static dielectric constant tensor:
#      x y z
#    x 1.830900 0.000000 0.003350 
#    y 0.000000 1.895260 0.000000 
#    z 0.003350 0.000000 1.734380 
# 
# From -- ./inp_files/114411.got.cif
#   From: 2010.05.17/outbox.cif.g08.bks.cpg/sg15_58_cif.got.tgz:114411.got - 2010.06.03 18:47:42.
