data_PCOD9288462
_publ_section_title
;
Structure prediction by ZEFSAII (Michael W. Deem and Ramdas Pophale) SiO2 
 PCOD9288462
Probable space group: C 2/C
;
_chemical_formula_sum "Si O2"
_cell_formula_units_Z 64
_cell_length_a 16.751688
_cell_length_b 31.190426
_cell_length_c 11.205050
_cell_angle_alpha 90.000000
_cell_angle_beta 31.960529
_cell_angle_gamma 90.000000
_cell_volume 3099.018903
_symmetry_space_group_name_H-M "C 2/C"
_symmetry_group_IT_number 15
_symmetry_cell_setting 'monoclinic'
loop_
_space_group_symop_operation_xyz
x,y,z
-x,y,1/2-z
-x,-y,-z
x,-y,1/2+z
1/2+x,1/2+y,z
1/2-x,1/2+y,1/2-z
1/2-x,1/2-y,-z
1/2+x,1/2-y,1/2+z
loop_
_atom_site_type_symbol
_atom_site_label
_atom_site_fract_x
_atom_site_fract_y
_atom_site_fract_z
Si Si1 0.253054 0.661599 0.334929
Si Si2 0.167180 0.295715 0.594719
Si Si3 0.828531 0.566309 0.093386
Si Si4 0.252055 0.344678 0.109328
Si Si5 0.168448 0.557884 0.692457
Si Si6 0.593019 0.491775 0.006736
Si Si7 0.566442 0.314843 0.404864
Si Si8 0.965670 0.285897 0.499894
O O1 0.166533 0.617924 0.414402
O O2 0.301733 0.658170 0.410334
O O3 0.139630 0.701839 0.476314
O O4 0.406274 0.667344 0.066518
O O5 0.250000 0.250000 0.500000
O O6 0.290574 0.321452 0.363558
O O7 0.128240 0.310064 0.776501
O O8 0.000000 0.291324 0.750000
O O9 0.695246 0.549367 0.345305
O O10 0.799148 0.553807 0.991542
O O11 0.990375 0.548115 0.928581
O O12 0.188248 0.392531 0.204103
O O13 0.380884 0.336342 0.040349
O O14 0.126754 0.307874 0.289710
O O15 0.285664 0.529494 0.618404
O O16 0.500000 0.487219 0.250000
O O17 0.500000 0.500000 0.000000
O O18 0.535865 0.264175 0.468432
#
# Coordination Sequence:
#
# PCOD9288462 Si02
#       8
#     8   8   8   8   8   8   8   8
#     4  11  24  39  62  96 131 173 217 265 333 388
#     4  10  22  39  60  80 113 166 221 272 333 392
#     4  10  22  45  68  98 137 180 221 263 333 414
#     4  11  22  40  63  93 131 173 218 267 325 394
#     4  10  22  43  73  94 135 185 219 265 335 413
#     4  12  25  45  74 109 138 171 220 280 337 409
#     4  11  24  37  61  90 130 171 222 282 328 380
#     4  11  22  40  62  89 125 172 227 274 322 386
#
# _framework density 20.651696999999999
#
# number of rings (size 3 to 8) (size 9 to 14) (size 15 to 20)
#    0.000    1.250    3.750    1.875    7.000    3.000 
#    2.250    0.000    2.750    0.000    0.000    0.000 
#    0.000    0.000    0.000    0.000    0.000    0.000 
#
# Total GULP energy -178469.357592 kJ/mol
# GULP energy per Si atom -5577.167425 kJ/mol
# Density = 2.060469 g / cm^3
# Si number density = 20.651697 Si / 1000 Ang^3
#
#
#
# Elastic Constant Matrix: (Units=GPa)
#
#
# Indices 1 2 3 4 5 6 
#
# 1 98.8169 19.6221 31.0915 0.0000 -19.0942 0.0000
# 2 19.6221 41.4632 18.4998 0.0000 2.5929 0.0000
# 3 31.0915 18.4998 120.6053 0.0000 -12.6455 -0.0001
# 4 0.0000 0.0000 0.0000 47.1656 0.0000 -17.9465
# 5 -19.0942 2.5929 -12.6455 0.0000 32.2874 0.0001
# 6 0.0000 0.0000 -0.0001 -17.9465 0.0001 34.7774
#
#
#
# Elastic Compliance Matrix: (Units=1/GPa)
#
#
# Indices 1 2 3 4 5 6 
#
# 1 0.013345 -0.006036 -0.001706 0.000000 0.007708 0.000000
# 2 -0.006036 0.029072 -0.003673 0.000000 -0.007343 0.000000
# 3 -0.001706 -0.003673 0.009615 0.000000 0.003052 0.000000
# 4 0.000000 0.000000 0.000000 0.026382 0.000000 0.013614
# 5 0.007708 -0.007343 0.003052 0.000000 0.037315 0.000000
# 6 0.000000 0.000000 0.000000 0.013614 0.000000 0.035780
#
#
# Mechanical properties :
#
#
# Convention : Reuss Voigt Hill
#
# Bulk Modulus (GPa) = 34.24551 44.36800 39.30676
# Shear Modulus (GPa) = 27.16310 35.62423 31.39367
#
# Velocity S-wave (km/s) = 3.63064 4.15782 3.90314
# Velocity P-wave (km/s) = 5.84754 6.67687 6.27592
#
# Compressibility (1/GPa) = 0.02920091
#
# Stress axis : x y z
#
# Youngs Moduli (GPa) = 74.93694 34.39687 104.00688
#
# Poissons Ratio (x) = 0.20762 0.17744
# Poissons Ratio (y) = 0.45232 0.38205
# Poissons Ratio (z) = 0.12785 0.12635
#
# Static dielectric constant tensor:
#      x y z
#    x 1.828860 0.000000 0.036070 
#    y 0.000000 1.730410 0.000000 
#    z 0.036070 0.000000 1.794150 
# 
# From -- ./inp_files/108636.got.cif
#   From: 2010.05.17/outbox.cif.g08.bks.cpg/sg15_55_cif.got.tgz:108636.got - 2010.06.03 18:47:42.
