data_PCOD9288257
_publ_section_title
;
Structure prediction by ZEFSAII (Michael W. Deem and Ramdas Pophale) SiO2 
 PCOD9288257
Probable space group: C 2/C
;
_chemical_formula_sum "Si O2"
_cell_formula_units_Z 28
_cell_length_a 20.723871
_cell_length_b 9.108710
_cell_length_c 13.826024
_cell_angle_alpha 90.000000
_cell_angle_beta 33.628289
_cell_angle_gamma 90.000000
_cell_volume 1445.373708
_symmetry_space_group_name_H-M "C 2/C"
_symmetry_group_IT_number 15
_symmetry_cell_setting 'monoclinic'
loop_
_space_group_symop_operation_xyz
x,y,z
-x,y,1/2-z
-x,-y,-z
x,-y,1/2+z
1/2+x,1/2+y,z
1/2-x,1/2+y,1/2-z
1/2-x,1/2-y,-z
1/2+x,1/2-y,1/2+z
loop_
_atom_site_type_symbol
_atom_site_label
_atom_site_fract_x
_atom_site_fract_y
_atom_site_fract_z
Si Si1 0.108425 0.551541 0.428157
Si Si2 0.000000 0.691284 0.750000
Si Si3 0.544266 0.470640 0.791967
Si Si4 0.831159 0.874882 0.196249
O O1 0.065245 0.596611 0.589053
O O2 0.159906 0.700059 0.317421
O O3 0.207532 0.430006 0.313280
O O4 0.000000 0.500000 0.500000
O O5 0.081837 0.809309 0.705323
O O6 0.500000 0.550809 0.750000
O O7 0.637514 0.556239 0.738709
O O8 0.432222 0.436349 0.998758
#
# Coordination Sequence:
#
# PCOD9288257 Si02
#       4
#     8   4   8   8
#     4  11  25  42  65  95 128 166 214 259 315 378
#     4   8  20  42  64  88 128 170 204 250 324 380
#     4   8  18  39  65  88 120 172 208 247 310 377
#     4  10  22  38  66  91 126 165 211 260 310 369
#
# _framework density 19.372153000000001
#
# number of rings (size 3 to 8) (size 9 to 14) (size 15 to 20)
#    0.857    1.714    0.000    0.000   12.000    3.429 
#    2.571    2.857    0.000    0.000    0.000    0.000 
#    0.000    0.000    0.000    0.000    0.000    0.000 
#
# Total GULP energy -78019.989267 kJ/mol
# GULP energy per Si atom -5572.856376 kJ/mol
# Density = 1.932806 g / cm^3
# Si number density = 19.372153 Si / 1000 Ang^3
#
#
#
# Elastic Constant Matrix: (Units=GPa)
#
#
# Indices 1 2 3 4 5 6 
#
# 1 134.0449 60.5163 51.0869 0.0000 -20.7082 0.0000
# 2 60.5163 116.7730 48.8542 0.0000 -23.9483 0.0000
# 3 51.0869 48.8542 42.9728 0.0000 -17.6678 0.0000
# 4 0.0000 0.0000 0.0000 25.8953 0.0000 -16.1056
# 5 -20.7082 -23.9483 -17.6678 0.0000 40.8377 0.0000
# 6 0.0000 0.0000 0.0000 -16.1056 0.0000 -9.0515
#
#
#
# Elastic Compliance Matrix: (Units=1/GPa)
#
#
# Indices 1 2 3 4 5 6 
#
# 1 0.013660 -0.000555 -0.015683 0.000000 -0.000184 0.000000
# 2 -0.000555 0.016473 -0.017286 0.000000 0.001900 0.000000
# 3 -0.015683 -0.017286 0.065841 0.000000 0.010395 0.000000
# 4 0.000000 0.000000 0.000000 0.018331 0.000000 -0.032617
# 5 -0.000184 0.001900 0.010395 0.000000 0.030005 0.000000
# 6 0.000000 0.000000 0.000000 -0.032617 0.000000 -0.052443
#
#
# Mechanical properties :
#
#
# Convention : Reuss Voigt Hill
#
# Bulk Modulus (GPa) = 34.57318 68.30063 51.43691
# Shear Modulus (GPa) = 29.66330 20.42520 25.04425
#
# Velocity S-wave (km/s) = 3.91734 3.25061 3.59945
# Velocity P-wave (km/s) = 6.19244 7.03010 6.62452
#
# Compressibility (1/GPa) = 0.02892415
#
# Stress axis : x y z
#
# Youngs Moduli (GPa) = 73.20879 60.70469 15.18807
#
# Poissons Ratio (x) = 0.03371 0.23820
# Poissons Ratio (y) = 0.04066 0.26255
# Poissons Ratio (z) = 1.14814 1.04937
#
# Static dielectric constant tensor:
#      x y z
#    x 1.696590 0.000000 0.025410 
#    y 0.000000 1.683420 0.000000 
#    z 0.025410 0.000000 1.680550 
# 
# From -- ./inp_files/93144.got.cif
#   From: 2010.05.17/outbox.cif.g08.bks.cpg/sg15_47_cif.got.tgz:93144.got - 2010.06.03 18:47:42.
