data_PCOD9288226
_publ_section_title
;
Structure prediction by ZEFSAII (Michael W. Deem and Ramdas Pophale) SiO2 
 PCOD9288226
Probable space group: C 2/C
;
_chemical_formula_sum "Si O2"
_cell_formula_units_Z 44
_cell_length_a 17.583950
_cell_length_b 7.319641
_cell_length_c 22.910719
_cell_angle_alpha 90.000000
_cell_angle_beta 38.333710
_cell_angle_gamma 90.000000
_cell_volume 1828.964032
_symmetry_space_group_name_H-M "C 2/C"
_symmetry_group_IT_number 15
_symmetry_cell_setting 'monoclinic'
loop_
_space_group_symop_operation_xyz
x,y,z
-x,y,1/2-z
-x,-y,-z
x,-y,1/2+z
1/2+x,1/2+y,z
1/2-x,1/2+y,1/2-z
1/2-x,1/2-y,-z
1/2+x,1/2-y,1/2+z
loop_
_atom_site_type_symbol
_atom_site_label
_atom_site_fract_x
_atom_site_fract_y
_atom_site_fract_z
Si Si1 0.000000 0.844058 0.750000
Si Si2 0.256068 0.872585 0.616325
Si Si3 0.401398 0.978051 0.640946
Si Si4 0.798929 0.988985 0.644162
Si Si5 0.446674 0.360028 0.455429
Si Si6 0.574307 0.743731 0.083279
O O1 0.879609 0.956359 0.802642
O O2 0.950912 0.726248 0.833882
O O3 0.350928 0.957593 0.605678
O O4 0.237768 0.666175 0.651291
O O5 0.315641 0.843250 0.516906
O O6 0.290105 0.927353 0.751029
O O7 0.512018 0.838839 0.589314
O O8 0.454673 0.178451 0.621248
O O9 0.839920 0.853981 0.568080
O O10 0.926305 0.067750 0.592541
O O11 0.413236 0.525170 0.432479
#
# Coordination Sequence:
#
# PCOD9288226 Si02
#       6
#     4   8   8   8   8   8
#     4  12  22  42  64  98 136 180 210 270 342 402
#     4  10  22  38  65  95 132 172 223 268 325 399
#     4  11  21  40  68 100 124 176 222 271 328 392
#     4   9  18  37  58  93 129 164 206 275 324 372
#     4   9  21  38  59  93 134 157 213 280 316 375
#     4  11  23  42  66  96 128 176 223 269 330 392
#
# _framework density 24.057337
#
# number of rings (size 3 to 8) (size 9 to 14) (size 15 to 20)
#    0.000    1.818    1.818    3.273    2.545    0.000 
#    3.273    0.909    0.000    3.273    0.000    0.000 
#    0.000    0.000    0.000    0.000    0.000    0.000 
#
# Total GULP energy -122904.683611 kJ/mol
# GULP energy per Si atom -5586.576528 kJ/mol
# Density = 2.400258 g / cm^3
# Si number density = 24.057337 Si / 1000 Ang^3
#
#
#
# Elastic Constant Matrix: (Units=GPa)
#
#
# Indices 1 2 3 4 5 6 
#
# 1 87.1866 9.8515 27.7781 0.0000 1.2307 0.0000
# 2 9.8515 92.6590 28.6852 0.0000 3.1772 0.0000
# 3 27.7781 28.6852 170.5951 0.0000 12.0737 0.0000
# 4 0.0000 0.0000 0.0000 21.2937 0.0000 -1.7672
# 5 1.2307 3.1772 12.0737 0.0000 45.5211 0.0000
# 6 0.0000 0.0000 0.0000 -1.7672 0.0000 15.0174
#
#
#
# Elastic Compliance Matrix: (Units=1/GPa)
#
#
# Indices 1 2 3 4 5 6 
#
# 1 0.012144 -0.000719 -0.001872 0.000000 0.000218 0.000000
# 2 -0.000719 0.011431 -0.001783 0.000000 -0.000305 0.000000
# 3 -0.001872 -0.001783 0.006578 0.000000 -0.001570 0.000000
# 4 0.000000 0.000000 0.000000 0.047425 0.000000 0.005581
# 5 0.000218 -0.000305 -0.001570 0.000000 0.022400 0.000000
# 6 0.000000 0.000000 0.000000 0.005581 0.000000 0.067246
#
#
# Mechanical properties :
#
#
# Convention : Reuss Voigt Hill
#
# Bulk Modulus (GPa) = 46.72018 53.67450 50.19734
# Shear Modulus (GPa) = 27.30628 35.30816 31.30722
#
# Velocity S-wave (km/s) = 3.37271 3.83517 3.61135
# Velocity P-wave (km/s) = 5.88467 6.47849 6.18871
#
# Compressibility (1/GPa) = 0.02140403
#
# Stress axis : x y z
#
# Youngs Moduli (GPa) = 82.34348 87.47911 152.03085
#
# Poissons Ratio (x) = 0.06291 0.28460
# Poissons Ratio (y) = 0.05922 0.27114
# Poissons Ratio (z) = 0.15415 0.15601
#
# Static dielectric constant tensor:
#      x y z
#    x 1.974800 0.000000 -0.014440 
#    y 0.000000 1.978440 0.000000 
#    z -0.014440 0.000000 1.926230 
# 
# From -- ./inp_files/246805.got.cif
#   From: 2010.05.17/outbox.cif.g08.bks.cpg/sg15_124_cif.got.tgz:246805.got - 2010.06.03 18:47:42.
