data_PCOD9288021
_publ_section_title
;
Structure prediction by ZEFSAII (Michael W. Deem and Ramdas Pophale) SiO2 
 PCOD9288021
Probable space group: C 2/C
;
_chemical_formula_sum "Si O2"
_cell_formula_units_Z 60
_cell_length_a 15.966026
_cell_length_b 18.273996
_cell_length_c 11.437371
_cell_angle_alpha 90.000000
_cell_angle_beta 73.707767
_cell_angle_gamma 90.000000
_cell_volume 3202.999847
_symmetry_space_group_name_H-M "C 2/C"
_symmetry_group_IT_number 15
_symmetry_cell_setting 'monoclinic'
loop_
_space_group_symop_operation_xyz
x,y,z
-x,y,1/2-z
-x,-y,-z
x,-y,1/2+z
1/2+x,1/2+y,z
1/2-x,1/2+y,1/2-z
1/2-x,1/2-y,-z
1/2+x,1/2-y,1/2+z
loop_
_atom_site_type_symbol
_atom_site_label
_atom_site_fract_x
_atom_site_fract_y
_atom_site_fract_z
Si Si1 0.839923 0.411550 0.574855
Si Si2 0.475933 0.111657 0.397567
Si Si3 0.478908 0.275189 0.503961
Si Si4 0.667711 0.744091 0.845265
Si Si5 0.000000 0.742219 0.750000
Si Si6 0.319267 0.307425 0.418738
Si Si7 0.311243 0.932496 0.096697
Si Si8 0.665026 0.145754 0.670716
O O1 0.820437 0.330420 0.633071
O O2 0.789819 0.483721 0.635509
O O3 0.823771 0.406790 0.443090
O O4 0.940893 0.423460 0.570569
O O5 0.500000 0.114964 0.250000
O O6 0.466154 0.192588 0.458136
O O7 0.386476 0.071796 0.467991
O O8 0.580821 0.288156 0.439200
O O9 0.465820 0.282111 0.647885
O O10 0.404086 0.318504 0.465212
O O11 0.653911 0.729690 0.713802
O O12 0.753082 0.700133 0.850859
O O13 0.078981 0.691845 0.676453
O O14 0.250000 0.250000 0.500000
O O15 0.269028 0.382732 0.413105
O O16 0.346147 0.894423 0.201521
#
# Coordination Sequence:
#
# PCOD9288021 Si02
#       8
#     8   8   8   8   4   8   8   8
#     4  11  23  36  59  84 121 156 193 241 288 357
#     4  11  21  35  54  85 122 159 191 224 288 359
#     4  11  20  36  59  87 112 153 199 244 288 335
#     4  10  22  38  62  87 112 153 201 245 292 342
#     4  12  20  36  58  88 118 148 196 238 294 338
#     4  11  21  38  60  83 119 152 199 242 285 352
#     4  11  24  37  55  88 119 160 189 235 299 350
#     4  11  21  41  59  85 119 154 196 240 288 351
#
# _framework density 18.732437999999998
#
# number of rings (size 3 to 8) (size 9 to 14) (size 15 to 20)
#    0.000    1.067    5.333    3.600    1.867    0.000 
#    0.000    0.000    0.000    0.800    6.933    0.000 
#    0.000    0.000    0.000    0.000    0.000    0.000 
#
# Total GULP energy -167432.626293 kJ/mol
# GULP energy per Si atom -5581.087543 kJ/mol
# Density = 1.868980 g / cm^3
# Si number density = 18.732438 Si / 1000 Ang^3
#
#
#
# Elastic Constant Matrix: (Units=GPa)
#
#
# Indices 1 2 3 4 5 6 
#
# 1 74.4077 38.2374 19.2253 0.0000 18.1519 0.0000
# 2 38.2374 69.0217 35.0045 0.0000 5.9169 0.0000
# 3 19.2253 35.0045 100.1749 0.0000 16.6384 0.0000
# 4 0.0000 0.0000 0.0000 14.4374 0.0000 -0.8445
# 5 18.1519 5.9169 16.6384 0.0000 33.2333 0.0000
# 6 0.0000 0.0000 0.0000 -0.8445 0.0000 14.0486
#
#
#
# Elastic Compliance Matrix: (Units=1/GPa)
#
#
# Indices 1 2 3 4 5 6 
#
# 1 0.021769 -0.012063 0.001806 0.000000 -0.010647 0.000000
# 2 -0.012063 0.024293 -0.007144 0.000000 0.005840 0.000000
# 3 0.001806 -0.007144 0.013181 0.000000 -0.006313 0.000000
# 4 0.000000 0.000000 0.000000 0.069509 0.000000 0.004179
# 5 -0.010647 0.005840 -0.006313 0.000000 0.038026 0.000000
# 6 0.000000 0.000000 0.000000 0.004179 0.000000 0.071433
#
#
# Mechanical properties :
#
#
# Convention : Reuss Voigt Hill
#
# Bulk Modulus (GPa) = 40.91462 47.61541 44.26501
# Shear Modulus (GPa) = 17.78338 22.41966 20.10152
#
# Velocity S-wave (km/s) = 3.08447 3.46328 3.27935
# Velocity P-wave (km/s) = 5.87999 6.43944 6.16606
#
# Compressibility (1/GPa) = 0.02444114
#
# Stress axis : x y z
#
# Youngs Moduli (GPa) = 45.93629 41.16349 75.86736
#
# Poissons Ratio (x) = 0.49656 -0.13699
# Poissons Ratio (y) = 0.55413 0.54198
# Poissons Ratio (z) = -0.08295 0.29406
#
# Static dielectric constant tensor:
#      x y z
#    x 1.650340 0.000000 -0.003250 
#    y 0.000000 1.652310 0.000000 
#    z -0.003250 0.000000 1.739430 
# 
# From -- ./inp_files/99407.got.cif
#   From: 2010.05.17/outbox.cif.g08.bks.cpg/sg15_50_cif.got.tgz:99407.got - 2010.06.03 18:47:42.
