data_PCOD9288193
_publ_section_title
;
Structure prediction by ZEFSAII (Michael W. Deem and Ramdas Pophale) SiO2 
 PCOD9288193
Probable space group: C 2/C
;
_chemical_formula_sum "Si O2"
_cell_formula_units_Z 36
_cell_length_a 16.801720
_cell_length_b 21.663926
_cell_length_c 5.030480
_cell_angle_alpha 90.000000
_cell_angle_beta 112.245450
_cell_angle_gamma 90.000000
_cell_volume 1694.766499
_symmetry_space_group_name_H-M "C 2/C"
_symmetry_group_IT_number 15
_symmetry_cell_setting 'monoclinic'
loop_
_space_group_symop_operation_xyz
x,y,z
-x,y,1/2-z
-x,-y,-z
x,-y,1/2+z
1/2+x,1/2+y,z
1/2-x,1/2+y,1/2-z
1/2-x,1/2-y,-z
1/2+x,1/2-y,1/2+z
loop_
_atom_site_type_symbol
_atom_site_label
_atom_site_fract_x
_atom_site_fract_y
_atom_site_fract_z
Si Si1 0.919401 0.642757 0.839725
Si Si2 0.500000 0.955147 0.750000
Si Si3 0.259614 0.321897 0.596188
Si Si4 0.500000 0.252387 0.250000
Si Si5 0.500000 0.545186 0.750000
Si Si6 0.631776 0.350015 0.258503
O O1 0.832592 0.646940 0.566430
O O2 0.000000 0.629022 0.750000
O O3 0.922609 0.592063 0.078639
O O4 0.940130 0.708404 0.999206
O O5 0.500000 0.000000 0.500000
O O6 0.250000 0.250000 0.500000
O O7 0.325276 0.354522 0.474304
O O8 0.296282 0.329314 0.937721
O O9 0.560588 0.296047 0.153611
O O10 0.500000 0.500000 0.500000
O O11 0.418347 0.590494 0.692643
#
# Coordination Sequence:
#
# PCOD9288193 Si02
#       6
#     8   4   8   4   4   8
#     4  11  24  40  69  95 132 175 224 266 337 400
#     4  11  24  45  64  85 120 171 224 264 306 377
#     4  12  24  41  66 104 145 166 215 279 351 408
#     4  10  22  38  64  98 132 176 220 264 342 416
#     4  11  24  49  76  95 136 185 238 284 330 405
#     4  11  25  42  67 102 136 178 221 279 346 404
#
# _framework density 21.241865000000001
#
# number of rings (size 3 to 8) (size 9 to 14) (size 15 to 20)
#    0.000    0.889    3.333    3.333    6.222    1.778 
#    0.000    6.667    0.000    0.000    0.000    0.000 
#    0.000    0.000    0.000    0.000    0.000    0.000 
#
# Total GULP energy -100650.647065 kJ/mol
# GULP energy per Si atom -5591.702615 kJ/mol
# Density = 2.119352 g / cm^3
# Si number density = 21.241865 Si / 1000 Ang^3
#
#
#
# Elastic Constant Matrix: (Units=GPa)
#
#
# Indices 1 2 3 4 5 6 
#
# 1 90.7345 19.8080 6.3388 0.0000 0.0196 0.0000
# 2 19.8080 121.3928 31.7335 0.0000 4.4692 0.0000
# 3 6.3388 31.7335 87.2014 0.0000 -2.1341 0.0000
# 4 0.0000 0.0000 0.0000 34.3180 0.0000 -5.7977
# 5 0.0196 4.4692 -2.1341 0.0000 42.6693 0.0000
# 6 0.0000 0.0000 0.0000 -5.7977 0.0000 14.9912
#
#
#
# Elastic Compliance Matrix: (Units=1/GPa)
#
#
# Indices 1 2 3 4 5 6 
#
# 1 0.011432 -0.001830 -0.000161 0.000000 0.000178 0.000000
# 2 -0.001830 0.009451 -0.003334 0.000000 -0.001156 0.000000
# 3 -0.000161 -0.003334 0.012717 0.000000 0.000985 0.000000
# 4 0.000000 0.000000 0.000000 0.031176 0.000000 0.012057
# 5 0.000178 -0.001156 0.000985 0.000000 0.023606 0.000000
# 6 0.000000 0.000000 0.000000 0.012057 0.000000 0.071369
#
#
# Mechanical properties :
#
#
# Convention : Reuss Voigt Hill
#
# Bulk Modulus (GPa) = 43.57448 46.12104 44.84776
# Shear Modulus (GPa) = 28.08192 34.49226 31.28709
#
# Velocity S-wave (km/s) = 3.63989 4.03400 3.84200
# Velocity P-wave (km/s) = 6.18248 6.59219 6.39062
#
# Compressibility (1/GPa) = 0.02294921
#
# Stress axis : x y z
#
# Youngs Moduli (GPa) = 87.47503 105.81434 78.63538
#
# Poissons Ratio (x) = 0.19363 0.01264
# Poissons Ratio (y) = 0.16007 0.26220
# Poissons Ratio (z) = 0.01406 0.35283
#
# Static dielectric constant tensor:
#      x y z
#    x 1.779280 0.000000 -0.008150 
#    y 0.000000 1.780810 0.000000 
#    z -0.008150 0.000000 1.760970 
# 
# From -- ./inp_files/6924.got.cif
#   From: 2010.05.17/outbox.cif.g08.bks.cpg/sg15_4_cif.got.tgz:6924.got - 2010.06.03 18:47:42.
