data_PCOD9288127
_publ_section_title
;
Structure prediction by ZEFSAII (Michael W. Deem and Ramdas Pophale) SiO2 
 PCOD9288127
Probable space group: C 2/C
;
_chemical_formula_sum "Si O2"
_cell_formula_units_Z 52
_cell_length_a 12.112191
_cell_length_b 22.711234
_cell_length_c 10.739780
_cell_angle_alpha 90.000000
_cell_angle_beta 112.642857
_cell_angle_gamma 90.000000
_cell_volume 2726.616542
_symmetry_space_group_name_H-M "C 2/C"
_symmetry_group_IT_number 15
_symmetry_cell_setting 'monoclinic'
loop_
_space_group_symop_operation_xyz
x,y,z
-x,y,1/2-z
-x,-y,-z
x,-y,1/2+z
1/2+x,1/2+y,z
1/2-x,1/2+y,1/2-z
1/2-x,1/2-y,-z
1/2+x,1/2-y,1/2+z
loop_
_atom_site_type_symbol
_atom_site_label
_atom_site_fract_x
_atom_site_fract_y
_atom_site_fract_z
Si Si1 0.489732 0.094804 0.559842
Si Si2 0.207045 0.684264 0.637741
Si Si3 0.121485 0.617628 0.254951
Si Si4 0.151104 0.816144 0.533152
Si Si5 0.184071 0.319636 0.414547
Si Si6 0.569477 0.303927 0.909231
Si Si7 0.000000 0.492604 0.750000
O O1 0.608871 0.132723 0.585491
O O2 0.408654 0.101476 0.400628
O O3 0.406330 0.127272 0.624452
O O4 0.515506 0.032327 0.634355
O O5 0.159109 0.746096 0.563146
O O6 0.319594 0.670925 0.598078
O O7 0.225596 0.694723 0.792389
O O8 0.241278 0.652111 0.342490
O O9 0.000000 0.650918 0.250000
O O10 0.109594 0.553513 0.316032
O O11 0.019056 0.829703 0.525849
O O12 0.303188 0.335221 0.540520
O O13 0.112548 0.264343 0.442243
O O14 0.500000 0.306290 0.750000
#
# Coordination Sequence:
#
# PCOD9288127 Si02
#       7
#     8   8   8   8   8   8   4
#     4  12  19  39  63  89 123 153 212 258 304 358
#     4  11  21  35  56  88 118 165 189 252 311 361
#     4  10  23  37  56  92 118 162 198 252 313 355
#     4  11  22  37  55  81 131 156 198 246 308 375
#     4  11  22  35  59  86 120 159 203 239 303 367
#     4  11  21  37  53  83 122 161 194 240 299 371
#     4  10  22  38  64  86 122 158 210 270 296 350
#
# _framework density 19.071255000000001
#
# number of rings (size 3 to 8) (size 9 to 14) (size 15 to 20)
#    0.462    0.615    6.154    1.385    2.154    0.615 
#    0.000    0.000    0.000    0.923    0.000    0.000 
#    0.000    0.000    0.000    0.000    0.000    0.000 
#
# Total GULP energy -144836.560970 kJ/mol
# GULP energy per Si atom -5570.636960 kJ/mol
# Density = 1.902785 g / cm^3
# Si number density = 19.071255 Si / 1000 Ang^3
#
#
#
# Elastic Constant Matrix: (Units=GPa)
#
#
# Indices 1 2 3 4 5 6 
#
# 1 140.7399 36.6491 41.8692 0.0000 -0.5072 0.0000
# 2 36.6491 69.4570 13.4971 0.0000 2.2098 0.0000
# 3 41.8692 13.4971 70.2309 0.0000 -5.4008 0.0000
# 4 0.0000 0.0000 0.0000 15.2074 0.0000 -8.0760
# 5 -0.5072 2.2098 -5.4008 0.0000 31.1439 0.0000
# 6 0.0000 0.0000 0.0000 -8.0760 0.0000 15.0229
#
#
#
# Elastic Compliance Matrix: (Units=1/GPa)
#
#
# Indices 1 2 3 4 5 6 
#
# 1 0.009663 -0.004113 -0.005002 0.000000 -0.000418 0.000000
# 2 -0.004113 0.016784 -0.000882 0.000000 -0.001411 0.000000
# 3 -0.005002 -0.000882 0.017624 0.000000 0.003037 0.000000
# 4 0.000000 0.000000 0.000000 0.092031 0.000000 0.049475
# 5 -0.000418 -0.001411 0.003037 0.000000 0.032729 0.000000
# 6 0.000000 0.000000 0.000000 0.049475 0.000000 0.093162
#
#
# Mechanical properties :
#
#
# Convention : Reuss Voigt Hill
#
# Bulk Modulus (GPa) = 41.53527 51.60651 46.57089
# Shear Modulus (GPa) = 17.24054 24.83568 21.03811
#
# Velocity S-wave (km/s) = 3.00993 3.61260 3.32495
# Velocity P-wave (km/s) = 5.82287 6.67231 6.26201
#
# Compressibility (1/GPa) = 0.02407592
#
# Stress axis : x y z
#
# Youngs Moduli (GPa) = 103.48623 59.58035 56.74058
#
# Poissons Ratio (x) = 0.24508 0.28384
# Poissons Ratio (y) = 0.42568 0.05004
# Poissons Ratio (z) = 0.51769 0.05254
#
# Static dielectric constant tensor:
#      x y z
#    x 1.708100 0.000000 -0.065440 
#    y 0.000000 1.699730 0.000000 
#    z -0.065440 0.000000 1.768350 
# 
# From -- ./inp_files/90451.got.cif
#   From: 2010.05.17/outbox.cif.g08.bks.cpg/sg15_46_cif.got.tgz:90451.got - 2010.06.03 18:47:42.
