data_PCOD9288921
_publ_section_title
;
Structure prediction by ZEFSAII (Michael W. Deem and Ramdas Pophale) SiO2 
 PCOD9288921
Probable space group: C 2/C
;
_chemical_formula_sum "Si O2"
_cell_formula_units_Z 40
_cell_length_a 10.109830
_cell_length_b 10.639030
_cell_length_c 14.913652
_cell_angle_alpha 90.000000
_cell_angle_beta 72.996496
_cell_angle_gamma 90.000000
_cell_volume 1533.974308
_symmetry_space_group_name_H-M "C 2/C"
_symmetry_group_IT_number 15
_symmetry_cell_setting 'monoclinic'
loop_
_space_group_symop_operation_xyz
x,y,z
-x,y,1/2-z
-x,-y,-z
x,-y,1/2+z
1/2+x,1/2+y,z
1/2-x,1/2+y,1/2-z
1/2-x,1/2-y,-z
1/2+x,1/2-y,1/2+z
loop_
_atom_site_type_symbol
_atom_site_label
_atom_site_fract_x
_atom_site_fract_y
_atom_site_fract_z
Si Si1 0.700323 0.264144 0.111371
Si Si2 0.019802 0.886243 0.428101
Si Si3 0.595713 0.786271 0.064775
Si Si4 0.740485 0.266730 0.702927
Si Si5 0.485786 0.963505 0.655639
O O1 0.600526 0.385292 0.122169
O O2 0.787360 0.258775 0.185912
O O3 0.594266 0.149320 0.142924
O O4 0.750000 0.250000 0.000000
O O5 0.007065 0.775189 0.504229
O O6 0.163221 0.852663 0.349280
O O7 0.000000 0.000000 0.500000
O O8 0.612527 0.728818 0.160628
O O9 0.545840 0.930298 0.078449
O O10 0.750000 0.750000 0.000000
O O11 0.838942 0.391601 0.671852
O O12 0.500000 0.026814 0.750000
#
# Coordination Sequence:
#
# PCOD9288921 Si02
#       5
#     8   8   8   8   8
#     4  10  22  40  66  93 130 176 221 267 341 399
#     4  10  22  41  62  93 136 168 210 271 338 398
#     4  10  22  39  67  96 129 164 228 268 327 408
#     4   9  21  44  65  94 131 174 219 274 334 403
#     4   9  20  42  67  92 131 171 218 275 333 395
#
# _framework density 26.076056000000001
#
# number of rings (size 3 to 8) (size 9 to 14) (size 15 to 20)
#    0.000    2.400    0.000    1.800    5.600    8.800 
#    7.200    6.000    0.000    0.000    0.000    0.000 
#    0.000    0.000    0.000    0.000    0.000    0.000 
#
# Total GULP energy -111477.182786 kJ/mol
# GULP energy per Si atom -5573.859139 kJ/mol
# Density = 2.601671 g / cm^3
# Si number density = 26.076056 Si / 1000 Ang^3
#
#
#
# Elastic Constant Matrix: (Units=GPa)
#
#
# Indices 1 2 3 4 5 6 
#
# 1 105.2638 4.6019 42.8131 0.0000 39.0190 0.0000
# 2 4.6019 90.4385 12.0158 0.0000 3.2860 0.0000
# 3 42.8131 12.0158 179.0033 0.0000 10.2277 0.0000
# 4 0.0000 0.0000 0.0000 50.4437 0.0000 -6.0066
# 5 39.0190 3.2860 10.2277 0.0000 60.5832 0.0000
# 6 0.0000 0.0000 0.0000 -6.0066 0.0000 17.9371
#
#
#
# Elastic Compliance Matrix: (Units=1/GPa)
#
#
# Indices 1 2 3 4 5 6 
#
# 1 0.013749 -0.000022 -0.002808 0.000000 -0.008380 0.000000
# 2 -0.000022 0.011171 -0.000718 0.000000 -0.000471 0.000000
# 3 -0.002808 -0.000718 0.006261 0.000000 0.000791 0.000000
# 4 0.000000 0.000000 0.000000 0.020647 0.000000 0.006914
# 5 -0.008380 -0.000471 0.000791 0.000000 0.021796 0.000000
# 6 0.000000 0.000000 0.000000 0.006914 0.000000 0.058066
#
#
# Mechanical properties :
#
#
# Convention : Reuss Voigt Hill
#
# Bulk Modulus (GPa) = 41.51884 54.84080 48.17982
# Shear Modulus (GPa) = 34.05655 46.81110 40.43382
#
# Velocity S-wave (km/s) = 3.61785 4.24155 3.94205
# Velocity P-wave (km/s) = 5.78001 6.71300 6.26390
#
# Compressibility (1/GPa) = 0.02408545
#
# Stress axis : x y z
#
# Youngs Moduli (GPa) = 72.73044 89.51907 159.71497
#
# Poissons Ratio (x) = 0.00197 0.44852
# Poissons Ratio (y) = 0.00160 0.11463
# Poissons Ratio (z) = 0.20424 0.06425
#
# Static dielectric constant tensor:
#      x y z
#    x 2.734410 0.000000 -0.555270 
#    y 0.000000 2.107200 0.000000 
#    z -0.555270 0.000000 2.597470 
# 
# From -- ./inp_files/141737.got.cif
#   From: 2010.05.17/outbox.cif.g08.bks.cpg/sg15_71_cif.got.tgz:141737.got - 2010.06.03 18:47:42.
