data_PCOD9288586
_publ_section_title
;
Structure prediction by ZEFSAII (Michael W. Deem and Ramdas Pophale) SiO2 
 PCOD9288586
Probable space group: C 2/C
;
_chemical_formula_sum "Si O2"
_cell_formula_units_Z 64
_cell_length_a 15.024323
_cell_length_b 13.997608
_cell_length_c 18.563925
_cell_angle_alpha 90.000000
_cell_angle_beta 122.243615
_cell_angle_gamma 90.000000
_cell_volume 3302.019961
_symmetry_space_group_name_H-M "C 2/C"
_symmetry_group_IT_number 15
_symmetry_cell_setting 'monoclinic'
loop_
_space_group_symop_operation_xyz
x,y,z
-x,y,1/2-z
-x,-y,-z
x,-y,1/2+z
1/2+x,1/2+y,z
1/2-x,1/2+y,1/2-z
1/2-x,1/2-y,-z
1/2+x,1/2-y,1/2+z
loop_
_atom_site_type_symbol
_atom_site_label
_atom_site_fract_x
_atom_site_fract_y
_atom_site_fract_z
Si Si1 0.618332 0.759380 0.659453
Si Si2 0.003219 0.924172 0.165229
Si Si3 0.977713 0.915658 0.932100
Si Si4 0.352441 0.747552 0.996149
Si Si5 0.051065 0.587870 0.435274
Si Si6 0.197015 0.245133 0.158827
Si Si7 0.469998 0.890191 0.400241
Si Si8 0.229122 0.151082 0.951332
O O1 0.583760 0.653214 0.667329
O O2 0.657591 0.765725 0.593992
O O3 0.511145 0.820599 0.620506
O O4 0.710901 0.794190 0.751441
O O5 0.884973 0.894800 0.089293
O O6 0.000000 0.921585 0.250000
O O7 0.035587 0.026721 0.147884
O O8 0.881000 0.839930 0.903059
O O9 0.080717 0.849804 0.971284
O O10 0.000000 0.000000 0.000000
O O11 0.250000 0.750000 0.000000
O O12 0.424646 0.830312 0.060282
O O13 0.988985 0.495881 0.380355
O O14 0.176130 0.584870 0.478270
O O15 0.044531 0.597084 0.519470
O O16 0.250929 0.312001 0.121477
O O17 0.122643 0.322220 0.167499
O O18 0.250000 0.250000 0.000000
#
# Coordination Sequence:
#
# PCOD9288586 Si02
#       8
#     8   8   8   8   8   8   8   8
#     4  11  21  40  62  92 130 162 202 272 323 371
#     4  12  24  39  63  99 131 160 214 274 324 377
#     4  11  23  43  64  92 131 172 219 263 321 389
#     4  10  22  40  64  87 122 168 214 255 314 383
#     4   9  18  34  59  86 116 156 202 249 302 374
#     4  10  22  39  62  87 127 168 199 261 328 366
#     4   8  18  37  56  84 114 153 208 250 296 366
#     4  11  20  35  63  89 120 162 206 248 309 380
#
# _framework density 19.382075
#
# number of rings (size 3 to 8) (size 9 to 14) (size 15 to 20)
#    0.000    1.750    3.750    1.500    1.750    2.000 
#    2.250    1.875    0.000    1.500    0.000    0.000 
#    0.000    0.000    0.000    0.000    0.000    0.000 
#
# Total GULP energy -178285.245720 kJ/mol
# GULP energy per Si atom -5571.413929 kJ/mol
# Density = 1.933796 g / cm^3
# Si number density = 19.382075 Si / 1000 Ang^3
#
#
#
# Elastic Constant Matrix: (Units=GPa)
#
#
# Indices 1 2 3 4 5 6 
#
# 1 74.1623 -2.6150 11.8372 0.0000 12.1556 0.0000
# 2 -2.6150 75.3172 1.1720 0.0000 5.7269 0.0000
# 3 11.8372 1.1720 58.1094 0.0000 13.3160 0.0000
# 4 0.0000 0.0000 0.0000 17.9408 0.0000 -4.2325
# 5 12.1556 5.7269 13.3160 0.0000 24.9243 0.0000
# 6 0.0000 0.0000 0.0000 -4.2325 0.0000 15.0358
#
#
#
# Elastic Compliance Matrix: (Units=1/GPa)
#
#
# Indices 1 2 3 4 5 6 
#
# 1 0.014857 0.001047 -0.001518 0.000000 -0.006676 0.000000
# 2 0.001047 0.013600 0.000394 0.000000 -0.003846 0.000000
# 3 -0.001518 0.000394 0.019783 0.000000 -0.009920 0.000000
# 4 0.000000 0.000000 0.000000 0.059704 0.000000 0.016806
# 5 -0.006676 -0.003846 -0.009920 0.000000 0.049560 0.000000
# 6 0.000000 0.000000 0.000000 0.016806 0.000000 0.071239
#
#
# Mechanical properties :
#
#
# Convention : Reuss Voigt Hill
#
# Bulk Modulus (GPa) = 20.79600 25.37526 23.08563
# Shear Modulus (GPa) = 20.41428 24.72649 22.57039
#
# Velocity S-wave (km/s) = 3.24891 3.57563 3.41618
# Velocity P-wave (km/s) = 4.98264 5.49248 5.24376
#
# Compressibility (1/GPa) = 0.04808616
#
# Stress axis : x y z
#
# Youngs Moduli (GPa) = 67.30703 73.53034 50.54770
#
# Poissons Ratio (x) = -0.07699 0.07673
# Poissons Ratio (y) = -0.07047 -0.01990
# Poissons Ratio (z) = 0.10216 -0.02895
#
# Static dielectric constant tensor:
#      x y z
#    x 1.769650 0.000000 -0.033620 
#    y 0.000000 1.712640 0.000000 
#    z -0.033620 0.000000 1.730750 
# 
# From -- ./inp_files/205439.got.cif
#   From: 2010.05.17/outbox.cif.g08.bks.cpg/sg15_103_cif.got.tgz:205439.got - 2010.06.03 18:47:42.
