data_PCOD9288932
_publ_section_title
;
Structure prediction by ZEFSAII (Michael W. Deem and Ramdas Pophale) SiO2 
 PCOD9288932
Probable space group: C 2/C
;
_chemical_formula_sum "Si O2"
_cell_formula_units_Z 48
_cell_length_a 10.891838
_cell_length_b 28.786974
_cell_length_c 6.580950
_cell_angle_alpha 90.000000
_cell_angle_beta 70.793623
_cell_angle_gamma 90.000000
_cell_volume 1948.561225
_symmetry_space_group_name_H-M "C 2/C"
_symmetry_group_IT_number 15
_symmetry_cell_setting 'monoclinic'
loop_
_space_group_symop_operation_xyz
x,y,z
-x,y,1/2-z
-x,-y,-z
x,-y,1/2+z
1/2+x,1/2+y,z
1/2-x,1/2+y,1/2-z
1/2-x,1/2-y,-z
1/2+x,1/2-y,1/2+z
loop_
_atom_site_type_symbol
_atom_site_label
_atom_site_fract_x
_atom_site_fract_y
_atom_site_fract_z
Si Si1 0.900756 0.240242 0.986290
Si Si2 0.133736 0.943944 0.113047
Si Si3 0.891945 0.507115 0.936933
Si Si4 0.660782 0.355123 0.839817
Si Si5 0.408864 0.156386 0.484067
Si Si6 0.283857 0.101982 0.892206
O O1 0.944368 0.291631 0.034119
O O2 0.000000 0.230239 0.750000
O O3 0.750000 0.250000 0.000000
O O4 0.911550 0.194261 0.116215
O O5 0.177824 0.918092 0.295390
O O6 0.000000 0.969383 0.250000
O O7 0.106379 0.904320 0.955571
O O8 0.259210 0.975109 0.990963
O O9 0.932098 0.505453 0.660877
O O10 0.846859 0.560312 0.982439
O O11 0.771108 0.345069 0.946769
O O12 0.721055 0.363165 0.586224
O O13 0.500000 0.139961 0.250000
O O14 0.389699 0.124229 0.685929
#
# Coordination Sequence:
#
# PCOD9288932 Si02
#       6
#     8   8   8   8   8   8
#     4   9  18  39  66  98 139 184 232 286 357 424
#     4  11  26  47  69  98 140 189 239 296 359 430
#     4  12  25  46  69 100 136 185 237 301 359 424
#     4  10  22  39  67  99 137 186 233 294 356 426
#     4   9  21  38  66 100 140 186 231 294 359 427
#     4  11  25  42  67 103 138 184 245 294 361 432
#
# _framework density 24.633561
#
# number of rings (size 3 to 8) (size 9 to 14) (size 15 to 20)
#    0.000    1.667    1.667    1.500    2.333    4.667 
#    0.000    0.000    0.000   12.000    0.000    0.000 
#    0.000    0.000    0.000    0.000    0.000    0.000 
#
# Total GULP energy -133962.213065 kJ/mol
# GULP energy per Si atom -5581.758878 kJ/mol
# Density = 2.457749 g / cm^3
# Si number density = 24.633561 Si / 1000 Ang^3
#
#
#
# Elastic Constant Matrix: (Units=GPa)
#
#
# Indices 1 2 3 4 5 6 
#
# 1 102.6415 20.6503 68.6722 0.0000 -25.2189 0.0000
# 2 20.6503 131.5794 89.8613 0.0000 -30.1203 0.0000
# 3 68.6722 89.8613 140.2416 0.0000 -26.8449 0.0000
# 4 0.0000 0.0000 0.0000 30.4822 0.0000 -11.9188
# 5 -25.2189 -30.1203 -26.8449 0.0000 41.7795 0.0000
# 6 0.0000 0.0000 0.0000 -11.9188 0.0000 -16.0316
#
#
#
# Elastic Compliance Matrix: (Units=1/GPa)
#
#
# Indices 1 2 3 4 5 6 
#
# 1 0.018498 0.007354 -0.012107 0.000000 0.008688 0.000000
# 2 0.007354 0.017324 -0.013068 0.000000 0.008532 0.000000
# 3 -0.012107 -0.013068 0.020787 0.000000 -0.003373 0.000000
# 4 0.000000 0.000000 0.000000 0.025417 0.000000 -0.018897
# 5 0.008688 0.008532 -0.003373 0.000000 0.033163 0.000000
# 6 0.000000 0.000000 0.000000 -0.018897 0.000000 -0.048328
#
#
# Mechanical properties :
#
#
# Convention : Reuss Voigt Hill
#
# Bulk Modulus (GPa) = 47.69560 81.42557 64.56059
# Shear Modulus (GPa) = 45.66508 24.26461 34.96485
#
# Velocity S-wave (km/s) = 4.31022 3.14191 3.77158
# Velocity P-wave (km/s) = 6.64641 6.80358 6.72545
#
# Compressibility (1/GPa) = 0.02096630
#
# Stress axis : x y z
#
# Youngs Moduli (GPa) = 54.05966 57.72406 48.10657
#
# Poissons Ratio (x) = -0.42452 0.58243
# Poissons Ratio (y) = -0.39757 0.62868
# Poissons Ratio (z) = 0.65451 0.75437
#
# Static dielectric constant tensor:
#      x y z
#    x 2.040230 0.000000 -0.022660 
#    y 0.000000 1.980410 0.000000 
#    z -0.022660 0.000000 1.925960 
# 
# From -- ./inp_files/8933.got.cif
#   From: 2010.05.17/outbox.cif.g08.bks.cpg/sg15_5_cif.got.tgz:8933.got - 2010.06.03 18:47:42.
