data_PCOD9288902
_publ_section_title
;
Structure prediction by ZEFSAII (Michael W. Deem and Ramdas Pophale) SiO2 
 PCOD9288902
Probable space group: C 2/C
;
_chemical_formula_sum "Si O2"
_cell_formula_units_Z 56
_cell_length_a 10.243978
_cell_length_b 15.636002
_cell_length_c 16.699646
_cell_angle_alpha 90.000000
_cell_angle_beta 93.731743
_cell_angle_gamma 90.000000
_cell_volume 2669.191990
_symmetry_space_group_name_H-M "C 2/C"
_symmetry_group_IT_number 15
_symmetry_cell_setting 'monoclinic'
loop_
_space_group_symop_operation_xyz
x,y,z
-x,y,1/2-z
-x,-y,-z
x,-y,1/2+z
1/2+x,1/2+y,z
1/2-x,1/2+y,1/2-z
1/2-x,1/2-y,-z
1/2+x,1/2-y,1/2+z
loop_
_atom_site_type_symbol
_atom_site_label
_atom_site_fract_x
_atom_site_fract_y
_atom_site_fract_z
Si Si1 0.301277 0.998221 0.411171
Si Si2 0.873330 0.126780 0.187570
Si Si3 0.568827 0.292163 0.984054
Si Si4 0.852627 0.685276 0.208972
Si Si5 0.572056 0.004347 0.336564
Si Si6 0.182138 0.627556 0.945352
Si Si7 0.813927 0.185204 0.564810
O O1 0.451870 0.010855 0.393149
O O2 0.265789 0.900408 0.422758
O O3 0.204131 0.040567 0.341595
O O4 0.286003 0.052658 0.491033
O O5 0.914625 0.170291 0.104908
O O6 0.761718 0.181443 0.229324
O O7 0.000000 0.115749 0.250000
O O8 0.565929 0.189456 0.971653
O O9 0.692468 0.311859 0.045974
O O10 0.449951 0.334230 0.025992
O O11 0.848200 0.592739 0.163919
O O12 0.833523 0.762256 0.147126
O O13 0.000000 0.689441 0.250000
O O14 0.500000 0.992890 0.250000
O O15 0.652642 0.920480 0.362527
O O16 0.750000 0.250000 0.500000
#
# Coordination Sequence:
#
# PCOD9288902 Si02
#       7
#     8   8   8   8   8   8   8
#     4  11  23  42  63 100 131 175 225 272 344 410
#     4  11  24  44  68  98 141 173 221 289 345 402
#     4  10  24  42  65  99 130 184 223 273 357 407
#     4  11  24  44  69  97 138 178 228 283 343 407
#     4  11  21  40  67  95 127 172 229 273 333 402
#     4  10  22  39  67  89 132 168 227 275 330 408
#     4  12  25  42  68  99 137 177 230 281 341 414
#
# _framework density 20.980132000000001
#
# number of rings (size 3 to 8) (size 9 to 14) (size 15 to 20)
#    0.000    1.143    2.857    3.857    4.000    5.714 
#    0.000    0.000    0.000    0.000    0.000    0.000 
#    0.000    0.000    0.000    0.000    0.000    0.000 
#
# Total GULP energy -156412.996320 kJ/mol
# GULP energy per Si atom -5586.178440 kJ/mol
# Density = 2.093238 g / cm^3
# Si number density = 20.980132 Si / 1000 Ang^3
#
#
#
# Elastic Constant Matrix: (Units=GPa)
#
#
# Indices 1 2 3 4 5 6 
#
# 1 60.9485 -4.9323 15.6442 0.0000 -8.4031 0.0000
# 2 -4.9323 106.6249 37.5100 0.0000 4.9399 0.0000
# 3 15.6442 37.5100 71.7629 0.0000 -8.8470 0.0000
# 4 0.0000 0.0000 0.0000 38.5173 0.0000 2.8563
# 5 -8.4031 4.9399 -8.8470 0.0000 37.4339 0.0000
# 6 0.0000 0.0000 0.0000 2.8563 0.0000 23.1204
#
#
#
# Elastic Compliance Matrix: (Units=1/GPa)
#
#
# Indices 1 2 3 4 5 6 
#
# 1 0.018233 0.002461 -0.004941 0.000000 0.002601 0.000000
# 2 0.002461 0.012166 -0.007236 0.000000 -0.002763 0.000000
# 3 -0.004941 -0.007236 0.019339 0.000000 0.004416 0.000000
# 4 0.000000 0.000000 0.000000 0.026202 0.000000 -0.003237
# 5 0.002601 -0.002763 0.004416 0.000000 0.028706 0.000000
# 6 0.000000 0.000000 0.000000 -0.003237 0.000000 0.043652
#
#
# Mechanical properties :
#
#
# Convention : Reuss Voigt Hill
#
# Bulk Modulus (GPa) = 32.99652 37.30889 35.15271
# Shear Modulus (GPa) = 28.11642 32.55529 30.33586
#
# Velocity S-wave (km/s) = 3.66477 3.94346 3.80667
# Velocity P-wave (km/s) = 5.80250 6.20935 6.00937
#
# Compressibility (1/GPa) = 0.03030622
#
# Stress axis : x y z
#
# Youngs Moduli (GPa) = 54.84518 82.19466 51.70992
#
# Poissons Ratio (x) = -0.20228 0.25548
# Poissons Ratio (y) = -0.13498 0.37419
# Poissons Ratio (z) = 0.27097 0.59479
#
# Static dielectric constant tensor:
#      x y z
#    x 1.975800 0.000000 -0.143990 
#    y 0.000000 1.762920 0.000000 
#    z -0.143990 0.000000 1.862470 
# 
# From -- ./inp_files/144244.got.cif
#   From: 2010.05.17/outbox.cif.g08.bks.cpg/sg15_73_cif.got.tgz:144244.got - 2010.06.03 18:47:42.
