data_PCOD9288139
_publ_section_title
;
Structure prediction by ZEFSAII (Michael W. Deem and Ramdas Pophale) SiO2 
 PCOD9288139
Probable space group: C 2/C
;
_chemical_formula_sum "Si O2"
_cell_formula_units_Z 44
_cell_length_a 9.590169
_cell_length_b 22.295872
_cell_length_c 10.374067
_cell_angle_alpha 90.000000
_cell_angle_beta 96.273620
_cell_angle_gamma 90.000000
_cell_volume 2204.911310
_symmetry_space_group_name_H-M "C 2/C"
_symmetry_group_IT_number 15
_symmetry_cell_setting 'monoclinic'
loop_
_space_group_symop_operation_xyz
x,y,z
-x,y,1/2-z
-x,-y,-z
x,-y,1/2+z
1/2+x,1/2+y,z
1/2-x,1/2+y,1/2-z
1/2-x,1/2-y,-z
1/2+x,1/2-y,1/2+z
loop_
_atom_site_type_symbol
_atom_site_label
_atom_site_fract_x
_atom_site_fract_y
_atom_site_fract_z
Si Si1 0.000000 0.917839 0.750000
Si Si2 0.671780 0.882871 0.482915
Si Si3 0.654642 0.493280 0.957506
Si Si4 0.168213 0.295770 0.253676
Si Si5 0.254396 0.659756 0.277787
Si Si6 0.846155 0.611096 0.971049
O O1 0.093887 0.871647 0.676369
O O2 0.116640 0.962321 0.818185
O O3 0.710328 0.829161 0.389924
O O4 0.703634 0.862856 0.632635
O O5 0.508742 0.900557 0.454341
O O6 0.761402 0.941667 0.459125
O O7 0.747879 0.552497 0.957486
O O8 0.500000 0.500000 0.000000
O O9 0.231862 0.230958 0.233125
O O10 0.201917 0.340130 0.138925
O O11 0.000000 0.288140 0.250000
O O12 0.159325 0.639258 0.386708
#
# Coordination Sequence:
#
# PCOD9288139 Si02
#       6
#     4   8   8   8   8   8
#     4  10  22  38  64  92 122 170 204 270 304 372
#     4  10  24  40  63  93 125 168 204 262 318 370
#     4  11  23  41  63  91 128 165 218 254 320 372
#     4  10  22  40  63  93 129 162 209 258 318 371
#     4  11  20  41  64  89 126 165 213 252 315 377
#     4  11  23  40  64  94 126 164 210 263 313 373
#
# _framework density 19.955449999999999
#
# number of rings (size 3 to 8) (size 9 to 14) (size 15 to 20)
#    0.000    1.455    2.727    2.182    2.545    0.000 
#    0.000    5.455    0.000    0.000    0.000    0.000 
#    0.000    0.000    0.000    0.000    0.000    0.000 
#
# Total GULP energy -122693.887533 kJ/mol
# GULP energy per Si atom -5576.994888 kJ/mol
# Density = 1.991003 g / cm^3
# Si number density = 19.955450 Si / 1000 Ang^3
#
#
#
# Elastic Constant Matrix: (Units=GPa)
#
#
# Indices 1 2 3 4 5 6 
#
# 1 80.6944 72.4569 9.6556 0.0000 2.2225 0.0000
# 2 72.4569 181.6466 48.3864 0.0000 7.6401 0.0000
# 3 9.6556 48.3864 91.4314 0.0000 0.7092 0.0000
# 4 0.0000 0.0000 0.0000 23.2695 0.0000 -0.9286
# 5 2.2225 7.6401 0.7092 0.0000 22.6215 0.0000
# 6 0.0000 0.0000 0.0000 -0.9286 0.0000 24.8165
#
#
#
# Elastic Compliance Matrix: (Units=1/GPa)
#
#
# Indices 1 2 3 4 5 6 
#
# 1 0.019777 -0.008577 0.002443 0.000000 0.000877 0.000000
# 2 -0.008577 0.010225 -0.004486 0.000000 -0.002470 0.000000
# 3 0.002443 -0.004486 0.013047 0.000000 0.000866 0.000000
# 4 0.000000 0.000000 0.000000 0.043039 0.000000 0.001610
# 5 0.000877 -0.002470 0.000866 0.000000 0.044927 0.000000
# 6 0.000000 0.000000 0.000000 0.001610 0.000000 0.040356
#
#
# Mechanical properties :
#
#
# Convention : Reuss Voigt Hill
#
# Bulk Modulus (GPa) = 45.85089 68.30780 57.07934
# Shear Modulus (GPa) = 25.01504 29.02640 27.02072
#
# Velocity S-wave (km/s) = 3.54438 3.81801 3.68374
# Velocity P-wave (km/s) = 6.30688 7.33080 6.83803
#
# Compressibility (1/GPa) = 0.02180983
#
# Stress axis : x y z
#
# Youngs Moduli (GPa) = 50.56378 97.79673 76.64798
#
# Poissons Ratio (x) = 0.83876 -0.18729
# Poissons Ratio (y) = 0.43367 0.34388
# Poissons Ratio (z) = -0.12355 0.43876
#
# Static dielectric constant tensor:
#      x y z
#    x 1.710680 0.000000 -0.005250 
#    y 0.000000 1.697460 0.000000 
#    z -0.005250 0.000000 1.874610 
# 
# From -- ./inp_files/78199.got.cif
#   From: 2010.05.17/outbox.cif.g08.bks.cpg/sg15_40_cif.got.tgz:78199.got - 2010.06.03 18:47:42.
