data_PCOD9288672
_publ_section_title
;
Structure prediction by ZEFSAII (Michael W. Deem and Ramdas Pophale) SiO2 
 PCOD9288672
Probable space group: C 2/C
;
_chemical_formula_sum "Si O2"
_cell_formula_units_Z 64
_cell_length_a 22.211070
_cell_length_b 8.043761
_cell_length_c 15.050402
_cell_angle_alpha 90.000000
_cell_angle_beta 88.405113
_cell_angle_gamma 90.000000
_cell_volume 2687.871251
_symmetry_space_group_name_H-M "C 2/C"
_symmetry_group_IT_number 15
_symmetry_cell_setting 'monoclinic'
loop_
_space_group_symop_operation_xyz
x,y,z
-x,y,1/2-z
-x,-y,-z
x,-y,1/2+z
1/2+x,1/2+y,z
1/2-x,1/2+y,1/2-z
1/2-x,1/2-y,-z
1/2+x,1/2-y,1/2+z
loop_
_atom_site_type_symbol
_atom_site_label
_atom_site_fract_x
_atom_site_fract_y
_atom_site_fract_z
Si Si1 0.062837 0.314591 0.283518
Si Si2 0.916725 0.352520 0.499584
Si Si3 0.232777 0.260456 0.606683
Si Si4 0.770447 0.569413 0.216249
Si Si5 0.398923 0.365813 0.368686
Si Si6 0.158683 0.771726 0.640002
Si Si7 0.409006 0.819311 0.693611
Si Si8 0.546683 0.231978 0.966391
O O1 0.118593 0.317751 0.215325
O O2 0.053480 0.509592 0.304925
O O3 0.079250 0.220834 0.373829
O O4 0.000000 0.245722 0.250000
O O5 0.855106 0.319681 0.450956
O O6 0.917376 0.258844 0.593333
O O7 0.928185 0.548904 0.509402
O O8 0.976193 0.288318 0.446957
O O9 0.250000 0.250000 0.500000
O O10 0.245459 0.412912 0.676598
O O11 0.160499 0.243468 0.608806
O O12 0.259191 0.102383 0.662288
O O13 0.725750 0.696359 0.167718
O O14 0.838634 0.630591 0.203176
O O15 0.373475 0.549533 0.363642
O O16 0.424206 0.300440 0.274240
O O17 0.442844 0.345476 0.449587
#
# Coordination Sequence:
#
# PCOD9288672 Si02
#       8
#     8   8   8   8   8   8   8   8
#     4  11  22  41  68  94 123 171 220 271 320 385
#     4  10  22  39  63  92 122 167 214 268 321 387
#     4  10  23  44  66  98 130 181 226 272 338 395
#     4  10  23  45  65  98 134 174 225 277 326 411
#     4  10  24  40  60  94 130 164 210 264 332 401
#     4  11  23  42  62  93 133 167 209 266 336 397
#     4  10  23  41  65  94 125 169 221 269 327 376
#     4  10  22  40  63  92 123 163 222 261 318 393
#
# _framework density 23.810663999999999
#
# number of rings (size 3 to 8) (size 9 to 14) (size 15 to 20)
#    0.000    1.750    1.250    1.500    8.750    3.000 
#   13.500    0.000    0.000    0.000    0.000    0.000 
#    0.000    0.000    0.000    0.000    0.000    0.000 
#
# Total GULP energy -178701.618364 kJ/mol
# GULP energy per Si atom -5584.425574 kJ/mol
# Density = 2.375647 g / cm^3
# Si number density = 23.810664 Si / 1000 Ang^3
#
#
#
# Elastic Constant Matrix: (Units=GPa)
#
#
# Indices 1 2 3 4 5 6 
#
# 1 58.6808 3.8408 20.4224 0.0000 19.8242 0.0000
# 2 3.8408 53.7099 24.8179 0.0000 11.6407 0.0000
# 3 20.4224 24.8179 159.3010 0.0000 0.4397 0.0000
# 4 0.0000 0.0000 0.0000 23.6160 0.0000 11.8643
# 5 19.8242 11.6407 0.4397 0.0000 38.7403 0.0000
# 6 0.0000 0.0000 0.0000 11.8643 0.0000 21.7134
#
#
#
# Elastic Compliance Matrix: (Units=1/GPa)
#
#
# Indices 1 2 3 4 5 6 
#
# 1 0.022035 0.002492 -0.003180 0.000000 -0.011988 0.000000
# 2 0.002492 0.021840 -0.003700 0.000000 -0.007796 0.000000
# 3 -0.003180 -0.003700 0.007254 0.000000 0.002657 0.000000
# 4 0.000000 0.000000 0.000000 0.058366 0.000000 -0.031891
# 5 -0.011988 -0.007796 0.002657 0.000000 0.034260 0.000000
# 6 0.000000 0.000000 0.000000 -0.031891 0.000000 0.063480
#
#
# Mechanical properties :
#
#
# Convention : Reuss Voigt Hill
#
# Bulk Modulus (GPa) = 23.61155 41.09487 32.35321
# Shear Modulus (GPa) = 21.72691 31.65466 26.69078
#
# Velocity S-wave (km/s) = 3.02402 3.65009 3.35171
# Velocity P-wave (km/s) = 4.70434 5.92121 5.34750
#
# Compressibility (1/GPa) = 0.04235215
#
# Stress axis : x y z
#
# Youngs Moduli (GPa) = 45.38227 45.78805 137.84992
#
# Poissons Ratio (x) = -0.11410 0.43837
# Poissons Ratio (y) = -0.11309 0.51010
# Poissons Ratio (z) = 0.14432 0.16944
#
# Static dielectric constant tensor:
#      x y z
#    x 1.867620 0.000000 -0.001280 
#    y 0.000000 1.964970 0.000000 
#    z -0.001280 0.000000 1.989440 
# 
# From -- ./inp_files/172386.got.cif
#   From: 2010.05.17/outbox.cif.g08.bks.cpg/sg15_87_cif.got.tgz:172386.got - 2010.06.03 18:47:42.
