data_PCOD9288823
_publ_section_title
;
Structure prediction by ZEFSAII (Michael W. Deem and Ramdas Pophale) SiO2 
 PCOD9288823
Probable space group: C 2/C
;
_chemical_formula_sum "Si O2"
_cell_formula_units_Z 64
_cell_length_a 12.594683
_cell_length_b 11.506004
_cell_length_c 20.475036
_cell_angle_alpha 90.000000
_cell_angle_beta 101.683310
_cell_angle_gamma 90.000000
_cell_volume 2905.655597
_symmetry_space_group_name_H-M "C 2/C"
_symmetry_group_IT_number 15
_symmetry_cell_setting 'monoclinic'
loop_
_space_group_symop_operation_xyz
x,y,z
-x,y,1/2-z
-x,-y,-z
x,-y,1/2+z
1/2+x,1/2+y,z
1/2-x,1/2+y,1/2-z
1/2-x,1/2-y,-z
1/2+x,1/2-y,1/2+z
loop_
_atom_site_type_symbol
_atom_site_label
_atom_site_fract_x
_atom_site_fract_y
_atom_site_fract_z
Si Si1 0.351523 0.807837 0.313630
Si Si2 0.914553 0.431981 0.797704
Si Si3 0.945761 0.706982 0.086631
Si Si4 0.606311 0.623119 0.806386
Si Si5 0.498779 0.742828 0.443826
Si Si6 0.791474 0.152921 0.056083
Si Si7 0.818367 0.865710 0.704491
Si Si8 0.891379 0.477265 0.028588
O O1 0.408254 0.932976 0.315690
O O2 0.222533 0.831107 0.295586
O O3 0.394105 0.748147 0.385268
O O4 0.379907 0.725354 0.256801
O O5 0.790045 0.399838 0.768870
O O6 0.000000 0.416490 0.750000
O O7 0.954248 0.351877 0.862346
O O8 0.906832 0.813369 0.125757
O O9 0.870500 0.591662 0.068914
O O10 0.972836 0.747439 0.016956
O O11 0.500000 0.652238 0.750000
O O12 0.619173 0.483850 0.806238
O O13 0.750000 0.750000 0.500000
O O14 0.581168 0.637210 0.442106
O O15 0.571817 0.856942 0.433038
O O16 0.783042 0.186475 0.130531
O O17 0.711214 0.046512 0.030535
O O18 0.000000 0.500000 0.000000
#
# Coordination Sequence:
#
# PCOD9288823 Si02
#       8
#     8   8   8   8   8   8   8   8
#     4  11  25  43  69 104 134 180 240 285 344 425
#     4  11  23  40  72 100 130 182 241 288 337 412
#     4  11  21  42  70  94 139 176 234 292 334 421
#     4  11  27  46  68  97 136 190 227 281 365 418
#     4  10  22  39  67 105 135 177 227 283 354 411
#     4  10  22  39  65  98 136 178 223 281 357 410
#     4  11  25  44  67  96 140 181 224 291 357 417
#     4   9  18  35  65  98 125 171 225 282 328 401
#
# _framework density 22.026009999999999
#
# number of rings (size 3 to 8) (size 9 to 14) (size 15 to 20)
#    0.000    1.500    1.250    4.125    8.750    0.500 
#    0.000    3.125    0.000    0.000    0.000    0.000 
#    0.000    0.000    0.000    0.000    0.000    0.000 
#
# Total GULP energy -178527.265897 kJ/mol
# GULP energy per Si atom -5578.977059 kJ/mol
# Density = 2.197588 g / cm^3
# Si number density = 22.026010 Si / 1000 Ang^3
#
#
#
# Elastic Constant Matrix: (Units=GPa)
#
#
# Indices 1 2 3 4 5 6 
#
# 1 96.8508 35.9156 51.1821 0.0000 5.5176 0.0000
# 2 35.9156 89.6390 41.5274 0.0000 -6.3152 0.0000
# 3 51.1821 41.5274 132.4456 0.0000 -0.5261 0.0000
# 4 0.0000 0.0000 0.0000 34.9142 0.0000 -8.5818
# 5 5.5176 -6.3152 -0.5261 0.0000 32.0619 0.0000
# 6 0.0000 0.0000 0.0000 -8.5818 0.0000 7.4910
#
#
#
# Elastic Compliance Matrix: (Units=1/GPa)
#
#
# Indices 1 2 3 4 5 6 
#
# 1 0.014240 -0.003957 -0.004275 0.000000 -0.003300 0.000000
# 2 -0.003957 0.014356 -0.002958 0.000000 0.003460 0.000000
# 3 -0.004275 -0.002958 0.010131 0.000000 0.000319 0.000000
# 4 0.000000 0.000000 0.000000 0.039868 0.000000 0.045673
# 5 -0.003300 0.003460 0.000319 0.000000 0.032444 0.000000
# 6 0.000000 0.000000 0.000000 0.045673 0.000000 0.185816
#
#
# Mechanical properties :
#
#
# Convention : Reuss Voigt Hill
#
# Bulk Modulus (GPa) = 61.17931 64.02062 62.59997
# Shear Modulus (GPa) = 15.39954 27.58079 21.49017
#
# Velocity S-wave (km/s) = 2.64702 3.54247 3.12696
# Velocity P-wave (km/s) = 6.09742 6.77209 6.44359
#
# Compressibility (1/GPa) = 0.01634539
#
# Stress axis : x y z
#
# Youngs Moduli (GPa) = 70.22471 69.65898 98.70600
#
# Poissons Ratio (x) = 0.27567 0.42198
# Poissons Ratio (y) = 0.27791 0.29198
# Poissons Ratio (z) = 0.30022 0.20605
#
# Static dielectric constant tensor:
#      x y z
#    x 1.862250 0.000000 0.015100 
#    y 0.000000 1.936480 0.000000 
#    z 0.015100 0.000000 1.833780 
# 
# From -- ./inp_files/269278.got.cif
#   From: 2010.05.17/outbox.cif.g08.bks.cpg/sg15_135_cif.got.tgz:269278.got - 2010.06.03 18:47:42.
