data_PCOD9288192
_publ_section_title
;
Structure prediction by ZEFSAII (Michael W. Deem and Ramdas Pophale) SiO2 
 PCOD9288192
Probable space group: C 2/C
;
_chemical_formula_sum "Si O2"
_cell_formula_units_Z 52
_cell_length_a 15.409459
_cell_length_b 15.469918
_cell_length_c 14.867509
_cell_angle_alpha 90.000000
_cell_angle_beta 136.686867
_cell_angle_gamma 90.000000
_cell_volume 2431.242776
_symmetry_space_group_name_H-M "C 2/C"
_symmetry_group_IT_number 15
_symmetry_cell_setting 'monoclinic'
loop_
_space_group_symop_operation_xyz
x,y,z
-x,y,1/2-z
-x,-y,-z
x,-y,1/2+z
1/2+x,1/2+y,z
1/2-x,1/2+y,1/2-z
1/2-x,1/2-y,-z
1/2+x,1/2-y,1/2+z
loop_
_atom_site_type_symbol
_atom_site_label
_atom_site_fract_x
_atom_site_fract_y
_atom_site_fract_z
Si Si1 0.720761 0.718633 0.323323
Si Si2 0.934426 0.931115 0.385196
Si Si3 0.431830 0.065956 0.017518
Si Si4 0.000000 0.511321 0.250000
Si Si5 0.751417 0.403135 0.098714
Si Si6 0.980999 0.250284 0.488237
Si Si7 0.829061 0.028257 0.139979
O O1 0.720216 0.801349 0.389098
O O2 0.870743 0.721059 0.410021
O O3 0.690434 0.623714 0.335279
O O4 0.607287 0.732210 0.165306
O O5 0.801478 0.915577 0.339691
O O6 0.008135 0.839424 0.447509
O O7 0.916230 0.970801 0.272242
O O8 0.000000 0.000000 0.500000
O O9 0.416257 0.163667 0.976201
O O10 0.506900 0.068936 0.167074
O O11 0.500000 0.000000 0.000000
O O12 0.300916 0.023030 0.946498
O O13 0.118875 0.449609 0.325239
O O14 0.655743 0.446098 0.954026
#
# Coordination Sequence:
#
# PCOD9288192 Si02
#       7
#     8   8   8   4   8   8   8
#     4  11  22  40  65 101 137 179 225 283 351 423
#     4  11  23  44  64  92 135 185 227 282 351 420
#     4  11  20  38  65  92 128 175 222 285 333 406
#     4  10  22  38  64  98 132 168 230 284 342 398
#     4  10  24  39  62 102 132 177 230 285 348 419
#     4  11  23  40  69  96 134 181 233 279 347 416
#     4  11  22  41  65  94 137 181 224 286 352 408
#
# _framework density 21.388238000000001
#
# number of rings (size 3 to 8) (size 9 to 14) (size 15 to 20)
#    0.000    1.231    3.077    4.154    2.154    0.615 
#    0.000    1.538    0.000    4.615    0.000    0.000 
#    0.000    0.000    0.000    0.000    0.000    0.000 
#
# Total GULP energy -144787.370553 kJ/mol
# GULP energy per Si atom -5568.745021 kJ/mol
# Density = 2.133956 g / cm^3
# Si number density = 21.388238 Si / 1000 Ang^3
#
#
#
# Elastic Constant Matrix: (Units=GPa)
#
#
# Indices 1 2 3 4 5 6 
#
# 1 39.4210 25.4580 38.0796 0.0000 -4.9432 0.0000
# 2 25.4580 124.5186 44.8198 0.0000 -7.5863 0.0000
# 3 38.0796 44.8198 110.4433 0.0000 -14.5309 0.0000
# 4 0.0000 0.0000 0.0000 42.9845 0.0000 -1.0973
# 5 -4.9432 -7.5863 -14.5309 0.0000 36.4571 0.0000
# 6 0.0000 0.0000 0.0000 -1.0973 0.0000 21.9081
#
#
#
# Elastic Compliance Matrix: (Units=1/GPa)
#
#
# Indices 1 2 3 4 5 6 
#
# 1 0.039450 -0.003716 -0.012128 0.000000 -0.000258 0.000000
# 2 -0.003716 0.009762 -0.002617 0.000000 0.000485 0.000000
# 3 -0.012128 -0.002617 0.014785 0.000000 0.003704 0.000000
# 4 0.000000 0.000000 0.000000 0.023294 0.000000 0.001167
# 5 -0.000258 0.000485 0.003704 0.000000 0.028972 0.000000
# 6 0.000000 0.000000 0.000000 0.001167 0.000000 0.045704
#
#
# Mechanical properties :
#
#
# Convention : Reuss Voigt Hill
#
# Bulk Modulus (GPa) = 36.93281 54.56642 45.74961
# Shear Modulus (GPa) = 24.04859 31.33831 27.69345
#
# Velocity S-wave (km/s) = 3.35682 3.83196 3.60223
# Velocity P-wave (km/s) = 5.68592 6.71910 6.22398
#
# Compressibility (1/GPa) = 0.02707620
#
# Stress axis : x y z
#
# Youngs Moduli (GPa) = 25.34869 102.43776 67.63528
#
# Poissons Ratio (x) = 0.38065 0.82027
# Poissons Ratio (y) = 0.09419 0.17698
# Poissons Ratio (z) = 0.30742 0.26804
#
# Static dielectric constant tensor:
#      x y z
#    x 1.787800 0.000000 -0.015690 
#    y 0.000000 1.698390 0.000000 
#    z -0.015690 0.000000 1.734830 
# 
# From -- ./inp_files/162616.got.cif
#   From: 2010.05.17/outbox.cif.g08.bks.cpg/sg15_82_cif.got.tgz:162616.got - 2010.06.03 18:47:42.
