data_PCOD9288430
_publ_section_title
;
Structure prediction by ZEFSAII (Michael W. Deem and Ramdas Pophale) SiO2 
 PCOD9288430
Probable space group: C 2/C
;
_chemical_formula_sum "Si O2"
_cell_formula_units_Z 32
_cell_length_a 25.788905
_cell_length_b 8.808992
_cell_length_c 13.799913
_cell_angle_alpha 90.000000
_cell_angle_beta 149.160854
_cell_angle_gamma 90.000000
_cell_volume 1607.086133
_symmetry_space_group_name_H-M "C 2/C"
_symmetry_group_IT_number 15
_symmetry_cell_setting 'monoclinic'
loop_
_space_group_symop_operation_xyz
x,y,z
-x,y,1/2-z
-x,-y,-z
x,-y,1/2+z
1/2+x,1/2+y,z
1/2-x,1/2+y,1/2-z
1/2-x,1/2-y,-z
1/2+x,1/2-y,1/2+z
loop_
_atom_site_type_symbol
_atom_site_label
_atom_site_fract_x
_atom_site_fract_y
_atom_site_fract_z
Si Si1 0.087984 0.879924 0.649602
Si Si2 0.025091 0.402598 0.177646
Si Si3 0.905178 0.674432 0.021080
Si Si4 0.225937 0.595697 0.519046
O O1 0.046512 0.746789 0.651897
O O2 0.106980 0.806865 0.574993
O O3 0.184935 0.972938 0.841907
O O4 0.000000 0.000000 0.500000
O O5 0.124864 0.506473 0.325915
O O6 0.000000 0.362983 0.250000
O O7 0.934569 0.520315 0.010199
O O8 0.000000 0.700948 0.250000
O O9 0.804486 0.647193 0.921160
O O10 0.250000 0.750000 0.500000
#
# Coordination Sequence:
#
# PCOD9288430 Si02
#       4
#     8   8   8   8
#     4  12  23  35  61  90 113 154 195 232 289 345
#     4   9  21  41  60  82 116 152 190 241 290 339
#     4   9  21  41  58  81 118 153 190 241 286 336
#     4  10  22  39  59  85 118 153 191 238 287 342
#
# _framework density 19.911815000000001
#
# number of rings (size 3 to 8) (size 9 to 14) (size 15 to 20)
#    0.000    2.500    0.000    4.500    0.000    9.000 
#    0.000    0.000    0.000    0.000    0.000    0.000 
#    0.000    0.000    0.000    0.000    0.000    0.000 
#
# Total GULP energy -89212.116116 kJ/mol
# GULP energy per Si atom -5575.757257 kJ/mol
# Density = 1.986649 g / cm^3
# Si number density = 19.911815 Si / 1000 Ang^3
#
#
#
# Elastic Constant Matrix: (Units=GPa)
#
#
# Indices 1 2 3 4 5 6 
#
# 1 108.4878 93.7622 39.1701 0.0000 18.9635 0.0000
# 2 93.7622 180.0105 40.3021 0.0000 9.3706 0.0000
# 3 39.1701 40.3021 33.1599 0.0000 16.3069 0.0000
# 4 0.0000 0.0000 0.0000 28.6552 0.0000 -7.8946
# 5 18.9635 9.3706 16.3069 0.0000 29.5916 0.0000
# 6 0.0000 0.0000 0.0000 -7.8946 0.0000 34.9353
#
#
#
# Elastic Compliance Matrix: (Units=1/GPa)
#
#
# Indices 1 2 3 4 5 6 
#
# 1 0.022022 -0.008044 -0.014472 0.000000 -0.003591 0.000000
# 2 -0.008044 0.010877 -0.006253 0.000000 0.005157 0.000000
# 3 -0.014472 -0.006253 0.067650 0.000000 -0.026025 0.000000
# 4 0.000000 0.000000 0.000000 0.037215 0.000000 0.008410
# 5 -0.003591 0.005157 -0.026025 0.000000 0.048803 0.000000
# 6 0.000000 0.000000 0.000000 0.008410 0.000000 0.030525
#
#
# Mechanical properties :
#
#
# Convention : Reuss Voigt Hill
#
# Bulk Modulus (GPa) = 23.24966 74.23634 48.74300
# Shear Modulus (GPa) = 17.30300 28.53132 22.91716
#
# Velocity S-wave (km/s) = 2.95105 3.78945 3.39622
# Velocity P-wave (km/s) = 4.82838 7.51732 6.31757
#
# Compressibility (1/GPa) = 0.04301139
#
# Stress axis : x y z
#
# Youngs Moduli (GPa) = 45.40816 91.93992 14.78191
#
# Poissons Ratio (x) = 0.73955 0.21392
# Poissons Ratio (y) = 0.36526 0.09244
# Poissons Ratio (z) = 0.65714 0.57493
#
# Static dielectric constant tensor:
#      x y z
#    x 1.792220 0.000000 0.058140 
#    y 0.000000 1.727590 0.000000 
#    z 0.058140 0.000000 1.868240 
# 
# From -- ./inp_files/150076.got.cif
#   From: 2010.05.17/outbox.cif.g08.bks.cpg/sg15_76_cif.got.tgz:150076.got - 2010.06.03 18:47:42.
