data_PCOD9288676
_publ_section_title
;
Structure prediction by ZEFSAII (Michael W. Deem and Ramdas Pophale) SiO2 
 PCOD9288676
Probable space group: C 2/C
;
_chemical_formula_sum "Si O2"
_cell_formula_units_Z 48
_cell_length_a 11.301538
_cell_length_b 10.218314
_cell_length_c 19.837928
_cell_angle_alpha 90.000000
_cell_angle_beta 122.179999
_cell_angle_gamma 90.000000
_cell_volume 1939.001079
_symmetry_space_group_name_H-M "C 2/C"
_symmetry_group_IT_number 15
_symmetry_cell_setting 'monoclinic'
loop_
_space_group_symop_operation_xyz
x,y,z
-x,y,1/2-z
-x,-y,-z
x,-y,1/2+z
1/2+x,1/2+y,z
1/2-x,1/2+y,1/2-z
1/2-x,1/2-y,-z
1/2+x,1/2-y,1/2+z
loop_
_atom_site_type_symbol
_atom_site_label
_atom_site_fract_x
_atom_site_fract_y
_atom_site_fract_z
Si Si1 0.372106 0.737691 0.660831
Si Si2 0.557786 0.364341 0.106386
Si Si3 0.337714 0.014195 0.715564
Si Si4 0.571269 0.389165 0.957578
Si Si5 0.337733 0.999933 0.872884
Si Si6 0.859361 0.605163 0.518264
O O1 0.500000 0.703406 0.750000
O O2 0.455491 0.730466 0.615603
O O3 0.319071 0.880736 0.666527
O O4 0.252532 0.627730 0.632429
O O5 0.724532 0.371060 0.167164
O O6 0.516760 0.514130 0.114178
O O7 0.515493 0.362270 0.015249
O O8 0.500000 0.053272 0.750000
O O9 0.314873 0.974796 0.787195
O O10 0.604386 0.246294 0.940362
O O11 0.724099 0.453001 0.012466
O O12 0.501919 0.026216 0.928882
O O13 0.317672 0.893471 0.926071
#
# Coordination Sequence:
#
# PCOD9288676 Si02
#       6
#     8   8   8   8   8   8
#     4  11  23  42  66  94 130 176 217 271 337 386
#     4  11  22  43  65  95 133 168 217 277 321 400
#     4  11  25  40  66  96 128 176 220 269 334 390
#     4  10  22  40  63  94 126 171 218 265 332 391
#     4  11  22  41  62  92 132 170 217 276 324 393
#     4  10  22  39  63  92 127 172 214 270 329 388
#
# _framework density 24.755015
#
# number of rings (size 3 to 8) (size 9 to 14) (size 15 to 20)
#    0.000    1.333    3.333    2.000    4.667    0.000 
#    0.000    2.500    0.000    0.000    0.000    0.000 
#    0.000    0.000    0.000    0.000    0.000    0.000 
#
# Total GULP energy -134038.394069 kJ/mol
# GULP energy per Si atom -5584.933086 kJ/mol
# Density = 2.469867 g / cm^3
# Si number density = 24.755015 Si / 1000 Ang^3
#
#
#
# Elastic Constant Matrix: (Units=GPa)
#
#
# Indices 1 2 3 4 5 6 
#
# 1 152.8176 43.9201 27.9915 0.0000 -7.4834 0.0000
# 2 43.9201 78.4123 24.4111 0.0000 1.6716 0.0000
# 3 27.9915 24.4111 74.7589 0.0000 -16.2398 0.0000
# 4 0.0000 0.0000 0.0000 27.0008 0.0000 -4.5366
# 5 -7.4834 1.6716 -16.2398 0.0000 27.7992 0.0000
# 6 0.0000 0.0000 0.0000 -4.5366 0.0000 7.1540
#
#
#
# Elastic Compliance Matrix: (Units=1/GPa)
#
#
# Indices 1 2 3 4 5 6 
#
# 1 0.008054 -0.004140 -0.001304 0.000000 0.001655 0.000000
# 2 -0.004140 0.016740 -0.005013 0.000000 -0.005050 0.000000
# 3 -0.001304 -0.005013 0.017742 0.000000 0.010315 0.000000
# 4 0.000000 0.000000 0.000000 0.041453 0.000000 0.026286
# 5 0.001655 -0.005050 0.010315 0.000000 0.042747 0.000000
# 6 0.000000 0.000000 0.000000 0.026286 0.000000 0.156451
#
#
# Mechanical properties :
#
#
# Convention : Reuss Voigt Hill
#
# Bulk Modulus (GPa) = 46.24974 55.40379 50.82677
# Shear Modulus (GPa) = 16.06125 26.36855 21.21490
#
# Velocity S-wave (km/s) = 2.54993 3.26725 2.93062
# Velocity P-wave (km/s) = 5.23384 6.05497 5.65932
#
# Compressibility (1/GPa) = 0.02162174
#
# Stress axis : x y z
#
# Youngs Moduli (GPa) = 124.16840 59.73568 56.36285
#
# Poissons Ratio (x) = 0.24732 0.07350
# Poissons Ratio (y) = 0.51409 0.28254
# Poissons Ratio (z) = 0.16191 0.29945
#
# Static dielectric constant tensor:
#      x y z
#    x 2.111620 0.000000 -0.043570 
#    y 0.000000 2.049900 0.000000 
#    z -0.043570 0.000000 2.035240 
# 
# From -- ./inp_files/237246.got.cif
#   From: 2010.05.17/outbox.cif.g08.bks.cpg/sg15_119_cif.got.tgz:237246.got - 2010.06.03 18:47:42.
