data_PCOD9288853
_publ_section_title
;
Structure prediction by ZEFSAII (Michael W. Deem and Ramdas Pophale) SiO2 
 PCOD9288853
Probable space group: C 2/C
;
_chemical_formula_sum "Si O2"
_cell_formula_units_Z 48
_cell_length_a 22.103691
_cell_length_b 21.897862
_cell_length_c 5.399699
_cell_angle_alpha 90.000000
_cell_angle_beta 127.707165
_cell_angle_gamma 90.000000
_cell_volume 2067.727394
_symmetry_space_group_name_H-M "C 2/C"
_symmetry_group_IT_number 15
_symmetry_cell_setting 'monoclinic'
loop_
_space_group_symop_operation_xyz
x,y,z
-x,y,1/2-z
-x,-y,-z
x,-y,1/2+z
1/2+x,1/2+y,z
1/2-x,1/2+y,1/2-z
1/2-x,1/2-y,-z
1/2+x,1/2-y,1/2+z
loop_
_atom_site_type_symbol
_atom_site_label
_atom_site_fract_x
_atom_site_fract_y
_atom_site_fract_z
Si Si1 0.000000 0.539925 0.250000
Si Si2 0.869840 0.149315 0.753431
Si Si3 0.830297 0.540316 0.851227
Si Si4 0.000000 0.808608 0.250000
Si Si5 0.253733 0.151322 0.434873
Si Si6 0.635129 0.745657 0.389599
Si Si7 0.908714 0.030772 0.058805
O O1 0.083772 0.569421 0.450530
O O2 0.000000 0.500000 0.500000
O O3 0.792620 0.131203 0.423641
O O4 0.942153 0.148122 0.753305
O O5 0.866289 0.219073 0.836869
O O6 0.889658 0.102187 0.018655
O O7 0.822606 0.494334 0.594998
O O8 0.773018 0.595626 0.660507
O O9 0.053445 0.767267 0.560137
O O10 0.330408 0.187477 0.550353
O O11 0.196528 0.200260 0.414683
O O12 0.000000 0.023891 0.250000
O O13 0.878423 0.997309 0.225734
#
# Coordination Sequence:
#
# PCOD9288853 Si02
#       7
#     4   8   8   4   8   8   8
#     4   8  16  35  62  90 126 166 207 262 316 374
#     4  11  23  40  65  87 131 166 215 268 329 380
#     4  10  22  41  67  98 132 172 219 265 326 389
#     4  10  22  39  66  94 116 166 217 270 324 382
#     4  10  24  40  64  93 128 169 213 265 325 393
#     4  10  22  43  63  92 125 167 215 266 326 381
#     4  10  23  37  59  91 125 166 214 262 314 373
#
# _framework density 23.213892999999999
#
# number of rings (size 3 to 8) (size 9 to 14) (size 15 to 20)
#    0.000    2.000    0.000    2.000   10.500    2.000 
#    0.000    0.000   11.000    0.000    0.000    0.000 
#    0.000    0.000    0.000    0.000    0.000    0.000 
#
# Total GULP energy -134163.962718 kJ/mol
# GULP energy per Si atom -5590.165113 kJ/mol
# Density = 2.316106 g / cm^3
# Si number density = 23.213893 Si / 1000 Ang^3
#
#
#
# Elastic Constant Matrix: (Units=GPa)
#
#
# Indices 1 2 3 4 5 6 
#
# 1 64.1117 20.2375 34.8616 0.0000 -0.8649 0.0000
# 2 20.2375 62.8639 28.6441 0.0000 7.2545 0.0000
# 3 34.8616 28.6441 126.1787 0.0000 10.5971 0.0000
# 4 0.0000 0.0000 0.0000 15.9355 0.0000 0.2315
# 5 -0.8649 7.2545 10.5971 0.0000 40.3453 0.0000
# 6 0.0000 0.0000 0.0000 0.2315 0.0000 24.1928
#
#
#
# Elastic Compliance Matrix: (Units=1/GPa)
#
#
# Indices 1 2 3 4 5 6 
#
# 1 0.019538 -0.004481 -0.004585 0.000000 0.002429 0.000000
# 2 -0.004481 0.018960 -0.002834 0.000000 -0.002761 0.000000
# 3 -0.004585 -0.002834 0.010022 0.000000 -0.002221 0.000000
# 4 0.000000 0.000000 0.000000 0.062762 0.000000 -0.000601
# 5 0.002429 -0.002761 -0.002221 0.000000 0.025918 0.000000
# 6 0.000000 0.000000 0.000000 -0.000601 0.000000 0.041340
#
#
# Mechanical properties :
#
#
# Convention : Reuss Voigt Hill
#
# Bulk Modulus (GPa) = 40.45340 46.73784 43.59562
# Shear Modulus (GPa) = 23.74394 27.38880 25.56637
#
# Velocity S-wave (km/s) = 3.20165 3.43861 3.32224
# Velocity P-wave (km/s) = 5.57957 5.99522 5.79113
#
# Compressibility (1/GPa) = 0.02471980
#
# Stress axis : x y z
#
# Youngs Moduli (GPa) = 51.18200 52.74274 99.78102
#
# Poissons Ratio (x) = 0.23634 0.45748
# Poissons Ratio (y) = 0.22935 0.28280
# Poissons Ratio (z) = 0.23466 0.14948
#
# Static dielectric constant tensor:
#      x y z
#    x 1.912790 0.000000 -0.025840 
#    y 0.000000 1.835880 0.000000 
#    z -0.025840 0.000000 1.915830 
# 
# From -- ./inp_files/10905.got.cif
#   From: 2010.05.17/outbox.cif.g08.bks.cpg/sg15_6_cif.got.tgz:10905.got - 2010.06.03 18:47:42.
