data_PCOD9288878
_publ_section_title
;
Structure prediction by ZEFSAII (Michael W. Deem and Ramdas Pophale) SiO2 
 PCOD9288878
Probable space group: C 2/C
;
_chemical_formula_sum "Si O2"
_cell_formula_units_Z 44
_cell_length_a 6.664466
_cell_length_b 27.985057
_cell_length_c 11.154290
_cell_angle_alpha 90.000000
_cell_angle_beta 74.653711
_cell_angle_gamma 90.000000
_cell_volume 2006.159374
_symmetry_space_group_name_H-M "C 2/C"
_symmetry_group_IT_number 15
_symmetry_cell_setting 'monoclinic'
loop_
_space_group_symop_operation_xyz
x,y,z
-x,y,1/2-z
-x,-y,-z
x,-y,1/2+z
1/2+x,1/2+y,z
1/2-x,1/2+y,1/2-z
1/2-x,1/2-y,-z
1/2+x,1/2-y,1/2+z
loop_
_atom_site_type_symbol
_atom_site_label
_atom_site_fract_x
_atom_site_fract_y
_atom_site_fract_z
Si Si1 0.929168 0.530280 0.127630
Si Si2 0.620670 0.336151 0.884637
Si Si3 0.719283 0.171234 0.598319
Si Si4 0.137191 0.615280 0.967309
Si Si5 0.500000 0.574215 0.250000
Si Si6 0.000000 0.242594 0.250000
Si Si7 0.500000 0.379152 0.250000
O O1 0.683295 0.541513 0.168553
O O2 0.000000 0.513057 0.250000
O O3 0.000000 0.500000 0.000000
O O4 0.040790 0.580184 0.079842
O O5 0.604707 0.388252 0.825953
O O6 0.662833 0.293075 0.788134
O O7 0.387649 0.326363 0.967342
O O8 0.772369 0.339919 0.973066
O O9 0.544421 0.132617 0.591282
O O10 0.611429 0.221218 0.641953
O O11 0.849818 0.153005 0.691915
O O12 0.336281 0.594209 0.863223
#
# Coordination Sequence:
#
# PCOD9288878 Si02
#       7
#     8   8   8   8   4   4   4
#     4  12  28  49  76 112 144 185 243 302 366 444
#     4  10  23  40  68  94 133 192 233 289 352 438
#     4  11  21  41  61  97 140 183 244 301 349 428
#     4  11  22  44  71  95 138 192 235 290 374 431
#     4  11  22  49  74 100 146 180 240 278 367 439
#     4  11  22  40  58 101 138 182 245 306 352 405
#     4  10  22  39  66  97 138 190 239 292 369 426
#
# _framework density 21.932455999999998
#
# number of rings (size 3 to 8) (size 9 to 14) (size 15 to 20)
#    0.000    1.091    5.455    0.545    0.000    3.636 
#    3.273    0.000    0.000    0.000    0.000    0.000 
#    0.000    0.000    0.000    0.000    0.000    0.000 
#
# Total GULP energy -122800.483670 kJ/mol
# GULP energy per Si atom -5581.840167 kJ/mol
# Density = 2.188254 g / cm^3
# Si number density = 21.932456 Si / 1000 Ang^3
#
#
#
# Elastic Constant Matrix: (Units=GPa)
#
#
# Indices 1 2 3 4 5 6 
#
# 1 111.7789 36.4591 42.6588 0.0000 11.6260 0.0000
# 2 36.4591 53.0311 35.0585 0.0000 -11.4326 0.0000
# 3 42.6588 35.0585 115.7642 0.0000 -0.9739 0.0000
# 4 0.0000 0.0000 0.0000 46.1135 0.0000 -6.3551
# 5 11.6260 -11.4326 -0.9739 0.0000 44.5649 0.0000
# 6 0.0000 0.0000 0.0000 -6.3551 0.0000 1.0977
#
#
#
# Elastic Compliance Matrix: (Units=1/GPa)
#
#
# Indices 1 2 3 4 5 6 
#
# 1 0.013321 -0.008920 -0.002256 0.000000 -0.005813 0.000000
# 2 -0.008920 0.031206 -0.006078 0.000000 0.010200 0.000000
# 3 -0.002256 -0.006078 0.011304 0.000000 -0.000724 0.000000
# 4 0.000000 0.000000 0.000000 0.107275 0.000000 0.621054
# 5 -0.005813 0.010200 -0.000724 0.000000 0.026556 0.000000
# 6 0.000000 0.000000 0.000000 0.621054 0.000000 4.506485
#
#
# Mechanical properties :
#
#
# Convention : Reuss Voigt Hill
#
# Bulk Modulus (GPa) = 46.89664 56.54743 51.72204
# Shear Modulus (GPa) = 1.05535 29.44841 15.25188
#
# Velocity S-wave (km/s) = 0.69443 3.66824 2.63991
# Velocity P-wave (km/s) = 4.69805 6.61663 5.73810
#
# Compressibility (1/GPa) = 0.02132349
#
# Stress axis : x y z
#
# Youngs Moduli (GPa) = 75.06724 32.04485 88.46200
#
# Poissons Ratio (x) = 0.28584 0.19961
# Poissons Ratio (y) = 0.66960 0.53766
# Poissons Ratio (z) = 0.16939 0.19476
#
# Static dielectric constant tensor:
#      x y z
#    x 1.785800 0.000000 -0.002150 
#    y 0.000000 1.809970 0.000000 
#    z -0.002150 0.000000 1.907740 
# 
# From -- ./inp_files/73930.got.cif
#   From: 2010.05.17/outbox.cif.g08.bks.cpg/sg15_37_cif.got.tgz:73930.got - 2010.06.03 18:47:42.
