data_PCOD9288748
_publ_section_title
;
Structure prediction by ZEFSAII (Michael W. Deem and Ramdas Pophale) SiO2 
 PCOD9288748
Probable space group: C 2/C
;
_chemical_formula_sum "Si O2"
_cell_formula_units_Z 52
_cell_length_a 20.955826
_cell_length_b 6.424207
_cell_length_c 19.868657
_cell_angle_alpha 90.000000
_cell_angle_beta 110.586441
_cell_angle_gamma 90.000000
_cell_volume 2504.003382
_symmetry_space_group_name_H-M "C 2/C"
_symmetry_group_IT_number 15
_symmetry_cell_setting 'monoclinic'
loop_
_space_group_symop_operation_xyz
x,y,z
-x,y,1/2-z
-x,-y,-z
x,-y,1/2+z
1/2+x,1/2+y,z
1/2-x,1/2+y,1/2-z
1/2-x,1/2-y,-z
1/2+x,1/2-y,1/2+z
loop_
_atom_site_type_symbol
_atom_site_label
_atom_site_fract_x
_atom_site_fract_y
_atom_site_fract_z
Si Si1 0.388494 0.115354 0.255806
Si Si2 0.462810 0.487424 0.337370
Si Si3 0.059441 0.115770 0.980370
Si Si4 0.268970 0.742659 0.620800
Si Si5 0.121592 0.332453 0.118689
Si Si6 0.702508 0.546099 0.487199
Si Si7 0.000000 0.681772 0.750000
O O1 0.423587 0.339083 0.272389
O O2 0.316997 0.149809 0.193267
O O3 0.389756 0.015511 0.331545
O O4 0.433862 0.959852 0.229312
O O5 0.517825 0.346541 0.396737
O O6 0.405739 0.614573 0.359101
O O7 0.502475 0.670912 0.315301
O O8 0.125265 0.969476 0.988947
O O9 0.084185 0.316999 0.031924
O O10 0.000000 0.000000 0.000000
O O11 0.201132 0.667306 0.632745
O O12 0.301601 0.557855 0.588469
O O13 0.244658 0.903832 0.554964
O O14 0.750000 0.750000 0.500000
#
# Coordination Sequence:
#
# PCOD9288748 Si02
#       7
#     8   8   8   8   8   8   4
#     4  11  24  39  67  92 131 175 211 276 330 391
#     4  10  22  39  64  92 129 172 215 273 330 389
#     4   9  20  41  66  92 130 165 220 269 321 397
#     4  10  24  41  61  97 129 164 225 261 325 404
#     4   9  22  43  59  97 127 168 218 265 326 397
#     4  10  23  42  67  91 128 175 216 274 332 385
#     4  10  24  40  56  98 128 164 228 266 338 390
#
# _framework density 20.766746999999999
#
# number of rings (size 3 to 8) (size 9 to 14) (size 15 to 20)
#    0.000    2.154    0.000    0.462    8.615    5.538 
#    0.000    0.000    0.000    0.000    0.000    0.000 
#    0.000    0.000    0.000    0.000    0.000    0.000 
#
# Total GULP energy -144862.863752 kJ/mol
# GULP energy per Si atom -5571.648606 kJ/mol
# Density = 2.071948 g / cm^3
# Si number density = 20.766747 Si / 1000 Ang^3
#
#
#
# Elastic Constant Matrix: (Units=GPa)
#
#
# Indices 1 2 3 4 5 6 
#
# 1 124.3886 28.3099 18.8014 0.0000 -4.3974 0.0000
# 2 28.3099 49.2818 -1.2968 0.0000 -7.5611 0.0001
# 3 18.8014 -1.2968 57.7992 0.0000 15.4066 0.0000
# 4 0.0000 0.0000 0.0000 47.5448 0.0000 -43.6892
# 5 -4.3974 -7.5611 15.4066 0.0000 33.0674 0.0000
# 6 0.0000 0.0001 0.0000 -43.6892 0.0000 96.3380
#
#
#
# Elastic Compliance Matrix: (Units=1/GPa)
#
#
# Indices 1 2 3 4 5 6 
#
# 1 0.009946 -0.005530 -0.003853 0.000000 0.001853 0.000000
# 2 -0.005530 0.024148 0.001216 0.000000 0.004220 0.000000
# 3 -0.003853 0.001216 0.021288 0.000000 -0.010153 0.000000
# 4 0.000000 0.000000 0.000000 0.036060 0.000000 0.016353
# 5 0.001853 0.004220 -0.010153 0.000000 0.036183 0.000000
# 6 0.000000 0.000000 0.000000 0.016353 0.000000 0.017796
#
#
# Mechanical properties :
#
#
# Convention : Reuss Voigt Hill
#
# Bulk Modulus (GPa) = 25.61055 35.89985 30.75520
# Shear Modulus (GPa) = 28.60864 47.76703 38.18784
#
# Velocity S-wave (km/s) = 3.71565 4.80121 4.29288
# Velocity P-wave (km/s) = 5.54683 6.93255 6.27804
#
# Compressibility (1/GPa) = 0.03904640
#
# Stress axis : x y z
#
# Youngs Moduli (GPa) = 100.54299 41.41162 46.97402
#
# Poissons Ratio (x) = 0.22903 0.18101
# Poissons Ratio (y) = 0.55605 -0.05712
# Poissons Ratio (z) = 0.38744 -0.05036
#
# Static dielectric constant tensor:
#      x y z
#    x 1.766620 0.000000 -0.057980 
#    y 0.000000 1.725350 0.000000 
#    z -0.057980 0.000000 1.793270 
# 
# From -- ./inp_files/254426.got.cif
#   From: 2010.05.17/outbox.cif.g08.bks.cpg/sg15_128_cif.got.tgz:254426.got - 2010.06.03 18:47:42.
