data_PCOD9288212
_publ_section_title
;
Structure prediction by ZEFSAII (Michael W. Deem and Ramdas Pophale) SiO2 
 PCOD9288212
Probable space group: C 2/C
;
_chemical_formula_sum "Si O2"
_cell_formula_units_Z 40
_cell_length_a 27.226858
_cell_length_b 10.671887
_cell_length_c 8.776048
_cell_angle_alpha 90.000000
_cell_angle_beta 131.463175
_cell_angle_gamma 90.000000
_cell_volume 1910.911918
_symmetry_space_group_name_H-M "C 2/C"
_symmetry_group_IT_number 15
_symmetry_cell_setting 'monoclinic'
loop_
_space_group_symop_operation_xyz
x,y,z
-x,y,1/2-z
-x,-y,-z
x,-y,1/2+z
1/2+x,1/2+y,z
1/2-x,1/2+y,1/2-z
1/2-x,1/2-y,-z
1/2+x,1/2-y,1/2+z
loop_
_atom_site_type_symbol
_atom_site_label
_atom_site_fract_x
_atom_site_fract_y
_atom_site_fract_z
Si Si1 0.562763 0.208691 0.456989
Si Si2 0.776501 0.056445 0.656595
Si Si3 0.137306 0.082423 0.935199
Si Si4 0.787979 0.643726 0.676884
Si Si5 0.464610 0.387880 0.836226
O O1 0.500000 0.141982 0.250000
O O2 0.582282 0.324274 0.384046
O O3 0.633887 0.151201 0.638094
O O4 0.539128 0.267587 0.566909
O O5 0.827924 0.123771 0.649175
O O6 0.743356 0.139555 0.718180
O O7 0.727320 0.986038 0.441998
O O8 0.813304 0.945958 0.826114
O O9 0.106865 0.945668 0.840036
O O10 0.750000 0.750000 0.500000
O O11 0.500000 0.366816 0.750000
O O12 0.500000 0.500000 0.000000
#
# Coordination Sequence:
#
# PCOD9288212 Si02
#       5
#     8   8   8   8   8
#     4  12  23  37  58  92 129 164 209 259 313 380
#     4  10  22  38  65  91 124 168 211 258 315 368
#     4  11  17  34  58  91 122 162 197 259 325 371
#     4  11  23  45  64  94 129 165 215 264 311 383
#     4  12  19  31  54  89 133 161 192 256 333 389
#
# _framework density 20.932414000000001
#
# number of rings (size 3 to 8) (size 9 to 14) (size 15 to 20)
#    0.000    0.800    8.000    1.200    0.000    0.800 
#    0.000    1.000    0.000    0.000    0.000    0.000 
#    0.000    0.000    0.000    0.000    0.000    0.000 
#
# Total GULP energy -111618.595086 kJ/mol
# GULP energy per Si atom -5580.929754 kJ/mol
# Density = 2.088477 g / cm^3
# Si number density = 20.932414 Si / 1000 Ang^3
#
#
#
# Elastic Constant Matrix: (Units=GPa)
#
#
# Indices 1 2 3 4 5 6 
#
# 1 173.2306 15.7611 59.8238 0.0000 -34.5912 0.0000
# 2 15.7611 12.6999 11.4498 0.0000 -5.5046 0.0000
# 3 59.8238 11.4498 125.0614 0.0000 6.5665 0.0000
# 4 0.0000 0.0000 0.0000 31.3866 0.0000 4.5248
# 5 -34.5912 -5.5046 6.5665 0.0000 48.5733 0.0000
# 6 0.0000 0.0000 0.0000 4.5248 0.0000 30.1220
#
#
#
# Elastic Compliance Matrix: (Units=1/GPa)
#
#
# Indices 1 2 3 4 5 6 
#
# 1 0.008904 -0.004508 -0.004183 0.000000 0.006396 0.000000
# 2 -0.004508 0.094205 -0.006910 0.000000 0.008400 0.000000
# 3 -0.004183 -0.006910 0.010904 0.000000 -0.005236 0.000000
# 4 0.000000 0.000000 0.000000 0.032566 0.000000 -0.004892
# 5 0.006396 0.008400 -0.005236 0.000000 0.026802 0.000000
# 6 0.000000 0.000000 0.000000 -0.004892 0.000000 0.033933
#
#
# Mechanical properties :
#
#
# Convention : Reuss Voigt Hill
#
# Bulk Modulus (GPa) = 12.07524 53.89570 32.98547
# Shear Modulus (GPa) = 18.78861 36.94688 27.86775
#
# Velocity S-wave (km/s) = 2.99922 4.20581 3.65268
# Velocity P-wave (km/s) = 4.21604 7.02770 5.79498
#
# Compressibility (1/GPa) = 0.08281409
#
# Stress axis : x y z
#
# Youngs Moduli (GPa) = 112.30536 10.61515 91.70690
#
# Poissons Ratio (x) = 0.04785 0.38357
# Poissons Ratio (y) = 0.50623 0.63365
# Poissons Ratio (z) = 0.46972 0.07335
#
# Static dielectric constant tensor:
#      x y z
#    x 1.776370 0.000000 0.027710 
#    y 0.000000 1.782830 0.000000 
#    z 0.027710 0.000000 1.885850 
# 
# From -- ./inp_files/46174.got.cif
#   From: 2010.05.17/outbox.cif.g08.bks.cpg/sg15_24_cif.got.tgz:46174.got - 2010.06.03 18:47:42.
