data_PCOD9288588
_publ_section_title
;
Structure prediction by ZEFSAII (Michael W. Deem and Ramdas Pophale) SiO2 
 PCOD9288588
Probable space group: C 2/C
;
_chemical_formula_sum "Si O2"
_cell_formula_units_Z 48
_cell_length_a 12.762720
_cell_length_b 16.141823
_cell_length_c 11.633223
_cell_angle_alpha 90.000000
_cell_angle_beta 64.875733
_cell_angle_gamma 90.000000
_cell_volume 2169.857005
_symmetry_space_group_name_H-M "C 2/C"
_symmetry_group_IT_number 15
_symmetry_cell_setting 'monoclinic'
loop_
_space_group_symop_operation_xyz
x,y,z
-x,y,1/2-z
-x,-y,-z
x,-y,1/2+z
1/2+x,1/2+y,z
1/2-x,1/2+y,1/2-z
1/2-x,1/2-y,-z
1/2+x,1/2-y,1/2+z
loop_
_atom_site_type_symbol
_atom_site_label
_atom_site_fract_x
_atom_site_fract_y
_atom_site_fract_z
Si Si1 0.526367 0.681343 0.869413
Si Si2 0.374904 0.752378 0.301157
Si Si3 0.363915 0.169040 0.042168
Si Si4 0.271387 0.889347 0.205559
Si Si5 0.770139 0.846509 0.524627
Si Si6 0.115668 0.444776 0.770150
O O1 0.500000 0.708939 0.750000
O O2 0.565654 0.757289 0.929175
O O3 0.638569 0.623282 0.807304
O O4 0.408235 0.643120 0.972460
O O5 0.500000 0.711176 0.250000
O O6 0.381279 0.821539 0.399141
O O7 0.271865 0.689343 0.375806
O O8 0.339357 0.804704 0.206229
O O9 0.402020 0.088227 0.091910
O O10 0.270387 0.897352 0.068705
O O11 0.325632 0.966615 0.244367
O O12 0.750000 0.750000 0.500000
O O13 0.699337 0.878689 0.666491
O O14 0.000000 0.448370 0.750000
#
# Coordination Sequence:
#
# PCOD9288588 Si02
#       6
#     8   8   8   8   8   8
#     4   9  19  41  66  92 120 161 211 267 310 373
#     4  10  22  39  62  88 125 170 201 262 323 367
#     4  10  22  39  63  92 127 157 221 261 305 395
#     4  10  24  42  61  91 132 161 210 260 320 380
#     4  11  23  41  72  94 120 172 218 260 315 378
#     4  12  26  40  63  96 127 168 210 263 323 378
#
# _framework density 22.121272000000001
#
# number of rings (size 3 to 8) (size 9 to 14) (size 15 to 20)
#    0.000    1.667    0.000    5.000    9.333    1.333 
#    0.000    2.500    0.000    0.000    0.000    0.000 
#    0.000    0.000    0.000    0.000    0.000    0.000 
#
# Total GULP energy -134256.017594 kJ/mol
# GULP energy per Si atom -5594.000733 kJ/mol
# Density = 2.207092 g / cm^3
# Si number density = 22.121272 Si / 1000 Ang^3
#
#
#
# Elastic Constant Matrix: (Units=GPa)
#
#
# Indices 1 2 3 4 5 6 
#
# 1 148.9774 10.7666 29.5639 0.0000 -5.2870 0.0000
# 2 10.7666 46.3609 5.7026 0.0000 5.7375 0.0000
# 3 29.5639 5.7026 50.6721 0.0000 4.5044 0.0000
# 4 0.0000 0.0000 0.0000 7.7476 0.0000 8.8768
# 5 -5.2870 5.7375 4.5044 0.0000 29.3401 0.0000
# 6 0.0000 0.0000 0.0000 8.8768 0.0000 25.8526
#
#
#
# Elastic Compliance Matrix: (Units=1/GPa)
#
#
# Indices 1 2 3 4 5 6 
#
# 1 0.007824 -0.001550 -0.004606 0.000000 0.002420 0.000000
# 2 -0.001550 0.022642 -0.001242 0.000000 -0.004516 0.000000
# 3 -0.004606 -0.001242 0.022927 0.000000 -0.004107 0.000000
# 4 0.000000 0.000000 0.000000 0.212780 0.000000 -0.073060
# 5 0.002420 -0.004516 -0.004107 0.000000 0.036033 0.000000
# 6 0.000000 0.000000 0.000000 -0.073060 0.000000 0.063767
#
#
# Mechanical properties :
#
#
# Convention : Reuss Voigt Hill
#
# Bulk Modulus (GPa) = 25.90897 37.56406 31.73652
# Shear Modulus (GPa) = 12.70217 25.91989 19.31103
#
# Velocity S-wave (km/s) = 2.39886 3.42675 2.95780
# Velocity P-wave (km/s) = 4.40572 5.71617 5.10319
#
# Compressibility (1/GPa) = 0.03859667
#
# Stress axis : x y z
#
# Youngs Moduli (GPa) = 127.80673 44.16653 43.61727
#
# Poissons Ratio (x) = 0.06846 0.20089
# Poissons Ratio (y) = 0.19811 0.05418
# Poissons Ratio (z) = 0.58864 0.05486
#
# Static dielectric constant tensor:
#      x y z
#    x 1.816760 0.000000 -0.015890 
#    y 0.000000 1.774610 0.000000 
#    z -0.015890 0.000000 1.851740 
# 
# From -- ./inp_files/87765.got.cif
#   From: 2010.05.17/outbox.cif.g08.bks.cpg/sg15_44_cif.got.tgz:87765.got - 2010.06.03 18:47:42.
