data_PCOD9288074
_publ_section_title
;
Structure prediction by ZEFSAII (Michael W. Deem and Ramdas Pophale) SiO2 
 PCOD9288074
Probable space group: C 2/C
;
_chemical_formula_sum "Si O2"
_cell_formula_units_Z 60
_cell_length_a 21.912713
_cell_length_b 8.837775
_cell_length_c 15.175581
_cell_angle_alpha 90.000000
_cell_angle_beta 108.274601
_cell_angle_gamma 90.000000
_cell_volume 2790.672824
_symmetry_space_group_name_H-M "C 2/C"
_symmetry_group_IT_number 15
_symmetry_cell_setting 'monoclinic'
loop_
_space_group_symop_operation_xyz
x,y,z
-x,y,1/2-z
-x,-y,-z
x,-y,1/2+z
1/2+x,1/2+y,z
1/2-x,1/2+y,1/2-z
1/2-x,1/2-y,-z
1/2+x,1/2-y,1/2+z
loop_
_atom_site_type_symbol
_atom_site_label
_atom_site_fract_x
_atom_site_fract_y
_atom_site_fract_z
Si Si1 0.068101 0.231267 0.327589
Si Si2 0.858924 0.690713 0.894313
Si Si3 0.500000 0.784944 0.750000
Si Si4 0.599643 0.324838 0.427825
Si Si5 0.623981 0.494103 0.711162
Si Si6 0.289443 0.279013 0.158450
Si Si7 0.435530 0.402744 0.485829
Si Si8 0.123006 0.512404 0.258056
O O1 0.057469 0.215471 0.429211
O O2 0.115243 0.369923 0.321982
O O3 0.000000 0.264716 0.250000
O O4 0.091817 0.076850 0.286497
O O5 0.785109 0.698229 0.890649
O O6 0.874868 0.553674 0.838451
O O7 0.867744 0.841185 0.839734
O O8 0.904999 0.697997 0.998933
O O9 0.464010 0.686127 0.659800
O O10 0.440745 0.886669 0.756815
O O11 0.663495 0.296877 0.402533
O O12 0.610277 0.479194 0.484640
O O13 0.686713 0.586287 0.766893
O O14 0.589869 0.610927 0.626061
O O15 0.313284 0.114695 0.202342
O O16 0.500000 0.500000 0.500000
#
# Coordination Sequence:
#
# PCOD9288074 Si02
#       8
#     8   8   4   8   8   8   8   8
#     4  11  20  38  59  86 133 163 199 257 319 375
#     4  10  22  42  63  91 119 166 219 252 308 374
#     4  10  22  40  60  92 136 160 194 256 332 378
#     4  10  23  37  62  91 122 167 203 256 311 380
#     4  10  22  38  63  90 117 163 210 255 308 367
#     4  11  21  42  64  85 126 166 212 260 307 370
#     4  11  22  34  61  96 121 159 209 256 311 382
#     4  10  23  38  62  93 126 168 197 260 324 368
#
# _framework density 21.500191000000001
#
# number of rings (size 3 to 8) (size 9 to 14) (size 15 to 20)
#    0.000    1.600    3.333    1.200    4.667    0.533 
#    4.800    0.000    0.000    3.200    0.000    0.000 
#    0.000    0.000    0.000    0.000    0.000    0.000 
#
# Total GULP energy -167074.944841 kJ/mol
# GULP energy per Si atom -5569.164828 kJ/mol
# Density = 2.145126 g / cm^3
# Si number density = 21.500191 Si / 1000 Ang^3
#
#
#
# Elastic Constant Matrix: (Units=GPa)
#
#
# Indices 1 2 3 4 5 6 
#
# 1 50.7495 4.3431 27.7620 0.0000 -1.4585 0.0000
# 2 4.3431 54.4016 11.7251 0.0000 -1.4519 0.0000
# 3 27.7620 11.7251 74.6705 0.0000 -0.9858 0.0000
# 4 0.0000 0.0000 0.0000 12.9264 0.0000 2.4200
# 5 -1.4585 -1.4519 -0.9858 0.0000 32.5257 0.0000
# 6 0.0000 0.0000 0.0000 2.4200 0.0000 11.4420
#
#
#
# Elastic Compliance Matrix: (Units=1/GPa)
#
#
# Indices 1 2 3 4 5 6 
#
# 1 0.024758 0.000028 -0.009198 0.000000 0.000833 0.000000
# 2 0.000028 0.019044 -0.002991 0.000000 0.000761 0.000000
# 3 -0.009198 -0.002991 0.017281 0.000000 -0.000022 0.000000
# 4 0.000000 0.000000 0.000000 0.080550 0.000000 -0.017036
# 5 0.000833 0.000761 -0.000022 0.000000 0.030816 0.000000
# 6 0.000000 0.000000 0.000000 -0.017036 0.000000 0.091001
#
#
# Mechanical properties :
#
#
# Convention : Reuss Voigt Hill
#
# Bulk Modulus (GPa) = 27.20209 29.72023 28.46116
# Shear Modulus (GPa) = 16.66520 20.44491 18.55505
#
# Velocity S-wave (km/s) = 2.78712 3.08704 2.94090
# Velocity P-wave (km/s) = 4.79967 5.15361 4.97978
#
# Compressibility (1/GPa) = 0.03676188
#
# Stress axis : x y z
#
# Youngs Moduli (GPa) = 40.39099 52.50866 57.86574
#
# Poissons Ratio (x) = -0.00148 0.53227
# Poissons Ratio (y) = -0.00114 0.17307
# Poissons Ratio (z) = 0.37153 0.15705
#
# Static dielectric constant tensor:
#      x y z
#    x 1.792530 0.000000 -0.047820 
#    y 0.000000 1.855880 0.000000 
#    z -0.047820 0.000000 1.874340 
# 
# From -- ./inp_files/171921.got.cif
#   From: 2010.05.17/outbox.cif.g08.bks.cpg/sg15_86_cif.got.tgz:171921.got - 2010.06.03 18:47:42.
