data_PCOD9288388
_publ_section_title
;
Structure prediction by ZEFSAII (Michael W. Deem and Ramdas Pophale) SiO2 
 PCOD9288388
Probable space group: C 2/C
;
_chemical_formula_sum "Si O2"
_cell_formula_units_Z 48
_cell_length_a 14.510123
_cell_length_b 23.680750
_cell_length_c 10.511119
_cell_angle_alpha 90.000000
_cell_angle_beta 136.972343
_cell_angle_gamma 90.000000
_cell_volume 2464.469961
_symmetry_space_group_name_H-M "C 2/C"
_symmetry_group_IT_number 15
_symmetry_cell_setting 'monoclinic'
loop_
_space_group_symop_operation_xyz
x,y,z
-x,y,1/2-z
-x,-y,-z
x,-y,1/2+z
1/2+x,1/2+y,z
1/2-x,1/2+y,1/2-z
1/2-x,1/2-y,-z
1/2+x,1/2-y,1/2+z
loop_
_atom_site_type_symbol
_atom_site_label
_atom_site_fract_x
_atom_site_fract_y
_atom_site_fract_z
Si Si1 0.814451 0.857155 0.968333
Si Si2 0.438257 0.822710 0.918325
Si Si3 0.274779 0.137860 0.832980
Si Si4 0.332932 0.274215 0.466028
Si Si5 0.000000 0.242110 0.750000
Si Si6 0.988363 0.933125 0.486691
Si Si7 0.000000 0.874002 0.750000
O O1 0.704732 0.853329 0.745163
O O2 0.742149 0.865601 0.031547
O O3 0.896239 0.799122 0.073259
O O4 0.924901 0.903471 0.037489
O O5 0.431699 0.776585 0.023923
O O6 0.443847 0.783524 0.799140
O O7 0.567737 0.863769 0.047997
O O8 0.233672 0.199254 0.730154
O O9 0.165700 0.091008 0.677425
O O10 0.250000 0.250000 0.500000
O O11 0.394466 0.330654 0.585588
O O12 0.047083 0.911294 0.680088
O O13 0.000000 0.000000 0.500000
#
# Coordination Sequence:
#
# PCOD9288388 Si02
#       7
#     8   8   8   8   4   8   4
#     4  12  21  38  60  96 125 164 215 258 310 386
#     4  12  22  34  62  97 136 167 197 253 316 387
#     4  11  22  39  59  94 128 163 215 260 314 383
#     4  11  21  37  57  89 137 177 197 236 310 398
#     4  12  18  33  58  98 132 165 198 244 306 378
#     4  11  25  43  67  86 116 164 224 287 324 373
#     4  10  22  39  54  90 116 159 216 252 306 384
#
# _framework density 19.476804999999999
#
# number of rings (size 3 to 8) (size 9 to 14) (size 15 to 20)
#    0.000    0.667    5.000    4.500    2.333    0.000 
#    0.000    0.833    0.000    0.000    0.000    0.000 
#    0.000    0.000    0.000    0.000    0.000    0.000 
#
# Total GULP energy -133764.160205 kJ/mol
# GULP energy per Si atom -5573.506675 kJ/mol
# Density = 1.943247 g / cm^3
# Si number density = 19.476805 Si / 1000 Ang^3
#
#
#
# Elastic Constant Matrix: (Units=GPa)
#
#
# Indices 1 2 3 4 5 6 
#
# 1 115.9309 59.3601 24.7404 0.0000 -7.4367 0.0000
# 2 59.3601 109.2462 39.3441 0.0000 7.5029 0.0000
# 3 24.7404 39.3441 85.4514 0.0000 15.6701 0.0000
# 4 0.0000 0.0000 0.0000 24.8161 0.0000 -4.5262
# 5 -7.4367 7.5029 15.6701 0.0000 39.7676 0.0000
# 6 0.0000 0.0000 0.0000 -4.5262 0.0000 10.8381
#
#
#
# Elastic Compliance Matrix: (Units=1/GPa)
#
#
# Indices 1 2 3 4 5 6 
#
# 1 0.012573 -0.006631 -0.001345 0.000000 0.004132 0.000000
# 2 -0.006631 0.014471 -0.004327 0.000000 -0.002265 0.000000
# 3 -0.001345 -0.004327 0.015070 0.000000 -0.005373 0.000000
# 4 0.000000 0.000000 0.000000 0.043619 0.000000 0.018216
# 5 0.004132 -0.002265 -0.005373 0.000000 0.028463 0.000000
# 6 0.000000 0.000000 0.000000 0.018216 0.000000 0.099875
#
#
# Mechanical properties :
#
#
# Convention : Reuss Voigt Hill
#
# Bulk Modulus (GPa) = 57.12109 61.94642 59.53375
# Shear Modulus (GPa) = 20.44874 27.56328 24.00601
#
# Velocity S-wave (km/s) = 3.24373 3.76598 3.51457
# Velocity P-wave (km/s) = 6.58942 7.12632 6.86312
#
# Compressibility (1/GPa) = 0.01750667
#
# Stress axis : x y z
#
# Youngs Moduli (GPa) = 79.53331 69.10414 66.35812
#
# Poissons Ratio (x) = 0.45825 0.08924
# Poissons Ratio (y) = 0.52741 0.28716
# Poissons Ratio (z) = 0.10696 0.29905
#
# Static dielectric constant tensor:
#      x y z
#    x 1.729350 0.000000 -0.006090 
#    y 0.000000 1.673480 0.000000 
#    z -0.006090 0.000000 1.840120 
# 
# From -- ./inp_files/100083.got.cif
#   From: 2010.05.17/outbox.cif.g08.bks.cpg/sg15_51_cif.got.tgz:100083.got - 2010.06.03 18:47:42.
