data_PCOD9288138
_publ_section_title
;
Structure prediction by ZEFSAII (Michael W. Deem and Ramdas Pophale) SiO2 
 PCOD9288138
Probable space group: C 2/C
;
_chemical_formula_sum "Si O2"
_cell_formula_units_Z 56
_cell_length_a 14.693436
_cell_length_b 18.944761
_cell_length_c 20.009403
_cell_angle_alpha 90.000000
_cell_angle_beta 25.368647
_cell_angle_gamma 90.000000
_cell_volume 2386.367913
_symmetry_space_group_name_H-M "C 2/C"
_symmetry_group_IT_number 15
_symmetry_cell_setting 'monoclinic'
loop_
_space_group_symop_operation_xyz
x,y,z
-x,y,1/2-z
-x,-y,-z
x,-y,1/2+z
1/2+x,1/2+y,z
1/2-x,1/2+y,1/2-z
1/2-x,1/2-y,-z
1/2+x,1/2-y,1/2+z
loop_
_atom_site_type_symbol
_atom_site_label
_atom_site_fract_x
_atom_site_fract_y
_atom_site_fract_z
Si Si1 0.864385 0.650253 0.139013
Si Si2 0.220103 0.115502 0.704064
Si Si3 0.422323 0.151289 0.711233
Si Si4 0.503195 0.237689 0.174836
Si Si5 0.912388 0.030905 0.155603
Si Si6 0.258985 0.734866 0.404915
Si Si7 0.142357 0.496513 0.209273
O O1 0.651696 0.604574 0.269683
O O2 0.852829 0.708289 0.088631
O O3 0.897161 0.689839 0.187582
O O4 0.070685 0.605633 0.980024
O O5 0.276366 0.138162 0.743030
O O6 0.101740 0.184301 0.754493
O O7 0.108265 0.039549 0.785986
O O8 0.296852 0.183857 0.857589
O O9 0.605487 0.205428 0.564956
O O10 0.494605 0.072447 0.680172
O O11 0.500000 0.204070 0.250000
O O12 0.750000 0.250000 0.000000
O O13 0.726763 0.030084 0.221398
O O14 0.138557 0.027629 0.970503
O O15 0.500000 0.706055 0.250000
O O16 0.000000 0.537466 0.250000
#
# Coordination Sequence:
#
# PCOD9288138 Si02
#       7
#     8   8   8   8   8   8   8
#     4  11  24  42  70  98 140 176 234 292 347 426
#     4  10  22  46  63  99 138 178 227 293 349 412
#     4  10  22  38  64  91 135 166 217 278 339 405
#     4  12  25  43  71 105 142 190 237 294 358 417
#     4  10  24  42  70  94 135 192 229 286 364 411
#     4  11  23  37  63 100 128 175 215 277 347 408
#     4  10  23  42  63  94 133 175 229 283 338 422
#
# _framework density 23.466625000000001
#
# number of rings (size 3 to 8) (size 9 to 14) (size 15 to 20)
#    0.000    1.429    2.857    1.286    4.000    5.143 
#    0.000    0.714    0.000    0.000    0.000    0.000 
#    0.000    0.000    0.000    0.000    0.000    0.000 
#
# Total GULP energy -156258.260736 kJ/mol
# GULP energy per Si atom -5580.652169 kJ/mol
# Density = 2.341321 g / cm^3
# Si number density = 23.466625 Si / 1000 Ang^3
#
#
#
# Elastic Constant Matrix: (Units=GPa)
#
#
# Indices 1 2 3 4 5 6 
#
# 1 101.9777 8.8452 -0.2377 0.0412 11.6712 -0.0080
# 2 8.8452 79.7688 11.7446 -0.0047 7.5130 0.0052
# 3 -0.2377 11.7446 83.5908 0.0450 16.8690 -0.0648
# 4 0.0412 -0.0047 0.0450 30.5522 -0.0332 -4.1823
# 5 11.6712 7.5130 16.8690 -0.0332 35.6095 0.0218
# 6 -0.0080 0.0052 -0.0648 -4.1823 0.0218 15.8716
#
#
#
# Elastic Compliance Matrix: (Units=1/GPa)
#
#
# Indices 1 2 3 4 5 6 
#
# 1 0.010301 -0.000934 0.000887 -0.000018 -0.003599 0.000009
# 2 -0.000934 0.013022 -0.001481 0.000003 -0.001740 -0.000008
# 3 0.000887 -0.001481 0.013456 -0.000020 -0.006352 0.000059
# 4 -0.000018 0.000003 -0.000020 0.033956 0.000041 0.008947
# 5 -0.003599 -0.001740 -0.006352 0.000041 0.032638 -0.000061
# 6 0.000009 -0.000008 0.000059 0.008947 -0.000061 0.065364
#
#
# Mechanical properties :
#
#
# Convention : Reuss Voigt Hill
#
# Bulk Modulus (GPa) = 29.65402 34.00463 31.82932
# Shear Modulus (GPa) = 27.31743 32.73901 30.02822
#
# Velocity S-wave (km/s) = 3.41559 3.73920 3.58105
# Velocity P-wave (km/s) = 5.31217 5.75884 5.54001
#
# Compressibility (1/GPa) = 0.03372224
#
# Stress axis : x y z
#
# Youngs Moduli (GPa) = 97.07724 76.79490 74.31800
#
# Poissons Ratio (x) = 0.07171 -0.06591
# Poissons Ratio (y) = 0.09065 0.11008
# Poissons Ratio (z) = -0.08610 0.11375
#
# Static dielectric constant tensor:
#      x y z
#    x 1.969750 0.000030 0.037850 
#    y 0.000030 1.902850 0.000030 
#    z 0.037850 0.000030 1.963660 
# 
# From -- ./inp_files/163844.got.cif
#   From: 2010.05.17/outbox.cif.g08.bks.cpg/sg15_82_cif.got.tgz:163844.got - 2010.06.03 18:47:42.
