data_PCOD9288204
_publ_section_title
;
Structure prediction by ZEFSAII (Michael W. Deem and Ramdas Pophale) SiO2 
 PCOD9288204
Probable space group: C 2/C
;
_chemical_formula_sum "Si O2"
_cell_formula_units_Z 52
_cell_length_a 18.384944
_cell_length_b 8.274456
_cell_length_c 22.139646
_cell_angle_alpha 90.000000
_cell_angle_beta 125.598105
_cell_angle_gamma 90.000000
_cell_volume 2738.590425
_symmetry_space_group_name_H-M "C 2/C"
_symmetry_group_IT_number 15
_symmetry_cell_setting 'monoclinic'
loop_
_space_group_symop_operation_xyz
x,y,z
-x,y,1/2-z
-x,-y,-z
x,-y,1/2+z
1/2+x,1/2+y,z
1/2-x,1/2+y,1/2-z
1/2-x,1/2-y,-z
1/2+x,1/2-y,1/2+z
loop_
_atom_site_type_symbol
_atom_site_label
_atom_site_fract_x
_atom_site_fract_y
_atom_site_fract_z
Si Si1 0.500000 0.017230 0.250000
Si Si2 0.625619 0.205296 0.995011
Si Si3 0.824859 0.288178 0.626439
Si Si4 0.216662 0.994306 0.480947
Si Si5 0.945771 0.577943 0.851549
Si Si6 0.655494 0.789704 0.647863
Si Si7 0.247925 0.386010 0.206493
O O1 0.534191 0.914360 0.209637
O O2 0.582108 0.125371 0.313597
O O3 0.653062 0.359170 0.968514
O O4 0.630136 0.249217 0.067548
O O5 0.699746 0.068206 0.016054
O O6 0.529367 0.140068 0.929516
O O7 0.758821 0.414209 0.561368
O O8 0.784088 0.216729 0.668204
O O9 0.831648 0.141384 0.582132
O O10 0.923899 0.390599 0.858075
O O11 0.853499 0.664214 0.825220
O O12 0.689373 0.645432 0.705781
O O13 0.734753 0.925291 0.684626
#
# Coordination Sequence:
#
# PCOD9288204 Si02
#       7
#     4   8   8   8   8   8   8
#     4  12  22  40  70  90 126 164 218 260 316 372
#     4  11  21  41  61  95 124 170 207 259 314 384
#     4  11  21  44  61  95 123 167 210 263 317 378
#     4  10  23  37  67  87 128 165 209 256 323 379
#     4  10  23  39  63  93 123 165 210 264 311 380
#     4  10  22  38  65  85 128 168 206 256 316 387
#     4  10  22  40  63  91 121 168 209 257 316 378
#
# _framework density 18.987869
#
# number of rings (size 3 to 8) (size 9 to 14) (size 15 to 20)
#    0.923    0.615    4.615    0.462    4.308    0.000 
#    2.769    0.769    0.000    0.000    0.000    0.000 
#    0.000    0.000    0.000    0.000    0.000    0.000 
#
# Total GULP energy -145032.828706 kJ/mol
# GULP energy per Si atom -5578.185719 kJ/mol
# Density = 1.894465 g / cm^3
# Si number density = 18.987869 Si / 1000 Ang^3
#
#
#
# Elastic Constant Matrix: (Units=GPa)
#
#
# Indices 1 2 3 4 5 6 
#
# 1 49.8591 -11.7666 21.0569 0.0000 -4.8886 0.0000
# 2 -11.7666 27.9522 10.7605 0.0000 12.4742 0.0000
# 3 21.0569 10.7605 124.7273 0.0000 2.4074 0.0000
# 4 0.0000 0.0000 0.0000 16.0546 0.0000 -2.6456
# 5 -4.8886 12.4742 2.4074 0.0000 31.1340 0.0000
# 6 0.0000 0.0000 0.0000 -2.6456 0.0000 6.0902
#
#
#
# Elastic Compliance Matrix: (Units=1/GPa)
#
#
# Indices 1 2 3 4 5 6 
#
# 1 0.025350 0.013135 -0.005396 0.000000 -0.000865 0.000000
# 2 0.013135 0.051883 -0.006342 0.000000 -0.018235 0.000000
# 3 -0.005396 -0.006342 0.009457 0.000000 0.000962 0.000000
# 4 0.000000 0.000000 0.000000 0.067090 0.000000 0.029144
# 5 -0.000865 -0.018235 0.000962 0.000000 0.039215 0.000000
# 6 0.000000 0.000000 0.000000 0.029144 0.000000 0.176859
#
#
# Mechanical properties :
#
#
# Convention : Reuss Voigt Hill
#
# Bulk Modulus (GPa) = 11.17509 26.96002 19.06756
# Shear Modulus (GPa) = 12.59798 22.82162 17.70980
#
# Velocity S-wave (km/s) = 2.57860 3.47061 3.05731
# Velocity P-wave (km/s) = 3.84236 5.50360 4.74622
#
# Compressibility (1/GPa) = 0.08948472
#
# Stress axis : x y z
#
# Youngs Moduli (GPa) = 39.44701 19.27397 105.74145
#
# Poissons Ratio (x) = -0.25316 0.57060
# Poissons Ratio (y) = -0.51813 0.67057
# Poissons Ratio (z) = 0.21286 0.12223
#
# Static dielectric constant tensor:
#      x y z
#    x 1.654220 0.000000 -0.015280 
#    y 0.000000 1.656680 0.000000 
#    z -0.015280 0.000000 1.630490 
# 
# From -- ./inp_files/247866.got.cif
#   From: 2010.05.17/outbox.cif.g08.bks.cpg/sg15_124_cif.got.tgz:247866.got - 2010.06.03 18:47:42.
