data_PCOD9288135
_publ_section_title
;
Structure prediction by ZEFSAII (Michael W. Deem and Ramdas Pophale) SiO2 
 PCOD9288135
Probable space group: C 2/C
;
_chemical_formula_sum "Si O2"
_cell_formula_units_Z 60
_cell_length_a 17.498467
_cell_length_b 7.333144
_cell_length_c 18.410031
_cell_angle_alpha 90.000000
_cell_angle_beta 100.420003
_cell_angle_gamma 90.000000
_cell_volume 2323.393683
_symmetry_space_group_name_H-M "C 2/C"
_symmetry_group_IT_number 15
_symmetry_cell_setting 'monoclinic'
loop_
_space_group_symop_operation_xyz
x,y,z
-x,y,1/2-z
-x,-y,-z
x,-y,1/2+z
1/2+x,1/2+y,z
1/2-x,1/2+y,1/2-z
1/2-x,1/2-y,-z
1/2+x,1/2-y,1/2+z
loop_
_atom_site_type_symbol
_atom_site_label
_atom_site_fract_x
_atom_site_fract_y
_atom_site_fract_z
Si Si1 0.065959 0.729477 0.141261
Si Si2 0.867328 0.467803 0.729270
Si Si3 0.747676 0.831862 0.198490
Si Si4 0.830933 0.982543 0.906153
Si Si5 0.643288 0.446112 0.871468
Si Si6 0.337923 0.936644 0.066499
Si Si7 0.500000 0.505903 0.250000
Si Si8 0.081212 0.243377 0.972038
O O1 0.075270 0.548165 0.192618
O O2 0.005358 0.708441 0.065588
O O3 0.141676 0.826027 0.121235
O O4 0.030729 0.878855 0.190575
O O5 0.828662 0.268191 0.726312
O O6 0.798358 0.602450 0.739674
O O7 0.884351 0.502447 0.648612
O O8 0.695063 0.677601 0.152956
O O9 0.775869 0.001585 0.154337
O O10 0.752340 0.011972 0.938782
O O11 0.904328 0.891390 0.959033
O O12 0.575241 0.398910 0.800352
O O13 0.619309 0.625303 0.912806
O O14 0.651920 0.279072 0.928851
O O15 0.371911 0.067684 0.010996
#
# Coordination Sequence:
#
# PCOD9288135 Si02
#       8
#     8   8   8   8   8   8   4   8
#     4  11  22  42  66  94 125 181 206 270 336 387
#     4  11  20  37  62  95 130 155 211 266 329 383
#     4  11  21  37  63  97 129 166 211 277 322 391
#     4  11  24  43  66  91 132 176 221 267 321 384
#     4  11  22  40  65  95 128 172 214 266 330 392
#     4  11  24  40  69  99 124 174 215 273 331 387
#     4  10  22  38  64  90 136 156 210 260 342 386
#     4  11  24  47  62  90 135 175 219 269 315 394
#
# _framework density 25.824293000000001
#
# number of rings (size 3 to 8) (size 9 to 14) (size 15 to 20)
#    0.000    1.067    4.000    4.800    1.867    1.600 
#    4.800    0.667    0.000    0.000    0.000    0.000 
#    0.000    0.000    0.000    0.000    0.000    0.000 
#
# Total GULP energy -167773.022596 kJ/mol
# GULP energy per Si atom -5592.434087 kJ/mol
# Density = 2.576552 g / cm^3
# Si number density = 25.824293 Si / 1000 Ang^3
#
#
#
# Elastic Constant Matrix: (Units=GPa)
#
#
# Indices 1 2 3 4 5 6 
#
# 1 61.9223 11.8394 4.2927 0.0000 15.7604 0.0000
# 2 11.8394 99.9663 -4.2794 0.0000 0.1896 0.0000
# 3 4.2927 -4.2794 57.8596 0.0000 29.6270 0.0000
# 4 0.0000 0.0000 0.0000 40.0238 0.0000 -2.1241
# 5 15.7604 0.1896 29.6270 0.0000 37.5194 0.0000
# 6 0.0000 0.0000 0.0000 -2.1241 0.0000 10.4716
#
#
#
# Elastic Compliance Matrix: (Units=1/GPa)
#
#
# Indices 1 2 3 4 5 6 
#
# 1 0.019150 -0.002064 0.004265 0.000000 -0.011401 0.000000
# 2 -0.002064 0.010283 0.000833 0.000000 0.000157 0.000000
# 3 0.004265 0.000833 0.030131 0.000000 -0.025588 0.000000
# 4 0.000000 0.000000 0.000000 0.025257 0.000000 0.005123
# 5 -0.011401 0.000157 -0.025588 0.000000 0.051647 0.000000
# 6 0.000000 0.000000 0.000000 0.005123 0.000000 0.096536
#
#
# Mechanical properties :
#
#
# Convention : Reuss Voigt Hill
#
# Bulk Modulus (GPa) = 15.23641 27.05041 21.14341
# Shear Modulus (GPa) = 20.09541 31.46266 25.77903
#
# Velocity S-wave (km/s) = 2.79258 3.49425 3.16293
# Velocity P-wave (km/s) = 4.03867 5.17468 4.64156
#
# Compressibility (1/GPa) = 0.06563225
#
# Stress axis : x y z
#
# Youngs Moduli (GPa) = 52.21914 97.24625 33.18852
#
# Poissons Ratio (x) = 0.20070 -0.14153
# Poissons Ratio (y) = 0.10777 -0.02766
# Poissons Ratio (z) = -0.22269 -0.08104
#
# Static dielectric constant tensor:
#      x y z
#    x 2.038750 0.000000 0.050790 
#    y 0.000000 2.023520 0.000000 
#    z 0.050790 0.000000 2.153920 
# 
# From -- ./inp_files/247490.got.cif
#   From: 2010.05.17/outbox.cif.g08.bks.cpg/sg15_124_cif.got.tgz:247490.got - 2010.06.03 18:47:42.
