data_PCOD9288456
_publ_section_title
;
Structure prediction by ZEFSAII (Michael W. Deem and Ramdas Pophale) SiO2 
 PCOD9288456
Probable space group: C 2/C
;
_chemical_formula_sum "Si O2"
_cell_formula_units_Z 64
_cell_length_a 18.442446
_cell_length_b 27.384077
_cell_length_c 8.856387
_cell_angle_alpha 90.000000
_cell_angle_beta 42.106675
_cell_angle_gamma 90.000000
_cell_volume 2999.027525
_symmetry_space_group_name_H-M "C 2/C"
_symmetry_group_IT_number 15
_symmetry_cell_setting 'monoclinic'
loop_
_space_group_symop_operation_xyz
x,y,z
-x,y,1/2-z
-x,-y,-z
x,-y,1/2+z
1/2+x,1/2+y,z
1/2-x,1/2+y,1/2-z
1/2-x,1/2-y,-z
1/2+x,1/2-y,1/2+z
loop_
_atom_site_type_symbol
_atom_site_label
_atom_site_fract_x
_atom_site_fract_y
_atom_site_fract_z
Si Si1 0.103535 0.527478 0.979216
Si Si2 0.457482 0.924047 0.471838
Si Si3 0.096204 0.856095 0.979115
Si Si4 0.186988 0.342895 0.667946
Si Si5 0.874064 0.721561 0.981704
Si Si6 0.285090 0.605914 0.750269
Si Si7 0.508360 0.447071 0.416804
Si Si8 0.195804 0.178457 0.047450
O O1 0.203826 0.560039 0.870773
O O2 0.059432 0.550200 0.892539
O O3 0.123461 0.469740 0.930970
O O4 0.000000 0.532132 0.250000
O O5 0.500000 0.902737 0.250000
O O6 0.403218 0.883430 0.657050
O O7 0.205468 0.854620 0.903688
O O8 0.105895 0.820699 0.820674
O O9 0.000000 0.848293 0.250000
O O10 0.088020 0.908866 0.912293
O O11 0.225099 0.351323 0.438769
O O12 0.145521 0.294097 0.813843
O O13 0.825920 0.774764 0.022610
O O14 0.000000 0.720288 0.750000
O O15 0.807581 0.686063 0.968440
O O16 0.389721 0.583669 0.674652
O O17 0.307800 0.630693 0.553163
O O18 0.500000 0.454349 0.250000
O O19 0.500000 0.500000 0.500000
#
# Coordination Sequence:
#
# PCOD9288456 Si02
#       8
#     8   8   8   8   8   8   8   8
#     4  10  22  39  59  96 135 172 222 271 323 405
#     4  10  22  39  63  91 132 181 219 264 339 395
#     4  10  22  45  67  93 131 179 220 277 337 401
#     4  11  22  41  66  92 134 174 218 282 338 402
#     4  10  24  46  71 100 135 170 229 283 342 424
#     4  12  25  41  68  99 139 177 227 284 334 409
#     4  11  26  45  64  98 136 183 235 277 335 402
#     4  10  26  45  71 105 129 176 231 279 351 412
#
# _framework density 21.340250000000001
#
# number of rings (size 3 to 8) (size 9 to 14) (size 15 to 20)
#    0.000    1.500    3.750    0.375   10.500    0.500 
#    0.000    2.500    0.000    0.750    0.000    0.000 
#    0.000    0.000    0.000    0.000    0.000    0.000 
#
# Total GULP energy -178436.201174 kJ/mol
# GULP energy per Si atom -5576.131287 kJ/mol
# Density = 2.129168 g / cm^3
# Si number density = 21.340250 Si / 1000 Ang^3
#
#
#
# Elastic Constant Matrix: (Units=GPa)
#
#
# Indices 1 2 3 4 5 6 
#
# 1 54.2047 4.8092 21.9263 0.0000 7.1765 0.0000
# 2 4.8092 54.5806 12.6056 0.0000 8.7241 0.0000
# 3 21.9263 12.6056 80.3419 0.0000 16.9457 0.0000
# 4 0.0000 0.0000 0.0000 -1.5060 0.0000 11.5568
# 5 7.1765 8.7241 16.9457 0.0000 32.3977 0.0000
# 6 0.0000 0.0000 0.0000 11.5568 0.0000 24.2861
#
#
#
# Elastic Compliance Matrix: (Units=1/GPa)
#
#
# Indices 1 2 3 4 5 6 
#
# 1 0.020841 -0.000338 -0.005261 0.000000 -0.001774 0.000000
# 2 -0.000338 0.019489 -0.002107 0.000000 -0.004071 0.000000
# 3 -0.005261 -0.002107 0.015565 0.000000 -0.006409 0.000000
# 4 0.000000 0.000000 0.000000 -0.142746 0.000000 0.067927
# 5 -0.001774 -0.004071 -0.006409 0.000000 0.035708 0.000000
# 6 0.000000 0.000000 0.000000 0.067927 0.000000 0.008852
#
#
# Mechanical properties :
#
#
# Convention : Reuss Voigt Hill
#
# Bulk Modulus (GPa) = 24.70114 29.75659 27.22887
# Shear Modulus (GPa) = -373.51216 21.02131 -176.24543
#
# Velocity S-wave (km/s) = -13.24413 3.14196 -9.09767
# Velocity P-wave (km/s) = 14.90892 5.20929 9.87774
#
# Compressibility (1/GPa) = 0.04048395
#
# Stress axis : x y z
#
# Youngs Moduli (GPa) = 47.98132 51.31202 64.24760
#
# Poissons Ratio (x) = 0.01733 0.33799
# Poissons Ratio (y) = 0.01621 0.13536
# Poissons Ratio (z) = 0.25242 0.10811
#
# Static dielectric constant tensor:
#      x y z
#    x 1.808070 0.000000 0.026920 
#    y 0.000000 1.806250 0.000000 
#    z 0.026920 0.000000 1.791930 
# 
# From -- ./inp_files/52809.got.cif
#   From: 2010.05.17/outbox.cif.g08.bks.cpg/sg15_27_cif.got.tgz:52809.got - 2010.06.03 18:47:42.
