data_PCOD9288057
_publ_section_title
;
Structure prediction by ZEFSAII (Michael W. Deem and Ramdas Pophale) SiO2 
 PCOD9288057
Probable space group: C 2/C
;
_chemical_formula_sum "Si O2"
_cell_formula_units_Z 36
_cell_length_a 12.620427
_cell_length_b 16.995714
_cell_length_c 10.553056
_cell_angle_alpha 90.000000
_cell_angle_beta 129.334593
_cell_angle_gamma 90.000000
_cell_volume 1750.766587
_symmetry_space_group_name_H-M "C 2/C"
_symmetry_group_IT_number 15
_symmetry_cell_setting 'monoclinic'
loop_
_space_group_symop_operation_xyz
x,y,z
-x,y,1/2-z
-x,-y,-z
x,-y,1/2+z
1/2+x,1/2+y,z
1/2-x,1/2+y,1/2-z
1/2-x,1/2-y,-z
1/2+x,1/2-y,1/2+z
loop_
_atom_site_type_symbol
_atom_site_label
_atom_site_fract_x
_atom_site_fract_y
_atom_site_fract_z
Si Si1 0.388609 0.786614 0.776386
Si Si2 0.576219 0.537144 0.178540
Si Si3 0.410424 0.719660 0.381350
Si Si4 0.000000 0.344484 0.250000
Si Si5 0.621516 0.058698 0.066356
O O1 0.500000 0.782756 0.750000
O O2 0.227413 0.768425 0.639554
O O3 0.387274 0.873895 0.834026
O O4 0.453437 0.731272 0.933299
O O5 0.500000 0.515992 0.250000
O O6 0.584841 0.632119 0.171139
O O7 0.734881 0.514065 0.312712
O O8 0.500000 0.500000 0.000000
O O9 0.414206 0.786325 0.276035
O O10 0.095950 0.398014 0.412352
O O11 0.500000 0.000000 0.000000
#
# Coordination Sequence:
#
# PCOD9288057 Si02
#       5
#     8   8   8   4   8
#     4  10  22  38  62  95 129 166 211 274 333 390
#     4  11  26  42  65  97 137 177 222 280 337 398
#     4  10  22  40  66  95 126 172 221 270 326 395
#     4  10  22  42  74  96 126 174 230 274 316 398
#     4  10  25  40  66  94 130 176 220 269 334 402
#
# _framework density 20.562418999999998
#
# number of rings (size 3 to 8) (size 9 to 14) (size 15 to 20)
#    0.000    1.778    1.111    0.667    7.778    7.111 
#    0.000    0.000    0.000    0.000    0.000    0.000 
#    0.000    0.000    0.000    0.000    0.000    0.000 
#
# Total GULP energy -100489.635555 kJ/mol
# GULP energy per Si atom -5582.757531 kJ/mol
# Density = 2.051562 g / cm^3
# Si number density = 20.562419 Si / 1000 Ang^3
#
#
#
# Elastic Constant Matrix: (Units=GPa)
#
#
# Indices 1 2 3 4 5 6 
#
# 1 132.6001 22.8828 63.8588 0.0000 7.4254 0.0000
# 2 22.8828 38.9770 37.8542 0.0000 7.0973 0.0000
# 3 63.8588 37.8542 118.6903 0.0000 16.9024 0.0000
# 4 0.0000 0.0000 0.0000 16.6959 0.0000 8.3493
# 5 7.4254 7.0973 16.9024 0.0000 45.6968 0.0000
# 6 0.0000 0.0000 0.0000 8.3493 0.0000 25.5473
#
#
#
# Elastic Compliance Matrix: (Units=1/GPa)
#
#
# Indices 1 2 3 4 5 6 
#
# 1 0.010211 -0.000982 -0.005242 0.000000 0.000432 0.000000
# 2 -0.000982 0.037357 -0.011171 0.000000 -0.001511 0.000000
# 3 -0.005242 -0.011171 0.015243 0.000000 -0.003051 0.000000
# 4 0.000000 0.000000 0.000000 0.071596 0.000000 -0.023399
# 5 0.000432 -0.001511 -0.003051 0.000000 0.023176 0.000000
# 6 0.000000 0.000000 0.000000 -0.023399 0.000000 0.046790
#
#
# Mechanical properties :
#
#
# Convention : Reuss Voigt Hill
#
# Bulk Modulus (GPa) = 35.68804 59.93988 47.81396
# Shear Modulus (GPa) = 20.12033 28.63278 24.37655
#
# Velocity S-wave (km/s) = 3.13149 3.73564 3.44683
# Velocity P-wave (km/s) = 5.51984 6.91522 6.25655
#
# Compressibility (1/GPa) = 0.02802059
#
# Stress axis : x y z
#
# Youngs Moduli (GPa) = 97.92952 26.76884 65.60392
#
# Poissons Ratio (x) = 0.02630 0.34391
# Poissons Ratio (y) = 0.09621 0.73284
# Poissons Ratio (z) = 0.51337 0.29902
#
# Static dielectric constant tensor:
#      x y z
#    x 1.740100 0.000000 0.007550 
#    y 0.000000 1.739200 0.000000 
#    z 0.007550 0.000000 1.784990 
# 
# From -- ./inp_files/29422.got.cif
#   From: 2010.05.17/outbox.cif.g08.bks.cpg/sg15_15_cif.got.tgz:29422.got - 2010.06.03 18:47:42.
