data_PCOD9288702
_publ_section_title
;
Structure prediction by ZEFSAII (Michael W. Deem and Ramdas Pophale) SiO2 
 PCOD9288702
Probable space group: C 2/C
;
_chemical_formula_sum "Si O2"
_cell_formula_units_Z 36
_cell_length_a 14.920708
_cell_length_b 19.000833
_cell_length_c 4.907594
_cell_angle_alpha 90.000000
_cell_angle_beta 84.753363
_cell_angle_gamma 90.000000
_cell_volume 1385.502493
_symmetry_space_group_name_H-M "C 2/C"
_symmetry_group_IT_number 15
_symmetry_cell_setting 'monoclinic'
loop_
_space_group_symop_operation_xyz
x,y,z
-x,y,1/2-z
-x,-y,-z
x,-y,1/2+z
1/2+x,1/2+y,z
1/2-x,1/2+y,1/2-z
1/2-x,1/2-y,-z
1/2+x,1/2-y,1/2+z
loop_
_atom_site_type_symbol
_atom_site_label
_atom_site_fract_x
_atom_site_fract_y
_atom_site_fract_z
Si Si1 0.598542 0.048743 0.158358
Si Si2 0.000000 0.159458 0.250000
Si Si3 0.833759 0.245343 0.185599
Si Si4 0.887646 0.047092 0.620737
Si Si5 0.721566 0.869961 0.010659
O O1 0.500000 0.079434 0.250000
O O2 0.674784 0.098698 0.257064
O O3 0.603504 0.978654 0.349730
O O4 0.070732 0.208391 0.398288
O O5 0.052757 0.109015 0.023808
O O6 0.793178 0.190333 0.413545
O O7 0.847745 0.324228 0.292782
O O8 0.750000 0.250000 0.000000
O O9 0.783838 0.071224 0.628760
O O10 0.902170 0.020370 0.921245
#
# Coordination Sequence:
#
# PCOD9288702 Si02
#       5
#     8   4   8   8   8
#     4  10  22  39  63  96 131 170 222 284 343 409
#     4  10  24  46  68 104 142 180 242 284 354 426
#     4  10  24  44  66  96 135 186 234 289 338 419
#     4  11  24  43  73 105 138 179 224 293 356 417
#     4  10  23  41  64  97 132 180 233 281 349 414
#
# _framework density 25.983352
#
# number of rings (size 3 to 8) (size 9 to 14) (size 15 to 20)
#    0.000    1.778    0.000    2.000    9.333    1.778 
#   10.000    0.000    0.000    0.000    0.000    0.000 
#    0.000    0.000    0.000    0.000    0.000    0.000 
#
# Total GULP energy -100713.573332 kJ/mol
# GULP energy per Si atom -5595.198518 kJ/mol
# Density = 2.592421 g / cm^3
# Si number density = 25.983352 Si / 1000 Ang^3
#
#
#
# Elastic Constant Matrix: (Units=GPa)
#
#
# Indices 1 2 3 4 5 6 
#
# 1 150.2570 58.0182 19.5060 0.0000 12.3157 0.0000
# 2 58.0182 110.5603 15.2294 0.0000 7.7525 0.0000
# 3 19.5060 15.2294 64.6753 0.0000 15.2325 0.0000
# 4 0.0000 0.0000 0.0000 29.2409 0.0000 9.9983
# 5 12.3157 7.7525 15.2325 0.0000 41.7534 0.0000
# 6 0.0000 0.0000 0.0000 9.9983 0.0000 55.4690
#
#
#
# Elastic Compliance Matrix: (Units=1/GPa)
#
#
# Indices 1 2 3 4 5 6 
#
# 1 0.008558 -0.004224 -0.001287 0.000000 -0.001270 0.000000
# 2 -0.004224 0.011473 -0.001334 0.000000 -0.000398 0.000000
# 3 -0.001287 -0.001334 0.017522 0.000000 -0.005765 0.000000
# 4 0.000000 0.000000 0.000000 0.036445 0.000000 -0.006569
# 5 -0.001270 -0.000398 -0.005765 0.000000 0.026502 0.000000
# 6 0.000000 0.000000 0.000000 -0.006569 0.000000 0.019212
#
#
# Mechanical properties :
#
#
# Convention : Reuss Voigt Hill
#
# Bulk Modulus (GPa) = 41.90752 56.77775 49.34263
# Shear Modulus (GPa) = 35.37155 40.80859 38.09007
#
# Velocity S-wave (km/s) = 3.69360 3.96734 3.83291
# Velocity P-wave (km/s) = 5.86122 6.54869 6.21447
#
# Compressibility (1/GPa) = 0.02386206
#
# Stress axis : x y z
#
# Youngs Moduli (GPa) = 116.85505 87.15906 57.07126
#
# Poissons Ratio (x) = 0.36819 0.07345
# Poissons Ratio (y) = 0.49364 0.07613
# Poissons Ratio (z) = 0.15040 0.11627
#
# Static dielectric constant tensor:
#      x y z
#    x 2.143650 0.000000 -0.068750 
#    y 0.000000 2.043540 0.000000 
#    z -0.068750 0.000000 2.056190 
# 
# From -- ./inp_files/6890.got.cif
#   From: 2010.05.17/outbox.cif.g08.bks.cpg/sg15_4_cif.got.tgz:6890.got - 2010.06.03 18:47:42.
