data_PCOD9288725
_publ_section_title
;
Structure prediction by ZEFSAII (Michael W. Deem and Ramdas Pophale) SiO2 
 PCOD9288725
Probable space group: C 2/C
;
_chemical_formula_sum "Si O2"
_cell_formula_units_Z 64
_cell_length_a 26.621885
_cell_length_b 14.977498
_cell_length_c 16.774562
_cell_angle_alpha 90.000000
_cell_angle_beta 152.457919
_cell_angle_gamma 90.000000
_cell_volume 3092.765884
_symmetry_space_group_name_H-M "C 2/C"
_symmetry_group_IT_number 15
_symmetry_cell_setting 'monoclinic'
loop_
_space_group_symop_operation_xyz
x,y,z
-x,y,1/2-z
-x,-y,-z
x,-y,1/2+z
1/2+x,1/2+y,z
1/2-x,1/2+y,1/2-z
1/2-x,1/2-y,-z
1/2+x,1/2-y,1/2+z
loop_
_atom_site_type_symbol
_atom_site_label
_atom_site_fract_x
_atom_site_fract_y
_atom_site_fract_z
Si Si1 0.951689 0.027084 0.599719
Si Si2 0.253523 0.612886 0.393052
Si Si3 0.613716 0.050508 0.653123
Si Si4 0.262565 0.370306 0.600818
Si Si5 0.677923 0.574627 0.845480
Si Si6 0.718824 0.603325 0.723857
Si Si7 0.589802 0.787383 0.237132
Si Si8 0.836397 0.298208 0.885173
O O1 0.872118 0.104525 0.520018
O O2 0.000000 0.985254 0.750000
O O3 0.050675 0.064329 0.687334
O O4 0.876839 0.959532 0.444877
O O5 0.202142 0.513610 0.318480
O O6 0.267832 0.630519 0.506446
O O7 0.181988 0.670330 0.231849
O O8 0.664054 0.063901 0.636186
O O9 0.605823 0.143782 0.687049
O O10 0.500000 0.000000 0.500000
O O11 0.279559 0.472319 0.600128
O O12 0.368717 0.310582 0.730282
O O13 0.166206 0.323667 0.415243
O O14 0.228040 0.361823 0.644607
O O15 0.701549 0.614647 0.792914
O O16 0.709190 0.699123 0.669305
O O17 0.463953 0.792997 0.082543
#
# Coordination Sequence:
#
# PCOD9288725 Si02
#       8
#     8   8   8   8   8   8   8   8
#     4   9  20  38  65  90 116 157 201 258 323 374
#     4  10  22  39  64  87 122 166 209 259 309 375
#     4  11  20  42  63  86 126 169 211 248 316 378
#     4  11  23  40  62  98 129 151 213 262 316 381
#     4  11  22  41  63  92 119 165 211 261 309 375
#     4  11  24  39  62  93 126 162 213 257 308 379
#     4  11  23  38  65  93 128 164 196 266 322 374
#     4  12  24  40  60  92 128 168 204 259 319 371
#
# _framework density 20.693452000000001
#
# number of rings (size 3 to 8) (size 9 to 14) (size 15 to 20)
#    0.000    1.250    3.750    3.000    0.000    2.500 
#    0.000    0.625    0.000    0.000    0.000    0.000 
#    0.000    0.000    0.000    0.000    0.000    0.000 
#
# Total GULP energy -178734.104858 kJ/mol
# GULP energy per Si atom -5585.440777 kJ/mol
# Density = 2.064635 g / cm^3
# Si number density = 20.693452 Si / 1000 Ang^3
#
#
#
# Elastic Constant Matrix: (Units=GPa)
#
#
# Indices 1 2 3 4 5 6 
#
# 1 121.0944 -5.5794 38.9079 0.0000 5.6034 0.0000
# 2 -5.5794 35.1351 -2.5679 0.0000 5.9528 0.0000
# 3 38.9079 -2.5679 73.5415 0.0000 4.4973 0.0000
# 4 0.0000 0.0000 0.0000 20.3244 0.0000 -0.6744
# 5 5.6034 5.9528 4.4973 0.0000 35.6068 0.0000
# 6 0.0000 0.0000 0.0000 -0.6744 0.0000 24.1976
#
#
#
# Elastic Compliance Matrix: (Units=1/GPa)
#
#
# Indices 1 2 3 4 5 6 
#
# 1 0.010046 0.001412 -0.005195 0.000000 -0.001161 0.000000
# 2 0.001412 0.029620 0.000608 0.000000 -0.005251 0.000000
# 3 -0.005195 0.000608 0.016451 0.000000 -0.001362 0.000000
# 4 0.000000 0.000000 0.000000 0.049247 0.000000 0.001373
# 5 -0.001161 -0.005251 -0.001362 0.000000 0.029317 0.000000
# 6 0.000000 0.000000 0.000000 0.001373 0.000000 0.041365
#
#
# Mechanical properties :
#
#
# Convention : Reuss Voigt Hill
#
# Bulk Modulus (GPa) = 20.09315 32.36579 26.22947
# Shear Modulus (GPa) = 25.12777 29.29312 27.21044
#
# Velocity S-wave (km/s) = 3.48844 3.76649 3.63013
# Velocity P-wave (km/s) = 5.09476 5.88131 5.50211
#
# Compressibility (1/GPa) = 0.04976820
#
# Stress axis : x y z
#
# Youngs Moduli (GPa) = 99.54381 33.76101 60.78841
#
# Poissons Ratio (x) = -0.04768 0.31577
# Poissons Ratio (y) = -0.14059 -0.03697
# Poissons Ratio (z) = 0.51708 -0.02053
#
# Static dielectric constant tensor:
#      x y z
#    x 1.753260 0.000000 -0.012420 
#    y 0.000000 1.720820 0.000000 
#    z -0.012420 0.000000 1.750060 
# 
# From -- ./inp_files/174264.got.cif
#   From: 2010.05.17/outbox.cif.g08.bks.cpg/sg15_88_cif.got.tgz:174264.got - 2010.06.03 18:47:42.
