data_PCOD9288128
_publ_section_title
;
Structure prediction by ZEFSAII (Michael W. Deem and Ramdas Pophale) SiO2 
 PCOD9288128
Probable space group: C 2/C
;
_chemical_formula_sum "Si O2"
_cell_formula_units_Z 60
_cell_length_a 22.278120
_cell_length_b 8.827415
_cell_length_c 23.425333
_cell_angle_alpha 90.000000
_cell_angle_beta 36.453692
_cell_angle_gamma 90.000000
_cell_volume 2737.226223
_symmetry_space_group_name_H-M "C 2/C"
_symmetry_group_IT_number 15
_symmetry_cell_setting 'monoclinic'
loop_
_space_group_symop_operation_xyz
x,y,z
-x,y,1/2-z
-x,-y,-z
x,-y,1/2+z
1/2+x,1/2+y,z
1/2-x,1/2+y,1/2-z
1/2-x,1/2-y,-z
1/2+x,1/2-y,1/2+z
loop_
_atom_site_type_symbol
_atom_site_label
_atom_site_fract_x
_atom_site_fract_y
_atom_site_fract_z
Si Si1 0.632730 0.737288 0.605595
Si Si2 0.638939 0.544308 0.496633
Si Si3 0.769455 0.818245 0.681001
Si Si4 0.162472 0.591548 0.788566
Si Si5 0.054180 0.873197 0.872704
Si Si6 0.500000 0.997104 0.250000
Si Si7 0.399778 0.470653 0.791152
Si Si8 0.804731 0.321374 0.360702
O O1 0.750000 0.750000 0.500000
O O2 0.591924 0.635073 0.585061
O O3 0.568869 0.889804 0.659488
O O4 0.623129 0.640703 0.671354
O O5 0.698180 0.656443 0.408645
O O6 0.551474 0.449335 0.532825
O O7 0.721504 0.423257 0.454997
O O8 0.780205 0.651074 0.698530
O O9 0.857192 0.904221 0.650251
O O10 0.668824 0.912488 0.773614
O O11 0.058122 0.687793 0.868954
O O12 0.217663 0.660106 0.689941
O O13 0.083736 0.935193 0.787790
O O14 0.415870 0.895400 0.283295
O O15 0.500000 0.428352 0.750000
O O16 0.312137 0.351151 0.874455
#
# Coordination Sequence:
#
# PCOD9288128 Si02
#       8
#     8   8   8   8   8   4   8   8
#     4  12  25  40  57  95 126 164 204 251 312 372
#     4  11  20  39  59  89 124 160 202 253 310 365
#     4   9  19  36  63  81 117 153 201 253 295 361
#     4   8  19  37  57  89 109 151 203 241 301 360
#     4   9  19  36  63  84 114 158 206 243 302 370
#     4  12  22  42  64  86 130 158 202 262 306 360
#     4  11  20  40  63  85 122 162 207 246 306 365
#     4  10  22  38  64  87 118 162 206 253 300 371
#
# _framework density 21.920000999999999
#
# number of rings (size 3 to 8) (size 9 to 14) (size 15 to 20)
#    0.800    1.067    4.000    0.400    0.000    1.600 
#    9.600    0.000    0.000    4.000    0.000    0.000 
#    0.000    0.000    0.000    0.000    0.000    0.000 
#
# Total GULP energy -167060.813219 kJ/mol
# GULP energy per Si atom -5568.693774 kJ/mol
# Density = 2.187011 g / cm^3
# Si number density = 21.920001 Si / 1000 Ang^3
#
#
#
# Elastic Constant Matrix: (Units=GPa)
#
#
# Indices 1 2 3 4 5 6 
#
# 1 54.8284 -1.0023 6.5653 0.0002 0.0412 -0.0001
# 2 -1.0023 37.3171 11.3088 0.0006 -1.1730 -0.0007
# 3 6.5653 11.3088 48.9801 0.0001 2.4267 -0.0001
# 4 0.0002 0.0006 0.0001 22.2868 0.0000 -0.5563
# 5 0.0412 -1.1730 2.4267 0.0000 32.7224 0.0001
# 6 -0.0001 -0.0007 -0.0001 -0.5563 0.0001 24.6466
#
#
#
# Elastic Compliance Matrix: (Units=1/GPa)
#
#
# Indices 1 2 3 4 5 6 
#
# 1 0.018601 0.001361 -0.002819 0.000000 0.000234 0.000000
# 2 0.001361 0.028990 -0.006953 -0.000001 0.001553 0.000001
# 3 -0.002819 -0.006953 0.022494 0.000000 -0.001914 0.000000
# 4 0.000000 -0.000001 0.000000 0.044895 0.000000 0.001013
# 5 0.000234 0.001553 -0.001914 0.000000 0.030757 0.000000
# 6 0.000000 0.000001 0.000000 0.001013 0.000000 0.040596
#
#
# Mechanical properties :
#
#
# Convention : Reuss Voigt Hill
#
# Bulk Modulus (GPa) = 18.77441 19.42992 19.10216
# Shear Modulus (GPa) = 22.63366 24.21476 23.42421
#
# Velocity S-wave (km/s) = 3.21683 3.32729 3.27253
# Velocity P-wave (km/s) = 4.73084 4.86255 4.79715
#
# Compressibility (1/GPa) = 0.05326398
#
# Stress axis : x y z
#
# Youngs Moduli (GPa) = 53.76053 34.49488 44.45539
#
# Poissons Ratio (x) = -0.04696 0.12533
# Poissons Ratio (y) = -0.07319 0.30909
# Poissons Ratio (z) = 0.15156 0.23984
#
# Static dielectric constant tensor:
#      x y z
#    x 1.842480 0.000000 -0.000360 
#    y 0.000000 1.869300 0.000000 
#    z -0.000360 0.000000 1.810400 
# 
# From -- ./inp_files/176223.got.cif
#   From: 2010.05.17/outbox.cif.g08.bks.cpg/sg15_89_cif.got.tgz:176223.got - 2010.06.03 18:47:42.
