data_PCOD9288780
_publ_section_title
;
Structure prediction by ZEFSAII (Michael W. Deem and Ramdas Pophale) SiO2 
 PCOD9288780
Probable space group: C 2/C
;
_chemical_formula_sum "Si O2"
_cell_formula_units_Z 40
_cell_length_a 13.182857
_cell_length_b 28.321030
_cell_length_c 5.128883
_cell_angle_alpha 90.000000
_cell_angle_beta 60.736429
_cell_angle_gamma 90.000000
_cell_volume 1670.502775
_symmetry_space_group_name_H-M "C 2/C"
_symmetry_group_IT_number 15
_symmetry_cell_setting 'monoclinic'
loop_
_space_group_symop_operation_xyz
x,y,z
-x,y,1/2-z
-x,-y,-z
x,-y,1/2+z
1/2+x,1/2+y,z
1/2-x,1/2+y,1/2-z
1/2-x,1/2-y,-z
1/2+x,1/2-y,1/2+z
loop_
_atom_site_type_symbol
_atom_site_label
_atom_site_fract_x
_atom_site_fract_y
_atom_site_fract_z
Si Si1 0.771420 0.865311 0.183416
Si Si2 0.127199 0.776617 0.701925
Si Si3 0.500000 0.941296 0.750000
Si Si4 0.873284 0.357129 0.632280
Si Si5 0.500000 0.773753 0.750000
Si Si6 0.248339 0.527969 0.784965
O O1 0.856891 0.828577 0.939373
O O2 0.662379 0.859444 0.122520
O O3 0.734450 0.853954 0.526437
O O4 0.798663 0.920804 0.151060
O O5 0.250000 0.750000 0.500000
O O6 0.000000 0.762892 0.750000
O O7 0.101967 0.761273 0.030678
O O8 0.435719 0.905751 0.631276
O O9 0.606538 0.967773 0.476270
O O10 0.947036 0.311540 0.613122
O O11 0.282448 0.490121 0.526002
#
# Coordination Sequence:
#
# PCOD9288780 Si02
#       6
#     8   8   4   8   4   8
#     4  11  24  43  65  98 143 186 242 294 365 433
#     4  12  27  47  75 110 150 196 248 305 369 448
#     4   9  20  34  60  98 138 186 238 296 367 440
#     4  10  22  39  64  98 146 191 228 292 367 437
#     4  11  24  40  72 102 148 192 242 288 369 436
#     4  11  22  38  61  94 136 187 240 305 364 432
#
# _framework density 23.944889
#
# number of rings (size 3 to 8) (size 9 to 14) (size 15 to 20)
#    0.000    1.200    2.000    4.200    2.800   11.200 
#    0.000    0.000    0.000    1.200    0.000    0.000 
#    0.000    0.000    0.000    0.000    0.000    0.000 
#
# Total GULP energy -111658.228493 kJ/mol
# GULP energy per Si atom -5582.911425 kJ/mol
# Density = 2.389039 g / cm^3
# Si number density = 23.944889 Si / 1000 Ang^3
#
#
#
# Elastic Constant Matrix: (Units=GPa)
#
#
# Indices 1 2 3 4 5 6 
#
# 1 53.2269 4.5443 5.8594 0.0000 -6.9484 0.0000
# 2 4.5443 142.3236 55.8254 0.0000 -5.6286 0.0000
# 3 5.8594 55.8254 119.1529 0.0000 -1.3372 0.0000
# 4 0.0000 0.0000 0.0000 58.4936 0.0000 -3.0091
# 5 -6.9484 -5.6286 -1.3372 0.0000 24.9035 0.0000
# 6 0.0000 0.0000 0.0000 -3.0091 0.0000 10.6902
#
#
#
# Elastic Compliance Matrix: (Units=1/GPa)
#
#
# Indices 1 2 3 4 5 6 
#
# 1 0.019595 -0.000071 -0.000870 0.000000 0.005405 0.000000
# 2 -0.000071 0.008684 -0.004046 0.000000 0.001726 0.000000
# 3 -0.000870 -0.004046 0.010324 0.000000 -0.000603 0.000000
# 4 0.000000 0.000000 0.000000 0.017347 0.000000 0.004883
# 5 0.005405 0.001726 -0.000603 0.000000 0.042021 0.000000
# 6 0.000000 0.000000 0.000000 0.004883 0.000000 0.094918
#
#
# Mechanical properties :
#
#
# Convention : Reuss Voigt Hill
#
# Bulk Modulus (GPa) = 34.92814 49.68459 42.30637
# Shear Modulus (GPa) = 23.54006 35.38242 29.46124
#
# Velocity S-wave (km/s) = 3.13883 3.84821 3.51148
# Velocity P-wave (km/s) = 5.26829 6.36707 5.84356
#
# Compressibility (1/GPa) = 0.02863021
#
# Stress axis : x y z
#
# Youngs Moduli (GPa) = 51.03393 115.15961 96.86154
#
# Poissons Ratio (x) = 0.00815 0.08425
# Poissons Ratio (y) = 0.00361 0.39186
# Poissons Ratio (z) = 0.04439 0.46589
#
# Static dielectric constant tensor:
#      x y z
#    x 2.207080 0.000000 0.339030 
#    y 0.000000 1.921690 0.000000 
#    z 0.339030 0.000000 2.423870 
# 
# From -- ./inp_files/8594.got.cif
#   From: 2010.05.17/outbox.cif.g08.bks.cpg/sg15_5_cif.got.tgz:8594.got - 2010.06.03 18:47:42.
