data_PCOD9288085
_publ_section_title
;
Structure prediction by ZEFSAII (Michael W. Deem and Ramdas Pophale) SiO2 
 PCOD9288085
Probable space group: C 2/C
;
_chemical_formula_sum "Si O2"
_cell_formula_units_Z 64
_cell_length_a 21.722303
_cell_length_b 15.485918
_cell_length_c 16.091122
_cell_angle_alpha 90.000000
_cell_angle_beta 31.282873
_cell_angle_gamma 90.000000
_cell_volume 2810.716803
_symmetry_space_group_name_H-M "C 2/C"
_symmetry_group_IT_number 15
_symmetry_cell_setting 'monoclinic'
loop_
_space_group_symop_operation_xyz
x,y,z
-x,y,1/2-z
-x,-y,-z
x,-y,1/2+z
1/2+x,1/2+y,z
1/2-x,1/2+y,1/2-z
1/2-x,1/2-y,-z
1/2+x,1/2-y,1/2+z
loop_
_atom_site_type_symbol
_atom_site_label
_atom_site_fract_x
_atom_site_fract_y
_atom_site_fract_z
Si Si1 0.027017 0.667408 0.374813
Si Si2 0.791530 0.878726 0.022290
Si Si3 0.772172 0.614526 0.730754
Si Si4 0.508746 0.490485 0.149913
Si Si5 0.070815 0.497169 0.249575
Si Si6 0.837312 0.867706 0.791821
Si Si7 0.636907 0.926631 0.900914
Si Si8 0.019658 0.151996 0.940998
O O1 0.076602 0.600652 0.250087
O O2 0.101340 0.640170 0.370990
O O3 0.036149 0.769218 0.358684
O O4 0.887650 0.647696 0.549309
O O5 0.737587 0.837753 0.168253
O O6 0.694640 0.949549 0.107611
O O7 0.824090 0.828688 0.900124
O O8 0.902967 0.930825 0.931206
O O9 0.795493 0.511242 0.712503
O O10 0.649143 0.627569 0.825232
O O11 0.500000 0.445471 0.250000
O O12 0.390176 0.537489 0.254742
O O13 0.541130 0.425736 0.039488
O O14 0.000000 0.472875 0.250000
O O15 0.986995 0.462821 0.420144
O O16 0.716961 0.882586 0.879500
O O17 0.934868 0.827262 0.617233
#
# Coordination Sequence:
#
# PCOD9288085 Si02
#       8
#     8   8   8   8   8   8   8   8
#     4  11  26  38  61  94 128 168 209 249 327 390
#     4  11  20  38  67  91 115 155 221 272 295 357
#     4  11  21  41  65  85 121 165 215 260 302 368
#     4  10  22  38  63  93 119 158 213 258 304 366
#     4  11  21  39  65  93 119 160 217 270 310 364
#     4  11  22  36  64  93 117 160 214 260 309 366
#     4  11  20  39  66  90 116 164 219 258 304 375
#     4  12  25  40  60  94 135 166 198 260 328 385
#
# _framework density 22.769991999999998
#
# number of rings (size 3 to 8) (size 9 to 14) (size 15 to 20)
#    0.000    1.000    6.250    1.875    1.750    0.500 
#    0.000    0.625    5.500    4.500    0.000    0.000 
#    0.000    0.000    0.000    0.000    0.000    0.000 
#
# Total GULP energy -178762.246096 kJ/mol
# GULP energy per Si atom -5586.320190 kJ/mol
# Density = 2.271817 g / cm^3
# Si number density = 22.769992 Si / 1000 Ang^3
#
#
#
# Elastic Constant Matrix: (Units=GPa)
#
#
# Indices 1 2 3 4 5 6 
#
# 1 95.8755 -1.7526 15.3016 0.0000 -20.3329 0.0000
# 2 -1.7526 33.2674 0.9577 0.0000 -15.2502 0.0000
# 3 15.3016 0.9577 68.5325 0.0000 -19.9082 0.0000
# 4 0.0000 0.0000 0.0000 15.5491 0.0000 -9.0651
# 5 -20.3329 -15.2502 -19.9082 0.0000 38.1273 0.0000
# 6 0.0000 0.0000 0.0000 -9.0651 0.0000 9.9721
#
#
#
# Elastic Compliance Matrix: (Units=1/GPa)
#
#
# Indices 1 2 3 4 5 6 
#
# 1 0.012292 0.004352 -0.000466 0.000000 0.008053 0.000000
# 2 0.004352 0.039530 0.004412 0.000000 0.020436 0.000000
# 3 -0.000466 0.004412 0.017770 0.000000 0.010795 0.000000
# 4 0.000000 0.000000 0.000000 0.136827 0.000000 0.124382
# 5 0.008053 0.020436 0.010795 0.000000 0.044333 0.000000
# 6 0.000000 0.000000 0.000000 0.124382 0.000000 0.213348
#
#
# Mechanical properties :
#
#
# Convention : Reuss Voigt Hill
#
# Bulk Modulus (GPa) = 11.60235 25.18764 18.39500
# Shear Modulus (GPa) = 10.49910 24.94095 17.72003
#
# Velocity S-wave (km/s) = 2.14964 3.31319 2.79268
# Velocity P-wave (km/s) = 3.35675 5.07169 4.30057
#
# Compressibility (1/GPa) = 0.08618945
#
# Stress axis : x y z
#
# Youngs Moduli (GPa) = 81.35427 25.29719 56.27510
#
# Poissons Ratio (x) = -0.11011 0.02623
# Poissons Ratio (y) = -0.35409 -0.24831
# Poissons Ratio (z) = 0.03792 -0.11162
#
# Static dielectric constant tensor:
#      x y z
#    x 1.836530 0.000000 0.066360 
#    y 0.000000 1.881590 0.000000 
#    z 0.066360 0.000000 1.903990 
# 
# From -- ./inp_files/219698.got.cif
#   From: 2010.05.17/outbox.cif.g08.bks.cpg/sg15_110_cif.got.tgz:219698.got - 2010.06.03 18:47:42.
