data_PCOD9288976
_publ_section_title
;
Structure prediction by ZEFSAII (Michael W. Deem and Ramdas Pophale) SiO2 
 PCOD9288976
Probable space group: C 2/C
;
_chemical_formula_sum "Si O2"
_cell_formula_units_Z 60
_cell_length_a 16.088710
_cell_length_b 12.756166
_cell_length_c 14.269389
_cell_angle_alpha 90.000000
_cell_angle_beta 71.553492
_cell_angle_gamma 90.000000
_cell_volume 2778.041969
_symmetry_space_group_name_H-M "C 2/C"
_symmetry_group_IT_number 15
_symmetry_cell_setting 'monoclinic'
loop_
_space_group_symop_operation_xyz
x,y,z
-x,y,1/2-z
-x,-y,-z
x,-y,1/2+z
1/2+x,1/2+y,z
1/2-x,1/2+y,1/2-z
1/2-x,1/2-y,-z
1/2+x,1/2-y,1/2+z
loop_
_atom_site_type_symbol
_atom_site_label
_atom_site_fract_x
_atom_site_fract_y
_atom_site_fract_z
Si Si1 0.699870 0.139756 0.998557
Si Si2 0.589182 0.237349 0.893827
Si Si3 0.317936 0.359999 0.098750
Si Si4 0.000000 0.362677 0.250000
Si Si5 0.234777 0.160127 0.214174
Si Si6 0.852516 0.977521 0.897966
Si Si7 0.003646 0.900869 0.067788
Si Si8 0.836757 0.479162 0.806201
O O1 0.628965 0.143365 0.940856
O O2 0.772089 0.054824 0.945802
O O3 0.750000 0.250000 0.000000
O O4 0.656107 0.099864 0.109412
O O5 0.521061 0.206720 0.835612
O O6 0.676606 0.286939 0.816147
O O7 0.549321 0.312903 0.987336
O O8 0.270656 0.249653 0.131879
O O9 0.406455 0.365417 0.127943
O O10 0.250576 0.450366 0.152032
O O11 0.348594 0.390706 0.982972
O O12 0.083863 0.439332 0.217758
O O13 0.165668 0.084407 0.189130
O O14 0.316222 0.093158 0.224127
O O15 0.936381 0.052436 0.872131
O O16 0.000000 0.000000 0.000000
#
# Coordination Sequence:
#
# PCOD9288976 Si02
#       8
#     8   8   8   4   8   8   8   8
#     4  11  21  45  72  94 137 188 224 277 355 414
#     4  12  25  44  71  99 139 186 227 288 353 410
#     4  10  23  44  64  97 139 179 230 279 345 418
#     4  12  28  44  68 108 142 176 236 292 340 408
#     4  12  23  41  73 100 138 177 231 288 347 398
#     4  10  22  39  69  99 134 180 226 284 344 414
#     4  10  22  41  63  96 135 176 226 278 338 415
#     4  11  25  46  68 100 140 180 232 287 336 421
#
# _framework density 21.597946
#
# number of rings (size 3 to 8) (size 9 to 14) (size 15 to 20)
#    0.000    1.067    4.000    2.800    3.733    3.733 
#    0.000    0.000    0.000    0.000    0.000    0.000 
#    0.000    0.000    0.000    0.000    0.000    0.000 
#
# Total GULP energy -167548.138722 kJ/mol
# GULP energy per Si atom -5584.937957 kJ/mol
# Density = 2.154879 g / cm^3
# Si number density = 21.597946 Si / 1000 Ang^3
#
#
#
# Elastic Constant Matrix: (Units=GPa)
#
#
# Indices 1 2 3 4 5 6 
#
# 1 127.0395 36.3676 35.7274 0.0000 13.7402 0.0000
# 2 36.3676 72.0902 23.8390 0.0000 14.7615 0.0000
# 3 35.7274 23.8390 48.9100 0.0000 15.1710 0.0000
# 4 0.0000 0.0000 0.0000 5.3942 0.0000 17.1935
# 5 13.7402 14.7615 15.1710 0.0000 41.0079 0.0000
# 6 0.0000 0.0000 0.0000 17.1935 0.0000 44.4389
#
#
#
# Elastic Compliance Matrix: (Units=1/GPa)
#
#
# Indices 1 2 3 4 5 6 
#
# 1 0.010527 -0.003287 -0.006055 0.000000 -0.000104 0.000000
# 2 -0.003287 0.017982 -0.005306 0.000000 -0.003409 0.000000
# 3 -0.006055 -0.005306 0.029634 0.000000 -0.007024 0.000000
# 4 0.000000 0.000000 0.000000 -0.794948 0.000000 0.307567
# 5 -0.000104 -0.003409 -0.007024 0.000000 0.028246 0.000000
# 6 0.000000 0.000000 0.000000 0.307567 0.000000 -0.096495
#
#
# Mechanical properties :
#
#
# Convention : Reuss Voigt Hill
#
# Bulk Modulus (GPa) = 34.66676 48.87863 41.77269
# Shear Modulus (GPa) = -6.52621 28.30858 10.89119
#
# Velocity S-wave (km/s) = -1.74018 3.62430 2.24803
# Velocity P-wave (km/s) = 3.47104 6.33990 5.11089
#
# Compressibility (1/GPa) = 0.02884607
#
# Stress axis : x y z
#
# Youngs Moduli (GPa) = 94.99731 55.61011 33.74492
#
# Poissons Ratio (x) = 0.18278 0.20433
# Poissons Ratio (y) = 0.31224 0.17907
# Poissons Ratio (z) = 0.57523 0.29509
#
# Static dielectric constant tensor:
#      x y z
#    x 1.688540 0.000000 0.161670 
#    y 0.000000 1.789890 0.000000 
#    z 0.161670 0.000000 1.763910 
# 
# From -- ./inp_files/161310.got.cif
#   From: 2010.05.17/outbox.cif.g08.bks.cpg/sg15_81_cif.got.tgz:161310.got - 2010.06.03 18:47:42.
