data_PCOD9288258
_publ_section_title
;
Structure prediction by ZEFSAII (Michael W. Deem and Ramdas Pophale) SiO2 
 PCOD9288258
Probable space group: C 2/C
;
_chemical_formula_sum "Si O2"
_cell_formula_units_Z 56
_cell_length_a 16.809801
_cell_length_b 9.160215
_cell_length_c 15.591649
_cell_angle_alpha 90.000000
_cell_angle_beta 110.249587
_cell_angle_gamma 90.000000
_cell_volume 2252.438083
_symmetry_space_group_name_H-M "C 2/C"
_symmetry_group_IT_number 15
_symmetry_cell_setting 'monoclinic'
loop_
_space_group_symop_operation_xyz
x,y,z
-x,y,1/2-z
-x,-y,-z
x,-y,1/2+z
1/2+x,1/2+y,z
1/2-x,1/2+y,1/2-z
1/2-x,1/2-y,-z
1/2+x,1/2-y,1/2+z
loop_
_atom_site_type_symbol
_atom_site_label
_atom_site_fract_x
_atom_site_fract_y
_atom_site_fract_z
Si Si1 0.453841 0.883124 0.044032
Si Si2 0.161681 0.167394 0.959220
Si Si3 0.546108 0.356803 0.677072
Si Si4 0.519306 0.335729 0.078600
Si Si5 0.856883 0.750884 0.240717
Si Si6 0.733455 0.458825 0.767181
Si Si7 0.229793 0.588162 0.018972
O O1 0.513066 0.801545 0.134716
O O2 0.427360 0.743985 0.974938
O O3 0.365950 0.949332 0.046155
O O4 0.500000 0.000000 0.000000
O O5 0.133068 0.192225 0.851204
O O6 0.078110 0.202870 0.980453
O O7 0.193318 0.006017 0.989831
O O8 0.250000 0.250000 0.000000
O O9 0.500000 0.391234 0.750000
O O10 0.524534 0.492979 0.604559
O O11 0.647078 0.365357 0.726016
O O12 0.555465 0.254852 0.176305
O O13 0.805576 0.602048 0.231878
O O14 0.796861 0.876175 0.261086
O O15 0.766193 0.443497 0.877164
O O16 0.250000 0.750000 0.000000
#
# Coordination Sequence:
#
# PCOD9288258 Si02
#       7
#     8   8   8   8   8   8   8
#     4  12  26  43  69 104 143 177 223 290 351 401
#     4  11  24  40  66  96 132 169 219 277 335 402
#     4  11  24  44  70  99 134 185 234 279 336 413
#     4  11  22  45  70  97 130 181 230 277 333 409
#     4  10  22  41  63  94 127 173 217 271 330 395
#     4  10  22  38  66  91 127 168 220 271 323 392
#     4  11  23  43  65  95 133 175 219 271 338 403
#
# _framework density 24.861947000000001
#
# number of rings (size 3 to 8) (size 9 to 14) (size 15 to 20)
#    0.000    1.143    1.429    6.000    6.000    1.143 
#    0.000    5.000    0.000    0.000    0.000    0.000 
#    0.000    0.000    0.000    0.000    0.000    0.000 
#
# Total GULP energy -156621.361039 kJ/mol
# GULP energy per Si atom -5593.620037 kJ/mol
# Density = 2.480536 g / cm^3
# Si number density = 24.861947 Si / 1000 Ang^3
#
#
#
# Elastic Constant Matrix: (Units=GPa)
#
#
# Indices 1 2 3 4 5 6 
#
# 1 118.9001 25.0598 5.6785 0.0000 23.0828 0.0000
# 2 25.0598 70.9657 10.9207 0.0000 -4.6789 0.0000
# 3 5.6785 10.9207 46.2019 0.0000 16.6505 0.0000
# 4 0.0000 0.0000 0.0000 36.9653 0.0000 -3.3250
# 5 23.0828 -4.6789 16.6505 0.0000 39.2320 0.0000
# 6 0.0000 0.0000 0.0000 -3.3250 0.0000 32.3414
#
#
#
# Elastic Compliance Matrix: (Units=1/GPa)
#
#
# Indices 1 2 3 4 5 6 
#
# 1 0.010867 -0.004792 0.002724 0.000000 -0.008121 0.000000
# 2 -0.004792 0.017230 -0.006187 0.000000 0.007500 0.000000
# 3 0.002724 -0.006187 0.027879 0.000000 -0.014173 0.000000
# 4 0.000000 0.000000 0.000000 0.027305 0.000000 0.002807
# 5 -0.008121 0.007500 -0.014173 0.000000 0.037177 0.000000
# 6 0.000000 0.000000 0.000000 0.002807 0.000000 0.031209
#
#
# Mechanical properties :
#
#
# Convention : Reuss Voigt Hill
#
# Bulk Modulus (GPa) = 25.33773 35.48729 30.41251
# Shear Modulus (GPa) = 27.57371 34.66832 31.12101
#
# Velocity S-wave (km/s) = 3.33389 3.73826 3.54185
# Velocity P-wave (km/s) = 5.00332 5.73912 5.38381
#
# Compressibility (1/GPa) = 0.03946683
#
# Stress axis : x y z
#
# Youngs Moduli (GPa) = 92.02218 58.03822 35.86891
#
# Poissons Ratio (x) = 0.27812 -0.09770
# Poissons Ratio (y) = 0.44097 0.22191
# Poissons Ratio (z) = -0.25066 0.35906
#
# Static dielectric constant tensor:
#      x y z
#    x 1.483780 0.000000 -0.339920 
#    y 0.000000 2.054900 0.000000 
#    z -0.339920 0.000000 1.707300 
# 
# From -- ./inp_files/214035.got.cif
#   From: 2010.05.17/outbox.cif.g08.bks.cpg/sg15_108_cif.got.tgz:214035.got - 2010.06.03 18:47:42.
