data_PCOD9288329
_publ_section_title
;
Structure prediction by ZEFSAII (Michael W. Deem and Ramdas Pophale) SiO2 
 PCOD9288329
Probable space group: C 2/C
;
_chemical_formula_sum "Si O2"
_cell_formula_units_Z 60
_cell_length_a 25.113653
_cell_length_b 8.384869
_cell_length_c 20.062130
_cell_angle_alpha 90.000000
_cell_angle_beta 42.946451
_cell_angle_gamma 90.000000
_cell_volume 2878.265587
_symmetry_space_group_name_H-M "C 2/C"
_symmetry_group_IT_number 15
_symmetry_cell_setting 'monoclinic'
loop_
_space_group_symop_operation_xyz
x,y,z
-x,y,1/2-z
-x,-y,-z
x,-y,1/2+z
1/2+x,1/2+y,z
1/2-x,1/2+y,1/2-z
1/2-x,1/2-y,-z
1/2+x,1/2-y,1/2+z
loop_
_atom_site_type_symbol
_atom_site_label
_atom_site_fract_x
_atom_site_fract_y
_atom_site_fract_z
Si Si1 0.620118 0.615280 0.708331
Si Si2 0.218323 0.887320 0.311165
Si Si3 0.430678 0.872602 0.953447
Si Si4 0.000000 0.652586 0.250000
Si Si5 0.453475 0.377155 0.088243
Si Si6 0.766639 0.929433 0.965340
Si Si7 0.228538 0.839254 0.912867
Si Si8 0.696999 0.054884 0.385487
O O1 0.568445 0.733633 0.712957
O O2 0.573402 0.556580 0.815244
O O3 0.646911 0.465260 0.640754
O O4 0.696157 0.722091 0.659019
O O5 0.129008 0.852678 0.372510
O O6 0.238053 0.720793 0.328254
O O7 0.226561 0.035162 0.353951
O O8 0.268783 0.931489 0.200184
O O9 0.467228 0.925466 0.848481
O O10 0.494390 0.774788 0.938084
O O11 0.355983 0.751030 0.009929
O O12 0.395448 0.019700 0.027797
O O13 0.500000 0.500000 0.000000
O O14 0.715078 0.961788 0.947419
O O15 0.750000 0.750000 0.000000
O O16 0.757469 0.055844 0.033216
#
# Coordination Sequence:
#
# PCOD9288329 Si02
#       8
#     8   8   8   4   8   8   8   8
#     4  11  22  41  68  97 129 180 223 278 334 416
#     4  12  25  43  68 102 133 182 225 288 332 407
#     4  11  22  40  68  96 129 182 223 277 328 418
#     4  10  22  38  68  94 128 176 228 264 352 404
#     4  11  23  39  67  95 138 178 225 270 344 400
#     4  12  23  40  68 106 131 170 225 292 332 396
#     4  12  22  42  71 100 130 176 233 273 342 398
#     4  12  25  44  70  99 137 172 236 279 338 402
#
# _framework density 20.845889
#
# number of rings (size 3 to 8) (size 9 to 14) (size 15 to 20)
#    0.000    0.533    6.667    2.800    0.000    0.533 
#    0.000    0.000    2.933    1.600    0.000    0.000 
#    0.000    0.000    0.000    0.000    0.000    0.000 
#
# Total GULP energy -167225.345248 kJ/mol
# GULP energy per Si atom -5574.178175 kJ/mol
# Density = 2.079844 g / cm^3
# Si number density = 20.845889 Si / 1000 Ang^3
#
#
#
# Elastic Constant Matrix: (Units=GPa)
#
#
# Indices 1 2 3 4 5 6 
#
# 1 85.4318 5.6152 24.6560 0.0015 8.9073 -0.0003
# 2 5.6152 80.5959 42.8605 0.0062 12.5867 -0.0044
# 3 24.6560 42.8605 135.0579 0.0029 16.3293 -0.0039
# 4 0.0015 0.0062 0.0029 30.0559 -0.0036 10.4811
# 5 8.9073 12.5867 16.3293 -0.0036 38.8202 0.0033
# 6 -0.0003 -0.0044 -0.0039 10.4811 0.0033 13.2387
#
#
#
# Elastic Compliance Matrix: (Units=1/GPa)
#
#
# Indices 1 2 3 4 5 6 
#
# 1 0.012531 0.000650 -0.002235 -0.000001 -0.002146 0.000001
# 2 0.000650 0.015300 -0.004590 -0.000006 -0.003179 0.000010
# 3 -0.002235 -0.004590 0.009510 -0.000001 -0.002000 0.000002
# 4 -0.000001 -0.000006 -0.000001 0.045960 0.000010 -0.036387
# 5 -0.002146 -0.003179 -0.002000 0.000010 0.028124 -0.000017
# 6 0.000001 0.000010 0.000002 -0.036387 -0.000017 0.104343
#
#
# Mechanical properties :
#
#
# Convention : Reuss Voigt Hill
#
# Bulk Modulus (GPa) = 40.01027 49.70545 44.85786
# Shear Modulus (GPa) = 21.14635 31.61990 26.38312
#
# Velocity S-wave (km/s) = 3.18844 3.89889 3.56142
# Velocity P-wave (km/s) = 5.72625 6.64563 6.20300
#
# Compressibility (1/GPa) = 0.02499358
#
# Stress axis : x y z
#
# Youngs Moduli (GPa) = 79.80093 65.36154 105.14729
#
# Poissons Ratio (x) = -0.04252 0.23496
# Poissons Ratio (y) = -0.05191 0.48259
# Poissons Ratio (z) = 0.17832 0.29999
#
# Static dielectric constant tensor:
#      x y z
#    x 1.818470 0.000000 0.000360 
#    y 0.000000 1.827450 0.000000 
#    z 0.000360 0.000000 1.786520 
# 
# From -- ./inp_files/257188.got.cif
#   From: 2010.05.17/outbox.cif.g08.bks.cpg/sg15_129_cif.got.tgz:257188.got - 2010.06.03 18:47:42.
