data_PCOD9288781
_publ_section_title
;
Structure prediction by ZEFSAII (Michael W. Deem and Ramdas Pophale) SiO2 
 PCOD9288781
Probable space group: C 2/C
;
_chemical_formula_sum "Si O2"
_cell_formula_units_Z 56
_cell_length_a 13.091970
_cell_length_b 23.668642
_cell_length_c 13.207804
_cell_angle_alpha 90.000000
_cell_angle_beta 31.025623
_cell_angle_gamma 90.000000
_cell_volume 2109.460341
_symmetry_space_group_name_H-M "C 2/C"
_symmetry_group_IT_number 15
_symmetry_cell_setting 'monoclinic'
loop_
_space_group_symop_operation_xyz
x,y,z
-x,y,1/2-z
-x,-y,-z
x,-y,1/2+z
1/2+x,1/2+y,z
1/2-x,1/2+y,1/2-z
1/2-x,1/2-y,-z
1/2+x,1/2-y,1/2+z
loop_
_atom_site_type_symbol
_atom_site_label
_atom_site_fract_x
_atom_site_fract_y
_atom_site_fract_z
Si Si1 0.795304 0.798071 0.546379
Si Si2 0.775388 0.403592 0.479871
Si Si3 0.724841 0.414032 0.022725
Si Si4 0.163520 0.012745 0.916744
Si Si5 0.835055 0.497097 0.085411
Si Si6 0.807858 0.213905 0.693666
Si Si7 0.921521 0.295851 0.428108
O O1 0.750000 0.750000 0.500000
O O2 0.707040 0.855188 0.580128
O O3 0.723678 0.769856 0.710701
O O4 0.020766 0.814838 0.386865
O O5 0.661234 0.427175 0.478137
O O6 0.764225 0.452257 0.572294
O O7 0.000000 0.399584 0.250000
O O8 0.752773 0.343100 0.554203
O O9 0.500000 0.407924 0.250000
O O10 0.837653 0.438037 0.023369
O O11 0.730420 0.462223 0.933275
O O12 0.099847 0.004267 0.849867
O O13 0.405724 0.013953 0.645699
O O14 0.605607 0.181210 0.841171
O O15 0.870313 0.239404 0.532775
O O16 0.000000 0.281281 0.250000
#
# Coordination Sequence:
#
# PCOD9288781 Si02
#       7
#     8   8   8   8   8   8   8
#     4  11  24  45  66 101 138 169 228 278 332 411
#     4  10  22  39  64  99 128 174 219 270 329 395
#     4  11  24  41  68  97 130 176 215 274 335 389
#     4  11  23  43  66  97 133 171 222 273 331 404
#     4  11  23  41  65  92 133 169 222 270 328 403
#     4  10  23  43  70  98 131 181 221 273 342 399
#     4  10  22  42  70  96 135 173 224 278 328 397
#
# _framework density 26.547075
#
# number of rings (size 3 to 8) (size 9 to 14) (size 15 to 20)
#    0.000    1.429    2.857    1.714    2.000    5.714 
#    2.571    0.000   12.571    0.000    0.000    0.000 
#    0.000    0.000    0.000    0.000    0.000    0.000 
#
# Total GULP energy -156302.060594 kJ/mol
# GULP energy per Si atom -5582.216450 kJ/mol
# Density = 2.648665 g / cm^3
# Si number density = 26.547075 Si / 1000 Ang^3
#
#
#
# Elastic Constant Matrix: (Units=GPa)
#
#
# Indices 1 2 3 4 5 6 
#
# 1 192.9120 76.0081 50.6031 0.0111 -10.3906 -0.0072
# 2 76.0081 126.7180 9.4138 0.0086 18.9426 -0.0078
# 3 50.6031 9.4138 106.0125 0.0276 3.4485 -0.0255
# 4 0.0111 0.0086 0.0276 17.5045 -0.0121 5.0128
# 5 -10.3906 18.9426 3.4485 -0.0121 66.8542 0.0092
# 6 -0.0072 -0.0078 -0.0255 5.0128 0.0092 45.8750
#
#
#
# Elastic Compliance Matrix: (Units=1/GPa)
#
#
# Indices 1 2 3 4 5 6 
#
# 1 0.008324 -0.005165 -0.003611 0.000006 0.002943 -0.000003
# 2 -0.005165 0.011491 0.001580 -0.000009 -0.004140 0.000004
# 3 -0.003611 0.001580 0.011067 -0.000019 -0.001580 0.000008
# 4 0.000006 -0.000009 -0.000019 0.058974 0.000016 -0.006444
# 5 0.002943 -0.004140 -0.001580 0.000016 0.016670 -0.000006
# 6 -0.000003 0.000004 0.000008 -0.006444 -0.000006 0.022503
#
#
# Mechanical properties :
#
#
# Convention : Reuss Voigt Hill
#
# Bulk Modulus (GPa) = 60.63842 77.52137 69.07989
# Shear Modulus (GPa) = 33.57558 45.35457 39.46508
#
# Velocity S-wave (km/s) = 3.56020 4.13783 3.85984
# Velocity P-wave (km/s) = 6.30805 7.21760 6.77810
#
# Compressibility (1/GPa) = 0.01649120
#
# Stress axis : x y z
#
# Youngs Moduli (GPa) = 120.12968 87.02396 90.35532
#
# Poissons Ratio (x) = 0.44947 0.32624
# Poissons Ratio (y) = 0.62046 -0.14273
# Poissons Ratio (z) = 0.43374 -0.13747
#
# Static dielectric constant tensor:
#      x y z
#    x 2.050110 0.000000 -0.260440 
#    y 0.000000 2.033150 0.000000 
#    z -0.260440 0.000000 2.832960 
# 
# From -- ./inp_files/157203.got.cif
#   From: 2010.05.17/outbox.cif.g08.bks.cpg/sg15_79_cif.got.tgz:157203.got - 2010.06.03 18:47:42.
