data_PCOD9288654
_publ_section_title
;
Structure prediction by ZEFSAII (Michael W. Deem and Ramdas Pophale) SiO2 
 PCOD9288654
Probable space group: C 2/C
;
_chemical_formula_sum "Si O2"
_cell_formula_units_Z 40
_cell_length_a 14.257645
_cell_length_b 17.336571
_cell_length_c 13.310367
_cell_angle_alpha 90.000000
_cell_angle_beta 146.391414
_cell_angle_gamma 90.000000
_cell_volume 1821.090342
_symmetry_space_group_name_H-M "C 2/C"
_symmetry_group_IT_number 15
_symmetry_cell_setting 'monoclinic'
loop_
_space_group_symop_operation_xyz
x,y,z
-x,y,1/2-z
-x,-y,-z
x,-y,1/2+z
1/2+x,1/2+y,z
1/2-x,1/2+y,1/2-z
1/2-x,1/2-y,-z
1/2+x,1/2-y,1/2+z
loop_
_atom_site_type_symbol
_atom_site_label
_atom_site_fract_x
_atom_site_fract_y
_atom_site_fract_z
Si Si1 0.431946 0.819905 0.074245
Si Si2 0.731515 0.997493 0.359567
Si Si3 0.797175 0.172602 0.854935
Si Si4 0.149564 0.488779 0.520411
Si Si5 0.540315 0.401200 0.167524
O O1 0.500000 0.828587 0.250000
O O2 0.599466 0.819078 0.155479
O O3 0.329237 0.896234 0.951937
O O4 0.341942 0.739817 0.972397
O O5 0.809628 0.912139 0.415433
O O6 0.682031 0.004085 0.431672
O O7 0.551330 0.006605 0.142280
O O8 0.875641 0.060169 0.470874
O O9 0.906420 0.171979 0.851152
O O10 0.297996 0.540399 0.700477
O O11 0.500000 0.388937 0.250000
#
# Coordination Sequence:
#
# PCOD9288654 Si02
#       5
#     8   8   8   8   8
#     4  11  22  38  61  91 131 160 200 256 319 381
#     4   9  18  35  59  89 119 152 205 252 310 363
#     4  11  23  38  57  94 122 165 207 243 320 374
#     4   9  18  37  60  89 120 158 201 258 314 358
#     4  10  22  39  63  89 124 163 209 260 297 362
#
# _framework density 21.964863000000001
#
# number of rings (size 3 to 8) (size 9 to 14) (size 15 to 20)
#    0.000    2.000    4.000    1.200    2.800    4.000 
#    3.600    1.000    0.000    0.000    0.000    0.000 
#    0.000    0.000    0.000    0.000    0.000    0.000 
#
# Total GULP energy -111613.350759 kJ/mol
# GULP energy per Si atom -5580.667538 kJ/mol
# Density = 2.191487 g / cm^3
# Si number density = 21.964863 Si / 1000 Ang^3
#
#
#
# Elastic Constant Matrix: (Units=GPa)
#
#
# Indices 1 2 3 4 5 6 
#
# 1 79.8528 26.3108 37.7195 0.0000 16.8216 0.0000
# 2 26.3108 56.2291 28.9360 0.0000 -7.2965 0.0000
# 3 37.7195 28.9360 63.9111 0.0000 -2.8148 0.0000
# 4 0.0000 0.0000 0.0000 24.6619 0.0000 0.0571
# 5 16.8216 -7.2965 -2.8148 0.0000 37.5009 0.0000
# 6 0.0000 0.0000 0.0000 0.0571 0.0000 30.8587
#
#
#
# Elastic Compliance Matrix: (Units=1/GPa)
#
#
# Indices 1 2 3 4 5 6 
#
# 1 0.022264 -0.006449 -0.010751 0.000000 -0.012049 0.000000
# 2 -0.006449 0.025588 -0.007457 0.000000 0.007312 0.000000
# 3 -0.010751 -0.007457 0.025601 0.000000 0.005293 0.000000
# 4 0.000000 0.000000 0.000000 0.040549 0.000000 -0.000075
# 5 -0.012049 0.007312 0.005293 0.000000 0.033891 0.000000
# 6 0.000000 0.000000 0.000000 -0.000075 0.000000 0.032406
#
#
# Mechanical properties :
#
#
# Convention : Reuss Voigt Hill
#
# Bulk Modulus (GPa) = 41.42540 42.88062 42.15301
# Shear Modulus (GPa) = 21.03849 25.73943 23.38896
#
# Velocity S-wave (km/s) = 3.09823 3.42694 3.26672
# Velocity P-wave (km/s) = 5.63023 5.93492 5.78458
#
# Compressibility (1/GPa) = 0.02413978
#
# Stress axis : x y z
#
# Youngs Moduli (GPa) = 44.91461 39.08046 39.06064
#
# Poissons Ratio (x) = 0.25203 0.41994
# Poissons Ratio (y) = 0.28965 0.29128
# Poissons Ratio (z) = 0.48288 0.29143
#
# Static dielectric constant tensor:
#      x y z
#    x 1.917590 0.000000 -0.040200 
#    y 0.000000 1.793600 0.000000 
#    z -0.040200 0.000000 1.870410 
# 
# From -- ./inp_files/37863.got.cif
#   From: 2010.05.17/outbox.cif.g08.bks.cpg/sg15_19_cif.got.tgz:37863.got - 2010.06.03 18:47:42.
