data_PCOD9288054
_publ_section_title
;
Structure prediction by ZEFSAII (Michael W. Deem and Ramdas Pophale) SiO2 
 PCOD9288054
Probable space group: C 2/C
;
_chemical_formula_sum "Si O2"
_cell_formula_units_Z 44
_cell_length_a 12.191666
_cell_length_b 9.259060
_cell_length_c 18.513521
_cell_angle_alpha 90.000000
_cell_angle_beta 92.840089
_cell_angle_gamma 90.000000
_cell_volume 2087.301628
_symmetry_space_group_name_H-M "C 2/C"
_symmetry_group_IT_number 15
_symmetry_cell_setting 'monoclinic'
loop_
_space_group_symop_operation_xyz
x,y,z
-x,y,1/2-z
-x,-y,-z
x,-y,1/2+z
1/2+x,1/2+y,z
1/2-x,1/2+y,1/2-z
1/2-x,1/2-y,-z
1/2+x,1/2-y,1/2+z
loop_
_atom_site_type_symbol
_atom_site_label
_atom_site_fract_x
_atom_site_fract_y
_atom_site_fract_z
Si Si1 0.958019 0.150894 0.325378
Si Si2 0.812536 0.649195 0.426475
Si Si3 0.000000 0.322134 0.750000
Si Si4 0.341399 0.621705 0.818835
Si Si5 0.418296 0.627690 0.025032
Si Si6 0.841766 0.550670 0.792902
O O1 0.908953 0.304022 0.303646
O O2 0.000000 0.090086 0.250000
O O3 0.043591 0.161553 0.392490
O O4 0.869002 0.034998 0.349329
O O5 0.774029 0.780032 0.371894
O O6 0.711910 0.592854 0.471750
O O7 0.909544 0.727261 0.475274
O O8 0.841846 0.524972 0.370769
O O9 0.953100 0.213664 0.809025
O O10 0.898458 0.434775 0.740101
O O11 0.275417 0.595938 0.742938
O O12 0.500000 0.500000 0.000000
#
# Coordination Sequence:
#
# PCOD9288054 Si02
#       6
#     8   8   4   8   8   8
#     4  12  22  39  69  96 127 174 219 271 333 397
#     4  10  24  41  65  92 133 176 221 279 329 401
#     4  10  22  38  62  94 138 172 210 278 340 366
#     4  11  21  40  64  98 132 177 222 273 332 397
#     4  11  23  45  66  90 130 179 226 269 344 406
#     4  11  23  39  62 104 133 167 225 281 323 398
#
# _framework density 21.079846
#
# number of rings (size 3 to 8) (size 9 to 14) (size 15 to 20)
#    0.000    1.091    3.636    4.364    0.000    0.727 
#    0.000    0.909    0.000    0.000    0.000    0.000 
#    0.000    0.000    0.000    0.000    0.000    0.000 
#
# Total GULP energy -122496.145363 kJ/mol
# GULP energy per Si atom -5568.006607 kJ/mol
# Density = 2.103187 g / cm^3
# Si number density = 21.079846 Si / 1000 Ang^3
#
#
#
# Elastic Constant Matrix: (Units=GPa)
#
#
# Indices 1 2 3 4 5 6 
#
# 1 85.4305 43.2975 32.7512 0.0000 -10.0831 0.0000
# 2 43.2975 121.4553 19.5789 0.0000 -3.4199 0.0000
# 3 32.7512 19.5789 78.2244 0.0000 6.4194 0.0000
# 4 0.0000 0.0000 0.0000 19.9478 0.0000 -10.7549
# 5 -10.0831 -3.4199 6.4194 0.0000 30.6519 0.0000
# 6 0.0000 0.0000 0.0000 -10.7549 0.0000 27.9272
#
#
#
# Elastic Compliance Matrix: (Units=1/GPa)
#
#
# Indices 1 2 3 4 5 6 
#
# 1 0.017571 -0.005006 -0.006647 0.000000 0.006614 0.000000
# 2 -0.005006 0.010068 -0.000388 0.000000 -0.000442 0.000000
# 3 -0.006647 -0.000388 0.016124 0.000000 -0.005606 0.000000
# 4 0.000000 0.000000 0.000000 0.063267 0.000000 0.024364
# 5 0.006614 -0.000442 -0.005606 0.000000 0.035925 0.000000
# 6 0.000000 0.000000 0.000000 0.024364 0.000000 0.045190
#
#
# Mechanical properties :
#
#
# Convention : Reuss Voigt Hill
#
# Bulk Modulus (GPa) = 50.80722 52.92948 51.86835
# Shear Modulus (GPa) = 22.85331 28.33755 25.59543
#
# Velocity S-wave (km/s) = 3.29619 3.67044 3.48834
# Velocity P-wave (km/s) = 6.21619 6.56707 6.39404
#
# Compressibility (1/GPa) = 0.01968224
#
# Stress axis : x y z
#
# Youngs Moduli (GPa) = 56.91088 99.32245 62.02082
#
# Poissons Ratio (x) = 0.49724 0.41222
# Poissons Ratio (y) = 0.28491 0.02404
# Poissons Ratio (z) = 0.37826 0.03850
#
# Static dielectric constant tensor:
#      x y z
#    x 1.819800 0.000000 -0.036430 
#    y 0.000000 1.754790 0.000000 
#    z -0.036430 0.000000 1.834790 
# 
# From -- ./inp_files/236074.got.cif
#   From: 2010.05.17/outbox.cif.g08.bks.cpg/sg15_119_cif.got.tgz:236074.got - 2010.06.03 18:47:42.
