data_PCOD9288216
_publ_section_title
;
Structure prediction by ZEFSAII (Michael W. Deem and Ramdas Pophale) SiO2 
 PCOD9288216
Probable space group: C 2/C
;
_chemical_formula_sum "Si O2"
_cell_formula_units_Z 40
_cell_length_a 5.469380
_cell_length_b 26.705964
_cell_length_c 14.196078
_cell_angle_alpha 90.000000
_cell_angle_beta 62.996161
_cell_angle_gamma 90.000000
_cell_volume 1847.484445
_symmetry_space_group_name_H-M "C 2/C"
_symmetry_group_IT_number 15
_symmetry_cell_setting 'monoclinic'
loop_
_space_group_symop_operation_xyz
x,y,z
-x,y,1/2-z
-x,-y,-z
x,-y,1/2+z
1/2+x,1/2+y,z
1/2-x,1/2+y,1/2-z
1/2-x,1/2-y,-z
1/2+x,1/2-y,1/2+z
loop_
_atom_site_type_symbol
_atom_site_label
_atom_site_fract_x
_atom_site_fract_y
_atom_site_fract_z
Si Si1 0.665952 0.281946 0.818679
Si Si2 0.773730 0.110305 0.141604
Si Si3 0.402232 0.516497 0.413366
Si Si4 0.332751 0.172947 0.680898
Si Si5 0.358108 0.920233 0.046254
O O1 0.500000 0.280418 0.750000
O O2 0.580859 0.335570 0.876165
O O3 0.604343 0.227705 0.875374
O O4 0.000000 0.281658 0.750000
O O5 0.500000 0.116534 0.250000
O O6 0.896879 0.058619 0.161180
O O7 0.742157 0.100795 0.036265
O O8 0.500000 0.500000 0.500000
O O9 0.342932 0.463045 0.376369
O O10 0.127913 0.548436 0.474984
O O11 0.500000 0.170208 0.750000
O O12 0.413813 0.125649 0.604501
O O13 0.000000 0.170084 0.750000
#
# Coordination Sequence:
#
# PCOD9288216 Si02
#       5
#     8   8   8   8   8
#     4   9  20  39  62  93 130 159 209 266 308 376
#     4  10  22  38  65  92 124 167 205 259 323 377
#     4   9  21  41  58  87 131 157 208 272 303 373
#     4  10  23  43  66  93 126 171 213 260 320 373
#     4  10  22  42  61  90 128 163 212 266 307 381
#
# _framework density 21.651062
#
# number of rings (size 3 to 8) (size 9 to 14) (size 15 to 20)
#    0.000    2.400    0.000    0.000   11.200    0.800 
#   10.800    1.000    0.000    0.000    0.000    0.000 
#    0.000    0.000    0.000    0.000    0.000    0.000 
#
# Total GULP energy -111380.839061 kJ/mol
# GULP energy per Si atom -5569.041953 kJ/mol
# Density = 2.160178 g / cm^3
# Si number density = 21.651062 Si / 1000 Ang^3
#
#
#
# Elastic Constant Matrix: (Units=GPa)
#
#
# Indices 1 2 3 4 5 6 
#
# 1 82.8567 32.8798 11.4464 0.0000 20.5335 0.0000
# 2 32.8798 257.8009 54.2132 0.0000 18.8535 0.0000
# 3 11.4464 54.2132 42.1848 0.0000 9.5571 0.0000
# 4 0.0000 0.0000 0.0000 31.4621 0.0000 19.0252
# 5 20.5335 18.8535 9.5571 0.0000 19.3263 0.0000
# 6 0.0000 0.0000 0.0000 19.0252 0.0000 45.2308
#
#
#
# Elastic Compliance Matrix: (Units=1/GPa)
#
#
# Indices 1 2 3 4 5 6 
#
# 1 0.016582 -0.001009 0.000638 0.000000 -0.016948 0.000000
# 2 -0.001009 0.005449 -0.006495 0.000000 -0.001031 0.000000
# 3 0.000638 -0.006495 0.034458 0.000000 -0.011381 0.000000
# 4 0.000000 0.000000 0.000000 0.042626 0.000000 -0.017930
# 5 -0.016948 -0.001031 -0.011381 0.000000 0.076383 0.000000
# 6 0.000000 0.000000 0.000000 -0.017930 0.000000 0.029651
#
#
# Mechanical properties :
#
#
# Convention : Reuss Voigt Hill
#
# Bulk Modulus (GPa) = 23.38942 64.43568 43.91255
# Shear Modulus (GPa) = 21.44687 38.15737 29.80212
#
# Velocity S-wave (km/s) = 3.15075 4.20262 3.71411
# Velocity P-wave (km/s) = 4.90537 7.30582 6.22244
#
# Compressibility (1/GPa) = 0.04275438
#
# Stress axis : x y z
#
# Youngs Moduli (GPa) = 60.30815 183.51974 29.02098
#
# Poissons Ratio (x) = 0.18526 -0.01851
# Poissons Ratio (y) = 0.06088 0.18850
# Poissons Ratio (z) = -0.03846 1.19199
#
# Static dielectric constant tensor:
#      x y z
#    x 1.867570 0.000000 -0.049820 
#    y 0.000000 2.038730 0.000000 
#    z -0.049820 0.000000 1.800430 
# 
# From -- ./inp_files/73192.got.cif
#   From: 2010.05.17/outbox.cif.g08.bks.cpg/sg15_37_cif.got.tgz:73192.got - 2010.06.03 18:47:42.
