data_PCOD9288839
_publ_section_title
;
Structure prediction by ZEFSAII (Michael W. Deem and Ramdas Pophale) SiO2 
 PCOD9288839
Probable space group: C 2/C
;
_chemical_formula_sum "Si O2"
_cell_formula_units_Z 44
_cell_length_a 24.655109
_cell_length_b 9.008072
_cell_length_c 27.640440
_cell_angle_alpha 90.000000
_cell_angle_beta 161.266706
_cell_angle_gamma 90.000000
_cell_volume 1971.558683
_symmetry_space_group_name_H-M "C 2/C"
_symmetry_group_IT_number 15
_symmetry_cell_setting 'monoclinic'
loop_
_space_group_symop_operation_xyz
x,y,z
-x,y,1/2-z
-x,-y,-z
x,-y,1/2+z
1/2+x,1/2+y,z
1/2-x,1/2+y,1/2-z
1/2-x,1/2-y,-z
1/2+x,1/2-y,1/2+z
loop_
_atom_site_type_symbol
_atom_site_label
_atom_site_fract_x
_atom_site_fract_y
_atom_site_fract_z
Si Si1 0.435707 0.429647 0.266913
Si Si2 0.343144 0.118479 0.513535
Si Si3 0.000000 0.320471 0.750000
Si Si4 0.544632 0.170910 0.595544
Si Si5 0.228197 0.413350 0.439792
Si Si6 0.281272 0.466415 0.733486
O O1 0.273770 0.479370 0.098791
O O2 0.517786 0.285754 0.311551
O O3 0.577862 0.554836 0.383293
O O4 0.373275 0.436188 0.269564
O O5 0.506287 0.121408 0.618080
O O6 0.238879 0.270351 0.414991
O O7 0.369369 0.121636 0.592865
O O8 0.150856 0.429003 0.860866
O O9 0.593794 0.344030 0.638351
O O10 0.371768 0.127144 0.421254
O O11 0.693283 0.075407 0.697171
#
# Coordination Sequence:
#
# PCOD9288839 Si02
#       6
#     8   8   4   8   8   8
#     4  11  22  43  59  90 130 160 200 263 299 374
#     4  10  22  39  66  85 124 163 212 244 302 369
#     4  12  26  36  60  94 132 156 204 248 332 352
#     4  10  22  43  64  94 125 163 210 257 308 367
#     4  11  23  38  63  93 119 168 201 254 301 378
#     4  10  23  43  66  91 126 165 208 260 309 365
#
# _framework density 22.317367000000001
#
# number of rings (size 3 to 8) (size 9 to 14) (size 15 to 20)
#    0.000    1.455    3.636    0.545    5.091    2.182 
#    6.545    0.000    0.000    0.000    0.000    0.000 
#    0.000    0.000    0.000    0.000    0.000    0.000 
#
# Total GULP energy -122807.190442 kJ/mol
# GULP energy per Si atom -5582.145020 kJ/mol
# Density = 2.226657 g / cm^3
# Si number density = 22.317367 Si / 1000 Ang^3
#
#
#
# Elastic Constant Matrix: (Units=GPa)
#
#
# Indices 1 2 3 4 5 6 
#
# 1 130.4651 29.5788 17.8176 -0.0015 41.9942 -0.0002
# 2 29.5788 71.1097 16.2700 -0.0047 5.8209 0.0040
# 3 17.8176 16.2700 33.1798 -0.0033 16.4276 0.0046
# 4 -0.0015 -0.0047 -0.0033 47.0640 0.0027 7.1866
# 5 41.9942 5.8209 16.4276 0.0027 31.5999 0.0018
# 6 -0.0002 0.0040 0.0046 7.1866 0.0018 20.6879
#
#
#
# Elastic Compliance Matrix: (Units=1/GPa)
#
#
# Indices 1 2 3 4 5 6 
#
# 1 0.015420 -0.005882 0.005674 0.000001 -0.022359 0.000001
# 2 -0.005882 0.018137 -0.010707 0.000001 0.010042 -0.000002
# 3 0.005674 -0.010707 0.047264 0.000005 -0.030138 -0.000008
# 4 0.000001 0.000001 0.000005 0.022438 -0.000006 -0.007795
# 5 -0.022359 0.010042 -0.030138 -0.000006 0.075177 0.000000
# 6 0.000001 -0.000002 -0.000008 -0.007795 0.000000 0.051045
#
#
# Mechanical properties :
#
#
# Convention : Reuss Voigt Hill
#
# Bulk Modulus (GPa) = 16.95187 40.23192 28.59190
# Shear Modulus (GPa) = 18.45178 31.27624 24.86401
#
# Velocity S-wave (km/s) = 2.87852 3.74763 3.34145
# Velocity P-wave (km/s) = 4.31974 6.06569 5.26558
#
# Compressibility (1/GPa) = 0.05899053
#
# Stress axis : x y z
#
# Youngs Moduli (GPa) = 64.84894 55.13504 21.15768
#
# Poissons Ratio (x) = 0.32431 -0.12004
# Poissons Ratio (y) = 0.38145 0.22654
# Poissons Ratio (z) = -0.36792 0.59033
#
# Static dielectric constant tensor:
#      x y z
#    x 1.827670 0.000000 -0.051040 
#    y 0.000000 1.835480 0.000000 
#    z -0.051040 0.000000 1.896600 
# 
# From -- ./inp_files/116225.got.cif
#   From: 2010.05.17/outbox.cif.g08.bks.cpg/sg15_59_cif.got.tgz:116225.got - 2010.06.03 18:47:42.
