data_PCOD9288596
_publ_section_title
;
Structure prediction by ZEFSAII (Michael W. Deem and Ramdas Pophale) SiO2 
 PCOD9288596
Probable space group: C 2/C
;
_chemical_formula_sum "Si O2"
_cell_formula_units_Z 40
_cell_length_a 18.030270
_cell_length_b 17.601565
_cell_length_c 8.955953
_cell_angle_alpha 90.000000
_cell_angle_beta 143.702703
_cell_angle_gamma 90.000000
_cell_volume 1682.553187
_symmetry_space_group_name_H-M "C 2/C"
_symmetry_group_IT_number 15
_symmetry_cell_setting 'monoclinic'
loop_
_space_group_symop_operation_xyz
x,y,z
-x,y,1/2-z
-x,-y,-z
x,-y,1/2+z
1/2+x,1/2+y,z
1/2-x,1/2+y,1/2-z
1/2-x,1/2-y,-z
1/2+x,1/2-y,1/2+z
loop_
_atom_site_type_symbol
_atom_site_label
_atom_site_fract_x
_atom_site_fract_y
_atom_site_fract_z
Si Si1 0.634221 0.082386 0.392418
Si Si2 0.500000 0.473404 0.750000
Si Si3 0.145617 0.150422 0.611094
Si Si4 0.769838 0.339251 0.007017
Si Si5 0.000000 0.709345 0.750000
Si Si6 0.748906 0.947235 0.778225
O O1 0.500000 0.098792 0.250000
O O2 0.740470 0.147127 0.590669
O O3 0.643823 0.066415 0.232698
O O4 0.693667 0.009367 0.573767
O O5 0.461254 0.414682 0.552658
O O6 0.377134 0.525108 0.564356
O O7 0.212930 0.126948 0.563379
O O8 0.081475 0.231783 0.482178
O O9 0.718884 0.374673 0.772374
O O10 0.750000 0.250000 0.000000
O O11 0.917768 0.342964 0.222743
#
# Coordination Sequence:
#
# PCOD9288596 Si02
#       6
#     8   4   8   8   4   8
#     4  11  24  39  63  99 134 162 209 271 330 386
#     4   9  20  38  64  94 126 155 212 268 324 381
#     4   9  20  40  63  92 124 166 210 268 319 373
#     4  10  22  39  62  90 122 172 217 254 316 383
#     4   9  20  38  66  82 122 173 222 252 306 385
#     4  11  23  38  64  96 127 171 206 269 330 373
#
# _framework density 23.773395000000001
#
# number of rings (size 3 to 8) (size 9 to 14) (size 15 to 20)
#    0.000    2.000    0.000    3.000    4.200   10.400 
#    0.000    4.000    8.800    0.000    0.000    0.000 
#    0.000    0.000    0.000    0.000    0.000    0.000 
#
# Total GULP energy -111602.565618 kJ/mol
# GULP energy per Si atom -5580.128281 kJ/mol
# Density = 2.371929 g / cm^3
# Si number density = 23.773395 Si / 1000 Ang^3
#
#
#
# Elastic Constant Matrix: (Units=GPa)
#
#
# Indices 1 2 3 4 5 6 
#
# 1 115.2331 13.9401 18.2646 0.0000 -0.7408 0.0000
# 2 13.9401 66.6676 35.7458 0.0000 2.9493 0.0000
# 3 18.2646 35.7458 78.2232 0.0000 15.7920 0.0000
# 4 0.0000 0.0000 0.0000 26.5593 0.0000 14.5351
# 5 -0.7408 2.9493 15.7920 0.0000 43.5361 0.0000
# 6 0.0000 0.0000 0.0000 14.5351 0.0000 13.9429
#
#
#
# Elastic Compliance Matrix: (Units=1/GPa)
#
#
# Indices 1 2 3 4 5 6 
#
# 1 0.009095 -0.000934 -0.001878 0.000000 0.000899 0.000000
# 2 -0.000934 0.020144 -0.009396 0.000000 0.002028 0.000000
# 3 -0.001878 -0.009396 0.018769 0.000000 -0.006203 0.000000
# 4 0.000000 0.000000 0.000000 0.087667 0.000000 -0.091391
# 5 0.000899 0.002028 -0.006203 0.000000 0.025098 0.000000
# 6 0.000000 0.000000 0.000000 -0.091391 0.000000 0.166993
#
#
# Mechanical properties :
#
#
# Convention : Reuss Voigt Hill
#
# Bulk Modulus (GPa) = 42.39220 44.00277 43.19749
# Shear Modulus (GPa) = 13.88715 29.61922 21.75319
#
# Velocity S-wave (km/s) = 2.41953 3.53356 3.02822
# Velocity P-wave (km/s) = 5.06715 5.93275 5.51695
#
# Compressibility (1/GPa) = 0.02358925
#
# Stress axis : x y z
#
# Youngs Moduli (GPa) = 109.95587 49.64366 53.28038
#
# Poissons Ratio (x) = 0.04639 0.10006
# Poissons Ratio (y) = 0.10275 0.50064
# Poissons Ratio (z) = 0.20650 0.46646
#
# Static dielectric constant tensor:
#      x y z
#    x 2.095280 0.000000 0.023050 
#    y 0.000000 1.962710 0.000000 
#    z 0.023050 0.000000 1.977560 
# 
# From -- ./inp_files/49988.got.cif
#   From: 2010.05.17/outbox.cif.g08.bks.cpg/sg15_25_cif.got.tgz:49988.got - 2010.06.03 18:47:42.
