data_PCOD9288442
_publ_section_title
;
Structure prediction by ZEFSAII (Michael W. Deem and Ramdas Pophale) SiO2 
 PCOD9288442
Probable space group: C 2/C
;
_chemical_formula_sum "Si O2"
_cell_formula_units_Z 60
_cell_length_a 9.237661
_cell_length_b 11.143134
_cell_length_c 26.310723
_cell_angle_alpha 90.000000
_cell_angle_beta 85.997012
_cell_angle_gamma 90.000000
_cell_volume 2701.726369
_symmetry_space_group_name_H-M "C 2/C"
_symmetry_group_IT_number 15
_symmetry_cell_setting 'monoclinic'
loop_
_space_group_symop_operation_xyz
x,y,z
-x,y,1/2-z
-x,-y,-z
x,-y,1/2+z
1/2+x,1/2+y,z
1/2-x,1/2+y,1/2-z
1/2-x,1/2-y,-z
1/2+x,1/2-y,1/2+z
loop_
_atom_site_type_symbol
_atom_site_label
_atom_site_fract_x
_atom_site_fract_y
_atom_site_fract_z
Si Si1 0.641294 0.906160 0.173816
Si Si2 0.737054 0.560434 0.420833
Si Si3 0.027905 0.885653 0.064786
Si Si4 0.753680 0.099278 0.426822
Si Si5 0.530301 0.844052 0.505972
Si Si6 0.000000 0.575949 0.250000
Si Si7 0.100936 0.277967 0.843882
Si Si8 0.974963 0.726941 0.599685
O O1 0.771126 0.811761 0.175769
O O2 0.504332 0.833325 0.153363
O O3 0.682258 0.996818 0.127588
O O4 0.618099 0.983122 0.224749
O O5 0.615498 0.464861 0.441364
O O6 0.850623 0.594219 0.461474
O O7 0.653177 0.676476 0.400790
O O8 0.052763 0.797279 0.017178
O O9 0.998309 0.800200 0.114636
O O10 0.157342 0.977581 0.070234
O O11 0.632639 0.126031 0.472120
O O12 0.667485 0.115353 0.376342
O O13 0.875627 0.204349 0.419909
O O14 0.549182 0.865108 0.445966
O O15 0.965177 0.661316 0.203640
#
# Coordination Sequence:
#
# PCOD9288442 Si02
#       8
#     8   8   8   8   8   4   8   8
#     4  10  23  42  60  83 118 151 190 250 302 352
#     4  10  22  39  59  89 123 159 202 240 287 347
#     4   9  20  39  60  83 120 161 196 244 291 337
#     4   9  19  37  61  87 121 165 200 235 294 346
#     4  11  21  35  59  92 125 161 207 240 270 339
#     4  12  24  40  64  88 108 144 196 248 310 366
#     4   9  21  40  59  86 114 144 197 249 294 360
#     4  10  22  39  59  89 128 163 197 239 287 348
#
# _framework density 22.208022
#
# number of rings (size 3 to 8) (size 9 to 14) (size 15 to 20)
#    0.000    2.133    0.000    3.200    0.000    8.000 
#    0.000    2.667    0.000    0.000    0.000    0.000 
#    0.000    0.000    0.000    0.000    0.000    0.000 
#
# Total GULP energy -167948.544132 kJ/mol
# GULP energy per Si atom -5598.284804 kJ/mol
# Density = 2.215748 g / cm^3
# Si number density = 22.208022 Si / 1000 Ang^3
#
#
#
# Elastic Constant Matrix: (Units=GPa)
#
#
# Indices 1 2 3 4 5 6 
#
# 1 91.0197 42.1122 15.0825 0.0000 4.1527 0.0000
# 2 42.1122 103.9874 26.8245 0.0000 2.4459 0.0000
# 3 15.0825 26.8245 57.1905 0.0000 6.3030 0.0000
# 4 0.0000 0.0000 0.0000 32.8104 0.0000 4.4093
# 5 4.1527 2.4459 6.3030 0.0000 21.0113 0.0000
# 6 0.0000 0.0000 0.0000 4.4093 0.0000 35.1255
#
#
#
# Elastic Compliance Matrix: (Units=1/GPa)
#
#
# Indices 1 2 3 4 5 6 
#
# 1 0.013651 -0.005243 -0.000942 0.000000 -0.001805 0.000000
# 2 -0.005243 0.012955 -0.004801 0.000000 0.000968 0.000000
# 3 -0.000942 -0.004801 0.020584 0.000000 -0.005430 0.000000
# 4 0.000000 0.000000 0.000000 0.031001 0.000000 -0.003892
# 5 -0.001805 0.000968 -0.005430 0.000000 0.049466 0.000000
# 6 0.000000 0.000000 0.000000 -0.003892 0.000000 0.028958
#
#
# Mechanical properties :
#
#
# Convention : Reuss Voigt Hill
#
# Bulk Modulus (GPa) = 39.65228 46.69289 43.17259
# Shear Modulus (GPa) = 26.73907 29.00135 27.87021
#
# Velocity S-wave (km/s) = 3.47367 3.61764 3.54639
# Velocity P-wave (km/s) = 5.82943 6.20650 6.02092
#
# Compressibility (1/GPa) = 0.02521923
#
# Stress axis : x y z
#
# Youngs Moduli (GPa) = 73.25607 77.18842 48.58157
#
# Poissons Ratio (x) = 0.40468 0.04577
# Poissons Ratio (y) = 0.38406 0.23322
# Poissons Ratio (z) = 0.06901 0.37055
#
# Static dielectric constant tensor:
#      x y z
#    x 1.855330 0.000000 -0.016680 
#    y 0.000000 1.872670 0.000000 
#    z -0.016680 0.000000 1.792630 
# 
# From -- ./inp_files/288045.got.cif
#   From: 2010.05.17/outbox.cif.g08.bks.cpg/sg15_145_cif.got.tgz:288045.got - 2010.06.03 18:47:42.
