data_PCOD9288898
_publ_section_title
;
Structure prediction by ZEFSAII (Michael W. Deem and Ramdas Pophale) SiO2 
 PCOD9288898
Probable space group: C 2/C
;
_chemical_formula_sum "Si O2"
_cell_formula_units_Z 60
_cell_length_a 27.799677
_cell_length_b 10.098369
_cell_length_c 8.912688
_cell_angle_alpha 90.000000
_cell_angle_beta 75.228400
_cell_angle_gamma 90.000000
_cell_volume 2419.377609
_symmetry_space_group_name_H-M "C 2/C"
_symmetry_group_IT_number 15
_symmetry_cell_setting 'monoclinic'
loop_
_space_group_symop_operation_xyz
x,y,z
-x,y,1/2-z
-x,-y,-z
x,-y,1/2+z
1/2+x,1/2+y,z
1/2-x,1/2+y,1/2-z
1/2-x,1/2-y,-z
1/2+x,1/2-y,1/2+z
loop_
_atom_site_type_symbol
_atom_site_label
_atom_site_fract_x
_atom_site_fract_y
_atom_site_fract_z
Si Si1 0.996894 0.143744 0.932407
Si Si2 0.000000 0.509547 0.750000
Si Si3 0.240157 0.061174 0.696121
Si Si4 0.597935 0.683850 0.966798
Si Si5 0.434580 0.136266 0.555086
Si Si6 0.861213 0.035337 0.862585
Si Si7 0.815069 0.677590 0.183422
Si Si8 0.163662 0.694325 0.997202
O O1 0.041980 0.225869 0.974469
O O2 0.000000 0.141703 0.750000
O O3 0.946071 0.209168 0.024709
O O4 0.000000 0.000000 0.000000
O O5 0.958618 0.588534 0.689192
O O6 0.967513 0.426049 0.894467
O O7 0.194053 0.994967 0.646082
O O8 0.212652 0.178471 0.812201
O O9 0.280356 0.152621 0.579807
O O10 0.274943 0.938535 0.713545
O O11 0.612379 0.603394 0.801643
O O12 0.637140 0.802695 0.961597
O O13 0.605762 0.579466 0.093533
O O14 0.376193 0.119705 0.573634
O O15 0.846849 0.148854 0.995686
O O16 0.841777 0.662148 0.323232
#
# Coordination Sequence:
#
# PCOD9288898 Si02
#       8
#     8   4   8   8   8   8   8   8
#     4  12  24  42  70  99 137 178 229 290 347 409
#     4  10  26  44  68  92 132 178 216 286 342 404
#     4  10  23  39  66  91 134 170 224 268 336 401
#     4  10  22  41  65  92 133 169 224 267 343 398
#     4  11  24  45  69  96 135 173 229 281 345 406
#     4  10  22  41  65  94 131 173 211 279 334 393
#     4  10  23  40  64  96 129 174 216 277 332 393
#     4  10  22  39  67  88 130 176 214 263 344 399
#
# _framework density 24.799766000000002
#
# number of rings (size 3 to 8) (size 9 to 14) (size 15 to 20)
#    0.000    1.867    0.667    4.800   10.267    1.600 
#    2.400    0.000    0.000    0.000    0.000    0.000 
#    0.000    0.000    0.000    0.000    0.000    0.000 
#
# Total GULP energy -167551.545507 kJ/mol
# GULP energy per Si atom -5585.051517 kJ/mol
# Density = 2.474332 g / cm^3
# Si number density = 24.799766 Si / 1000 Ang^3
#
#
#
# Elastic Constant Matrix: (Units=GPa)
#
#
# Indices 1 2 3 4 5 6 
#
# 1 151.4045 14.8820 21.0844 0.0000 28.7705 0.0000
# 2 14.8820 83.6992 13.8266 0.0000 25.1242 0.0000
# 3 21.0844 13.8266 47.8439 0.0000 12.3480 0.0000
# 4 0.0000 0.0000 0.0000 21.8069 0.0000 4.6655
# 5 28.7705 25.1242 12.3480 0.0000 31.5193 0.0000
# 6 0.0000 0.0000 0.0000 4.6655 0.0000 31.2884
#
#
#
# Elastic Compliance Matrix: (Units=1/GPa)
#
#
# Indices 1 2 3 4 5 6 
#
# 1 0.008221 0.001164 -0.001984 0.000000 -0.007655 0.000000
# 2 0.001164 0.015962 -0.001744 0.000000 -0.013102 0.000000
# 3 -0.001984 -0.001744 0.023867 0.000000 -0.006149 0.000000
# 4 0.000000 0.000000 0.000000 0.047368 0.000000 -0.007063
# 5 -0.007655 -0.013102 -0.006149 0.000000 0.051566 0.000000
# 6 0.000000 0.000000 0.000000 -0.007063 0.000000 0.033014
#
#
# Mechanical properties :
#
#
# Convention : Reuss Voigt Hill
#
# Bulk Modulus (GPa) = 23.29864 42.50375 32.90119
# Shear Modulus (GPa) = 25.07103 32.46656 28.76879
#
# Velocity S-wave (km/s) = 3.18297 3.62214 3.40964
# Velocity P-wave (km/s) = 4.78785 5.88805 5.36622
#
# Compressibility (1/GPa) = 0.04292096
#
# Stress axis : x y z
#
# Youngs Moduli (GPa) = 121.63567 62.65019 41.89966
#
# Poissons Ratio (x) = -0.07290 0.08312
# Poissons Ratio (y) = -0.14154 0.07308
# Poissons Ratio (z) = 0.24130 0.10927
#
# Static dielectric constant tensor:
#      x y z
#    x 2.016190 0.000000 -0.022550 
#    y 0.000000 2.036230 0.000000 
#    z -0.022550 0.000000 1.996820 
# 
# From -- ./inp_files/69094.got.cif
#   From: 2010.05.17/outbox.cif.g08.bks.cpg/sg15_35_cif.got.tgz:69094.got - 2010.06.03 18:47:42.
