data_PCOD9288997
_publ_section_title
;
Structure prediction by ZEFSAII (Michael W. Deem and Ramdas Pophale) SiO2 
 PCOD9288997
Probable space group: C 2/C
;
_chemical_formula_sum "Si O2"
_cell_formula_units_Z 44
_cell_length_a 18.193842
_cell_length_b 5.410915
_cell_length_c 24.292374
_cell_angle_alpha 90.000000
_cell_angle_beta 125.427432
_cell_angle_gamma 90.000000
_cell_volume 1948.690861
_symmetry_space_group_name_H-M "C 2/C"
_symmetry_group_IT_number 15
_symmetry_cell_setting 'monoclinic'
loop_
_space_group_symop_operation_xyz
x,y,z
-x,y,1/2-z
-x,-y,-z
x,-y,1/2+z
1/2+x,1/2+y,z
1/2-x,1/2+y,1/2-z
1/2-x,1/2-y,-z
1/2+x,1/2-y,1/2+z
loop_
_atom_site_type_symbol
_atom_site_label
_atom_site_fract_x
_atom_site_fract_y
_atom_site_fract_z
Si Si1 0.511798 0.837520 0.370214
Si Si2 0.309670 0.659507 0.076249
Si Si3 0.000000 0.590744 0.250000
Si Si4 0.620585 0.587113 0.104370
Si Si5 0.522322 0.197858 0.462660
Si Si6 0.195309 0.325552 0.859186
O O1 0.587033 0.625953 0.398762
O O2 0.429325 0.756701 0.372472
O O3 0.487612 0.926661 0.299302
O O4 0.558507 0.059792 0.424944
O O5 0.277418 0.407040 0.090623
O O6 0.311063 0.901301 0.116336
O O7 0.250000 0.750000 0.000000
O O8 0.906201 0.737007 0.204171
O O9 0.572130 0.326509 0.094131
O O10 0.726292 0.635291 0.151551
O O11 0.590092 0.629251 0.026721
O O12 0.500000 0.000000 0.500000
#
# Coordination Sequence:
#
# PCOD9288997 Si02
#       6
#     8   8   4   8   8   8
#     4  10  23  43  67  95 136 185 228 287 347 423
#     4  11  25  42  70 104 141 179 232 294 370 420
#     4  10  26  52  62  96 142 194 236 280 344 434
#     4  10  22  39  71 102 132 177 231 296 360 412
#     4   9  20  38  67 102 139 163 225 293 363 415
#     4  11  26  45  68  99 141 187 235 292 348 430
#
# _framework density 22.579262
#
# number of rings (size 3 to 8) (size 9 to 14) (size 15 to 20)
#    0.000    1.818    0.000    1.636   17.818    2.909 
#    3.273    0.000    0.000    0.000    0.000    0.000 
#    0.000    0.000    0.000    0.000    0.000    0.000 
#
# Total GULP energy -122743.881513 kJ/mol
# GULP energy per Si atom -5579.267341 kJ/mol
# Density = 2.252787 g / cm^3
# Si number density = 22.579262 Si / 1000 Ang^3
#
#
#
# Elastic Constant Matrix: (Units=GPa)
#
#
# Indices 1 2 3 4 5 6 
#
# 1 155.4534 22.0379 32.1062 0.0001 8.0611 -0.0001
# 2 22.0379 88.6007 5.6068 0.0003 -5.7834 -0.0003
# 3 32.1062 5.6068 81.3846 0.0000 -11.7757 0.0000
# 4 0.0001 0.0003 0.0000 18.2174 0.0000 -1.1331
# 5 8.0611 -5.7834 -11.7757 0.0000 41.3075 0.0000
# 6 -0.0001 -0.0003 0.0000 -1.1331 0.0000 34.0406
#
#
#
# Elastic Compliance Matrix: (Units=1/GPa)
#
#
# Indices 1 2 3 4 5 6 
#
# 1 0.007492 -0.001832 -0.003211 0.000000 -0.002634 0.000000
# 2 -0.001832 0.011865 0.000206 0.000000 0.002077 0.000000
# 3 -0.003211 0.000206 0.014221 0.000000 0.004709 0.000000
# 4 0.000000 0.000000 0.000000 0.055006 0.000000 0.001831
# 5 -0.002634 0.002077 0.004709 0.000000 0.026356 0.000000
# 6 0.000000 0.000000 0.000000 0.001831 0.000000 0.029438
#
#
# Mechanical properties :
#
#
# Convention : Reuss Voigt Hill
#
# Bulk Modulus (GPa) = 41.83292 49.43781 45.63537
# Shear Modulus (GPa) = 30.86034 36.42563 33.64298
#
# Velocity S-wave (km/s) = 3.70098 4.02087 3.86423
# Velocity P-wave (km/s) = 6.06880 6.59540 6.33757
#
# Compressibility (1/GPa) = 0.02390462
#
# Stress axis : x y z
#
# Youngs Moduli (GPa) = 133.47192 84.28206 70.31792
#
# Poissons Ratio (x) = 0.15443 0.22576
# Poissons Ratio (y) = 0.24456 -0.01449
# Poissons Ratio (z) = 0.42852 -0.01736
#
# Static dielectric constant tensor:
#      x y z
#    x 1.887890 0.000000 0.046230 
#    y 0.000000 1.920720 0.000000 
#    z 0.046230 0.000000 1.876760 
# 
# From -- ./inp_files/275927.got.cif
#   From: 2010.05.17/outbox.cif.g08.bks.cpg/sg15_138_cif.got.tgz:275927.got - 2010.06.03 18:47:42.
