data_PCOD9288771
_publ_section_title
;
Structure prediction by ZEFSAII (Michael W. Deem and Ramdas Pophale) SiO2 
 PCOD9288771
Probable space group: C 2/C
;
_chemical_formula_sum "Si O2"
_cell_formula_units_Z 64
_cell_length_a 18.796418
_cell_length_b 20.963171
_cell_length_c 10.988612
_cell_angle_alpha 90.000000
_cell_angle_beta 47.053650
_cell_angle_gamma 90.000000
_cell_volume 3169.430516
_symmetry_space_group_name_H-M "C 2/C"
_symmetry_group_IT_number 15
_symmetry_cell_setting 'monoclinic'
loop_
_space_group_symop_operation_xyz
x,y,z
-x,y,1/2-z
-x,-y,-z
x,-y,1/2+z
1/2+x,1/2+y,z
1/2-x,1/2+y,1/2-z
1/2-x,1/2-y,-z
1/2+x,1/2-y,1/2+z
loop_
_atom_site_type_symbol
_atom_site_label
_atom_site_fract_x
_atom_site_fract_y
_atom_site_fract_z
Si Si1 0.662168 0.115725 0.271013
Si Si2 0.264258 0.466415 0.843656
Si Si3 0.521484 0.552163 0.368668
Si Si4 0.145589 0.848831 0.413222
Si Si5 0.819808 0.388337 0.361110
Si Si6 0.541240 0.931989 0.500953
Si Si7 0.232344 0.394175 0.430868
Si Si8 0.393548 0.209981 0.939418
O O1 0.715875 0.055027 0.273119
O O2 0.556736 0.099816 0.341064
O O3 0.636289 0.166962 0.406952
O O4 0.723837 0.129340 0.078613
O O5 0.365274 0.430072 0.747237
O O6 0.289545 0.539222 0.844058
O O7 0.184950 0.442930 0.032933
O O8 0.500000 0.534305 0.250000
O O9 0.500000 0.500000 0.500000
O O10 0.453350 0.612051 0.478570
O O11 0.221434 0.892111 0.400328
O O12 0.207713 0.842628 0.216928
O O13 0.124039 0.782158 0.501888
O O14 0.913516 0.398735 0.170505
O O15 0.823552 0.319725 0.419071
O O16 0.628778 0.918410 0.493857
O O17 0.500000 0.000000 0.500000
O O18 0.500000 0.203369 0.750000
#
# Coordination Sequence:
#
# PCOD9288771 Si02
#       8
#     8   8   8   8   8   8   8   8
#     4  11  24  41  62  96 133 170 209 273 331 396
#     4  11  23  38  64  95 134 165 214 266 331 398
#     4  12  25  42  66  96 136 174 224 282 342 396
#     4  11  24  43  65  93 125 177 219 276 324 387
#     4  10  22  39  64  97 124 169 218 266 322 388
#     4  11  20  38  64  96 136 166 205 261 332 401
#     4  11  24  39  64  97 134 170 213 261 339 401
#     4  11  23  43  67  90 127 169 226 272 319 392
#
# _framework density 20.192903000000001
#
# number of rings (size 3 to 8) (size 9 to 14) (size 15 to 20)
#    0.000    1.000    5.000    1.875    3.500    0.500 
#    0.000    0.000    0.000    3.000    0.000    0.000 
#    0.000    0.000    0.000    0.000    0.000    0.000 
#
# Total GULP energy -178152.745383 kJ/mol
# GULP energy per Si atom -5567.273293 kJ/mol
# Density = 2.014694 g / cm^3
# Si number density = 20.192903 Si / 1000 Ang^3
#
#
#
# Elastic Constant Matrix: (Units=GPa)
#
#
# Indices 1 2 3 4 5 6 
#
# 1 62.6574 3.3665 42.0538 0.0000 -3.9375 0.0000
# 2 3.3665 73.2586 25.3517 0.0000 5.3216 0.0000
# 3 42.0538 25.3517 133.3367 0.0000 20.7690 0.0000
# 4 0.0000 0.0000 0.0000 29.5930 0.0000 -2.6915
# 5 -3.9375 5.3216 20.7690 0.0000 41.6946 0.0000
# 6 0.0000 0.0000 0.0000 -2.6915 0.0000 18.0752
#
#
#
# Elastic Compliance Matrix: (Units=1/GPa)
#
#
# Indices 1 2 3 4 5 6 
#
# 1 0.021613 0.001345 -0.007983 0.000000 0.005846 0.000000
# 2 0.001345 0.014706 -0.003196 0.000000 -0.000158 0.000000
# 3 -0.007983 -0.003196 0.011577 0.000000 -0.006113 0.000000
# 4 0.000000 0.000000 0.000000 0.034256 0.000000 0.005101
# 5 0.005846 -0.000158 -0.006113 0.000000 0.027601 0.000000
# 6 0.000000 0.000000 0.000000 0.005101 0.000000 0.056084
#
#
# Mechanical properties :
#
#
# Convention : Reuss Voigt Hill
#
# Bulk Modulus (GPa) = 35.42512 45.64407 40.53460
# Shear Modulus (GPa) = 25.65240 31.10460 28.37850
#
# Velocity S-wave (km/s) = 3.56809 3.92902 3.75289
# Velocity P-wave (km/s) = 5.87847 6.57541 6.23668
#
# Compressibility (1/GPa) = 0.02822856
#
# Stress axis : x y z
#
# Youngs Moduli (GPa) = 46.26901 68.00036 86.37599
#
# Poissons Ratio (x) = -0.09144 0.68952
# Poissons Ratio (y) = -0.06222 0.27602
# Poissons Ratio (z) = 0.36936 0.21730
#
# Static dielectric constant tensor:
#      x y z
#    x 1.773590 0.000000 0.033920 
#    y 0.000000 1.728170 0.000000 
#    z 0.033920 0.000000 1.782250 
# 
# From -- ./inp_files/114261.got.cif
#   From: 2010.05.17/outbox.cif.g08.bks.cpg/sg15_58_cif.got.tgz:114261.got - 2010.06.03 18:47:42.
