data_PCOD9288557
_publ_section_title
;
Structure prediction by ZEFSAII (Michael W. Deem and Ramdas Pophale) SiO2 
 PCOD9288557
Probable space group: C 2/C
;
_chemical_formula_sum "Si O2"
_cell_formula_units_Z 52
_cell_length_a 11.623911
_cell_length_b 9.574811
_cell_length_c 19.666408
_cell_angle_alpha 90.000000
_cell_angle_beta 78.536342
_cell_angle_gamma 90.000000
_cell_volume 2145.142717
_symmetry_space_group_name_H-M "C 2/C"
_symmetry_group_IT_number 15
_symmetry_cell_setting 'monoclinic'
loop_
_space_group_symop_operation_xyz
x,y,z
-x,y,1/2-z
-x,-y,-z
x,-y,1/2+z
1/2+x,1/2+y,z
1/2-x,1/2+y,1/2-z
1/2-x,1/2-y,-z
1/2+x,1/2-y,1/2+z
loop_
_atom_site_type_symbol
_atom_site_label
_atom_site_fract_x
_atom_site_fract_y
_atom_site_fract_z
Si Si1 0.000000 0.566733 0.750000
Si Si2 0.561982 0.889218 0.876506
Si Si3 0.275568 0.730439 0.287836
Si Si4 0.845985 0.931825 0.297367
Si Si5 0.660543 0.437290 0.967848
Si Si6 0.492266 0.586901 0.605879
Si Si7 0.660089 0.116687 0.943939
O O1 0.968009 0.466222 0.690619
O O2 0.887280 0.666436 0.779927
O O3 0.692230 0.817168 0.859911
O O4 0.486677 0.752906 0.900351
O O5 0.561372 0.011665 0.930628
O O6 0.182881 0.803339 0.248223
O O7 0.318317 0.576225 0.262138
O O8 0.968253 0.948423 0.322993
O O9 0.756161 0.901106 0.371431
O O10 0.633225 0.534542 0.906869
O O11 0.629461 0.279472 0.949626
O O12 0.579042 0.483536 0.040962
O O13 0.785671 0.427813 0.989917
#
# Coordination Sequence:
#
# PCOD9288557 Si02
#       7
#     4   8   8   8   8   8   8
#     4  12  24  44  66  94 134 172 212 262 322 394
#     4  11  24  42  62  97 130 163 215 266 317 385
#     4  11  23  42  63  92 129 170 208 267 313 391
#     4  10  22  39  61  93 128 162 214 259 317 384
#     4   9  20  40  62  89 121 166 217 259 320 383
#     4  10  22  39  64  93 124 166 213 268 319 380
#     4   9  19  40  60  85 127 163 205 268 311 376
#
# _framework density 24.240811000000001
#
# number of rings (size 3 to 8) (size 9 to 14) (size 15 to 20)
#    0.000    1.846    3.077    0.923    2.154    3.692 
#    5.538    0.000    0.000    0.000    0.000    0.000 
#    0.000    0.000    0.000    0.000    0.000    0.000 
#
# Total GULP energy -145050.850729 kJ/mol
# GULP energy per Si atom -5578.878874 kJ/mol
# Density = 2.418564 g / cm^3
# Si number density = 24.240811 Si / 1000 Ang^3
#
#
#
# Elastic Constant Matrix: (Units=GPa)
#
#
# Indices 1 2 3 4 5 6 
#
# 1 70.5241 31.0224 29.4503 0.0000 4.2419 0.0000
# 2 31.0224 165.5237 77.8712 0.0000 42.1317 0.0000
# 3 29.4503 77.8712 81.1131 0.0000 29.1545 0.0000
# 4 0.0000 0.0000 0.0000 34.3893 0.0000 7.0992
# 5 4.2419 42.1317 29.1545 0.0000 40.6733 0.0000
# 6 0.0000 0.0000 0.0000 7.0992 0.0000 42.6123
#
#
#
# Elastic Compliance Matrix: (Units=1/GPa)
#
#
# Indices 1 2 3 4 5 6 
#
# 1 0.017209 -0.001170 -0.006621 0.000000 0.004163 0.000000
# 2 -0.001170 0.011964 -0.008959 0.000000 -0.005850 0.000000
# 3 -0.006621 -0.008959 0.026604 0.000000 -0.009099 0.000000
# 4 0.000000 0.000000 0.000000 0.030115 0.000000 -0.005017
# 5 0.004163 -0.005850 -0.009099 0.000000 0.036733 0.000000
# 6 0.000000 0.000000 0.000000 -0.005017 0.000000 0.024303
#
#
# Mechanical properties :
#
#
# Convention : Reuss Voigt Hill
#
# Bulk Modulus (GPa) = 44.89026 65.98319 55.43672
# Shear Modulus (GPa) = 26.61643 35.45611 31.03627
#
# Velocity S-wave (km/s) = 3.31720 3.82863 3.58205
# Velocity P-wave (km/s) = 5.76459 6.84277 6.32669
#
# Compressibility (1/GPa) = 0.02227655
#
# Stress axis : x y z
#
# Youngs Moduli (GPa) = 58.10977 83.58142 37.58871
#
# Poissons Ratio (x) = 0.09778 0.24889
# Poissons Ratio (y) = 0.06798 0.33675
# Poissons Ratio (z) = 0.38477 0.74880
#
# Static dielectric constant tensor:
#      x y z
#    x 2.117340 0.000000 -0.074680 
#    y 0.000000 1.900340 0.000000 
#    z -0.074680 0.000000 1.955940 
# 
# From -- ./inp_files/272351.got.cif
#   From: 2010.05.17/outbox.cif.g08.bks.cpg/sg15_137_cif.got.tgz:272351.got - 2010.06.03 18:47:42.
