data_PCOD9288229
_publ_section_title
;
Structure prediction by ZEFSAII (Michael W. Deem and Ramdas Pophale) SiO2 
 PCOD9288229
Probable space group: C 2/C
;
_chemical_formula_sum "Si O2"
_cell_formula_units_Z 44
_cell_length_a 12.895717
_cell_length_b 20.918391
_cell_length_c 12.655006
_cell_angle_alpha 90.000000
_cell_angle_beta 142.988690
_cell_angle_gamma 90.000000
_cell_volume 2055.005046
_symmetry_space_group_name_H-M "C 2/C"
_symmetry_group_IT_number 15
_symmetry_cell_setting 'monoclinic'
loop_
_space_group_symop_operation_xyz
x,y,z
-x,y,1/2-z
-x,-y,-z
x,-y,1/2+z
1/2+x,1/2+y,z
1/2-x,1/2+y,1/2-z
1/2-x,1/2-y,-z
1/2+x,1/2-y,1/2+z
loop_
_atom_site_type_symbol
_atom_site_label
_atom_site_fract_x
_atom_site_fract_y
_atom_site_fract_z
Si Si1 0.602243 0.344342 0.921553
Si Si2 0.621604 0.994320 0.943221
Si Si3 0.569481 0.797607 0.423712
Si Si4 0.000000 0.056179 0.750000
Si Si5 0.393107 0.098257 0.383245
Si Si6 0.507783 0.423249 0.489562
O O1 0.500000 0.384527 0.750000
O O2 0.534834 0.276987 0.914787
O O3 0.628001 0.389961 0.041361
O O4 0.735343 0.314584 0.945971
O O5 0.500000 0.018779 0.750000
O O6 0.524901 0.930530 0.905527
O O7 0.820260 0.980316 0.079466
O O8 0.620098 0.045594 0.035095
O O9 0.500000 0.815228 0.250000
O O10 0.533741 0.839531 0.497493
O O11 0.032277 0.091349 0.664899
O O12 0.199077 0.101875 0.177775
O O13 0.500000 0.500000 0.500000
#
# Coordination Sequence:
#
# PCOD9288229 Si02
#       6
#     8   8   8   4   8   8
#     4  10  22  41  64  97 127 167 221 269 335 395
#     4  11  24  40  60  95 132 172 221 267 333 406
#     4  10  22  38  65  96 130 166 209 281 333 392
#     4  12  26  42  60  92 136 180 214 272 338 402
#     4  11  23  40  64  93 129 169 217 281 332 397
#     4  12  25  39  67  94 134 178 224 277 332 410
#
# _framework density 21.411138999999999
#
# number of rings (size 3 to 8) (size 9 to 14) (size 15 to 20)
#    0.000    1.091    5.455    0.545    6.364    0.000 
#    0.000    0.000    2.000    2.182    0.000    0.000 
#    0.000    0.000    0.000    0.000    0.000    0.000 
#
# Total GULP energy -122528.506554 kJ/mol
# GULP energy per Si atom -5569.477571 kJ/mol
# Density = 2.136241 g / cm^3
# Si number density = 21.411139 Si / 1000 Ang^3
#
#
#
# Elastic Constant Matrix: (Units=GPa)
#
#
# Indices 1 2 3 4 5 6 
#
# 1 75.3921 20.7901 17.6723 0.0000 -14.9269 0.0000
# 2 20.7901 82.1808 7.7583 0.0000 -10.9526 0.0000
# 3 17.6723 7.7583 94.8541 0.0000 -16.1895 0.0000
# 4 0.0000 0.0000 0.0000 15.7733 0.0000 -17.1406
# 5 -14.9269 -10.9526 -16.1895 0.0000 48.3413 0.0000
# 6 0.0000 0.0000 0.0000 -17.1406 0.0000 33.5078
#
#
#
# Elastic Compliance Matrix: (Units=1/GPa)
#
#
# Indices 1 2 3 4 5 6 
#
# 1 0.015285 -0.003235 -0.002018 0.000000 0.003311 0.000000
# 2 -0.003235 0.013261 -0.000148 0.000000 0.001956 0.000000
# 3 -0.002018 -0.000148 0.011474 0.000000 0.003186 0.000000
# 4 0.000000 0.000000 0.000000 0.142752 0.000000 0.073024
# 5 0.003311 0.001956 0.003186 0.000000 0.023219 0.000000
# 6 0.000000 0.000000 0.000000 0.073024 0.000000 0.067198
#
#
# Mechanical properties :
#
#
# Convention : Reuss Voigt Hill
#
# Bulk Modulus (GPa) = 34.22522 38.31874 36.27198
# Shear Modulus (GPa) = 17.02236 33.27156 25.14696
#
# Velocity S-wave (km/s) = 2.82268 3.94628 3.43079
# Velocity P-wave (km/s) = 5.16167 6.22090 5.71587
#
# Compressibility (1/GPa) = 0.02921822
#
# Stress axis : x y z
#
# Youngs Moduli (GPa) = 65.42537 75.40712 87.15065
#
# Poissons Ratio (x) = 0.24394 0.17587
# Poissons Ratio (y) = 0.21165 0.01291
# Poissons Ratio (z) = 0.13203 0.01117
#
# Static dielectric constant tensor:
#      x y z
#    x 1.643250 0.000000 -1.256810 
#    y 0.000000 1.860560 0.000000 
#    z -1.256810 0.000000 -3.256480 
# 
# From -- ./inp_files/40605.got.cif
#   From: 2010.05.17/outbox.cif.g08.bks.cpg/sg15_21_cif.got.tgz:40605.got - 2010.06.03 18:47:42.
