data_PCOD9288650
_publ_section_title
;
Structure prediction by ZEFSAII (Michael W. Deem and Ramdas Pophale) SiO2 
 PCOD9288650
Probable space group: C 2/C
;
_chemical_formula_sum "Si O2"
_cell_formula_units_Z 60
_cell_length_a 9.728283
_cell_length_b 12.820475
_cell_length_c 24.187522
_cell_angle_alpha 90.000000
_cell_angle_beta 64.652997
_cell_angle_gamma 90.000000
_cell_volume 2726.284574
_symmetry_space_group_name_H-M "C 2/C"
_symmetry_group_IT_number 15
_symmetry_cell_setting 'monoclinic'
loop_
_space_group_symop_operation_xyz
x,y,z
-x,y,1/2-z
-x,-y,-z
x,-y,1/2+z
1/2+x,1/2+y,z
1/2-x,1/2+y,1/2-z
1/2-x,1/2-y,-z
1/2+x,1/2-y,1/2+z
loop_
_atom_site_type_symbol
_atom_site_label
_atom_site_fract_x
_atom_site_fract_y
_atom_site_fract_z
Si Si1 0.500000 0.189553 0.250000
Si Si2 0.437318 0.332822 0.159289
Si Si3 0.890386 0.528033 0.407027
Si Si4 0.520495 0.161525 0.530716
Si Si5 0.178987 0.655834 0.384089
Si Si6 0.244925 0.033412 0.317531
Si Si7 0.557536 0.376091 0.589444
Si Si8 0.700305 0.408692 0.034116
O O1 0.013348 0.766750 0.195318
O O2 0.357823 0.111075 0.266586
O O3 0.313264 0.259786 0.152145
O O4 0.348590 0.437414 0.192981
O O5 0.561037 0.351313 0.088938
O O6 0.912697 0.430334 0.443331
O O7 0.836831 0.495368 0.355944
O O8 0.768139 0.603580 0.460185
O O9 0.055338 0.582146 0.376403
O O10 0.606007 0.170114 0.457607
O O11 0.553860 0.268990 0.556412
O O12 0.348537 0.122900 0.545339
O O13 0.346532 0.619815 0.370136
O O14 0.114162 0.103823 0.365687
O O15 0.631335 0.473990 0.544830
#
# Coordination Sequence:
#
# PCOD9288650 Si02
#       8
#     4   8   8   8   8   8   8   8
#     4  12  26  60  68  98 136 182 244 306 342 400
#     4  11  26  46  73  97 135 181 228 290 352 397
#     4  11  21  41  68 101 146 182 214 274 339 424
#     4  11  21  35  63 103 147 189 205 264 339 417
#     4  11  21  40  64 100 143 176 220 269 337 412
#     4  11  27  47  72  99 129 181 232 286 347 409
#     4  11  22  39  64 102 135 179 220 269 333 419
#     4  10  22  39  63 104 140 171 222 267 342 416
#
# _framework density 22.007974000000001
#
# number of rings (size 3 to 8) (size 9 to 14) (size 15 to 20)
#    0.000    1.067    4.000    2.800    3.733    2.133 
#   12.000    0.000    0.000    0.000    0.000    0.000 
#    0.000    0.000    0.000    0.000    0.000    0.000 
#
# Total GULP energy -167313.936508 kJ/mol
# GULP energy per Si atom -5577.131217 kJ/mol
# Density = 2.195788 g / cm^3
# Si number density = 22.007974 Si / 1000 Ang^3
#
#
#
# Elastic Constant Matrix: (Units=GPa)
#
#
# Indices 1 2 3 4 5 6 
#
# 1 70.3965 18.3447 19.6414 0.0000 -18.5544 0.0000
# 2 18.3447 91.1595 40.1396 0.0000 -8.1375 0.0000
# 3 19.6414 40.1396 28.2428 0.0000 17.0909 0.0000
# 4 0.0000 0.0000 0.0000 -74.6999 0.0000 -2.8160
# 5 -18.5544 -8.1375 17.0909 0.0000 14.2816 0.0000
# 6 0.0000 0.0000 0.0000 -2.8160 0.0000 25.3293
#
#
#
# Elastic Compliance Matrix: (Units=1/GPa)
#
#
# Indices 1 2 3 4 5 6 
#
# 1 0.008913 -0.009959 0.015887 0.000000 -0.013107 0.000000
# 2 -0.009959 0.006833 0.009748 0.000000 -0.020711 0.000000
# 3 0.015887 0.009748 -0.019385 0.000000 0.049393 0.000000
# 4 0.000000 0.000000 0.000000 -0.013331 0.000000 -0.001482
# 5 -0.013107 -0.020711 0.049393 0.000000 -0.017918 0.000000
# 6 0.000000 0.000000 0.000000 -0.001482 0.000000 0.039315
#
#
# Mechanical properties :
#
#
# Convention : Reuss Voigt Hill
#
# Bulk Modulus (GPa) = 36.08478 38.45000 37.26739
# Shear Modulus (GPa) = -282.68127 0.42708 -141.12710
#
# Velocity S-wave (km/s) = -11.34565 0.44100 -8.01652
# Velocity P-wave (km/s) = 12.45792 4.21523 8.28950
#
# Compressibility (1/GPa) = 0.02771252
#
# Stress axis : x y z
#
# Youngs Moduli (GPa) = 112.19235 146.35035 -51.58504
#
# Poissons Ratio (x) = 1.45752 0.81954
# Poissons Ratio (y) = 1.11734 0.50285
# Poissons Ratio (z) = -1.78241 -1.42661
#
# Static dielectric constant tensor:
#      x y z
#    x 1.844880 0.000000 -0.014170 
#    y 0.000000 1.843020 0.000000 
#    z -0.014170 0.000000 1.818020 
# 
# From -- ./inp_files/307765.got.cif
#   From: 2010.05.17/outbox.cif.g08.bks.cpg/sg15_154_cif.got.tgz:307765.got - 2010.06.03 18:47:42.
