data_PCOD9288506
_publ_section_title
;
Structure prediction by ZEFSAII (Michael W. Deem and Ramdas Pophale) SiO2 
 PCOD9288506
Probable space group: C 2/C
;
_chemical_formula_sum "Si O2"
_cell_formula_units_Z 64
_cell_length_a 13.673417
_cell_length_b 25.925215
_cell_length_c 17.232178
_cell_angle_alpha 90.000000
_cell_angle_beta 27.435726
_cell_angle_gamma 90.000000
_cell_volume 2814.543942
_symmetry_space_group_name_H-M "C 2/C"
_symmetry_group_IT_number 15
_symmetry_cell_setting 'monoclinic'
loop_
_space_group_symop_operation_xyz
x,y,z
-x,y,1/2-z
-x,-y,-z
x,-y,1/2+z
1/2+x,1/2+y,z
1/2-x,1/2+y,1/2-z
1/2-x,1/2-y,-z
1/2+x,1/2-y,1/2+z
loop_
_atom_site_type_symbol
_atom_site_label
_atom_site_fract_x
_atom_site_fract_y
_atom_site_fract_z
Si Si1 0.259232 0.194701 0.653170
Si Si2 0.590889 0.966254 0.365961
Si Si3 0.354081 0.681928 0.476115
Si Si4 0.451285 0.788808 0.864299
Si Si5 0.322097 0.432805 0.938707
Si Si6 0.235630 0.523072 0.115832
Si Si7 0.038246 0.906114 0.313836
Si Si8 0.925057 0.717890 0.694564
O O1 0.393750 0.180972 0.482067
O O2 0.064958 0.155157 0.795181
O O3 0.410399 0.195433 0.619770
O O4 0.153451 0.251287 0.730096
O O5 0.406916 0.938623 0.443578
O O6 0.743913 0.926809 0.302292
O O7 0.500000 0.000000 0.500000
O O8 0.717235 0.003897 0.217273
O O9 0.374187 0.622400 0.440546
O O10 0.144106 0.698883 0.577015
O O11 0.549358 0.719920 0.319545
O O12 0.277706 0.695854 0.616813
O O13 0.500000 0.818048 0.750000
O O14 0.250000 0.750000 0.000000
O O15 0.500000 0.444037 0.750000
O O16 0.326955 0.475190 0.002302
O O17 0.000000 0.531032 0.250000
O O18 0.366621 0.572116 0.994679
O O19 0.000000 0.922179 0.250000
#
# Coordination Sequence:
#
# PCOD9288506 Si02
#       8
#     8   8   8   8   8   8   8   8
#     4  11  22  40  66  94 131 178 233 283 349 417
#     4  11  24  45  69 100 139 183 233 289 351 428
#     4  10  23  39  65  92 142 179 225 282 350 414
#     4   9  19  39  62  87 125 170 223 286 343 396
#     4  11  24  42  71 104 141 188 234 285 363 427
#     4  10  23  44  72 100 138 178 227 295 361 425
#     4  12  24  42  69 101 139 183 235 294 350 408
#     4  10  22  39  60  96 134 178 225 284 340 415
#
# _framework density 22.73903
#
# number of rings (size 3 to 8) (size 9 to 14) (size 15 to 20)
#    0.000    1.500    0.000    5.625   10.500    0.000 
#    2.250    8.750    0.000    0.000    0.000    0.000 
#    0.000    0.000    0.000    0.000    0.000    0.000 
#
# Total GULP energy -178793.143522 kJ/mol
# GULP energy per Si atom -5587.285735 kJ/mol
# Density = 2.268728 g / cm^3
# Si number density = 22.739030 Si / 1000 Ang^3
#
#
#
# Elastic Constant Matrix: (Units=GPa)
#
#
# Indices 1 2 3 4 5 6 
#
# 1 100.1050 17.7292 38.3548 0.0200 29.5066 0.0032
# 2 17.7292 99.9769 39.7120 -0.0043 17.7390 -0.0115
# 3 38.3548 39.7120 114.3600 0.0260 33.7864 -0.0601
# 4 0.0200 -0.0043 0.0260 24.4914 -0.0253 -5.1557
# 5 29.5066 17.7390 33.7864 -0.0253 39.7840 0.0158
# 6 0.0032 -0.0115 -0.0601 -5.1557 0.0158 9.0161
#
#
#
# Elastic Compliance Matrix: (Units=1/GPa)
#
#
# Indices 1 2 3 4 5 6 
#
# 1 0.013132 -0.000115 -0.002005 -0.000020 -0.007985 -0.000016
# 2 -0.000115 0.011769 -0.003368 0.000003 -0.002302 -0.000002
# 3 -0.002005 -0.003368 0.012953 -0.000001 -0.008012 0.000096
# 4 -0.000020 0.000003 -0.000001 0.046419 0.000033 0.026544
# 5 -0.007985 -0.002302 -0.008012 0.000033 0.038888 -0.000103
# 6 -0.000016 -0.000002 0.000096 0.026544 -0.000103 0.126093
#
#
# Mechanical properties :
#
#
# Convention : Reuss Voigt Hill
#
# Bulk Modulus (GPa) = 37.20635 56.22599 46.71617
# Shear Modulus (GPa) = 18.57420 29.23468 23.90444
#
# Velocity S-wave (km/s) = 2.86115 3.58950 3.24582
# Velocity P-wave (km/s) = 5.22616 6.47763 5.88525
#
# Compressibility (1/GPa) = 0.02687713
#
# Stress axis : x y z
#
# Youngs Moduli (GPa) = 76.15044 84.96880 77.19965
#
# Poissons Ratio (x) = 0.00981 0.15478
# Poissons Ratio (y) = 0.00879 0.26002
# Poissons Ratio (z) = 0.15268 0.28619
#
# Static dielectric constant tensor:
#      x y z
#    x 1.975620 -0.000080 0.093110 
#    y -0.000080 1.895320 0.000020 
#    z 0.093110 0.000020 1.938120 
# 
# From -- ./inp_files/207314.got.cif
#   From: 2010.05.17/outbox.cif.g08.bks.cpg/sg15_104_cif.got.tgz:207314.got - 2010.06.03 18:47:42.
