data_PCOD9288606
_publ_section_title
;
Structure prediction by ZEFSAII (Michael W. Deem and Ramdas Pophale) SiO2 
 PCOD9288606
Probable space group: C 2/C
;
_chemical_formula_sum "Si O2"
_cell_formula_units_Z 48
_cell_length_a 6.184568
_cell_length_b 24.643508
_cell_length_c 15.443339
_cell_angle_alpha 90.000000
_cell_angle_beta 79.534894
_cell_angle_gamma 90.000000
_cell_volume 2314.558509
_symmetry_space_group_name_H-M "C 2/C"
_symmetry_group_IT_number 15
_symmetry_cell_setting 'monoclinic'
loop_
_space_group_symop_operation_xyz
x,y,z
-x,y,1/2-z
-x,-y,-z
x,-y,1/2+z
1/2+x,1/2+y,z
1/2-x,1/2+y,1/2-z
1/2-x,1/2-y,-z
1/2+x,1/2-y,1/2+z
loop_
_atom_site_type_symbol
_atom_site_label
_atom_site_fract_x
_atom_site_fract_y
_atom_site_fract_z
Si Si1 0.126329 0.218489 0.889666
Si Si2 0.000000 0.498807 0.250000
Si Si3 0.740332 0.636203 0.605795
Si Si4 0.661785 0.432888 0.660882
Si Si5 0.063322 0.961972 0.347170
Si Si6 0.150007 0.334353 0.960395
Si Si7 0.000000 0.335780 0.250000
O O1 0.103645 0.282539 0.903257
O O2 0.322211 0.201073 0.812047
O O3 0.900807 0.191039 0.876907
O O4 0.194384 0.190297 0.975756
O O5 0.138338 0.536756 0.304995
O O6 0.173894 0.466006 0.177425
O O7 0.564702 0.588243 0.602125
O O8 0.926286 0.643793 0.520246
O O9 0.866639 0.630257 0.687917
O O10 0.500000 0.414696 0.750000
O O11 0.535222 0.480162 0.616856
O O12 0.736934 0.383285 0.597903
O O13 0.000000 0.958257 0.250000
#
# Coordination Sequence:
#
# PCOD9288606 Si02
#       7
#     8   4   8   8   8   8   4
#     4  10  22  40  60  84 121 159 197 246 297 354
#     4   8  18  37  56  86 116 156 199 244 290 348
#     4  11  22  38  61  90 120 155 195 247 303 354
#     4   9  20  38  59  86 117 158 203 243 295 348
#     4   9  19  35  60  86 118 153 199 245 292 354
#     4  10  23  40  57  85 124 157 198 246 296 356
#     4  10  22  39  62  92 112 152 205 244 294 352
#
# _framework density 20.738296999999999
#
# number of rings (size 3 to 8) (size 9 to 14) (size 15 to 20)
#    0.000    2.667    0.000    2.000    1.167   12.000 
#    3.000    1.667    0.000    0.000    0.000    0.000 
#    0.000    0.000    0.000    0.000    0.000    0.000 
#
# Total GULP energy -134030.550669 kJ/mol
# GULP energy per Si atom -5584.606278 kJ/mol
# Density = 2.069110 g / cm^3
# Si number density = 20.738297 Si / 1000 Ang^3
#
#
#
# Elastic Constant Matrix: (Units=GPa)
#
#
# Indices 1 2 3 4 5 6 
#
# 1 115.2715 59.7698 44.0670 0.0000 -26.4318 0.0000
# 2 59.7698 169.5412 69.0181 0.0000 -31.1701 0.0000
# 3 44.0670 69.0181 76.8917 0.0000 -28.3931 0.0000
# 4 0.0000 0.0000 0.0000 19.0489 0.0000 -3.1844
# 5 -26.4318 -31.1701 -28.3931 0.0000 23.6410 0.0000
# 6 0.0000 0.0000 0.0000 -3.1844 0.0000 24.5953
#
#
#
# Elastic Compliance Matrix: (Units=1/GPa)
#
#
# Indices 1 2 3 4 5 6 
#
# 1 0.012533 -0.001887 -0.002217 0.000000 0.008863 0.000000
# 2 -0.001887 0.009796 -0.006686 0.000000 0.002775 0.000000
# 3 -0.002217 -0.006686 0.028943 0.000000 0.023466 0.000000
# 4 0.000000 0.000000 0.000000 0.053658 0.000000 0.006947
# 5 0.008863 0.002775 0.023466 0.000000 0.084051 0.000000
# 6 0.000000 0.000000 0.000000 0.006947 0.000000 0.041558
#
#
# Mechanical properties :
#
#
# Convention : Reuss Voigt Hill
#
# Bulk Modulus (GPa) = 33.67924 78.60157 56.14040
# Shear Modulus (GPa) = 19.08294 26.04702 22.56498
#
# Velocity S-wave (km/s) = 3.03674 3.54783 3.30219
# Velocity P-wave (km/s) = 5.34519 7.40046 6.45515
#
# Compressibility (1/GPa) = 0.02969188
#
# Stress axis : x y z
#
# Youngs Moduli (GPa) = 79.78896 102.08659 34.55123
#
# Poissons Ratio (x) = 0.19259 0.07659
# Poissons Ratio (y) = 0.15053 0.23103
# Poissons Ratio (z) = 0.17686 0.68260
#
# Static dielectric constant tensor:
#      x y z
#    x 1.765550 0.000000 0.019980 
#    y 0.000000 1.760920 0.000000 
#    z 0.019980 0.000000 1.749920 
# 
# From -- ./inp_files/185492.got.cif
#   From: 2010.05.17/outbox.cif.g08.bks.cpg/sg15_93_cif.got.tgz:185492.got - 2010.06.03 18:47:42.
