data_PCOD9288537
_publ_section_title
;
Structure prediction by ZEFSAII (Michael W. Deem and Ramdas Pophale) SiO2 
 PCOD9288537
Probable space group: C 2/C
;
_chemical_formula_sum "Si O2"
_cell_formula_units_Z 32
_cell_length_a 13.538734
_cell_length_b 7.171967
_cell_length_c 16.656612
_cell_angle_alpha 90.000000
_cell_angle_beta 93.765064
_cell_angle_gamma 90.000000
_cell_volume 1613.855527
_symmetry_space_group_name_H-M "C 2/C"
_symmetry_group_IT_number 15
_symmetry_cell_setting 'monoclinic'
loop_
_space_group_symop_operation_xyz
x,y,z
-x,y,1/2-z
-x,-y,-z
x,-y,1/2+z
1/2+x,1/2+y,z
1/2-x,1/2+y,1/2-z
1/2-x,1/2-y,-z
1/2+x,1/2-y,1/2+z
loop_
_atom_site_type_symbol
_atom_site_label
_atom_site_fract_x
_atom_site_fract_y
_atom_site_fract_z
Si Si1 0.174383 0.565268 0.188137
Si Si2 0.498186 0.154605 0.430281
Si Si3 0.292442 0.794774 0.633239
Si Si4 0.690215 0.362385 0.063802
O O1 0.236405 0.392873 0.156146
O O2 0.182169 0.596867 0.282716
O O3 0.214902 0.752366 0.147442
O O4 0.062232 0.561729 0.147714
O O5 0.500000 0.000000 0.500000
O O6 0.604513 0.225449 0.408304
O O7 0.425731 0.321823 0.453622
O O8 0.222561 0.926464 0.575609
O O9 0.750000 0.250000 0.000000
#
# Coordination Sequence:
#
# PCOD9288537 Si02
#       4
#     8   8   8   8
#     4  10  23  38  65  91 116 167 199 252 302 358
#     4  10  22  39  61  89 124 160 199 251 303 367
#     4  12  20  44  62  88 128 154 209 251 300 361
#     4  10  22  40  62  92 123 157 201 250 306 358
#
# _framework density 19.828294
#
# number of rings (size 3 to 8) (size 9 to 14) (size 15 to 20)
#    1.500    0.000    5.000    0.750    0.000    4.000 
#    4.500    2.500    0.000    0.000    0.000    0.000 
#    0.000    0.000    0.000    0.000    0.000    0.000 
#
# Total GULP energy -89166.509443 kJ/mol
# GULP energy per Si atom -5572.906840 kJ/mol
# Density = 1.978316 g / cm^3
# Si number density = 19.828294 Si / 1000 Ang^3
#
#
#
# Elastic Constant Matrix: (Units=GPa)
#
#
# Indices 1 2 3 4 5 6 
#
# 1 136.8119 48.9171 14.5832 0.0000 -17.3589 0.0000
# 2 48.9171 62.3533 -8.4828 0.0000 1.1769 0.0000
# 3 14.5832 -8.4828 52.3697 0.0000 -2.0816 0.0000
# 4 0.0000 0.0000 0.0000 33.5555 0.0000 3.9470
# 5 -17.3589 1.1769 -2.0816 0.0000 36.8418 0.0000
# 6 0.0000 0.0000 0.0000 3.9470 0.0000 33.1346
#
#
#
# Elastic Compliance Matrix: (Units=1/GPa)
#
#
# Indices 1 2 3 4 5 6 
#
# 1 0.012299 -0.010423 -0.004881 0.000000 0.005852 0.000000
# 2 -0.010423 0.025238 0.006778 0.000000 -0.005334 0.000000
# 3 -0.004881 0.006778 0.021500 0.000000 -0.001301 0.000000
# 4 0.000000 0.000000 0.000000 0.030225 0.000000 -0.003600
# 5 0.005852 -0.005334 -0.001301 0.000000 0.029997 0.000000
# 6 0.000000 0.000000 0.000000 -0.003600 0.000000 0.030609
#
#
# Mechanical properties :
#
#
# Convention : Reuss Voigt Hill
#
# Bulk Modulus (GPa) = 23.81729 40.17444 31.99586
# Shear Modulus (GPa) = 27.63755 33.80755 30.72255
#
# Velocity S-wave (km/s) = 3.73747 4.13366 3.94055
# Velocity P-wave (km/s) = 5.53740 6.56415 6.07251
#
# Compressibility (1/GPa) = 0.04198631
#
# Stress axis : x y z
#
# Youngs Moduli (GPa) = 81.30866 39.62354 46.51100
#
# Poissons Ratio (x) = 0.41300 0.22700
# Poissons Ratio (y) = 0.84748 -0.31527
# Poissons Ratio (z) = 0.39683 -0.26858
#
# Static dielectric constant tensor:
#      x y z
#    x 1.685220 0.000000 0.023840 
#    y 0.000000 1.684150 0.000000 
#    z 0.023840 0.000000 1.748970 
# 
# From -- ./inp_files/149839.got.cif
#   From: 2010.05.17/outbox.cif.g08.bks.cpg/sg15_75_cif.got.tgz:149839.got - 2010.06.03 18:47:42.
