data_PCOD9288665
_publ_section_title
;
Structure prediction by ZEFSAII (Michael W. Deem and Ramdas Pophale) SiO2 
 PCOD9288665
Probable space group: C 2/C
;
_chemical_formula_sum "Si O2"
_cell_formula_units_Z 36
_cell_length_a 19.620306
_cell_length_b 13.476578
_cell_length_c 9.798613
_cell_angle_alpha 90.000000
_cell_angle_beta 42.965088
_cell_angle_gamma 90.000000
_cell_volume 1765.832025
_symmetry_space_group_name_H-M "C 2/C"
_symmetry_group_IT_number 15
_symmetry_cell_setting 'monoclinic'
loop_
_space_group_symop_operation_xyz
x,y,z
-x,y,1/2-z
-x,-y,-z
x,-y,1/2+z
1/2+x,1/2+y,z
1/2-x,1/2+y,1/2-z
1/2-x,1/2-y,-z
1/2+x,1/2-y,1/2+z
loop_
_atom_site_type_symbol
_atom_site_label
_atom_site_fract_x
_atom_site_fract_y
_atom_site_fract_z
Si Si1 0.389334 0.263558 0.926643
Si Si2 0.681153 0.999926 0.342763
Si Si3 0.344718 0.208870 0.277698
Si Si4 0.265904 0.397899 0.958946
Si Si5 0.500000 0.887483 0.750000
O O1 0.500000 0.221152 0.750000
O O2 0.372862 0.354431 0.845905
O O3 0.371169 0.281559 0.113399
O O4 0.306139 0.185568 0.999659
O O5 0.673921 0.103355 0.270827
O O6 0.755465 0.015940 0.362342
O O7 0.577148 0.958354 0.555226
O O8 0.718989 0.925396 0.172895
O O9 0.250000 0.250000 0.500000
O O10 0.435259 0.182651 0.246028
#
# Coordination Sequence:
#
# PCOD9288665 Si02
#       5
#     8   8   8   8   4
#     4  10  22  40  63  89 125 168 206 251 319 387
#     4  11  22  38  64  94 128 159 207 267 312 371
#     4  11  24  38  61  94 133 162 203 263 322 376
#     4  10  22  39  63  91 125 160 206 261 317 364
#     4  12  22  38  68 100 122 164 220 266 316 370
#
# _framework density 20.386990000000001
#
# number of rings (size 3 to 8) (size 9 to 14) (size 15 to 20)
#    0.000    1.333    2.222    3.333    6.222    3.556 
#    0.000    1.111    2.444    0.000    0.000    0.000 
#    0.000    0.000    0.000    0.000    0.000    0.000 
#
# Total GULP energy -100345.664708 kJ/mol
# GULP energy per Si atom -5574.759150 kJ/mol
# Density = 2.034059 g / cm^3
# Si number density = 20.386990 Si / 1000 Ang^3
#
#
#
# Elastic Constant Matrix: (Units=GPa)
#
#
# Indices 1 2 3 4 5 6 
#
# 1 134.0189 53.0335 56.4162 0.0000 22.3515 0.0000
# 2 53.0335 37.6324 17.6881 0.0000 7.5716 0.0000
# 3 56.4162 17.6881 64.7495 0.0000 32.1092 0.0000
# 4 0.0000 0.0000 0.0000 27.2050 0.0000 -14.4676
# 5 22.3515 7.5716 32.1092 0.0000 28.9885 0.0000
# 6 0.0000 0.0000 0.0000 -14.4676 0.0000 0.7980
#
#
#
# Elastic Compliance Matrix: (Units=1/GPa)
#
#
# Indices 1 2 3 4 5 6 
#
# 1 0.024799 -0.028148 -0.017930 0.000000 0.008092 0.000000
# 2 -0.028148 0.062539 0.010602 0.000000 -0.006376 0.000000
# 3 -0.017930 0.010602 0.050338 0.000000 -0.044701 0.000000
# 4 0.000000 0.000000 0.000000 -0.004254 0.000000 -0.077119
# 5 0.008092 -0.006376 -0.044701 0.000000 0.079435 0.000000
# 6 0.000000 0.000000 0.000000 -0.077119 0.000000 -0.145015
#
#
# Mechanical properties :
#
#
# Convention : Reuss Voigt Hill
#
# Bulk Modulus (GPa) = 14.98709 54.51961 34.75335
# Shear Modulus (GPa) = 31.04920 18.68250 24.86585
#
# Velocity S-wave (km/s) = 3.90679 3.03048 3.49620
# Velocity P-wave (km/s) = 5.26478 6.24864 5.77769
#
# Compressibility (1/GPa) = 0.06672411
#
# Stress axis : x y z
#
# Youngs Moduli (GPa) = 40.32493 15.98991 19.86589
#
# Poissons Ratio (x) = 0.45008 0.35620
# Poissons Ratio (y) = 1.13506 -0.21063
# Poissons Ratio (z) = 0.72304 -0.16953
#
# Static dielectric constant tensor:
#      x y z
#    x 1.747610 0.000000 0.024460 
#    y 0.000000 1.840310 0.000000 
#    z 0.024460 0.000000 1.750730 
# 
# From -- ./inp_files/37476.got.cif
#   From: 2010.05.17/outbox.cif.g08.bks.cpg/sg15_19_cif.got.tgz:37476.got - 2010.06.03 18:47:42.
