data_PCOD9288643
_publ_section_title
;
Structure prediction by ZEFSAII (Michael W. Deem and Ramdas Pophale) SiO2 
 PCOD9288643
Probable space group: C 2/C
;
_chemical_formula_sum "Si O2"
_cell_formula_units_Z 40
_cell_length_a 11.378032
_cell_length_b 21.761118
_cell_length_c 9.494029
_cell_angle_alpha 90.000000
_cell_angle_beta 51.384189
_cell_angle_gamma 90.000000
_cell_volume 1836.722599
_symmetry_space_group_name_H-M "C 2/C"
_symmetry_group_IT_number 15
_symmetry_cell_setting 'monoclinic'
loop_
_space_group_symop_operation_xyz
x,y,z
-x,y,1/2-z
-x,-y,-z
x,-y,1/2+z
1/2+x,1/2+y,z
1/2-x,1/2+y,1/2-z
1/2-x,1/2-y,-z
1/2+x,1/2-y,1/2+z
loop_
_atom_site_type_symbol
_atom_site_label
_atom_site_fract_x
_atom_site_fract_y
_atom_site_fract_z
Si Si1 0.165922 0.710898 0.871255
Si Si2 0.909493 0.941561 0.121341
Si Si3 0.168691 0.378730 0.112429
Si Si4 0.161670 0.666716 0.305902
Si Si5 0.805501 0.110896 0.960766
O O1 0.165390 0.681708 0.715227
O O2 0.220783 0.780078 0.822182
O O3 0.277311 0.670071 0.883392
O O4 0.001059 0.698528 0.058279
O O5 0.796420 0.920093 0.085943
O O6 0.815782 0.944443 0.338804
O O7 0.040259 0.893319 0.066779
O O8 0.000000 0.000000 0.000000
O O9 0.000000 0.405722 0.250000
O O10 0.198827 0.361398 0.929656
O O11 0.176355 0.615090 0.174693
#
# Coordination Sequence:
#
# PCOD9288643 Si02
#       5
#     8   8   8   8   8
#     4  10  22  39  62  96 140 184 219 263 335 400
#     4  10  23  44  68  94 126 172 227 288 340 388
#     4   9  21  42  63  96 138 176 220 278 333 403
#     4  11  22  37  66  96 138 182 221 267 331 403
#     4  10  23  39  63  92 130 164 218 277 330 393
#
# _framework density 21.777920999999999
#
# number of rings (size 3 to 8) (size 9 to 14) (size 15 to 20)
#    0.000    2.000    0.000    1.800    8.400    4.000 
#    0.000    2.000    0.000   14.400    0.000    0.000 
#    0.000    0.000    0.000    0.000    0.000    0.000 
#
# Total GULP energy -111633.117636 kJ/mol
# GULP energy per Si atom -5581.655882 kJ/mol
# Density = 2.172835 g / cm^3
# Si number density = 21.777921 Si / 1000 Ang^3
#
#
#
# Elastic Constant Matrix: (Units=GPa)
#
#
# Indices 1 2 3 4 5 6 
#
# 1 173.3044 65.3095 60.1427 0.0000 0.7386 0.0000
# 2 65.3095 66.3168 68.5291 0.0000 -0.4429 0.0000
# 3 60.1427 68.5291 175.8307 0.0000 21.6491 0.0000
# 4 0.0000 0.0000 0.0000 33.7201 0.0000 -8.7862
# 5 0.7386 -0.4429 21.6491 0.0000 31.3704 0.0000
# 6 0.0000 0.0000 0.0000 -8.7862 0.0000 25.1580
#
#
#
# Elastic Compliance Matrix: (Units=1/GPa)
#
#
# Indices 1 2 3 4 5 6 
#
# 1 0.009242 -0.009981 0.000845 0.000000 -0.000941 0.000000
# 2 -0.009981 0.037908 -0.012519 0.000000 0.009410 0.000000
# 3 0.000845 -0.012519 0.011258 0.000000 -0.007966 0.000000
# 4 0.000000 0.000000 0.000000 0.032625 0.000000 0.011394
# 5 -0.000941 0.009410 -0.007966 0.000000 0.037530 0.000000
# 6 0.000000 0.000000 0.000000 0.011394 0.000000 0.043728
#
#
# Mechanical properties :
#
#
# Convention : Reuss Voigt Hill
#
# Bulk Modulus (GPa) = 66.23409 89.26828 77.75118
# Shear Modulus (GPa) = 22.66181 32.81441 27.73811
#
# Velocity S-wave (km/s) = 3.22931 3.88593 3.57274
# Velocity P-wave (km/s) = 6.66213 7.82389 7.26627
#
# Compressibility (1/GPa) = 0.01509797
#
# Stress axis : x y z
#
# Youngs Moduli (GPa) = 108.19611 26.37951 88.82218
#
# Poissons Ratio (x) = 0.26330 -0.07502
# Poissons Ratio (y) = 1.07993 1.11197
# Poissons Ratio (z) = -0.09139 0.33025
#
# Static dielectric constant tensor:
#      x y z
#    x 1.795310 0.000000 -0.008790 
#    y 0.000000 1.789090 0.000000 
#    z -0.008790 0.000000 1.870120 
# 
# From -- ./inp_files/33318.got.cif
#   From: 2010.05.17/outbox.cif.g08.bks.cpg/sg15_17_cif.got.tgz:33318.got - 2010.06.03 18:47:42.
