data_PCOD9288130
_publ_section_title
;
Structure prediction by ZEFSAII (Michael W. Deem and Ramdas Pophale) SiO2 
 PCOD9288130
Probable space group: C 2/C
;
_chemical_formula_sum "Si O2"
_cell_formula_units_Z 40
_cell_length_a 15.885211
_cell_length_b 5.540433
_cell_length_c 24.251636
_cell_angle_alpha 90.000000
_cell_angle_beta 65.149129
_cell_angle_gamma 90.000000
_cell_volume 1936.773180
_symmetry_space_group_name_H-M "C 2/C"
_symmetry_group_IT_number 15
_symmetry_cell_setting 'monoclinic'
loop_
_space_group_symop_operation_xyz
x,y,z
-x,y,1/2-z
-x,-y,-z
x,-y,1/2+z
1/2+x,1/2+y,z
1/2-x,1/2+y,1/2-z
1/2-x,1/2-y,-z
1/2+x,1/2-y,1/2+z
loop_
_atom_site_type_symbol
_atom_site_label
_atom_site_fract_x
_atom_site_fract_y
_atom_site_fract_z
Si Si1 0.668564 0.947526 0.523409
Si Si2 0.319769 0.352646 0.913219
Si Si3 0.021417 0.084006 0.555375
Si Si4 0.333060 0.542217 0.674246
Si Si5 0.720818 0.542022 0.688228
O O1 0.750000 0.750000 0.500000
O O2 0.567713 0.848245 0.538684
O O3 0.668195 0.066245 0.584138
O O4 0.713351 0.114052 0.463458
O O5 0.396458 0.439523 0.936198
O O6 0.333566 0.495945 0.853457
O O7 0.000000 0.000000 0.500000
O O8 0.930661 0.055467 0.617001
O O9 0.338647 0.539807 0.739312
O O10 0.281552 0.794776 0.674602
O O11 0.278617 0.294233 0.672296
#
# Coordination Sequence:
#
# PCOD9288130 Si02
#       5
#     8   8   8   8   8
#     4   9  21  38  58  95 124 168 207 259 323 384
#     4  10  22  38  64  88 130 172 215 258 327 392
#     4  11  24  37  61  95 132 163 214 272 325 374
#     4  10  24  43  66  95 126 166 220 271 320 385
#     4  10  23  44  68  89 126 176 215 262 326 389
#
# _framework density 20.652909000000001
#
# number of rings (size 3 to 8) (size 9 to 14) (size 15 to 20)
#    0.000    2.000    0.000    1.200   16.800    1.600 
#    0.000    0.000    0.000    0.000    0.000    0.000 
#    0.000    0.000    0.000    0.000    0.000    0.000 
#
# Total GULP energy -111372.268882 kJ/mol
# GULP energy per Si atom -5568.613444 kJ/mol
# Density = 2.060590 g / cm^3
# Si number density = 20.652909 Si / 1000 Ang^3
#
#
#
# Elastic Constant Matrix: (Units=GPa)
#
#
# Indices 1 2 3 4 5 6 
#
# 1 96.4055 45.0755 97.9434 -0.0002 2.7991 -0.0010
# 2 45.0755 101.4675 47.2326 -0.0035 0.9754 -0.0017
# 3 97.9434 47.2326 151.4582 0.0005 -9.1647 -0.0004
# 4 -0.0002 -0.0035 0.0005 27.2062 0.0011 1.0074
# 5 2.7991 0.9754 -9.1647 0.0011 39.7736 -0.0005
# 6 -0.0010 -0.0017 -0.0004 1.0074 -0.0005 37.6310
#
#
#
# Elastic Compliance Matrix: (Units=1/GPa)
#
#
# Indices 1 2 3 4 5 6 
#
# 1 0.034530 -0.005469 -0.021056 0.000000 -0.007148 0.000000
# 2 -0.005469 0.012445 -0.000344 0.000002 0.000000 0.000000
# 3 -0.021056 -0.000344 0.020705 -0.000001 0.006261 0.000000
# 4 0.000000 0.000002 -0.000001 0.036793 -0.000001 -0.000985
# 5 -0.007148 0.000000 0.006261 -0.000001 0.027088 0.000000
# 6 0.000000 0.000000 0.000000 -0.000985 0.000000 0.026600
#
#
# Mechanical properties :
#
#
# Convention : Reuss Voigt Hill
#
# Bulk Modulus (GPa) = 71.73240 81.09270 76.41255
# Shear Modulus (GPa) = 23.08962 31.52747 27.30854
#
# Velocity S-wave (km/s) = 3.34725 3.91133 3.64024
# Velocity P-wave (km/s) = 7.05312 7.72967 7.39913
#
# Compressibility (1/GPa) = 0.01394070
#
# Stress axis : x y z
#
# Youngs Moduli (GPa) = 28.96058 80.35210 48.29702
#
# Poissons Ratio (x) = 0.43945 1.01696
# Poissons Ratio (y) = 0.15839 0.01663
# Poissons Ratio (z) = 0.60980 0.02767
#
# Static dielectric constant tensor:
#      x y z
#    x 1.719850 0.000000 0.045310 
#    y 0.000000 2.476090 0.000000 
#    z 0.045310 0.000000 1.787600 
# 
# From -- ./inp_files/271627.got.cif
#   From: 2010.05.17/outbox.cif.g08.bks.cpg/sg15_136_cif.got.tgz:271627.got - 2010.06.03 18:47:42.
