data_PCOD9288255
_publ_section_title
;
Structure prediction by ZEFSAII (Michael W. Deem and Ramdas Pophale) SiO2 
 PCOD9288255
Probable space group: C 2/C
;
_chemical_formula_sum "Si O2"
_cell_formula_units_Z 32
_cell_length_a 5.043103
_cell_length_b 24.139075
_cell_length_c 11.184414
_cell_angle_alpha 90.000000
_cell_angle_beta 105.927589
_cell_angle_gamma 90.000000
_cell_volume 1309.273396
_symmetry_space_group_name_H-M "C 2/C"
_symmetry_group_IT_number 15
_symmetry_cell_setting 'monoclinic'
loop_
_space_group_symop_operation_xyz
x,y,z
-x,y,1/2-z
-x,-y,-z
x,-y,1/2+z
1/2+x,1/2+y,z
1/2-x,1/2+y,1/2-z
1/2-x,1/2-y,-z
1/2+x,1/2-y,1/2+z
loop_
_atom_site_type_symbol
_atom_site_label
_atom_site_fract_x
_atom_site_fract_y
_atom_site_fract_z
Si Si1 0.500000 0.216841 0.750000
Si Si2 0.224846 0.958740 0.873554
Si Si3 0.361718 0.187757 0.980136
Si Si4 0.500000 0.203563 0.250000
Si Si5 0.678047 0.571897 0.972848
O O1 0.553351 0.189428 0.886231
O O2 0.249249 0.255723 0.752766
O O3 0.545383 0.941754 0.913371
O O4 0.000000 0.937315 0.750000
O O5 0.093633 0.939702 0.983517
O O6 0.209820 0.025673 0.874469
O O7 0.250000 0.250000 0.000000
O O8 0.479483 0.171027 0.124234
O O9 0.168061 0.135434 0.928738
#
# Coordination Sequence:
#
# PCOD9288255 Si02
#       5
#     4   8   8   4   8
#     4  10  22  42  60  91 136 175 212 260 324 396
#     4  10  22  43  67  92 131 169 226 275 335 389
#     4  10  23  44  65 101 135 173 217 271 333 405
#     4  10  22  38  66  89 132 175 216 260 318 392
#     4  10  23  42  65 100 126 174 220 276 334 399
#
# _framework density 24.441040000000001
#
# number of rings (size 3 to 8) (size 9 to 14) (size 15 to 20)
#    0.000    2.000    0.000    1.500    3.500    8.000 
#   24.750    0.000    0.000    0.000    0.000    0.000 
#    0.000    0.000    0.000    0.000    0.000    0.000 
#
# Total GULP energy -89095.629221 kJ/mol
# GULP energy per Si atom -5568.476826 kJ/mol
# Density = 2.438541 g / cm^3
# Si number density = 24.441040 Si / 1000 Ang^3
#
#
#
# Elastic Constant Matrix: (Units=GPa)
#
#
# Indices 1 2 3 4 5 6 
#
# 1 119.2962 5.8962 18.5626 0.0000 -8.2376 0.0000
# 2 5.8962 134.6343 6.5520 0.0000 -11.9046 0.0000
# 3 18.5626 6.5520 142.4289 0.0000 -27.5482 0.0000
# 4 0.0000 0.0000 0.0000 534.2015 0.0000 -553.3807
# 5 -8.2376 -11.9046 -27.5482 0.0000 42.0391 0.0000
# 6 0.0000 0.0000 0.0000 -553.3807 0.0000 611.1397
#
#
#
# Elastic Compliance Matrix: (Units=1/GPa)
#
#
# Indices 1 2 3 4 5 6 
#
# 1 0.008607 -0.000242 -0.000913 0.000000 0.001019 0.000000
# 2 -0.000242 0.007626 0.000102 0.000000 0.002179 0.000000
# 3 -0.000913 0.000102 0.008138 0.000000 0.005183 0.000000
# 4 0.000000 0.000000 0.000000 0.030192 0.000000 0.027339
# 5 0.001019 0.002179 0.005183 0.000000 0.028000 0.000000
# 6 0.000000 0.000000 0.000000 0.027339 0.000000 0.026391
#
#
# Mechanical properties :
#
#
# Convention : Reuss Voigt Hill
#
# Bulk Modulus (GPa) = 44.91647 50.93120 47.92383
# Shear Modulus (GPa) = 42.20016 261.83265 152.01640
#
# Velocity S-wave (km/s) = 4.15976 10.36151 7.89508
# Velocity P-wave (km/s) = 6.44118 12.80748 10.13707
#
# Compressibility (1/GPa) = 0.02226355
#
# Stress axis : x y z
#
# Youngs Moduli (GPa) = 116.18460 131.13318 122.88320
#
# Poissons Ratio (x) = 0.03178 0.11225
# Poissons Ratio (y) = 0.02816 -0.01256
# Poissons Ratio (z) = 0.10613 -0.01341
#
# Static dielectric constant tensor:
#      x y z
#    x 1.908790 0.000000 0.060540 
#    y 0.000000 2.009120 0.000000 
#    z 0.060540 0.000000 2.234230 
# 
# From -- ./inp_files/71964.got.cif
#   From: 2010.05.17/outbox.cif.g08.bks.cpg/sg15_36_cif.got.tgz:71964.got - 2010.06.03 18:47:42.
