data_PCOD9288321
_publ_section_title
;
Structure prediction by ZEFSAII (Michael W. Deem and Ramdas Pophale) SiO2 
 PCOD9288321
Probable space group: C 2/C
;
_chemical_formula_sum "Si O2"
_cell_formula_units_Z 60
_cell_length_a 12.158681
_cell_length_b 19.081495
_cell_length_c 20.677055
_cell_angle_alpha 90.000000
_cell_angle_beta 40.288534
_cell_angle_gamma 90.000000
_cell_volume 3102.045697
_symmetry_space_group_name_H-M "C 2/C"
_symmetry_group_IT_number 15
_symmetry_cell_setting 'monoclinic'
loop_
_space_group_symop_operation_xyz
x,y,z
-x,y,1/2-z
-x,-y,-z
x,-y,1/2+z
1/2+x,1/2+y,z
1/2-x,1/2+y,1/2-z
1/2-x,1/2-y,-z
1/2+x,1/2-y,1/2+z
loop_
_atom_site_type_symbol
_atom_site_label
_atom_site_fract_x
_atom_site_fract_y
_atom_site_fract_z
Si Si1 0.616382 0.903774 0.259498
Si Si2 0.822514 0.420036 0.956302
Si Si3 0.437723 0.048733 0.968475
Si Si4 0.133547 0.191292 0.387607
Si Si5 0.135041 0.236901 0.243476
Si Si6 0.500000 0.122693 0.250000
Si Si7 0.019067 0.320072 0.968959
Si Si8 0.019049 0.076721 0.961184
O O1 0.500000 0.924573 0.250000
O O2 0.564799 0.935718 0.351762
O O3 0.608015 0.819504 0.267234
O O4 0.806789 0.922270 0.154989
O O5 0.946430 0.420365 0.837953
O O6 0.803181 0.497378 0.995235
O O7 0.905647 0.364887 0.968988
O O8 0.636466 0.400934 0.015277
O O9 0.400452 0.123270 0.017443
O O10 0.500000 0.000000 0.000000
O O11 0.106878 0.199482 0.323811
O O12 0.328816 0.166914 0.311992
O O13 0.094564 0.263811 0.441988
O O14 0.000093 0.134105 0.473977
O O15 0.000000 0.214307 0.250000
O O16 0.326304 0.220151 0.134677
O O17 0.000000 0.000000 0.000000
#
# Coordination Sequence:
#
# PCOD9288321 Si02
#       8
#     8   8   8   8   8   4   8   8
#     4  11  23  40  65  94 131 171 215 262 324 387
#     4  10  23  41  65  96 126 170 213 262 328 381
#     4  10  23  41  64  91 127 173 209 262 324 385
#     4  11  23  42  64  99 129 169 218 269 332 382
#     4  11  24  40  64  97 129 172 217 269 324 392
#     4  10  22  38  68  92 130 168 210 272 318 392
#     4  11  22  44  65  92 133 165 215 268 330 384
#     4  11  25  40  65  98 129 167 215 272 314 390
#
# _framework density 19.342074
#
# number of rings (size 3 to 8) (size 9 to 14) (size 15 to 20)
#    0.000    1.333    4.000    0.800    4.667    5.867 
#    0.000    2.000    0.000    0.000    0.000    0.000 
#    0.000    0.000    0.000    0.000    0.000    0.000 
#
# Total GULP energy -167380.857415 kJ/mol
# GULP energy per Si atom -5579.361914 kJ/mol
# Density = 1.929805 g / cm^3
# Si number density = 19.342074 Si / 1000 Ang^3
#
#
#
# Elastic Constant Matrix: (Units=GPa)
#
#
# Indices 1 2 3 4 5 6 
#
# 1 99.3105 28.6162 49.5701 -0.0007 17.4609 0.0008
# 2 28.6162 82.7723 16.7033 -0.0004 18.3215 0.0009
# 3 49.5701 16.7033 99.5539 -0.0025 17.9332 0.0021
# 4 -0.0007 -0.0004 -0.0025 28.1029 0.0008 13.4583
# 5 17.4609 18.3215 17.9332 0.0008 34.1820 -0.0009
# 6 0.0008 0.0009 0.0021 13.4583 -0.0009 23.7273
#
#
#
# Elastic Compliance Matrix: (Units=1/GPa)
#
#
# Indices 1 2 3 4 5 6 
#
# 1 0.014555 -0.003233 -0.006270 0.000000 -0.002413 0.000000
# 2 -0.003233 0.014531 0.000306 0.000001 -0.006298 -0.000001
# 3 -0.006270 0.000306 0.013880 0.000002 -0.004243 -0.000003
# 4 0.000000 0.000001 0.000002 0.048854 -0.000004 -0.027710
# 5 -0.002413 -0.006298 -0.004243 -0.000004 0.036089 0.000004
# 6 0.000000 -0.000001 -0.000003 -0.027710 0.000004 0.057863
#
#
# Mechanical properties :
#
#
# Convention : Reuss Voigt Hill
#
# Bulk Modulus (GPa) = 40.69616 52.37954 46.53785
# Shear Modulus (GPa) = 23.54536 29.65224 26.59880
#
# Velocity S-wave (km/s) = 3.49279 3.91966 3.71236
# Velocity P-wave (km/s) = 6.11163 6.90104 6.51830
#
# Compressibility (1/GPa) = 0.02457234
#
# Stress axis : x y z
#
# Youngs Moduli (GPa) = 68.70592 68.81742 72.04690
#
# Poissons Ratio (x) = 0.22246 0.45175
# Poissons Ratio (y) = 0.22210 -0.02205
# Poissons Ratio (z) = 0.43080 -0.02106
#
# Static dielectric constant tensor:
#      x y z
#    x 1.667660 0.000000 0.004560 
#    y 0.000000 1.723160 0.000000 
#    z 0.004560 0.000000 1.633930 
# 
# From -- ./inp_files/239960.got.cif
#   From: 2010.05.17/outbox.cif.g08.bks.cpg/sg15_120_cif.got.tgz:239960.got - 2010.06.03 18:47:42.
