data_PCOD9288278
_publ_section_title
;
Structure prediction by ZEFSAII (Michael W. Deem and Ramdas Pophale) SiO2 
 PCOD9288278
Probable space group: C 2/C
;
_chemical_formula_sum "Si O2"
_cell_formula_units_Z 48
_cell_length_a 21.865916
_cell_length_b 9.248420
_cell_length_c 8.611445
_cell_angle_alpha 90.000000
_cell_angle_beta 89.384489
_cell_angle_gamma 90.000000
_cell_volume 1741.350485
_symmetry_space_group_name_H-M "C 2/C"
_symmetry_group_IT_number 15
_symmetry_cell_setting 'monoclinic'
loop_
_space_group_symop_operation_xyz
x,y,z
-x,y,1/2-z
-x,-y,-z
x,-y,1/2+z
1/2+x,1/2+y,z
1/2-x,1/2+y,1/2-z
1/2-x,1/2-y,-z
1/2+x,1/2-y,1/2+z
loop_
_atom_site_type_symbol
_atom_site_label
_atom_site_fract_x
_atom_site_fract_y
_atom_site_fract_z
Si Si1 0.500000 0.964067 0.750000
Si Si2 0.413568 0.859324 0.025906
Si Si3 0.832865 0.086688 0.021964
Si Si4 0.769477 0.155688 0.716480
Si Si5 0.838650 0.374503 0.487178
Si Si6 0.071367 0.145341 0.992139
Si Si7 0.000000 0.004390 0.250000
O O1 0.541260 0.871672 0.625867
O O2 0.547436 0.067500 0.838931
O O3 0.384958 0.702874 0.062460
O O4 0.353306 0.958381 0.000676
O O5 0.872320 0.952883 0.953782
O O6 0.789285 0.153098 0.892642
O O7 0.793538 0.999361 0.149205
O O8 0.802180 0.289520 0.624768
O O9 0.699217 0.159860 0.666805
O O10 0.905783 0.305725 0.493824
O O11 0.052901 0.096104 0.820557
O O12 0.018055 0.106708 0.108952
#
# Coordination Sequence:
#
# PCOD9288278 Si02
#       7
#     4   8   8   8   8   8   4
#     4  10  26  44  64 102 146 182 220 276 342 406
#     4  11  25  43  69  99 138 182 226 272 336 411
#     4  11  24  44  70 100 132 176 228 281 339 404
#     4  10  24  46  70  99 134 172 225 287 344 397
#     4  10  23  43  68  97 136 176 217 280 343 400
#     4  10  22  39  64  96 134 174 221 278 334 391
#     4  10  22  38  66  98 130 178 234 274 322 402
#
# _framework density 27.564810999999999
#
# number of rings (size 3 to 8) (size 9 to 14) (size 15 to 20)
#    0.000    1.667    0.000    3.000    0.000   18.000 
#    0.000    0.000    0.000    2.000    0.000    0.000 
#    0.000    0.000    0.000    0.000    0.000    0.000 
#
# Total GULP energy -134654.637122 kJ/mol
# GULP energy per Si atom -5610.609880 kJ/mol
# Density = 2.750207 g / cm^3
# Si number density = 27.564811 Si / 1000 Ang^3
#
#
#
# Elastic Constant Matrix: (Units=GPa)
#
#
# Indices 1 2 3 4 5 6 
#
# 1 121.8218 39.2139 45.0450 0.0000 24.8174 0.0000
# 2 39.2139 128.8512 23.8729 0.0000 -6.4741 0.0000
# 3 45.0450 23.8729 111.4271 0.0000 2.8161 0.0000
# 4 0.0000 0.0000 0.0000 33.9677 0.0000 3.7488
# 5 24.8174 -6.4741 2.8161 0.0000 45.8267 0.0000
# 6 0.0000 0.0000 0.0000 3.7488 0.0000 40.7623
#
#
#
# Elastic Compliance Matrix: (Units=1/GPa)
#
#
# Indices 1 2 3 4 5 6 
#
# 1 0.012142 -0.003290 -0.004032 0.000000 -0.006793 0.000000
# 2 -0.003290 0.009045 -0.000686 0.000000 0.003101 0.000000
# 3 -0.004032 -0.000686 0.010715 0.000000 0.001428 0.000000
# 4 0.000000 0.000000 0.000000 0.029742 0.000000 -0.002735
# 5 -0.006793 0.003101 0.001428 0.000000 0.025850 0.000000
# 6 0.000000 0.000000 0.000000 -0.002735 0.000000 0.024784
#
#
# Mechanical properties :
#
#
# Convention : Reuss Voigt Hill
#
# Bulk Modulus (GPa) = 62.94641 64.26264 63.60453
# Shear Modulus (GPa) = 37.42783 41.04257 39.23520
#
# Velocity S-wave (km/s) = 3.68885 3.86288 3.77686
# Velocity P-wave (km/s) = 6.40537 6.57721 6.49186
#
# Compressibility (1/GPa) = 0.01588653
#
# Stress axis : x y z
#
# Youngs Moduli (GPa) = 82.35660 110.55800 93.32308
#
# Poissons Ratio (x) = 0.36369 0.37629
# Poissons Ratio (y) = 0.27092 0.06406
# Poissons Ratio (z) = 0.33207 0.07589
#
# Static dielectric constant tensor:
#      x y z
#    x 2.138240 0.000000 -0.080370 
#    y 0.000000 2.095230 0.000000 
#    z -0.080370 0.000000 2.139150 
# 
# From -- ./inp_files/54988.got.cif
#   From: 2010.05.17/outbox.cif.g08.bks.cpg/sg15_28_cif.got.tgz:54988.got - 2010.06.03 18:47:42.
