data_PCOD9288383
_publ_section_title
;
Structure prediction by ZEFSAII (Michael W. Deem and Ramdas Pophale) SiO2 
 PCOD9288383
Probable space group: C 2/C
;
_chemical_formula_sum "Si O2"
_cell_formula_units_Z 48
_cell_length_a 21.429517
_cell_length_b 4.814505
_cell_length_c 17.395612
_cell_angle_alpha 90.000000
_cell_angle_beta 97.582601
_cell_angle_gamma 90.000000
_cell_volume 1779.055169
_symmetry_space_group_name_H-M "C 2/C"
_symmetry_group_IT_number 15
_symmetry_cell_setting 'monoclinic'
loop_
_space_group_symop_operation_xyz
x,y,z
-x,y,1/2-z
-x,-y,-z
x,-y,1/2+z
1/2+x,1/2+y,z
1/2-x,1/2+y,1/2-z
1/2-x,1/2-y,-z
1/2+x,1/2-y,1/2+z
loop_
_atom_site_type_symbol
_atom_site_label
_atom_site_fract_x
_atom_site_fract_y
_atom_site_fract_z
Si Si1 0.750000 0.250000 0.000000
Si Si2 0.320869 0.498927 0.148556
Si Si3 0.144360 0.481918 0.254624
Si Si4 0.936346 0.681185 0.941788
Si Si5 0.355984 0.670764 0.896588
Si Si6 0.500000 0.868759 0.750000
Si Si7 0.953235 0.006969 0.102828
O O1 0.730680 0.455735 0.924128
O O2 0.804927 0.122161 0.953544
O O3 0.331847 0.181766 0.172266
O O4 0.386155 0.604117 0.121696
O O5 0.319191 0.695792 0.223405
O O6 0.162609 0.657743 0.182034
O O7 0.067107 0.476019 0.246047
O O8 0.910540 0.372460 0.939612
O O9 0.887584 0.874179 0.886489
O O10 0.941557 0.815933 0.026628
O O11 0.002341 0.737747 0.911996
O O12 0.513589 0.669763 0.824820
#
# Coordination Sequence:
#
# PCOD9288383 Si02
#       7
#     4   8   8   8   8   4   8
#     4  12  30  52  76 100 144 196 258 302 342 424
#     4  11  27  46  75 106 145 193 241 299 362 434
#     4  11  26  46  71 111 147 187 237 294 379 433
#     4  11  25  44  72 106 146 188 238 302 361 440
#     4  12  27  48  73 105 143 198 243 299 364 424
#     4  10  22  38  74 106 152 182 218 298 364 460
#     4  10  23  44  71 111 150 183 237 295 378 440
#
# _framework density 26.980615
#
# number of rings (size 3 to 8) (size 9 to 14) (size 15 to 20)
#    0.000    1.000    3.333    1.000    9.333    7.333 
#    0.000    0.000    0.000    0.000    0.000    0.000 
#    0.000    0.000    0.000    0.000    0.000    0.000 
#
# Total GULP energy -134133.439282 kJ/mol
# GULP energy per Si atom -5588.893303 kJ/mol
# Density = 2.691921 g / cm^3
# Si number density = 26.980615 Si / 1000 Ang^3
#
#
#
# Elastic Constant Matrix: (Units=GPa)
#
#
# Indices 1 2 3 4 5 6 
#
# 1 44.3288 0.5830 -8.7449 0.0000 -14.4356 0.0000
# 2 0.5830 120.6278 11.0640 0.0000 10.3314 0.0000
# 3 -8.7449 11.0640 108.4803 0.0000 3.7181 0.0000
# 4 0.0000 0.0000 0.0000 31.1274 0.0000 13.0191
# 5 -14.4356 10.3314 3.7181 0.0000 48.5685 0.0000
# 6 0.0000 0.0000 0.0000 13.0191 0.0000 25.1091
#
#
#
# Elastic Compliance Matrix: (Units=1/GPa)
#
#
# Indices 1 2 3 4 5 6 
#
# 1 0.025422 -0.000948 0.001885 0.000000 0.007613 0.000000
# 2 -0.000948 0.008549 -0.000879 0.000000 -0.002033 0.000000
# 3 0.001885 -0.000879 0.009459 0.000000 0.000023 0.000000
# 4 0.000000 0.000000 0.000000 0.041022 0.000000 -0.021270
# 5 0.007613 -0.002033 0.000023 0.000000 0.023283 0.000000
# 6 0.000000 0.000000 0.000000 -0.021270 0.000000 0.050855
#
#
# Mechanical properties :
#
#
# Convention : Reuss Voigt Hill
#
# Bulk Modulus (GPa) = 22.96326 31.02678 26.99502
# Shear Modulus (GPa) = 28.90353 38.99667 33.95010
#
# Velocity S-wave (km/s) = 3.27658 3.80591 3.55112
# Velocity P-wave (km/s) = 4.77955 5.55319 5.18083
#
# Compressibility (1/GPa) = 0.04354783
#
# Stress axis : x y z
#
# Youngs Moduli (GPa) = 39.33550 116.96926 105.71885
#
# Poissons Ratio (x) = 0.11087 -0.19929
# Poissons Ratio (y) = 0.03728 0.09289
# Poissons Ratio (z) = -0.07415 0.10278
#
# Static dielectric constant tensor:
#      x y z
#    x 2.026500 0.000000 -0.053090 
#    y 0.000000 1.956640 0.000000 
#    z -0.053090 0.000000 2.086830 
# 
# From -- ./inp_files/217595.got.cif
#   From: 2010.05.17/outbox.cif.g08.bks.cpg/sg15_109_cif.got.tgz:217595.got - 2010.06.03 18:47:42.
