data_PCOD9288936
_publ_section_title
;
Structure prediction by ZEFSAII (Michael W. Deem and Ramdas Pophale) SiO2 
 PCOD9288936
Probable space group: C 2/C
;
_chemical_formula_sum "Si O2"
_cell_formula_units_Z 56
_cell_length_a 11.434968
_cell_length_b 17.186321
_cell_length_c 17.922278
_cell_angle_alpha 90.000000
_cell_angle_beta 52.458478
_cell_angle_gamma 90.000000
_cell_volume 2792.775679
_symmetry_space_group_name_H-M "C 2/C"
_symmetry_group_IT_number 15
_symmetry_cell_setting 'monoclinic'
loop_
_space_group_symop_operation_xyz
x,y,z
-x,y,1/2-z
-x,-y,-z
x,-y,1/2+z
1/2+x,1/2+y,z
1/2-x,1/2+y,1/2-z
1/2-x,1/2-y,-z
1/2+x,1/2-y,1/2+z
loop_
_atom_site_type_symbol
_atom_site_label
_atom_site_fract_x
_atom_site_fract_y
_atom_site_fract_z
Si Si1 0.148576 0.969881 0.482128
Si Si2 0.203954 0.625418 0.051707
Si Si3 0.373519 0.833216 0.634633
Si Si4 0.141845 0.794490 0.485180
Si Si5 0.811133 0.779802 0.651573
Si Si6 0.164521 0.867927 0.162160
Si Si7 0.151119 0.954300 0.657353
O O1 0.188663 0.881870 0.443959
O O2 0.125891 0.962974 0.579532
O O3 0.268124 0.038459 0.427813
O O4 0.000000 0.000000 0.500000
O O5 0.249525 0.684361 0.098623
O O6 0.036893 0.639924 0.092436
O O7 0.305202 0.636840 0.938539
O O8 0.379096 0.757875 0.579826
O O9 0.279436 0.814523 0.744748
O O10 0.287606 0.899838 0.622757
O O11 0.250000 0.750000 0.500000
O O12 0.982897 0.799651 0.586957
O O13 0.780631 0.687801 0.657424
O O14 0.000000 0.842214 0.250000
O O15 0.177634 0.958641 0.178093
O O16 0.000000 0.922104 0.750000
#
# Coordination Sequence:
#
# PCOD9288936 Si02
#       7
#     8   8   8   8   8   8   8
#     4  11  23  43  71  99 139 184 230 284 353 416
#     4  11  24  43  71 103 137 182 236 289 347 417
#     4  12  26  43  72  97 143 188 233 291 351 416
#     4  12  26  45  71 103 140 186 233 286 353 422
#     4  12  25  43  69 103 143 178 235 288 357 412
#     4  10  22  39  68 101 133 175 233 288 342 408
#     4  10  23  42  67  97 139 189 233 280 359 417
#
# _framework density 20.051735000000001
#
# number of rings (size 3 to 8) (size 9 to 14) (size 15 to 20)
#    0.000    0.857    4.286    2.571    2.000    4.571 
#    0.000    0.000    3.143    0.000    0.000    0.000 
#    0.000    0.000    0.000    0.000    0.000    0.000 
#
# Total GULP energy -156552.451192 kJ/mol
# GULP energy per Si atom -5591.158971 kJ/mol
# Density = 2.000610 g / cm^3
# Si number density = 20.051735 Si / 1000 Ang^3
#
#
#
# Elastic Constant Matrix: (Units=GPa)
#
#
# Indices 1 2 3 4 5 6 
#
# 1 142.0360 60.4340 39.0227 0.0000 -8.5223 0.0000
# 2 60.4340 126.4426 11.6676 0.0000 -8.9627 0.0000
# 3 39.0227 11.6676 101.6618 0.0000 -10.5511 0.0000
# 4 0.0000 0.0000 0.0000 24.0214 0.0000 -1.5883
# 5 -8.5223 -8.9627 -10.5511 0.0000 22.1089 0.0000
# 6 0.0000 0.0000 0.0000 -1.5883 0.0000 39.2143
#
#
#
# Elastic Compliance Matrix: (Units=1/GPa)
#
#
# Indices 1 2 3 4 5 6 
#
# 1 0.009806 -0.004356 -0.003214 0.000000 0.000480 0.000000
# 2 -0.004356 0.010116 0.000802 0.000000 0.002804 0.000000
# 3 -0.003214 0.000802 0.011451 0.000000 0.004551 0.000000
# 4 0.000000 0.000000 0.000000 0.041741 0.000000 0.001691
# 5 0.000480 0.002804 0.004551 0.000000 0.048724 0.000000
# 6 0.000000 0.000000 0.000000 0.001691 0.000000 0.025569
#
#
# Mechanical properties :
#
#
# Convention : Reuss Voigt Hill
#
# Bulk Modulus (GPa) = 56.06740 65.82099 60.94419
# Shear Modulus (GPa) = 29.96015 34.33666 32.14840
#
# Velocity S-wave (km/s) = 3.86961 4.14261 4.00843
# Velocity P-wave (km/s) = 6.92728 7.46850 7.20297
#
# Compressibility (1/GPa) = 0.01783568
#
# Stress axis : x y z
#
# Youngs Moduli (GPa) = 101.98069 98.85802 87.33212
#
# Poissons Ratio (x) = 0.43064 0.28070
# Poissons Ratio (y) = 0.44424 -0.07006
# Poissons Ratio (z) = 0.32778 -0.07930
#
# Static dielectric constant tensor:
#      x y z
#    x 1.682050 0.000000 0.004380 
#    y 0.000000 1.762530 0.000000 
#    z 0.004380 0.000000 1.701140 
# 
# From -- ./inp_files/199422.got.cif
#   From: 2010.05.17/outbox.cif.g08.bks.cpg/sg15_100_cif.got.tgz:199422.got - 2010.06.03 18:47:42.
