data_PCOD9288141
_publ_section_title
;
Structure prediction by ZEFSAII (Michael W. Deem and Ramdas Pophale) SiO2 
 PCOD9288141
Probable space group: C 2/C
;
_chemical_formula_sum "Si O2"
_cell_formula_units_Z 44
_cell_length_a 27.198409
_cell_length_b 10.366835
_cell_length_c 13.767532
_cell_angle_alpha 90.000000
_cell_angle_beta 149.757072
_cell_angle_gamma 90.000000
_cell_volume 1955.192759
_symmetry_space_group_name_H-M "C 2/C"
_symmetry_group_IT_number 15
_symmetry_cell_setting 'monoclinic'
loop_
_space_group_symop_operation_xyz
x,y,z
-x,y,1/2-z
-x,-y,-z
x,-y,1/2+z
1/2+x,1/2+y,z
1/2-x,1/2+y,1/2-z
1/2-x,1/2-y,-z
1/2+x,1/2-y,1/2+z
loop_
_atom_site_type_symbol
_atom_site_label
_atom_site_fract_x
_atom_site_fract_y
_atom_site_fract_z
Si Si1 0.701469 0.878306 0.601396
Si Si2 0.440073 0.383325 0.441964
Si Si3 0.500000 0.976691 0.750000
Si Si4 0.767257 0.985142 0.028290
Si Si5 0.669079 0.415360 0.062514
Si Si6 0.556865 0.118424 0.142545
O O1 0.727884 0.905024 0.534023
O O2 0.714575 0.728229 0.646779
O O3 0.591644 0.930691 0.429743
O O4 0.768998 0.971826 0.780292
O O5 0.500000 0.500000 0.500000
O O6 0.426426 0.400912 0.533413
O O7 0.477941 0.245983 0.471707
O O8 0.334109 0.394812 0.209313
O O9 0.468970 0.887463 0.787509
O O10 0.830534 0.044063 0.048987
O O11 0.672178 0.909525 0.828182
O O12 0.500000 0.000000 0.000000
#
# Coordination Sequence:
#
# PCOD9288141 Si02
#       6
#     8   8   4   8   8   8
#     4  10  23  40  64  94 121 159 206 249 304 368
#     4  11  26  42  61  94 126 160 209 257 306 363
#     4  10  22  38  64  92 124 162 202 248 304 362
#     4  10  23  41  65  92 123 163 206 252 306 368
#     4  11  22  41  65  89 125 162 201 256 309 357
#     4  11  23  42  66  93 125 163 208 251 302 373
#
# _framework density 22.504175
#
# number of rings (size 3 to 8) (size 9 to 14) (size 15 to 20)
#    0.000    1.455    0.000    4.364    0.000   15.273 
#    0.000    0.000    0.000    1.091    0.000    0.000 
#    0.000    0.000    0.000    0.000    0.000    0.000 
#
# Total GULP energy -123031.871899 kJ/mol
# GULP energy per Si atom -5592.357814 kJ/mol
# Density = 2.245295 g / cm^3
# Si number density = 22.504175 Si / 1000 Ang^3
#
#
#
# Elastic Constant Matrix: (Units=GPa)
#
#
# Indices 1 2 3 4 5 6 
#
# 1 172.0629 64.5904 6.8627 0.0000 -17.0252 0.0000
# 2 64.5904 129.2907 -0.0456 0.0000 -9.3138 0.0000
# 3 6.8627 -0.0456 46.1423 0.0000 -1.0050 0.0000
# 4 0.0000 0.0000 0.0000 16.6722 0.0000 0.9010
# 5 -17.0252 -9.3138 -1.0050 0.0000 20.5365 0.0000
# 6 0.0000 0.0000 0.0000 0.9010 0.0000 22.4576
#
#
#
# Elastic Compliance Matrix: (Units=1/GPa)
#
#
# Indices 1 2 3 4 5 6 
#
# 1 0.007620 -0.003469 -0.001034 0.000000 0.004693 0.000000
# 2 -0.003469 0.009575 0.000558 0.000000 0.001494 0.000000
# 3 -0.001034 0.000558 0.021837 0.000000 0.000464 0.000000
# 4 0.000000 0.000000 0.000000 0.060110 0.000000 -0.002412
# 5 0.004693 0.001494 0.000464 0.000000 0.053285 0.000000
# 6 0.000000 0.000000 0.000000 -0.002412 0.000000 0.044625
#
#
# Mechanical properties :
#
#
# Convention : Reuss Voigt Hill
#
# Bulk Modulus (GPa) = 32.11229 54.47899 43.29564
# Shear Modulus (GPa) = 23.22093 30.33914 26.78004
#
# Velocity S-wave (km/s) = 3.21573 3.67571 3.45338
# Velocity P-wave (km/s) = 5.29984 6.50195 5.93143
#
# Compressibility (1/GPa) = 0.03114073
#
# Stress axis : x y z
#
# Youngs Moduli (GPa) = 131.24019 104.43542 45.79463
#
# Poissons Ratio (x) = 0.36227 0.04737
# Poissons Ratio (y) = 0.45525 -0.02555
# Poissons Ratio (z) = 0.13576 -0.05827
#
# Static dielectric constant tensor:
#      x y z
#    x 1.883260 0.000000 -0.009940 
#    y 0.000000 1.775860 0.000000 
#    z -0.009940 0.000000 1.850190 
# 
# From -- ./inp_files/176759.got.cif
#   From: 2010.05.17/outbox.cif.g08.bks.cpg/sg15_89_cif.got.tgz:176759.got - 2010.06.03 18:47:42.
