data_PCOD9288894
_publ_section_title
;
Structure prediction by ZEFSAII (Michael W. Deem and Ramdas Pophale) SiO2 
 PCOD9288894
Probable space group: C 2/C
;
_chemical_formula_sum "Si O2"
_cell_formula_units_Z 44
_cell_length_a 29.469485
_cell_length_b 8.971718
_cell_length_c 23.428782
_cell_angle_alpha 90.000000
_cell_angle_beta 18.326303
_cell_angle_gamma 90.000000
_cell_volume 1947.688371
_symmetry_space_group_name_H-M "C 2/C"
_symmetry_group_IT_number 15
_symmetry_cell_setting 'monoclinic'
loop_
_space_group_symop_operation_xyz
x,y,z
-x,y,1/2-z
-x,-y,-z
x,-y,1/2+z
1/2+x,1/2+y,z
1/2-x,1/2+y,1/2-z
1/2-x,1/2-y,-z
1/2+x,1/2-y,1/2+z
loop_
_atom_site_type_symbol
_atom_site_label
_atom_site_fract_x
_atom_site_fract_y
_atom_site_fract_z
Si Si1 0.179956 0.493850 0.088688
Si Si2 0.311629 0.927030 0.192476
Si Si3 0.824302 0.964105 0.529451
Si Si4 0.951920 0.279649 0.511976
Si Si5 0.000000 0.258935 0.750000
Si Si6 0.451907 0.696253 0.223884
O O1 0.068689 0.359041 0.226505
O O2 0.128497 0.631942 0.113746
O O3 0.206735 0.550666 0.120894
O O4 0.323479 0.414333 0.894171
O O5 0.183680 0.832155 0.316242
O O6 0.242240 0.020555 0.328651
O O7 0.387293 0.060784 0.068116
O O8 0.436275 0.820209 0.070731
O O9 0.944210 0.841870 0.369324
O O10 0.901383 0.123491 0.429236
O O11 0.038797 0.209764 0.355519
#
# Coordination Sequence:
#
# PCOD9288894 Si02
#       6
#     8   8   8   8   4   8
#     4  11  23  38  63  95 124 168 208 265 309 391
#     4  10  23  43  67  93 129 170 214 270 316 381
#     4  11  22  43  60  92 133 165 206 269 313 388
#     4  10  22  43  67  93 126 167 216 265 319 375
#     4  12  26  36  62  96 132 164 206 256 348 362
#     4  10  22  39  67  85 124 168 216 252 310 382
#
# _framework density 22.590882000000001
#
# number of rings (size 3 to 8) (size 9 to 14) (size 15 to 20)
#    0.000    1.455    3.636    0.545    5.091    2.182 
#    0.000    0.000    0.000    0.000    0.000    0.000 
#    0.000    0.000    0.000    0.000    0.000    0.000 
#
# Total GULP energy -122888.696508 kJ/mol
# GULP energy per Si atom -5585.849841 kJ/mol
# Density = 2.253946 g / cm^3
# Si number density = 22.590882 Si / 1000 Ang^3
#
#
#
# Elastic Constant Matrix: (Units=GPa)
#
#
# Indices 1 2 3 4 5 6 
#
# 1 29.6086 16.3796 9.0474 0.0002 1.8734 0.0000
# 2 16.3796 86.6388 23.2657 0.0004 -0.1262 -0.0001
# 3 9.0474 23.2657 68.1103 0.0001 4.9408 0.0000
# 4 0.0002 0.0004 0.0001 31.0123 -0.0002 -6.6883
# 5 1.8734 -0.1262 4.9408 -0.0002 13.0011 0.0000
# 6 0.0000 -0.0001 0.0000 -6.6883 0.0000 32.3261
#
#
#
# Elastic Compliance Matrix: (Units=1/GPa)
#
#
# Indices 1 2 3 4 5 6 
#
# 1 0.038493 -0.006608 -0.002519 0.000000 -0.004654 0.000000
# 2 -0.006608 0.013884 -0.004056 0.000000 0.002628 0.000000
# 3 -0.002519 -0.004056 0.016843 0.000000 -0.006077 0.000000
# 4 0.000000 0.000000 0.000000 0.033751 0.000001 0.006983
# 5 -0.004654 0.002628 -0.006077 0.000001 0.079922 0.000000
# 6 0.000000 0.000000 0.000000 0.006983 0.000000 0.032380
#
#
# Mechanical properties :
#
#
# Convention : Reuss Voigt Hill
#
# Bulk Modulus (GPa) = 23.33364 31.30480 27.31922
# Shear Modulus (GPa) = 19.53709 24.31221 21.92465
#
# Velocity S-wave (km/s) = 2.94398 3.28410 3.11868
# Velocity P-wave (km/s) = 4.68051 5.31675 5.00874
#
# Compressibility (1/GPa) = 0.04285657
#
# Stress axis : x y z
#
# Youngs Moduli (GPa) = 25.97842 72.02346 59.37239
#
# Poissons Ratio (x) = 0.47592 0.14953
# Poissons Ratio (y) = 0.17166 0.24079
# Poissons Ratio (z) = 0.06543 0.29210
#
# Static dielectric constant tensor:
#      x y z
#    x 1.831750 0.000000 0.011240 
#    y 0.000000 1.818120 0.000000 
#    z 0.011240 0.000000 1.890630 
# 
# From -- ./inp_files/284378.got.cif
#   From: 2010.05.17/outbox.cif.g08.bks.cpg/sg15_143_cif.got.tgz:284378.got - 2010.06.03 18:47:42.
