data_PCOD9288184
_publ_section_title
;
Structure prediction by ZEFSAII (Michael W. Deem and Ramdas Pophale) SiO2 
 PCOD9288184
Probable space group: C 2/C
;
_chemical_formula_sum "Si O2"
_cell_formula_units_Z 44
_cell_length_a 18.545986
_cell_length_b 18.772303
_cell_length_c 5.309217
_cell_angle_alpha 90.000000
_cell_angle_beta 70.162715
_cell_angle_gamma 90.000000
_cell_volume 1738.724203
_symmetry_space_group_name_H-M "C 2/C"
_symmetry_group_IT_number 15
_symmetry_cell_setting 'monoclinic'
loop_
_space_group_symop_operation_xyz
x,y,z
-x,y,1/2-z
-x,-y,-z
x,-y,1/2+z
1/2+x,1/2+y,z
1/2-x,1/2+y,1/2-z
1/2-x,1/2-y,-z
1/2+x,1/2-y,1/2+z
loop_
_atom_site_type_symbol
_atom_site_label
_atom_site_fract_x
_atom_site_fract_y
_atom_site_fract_z
Si Si1 0.890185 0.540880 0.277968
Si Si2 0.288659 0.689169 0.716389
Si Si3 0.633453 0.194677 0.074438
Si Si4 0.000000 0.048686 0.250000
Si Si5 0.795573 0.042145 0.962471
Si Si6 0.925582 0.809088 0.690975
O O1 0.915472 0.495909 0.490482
O O2 0.908444 0.624527 0.282358
O O3 0.796910 0.540457 0.399844
O O4 0.198235 0.673926 0.788129
O O5 0.316239 0.623712 0.865684
O O6 0.340905 0.689647 0.410468
O O7 0.310009 0.767659 0.794048
O O8 0.581668 0.259140 0.041719
O O9 0.056414 0.108260 0.306072
O O10 0.000000 0.000000 0.500000
O O11 0.820937 0.995390 0.690784
O O12 0.000000 0.776910 0.750000
#
# Coordination Sequence:
#
# PCOD9288184 Si02
#       6
#     8   8   8   4   8   8
#     4   9  19  36  60  91 128 165 203 266 345 414
#     4  10  22  38  64  97 131 176 231 297 349 411
#     4  10  22  40  65  97 133 173 232 291 355 421
#     4  10  26  48  70  98 140 196 248 290 326 412
#     4   9  19  34  54  87 129 170 211 264 336 403
#     4  10  25  41  67  92 134 186 230 284 346 411
#
# _framework density 25.305909
#
# number of rings (size 3 to 8) (size 9 to 14) (size 15 to 20)
#    0.545    1.818    0.000    0.545    7.636    2.182 
#    0.000    0.000    0.000    1.091    0.000    0.000 
#    0.000    0.000    0.000    0.000    0.000    0.000 
#
# Total GULP energy -122560.615003 kJ/mol
# GULP energy per Si atom -5570.937046 kJ/mol
# Density = 2.524831 g / cm^3
# Si number density = 25.305909 Si / 1000 Ang^3
#
#
#
# Elastic Constant Matrix: (Units=GPa)
#
#
# Indices 1 2 3 4 5 6 
#
# 1 64.3710 28.8870 -4.9311 0.0000 3.8198 0.0000
# 2 28.8870 162.8234 63.5224 0.0000 19.1607 0.0000
# 3 -4.9311 63.5224 91.5525 0.0000 14.8871 0.0000
# 4 0.0000 0.0000 0.0000 15.9281 0.0000 26.9547
# 5 3.8198 19.1607 14.8871 0.0000 17.4292 0.0000
# 6 0.0000 0.0000 0.0000 26.9547 0.0000 30.0243
#
#
#
# Elastic Compliance Matrix: (Units=1/GPa)
#
#
# Indices 1 2 3 4 5 6 
#
# 1 0.018191 -0.004740 0.004726 0.000000 -0.002812 0.000000
# 2 -0.004740 0.010042 -0.006499 0.000000 -0.004449 0.000000
# 3 0.004726 -0.006499 0.017063 0.000000 -0.008465 0.000000
# 4 0.000000 0.000000 0.000000 -0.120907 0.000000 0.108546
# 5 -0.002812 -0.004449 -0.008465 0.000000 0.070113 0.000000
# 6 0.000000 0.000000 0.000000 0.108546 0.000000 -0.064142
#
#
# Mechanical properties :
#
#
# Convention : Reuss Voigt Hill
#
# Bulk Modulus (GPa) = 30.98927 54.85595 42.92261
# Shear Modulus (GPa) = -109.03476 28.09423 -40.47027
#
# Velocity S-wave (km/s) = -6.57117 3.33556 -4.00339
# Velocity P-wave (km/s) = 6.73061 6.04639 2.09074
#
# Compressibility (1/GPa) = 0.03226923
#
# Stress axis : x y z
#
# Youngs Moduli (GPa) = 54.97217 99.58524 58.60619
#
# Poissons Ratio (x) = 0.47204 -0.27697
# Poissons Ratio (y) = 0.26057 0.38089
# Poissons Ratio (z) = -0.25980 0.64721
#
# Static dielectric constant tensor:
#      x y z
#    x 2.107190 0.000000 -0.099710 
#    y 0.000000 1.322390 0.000000 
#    z -0.099710 0.000000 2.225740 
# 
# From -- ./inp_files/15281.got.cif
#   From: 2010.05.17/outbox.cif.g08.bks.cpg/sg15_8_cif.got.tgz:15281.got - 2010.06.03 18:47:42.
