data_PCOD9288362
_publ_section_title
;
Structure prediction by ZEFSAII (Michael W. Deem and Ramdas Pophale) SiO2 
 PCOD9288362
Probable space group: C 2/C
;
_chemical_formula_sum "Si O2"
_cell_formula_units_Z 36
_cell_length_a 11.603132
_cell_length_b 13.266690
_cell_length_c 13.044651
_cell_angle_alpha 90.000000
_cell_angle_beta 133.318319
_cell_angle_gamma 90.000000
_cell_volume 1460.949420
_symmetry_space_group_name_H-M "C 2/C"
_symmetry_group_IT_number 15
_symmetry_cell_setting 'monoclinic'
loop_
_space_group_symop_operation_xyz
x,y,z
-x,y,1/2-z
-x,-y,-z
x,-y,1/2+z
1/2+x,1/2+y,z
1/2-x,1/2+y,1/2-z
1/2-x,1/2-y,-z
1/2+x,1/2-y,1/2+z
loop_
_atom_site_type_symbol
_atom_site_label
_atom_site_fract_x
_atom_site_fract_y
_atom_site_fract_z
Si Si1 0.500000 0.690471 0.750000
Si Si2 0.686665 0.491107 0.122485
Si Si3 0.381347 0.859045 0.820034
Si Si4 0.686277 0.903715 0.101066
Si Si5 0.160158 0.715262 0.786137
O O1 0.463305 0.758208 0.825303
O O2 0.659545 0.628779 0.867164
O O3 0.784874 0.592689 0.165395
O O4 0.739349 0.484123 0.275005
O O5 0.751599 0.385904 0.116805
O O6 0.500000 0.500000 0.000000
O O7 0.271628 0.812320 0.843128
O O8 0.532025 0.927336 0.942340
O O9 0.630835 0.817517 0.149151
O O10 0.000000 0.732803 0.750000
#
# Coordination Sequence:
#
# PCOD9288362 Si02
#       5
#     4   8   8   8   8
#     4  10  22  38  70  94 124 162 212 272 320 370
#     4  10  24  42  61  93 129 166 211 260 317 372
#     4  11  22  41  68  91 126 169 209 262 316 377
#     4   9  22  41  63  94 125 159 218 255 315 376
#     4   9  23  42  62  93 127 165 207 257 313 377
#
# _framework density 24.641508000000002
#
# number of rings (size 3 to 8) (size 9 to 14) (size 15 to 20)
#    1.333    0.889    0.000    1.333    7.778    2.667 
#    2.000    0.000    0.000    0.000    0.000    0.000 
#    0.000    0.000    0.000    0.000    0.000    0.000 
#
# Total GULP energy -100321.688065 kJ/mol
# GULP energy per Si atom -5573.427115 kJ/mol
# Density = 2.458542 g / cm^3
# Si number density = 24.641508 Si / 1000 Ang^3
#
#
#
# Elastic Constant Matrix: (Units=GPa)
#
#
# Indices 1 2 3 4 5 6 
#
# 1 131.5204 19.4465 47.8168 0.0000 44.7904 0.0000
# 2 19.4465 56.6983 16.4147 0.0000 25.4419 0.0000
# 3 47.8168 16.4147 184.9420 0.0000 50.0347 0.0000
# 4 0.0000 0.0000 0.0000 22.5772 0.0000 7.6340
# 5 44.7904 25.4419 50.0347 0.0000 41.6118 0.0000
# 6 0.0000 0.0000 0.0000 7.6340 0.0000 1.5485
#
#
#
# Elastic Compliance Matrix: (Units=1/GPa)
#
#
# Indices 1 2 3 4 5 6 
#
# 1 0.012325 0.002689 0.000902 0.000000 -0.015996 0.000000
# 2 0.002689 0.025883 0.003071 0.000000 -0.022412 0.000000
# 3 0.000902 0.003071 0.008407 0.000000 -0.012957 0.000000
# 4 0.000000 0.000000 0.000000 -0.066410 0.000000 0.327399
# 5 -0.015996 -0.022412 -0.012957 0.000000 0.070532 0.000000
# 6 0.000000 0.000000 0.000000 0.327399 0.000000 -0.968270
#
#
# Mechanical properties :
#
#
# Convention : Reuss Voigt Hill
#
# Bulk Modulus (GPa) = 16.68366 60.05739 38.37052
# Shear Modulus (GPa) = -5.48921 32.44634 13.47857
#
# Velocity S-wave (km/s) = -1.49414 3.63262 2.34131
# Velocity P-wave (km/s) = 1.95157 6.48228 4.78689
#
# Compressibility (1/GPa) = 0.05993888
#
# Stress axis : x y z
#
# Youngs Moduli (GPa) = 81.13425 38.63600 118.95253
#
# Poissons Ratio (x) = -0.10390 -0.10731
# Poissons Ratio (y) = -0.21818 -0.36529
# Poissons Ratio (z) = -0.07319 -0.11865
#
# Static dielectric constant tensor:
#      x y z
#    x 2.072520 0.000000 -0.012900 
#    y 0.000000 2.242920 0.000000 
#    z -0.012900 0.000000 1.965030 
# 
# From -- ./inp_files/197509.got.cif
#   From: 2010.05.17/outbox.cif.g08.bks.cpg/sg15_99_cif.got.tgz:197509.got - 2010.06.03 18:47:42.
