data_PCOD9288285
_publ_section_title
;
Structure prediction by ZEFSAII (Michael W. Deem and Ramdas Pophale) SiO2 
 PCOD9288285
Probable space group: C 2/C
;
_chemical_formula_sum "Si O2"
_cell_formula_units_Z 56
_cell_length_a 16.893646
_cell_length_b 7.081139
_cell_length_c 23.010956
_cell_angle_alpha 90.000000
_cell_angle_beta 123.260535
_cell_angle_gamma 90.000000
_cell_volume 2301.779476
_symmetry_space_group_name_H-M "C 2/C"
_symmetry_group_IT_number 15
_symmetry_cell_setting 'monoclinic'
loop_
_space_group_symop_operation_xyz
x,y,z
-x,y,1/2-z
-x,-y,-z
x,-y,1/2+z
1/2+x,1/2+y,z
1/2-x,1/2+y,1/2-z
1/2-x,1/2-y,-z
1/2+x,1/2-y,1/2+z
loop_
_atom_site_type_symbol
_atom_site_label
_atom_site_fract_x
_atom_site_fract_y
_atom_site_fract_z
Si Si1 0.090425 0.847089 0.322466
Si Si2 0.165481 0.055433 0.245022
Si Si3 0.795828 0.764372 0.929361
Si Si4 0.094842 0.589598 0.007468
Si Si5 0.629381 0.905415 0.161123
Si Si6 0.919671 0.978498 0.553287
Si Si7 0.589317 0.726612 0.618038
O O1 0.126366 0.002293 0.291416
O O2 0.184462 0.722512 0.371296
O O3 0.073201 0.949293 0.377256
O O4 0.000000 0.764363 0.250000
O O5 0.278118 0.036170 0.291511
O O6 0.136864 0.899904 0.185769
O O7 0.124832 0.254178 0.209244
O O8 0.832478 0.576826 0.978926
O O9 0.847209 0.719144 0.887557
O O10 0.831442 0.937820 0.982031
O O11 0.141538 0.702691 0.080982
O O12 0.000000 0.500000 0.000000
O O13 0.947611 0.426674 0.870144
O O14 0.426667 0.746095 0.047321
O O15 0.006558 0.094195 0.560688
#
# Coordination Sequence:
#
# PCOD9288285 Si02
#       7
#     8   8   8   8   8   8   8
#     4  11  25  45  68  98 141 191 234 280 346 431
#     4  11  21  41  64  95 138 176 224 285 344 411
#     4  10  24  44  70 100 137 181 238 286 348 421
#     4  11  24  41  70 106 129 169 237 293 350 415
#     4  10  22  38  67 103 132 170 231 288 348 407
#     4  12  24  44  71  95 145 188 224 289 350 413
#     4  11  22  36  68  99 129 176 219 283 346 400
#
# _framework density 24.329003
#
# number of rings (size 3 to 8) (size 9 to 14) (size 15 to 20)
#    0.000    1.143    4.286    1.714    4.000    0.571 
#    0.000    1.429    3.143    0.000    0.000    0.000 
#    0.000    0.000    0.000    0.000    0.000    0.000 
#
# Total GULP energy -156230.702017 kJ/mol
# GULP energy per Si atom -5579.667929 kJ/mol
# Density = 2.427363 g / cm^3
# Si number density = 24.329003 Si / 1000 Ang^3
#
#
#
# Elastic Constant Matrix: (Units=GPa)
#
#
# Indices 1 2 3 4 5 6 
#
# 1 35.1122 19.1452 27.0228 0.0000 10.6114 0.0000
# 2 19.1452 127.5548 49.4902 0.0000 -1.3935 0.0000
# 3 27.0228 49.4902 148.1290 0.0000 10.1913 0.0000
# 4 0.0000 0.0000 0.0000 52.5533 0.0000 -0.3965
# 5 10.6114 -1.3935 10.1913 0.0000 36.4271 0.0000
# 6 0.0000 0.0000 0.0000 -0.3965 0.0000 3.9357
#
#
#
# Elastic Compliance Matrix: (Units=1/GPa)
#
#
# Indices 1 2 3 4 5 6 
#
# 1 0.037198 -0.003806 -0.004852 0.000000 -0.009624 0.000000
# 2 -0.003806 0.009449 -0.002614 0.000000 0.002201 0.000000
# 3 -0.004852 -0.002614 0.008584 0.000000 -0.001088 0.000000
# 4 0.000000 0.000000 0.000000 0.019043 0.000000 0.001918
# 5 -0.009624 0.002201 -0.001088 0.000000 0.030644 0.000000
# 6 0.000000 0.000000 0.000000 0.001918 0.000000 0.254276
#
#
# Mechanical properties :
#
#
# Convention : Reuss Voigt Hill
#
# Bulk Modulus (GPa) = 30.59292 55.79026 43.19159
# Shear Modulus (GPa) = 12.73447 32.92576 22.83011
#
# Velocity S-wave (km/s) = 2.29034 3.68279 3.06664
# Velocity P-wave (km/s) = 4.42675 6.40822 5.50733
#
# Compressibility (1/GPa) = 0.03268730
#
# Stress axis : x y z
#
# Youngs Moduli (GPa) = 26.88308 105.82761 116.49095
#
# Poissons Ratio (x) = 0.40275 0.56525
# Poissons Ratio (y) = 0.10231 0.30454
# Poissons Ratio (z) = 0.13045 0.27666
#
# Static dielectric constant tensor:
#      x y z
#    x 2.034360 0.000000 0.122680 
#    y 0.000000 1.973230 0.000000 
#    z 0.122680 0.000000 2.190740 
# 
# From -- ./inp_files/298620.got.cif
#   From: 2010.05.17/outbox.cif.g08.bks.cpg/sg15_150_cif.got.tgz:298620.got - 2010.06.03 18:47:42.
