data_PCOD9288796
_publ_section_title
;
Structure prediction by ZEFSAII (Michael W. Deem and Ramdas Pophale) SiO2 
 PCOD9288796
Probable space group: C 2/C
;
_chemical_formula_sum "Si O2"
_cell_formula_units_Z 48
_cell_length_a 12.308888
_cell_length_b 10.781149
_cell_length_c 18.123913
_cell_angle_alpha 90.000000
_cell_angle_beta 125.492941
_cell_angle_gamma 90.000000
_cell_volume 1958.213458
_symmetry_space_group_name_H-M "C 2/C"
_symmetry_group_IT_number 15
_symmetry_cell_setting 'monoclinic'
loop_
_space_group_symop_operation_xyz
x,y,z
-x,y,1/2-z
-x,-y,-z
x,-y,1/2+z
1/2+x,1/2+y,z
1/2-x,1/2+y,1/2-z
1/2-x,1/2-y,-z
1/2+x,1/2-y,1/2+z
loop_
_atom_site_type_symbol
_atom_site_label
_atom_site_fract_x
_atom_site_fract_y
_atom_site_fract_z
Si Si1 0.000000 0.472967 0.250000
Si Si2 0.689521 0.247612 0.777668
Si Si3 0.775359 0.945800 0.048838
Si Si4 0.000000 0.051156 0.250000
Si Si5 0.895788 0.210429 0.487837
Si Si6 0.444245 0.219527 0.303447
Si Si7 0.144033 0.308324 0.513898
O O1 0.120207 0.377342 0.279803
O O2 0.020284 0.573734 0.192146
O O3 0.582209 0.355928 0.729122
O O4 0.788784 0.245795 0.747945
O O5 0.788535 0.291974 0.880592
O O6 0.891165 0.992225 0.150397
O O7 0.825202 0.919378 0.983383
O O8 0.654917 0.045981 0.001250
O O9 0.713414 0.818198 0.054186
O O10 0.979804 0.229040 0.596431
O O11 0.001223 0.240149 0.464283
O O12 0.500000 0.274319 0.250000
O O13 0.250000 0.250000 0.500000
#
# Coordination Sequence:
#
# PCOD9288796 Si02
#       7
#     4   8   8   4   8   8   8
#     4   9  20  37  60  88 124 169 203 266 310 372
#     4   9  19  40  59  92 128 159 220 259 306 396
#     4  10  22  41  66  89 129 168 210 267 312 391
#     4   9  20  39  64  92 124 171 211 254 330 372
#     4  10  22  42  60  97 127 159 221 261 310 395
#     4   9  21  38  61  94 123 169 209 258 326 372
#     4  10  22  39  65  92 124 170 205 263 329 375
#
# _framework density 24.512139999999999
#
# number of rings (size 3 to 8) (size 9 to 14) (size 15 to 20)
#    0.500    2.000    0.000    0.500    3.500    3.333 
#    6.000    8.333    3.667    0.000    0.000    0.000 
#    0.000    0.000    0.000    0.000    0.000    0.000 
#
# Total GULP energy -133753.860129 kJ/mol
# GULP energy per Si atom -5573.077505 kJ/mol
# Density = 2.445635 g / cm^3
# Si number density = 24.512140 Si / 1000 Ang^3
#
#
#
# Elastic Constant Matrix: (Units=GPa)
#
#
# Indices 1 2 3 4 5 6 
#
# 1 212.7939 23.1113 18.8395 0.0000 0.2356 0.0000
# 2 23.1113 57.4270 0.6188 0.0000 -10.9784 0.0000
# 3 18.8395 0.6188 34.0369 0.0000 2.7013 0.0000
# 4 0.0000 0.0000 0.0000 22.7874 0.0000 8.5501
# 5 0.2356 -10.9784 2.7013 0.0000 21.7554 0.0000
# 6 0.0000 0.0000 0.0000 8.5501 0.0000 16.6970
#
#
#
# Elastic Compliance Matrix: (Units=1/GPa)
#
#
# Indices 1 2 3 4 5 6 
#
# 1 0.005186 -0.002216 -0.002764 0.000000 -0.000831 0.000000
# 2 -0.002216 0.020263 0.000045 0.000000 0.010244 0.000000
# 3 -0.002764 0.000045 0.031212 0.000000 -0.003823 0.000000
# 4 0.000000 0.000000 0.000000 0.054321 0.000000 -0.027816
# 5 -0.000831 0.010244 -0.003823 0.000000 0.051618 0.000000
# 6 0.000000 0.000000 0.000000 -0.027816 0.000000 0.074135
#
#
# Mechanical properties :
#
#
# Convention : Reuss Voigt Hill
#
# Bulk Modulus (GPa) = 21.37147 43.26633 32.31890
# Shear Modulus (GPa) = 19.06921 29.69383 24.38152
#
# Velocity S-wave (km/s) = 2.79220 3.48428 3.15726
# Velocity P-wave (km/s) = 4.37411 5.82033 5.14826
#
# Compressibility (1/GPa) = 0.04679135
#
# Stress axis : x y z
#
# Youngs Moduli (GPa) = 192.83788 49.35083 32.03863
#
# Poissons Ratio (x) = 0.10937 0.08856
# Poissons Ratio (y) = 0.42735 -0.00145
# Poissons Ratio (z) = 0.53301 -0.00223
#
# Static dielectric constant tensor:
#      x y z
#    x 2.005860 0.000000 0.152140 
#    y 0.000000 1.275720 0.000000 
#    z 0.152140 0.000000 1.818030 
# 
# From -- ./inp_files/237261.got.cif
#   From: 2010.05.17/outbox.cif.g08.bks.cpg/sg15_119_cif.got.tgz:237261.got - 2010.06.03 18:47:42.
