data_PCOD9288482
_publ_section_title
;
Structure prediction by ZEFSAII (Michael W. Deem and Ramdas Pophale) SiO2 
 PCOD9288482
Probable space group: C 2/C
;
_chemical_formula_sum "Si O2"
_cell_formula_units_Z 48
_cell_length_a 14.468416
_cell_length_b 16.903518
_cell_length_c 11.476304
_cell_angle_alpha 90.000000
_cell_angle_beta 55.586900
_cell_angle_gamma 90.000000
_cell_volume 2315.505502
_symmetry_space_group_name_H-M "C 2/C"
_symmetry_group_IT_number 15
_symmetry_cell_setting 'monoclinic'
loop_
_space_group_symop_operation_xyz
x,y,z
-x,y,1/2-z
-x,-y,-z
x,-y,1/2+z
1/2+x,1/2+y,z
1/2-x,1/2+y,1/2-z
1/2-x,1/2-y,-z
1/2+x,1/2-y,1/2+z
loop_
_atom_site_type_symbol
_atom_site_label
_atom_site_fract_x
_atom_site_fract_y
_atom_site_fract_z
Si Si1 0.561159 0.414258 0.439903
Si Si2 0.623343 0.395103 0.648016
Si Si3 0.738977 0.989357 0.302636
Si Si4 0.567228 0.125678 0.015102
Si Si5 0.328349 0.878301 0.804585
Si Si6 0.879787 0.791121 0.627104
O O1 0.500000 0.500000 0.500000
O O2 0.627456 0.384137 0.508060
O O3 0.658805 0.427194 0.277100
O O4 0.463709 0.349702 0.496326
O O5 0.500000 0.435216 0.750000
O O6 0.722438 0.448546 0.626846
O O7 0.615961 0.320533 0.741312
O O8 0.622084 0.948100 0.410303
O O9 0.733854 0.040046 0.186833
O O10 0.635950 0.129520 0.087710
O O11 0.438897 0.121156 0.145791
O O12 0.585555 0.202582 0.923324
O O13 0.244687 0.808757 0.828781
#
# Coordination Sequence:
#
# PCOD9288482 Si02
#       6
#     8   8   8   8   8   8
#     4  11  19  37  64  94 120 157 202 251 304 357
#     4   9  18  36  61  88 125 150 198 260 293 351
#     4  11  21  36  66  91 123 161 206 244 312 368
#     4  11  24  38  63  87 125 167 201 253 316 365
#     4  10  22  43  58  87 129 158 209 257 294 373
#     4  10  22  39  60  88 127 158 202 254 308 355
#
# _framework density 20.729814000000001
#
# number of rings (size 3 to 8) (size 9 to 14) (size 15 to 20)
#    0.000    1.667    5.000    2.000    2.333    0.000 
#    0.000    0.833   33.000    0.000    0.000    0.000 
#    0.000    0.000    0.000    0.000    0.000    0.000 
#
# Total GULP energy -133856.087973 kJ/mol
# GULP energy per Si atom -5577.336999 kJ/mol
# Density = 2.068263 g / cm^3
# Si number density = 20.729814 Si / 1000 Ang^3
#
#
#
# Elastic Constant Matrix: (Units=GPa)
#
#
# Indices 1 2 3 4 5 6 
#
# 1 77.8235 19.0761 7.9697 0.0000 -3.9617 0.0000
# 2 19.0761 83.3620 17.2589 0.0000 2.8065 0.0000
# 3 7.9697 17.2589 52.6746 0.0000 -2.8880 0.0000
# 4 0.0000 0.0000 0.0000 25.4752 0.0000 -2.4847
# 5 -3.9617 2.8065 -2.8880 0.0000 25.5122 0.0000
# 6 0.0000 0.0000 0.0000 -2.4847 0.0000 15.7102
#
#
#
# Elastic Compliance Matrix: (Units=1/GPa)
#
#
# Indices 1 2 3 4 5 6 
#
# 1 0.013814 -0.003042 -0.000964 0.000000 0.002371 0.000000
# 2 -0.003042 0.013631 -0.004140 0.000000 -0.002440 0.000000
# 3 -0.000964 -0.004140 0.020632 0.000000 0.002641 0.000000
# 4 0.000000 0.000000 0.000000 0.039869 0.000000 0.006305
# 5 0.002371 -0.002440 0.002641 0.000000 0.040133 0.000000
# 6 0.000000 0.000000 0.000000 0.006305 0.000000 0.064650
#
#
# Mechanical properties :
#
#
# Convention : Reuss Voigt Hill
#
# Bulk Modulus (GPa) = 31.45927 33.60772 32.53350
# Shear Modulus (GPa) = 22.76717 24.64322 23.70519
#
# Velocity S-wave (km/s) = 3.31763 3.45161 3.38528
# Velocity P-wave (km/s) = 5.46666 5.66853 5.56851
#
# Compressibility (1/GPa) = 0.03178713
#
# Stress axis : x y z
#
# Youngs Moduli (GPa) = 72.38778 73.36139 48.46952
#
# Poissons Ratio (x) = 0.22313 0.04670
# Poissons Ratio (y) = 0.22017 0.20066
# Poissons Ratio (z) = 0.06975 0.30371
#
# Static dielectric constant tensor:
#      x y z
#    x 1.751010 0.000000 0.002770 
#    y 0.000000 1.739910 0.000000 
#    z 0.002770 0.000000 1.785930 
# 
# From -- ./inp_files/96853.got.cif
#   From: 2010.05.17/outbox.cif.g08.bks.cpg/sg15_49_cif.got.tgz:96853.got - 2010.06.03 18:47:42.
