data_PCOD9288732
_publ_section_title
;
Structure prediction by ZEFSAII (Michael W. Deem and Ramdas Pophale) SiO2 
 PCOD9288732
Probable space group: C 2/C
;
_chemical_formula_sum "Si O2"
_cell_formula_units_Z 48
_cell_length_a 10.339822
_cell_length_b 24.236752
_cell_length_c 11.256134
_cell_angle_alpha 90.000000
_cell_angle_beta 123.968020
_cell_angle_gamma 90.000000
_cell_volume 2339.453163
_symmetry_space_group_name_H-M "C 2/C"
_symmetry_group_IT_number 15
_symmetry_cell_setting 'monoclinic'
loop_
_space_group_symop_operation_xyz
x,y,z
-x,y,1/2-z
-x,-y,-z
x,-y,1/2+z
1/2+x,1/2+y,z
1/2-x,1/2+y,1/2-z
1/2-x,1/2-y,-z
1/2+x,1/2-y,1/2+z
loop_
_atom_site_type_symbol
_atom_site_label
_atom_site_fract_x
_atom_site_fract_y
_atom_site_fract_z
Si Si1 0.114974 0.853008 0.948070
Si Si2 0.484178 0.755607 0.452305
Si Si3 0.361359 0.133576 0.771783
Si Si4 0.217298 0.901824 0.756723
Si Si5 0.594371 0.010580 0.670419
Si Si6 0.342988 0.793642 0.736536
O O1 0.214237 0.880184 0.892387
O O2 0.060074 0.789456 0.901733
O O3 0.958839 0.889472 0.874497
O O4 0.208238 0.853358 0.117762
O O5 0.420447 0.815115 0.379247
O O6 0.620429 0.767189 0.616601
O O7 0.320130 0.726234 0.403113
O O8 0.500000 0.127200 0.750000
O O9 0.342852 0.072769 0.814951
O O10 0.273946 0.963318 0.764292
O O11 0.327790 0.859136 0.744933
O O12 0.500000 0.006852 0.750000
O O13 0.500000 0.000000 0.500000
O O14 0.500000 0.778925 0.750000
#
# Coordination Sequence:
#
# PCOD9288732 Si02
#       6
#     8   8   8   8   8   8
#     4  10  22  41  62 102 123 172 224 271 354 388
#     4  11  22  38  63  90 128 164 218 276 330 404
#     4  11  23  37  64  93 129 165 220 276 334 397
#     4  10  22  39  64  90 132 171 217 277 328 404
#     4  11  23  43  68  99 133 179 232 274 333 406
#     4  11  22  37  58  86 123 169 209 266 333 398
#
# _framework density 20.517613999999998
#
# number of rings (size 3 to 8) (size 9 to 14) (size 15 to 20)
#    0.000    1.333    1.667    5.000    4.667    2.000 
#    0.000    0.000    3.667    0.000    0.000    0.000 
#    0.000    0.000    0.000    0.000    0.000    0.000 
#
# Total GULP energy -133744.240178 kJ/mol
# GULP energy per Si atom -5572.676674 kJ/mol
# Density = 2.047091 g / cm^3
# Si number density = 20.517614 Si / 1000 Ang^3
#
#
#
# Elastic Constant Matrix: (Units=GPa)
#
#
# Indices 1 2 3 4 5 6 
#
# 1 51.5632 26.0554 -3.0700 0.0000 -3.1886 0.0000
# 2 26.0554 175.2281 14.5740 0.0000 -1.9328 0.0000
# 3 -3.0700 14.5740 81.6034 0.0000 8.5941 0.0000
# 4 0.0000 0.0000 0.0000 25.3367 0.0000 -0.3228
# 5 -3.1886 -1.9328 8.5941 0.0000 22.5582 0.0000
# 6 0.0000 0.0000 0.0000 -0.3228 0.0000 16.6559
#
#
#
# Elastic Compliance Matrix: (Units=1/GPa)
#
#
# Indices 1 2 3 4 5 6 
#
# 1 0.021233 -0.003226 0.001133 0.000000 0.002293 0.000000
# 2 -0.003226 0.006302 -0.001308 0.000000 0.000582 0.000000
# 3 0.001133 -0.001308 0.013049 0.000000 -0.004923 0.000000
# 4 0.000000 0.000000 0.000000 0.039478 0.000000 0.000765
# 5 0.002293 0.000582 -0.004923 0.000000 0.046579 0.000000
# 6 0.000000 0.000000 0.000000 0.000765 0.000000 0.060054
#
#
# Mechanical properties :
#
#
# Convention : Reuss Voigt Hill
#
# Bulk Modulus (GPa) = 29.60125 42.61263 36.10694
# Shear Modulus (GPa) = 24.41906 30.96584 27.69245
#
# Velocity S-wave (km/s) = 3.45360 3.88910 3.67780
# Velocity P-wave (km/s) = 5.51014 6.40161 5.97254
#
# Compressibility (1/GPa) = 0.03378236
#
# Stress axis : x y z
#
# Youngs Moduli (GPa) = 47.09601 158.68494 76.63328
#
# Poissons Ratio (x) = 0.51196 -0.08686
# Poissons Ratio (y) = 0.15194 0.10025
# Poissons Ratio (z) = -0.05338 0.20759
#
# Static dielectric constant tensor:
#      x y z
#    x 1.786020 0.000000 -0.025960 
#    y 0.000000 1.781410 0.000000 
#    z -0.025960 0.000000 1.825770 
# 
# From -- ./inp_files/89787.got.cif
#   From: 2010.05.17/outbox.cif.g08.bks.cpg/sg15_45_cif.got.tgz:89787.got - 2010.06.03 18:47:42.
