data_PCOD9288147
_publ_section_title
;
Structure prediction by ZEFSAII (Michael W. Deem and Ramdas Pophale) SiO2 
 PCOD9288147
Probable space group: C 2/C
;
_chemical_formula_sum "Si O2"
_cell_formula_units_Z 56
_cell_length_a 12.101951
_cell_length_b 8.568182
_cell_length_c 28.466919
_cell_angle_alpha 90.000000
_cell_angle_beta 54.737393
_cell_angle_gamma 90.000000
_cell_volume 2410.174369
_symmetry_space_group_name_H-M "C 2/C"
_symmetry_group_IT_number 15
_symmetry_cell_setting 'monoclinic'
loop_
_space_group_symop_operation_xyz
x,y,z
-x,y,1/2-z
-x,-y,-z
x,-y,1/2+z
1/2+x,1/2+y,z
1/2-x,1/2+y,1/2-z
1/2-x,1/2-y,-z
1/2+x,1/2-y,1/2+z
loop_
_atom_site_type_symbol
_atom_site_label
_atom_site_fract_x
_atom_site_fract_y
_atom_site_fract_z
Si Si1 0.328689 0.036732 0.454626
Si Si2 0.882539 0.583007 0.844660
Si Si3 0.500000 0.851903 0.750000
Si Si4 0.125445 0.477558 0.894157
Si Si5 0.163000 0.102918 0.580719
Si Si6 0.282934 0.606505 0.777801
Si Si7 0.851806 0.135880 0.657167
Si Si8 0.000000 0.846366 0.750000
O O1 0.469905 0.018722 0.448212
O O2 0.206788 0.023482 0.520868
O O3 0.319485 0.209965 0.432965
O O4 0.345013 0.916666 0.408065
O O5 0.986797 0.452449 0.800479
O O6 0.741666 0.535642 0.853795
O O7 0.939410 0.738982 0.806369
O O8 0.369952 0.745021 0.778149
O O9 0.237623 0.535638 0.903647
O O10 0.150728 0.581282 0.841240
O O11 0.141324 0.301087 0.871387
O O12 0.004277 0.080970 0.629857
O O13 0.271834 0.641340 0.725784
O O14 0.379505 0.455935 0.760993
#
# Coordination Sequence:
#
# PCOD9288147 Si02
#       8
#     8   8   4   8   8   8   8   4
#     4  10  23  42  69  96 130 176 231 282 328 400
#     4  11  23  40  60 103 137 168 220 282 333 409
#     4  10  22  38  64  92 136 170 224 266 334 400
#     4  11  22  42  67  97 130 175 226 277 334 402
#     4  10  22  46  68  93 130 180 231 277 334 395
#     4  11  22  40  65  95 128 181 215 270 340 409
#     4  11  25  38  66  96 136 171 220 270 339 407
#     4  10  22  40  64  90 144 174 216 274 348 404
#
# _framework density 23.234832000000001
#
# number of rings (size 3 to 8) (size 9 to 14) (size 15 to 20)
#    0.000    1.429    1.429    4.714    6.000    0.571 
#    2.571    0.714    0.000    0.000    0.000    0.000 
#    0.000    0.000    0.000    0.000    0.000    0.000 
#
# Total GULP energy -156574.882257 kJ/mol
# GULP energy per Si atom -5591.960081 kJ/mol
# Density = 2.318195 g / cm^3
# Si number density = 23.234832 Si / 1000 Ang^3
#
#
#
# Elastic Constant Matrix: (Units=GPa)
#
#
# Indices 1 2 3 4 5 6 
#
# 1 98.2553 38.7900 15.3201 0.0000 6.9702 0.0000
# 2 38.7900 62.1181 19.8137 0.0000 4.8446 0.0000
# 3 15.3201 19.8137 99.9924 0.0000 9.1739 0.0000
# 4 0.0000 0.0000 0.0000 17.4514 0.0000 4.6302
# 5 6.9702 4.8446 9.1739 0.0000 39.5853 0.0000
# 6 0.0000 0.0000 0.0000 4.6302 0.0000 16.4637
#
#
#
# Elastic Compliance Matrix: (Units=1/GPa)
#
#
# Indices 1 2 3 4 5 6 
#
# 1 0.013590 -0.008282 -0.000321 0.000000 -0.001305 0.000000
# 2 -0.008282 0.022302 -0.003100 0.000000 -0.000553 0.000000
# 3 -0.000321 -0.003100 0.010855 0.000000 -0.002080 0.000000
# 4 0.000000 0.000000 0.000000 0.061923 0.000000 -0.017415
# 5 -0.001305 -0.000553 -0.002080 0.000000 0.026041 0.000000
# 6 0.000000 0.000000 0.000000 -0.017415 0.000000 0.065637
#
#
# Mechanical properties :
#
#
# Convention : Reuss Voigt Hill
#
# Bulk Modulus (GPa) = 42.84313 45.35705 44.10009
# Shear Modulus (GPa) = 21.59509 27.12953 24.36231
#
# Velocity S-wave (km/s) = 3.05196 3.42076 3.24161
# Velocity P-wave (km/s) = 5.55864 5.93006 5.74735
#
# Compressibility (1/GPa) = 0.02334096
#
# Stress axis : x y z
#
# Youngs Moduli (GPa) = 73.58427 44.83932 92.12365
#
# Poissons Ratio (x) = 0.37136 0.02960
# Poissons Ratio (y) = 0.60942 0.28554
# Poissons Ratio (z) = 0.02364 0.13898
#
# Static dielectric constant tensor:
#      x y z
#    x 1.976020 0.000000 0.046800 
#    y 0.000000 1.898280 0.000000 
#    z 0.046800 0.000000 1.867970 
# 
# From -- ./inp_files/310259.got.cif
#   From: 2010.05.17/outbox.cif.g08.bks.cpg/sg15_156_cif.got.tgz:310259.got - 2010.06.03 18:47:42.
