data_PCOD9288060
_publ_section_title
;
Structure prediction by ZEFSAII (Michael W. Deem and Ramdas Pophale) SiO2 
 PCOD9288060
Probable space group: C 2/C
;
_chemical_formula_sum "Si O2"
_cell_formula_units_Z 36
_cell_length_a 7.664936
_cell_length_b 7.920259
_cell_length_c 22.658776
_cell_angle_alpha 90.000000
_cell_angle_beta 87.809847
_cell_angle_gamma 90.000000
_cell_volume 1374.570421
_symmetry_space_group_name_H-M "C 2/C"
_symmetry_group_IT_number 15
_symmetry_cell_setting 'monoclinic'
loop_
_space_group_symop_operation_xyz
x,y,z
-x,y,1/2-z
-x,-y,-z
x,-y,1/2+z
1/2+x,1/2+y,z
1/2-x,1/2+y,1/2-z
1/2-x,1/2-y,-z
1/2+x,1/2-y,1/2+z
loop_
_atom_site_type_symbol
_atom_site_label
_atom_site_fract_x
_atom_site_fract_y
_atom_site_fract_z
Si Si1 0.530216 0.344361 0.042435
Si Si2 0.244334 0.550064 0.621340
Si Si3 0.386275 0.183521 0.576687
Si Si4 0.500000 0.703071 0.250000
Si Si5 0.315492 0.391993 0.257444
O O1 0.365271 0.314611 0.085832
O O2 0.694347 0.396014 0.080375
O O3 0.500000 0.500000 0.000000
O O4 0.569944 0.198641 0.994418
O O5 0.332589 0.371478 0.601571
O O6 0.259162 0.568040 0.691163
O O7 0.047334 0.586557 0.603587
O O8 0.377088 0.567872 0.285698
O O9 0.641810 0.808650 0.284131
O O10 0.500000 0.291299 0.250000
#
# Coordination Sequence:
#
# PCOD9288060 Si02
#       5
#     8   8   8   4   8
#     4   9  21  39  61  92 134 169 211 262 322 388
#     4  11  22  40  63  95 123 170 216 266 326 395
#     4  10  22  38  62  95 130 170 211 263 319 395
#     4  10  24  46  68  96 130 176 222 288 346 396
#     4  10  25  43  69  96 134 174 229 284 344 404
#
# _framework density 26.189999
#
# number of rings (size 3 to 8) (size 9 to 14) (size 15 to 20)
#    0.667    1.333    0.000    2.000    1.556   15.111 
#    0.000    0.000    0.000    0.000    0.000    0.000 
#    0.000    0.000    0.000    0.000    0.000    0.000 
#
# Total GULP energy -100454.763331 kJ/mol
# GULP energy per Si atom -5580.820185 kJ/mol
# Density = 2.613039 g / cm^3
# Si number density = 26.189999 Si / 1000 Ang^3
#
#
#
# Elastic Constant Matrix: (Units=GPa)
#
#
# Indices 1 2 3 4 5 6 
#
# 1 221.2068 66.0252 49.1158 0.0000 42.2338 0.0000
# 2 66.0252 80.0702 22.0455 0.0000 5.5756 0.0000
# 3 49.1158 22.0455 117.6049 0.0000 2.7927 0.0000
# 4 0.0000 0.0000 0.0000 16.1682 0.0000 6.1927
# 5 42.2338 5.5756 2.7927 0.0000 47.1071 0.0000
# 6 0.0000 0.0000 0.0000 6.1927 0.0000 53.8616
#
#
#
# Elastic Compliance Matrix: (Units=1/GPa)
#
#
# Indices 1 2 3 4 5 6 
#
# 1 0.007787 -0.005413 -0.002090 0.000000 -0.006217 0.000000
# 2 -0.005413 0.017026 -0.001000 0.000000 0.002897 0.000000
# 3 -0.002090 -0.001000 0.009529 0.000000 0.001427 0.000000
# 4 0.000000 0.000000 0.000000 0.064699 0.000000 -0.007439
# 5 -0.006217 0.002897 0.001427 0.000000 0.026375 0.000000
# 6 0.000000 0.000000 0.000000 -0.007439 0.000000 0.019421
#
#
# Mechanical properties :
#
#
# Convention : Reuss Voigt Hill
#
# Bulk Modulus (GPa) = 57.67867 77.02831 67.35349
# Shear Modulus (GPa) = 29.82895 42.20709 36.01802
#
# Velocity S-wave (km/s) = 3.37849 4.01879 3.71247
# Velocity P-wave (km/s) = 6.10654 7.14209 6.64452
#
# Compressibility (1/GPa) = 0.01733743
#
# Stress axis : x y z
#
# Youngs Moduli (GPa) = 128.41271 58.73331 104.93847
#
# Poissons Ratio (x) = 0.31793 0.21932
# Poissons Ratio (y) = 0.69511 0.10491
# Poissons Ratio (z) = 0.26838 0.05872
#
# Static dielectric constant tensor:
#      x y z
#    x 2.119110 0.000000 -0.029220 
#    y 0.000000 2.298230 0.000000 
#    z -0.029220 0.000000 2.018960 
# 
# From -- ./inp_files/286911.got.cif
#   From: 2010.05.17/outbox.cif.g08.bks.cpg/sg15_144_cif.got.tgz:286911.got - 2010.06.03 18:47:42.
