data_PCOD9288562
_publ_section_title
;
Structure prediction by ZEFSAII (Michael W. Deem and Ramdas Pophale) SiO2 
 PCOD9288562
Probable space group: C 2/C
;
_chemical_formula_sum "Si O2"
_cell_formula_units_Z 40
_cell_length_a 15.843175
_cell_length_b 25.310885
_cell_length_c 9.087100
_cell_angle_alpha 90.000000
_cell_angle_beta 34.675290
_cell_angle_gamma 90.000000
_cell_volume 2073.145589
_symmetry_space_group_name_H-M "C 2/C"
_symmetry_group_IT_number 15
_symmetry_cell_setting 'monoclinic'
loop_
_space_group_symop_operation_xyz
x,y,z
-x,y,1/2-z
-x,-y,-z
x,-y,1/2+z
1/2+x,1/2+y,z
1/2-x,1/2+y,1/2-z
1/2-x,1/2-y,-z
1/2+x,1/2-y,1/2+z
loop_
_atom_site_type_symbol
_atom_site_label
_atom_site_fract_x
_atom_site_fract_y
_atom_site_fract_z
Si Si1 0.548992 0.226882 0.019918
Si Si2 0.604859 0.146795 0.453585
Si Si3 0.542797 0.945877 0.518877
Si Si4 0.398528 0.661805 0.184444
Si Si5 0.790136 0.135364 0.668054
O O1 0.500000 0.246645 0.250000
O O2 0.420354 0.198857 0.108838
O O3 0.604281 0.275754 0.844358
O O4 0.669539 0.180746 0.876423
O O5 0.548876 0.098788 0.435526
O O6 0.773510 0.138374 0.258209
O O7 0.500000 0.151017 0.750000
O O8 0.500000 0.949823 0.750000
O O9 0.709521 0.921430 0.279013
O O10 0.500000 0.000000 0.500000
O O11 0.343963 0.649504 0.426983
O O12 0.566421 0.640596 0.933766
#
# Coordination Sequence:
#
# PCOD9288562 Si02
#       5
#     8   8   8   8   8
#     4  11  23  37  57  92 135 179 214 246 302 371
#     4  11  21  38  64  90 123 169 216 247 306 376
#     4  11  24  44  71  91 117 157 209 261 317 380
#     4  11  22  36  64  90 135 166 207 261 310 359
#     4  10  22  39  61  94 128 163 214 260 309 367
#
# _framework density 19.294352
#
# number of rings (size 3 to 8) (size 9 to 14) (size 15 to 20)
#    0.000    1.200    4.000    4.800    2.800    4.800 
#    0.000    1.000    0.000    0.000    0.000    0.000 
#    0.000    0.000    0.000    0.000    0.000    0.000 
#
# Total GULP energy -111648.213196 kJ/mol
# GULP energy per Si atom -5582.410660 kJ/mol
# Density = 1.925044 g / cm^3
# Si number density = 19.294352 Si / 1000 Ang^3
#
#
#
# Elastic Constant Matrix: (Units=GPa)
#
#
# Indices 1 2 3 4 5 6 
#
# 1 145.8668 30.0838 45.0708 0.0000 -20.0931 0.0000
# 2 30.0838 91.0225 29.7518 0.0000 6.9424 0.0000
# 3 45.0708 29.7518 68.7600 0.0000 -0.1247 0.0000
# 4 0.0000 0.0000 0.0000 13.2765 0.0000 1.4003
# 5 -20.0931 6.9424 -0.1247 0.0000 55.4019 0.0000
# 6 0.0000 0.0000 0.0000 1.4003 0.0000 23.0233
#
#
#
# Elastic Compliance Matrix: (Units=1/GPa)
#
#
# Indices 1 2 3 4 5 6 
#
# 1 0.009357 -0.001588 -0.005440 0.000000 0.003580 0.000000
# 2 -0.001588 0.013212 -0.004680 0.000000 -0.002242 0.000000
# 3 -0.005440 -0.004680 0.020132 0.000000 -0.001341 0.000000
# 4 0.000000 0.000000 0.000000 0.075808 0.000000 -0.004611
# 5 0.003580 -0.002242 -0.001341 0.000000 0.019626 0.000000
# 6 0.000000 0.000000 0.000000 -0.004611 0.000000 0.043715
#
#
# Mechanical properties :
#
#
# Convention : Reuss Voigt Hill
#
# Bulk Modulus (GPa) = 51.85278 57.27357 54.56318
# Shear Modulus (GPa) = 23.61917 31.72320 27.67119
#
# Velocity S-wave (km/s) = 3.50258 4.05924 3.79114
# Velocity P-wave (km/s) = 6.57954 7.19155 6.89234
#
# Compressibility (1/GPa) = 0.01928537
#
# Stress axis : x y z
#
# Youngs Moduli (GPa) = 106.87152 75.69033 49.67297
#
# Poissons Ratio (x) = 0.12016 0.27022
# Poissons Ratio (y) = 0.16966 0.23247
# Poissons Ratio (z) = 0.58137 0.35423
#
# Static dielectric constant tensor:
#      x y z
#    x 1.712260 0.000000 -0.022060 
#    y 0.000000 1.681340 0.000000 
#    z -0.022060 0.000000 1.713480 
# 
# From -- ./inp_files/41954.got.cif
#   From: 2010.05.17/outbox.cif.g08.bks.cpg/sg15_21_cif.got.tgz:41954.got - 2010.06.03 18:47:42.
