data_PCOD9288413
_publ_section_title
;
Structure prediction by ZEFSAII (Michael W. Deem and Ramdas Pophale) SiO2 
 PCOD9288413
Probable space group: C 2/C
;
_chemical_formula_sum "Si O2"
_cell_formula_units_Z 56
_cell_length_a 10.416652
_cell_length_b 8.688875
_cell_length_c 26.350464
_cell_angle_alpha 90.000000
_cell_angle_beta 68.094288
_cell_angle_gamma 90.000000
_cell_volume 2212.757913
_symmetry_space_group_name_H-M "C 2/C"
_symmetry_group_IT_number 15
_symmetry_cell_setting 'monoclinic'
loop_
_space_group_symop_operation_xyz
x,y,z
-x,y,1/2-z
-x,-y,-z
x,-y,1/2+z
1/2+x,1/2+y,z
1/2-x,1/2+y,1/2-z
1/2-x,1/2-y,-z
1/2+x,1/2-y,1/2+z
loop_
_atom_site_type_symbol
_atom_site_label
_atom_site_fract_x
_atom_site_fract_y
_atom_site_fract_z
Si Si1 0.644173 0.160574 0.382902
Si Si2 0.891322 0.599964 0.483492
Si Si3 0.432667 0.627915 0.046191
Si Si4 0.651795 0.832887 0.075472
Si Si5 0.818464 0.446451 0.848028
Si Si6 0.347355 0.408670 0.206064
Si Si7 0.349863 0.597851 0.826270
O O1 0.486770 0.163488 0.424106
O O2 0.726689 0.235224 0.417888
O O3 0.663133 0.258101 0.328575
O O4 0.718410 0.995746 0.365706
O O5 0.850617 0.743118 0.524619
O O6 0.800569 0.466146 0.471156
O O7 0.000000 0.500000 0.500000
O O8 0.544953 0.724297 0.062128
O O9 0.329792 0.551585 0.101497
O O10 0.500000 0.500000 0.000000
O O11 0.594191 0.927700 0.133446
O O12 0.779285 0.491285 0.796731
O O13 0.863746 0.272031 0.842533
O O14 0.503779 0.478168 0.178569
O O15 0.335273 0.388949 0.267790
#
# Coordination Sequence:
#
# PCOD9288413 Si02
#       7
#     8   8   8   8   8   8   8
#     4  11  22  40  63  86 122 161 197 248 303 355
#     4  10  22  39  58  87 121 154 198 244 290 354
#     4  11  23  40  63  91 123 160 206 249 293 362
#     4  10  23  40  58  85 121 157 197 247 297 345
#     4  11  23  40  63  89 122 162 201 245 305 360
#     4  10  23  41  60  92 124 152 203 255 299 360
#     4  11  22  39  66  90 118 161 201 248 306 358
#
# _framework density 25.307786
#
# number of rings (size 3 to 8) (size 9 to 14) (size 15 to 20)
#    0.000    1.429    0.000    6.000    0.000    6.857 
#    0.000    1.429    0.000   12.000    0.000    0.000 
#    0.000    0.000    0.000    0.000    0.000    0.000 
#
# Total GULP energy -156609.093074 kJ/mol
# GULP energy per Si atom -5593.181895 kJ/mol
# Density = 2.525018 g / cm^3
# Si number density = 25.307786 Si / 1000 Ang^3
#
#
#
# Elastic Constant Matrix: (Units=GPa)
#
#
# Indices 1 2 3 4 5 6 
#
# 1 116.7836 36.7210 35.9950 0.0000 44.4028 0.0000
# 2 36.7210 103.3184 31.1232 0.0000 21.3305 0.0000
# 3 35.9950 31.1232 88.0491 0.0000 34.0927 0.0000
# 4 0.0000 0.0000 0.0000 43.9884 0.0000 12.6776
# 5 44.4028 21.3305 34.0927 0.0000 51.0037 0.0000
# 6 0.0000 0.0000 0.0000 12.6776 0.0000 37.9431
#
#
#
# Elastic Compliance Matrix: (Units=1/GPa)
#
#
# Indices 1 2 3 4 5 6 
#
# 1 0.013425 -0.002463 -0.000662 0.000000 -0.010215 0.000000
# 2 -0.002463 0.011558 -0.002749 0.000000 -0.000852 0.000000
# 3 -0.000662 -0.002749 0.016098 0.000000 -0.009034 0.000000
# 4 0.000000 0.000000 0.000000 0.025156 0.000000 -0.008405
# 5 -0.010215 -0.000852 -0.009034 0.000000 0.034894 0.000000
# 6 0.000000 0.000000 0.000000 -0.008405 0.000000 0.029164
#
#
# Mechanical properties :
#
#
# Convention : Reuss Voigt Hill
#
# Bulk Modulus (GPa) = 34.09158 57.31441 45.70299
# Shear Modulus (GPa) = 32.93354 40.20783 36.57068
#
# Velocity S-wave (km/s) = 3.61130 3.99024 3.80549
# Velocity P-wave (km/s) = 5.55775 6.62763 6.11613
#
# Compressibility (1/GPa) = 0.02933276
#
# Stress axis : x y z
#
# Youngs Moduli (GPa) = 74.48568 86.51886 62.12077
#
# Poissons Ratio (x) = 0.21311 0.04115
# Poissons Ratio (y) = 0.18347 0.17075
# Poissons Ratio (z) = 0.04935 0.23781
#
# Static dielectric constant tensor:
#      x y z
#    x 2.088620 0.000000 0.013530 
#    y 0.000000 2.056570 0.000000 
#    z 0.013530 0.000000 1.991300 
# 
# From -- ./inp_files/291511.got.cif
#   From: 2010.05.17/outbox.cif.g08.bks.cpg/sg15_146_cif.got.tgz:291511.got - 2010.06.03 18:47:42.
