data_PCOD9288880
_publ_section_title
;
Structure prediction by ZEFSAII (Michael W. Deem and Ramdas Pophale) SiO2 
 PCOD9288880
Probable space group: C 2/C
;
_chemical_formula_sum "Si O2"
_cell_formula_units_Z 44
_cell_length_a 27.770064
_cell_length_b 12.876886
_cell_length_c 15.561187
_cell_angle_alpha 90.000000
_cell_angle_beta 160.603830
_cell_angle_gamma 90.000000
_cell_volume 1847.978093
_symmetry_space_group_name_H-M "C 2/C"
_symmetry_group_IT_number 15
_symmetry_cell_setting 'monoclinic'
loop_
_space_group_symop_operation_xyz
x,y,z
-x,y,1/2-z
-x,-y,-z
x,-y,1/2+z
1/2+x,1/2+y,z
1/2-x,1/2+y,1/2-z
1/2-x,1/2-y,-z
1/2+x,1/2-y,1/2+z
loop_
_atom_site_type_symbol
_atom_site_label
_atom_site_fract_x
_atom_site_fract_y
_atom_site_fract_z
Si Si1 0.850629 0.099006 0.798797
Si Si2 0.482688 0.890708 0.377322
Si Si3 0.912870 0.626932 0.256316
Si Si4 0.500000 0.278757 0.250000
Si Si5 0.769296 0.275230 0.785514
Si Si6 0.324615 0.366299 0.706549
O O1 0.757862 0.124781 0.556373
O O2 0.785104 0.162914 0.767708
O O3 0.830045 0.975399 0.769175
O O4 0.017630 0.132576 0.070374
O O5 0.554137 0.857938 0.588155
O O6 0.577994 0.831876 0.467766
O O7 0.484322 0.013730 0.361618
O O8 0.311609 0.866833 0.086531
O O9 0.973095 0.708066 0.288676
O O10 0.648441 0.335029 0.523727
O O11 0.714340 0.279347 0.789667
#
# Coordination Sequence:
#
# PCOD9288880 Si02
#       6
#     8   8   8   4   8   8
#     4   9  22  43  69  93 130 185 217 274 326 404
#     4  10  22  39  66  98 126 171 217 278 328 392
#     4   9  21  42  67  90 126 172 227 263 330 394
#     4  10  24  40  64  94 128 178 218 276 314 412
#     4  11  24  37  67  99 127 174 224 270 326 396
#     4  10  22  44  68  93 141 174 218 274 341 392
#
# _framework density 23.809805000000001
#
# number of rings (size 3 to 8) (size 9 to 14) (size 15 to 20)
#    0.000    2.182    0.000    0.545   12.727    2.182 
#    3.273    0.000    4.000    0.000    0.000    0.000 
#    0.000    0.000    0.000    0.000    0.000    0.000 
#
# Total GULP energy -122927.742441 kJ/mol
# GULP energy per Si atom -5587.624656 kJ/mol
# Density = 2.375561 g / cm^3
# Si number density = 23.809805 Si / 1000 Ang^3
#
#
#
# Elastic Constant Matrix: (Units=GPa)
#
#
# Indices 1 2 3 4 5 6 
#
# 1 92.2041 17.1121 48.7315 0.0000 -1.4573 0.0000
# 2 17.1121 47.4753 12.8717 0.0000 -4.4909 0.0000
# 3 48.7315 12.8717 163.4438 0.0000 9.2085 0.0000
# 4 0.0000 0.0000 0.0000 26.6673 0.0000 -0.5571
# 5 -1.4573 -4.4909 9.2085 0.0000 41.4454 0.0000
# 6 0.0000 0.0000 0.0000 -0.5571 0.0000 25.1348
#
#
#
# Elastic Compliance Matrix: (Units=1/GPa)
#
#
# Indices 1 2 3 4 5 6 
#
# 1 0.013569 -0.003774 -0.003800 0.000000 0.000912 0.000000
# 2 -0.003774 0.022885 -0.000820 0.000000 0.002529 0.000000
# 3 -0.003800 -0.000820 0.007421 0.000000 -0.001871 0.000000
# 4 0.000000 0.000000 0.000000 0.037516 0.000000 0.000832
# 5 0.000912 0.002529 -0.001871 0.000000 0.024850 0.000000
# 6 0.000000 0.000000 0.000000 0.000832 0.000000 0.039804
#
#
# Mechanical properties :
#
#
# Convention : Reuss Voigt Hill
#
# Bulk Modulus (GPa) = 36.91622 51.17264 44.04443
# Shear Modulus (GPa) = 29.09315 33.61003 31.35159
#
# Velocity S-wave (km/s) = 3.49936 3.76121 3.63264
# Velocity P-wave (km/s) = 5.64496 6.35619 6.01111
#
# Compressibility (1/GPa) = 0.02708837
#
# Stress axis : x y z
#
# Youngs Moduli (GPa) = 73.69963 43.69598 134.74947
#
# Poissons Ratio (x) = 0.16492 0.51201
# Poissons Ratio (y) = 0.27816 0.11043
# Poissons Ratio (z) = 0.28004 0.03581
#
# Static dielectric constant tensor:
#      x y z
#    x 1.866640 0.000000 0.019950 
#    y 0.000000 1.966730 0.000000 
#    z 0.019950 0.000000 1.980690 
# 
# From -- ./inp_files/182364.got.cif
#   From: 2010.05.17/outbox.cif.g08.bks.cpg/sg15_92_cif.got.tgz:182364.got - 2010.06.03 18:47:42.
