data_PCOD9288947
_publ_section_title
;
Structure prediction by ZEFSAII (Michael W. Deem and Ramdas Pophale) SiO2 
 PCOD9288947
Probable space group: C 2/C
;
_chemical_formula_sum "Si O2"
_cell_formula_units_Z 40
_cell_length_a 12.752519
_cell_length_b 25.064221
_cell_length_c 4.966326
_cell_angle_alpha 90.000000
_cell_angle_beta 100.017161
_cell_angle_gamma 90.000000
_cell_volume 1563.197735
_symmetry_space_group_name_H-M "C 2/C"
_symmetry_group_IT_number 15
_symmetry_cell_setting 'monoclinic'
loop_
_space_group_symop_operation_xyz
x,y,z
-x,y,1/2-z
-x,-y,-z
x,-y,1/2+z
1/2+x,1/2+y,z
1/2-x,1/2+y,1/2-z
1/2-x,1/2-y,-z
1/2+x,1/2-y,1/2+z
loop_
_atom_site_type_symbol
_atom_site_label
_atom_site_fract_x
_atom_site_fract_y
_atom_site_fract_z
Si Si1 0.576800 0.786012 0.040666
Si Si2 0.116601 0.831500 0.666747
Si Si3 0.298512 0.110653 0.073770
Si Si4 0.000000 0.099667 0.750000
Si Si5 0.820268 0.964149 0.400176
Si Si6 0.000000 0.460456 0.750000
O O1 0.500000 0.802074 0.250000
O O2 0.634703 0.731084 0.153908
O O3 0.500000 0.774643 0.750000
O O4 0.657120 0.832971 0.013341
O O5 0.216813 0.868962 0.774852
O O6 0.000000 0.838267 0.750000
O O7 0.091547 0.858880 0.370886
O O8 0.398004 0.077566 0.228710
O O9 0.256527 0.074926 0.804373
O O10 0.061089 0.060264 0.576885
O O11 0.808842 0.982957 0.702859
O O12 0.000000 0.500000 0.500000
#
# Coordination Sequence:
#
# PCOD9288947 Si02
#       6
#     8   8   8   4   8   4
#     4  11  24  47  73 107 144 185 239 297 361 434
#     4  10  23  46  72 110 147 184 234 298 366 440
#     4  11  25  47  77 103 146 192 242 296 364 425
#     4  10  22  39  68  94 142 181 226 278 360 422
#     4  11  25  42  65  99 135 181 232 289 345 414
#     4  12  28  51  74 106 146 195 250 302 344 418
#
# _framework density 25.588574000000001
#
# number of rings (size 3 to 8) (size 9 to 14) (size 15 to 20)
#    0.000    1.200    2.000    2.400    7.000    1.600 
#    7.200    3.000    0.000    0.000    0.000    0.000 
#    0.000    0.000    0.000    0.000    0.000    0.000 
#
# Total GULP energy -111746.625307 kJ/mol
# GULP energy per Si atom -5587.331265 kJ/mol
# Density = 2.553033 g / cm^3
# Si number density = 25.588574 Si / 1000 Ang^3
#
#
#
# Elastic Constant Matrix: (Units=GPa)
#
#
# Indices 1 2 3 4 5 6 
#
# 1 121.6242 69.8421 16.8283 0.0000 -10.4202 0.0000
# 2 69.8421 187.5409 5.4149 0.0000 2.6624 0.0000
# 3 16.8283 5.4149 88.5164 0.0000 -11.4535 0.0000
# 4 0.0000 0.0000 0.0000 21.5985 0.0000 -2.8710
# 5 -10.4202 2.6624 -11.4535 0.0000 33.0604 0.0000
# 6 0.0000 0.0000 0.0000 -2.8710 0.0000 30.9892
#
#
#
# Elastic Compliance Matrix: (Units=1/GPa)
#
#
# Indices 1 2 3 4 5 6 
#
# 1 0.011077 -0.004131 -0.001422 0.000000 0.003331 0.000000
# 2 -0.004131 0.006893 0.000129 0.000000 -0.001812 0.000000
# 3 -0.001422 0.000129 0.012040 0.000000 0.003713 0.000000
# 4 0.000000 0.000000 0.000000 0.046877 0.000000 0.004343
# 5 0.003331 -0.001812 0.003713 0.000000 0.032730 0.000000
# 6 0.000000 0.000000 0.000000 0.004343 0.000000 0.032672
#
#
# Mechanical properties :
#
#
# Convention : Reuss Voigt Hill
#
# Bulk Modulus (GPa) = 52.18854 64.65023 58.41939
# Shear Modulus (GPa) = 31.34343 37.50269 34.42306
#
# Velocity S-wave (km/s) = 3.50365 3.83247 3.67175
# Velocity P-wave (km/s) = 6.06688 6.70104 6.39183
#
# Compressibility (1/GPa) = 0.01916129
#
# Stress axis : x y z
#
# Youngs Moduli (GPa) = 90.28061 145.08113 83.05530
#
# Poissons Ratio (x) = 0.59937 0.11811
# Poissons Ratio (y) = 0.37297 -0.01073
# Poissons Ratio (z) = 0.12838 -0.01875
#
# Static dielectric constant tensor:
#      x y z
#    x 2.279630 0.000000 0.031720 
#    y 0.000000 1.974120 0.000000 
#    z 0.031720 0.000000 2.122010 
# 
# From -- ./inp_files/5101.got.cif
#   From: 2010.05.17/outbox.cif.g08.bks.cpg/sg15_3_cif.got.tgz:5101.got - 2010.06.03 18:47:42.
