data_PCOD9288907
_publ_section_title
;
Structure prediction by ZEFSAII (Michael W. Deem and Ramdas Pophale) SiO2 
 PCOD9288907
Probable space group: C 2/C
;
_chemical_formula_sum "Si O2"
_cell_formula_units_Z 48
_cell_length_a 11.868444
_cell_length_b 13.554591
_cell_length_c 17.562154
_cell_angle_alpha 90.000000
_cell_angle_beta 58.660580
_cell_angle_gamma 90.000000
_cell_volume 2413.055511
_symmetry_space_group_name_H-M "C 2/C"
_symmetry_group_IT_number 15
_symmetry_cell_setting 'monoclinic'
loop_
_space_group_symop_operation_xyz
x,y,z
-x,y,1/2-z
-x,-y,-z
x,-y,1/2+z
1/2+x,1/2+y,z
1/2-x,1/2+y,1/2-z
1/2-x,1/2-y,-z
1/2+x,1/2-y,1/2+z
loop_
_atom_site_type_symbol
_atom_site_label
_atom_site_fract_x
_atom_site_fract_y
_atom_site_fract_z
Si Si1 0.500000 0.760337 0.750000
Si Si2 0.105880 0.753794 0.589858
Si Si3 0.500000 0.094866 0.750000
Si Si4 0.190876 0.867012 0.082103
Si Si5 0.643673 0.555415 0.178568
Si Si6 0.879291 0.196380 0.048610
Si Si7 0.315402 0.083464 0.267492
O O1 0.394240 0.691103 0.825923
O O2 0.569215 0.835448 0.784640
O O3 0.250000 0.750000 0.500000
O O4 0.115806 0.844081 0.644843
O O5 0.052792 0.662273 0.660754
O O6 0.000978 0.779718 0.560423
O O7 0.617423 0.020328 0.734055
O O8 0.321907 0.800138 0.036074
O O9 0.216263 0.977298 0.099418
O O10 0.107656 0.865584 0.033456
O O11 0.500000 0.513410 0.250000
O O12 0.727127 0.572067 0.224580
O O13 0.774294 0.132827 0.135056
#
# Coordination Sequence:
#
# PCOD9288907 Si02
#       7
#     4   8   4   8   8   8   8
#     4   9  20  39  62  94 118 171 206 263 328 368
#     4  12  27  44  65  95 137 176 214 265 326 390
#     4  11  24  47  66  96 128 175 216 265 330 378
#     4  10  22  39  67  91 126 162 217 269 317 377
#     4  12  23  41  61  94 128 168 211 259 319 384
#     4  10  22  44  63  97 126 164 219 268 318 390
#     4  10  22  41  68  89 130 167 215 266 318 387
#
# _framework density 19.891793
#
# number of rings (size 3 to 8) (size 9 to 14) (size 15 to 20)
#    0.000    1.333    3.333    1.000    4.667    3.333 
#    0.000    1.667    0.000    0.000    0.000    0.000 
#    0.000    0.000    0.000    0.000    0.000    0.000 
#
# Total GULP energy -133867.088051 kJ/mol
# GULP energy per Si atom -5577.795335 kJ/mol
# Density = 1.984652 g / cm^3
# Si number density = 19.891793 Si / 1000 Ang^3
#
#
#
# Elastic Constant Matrix: (Units=GPa)
#
#
# Indices 1 2 3 4 5 6 
#
# 1 134.1040 43.4573 25.0359 0.0000 30.7106 0.0000
# 2 43.4573 112.2918 23.5717 0.0000 13.5584 0.0000
# 3 25.0359 23.5717 48.9262 0.0000 9.4638 0.0000
# 4 0.0000 0.0000 0.0000 22.2166 0.0000 3.3667
# 5 30.7106 13.5584 9.4638 0.0000 41.8199 0.0000
# 6 0.0000 0.0000 0.0000 3.3667 0.0000 19.9615
#
#
#
# Elastic Compliance Matrix: (Units=1/GPa)
#
#
# Indices 1 2 3 4 5 6 
#
# 1 0.010210 -0.002640 -0.002790 0.000000 -0.006010 0.000000
# 2 -0.002640 0.010793 -0.003709 0.000000 -0.000721 0.000000
# 3 -0.002790 -0.003709 0.024079 0.000000 -0.002198 0.000000
# 4 0.000000 0.000000 0.000000 0.046192 0.000000 -0.007791
# 5 -0.006010 -0.000721 -0.002198 0.000000 0.029057 0.000000
# 6 0.000000 0.000000 0.000000 -0.007791 0.000000 0.051411
#
#
# Mechanical properties :
#
#
# Convention : Reuss Voigt Hill
#
# Bulk Modulus (GPa) = 37.30962 53.27242 45.29102
# Shear Modulus (GPa) = 25.13156 30.35007 27.74082
#
# Velocity S-wave (km/s) = 3.55831 3.91033 3.73847
# Velocity P-wave (km/s) = 5.97320 6.87218 6.43840
#
# Compressibility (1/GPa) = 0.02680274
#
# Stress axis : x y z
#
# Youngs Moduli (GPa) = 97.94722 92.65513 41.53029
#
# Poissons Ratio (x) = 0.24459 0.11587
# Poissons Ratio (y) = 0.25856 0.15405
# Poissons Ratio (z) = 0.27327 0.34370
#
# Static dielectric constant tensor:
#      x y z
#    x 1.715440 0.000000 -0.073290 
#    y 0.000000 1.708470 0.000000 
#    z -0.073290 0.000000 1.832200 
# 
# From -- ./inp_files/143847.got.cif
#   From: 2010.05.17/outbox.cif.g08.bks.cpg/sg15_72_cif.got.tgz:143847.got - 2010.06.03 18:47:42.
