data_PCOD9288677
_publ_section_title
;
Structure prediction by ZEFSAII (Michael W. Deem and Ramdas Pophale) SiO2 
 PCOD9288677
Probable space group: C 2/C
;
_chemical_formula_sum "Si O2"
_cell_formula_units_Z 60
_cell_length_a 22.775221
_cell_length_b 23.197112
_cell_length_c 9.718624
_cell_angle_alpha 90.000000
_cell_angle_beta 38.540077
_cell_angle_gamma 90.000000
_cell_volume 3199.134463
_symmetry_space_group_name_H-M "C 2/C"
_symmetry_group_IT_number 15
_symmetry_cell_setting 'monoclinic'
loop_
_space_group_symop_operation_xyz
x,y,z
-x,y,1/2-z
-x,-y,-z
x,-y,1/2+z
1/2+x,1/2+y,z
1/2-x,1/2+y,1/2-z
1/2-x,1/2-y,-z
1/2+x,1/2-y,1/2+z
loop_
_atom_site_type_symbol
_atom_site_label
_atom_site_fract_x
_atom_site_fract_y
_atom_site_fract_z
Si Si1 0.841129 0.769069 0.745092
Si Si2 0.500000 0.032577 0.750000
Si Si3 0.765476 0.569027 0.809355
Si Si4 0.169241 0.482362 0.581326
Si Si5 0.108908 0.837193 0.589460
Si Si6 0.110189 0.383730 0.871824
Si Si7 0.284253 0.235773 0.281172
Si Si8 0.442202 0.846014 0.996332
O O1 0.884556 0.817559 0.762540
O O2 0.802886 0.779087 0.661227
O O3 0.912146 0.716236 0.604298
O O4 0.750000 0.750000 0.000000
O O5 0.582790 0.073893 0.544992
O O6 0.557738 0.993848 0.752816
O O7 0.786284 0.532634 0.908451
O O8 0.779160 0.526280 0.656978
O O9 0.849149 0.616214 0.645877
O O10 0.669370 0.604359 0.972418
O O11 0.174258 0.421633 0.652880
O O12 0.159299 0.788764 0.397000
O O13 0.000000 0.842738 0.750000
O O14 0.152973 0.322049 0.829346
O O15 0.010515 0.373729 0.981546
O O16 0.250000 0.250000 0.500000
O O17 0.500000 0.841573 0.750000
#
# Coordination Sequence:
#
# PCOD9288677 Si02
#       8
#     8   4   8   8   8   8   8   8
#     4  10  22  39  63  92 128 173 217 255 319 390
#     4  12  24  34  56  96 134 164 206 254 318 410
#     4  12  24  43  65  89 132 168 215 269 329 388
#     4  12  24  41  59  95 127 171 206 264 327 394
#     4  11  25  46  67  92 126 175 228 272 322 382
#     4  12  24  33  62  93 132 164 209 253 323 393
#     4  11  23  41  64  99 136 171 212 266 328 393
#     4  12  21  37  63  94 134 170 200 254 328 393
#
# _framework density 18.755071999999998
#
# number of rings (size 3 to 8) (size 9 to 14) (size 15 to 20)
#    0.000    0.533    6.667    3.600    6.533    0.000 
#    0.000    0.667    0.000    0.000    0.000    0.000 
#    0.000    0.000    0.000    0.000    0.000    0.000 
#
# Total GULP energy -167511.110148 kJ/mol
# GULP energy per Si atom -5583.703672 kJ/mol
# Density = 1.871238 g / cm^3
# Si number density = 18.755072 Si / 1000 Ang^3
#
#
#
# Elastic Constant Matrix: (Units=GPa)
#
#
# Indices 1 2 3 4 5 6 
#
# 1 103.8930 48.6377 59.5568 0.0000 0.9563 0.0000
# 2 48.6377 97.0088 46.2392 0.0000 -0.4218 0.0000
# 3 59.5568 46.2392 66.8732 0.0000 4.6445 0.0000
# 4 0.0000 0.0000 0.0000 38.1003 0.0000 -5.0282
# 5 0.9563 -0.4218 4.6445 0.0000 36.8128 0.0000
# 6 0.0000 0.0000 0.0000 -5.0282 0.0000 32.7568
#
#
#
# Elastic Compliance Matrix: (Units=1/GPa)
#
#
# Indices 1 2 3 4 5 6 
#
# 1 0.020086 -0.002218 -0.016461 0.000000 0.001530 0.000000
# 2 -0.002218 0.015707 -0.008981 0.000000 0.001371 0.000000
# 3 -0.016461 -0.008981 0.036117 0.000000 -0.004232 0.000000
# 4 0.000000 0.000000 0.000000 0.026789 0.000000 0.004112
# 5 0.001530 0.001371 -0.004232 0.000000 0.027674 0.000000
# 6 0.000000 0.000000 0.000000 0.004112 0.000000 0.031159
#
#
# Mechanical properties :
#
#
# Convention : Reuss Voigt Hill
#
# Bulk Modulus (GPa) = 60.27275 64.07138 62.17207
# Shear Modulus (GPa) = 22.89571 29.09006 25.99288
#
# Velocity S-wave (km/s) = 3.49775 3.94261 3.72682
# Velocity P-wave (km/s) = 6.96555 7.41363 7.19308
#
# Compressibility (1/GPa) = 0.01659125
#
# Stress axis : x y z
#
# Youngs Moduli (GPa) = 49.78658 63.66697 27.68760
#
# Poissons Ratio (x) = 0.14119 0.45577
# Poissons Ratio (y) = 0.11041 0.24865
# Poissons Ratio (z) = 0.81954 0.57176
#
# Static dielectric constant tensor:
#      x y z
#    x 1.677930 0.000000 0.019580 
#    y 0.000000 1.653560 0.000000 
#    z 0.019580 0.000000 1.636110 
# 
# From -- ./inp_files/58720.got.cif
#   From: 2010.05.17/outbox.cif.g08.bks.cpg/sg15_30_cif.got.tgz:58720.got - 2010.06.03 18:47:42.
