data_PCOD9288504
_publ_section_title
;
Structure prediction by ZEFSAII (Michael W. Deem and Ramdas Pophale) SiO2 
 PCOD9288504
Probable space group: C 2/C
;
_chemical_formula_sum "Si O2"
_cell_formula_units_Z 56
_cell_length_a 13.027813
_cell_length_b 25.384291
_cell_length_c 8.123729
_cell_angle_alpha 90.000000
_cell_angle_beta 99.180174
_cell_angle_gamma 90.000000
_cell_volume 2652.121410
_symmetry_space_group_name_H-M "C 2/C"
_symmetry_group_IT_number 15
_symmetry_cell_setting 'monoclinic'
loop_
_space_group_symop_operation_xyz
x,y,z
-x,y,1/2-z
-x,-y,-z
x,-y,1/2+z
1/2+x,1/2+y,z
1/2-x,1/2+y,1/2-z
1/2-x,1/2-y,-z
1/2+x,1/2-y,1/2+z
loop_
_atom_site_type_symbol
_atom_site_label
_atom_site_fract_x
_atom_site_fract_y
_atom_site_fract_z
Si Si1 0.592658 0.293886 0.639074
Si Si2 0.097655 0.592306 0.375581
Si Si3 0.685139 0.574786 0.511865
Si Si4 0.459487 0.599245 0.554129
Si Si5 0.230522 0.967883 0.386727
Si Si6 0.289472 0.832777 0.857343
Si Si7 0.004761 0.688227 0.555640
O O1 0.500000 0.296502 0.750000
O O2 0.583263 0.346423 0.529085
O O3 0.703044 0.295334 0.757421
O O4 0.573630 0.239748 0.537593
O O5 0.166465 0.551584 0.494782
O O6 0.168191 0.626309 0.268670
O O7 0.000000 0.568695 0.250000
O O8 0.049964 0.636063 0.485245
O O9 0.560382 0.580197 0.479986
O O10 0.720494 0.530528 0.391906
O O11 0.721985 0.554666 0.700284
O O12 0.734524 0.630760 0.480270
O O13 0.500000 0.607971 0.750000
O O14 0.368433 0.556394 0.541240
O O15 0.389144 0.803720 0.956203
O O16 0.000000 0.681267 0.750000
#
# Coordination Sequence:
#
# PCOD9288504 Si02
#       7
#     8   8   8   8   8   8   8
#     4  11  22  40  66  92 125 167 207 258 313 378
#     4  10  22  42  64  90 128 165 214 257 304 372
#     4  11  23  39  65  93 130 163 209 255 312 377
#     4  10  22  39  60  95 131 161 207 257 308 379
#     4  11  22  40  63  96 125 172 204 256 316 363
#     4  11  22  42  64  91 126 168 208 261 312 368
#     4  10  24  42  62  93 124 165 210 264 313 367
#
# _framework density 21.115172999999999
#
# number of rings (size 3 to 8) (size 9 to 14) (size 15 to 20)
#    0.000    1.429    2.857    2.143    0.000    4.571 
#    5.143    7.143    0.000    0.000    0.000    0.000 
#    0.000    0.000    0.000    0.000    0.000    0.000 
#
# Total GULP energy -156645.870760 kJ/mol
# GULP energy per Si atom -5594.495384 kJ/mol
# Density = 2.106711 g / cm^3
# Si number density = 21.115173 Si / 1000 Ang^3
#
#
#
# Elastic Constant Matrix: (Units=GPa)
#
#
# Indices 1 2 3 4 5 6 
#
# 1 97.6085 24.3365 40.1239 0.0000 32.2671 0.0000
# 2 24.3365 82.5481 32.6254 0.0000 23.1679 0.0000
# 3 40.1239 32.6254 79.4420 0.0000 36.3985 0.0000
# 4 0.0000 0.0000 0.0000 9.2354 0.0000 4.8699
# 5 32.2671 23.1679 36.3985 0.0000 34.0748 0.0000
# 6 0.0000 0.0000 0.0000 4.8699 0.0000 7.6745
#
#
#
# Elastic Compliance Matrix: (Units=1/GPa)
#
#
# Indices 1 2 3 4 5 6 
#
# 1 0.015097 -0.000301 -0.002047 0.000000 -0.011905 0.000000
# 2 -0.000301 0.015328 -0.002935 0.000000 -0.007002 0.000000
# 3 -0.002047 -0.002935 0.025510 0.000000 -0.023315 0.000000
# 4 0.000000 0.000000 0.000000 0.162728 0.000000 -0.103260
# 5 -0.011905 -0.007002 -0.023315 0.000000 0.070287 0.000000
# 6 0.000000 0.000000 0.000000 -0.103260 0.000000 0.195826
#
#
# Mechanical properties :
#
#
# Convention : Reuss Voigt Hill
#
# Bulk Modulus (GPa) = 22.04122 50.41890 36.23006
# Shear Modulus (GPa) = 9.79503 21.03112 15.41307
#
# Velocity S-wave (km/s) = 2.15614 3.15940 2.70469
# Velocity P-wave (km/s) = 4.08164 6.10237 5.19128
#
# Compressibility (1/GPa) = 0.04536953
#
# Stress axis : x y z
#
# Youngs Moduli (GPa) = 66.23857 65.24049 39.20103
#
# Poissons Ratio (x) = 0.01961 0.08024
# Poissons Ratio (y) = 0.01991 0.11505
# Poissons Ratio (z) = 0.13559 0.19148
#
# Static dielectric constant tensor:
#      x y z
#    x 1.761000 0.000000 -0.016760 
#    y 0.000000 1.739000 0.000000 
#    z -0.016760 0.000000 1.757770 
# 
# From -- ./inp_files/34190.got.cif
#   From: 2010.05.17/outbox.cif.g08.bks.cpg/sg15_18_cif.got.tgz:34190.got - 2010.06.03 18:47:42.
