data_PCOD9288892
_publ_section_title
;
Structure prediction by ZEFSAII (Michael W. Deem and Ramdas Pophale) SiO2 
 PCOD9288892
Probable space group: C 2/C
;
_chemical_formula_sum "Si O2"
_cell_formula_units_Z 44
_cell_length_a 14.421659
_cell_length_b 19.430586
_cell_length_c 8.313441
_cell_angle_alpha 90.000000
_cell_angle_beta 126.564176
_cell_angle_gamma 90.000000
_cell_volume 1871.114180
_symmetry_space_group_name_H-M "C 2/C"
_symmetry_group_IT_number 15
_symmetry_cell_setting 'monoclinic'
loop_
_space_group_symop_operation_xyz
x,y,z
-x,y,1/2-z
-x,-y,-z
x,-y,1/2+z
1/2+x,1/2+y,z
1/2-x,1/2+y,1/2-z
1/2-x,1/2-y,-z
1/2+x,1/2-y,1/2+z
loop_
_atom_site_type_symbol
_atom_site_label
_atom_site_fract_x
_atom_site_fract_y
_atom_site_fract_z
Si Si1 0.084963 0.900124 0.119836
Si Si2 0.672540 0.642334 0.029066
Si Si3 0.000000 0.824940 0.750000
Si Si4 0.382457 0.083335 0.731650
Si Si5 0.764381 0.520641 0.309026
Si Si6 0.174506 0.737399 0.761179
O O1 0.154682 0.854100 0.320334
O O2 0.147324 0.974172 0.194583
O O3 0.086208 0.872593 0.939419
O O4 0.951074 0.889469 0.033810
O O5 0.757249 0.582027 0.172427
O O6 0.710894 0.713758 0.150667
O O7 0.054030 0.774240 0.677453
O O8 0.500000 0.087603 0.750000
O O9 0.367526 0.029614 0.861234
O O10 0.349907 0.157110 0.771536
O O11 0.290704 0.055968 0.505265
O O12 0.250000 0.750000 0.000000
#
# Coordination Sequence:
#
# PCOD9288892 Si02
#       6
#     8   8   4   8   8   8
#     4  10  22  39  67 108 136 174 223 292 366 412
#     4  10  22  40  66 104 145 172 227 291 357 418
#     4  10  22  40  68 100 136 174 230 286 350 410
#     4  12  26  45  69  96 139 191 241 281 339 414
#     4  12  23  43  68  99 140 185 234 285 346 416
#     4  11  21  41  68  96 131 183 231 284 342 411
#
# _framework density 23.5154
#
# number of rings (size 3 to 8) (size 9 to 14) (size 15 to 20)
#    0.000    1.091    4.545    2.182    2.545    1.455 
#    0.000    5.455    8.000    0.000    0.000    0.000 
#    0.000    0.000    0.000    0.000    0.000    0.000 
#
# Total GULP energy -122818.196041 kJ/mol
# GULP energy per Si atom -5582.645275 kJ/mol
# Density = 2.346188 g / cm^3
# Si number density = 23.515400 Si / 1000 Ang^3
#
#
#
# Elastic Constant Matrix: (Units=GPa)
#
#
# Indices 1 2 3 4 5 6 
#
# 1 90.9268 47.1744 -0.2096 0.0000 5.3143 0.0000
# 2 47.1744 204.4882 82.1474 0.0000 -4.6444 0.0000
# 3 -0.2096 82.1474 103.2960 0.0000 -21.3511 0.0000
# 4 0.0000 0.0000 0.0000 39.8622 0.0000 -3.0787
# 5 5.3143 -4.6444 -21.3511 0.0000 27.3641 0.0000
# 6 0.0000 0.0000 0.0000 -3.0787 0.0000 35.0785
#
#
#
# Elastic Compliance Matrix: (Units=1/GPa)
#
#
# Indices 1 2 3 4 5 6 
#
# 1 0.013375 -0.004492 0.003463 0.000000 -0.000658 0.000000
# 2 -0.004492 0.009054 -0.008002 0.000000 -0.003835 0.000000
# 3 0.003463 -0.008002 0.018638 0.000000 0.012512 0.000000
# 4 0.000000 0.000000 0.000000 0.025258 0.000000 0.002217
# 5 -0.000658 -0.003835 0.012512 0.000000 0.045783 0.000000
# 6 0.000000 0.000000 0.000000 0.002217 0.000000 0.028702
#
#
# Mechanical properties :
#
#
# Convention : Reuss Voigt Hill
#
# Bulk Modulus (GPa) = 43.46772 72.99282 58.23027
# Shear Modulus (GPa) = 30.02305 38.43421 34.22863
#
# Velocity S-wave (km/s) = 3.57703 4.04719 3.81935
# Velocity P-wave (km/s) = 5.96532 7.27650 6.65329
#
# Compressibility (1/GPa) = 0.02300558
#
# Stress axis : x y z
#
# Youngs Moduli (GPa) = 74.76839 110.44902 53.65454
#
# Poissons Ratio (x) = 0.49610 -0.18582
# Poissons Ratio (y) = 0.33584 0.42934
# Poissons Ratio (z) = -0.25894 0.88381
#
# Static dielectric constant tensor:
#      x y z
#    x 2.030410 0.000000 -0.014300 
#    y 0.000000 1.897350 0.000000 
#    z -0.014300 0.000000 1.902120 
# 
# From -- ./inp_files/39057.got.cif
#   From: 2010.05.17/outbox.cif.g08.bks.cpg/sg15_20_cif.got.tgz:39057.got - 2010.06.03 18:47:42.
