data_PCOD9288861
_publ_section_title
;
Structure prediction by ZEFSAII (Michael W. Deem and Ramdas Pophale) SiO2 
 PCOD9288861
Probable space group: C 2/C
;
_chemical_formula_sum "Si O2"
_cell_formula_units_Z 40
_cell_length_a 5.257694
_cell_length_b 23.727336
_cell_length_c 15.179174
_cell_angle_alpha 90.000000
_cell_angle_beta 101.231027
_cell_angle_gamma 90.000000
_cell_volume 1857.355118
_symmetry_space_group_name_H-M "C 2/C"
_symmetry_group_IT_number 15
_symmetry_cell_setting 'monoclinic'
loop_
_space_group_symop_operation_xyz
x,y,z
-x,y,1/2-z
-x,-y,-z
x,-y,1/2+z
1/2+x,1/2+y,z
1/2-x,1/2+y,1/2-z
1/2-x,1/2-y,-z
1/2+x,1/2-y,1/2+z
loop_
_atom_site_type_symbol
_atom_site_label
_atom_site_fract_x
_atom_site_fract_y
_atom_site_fract_z
Si Si1 0.710090 0.808511 0.193398
Si Si2 0.841252 0.076157 0.648646
Si Si3 0.526803 0.275100 0.546615
Si Si4 0.962562 0.090583 0.458039
Si Si5 0.437715 0.969393 0.904668
O O1 0.500000 0.827160 0.250000
O O2 0.713577 0.862068 0.127605
O O3 0.601799 0.751282 0.145287
O O4 0.000000 0.799633 0.250000
O O5 0.982098 0.068339 0.562323
O O6 0.000000 0.082477 0.750000
O O7 0.656384 0.023161 0.656793
O O8 0.750000 0.250000 0.500000
O O9 0.528825 0.342094 0.541430
O O10 0.250000 0.250000 0.500000
O O11 0.194314 0.069491 0.411984
O O12 0.692978 0.066200 0.400690
O O13 0.500000 0.000000 0.000000
#
# Coordination Sequence:
#
# PCOD9288861 Si02
#       5
#     8   8   8   8   8
#     4  11  25  42  64  98 135 168 217 284 335 375
#     4  10  22  39  66  95 130 162 217 271 333 373
#     4  12  24  42  70  96 132 177 227 261 330 403
#     4  11  23  42  65  94 126 171 216 266 311 394
#     4  10  22  40  62  89 128 165 211 258 320 379
#
# _framework density 21.536000000000001
#
# number of rings (size 3 to 8) (size 9 to 14) (size 15 to 20)
#    0.000    1.200    2.000    4.800    5.600    3.200 
#    0.000    3.000    0.000    0.000    0.000    0.000 
#    0.000    0.000    0.000    0.000    0.000    0.000 
#
# Total GULP energy -111606.667245 kJ/mol
# GULP energy per Si atom -5580.333362 kJ/mol
# Density = 2.148698 g / cm^3
# Si number density = 21.536000 Si / 1000 Ang^3
#
#
#
# Elastic Constant Matrix: (Units=GPa)
#
#
# Indices 1 2 3 4 5 6 
#
# 1 161.8587 60.5391 13.7727 0.0000 21.8321 0.0000
# 2 60.5391 171.1531 16.8815 0.0000 30.4001 0.0000
# 3 13.7727 16.8815 44.6651 0.0000 12.4029 0.0000
# 4 0.0000 0.0000 0.0000 47.4537 0.0000 2.4114
# 5 21.8321 30.4001 12.4029 0.0000 24.9332 0.0000
# 6 0.0000 0.0000 0.0000 2.4114 0.0000 27.5863
#
#
#
# Elastic Compliance Matrix: (Units=1/GPa)
#
#
# Indices 1 2 3 4 5 6 
#
# 1 0.007463 -0.001882 -0.000479 0.000000 -0.004002 0.000000
# 2 -0.001882 0.007937 -0.000220 0.000000 -0.007920 0.000000
# 3 -0.000479 -0.000220 0.026023 0.000000 -0.012258 0.000000
# 4 0.000000 0.000000 0.000000 0.021167 0.000000 -0.001850
# 5 -0.004002 -0.007920 -0.012258 0.000000 0.059365 0.000000
# 6 0.000000 0.000000 0.000000 -0.001850 0.000000 0.036412
#
#
# Mechanical properties :
#
#
# Convention : Reuss Voigt Hill
#
# Bulk Modulus (GPa) = 27.57729 62.22928 44.90329
# Shear Modulus (GPa) = 28.47139 39.09355 33.78247
#
# Velocity S-wave (km/s) = 3.63993 4.26522 3.96492
# Velocity P-wave (km/s) = 5.52254 7.29481 6.46965
#
# Compressibility (1/GPa) = 0.03626172
#
# Stress axis : x y z
#
# Youngs Moduli (GPa) = 134.00305 125.99738 38.42688
#
# Poissons Ratio (x) = 0.23707 0.01839
# Poissons Ratio (y) = 0.25213 0.00847
# Poissons Ratio (z) = 0.06414 0.02776
#
# Static dielectric constant tensor:
#      x y z
#    x 1.812240 0.000000 -0.008060 
#    y 0.000000 2.027390 0.000000 
#    z -0.008060 0.000000 1.803480 
# 
# From -- ./inp_files/184727.got.cif
#   From: 2010.05.17/outbox.cif.g08.bks.cpg/sg15_93_cif.got.tgz:184727.got - 2010.06.03 18:47:42.
