data_PCOD9288863
_publ_section_title
;
Structure prediction by ZEFSAII (Michael W. Deem and Ramdas Pophale) SiO2 
 PCOD9288863
Probable space group: C 2/C
;
_chemical_formula_sum "Si O2"
_cell_formula_units_Z 48
_cell_length_a 21.546768
_cell_length_b 21.914947
_cell_length_c 5.406193
_cell_angle_alpha 90.000000
_cell_angle_beta 53.238433
_cell_angle_gamma 90.000000
_cell_volume 2045.119691
_symmetry_space_group_name_H-M "C 2/C"
_symmetry_group_IT_number 15
_symmetry_cell_setting 'monoclinic'
loop_
_space_group_symop_operation_xyz
x,y,z
-x,y,1/2-z
-x,-y,-z
x,-y,1/2+z
1/2+x,1/2+y,z
1/2-x,1/2+y,1/2-z
1/2-x,1/2-y,-z
1/2+x,1/2-y,1/2+z
loop_
_atom_site_type_symbol
_atom_site_label
_atom_site_fract_x
_atom_site_fract_y
_atom_site_fract_z
Si Si1 0.745051 0.348860 0.919397
Si Si2 0.500000 0.802117 0.250000
Si Si3 0.173614 0.040631 0.840752
Si Si4 0.867430 0.255746 0.875699
Si Si5 0.912657 0.519685 0.623577
Si Si6 0.631583 0.144466 0.739396
Si Si7 0.000000 0.039777 0.250000
O O1 0.807080 0.299618 0.872840
O O2 0.785114 0.369972 0.571196
O O3 0.730184 0.403268 0.144694
O O4 0.667375 0.311337 0.047379
O O5 0.452546 0.761639 0.557740
O O6 0.435701 0.846875 0.298117
O O7 0.181878 0.994431 0.583767
O O8 0.085689 0.068693 0.045753
O O9 0.866823 0.289535 0.138385
O O10 0.877148 0.479579 0.486424
O O11 0.901111 0.586904 0.533545
O O12 0.000000 0.500000 0.500000
O O13 0.000000 0.000000 0.500000
#
# Coordination Sequence:
#
# PCOD9288863 Si02
#       7
#     8   4   8   8   8   8   4
#     4  10  24  42  64  95 132 174 226 276 336 411
#     4  10  22  39  66  96 118 168 225 280 334 394
#     4  10  22  41  68  99 133 174 222 277 343 407
#     4  10  23  43  65  93 128 177 224 278 342 392
#     4  10  23  37  59  93 130 171 220 267 326 389
#     4  11  23  40  67  88 137 174 223 279 338 396
#     4   8  16  35  62  92 126 166 207 264 330 390
#
# _framework density 23.470509
#
# number of rings (size 3 to 8) (size 9 to 14) (size 15 to 20)
#    0.000    2.000    0.000    2.000   11.667    2.000 
#    0.000    0.000   11.000    0.000    0.000    0.000 
#    0.000    0.000    0.000    0.000    0.000    0.000 
#
# Total GULP energy -133789.851238 kJ/mol
# GULP energy per Si atom -5574.577135 kJ/mol
# Density = 2.341709 g / cm^3
# Si number density = 23.470509 Si / 1000 Ang^3
#
#
#
# Elastic Constant Matrix: (Units=GPa)
#
#
# Indices 1 2 3 4 5 6 
#
# 1 41.5963 18.5983 28.5229 0.0000 10.4783 0.0000
# 2 18.5983 83.8057 33.6330 0.0000 -10.4548 0.0000
# 3 28.5229 33.6330 135.1000 0.0000 -11.6690 0.0000
# 4 0.0000 0.0000 0.0000 1.9834 0.0000 10.7330
# 5 10.4783 -10.4548 -11.6690 0.0000 48.6176 0.0000
# 6 0.0000 0.0000 0.0000 10.7330 0.0000 6.3028
#
#
#
# Elastic Compliance Matrix: (Units=1/GPa)
#
#
# Indices 1 2 3 4 5 6 
#
# 1 0.033803 -0.006170 -0.006479 0.000000 -0.010167 0.000000
# 2 -0.006170 0.014597 -0.001986 0.000000 0.003992 0.000000
# 3 -0.006479 -0.001986 0.009546 0.000000 0.003260 0.000000
# 4 0.000000 0.000000 0.000000 -0.061374 0.000000 0.104512
# 5 -0.010167 0.003992 0.003260 0.000000 0.024401 0.000000
# 6 0.000000 0.000000 0.000000 0.104512 0.000000 -0.019314
#
#
# Mechanical properties :
#
#
# Convention : Reuss Voigt Hill
#
# Bulk Modulus (GPa) = 34.87317 46.89004 40.88160
# Shear Modulus (GPa) = 123.49434 23.36397 73.42915
#
# Velocity S-wave (km/s) = 7.26161 3.15852 5.59943
# Velocity P-wave (km/s) = 9.23031 5.77263 7.69811
#
# Compressibility (1/GPa) = 0.02867534
#
# Stress axis : x y z
#
# Youngs Moduli (GPa) = 29.58323 68.50826 104.75710
#
# Poissons Ratio (x) = 0.42269 0.67870
# Poissons Ratio (y) = 0.18252 0.20809
# Poissons Ratio (z) = 0.19166 0.13609
#
# Static dielectric constant tensor:
#      x y z
#    x 1.976810 0.000000 0.091650 
#    y 0.000000 1.914720 0.000000 
#    z 0.091650 0.000000 2.153660 
# 
# From -- ./inp_files/15789.got.cif
#   From: 2010.05.17/outbox.cif.g08.bks.cpg/sg15_8_cif.got.tgz:15789.got - 2010.06.03 18:47:42.
