data_PCOD9288884
_publ_section_title
;
Structure prediction by ZEFSAII (Michael W. Deem and Ramdas Pophale) SiO2 
 PCOD9288884
Probable space group: C 2/C
;
_chemical_formula_sum "Si O2"
_cell_formula_units_Z 60
_cell_length_a 8.704662
_cell_length_b 18.747715
_cell_length_c 22.386073
_cell_angle_alpha 90.000000
_cell_angle_beta 130.835894
_cell_angle_gamma 90.000000
_cell_volume 2763.988417
_symmetry_space_group_name_H-M "C 2/C"
_symmetry_group_IT_number 15
_symmetry_cell_setting 'monoclinic'
loop_
_space_group_symop_operation_xyz
x,y,z
-x,y,1/2-z
-x,-y,-z
x,-y,1/2+z
1/2+x,1/2+y,z
1/2-x,1/2+y,1/2-z
1/2-x,1/2-y,-z
1/2+x,1/2-y,1/2+z
loop_
_atom_site_type_symbol
_atom_site_label
_atom_site_fract_x
_atom_site_fract_y
_atom_site_fract_z
Si Si1 0.607146 0.842180 0.179161
Si Si2 0.961511 0.707651 0.395087
Si Si3 0.746663 0.552878 0.576659
Si Si4 0.354530 0.480962 0.268282
Si Si5 0.228464 0.679478 0.573441
Si Si6 0.484524 0.081797 0.178301
Si Si7 0.000000 0.770838 0.750000
Si Si8 0.868844 0.964561 0.054708
O O1 0.387667 0.879462 0.118784
O O2 0.742505 0.904476 0.244278
O O3 0.686035 0.821380 0.133384
O O4 0.582753 0.776050 0.216157
O O5 0.056297 0.641982 0.380877
O O6 0.716953 0.697262 0.328314
O O7 0.048490 0.708936 0.484851
O O8 0.064820 0.777316 0.390299
O O9 0.756709 0.524045 0.511734
O O10 0.520612 0.566934 0.542536
O O11 0.831948 0.485326 0.635913
O O12 0.500000 0.473755 0.250000
O O13 0.195388 0.543142 0.217109
O O14 0.489443 0.498019 0.359284
O O15 0.252187 0.598143 0.557750
O O16 0.500000 0.109997 0.250000
#
# Coordination Sequence:
#
# PCOD9288884 Si02
#       8
#     8   8   8   8   8   8   4   8
#     4  11  24  42  69  94 128 169 222 283 333 395
#     4  11  27  46  65  94 133 182 227 274 325 401
#     4  10  22  39  66  98 131 171 209 275 345 394
#     4  11  22  36  65  99 126 161 209 273 337 392
#     4  11  24  45  71  95 131 177 232 275 327 398
#     4  11  23  41  61  93 133 173 215 269 329 400
#     4  12  28  46  66  94 136 176 232 278 328 402
#     4  11  20  40  64  99 132 166 216 268 338 399
#
# _framework density 21.707761000000001
#
# number of rings (size 3 to 8) (size 9 to 14) (size 15 to 20)
#    0.000    1.067    4.000    2.400    4.667    2.133 
#    0.000    0.000    0.000    0.000    0.000    0.000 
#    0.000    0.000    0.000    0.000    0.000    0.000 
#
# Total GULP energy -167538.395517 kJ/mol
# GULP energy per Si atom -5584.613184 kJ/mol
# Density = 2.165835 g / cm^3
# Si number density = 21.707761 Si / 1000 Ang^3
#
#
#
# Elastic Constant Matrix: (Units=GPa)
#
#
# Indices 1 2 3 4 5 6 
#
# 1 43.2424 -7.8157 -8.8787 -0.0002 -3.5555 0.0000
# 2 -7.8157 24.0692 -0.1780 0.0000 -6.8609 0.0000
# 3 -8.8787 -0.1780 72.4093 -0.0003 -6.3548 -0.0001
# 4 -0.0002 0.0000 -0.0003 179.5176 -0.0002 -58.4968
# 5 -3.5555 -6.8609 -6.3548 -0.0002 41.3546 0.0000
# 6 0.0000 0.0000 -0.0001 -58.4968 0.0000 30.5594
#
#
#
# Elastic Compliance Matrix: (Units=1/GPa)
#
#
# Indices 1 2 3 4 5 6 
#
# 1 0.025982 0.009717 0.003596 0.000000 0.004398 0.000000
# 2 0.009717 0.047284 0.002098 0.000000 0.009002 0.000000
# 3 0.003596 0.002098 0.014510 0.000000 0.002887 0.000000
# 4 0.000000 0.000000 0.000000 0.014805 0.000000 0.028340
# 5 0.004398 0.009002 0.002887 0.000000 0.026496 0.000000
# 6 0.000000 0.000000 0.000000 0.028340 0.000000 0.086972
#
#
# Mechanical properties :
#
#
# Convention : Reuss Voigt Hill
#
# Bulk Modulus (GPa) = 8.43195 11.77513 10.10354
# Shear Modulus (GPa) = 22.24590 60.72586 41.48588
#
# Velocity S-wave (km/s) = 3.20471 5.29481 4.37637
# Velocity P-wave (km/s) = 4.19360 6.54341 5.49556
#
# Compressibility (1/GPa) = 0.11859648
#
# Stress axis : x y z
#
# Youngs Moduli (GPa) = 38.48864 21.14886 68.91901
#
# Poissons Ratio (x) = -0.20550 -0.24781
# Poissons Ratio (y) = -0.37400 -0.14458
# Poissons Ratio (z) = -0.13839 -0.04437
#
# Static dielectric constant tensor:
#      x y z
#    x 1.706530 0.000000 0.117050 
#    y 0.000000 1.774800 0.000000 
#    z 0.117050 0.000000 1.751890 
# 
# From -- ./inp_files/234094.got.cif
#   From: 2010.05.17/outbox.cif.g08.bks.cpg/sg15_118_cif.got.tgz:234094.got - 2010.06.03 18:47:42.
