data_PCOD9288392
_publ_section_title
;
Structure prediction by ZEFSAII (Michael W. Deem and Ramdas Pophale) SiO2 
 PCOD9288392
Probable space group: C 2/C
;
_chemical_formula_sum "Si O2"
_cell_formula_units_Z 40
_cell_length_a 13.097840
_cell_length_b 26.840500
_cell_length_c 10.124531
_cell_angle_alpha 90.000000
_cell_angle_beta 144.247468
_cell_angle_gamma 90.000000
_cell_volume 2079.650372
_symmetry_space_group_name_H-M "C 2/C"
_symmetry_group_IT_number 15
_symmetry_cell_setting 'monoclinic'
loop_
_space_group_symop_operation_xyz
x,y,z
-x,y,1/2-z
-x,-y,-z
x,-y,1/2+z
1/2+x,1/2+y,z
1/2-x,1/2+y,1/2-z
1/2-x,1/2-y,-z
1/2+x,1/2-y,1/2+z
loop_
_atom_site_type_symbol
_atom_site_label
_atom_site_fract_x
_atom_site_fract_y
_atom_site_fract_z
Si Si1 0.520723 0.812709 0.613984
Si Si2 0.070477 0.198415 0.975526
Si Si3 0.321384 0.482562 0.380397
Si Si4 0.799360 0.123214 0.788491
Si Si5 0.806507 0.454413 0.510510
O O1 0.500000 0.819349 0.750000
O O2 0.455407 0.756514 0.516648
O O3 0.390017 0.850846 0.404635
O O4 0.726533 0.816212 0.801363
O O5 0.000000 0.194249 0.750000
O O6 0.949216 0.163984 0.939192
O O7 0.500000 0.500000 0.500000
O O8 0.324821 0.423223 0.414036
O O9 0.277731 0.515257 0.459931
O O10 0.185378 0.486670 0.115873
O O11 0.802517 0.093289 0.651368
O O12 0.000000 0.438695 0.750000
#
# Coordination Sequence:
#
# PCOD9288392 Si02
#       5
#     8   8   8   8   8
#     4  11  18  31  47  75 113 152 180 230 293 358
#     4  11  19  29  49  74 114 151 181 228 297 355
#     4  10  23  37  58  82 116 158 203 239 294 346
#     4  10  23  32  56  79 118 153 190 232 298 344
#     4  10  22  39  56  81 119 157 200 246 287 347
#
# _framework density 19.234000999999999
#
# number of rings (size 3 to 8) (size 9 to 14) (size 15 to 20)
#    1.200    0.400    4.000    3.000    2.800    0.000 
#    0.000    0.000    0.000    0.000    0.000    0.000 
#    0.000   14.400    0.000    0.000    0.000    0.000 
#
# Total GULP energy -111457.139296 kJ/mol
# GULP energy per Si atom -5572.856965 kJ/mol
# Density = 1.919022 g / cm^3
# Si number density = 19.234001 Si / 1000 Ang^3
#
#
#
# Elastic Constant Matrix: (Units=GPa)
#
#
# Indices 1 2 3 4 5 6 
#
# 1 45.0339 26.0396 13.8128 0.0000 12.1786 0.0000
# 2 26.0396 114.6590 26.0034 0.0000 14.2011 0.0000
# 3 13.8128 26.0034 66.7099 0.0000 32.7234 0.0000
# 4 0.0000 0.0000 0.0000 33.6760 0.0000 5.8620
# 5 12.1786 14.2011 32.7234 0.0000 33.6718 0.0000
# 6 0.0000 0.0000 0.0000 5.8620 0.0000 21.4616
#
#
#
# Elastic Compliance Matrix: (Units=1/GPa)
#
#
# Indices 1 2 3 4 5 6 
#
# 1 0.027319 -0.005289 0.000301 0.000000 -0.007943 0.000000
# 2 -0.005289 0.010602 -0.003406 0.000000 0.000752 0.000000
# 3 0.000301 -0.003406 0.029820 0.000000 -0.027653 0.000000
# 4 0.000000 0.000000 0.000000 0.031177 0.000000 -0.008516
# 5 -0.007943 0.000752 -0.027653 0.000000 0.059128 0.000000
# 6 0.000000 0.000000 0.000000 -0.008516 0.000000 0.048921
#
#
# Mechanical properties :
#
#
# Convention : Reuss Voigt Hill
#
# Bulk Modulus (GPa) = 19.62565 39.79050 29.70807
# Shear Modulus (GPa) = 20.76927 28.46501 24.61714
#
# Velocity S-wave (km/s) = 3.28963 3.85116 3.58142
# Velocity P-wave (km/s) = 4.96534 6.36457 5.70799
#
# Compressibility (1/GPa) = 0.05095373
#
# Stress axis : x y z
#
# Youngs Moduli (GPa) = 36.60418 94.32140 33.53419
#
# Poissons Ratio (x) = 0.49885 -0.01011
# Poissons Ratio (y) = 0.19359 0.11423
# Poissons Ratio (z) = -0.01103 0.32130
#
# Static dielectric constant tensor:
#      x y z
#    x 1.653360 0.000000 -0.005540 
#    y 0.000000 1.720520 0.000000 
#    z -0.005540 0.000000 1.711750 
# 
# From -- ./inp_files/101012.got.cif
#   From: 2010.05.17/outbox.cif.g08.bks.cpg/sg15_51_cif.got.tgz:101012.got - 2010.06.03 18:47:42.
