data_PCOD9288270
_publ_section_title
;
Structure prediction by ZEFSAII (Michael W. Deem and Ramdas Pophale) SiO2 
 PCOD9288270
Probable space group: C 2/C
;
_chemical_formula_sum "Si O2"
_cell_formula_units_Z 40
_cell_length_a 7.652190
_cell_length_b 23.281025
_cell_length_c 15.932843
_cell_angle_alpha 90.000000
_cell_angle_beta 37.074633
_cell_angle_gamma 90.000000
_cell_volume 1711.172719
_symmetry_space_group_name_H-M "C 2/C"
_symmetry_group_IT_number 15
_symmetry_cell_setting 'monoclinic'
loop_
_space_group_symop_operation_xyz
x,y,z
-x,y,1/2-z
-x,-y,-z
x,-y,1/2+z
1/2+x,1/2+y,z
1/2-x,1/2+y,1/2-z
1/2-x,1/2-y,-z
1/2+x,1/2-y,1/2+z
loop_
_atom_site_type_symbol
_atom_site_label
_atom_site_fract_x
_atom_site_fract_y
_atom_site_fract_z
Si Si1 0.682181 0.281398 0.612140
Si Si2 0.838955 0.577183 0.897835
Si Si3 0.063577 0.538594 0.058438
Si Si4 0.785197 0.119445 0.192146
Si Si5 0.795703 0.641950 0.596619
O O1 0.500000 0.245011 0.750000
O O2 0.750000 0.250000 0.500000
O O3 0.449537 0.330738 0.678700
O O4 0.987985 0.309737 0.521837
O O5 0.000000 0.588355 0.750000
O O6 0.827805 0.509041 0.919071
O O7 0.022104 0.609929 0.900015
O O8 0.515019 0.598688 0.035327
O O9 0.798619 0.570292 0.207810
O O10 0.000000 0.500000 0.000000
O O11 0.257915 0.591305 0.950402
O O12 0.500000 0.136685 0.250000
O O13 0.500000 0.664257 0.750000
#
# Coordination Sequence:
#
# PCOD9288270 Si02
#       5
#     8   8   8   8   8
#     4  11  25  50  74  98 130 179 234 300 359 407
#     4  10  24  38  61  99 143 182 223 268 326 402
#     4  10  22  38  66  95 139 185 225 262 333 401
#     4  11  25  44  68 102 142 181 228 285 340 413
#     4  10  23  42  68  95 130 175 226 276 336 411
#
# _framework density 23.375782999999998
#
# number of rings (size 3 to 8) (size 9 to 14) (size 15 to 20)
#    0.000    1.600    2.000    0.600    8.400    5.600 
#    0.000    2.000    0.000    0.000    0.000    0.000 
#    0.000    0.000    0.000    0.000    0.000    0.000 
#
# Total GULP energy -111764.343336 kJ/mol
# GULP energy per Si atom -5588.217167 kJ/mol
# Density = 2.332258 g / cm^3
# Si number density = 23.375783 Si / 1000 Ang^3
#
#
#
# Elastic Constant Matrix: (Units=GPa)
#
#
# Indices 1 2 3 4 5 6 
#
# 1 60.4266 -1.9764 30.3510 0.0000 -3.8354 0.0000
# 2 -1.9764 24.2642 17.7122 0.0000 -4.4620 0.0000
# 3 30.3510 17.7122 208.9531 -0.0001 6.1258 0.0001
# 4 0.0000 0.0000 -0.0001 38.3955 0.0000 10.4222
# 5 -3.8354 -4.4620 6.1258 0.0000 51.8844 0.0000
# 6 0.0000 0.0000 0.0001 10.4222 0.0000 9.2389
#
#
#
# Elastic Compliance Matrix: (Units=1/GPa)
#
#
# Indices 1 2 3 4 5 6 
#
# 1 0.018361 0.004124 -0.003077 0.000000 0.002075 0.000000
# 2 0.004124 0.045804 -0.004622 0.000000 0.004790 0.000000
# 3 -0.003077 -0.004622 0.005662 0.000000 -0.001294 0.000000
# 4 0.000000 0.000000 0.000000 0.037540 0.000000 -0.042348
# 5 0.002075 0.004790 -0.001294 0.000000 0.019992 0.000000
# 6 0.000000 0.000000 0.000000 -0.042348 0.000000 0.156010
#
#
# Mechanical properties :
#
#
# Convention : Reuss Voigt Hill
#
# Bulk Modulus (GPa) = 15.95512 42.86861 29.41187
# Shear Modulus (GPa) = 16.05587 36.40756 26.23171
#
# Velocity S-wave (km/s) = 2.62364 3.95079 3.35352
# Velocity P-wave (km/s) = 4.00229 6.26022 5.25398
#
# Compressibility (1/GPa) = 0.06267581
#
# Stress axis : x y z
#
# Youngs Moduli (GPa) = 54.46228 21.83237 176.60114
#
# Poissons Ratio (x) = -0.09003 0.54348
# Poissons Ratio (y) = -0.22458 0.81625
# Poissons Ratio (z) = 0.16760 0.10091
#
# Static dielectric constant tensor:
#      x y z
#    x 1.988530 0.000000 0.086090 
#    y 0.000000 1.897950 0.000000 
#    z 0.086090 0.000000 1.950680 
# 
# From -- ./inp_files/24454.got.cif
#   From: 2010.05.17/outbox.cif.g08.bks.cpg/sg15_13_cif.got.tgz:24454.got - 2010.06.03 18:47:42.
