data_PCOD9288622
_publ_section_title
;
Structure prediction by ZEFSAII (Michael W. Deem and Ramdas Pophale) SiO2 
 PCOD9288622
Probable space group: C 2/C
;
_chemical_formula_sum "Si O2"
_cell_formula_units_Z 52
_cell_length_a 19.954809
_cell_length_b 19.589107
_cell_length_c 9.319969
_cell_angle_alpha 90.000000
_cell_angle_beta 47.128674
_cell_angle_gamma 90.000000
_cell_volume 2670.002158
_symmetry_space_group_name_H-M "C 2/C"
_symmetry_group_IT_number 15
_symmetry_cell_setting 'monoclinic'
loop_
_space_group_symop_operation_xyz
x,y,z
-x,y,1/2-z
-x,-y,-z
x,-y,1/2+z
1/2+x,1/2+y,z
1/2-x,1/2+y,1/2-z
1/2-x,1/2-y,-z
1/2+x,1/2-y,1/2+z
loop_
_atom_site_type_symbol
_atom_site_label
_atom_site_fract_x
_atom_site_fract_y
_atom_site_fract_z
Si Si1 0.000000 0.167177 0.250000
Si Si2 0.153588 0.079797 0.520354
Si Si3 0.782786 0.457669 0.383224
Si Si4 0.794200 0.190486 0.531451
Si Si5 0.507589 0.420659 0.018414
Si Si6 0.392880 0.058170 0.433039
Si Si7 0.728771 0.177640 0.959505
O O1 0.986173 0.120574 0.408741
O O2 0.903313 0.203346 0.366952
O O3 0.107462 0.096135 0.435956
O O4 0.226957 0.128297 0.485054
O O5 0.070105 0.089705 0.751228
O O6 0.197401 0.004507 0.455251
O O7 0.741005 0.383152 0.476765
O O8 0.832861 0.501378 0.434249
O O9 0.857072 0.449353 0.148015
O O10 0.750000 0.250000 0.500000
O O11 0.767994 0.184923 0.739615
O O12 0.500000 0.500000 0.000000
O O13 0.500000 0.046458 0.250000
O O14 0.366246 0.136090 0.425665
O O15 0.750000 0.250000 0.000000
#
# Coordination Sequence:
#
# PCOD9288622 Si02
#       7
#     4   8   8   8   8   8   8
#     4  12  24  40  64  94 136 158 218 262 322 402
#     4  10  22  39  62  94 127 167 204 258 321 386
#     4  10  22  40  67  92 128 161 213 265 323 386
#     4  11  25  44  62  95 130 170 213 272 328 383
#     4  11  21  35  61  97 131 157 201 250 322 392
#     4  10  22  42  65  95 123 165 215 271 320 381
#     4  10  23  45  62  88 126 168 217 260 319 389
#
# _framework density 19.475641
#
# number of rings (size 3 to 8) (size 9 to 14) (size 15 to 20)
#    0.000    1.538    1.538    3.231    8.615    1.231 
#    9.692    0.000    0.000    0.000    0.000    0.000 
#    0.000    0.000    0.000    0.000    0.000    0.000 
#
# Total GULP energy -144815.502241 kJ/mol
# GULP energy per Si atom -5569.827009 kJ/mol
# Density = 1.943131 g / cm^3
# Si number density = 19.475641 Si / 1000 Ang^3
#
#
#
# Elastic Constant Matrix: (Units=GPa)
#
#
# Indices 1 2 3 4 5 6 
#
# 1 105.2666 41.9062 29.3665 0.0000 -14.6373 0.0000
# 2 41.9062 116.8823 16.8859 0.0000 0.5059 0.0000
# 3 29.3665 16.8859 80.2751 0.0000 -5.4412 0.0000
# 4 0.0000 0.0000 0.0000 16.1868 0.0000 5.6025
# 5 -14.6373 0.5059 -5.4412 0.0000 30.3491 0.0000
# 6 0.0000 0.0000 0.0000 5.6025 0.0000 32.7236
#
#
#
# Elastic Compliance Matrix: (Units=1/GPa)
#
#
# Indices 1 2 3 4 5 6 
#
# 1 0.012908 -0.004152 -0.003464 0.000000 0.005674 0.000000
# 2 -0.004152 0.010166 -0.000776 0.000000 -0.002311 0.000000
# 3 -0.003464 -0.000776 0.013945 0.000000 0.000842 0.000000
# 4 0.000000 0.000000 0.000000 0.065670 0.000000 -0.011243
# 5 0.005674 -0.002311 0.000842 0.000000 0.035876 0.000000
# 6 0.000000 0.000000 0.000000 -0.011243 0.000000 0.032484
#
#
# Mechanical properties :
#
#
# Convention : Reuss Voigt Hill
#
# Bulk Modulus (GPa) = 49.42080 53.19348 51.30714
# Shear Modulus (GPa) = 25.69662 30.13627 27.91645
#
# Velocity S-wave (km/s) = 3.63633 3.93795 3.79014
# Velocity P-wave (km/s) = 6.56211 6.93172 6.74944
#
# Compressibility (1/GPa) = 0.02023440
#
# Stress axis : x y z
#
# Youngs Moduli (GPa) = 77.47206 98.36327 71.71146
#
# Poissons Ratio (x) = 0.40841 0.24841
# Poissons Ratio (y) = 0.32167 0.05567
# Poissons Ratio (z) = 0.26837 0.07635
#
# Static dielectric constant tensor:
#      x y z
#    x 1.671010 0.000000 -0.002330 
#    y 0.000000 1.697100 0.000000 
#    z -0.002330 0.000000 1.699480 
# 
# From -- ./inp_files/56962.got.cif
#   From: 2010.05.17/outbox.cif.g08.bks.cpg/sg15_29_cif.got.tgz:56962.got - 2010.06.03 18:47:42.
