data_PCOD9288624
_publ_section_title
;
Structure prediction by ZEFSAII (Michael W. Deem and Ramdas Pophale) SiO2 
 PCOD9288624
Probable space group: C 2/C
;
_chemical_formula_sum "Si O2"
_cell_formula_units_Z 56
_cell_length_a 29.658382
_cell_length_b 22.558709
_cell_length_c 9.307125
_cell_angle_alpha 90.000000
_cell_angle_beta 153.843384
_cell_angle_gamma 90.000000
_cell_volume 2745.015290
_symmetry_space_group_name_H-M "C 2/C"
_symmetry_group_IT_number 15
_symmetry_cell_setting 'monoclinic'
loop_
_space_group_symop_operation_xyz
x,y,z
-x,y,1/2-z
-x,-y,-z
x,-y,1/2+z
1/2+x,1/2+y,z
1/2-x,1/2+y,1/2-z
1/2-x,1/2-y,-z
1/2+x,1/2-y,1/2+z
loop_
_atom_site_type_symbol
_atom_site_label
_atom_site_fract_x
_atom_site_fract_y
_atom_site_fract_z
Si Si1 0.834886 0.355497 0.518505
Si Si2 0.074170 0.356650 0.249017
Si Si3 0.312932 0.739338 0.825898
Si Si4 0.619292 0.062600 0.613164
Si Si5 0.687543 0.066602 0.275697
Si Si6 0.500000 0.528688 0.750000
Si Si7 0.400824 0.567722 0.754358
Si Si8 0.000000 0.838335 0.750000
O O1 0.763727 0.298384 0.292464
O O2 0.835571 0.403969 0.395274
O O3 0.791421 0.389244 0.533340
O O4 0.954507 0.340132 0.889290
O O5 0.143066 0.300467 0.486497
O O6 0.115117 0.388269 0.223984
O O7 0.089903 0.407311 0.413753
O O8 0.250000 0.750000 0.500000
O O9 0.410823 0.700831 0.062504
O O10 0.673992 0.000020 0.793209
O O11 0.500000 0.046973 0.250000
O O12 0.779891 0.070772 0.427658
O O13 0.433496 0.563044 0.680643
O O14 0.433936 0.487770 0.451733
O O15 0.454389 0.621795 0.990822
#
# Coordination Sequence:
#
# PCOD9288624 Si02
#       8
#     8   8   8   8   8   4   8   4
#     4  11  23  41  66  95 130 169 213 270 324 381
#     4  11  24  42  65  96 131 167 215 272 322 386
#     4  12  23  41  69  92 122 170 222 265 319 389
#     4  10  24  41  62  96 136 167 208 269 331 384
#     4  12  22  38  67  99 127 173 217 254 326 391
#     4   9  22  40  62  86 140 170 207 268 312 374
#     4  10  22  39  62  94 129 172 214 260 318 381
#     4  11  22  42  64  94 124 164 221 270 314 378
#
# _framework density 20.400614000000001
#
# number of rings (size 3 to 8) (size 9 to 14) (size 15 to 20)
#    0.000    1.143    2.857    3.000    4.000    4.000 
#    0.000    0.000    7.857    0.000    0.000    0.000 
#    0.000    0.000    0.000    0.000    0.000    0.000 
#
# Total GULP energy -156390.201462 kJ/mol
# GULP energy per Si atom -5585.364338 kJ/mol
# Density = 2.035418 g / cm^3
# Si number density = 20.400614 Si / 1000 Ang^3
#
#
#
# Elastic Constant Matrix: (Units=GPa)
#
#
# Indices 1 2 3 4 5 6 
#
# 1 133.9680 41.8316 30.7558 0.0000 3.2362 0.0000
# 2 41.8316 124.3710 47.0727 0.0000 9.2959 0.0000
# 3 30.7558 47.0727 74.9270 0.0000 17.6108 0.0000
# 4 0.0000 0.0000 0.0000 0.7608 0.0000 10.8252
# 5 3.2362 9.2959 17.6108 0.0000 27.7524 0.0000
# 6 0.0000 0.0000 0.0000 10.8252 0.0000 -1.4433
#
#
#
# Elastic Compliance Matrix: (Units=1/GPa)
#
#
# Indices 1 2 3 4 5 6 
#
# 1 0.008661 -0.002032 -0.002587 0.000000 0.001312 0.000000
# 2 -0.002032 0.011040 -0.006215 0.000000 0.000483 0.000000
# 3 -0.002587 -0.006215 0.020865 0.000000 -0.010857 0.000000
# 4 0.000000 0.000000 0.000000 0.012202 0.000000 0.091519
# 5 0.001312 0.000483 -0.010857 0.000000 0.042607 0.000000
# 6 0.000000 0.000000 0.000000 0.091519 0.000000 -0.006432
#
#
# Mechanical properties :
#
#
# Convention : Reuss Voigt Hill
#
# Bulk Modulus (GPa) = 52.91795 63.62071 58.26933
# Shear Modulus (GPa) = 42.76732 19.65437 31.21084
#
# Velocity S-wave (km/s) = 4.58358 3.10727 3.91563
# Velocity P-wave (km/s) = 7.34902 6.64281 7.00482
#
# Compressibility (1/GPa) = 0.01889718
#
# Stress axis : x y z
#
# Youngs Moduli (GPa) = 115.45730 90.57715 47.92760
#
# Poissons Ratio (x) = 0.18406 0.12399
# Poissons Ratio (y) = 0.23462 0.29789
# Poissons Ratio (z) = 0.29869 0.56298
#
# Static dielectric constant tensor:
#      x y z
#    x 1.714550 0.000000 0.005500 
#    y 0.000000 1.716680 0.000000 
#    z 0.005500 0.000000 1.773900 
# 
# From -- ./inp_files/70859.got.cif
#   From: 2010.05.17/outbox.cif.g08.bks.cpg/sg15_36_cif.got.tgz:70859.got - 2010.06.03 18:47:42.
