data_PCOD9288331
_publ_section_title
;
Structure prediction by ZEFSAII (Michael W. Deem and Ramdas Pophale) SiO2 
 PCOD9288331
Probable space group: C 2/C
;
_chemical_formula_sum "Si O2"
_cell_formula_units_Z 44
_cell_length_a 26.870209
_cell_length_b 13.765056
_cell_length_c 11.752961
_cell_angle_alpha 90.000000
_cell_angle_beta 25.213951
_cell_angle_gamma 90.000000
_cell_volume 1851.848736
_symmetry_space_group_name_H-M "C 2/C"
_symmetry_group_IT_number 15
_symmetry_cell_setting 'monoclinic'
loop_
_space_group_symop_operation_xyz
x,y,z
-x,y,1/2-z
-x,-y,-z
x,-y,1/2+z
1/2+x,1/2+y,z
1/2-x,1/2+y,1/2-z
1/2-x,1/2-y,-z
1/2+x,1/2-y,1/2+z
loop_
_atom_site_type_symbol
_atom_site_label
_atom_site_fract_x
_atom_site_fract_y
_atom_site_fract_z
Si Si1 0.132890 0.784222 0.848488
Si Si2 0.951136 0.011319 0.972396
Si Si3 0.749760 0.764777 0.658275
Si Si4 0.000000 0.685725 0.750000
Si Si5 0.624120 0.114394 0.716660
Si Si6 0.726447 0.916615 0.535303
O O1 0.188131 0.749311 0.851087
O O2 0.243162 0.841063 0.561660
O O3 0.073692 0.695181 0.905792
O O4 0.047103 0.872845 0.042585
O O5 0.824757 0.962637 0.251054
O O6 0.000000 0.972830 0.750000
O O7 0.000000 0.000000 0.000000
O O8 0.765660 0.874795 0.576908
O O9 0.802724 0.684524 0.465136
O O10 0.608994 0.756067 0.969342
O O11 0.061945 0.625496 0.723357
O O12 0.633997 0.003518 0.736595
#
# Coordination Sequence:
#
# PCOD9288331 Si02
#       6
#     8   8   8   4   8   8
#     4   9  20  39  60  91 132 176 211 282 348 408
#     4  11  24  39  67 102 135 171 236 288 341 407
#     4  10  22  41  65  92 134 177 232 277 348 409
#     4  10  22  38  68  94 130 178 230 288 328 424
#     4   9  20  39  64  91 131 171 223 268 347 404
#     4  10  23  41  64  95 133 183 219 284 347 417
#
# _framework density 23.760041000000001
#
# number of rings (size 3 to 8) (size 9 to 14) (size 15 to 20)
#    0.000    2.182    0.000    1.091    3.818    9.455 
#    0.000    0.000    2.000    0.000    0.000    0.000 
#    0.000    0.000    0.000    0.000    0.000    0.000 
#
# Total GULP energy -122620.719436 kJ/mol
# GULP energy per Si atom -5573.669065 kJ/mol
# Density = 2.370596 g / cm^3
# Si number density = 23.760041 Si / 1000 Ang^3
#
#
#
# Elastic Constant Matrix: (Units=GPa)
#
#
# Indices 1 2 3 4 5 6 
#
# 1 70.0227 48.6618 34.7898 0.0000 3.1719 0.0000
# 2 48.6618 160.6938 27.6320 0.0000 -0.8497 0.0000
# 3 34.7898 27.6320 106.5344 0.0000 5.9848 0.0000
# 4 0.0000 0.0000 0.0000 19.8733 0.0000 10.3974
# 5 3.1719 -0.8497 5.9848 0.0000 28.1534 0.0000
# 6 0.0000 0.0000 0.0000 10.3974 0.0000 6.6399
#
#
#
# Elastic Compliance Matrix: (Units=1/GPa)
#
#
# Indices 1 2 3 4 5 6 
#
# 1 0.020701 -0.005366 -0.005291 0.000000 -0.001369 0.000000
# 2 -0.005366 0.007913 -0.000352 0.000000 0.000918 0.000000
# 3 -0.005291 -0.000352 0.011308 0.000000 -0.001818 0.000000
# 4 0.000000 0.000000 0.000000 0.278412 0.000000 -0.435968
# 5 -0.001369 0.000918 -0.001818 0.000000 0.036088 0.000000
# 6 0.000000 0.000000 0.000000 -0.435968 0.000000 0.833293
#
#
# Mechanical properties :
#
#
# Convention : Reuss Voigt Hill
#
# Bulk Modulus (GPa) = 55.85352 62.15757 59.00554
# Shear Modulus (GPa) = 4.11285 26.01112 15.06199
#
# Velocity S-wave (km/s) = 1.31710 3.31228 2.52051
# Velocity P-wave (km/s) = 5.08639 6.39106 5.77568
#
# Compressibility (1/GPa) = 0.01790398
#
# Stress axis : x y z
#
# Youngs Moduli (GPa) = 48.30611 126.36863 88.43317
#
# Poissons Ratio (x) = 0.67812 0.46794
# Poissons Ratio (y) = 0.25922 0.03110
# Poissons Ratio (z) = 0.25561 0.04444
#
# Static dielectric constant tensor:
#      x y z
#    x 1.712170 0.000000 -0.197210 
#    y 0.000000 1.924850 0.000000 
#    z -0.197210 0.000000 1.864880 
# 
# From -- ./inp_files/123244.got.cif
#   From: 2010.05.17/outbox.cif.g08.bks.cpg/sg15_62_cif.got.tgz:123244.got - 2010.06.03 18:47:42.
