data_PCOD9288182
_publ_section_title
;
Structure prediction by ZEFSAII (Michael W. Deem and Ramdas Pophale) SiO2 
 PCOD9288182
Probable space group: C 2/C
;
_chemical_formula_sum "Si O2"
_cell_formula_units_Z 64
_cell_length_a 10.989381
_cell_length_b 18.979670
_cell_length_c 15.264288
_cell_angle_alpha 90.000000
_cell_angle_beta 82.884990
_cell_angle_gamma 90.000000
_cell_volume 3159.229834
_symmetry_space_group_name_H-M "C 2/C"
_symmetry_group_IT_number 15
_symmetry_cell_setting 'monoclinic'
loop_
_space_group_symop_operation_xyz
x,y,z
-x,y,1/2-z
-x,-y,-z
x,-y,1/2+z
1/2+x,1/2+y,z
1/2-x,1/2+y,1/2-z
1/2-x,1/2-y,-z
1/2+x,1/2-y,1/2+z
loop_
_atom_site_type_symbol
_atom_site_label
_atom_site_fract_x
_atom_site_fract_y
_atom_site_fract_z
Si Si1 0.127926 0.062775 0.191829
Si Si2 0.600755 0.320563 0.549881
Si Si3 0.339397 0.682303 0.999716
Si Si4 0.258034 0.417919 0.375453
Si Si5 0.131771 0.436623 0.207493
Si Si6 0.529343 0.919324 0.526396
Si Si7 0.214887 0.580442 0.152118
Si Si8 0.662552 0.835836 0.057184
O O1 0.091609 0.125336 0.130066
O O2 0.229388 0.089137 0.254766
O O3 0.000000 0.040404 0.250000
O O4 0.185605 0.996656 0.133375
O O5 0.474289 0.297964 0.517786
O O6 0.657885 0.246807 0.574324
O O7 0.696289 0.354083 0.472913
O O8 0.296541 0.626964 0.079329
O O9 0.250000 0.750000 0.000000
O O10 0.347955 0.640195 0.907214
O O11 0.207425 0.408803 0.282815
O O12 0.143408 0.406290 0.451037
O O13 0.211452 0.495202 0.149551
O O14 0.104931 0.374399 0.144542
O O15 0.000000 0.466888 0.250000
O O16 0.579469 0.907036 0.620734
O O17 0.417149 0.867543 0.515728
O O18 0.500000 0.000000 0.500000
#
# Coordination Sequence:
#
# PCOD9288182 Si02
#       8
#     8   8   8   8   8   8   8   8
#     4  11  23  42  62  96 134 173 217 270 335 401
#     4  11  25  43  62  93 133 174 219 268 334 395
#     4  11  24  43  67  96 131 175 220 268 332 402
#     4  10  23  37  62  96 125 166 215 271 319 386
#     4  11  21  39  65  99 129 165 218 270 328 388
#     4  11  18  38  64  95 125 165 213 270 326 386
#     4  10  22  38  64  97 128 164 217 273 321 390
#     4  11  24  41  65  94 130 174 218 273 331 396
#
# _framework density 20.258102000000001
#
# number of rings (size 3 to 8) (size 9 to 14) (size 15 to 20)
#    0.000    1.250    3.750    2.250    1.750    5.000 
#    0.000    0.000    0.000    3.750    0.000    0.000 
#    0.000    0.000    0.000    0.000    0.000    0.000 
#
# Total GULP energy -178158.334114 kJ/mol
# GULP energy per Si atom -5567.447941 kJ/mol
# Density = 2.021199 g / cm^3
# Si number density = 20.258102 Si / 1000 Ang^3
#
#
#
# Elastic Constant Matrix: (Units=GPa)
#
#
# Indices 1 2 3 4 5 6 
#
# 1 79.8042 18.1049 24.6660 0.0000 9.7720 0.0000
# 2 18.1049 69.0050 38.1575 0.0000 1.3756 0.0000
# 3 24.6660 38.1575 63.2372 0.0000 22.0942 0.0000
# 4 0.0000 0.0000 0.0000 13.5267 0.0000 6.0488
# 5 9.7720 1.3756 22.0942 0.0000 39.6576 0.0000
# 6 0.0000 0.0000 0.0000 6.0488 0.0000 34.4297
#
#
#
# Elastic Compliance Matrix: (Units=1/GPa)
#
#
# Indices 1 2 3 4 5 6 
#
# 1 0.014323 -0.001261 -0.004480 0.000000 -0.000989 0.000000
# 2 -0.001261 0.024204 -0.017295 0.000000 0.009107 0.000000
# 3 -0.004480 -0.017295 0.034024 0.000000 -0.017252 0.000000
# 4 0.000000 0.000000 0.000000 0.080231 0.000000 -0.014096
# 5 -0.000989 0.009107 -0.017252 0.000000 0.034755 0.000000
# 6 0.000000 0.000000 0.000000 -0.014096 0.000000 0.031521
#
#
# Mechanical properties :
#
#
# Convention : Reuss Voigt Hill
#
# Bulk Modulus (GPa) = 37.76473 41.54480 39.65477
# Shear Modulus (GPa) = 18.25102 26.26400 22.25751
#
# Velocity S-wave (km/s) = 3.00480 3.60456 3.31826
# Velocity P-wave (km/s) = 5.54262 6.15435 5.85648
#
# Compressibility (1/GPa) = 0.02647973
#
# Stress axis : x y z
#
# Youngs Moduli (GPa) = 69.81977 41.31464 29.39066
#
# Poissons Ratio (x) = 0.05209 0.13168
# Poissons Ratio (y) = 0.08802 0.50831
# Poissons Ratio (z) = 0.31280 0.71454
#
# Static dielectric constant tensor:
#      x y z
#    x 1.843620 0.000000 0.030130 
#    y 0.000000 1.728980 0.000000 
#    z 0.030130 0.000000 1.771900 
# 
# From -- ./inp_files/146063.got.cif
#   From: 2010.05.17/outbox.cif.g08.bks.cpg/sg15_74_cif.got.tgz:146063.got - 2010.06.03 18:47:42.
