data_PCOD9288441
_publ_section_title
;
Structure prediction by ZEFSAII (Michael W. Deem and Ramdas Pophale) SiO2 
 PCOD9288441
Probable space group: C 2/C
;
_chemical_formula_sum "Si O2"
_cell_formula_units_Z 60
_cell_length_a 8.732265
_cell_length_b 25.206669
_cell_length_c 25.827254
_cell_angle_alpha 90.000000
_cell_angle_beta 31.915439
_cell_angle_gamma 90.000000
_cell_volume 3005.404050
_symmetry_space_group_name_H-M "C 2/C"
_symmetry_group_IT_number 15
_symmetry_cell_setting 'monoclinic'
loop_
_space_group_symop_operation_xyz
x,y,z
-x,y,1/2-z
-x,-y,-z
x,-y,1/2+z
1/2+x,1/2+y,z
1/2-x,1/2+y,1/2-z
1/2-x,1/2-y,-z
1/2+x,1/2-y,1/2+z
loop_
_atom_site_type_symbol
_atom_site_label
_atom_site_fract_x
_atom_site_fract_y
_atom_site_fract_z
Si Si1 0.500000 0.655750 0.750000
Si Si2 0.835286 0.497467 0.891500
Si Si3 0.743018 0.995106 0.363387
Si Si4 0.685412 0.916203 0.960881
Si Si5 0.731000 0.892739 0.644231
Si Si6 0.436576 0.689627 0.504040
Si Si7 0.991555 0.694962 0.969460
Si Si8 0.983771 0.384079 0.192174
O O1 0.270336 0.687410 0.852002
O O2 0.299752 0.626661 0.763238
O O3 0.899694 0.448457 0.836217
O O4 0.986050 0.483883 0.901811
O O5 0.934801 0.554780 0.843125
O O6 0.500000 0.500000 0.000000
O O7 0.809272 0.042147 0.383958
O O8 0.000000 0.982937 0.250000
O O9 0.597220 0.944827 0.433232
O O10 0.952606 0.907696 0.923512
O O11 0.570767 0.857850 0.978939
O O12 0.500000 0.868781 0.750000
O O13 0.794579 0.849720 0.581767
O O14 0.508129 0.750435 0.496295
O O15 0.277769 0.695359 0.493604
O O16 0.216406 0.658171 0.603755
O O17 0.000000 0.378564 0.250000
#
# Coordination Sequence:
#
# PCOD9288441 Si02
#       8
#     4   8   8   8   8   8   8   8
#     4  10  22  40  68 102 118 174 228 260 326 400
#     4  12  22  39  58  88 128 162 203 263 324 382
#     4  11  23  38  61  87 123 165 205 258 319 388
#     4  10  22  39  59  89 121 161 209 260 316 378
#     4  11  21  38  60  88 122 163 209 258 324 390
#     4   9  19  39  62  91 129 165 211 274 322 383
#     4   9  19  37  64  92 125 161 217 273 317 379
#     4  11  24  42  67  96 134 171 217 273 327 389
#
# _framework density 19.964037999999999
#
# number of rings (size 3 to 8) (size 9 to 14) (size 15 to 20)
#    0.000    1.600    2.667    2.800    4.667    1.067 
#    0.000    1.333    0.000    0.000    0.000    0.000 
#    0.000    0.000    0.000    0.000    0.000    0.000 
#
# Total GULP energy -167132.015390 kJ/mol
# GULP energy per Si atom -5571.067180 kJ/mol
# Density = 1.991860 g / cm^3
# Si number density = 19.964038 Si / 1000 Ang^3
#
#
#
# Elastic Constant Matrix: (Units=GPa)
#
#
# Indices 1 2 3 4 5 6 
#
# 1 55.3097 31.4130 0.2646 0.0127 5.9850 0.0117
# 2 31.4130 167.7009 34.3930 0.0033 10.3018 0.0022
# 3 0.2646 34.3930 59.8551 0.0081 2.6767 0.0372
# 4 0.0127 0.0033 0.0081 8.6171 -0.0049 -5.6159
# 5 5.9850 10.3018 2.6767 -0.0049 26.2747 -0.0113
# 6 0.0117 0.0022 0.0372 -5.6159 -0.0113 -78.9479
#
#
#
# Elastic Compliance Matrix: (Units=1/GPa)
#
#
# Indices 1 2 3 4 5 6 
#
# 1 0.020816 -0.004200 0.002471 -0.000029 -0.003346 0.000007
# 2 -0.004200 0.007744 -0.004358 0.000005 -0.001636 -0.000003
# 3 0.002471 -0.004358 0.019237 -0.000014 -0.000814 0.000010
# 4 -0.000029 0.000005 -0.000014 0.110907 0.000023 -0.007889
# 5 -0.003346 -0.001636 -0.000814 0.000023 0.039546 -0.000008
# 6 0.000007 -0.000003 0.000010 -0.007889 -0.000008 -0.012105
#
#
# Mechanical properties :
#
#
# Convention : Reuss Voigt Hill
#
# Bulk Modulus (GPa) = 28.07248 46.11188 37.09218
# Shear Modulus (GPa) = 23.78776 5.64180 14.71478
#
# Velocity S-wave (km/s) = 3.45560 1.68289 2.71784
# Velocity P-wave (km/s) = 5.47847 5.18881 5.33561
#
# Compressibility (1/GPa) = 0.03562207
#
# Stress axis : x y z
#
# Youngs Moduli (GPa) = 48.04024 129.13173 51.98412
#
# Poissons Ratio (x) = 0.54240 -0.12846
# Poissons Ratio (y) = 0.20179 0.22655
# Poissons Ratio (z) = -0.11872 0.56276
#
# Static dielectric constant tensor:
#      x y z
#    x 1.726030 0.000000 -0.004430 
#    y 0.000000 1.799870 0.000000 
#    z -0.004430 0.000000 1.714380 
# 
# From -- ./inp_files/290255.got.cif
#   From: 2010.05.17/outbox.cif.g08.bks.cpg/sg15_146_cif.got.tgz:290255.got - 2010.06.03 18:47:42.
