data_PCOD9288155
_publ_section_title
;
Structure prediction by ZEFSAII (Michael W. Deem and Ramdas Pophale) SiO2 
 PCOD9288155
Probable space group: C 2/C
;
_chemical_formula_sum "Si O2"
_cell_formula_units_Z 60
_cell_length_a 21.938967
_cell_length_b 8.913490
_cell_length_c 14.038947
_cell_angle_alpha 90.000000
_cell_angle_beta 73.276341
_cell_angle_gamma 90.000000
_cell_volume 2629.236670
_symmetry_space_group_name_H-M "C 2/C"
_symmetry_group_IT_number 15
_symmetry_cell_setting 'monoclinic'
loop_
_space_group_symop_operation_xyz
x,y,z
-x,y,1/2-z
-x,-y,-z
x,-y,1/2+z
1/2+x,1/2+y,z
1/2-x,1/2+y,1/2-z
1/2-x,1/2-y,-z
1/2+x,1/2-y,1/2+z
loop_
_atom_site_type_symbol
_atom_site_label
_atom_site_fract_x
_atom_site_fract_y
_atom_site_fract_z
Si Si1 0.164517 0.020155 0.563677
Si Si2 0.500000 0.793660 0.250000
Si Si3 0.104028 0.577853 0.572300
Si Si4 0.742282 0.458787 0.691603
Si Si5 0.660305 0.189330 0.951546
Si Si6 0.071693 0.880487 0.867037
Si Si7 0.065990 0.856782 0.486459
Si Si8 0.736793 0.878576 0.123750
O O1 0.179781 0.187322 0.520743
O O2 0.175336 0.998330 0.670462
O O3 0.096791 0.965651 0.553928
O O4 0.214825 0.915535 0.483710
O O5 0.459814 0.893985 0.339878
O O6 0.449546 0.685021 0.222794
O O7 0.108695 0.414505 0.526284
O O8 0.099473 0.698894 0.489082
O O9 0.165946 0.607876 0.610955
O O10 0.789501 0.570751 0.612584
O O11 0.750879 0.283553 0.663782
O O12 0.751454 0.500466 0.797446
O O13 0.630570 0.285831 0.879609
O O14 0.080763 0.056326 0.882681
O O15 0.009007 0.844488 0.960855
#
# Coordination Sequence:
#
# PCOD9288155 Si02
#       8
#     8   4   8   8   8   8   8   8
#     4  11  22  43  65  95 131 179 215 273 322 401
#     4  10  22  38  64  94 128 164 222 284 334 388
#     4  11  22  41  65  92 131 175 211 278 327 401
#     4  12  24  40  64 100 133 174 217 273 324 408
#     4  11  23  39  69  91 131 174 224 264 334 394
#     4   9  20  40  63  90 119 169 219 273 323 395
#     4   9  19  39  66  85 120 167 221 253 330 385
#     4  12  25  40  66  98 137 171 219 265 339 391
#
# _framework density 22.820312999999999
#
# number of rings (size 3 to 8) (size 9 to 14) (size 15 to 20)
#    0.000    1.333    2.667    3.200    1.867    3.200 
#    0.000    1.333    0.000    7.200    0.000    0.000 
#    0.000    0.000    0.000    0.000    0.000    0.000 
#
# Total GULP energy -167748.790202 kJ/mol
# GULP energy per Si atom -5591.626340 kJ/mol
# Density = 2.276837 g / cm^3
# Si number density = 22.820313 Si / 1000 Ang^3
#
#
#
# Elastic Constant Matrix: (Units=GPa)
#
#
# Indices 1 2 3 4 5 6 
#
# 1 79.8516 16.4371 4.2556 0.0000 -0.7718 0.0000
# 2 16.4371 118.7948 10.0830 0.0000 -1.8922 0.0000
# 3 4.2556 10.0830 62.9514 0.0000 0.4492 0.0000
# 4 0.0000 0.0000 0.0000 25.9322 0.0000 -5.8188
# 5 -0.7718 -1.8922 0.4492 0.0000 33.7670 0.0000
# 6 0.0000 0.0000 0.0000 -5.8188 0.0000 31.4661
#
#
#
# Elastic Compliance Matrix: (Units=1/GPa)
#
#
# Indices 1 2 3 4 5 6 
#
# 1 0.012914 -0.001733 -0.000597 0.000000 0.000206 0.000000
# 2 -0.001733 0.008775 -0.001292 0.000000 0.000469 0.000000
# 3 -0.000597 -0.001292 0.016135 0.000000 -0.000301 0.000000
# 4 0.000000 0.000000 0.000000 0.040231 0.000000 0.007440
# 5 0.000206 0.000469 -0.000301 0.000000 0.029650 0.000000
# 6 0.000000 0.000000 0.000000 0.007440 0.000000 0.033156
#
#
# Mechanical properties :
#
#
# Convention : Reuss Voigt Hill
#
# Bulk Modulus (GPa) = 32.70083 35.90546 34.30315
# Shear Modulus (GPa) = 31.58627 33.62120 32.60374
#
# Velocity S-wave (km/s) = 3.72443 3.84253 3.78394
# Velocity P-wave (km/s) = 5.73201 5.95439 5.84426
#
# Compressibility (1/GPa) = 0.03058026
#
# Stress axis : x y z
#
# Youngs Moduli (GPa) = 77.43693 113.96329 61.97842
#
# Poissons Ratio (x) = 0.19748 0.03700
# Poissons Ratio (y) = 0.13419 0.08006
# Poissons Ratio (z) = 0.04622 0.14720
#
# Static dielectric constant tensor:
#      x y z
#    x 1.868360 0.000000 -0.002480 
#    y 0.000000 1.841860 0.000000 
#    z -0.002480 0.000000 1.881760 
# 
# From -- ./inp_files/171871.got.cif
#   From: 2010.05.17/outbox.cif.g08.bks.cpg/sg15_86_cif.got.tgz:171871.got - 2010.06.03 18:47:42.
