data_PCOD9288062
_publ_section_title
;
Structure prediction by ZEFSAII (Michael W. Deem and Ramdas Pophale) SiO2 
 PCOD9288062
Probable space group: C 2/C
;
_chemical_formula_sum "Si O2"
_cell_formula_units_Z 48
_cell_length_a 27.268970
_cell_length_b 5.016427
_cell_length_c 14.854869
_cell_angle_alpha 90.000000
_cell_angle_beta 77.176617
_cell_angle_gamma 90.000000
_cell_volume 1981.357707
_symmetry_space_group_name_H-M "C 2/C"
_symmetry_group_IT_number 15
_symmetry_cell_setting 'monoclinic'
loop_
_space_group_symop_operation_xyz
x,y,z
-x,y,1/2-z
-x,-y,-z
x,-y,1/2+z
1/2+x,1/2+y,z
1/2-x,1/2+y,1/2-z
1/2-x,1/2-y,-z
1/2+x,1/2-y,1/2+z
loop_
_atom_site_type_symbol
_atom_site_label
_atom_site_fract_x
_atom_site_fract_y
_atom_site_fract_z
Si Si1 0.153551 0.503644 0.121465
Si Si2 0.945776 0.161177 0.787097
Si Si3 0.281111 0.730221 0.761098
Si Si4 0.386248 0.081906 0.544209
Si Si5 0.369143 0.628648 0.217610
Si Si6 0.550573 0.411112 0.527498
O O1 0.149904 0.224873 0.176119
O O2 0.099605 0.643897 0.165913
O O3 0.198161 0.664147 0.151551
O O4 0.154804 0.497731 0.013317
O O5 0.922948 0.006671 0.710962
O O6 0.954642 0.948810 0.863374
O O7 0.000000 0.292909 0.750000
O O8 0.259366 0.990796 0.720497
O O9 0.328636 0.579431 0.697332
O O10 0.371698 0.114436 0.653633
O O11 0.405534 0.380243 0.515484
O O12 0.431889 0.879165 0.509623
O O13 0.500000 0.500000 0.500000
#
# Coordination Sequence:
#
# PCOD9288062 Si02
#       6
#     8   8   8   8   8   8
#     4  10  23  44  65  97 134 176 216 278 334 387
#     4  10  22  38  62  96 133 181 225 266 323 391
#     4  11  23  43  74  97 127 171 215 276 343 405
#     4  11  25  41  64  94 134 173 224 275 324 392
#     4  11  23  42  69  94 133 177 223 266 342 389
#     4  11  23  40  59  93 134 177 226 278 318 371
#
# _framework density 24.225814
#
# number of rings (size 3 to 8) (size 9 to 14) (size 15 to 20)
#    0.000    1.333    3.333    1.500    7.000    0.667 
#    0.000    1.667    0.000    0.000    0.000    0.000 
#    0.000    0.000    0.000    0.000    0.000    0.000 
#
# Total GULP energy -134217.536806 kJ/mol
# GULP energy per Si atom -5592.397367 kJ/mol
# Density = 2.417068 g / cm^3
# Si number density = 24.225814 Si / 1000 Ang^3
#
#
#
# Elastic Constant Matrix: (Units=GPa)
#
#
# Indices 1 2 3 4 5 6 
#
# 1 134.1936 30.3778 26.1590 0.0000 34.9424 0.0000
# 2 30.3778 92.0047 2.6542 0.0000 11.0870 0.0000
# 3 26.1590 2.6542 69.0599 0.0000 27.7924 0.0000
# 4 0.0000 0.0000 0.0000 29.5373 0.0000 8.4289
# 5 34.9424 11.0870 27.7924 0.0000 32.7869 0.0000
# 6 0.0000 0.0000 0.0000 8.4289 0.0000 43.7288
#
#
#
# Elastic Compliance Matrix: (Units=1/GPa)
#
#
# Indices 1 2 3 4 5 6 
#
# 1 0.010758 -0.002225 0.000488 0.000000 -0.011126 0.000000
# 2 -0.002225 0.011921 0.001598 0.000000 -0.003014 0.000000
# 3 0.000488 0.001598 0.022251 0.000000 -0.019923 0.000000
# 4 0.000000 0.000000 0.000000 0.035826 0.000000 -0.006906
# 5 -0.011126 -0.003014 -0.019923 0.000000 0.060265 0.000000
# 6 0.000000 0.000000 0.000000 -0.006906 0.000000 0.024199
#
#
# Mechanical properties :
#
#
# Convention : Reuss Voigt Hill
#
# Bulk Modulus (GPa) = 22.39576 45.96000 34.17788
# Shear Modulus (GPa) = 27.71893 36.94841 32.33367
#
# Velocity S-wave (km/s) = 3.38626 3.90958 3.65729
# Velocity P-wave (km/s) = 4.95516 6.27634 5.65447
#
# Compressibility (1/GPa) = 0.04465130
#
# Stress axis : x y z
#
# Youngs Moduli (GPa) = 92.95737 83.88688 44.94096
#
# Poissons Ratio (x) = 0.18667 -0.02195
# Poissons Ratio (y) = 0.20685 -0.07180
# Poissons Ratio (z) = -0.04540 -0.13402
#
# Static dielectric constant tensor:
#      x y z
#    x 1.942140 0.000000 -0.034950 
#    y 0.000000 1.911130 0.000000 
#    z -0.034950 0.000000 2.037980 
# 
# From -- ./inp_files/175735.got.cif
#   From: 2010.05.17/outbox.cif.g08.bks.cpg/sg15_88_cif.got.tgz:175735.got - 2010.06.03 18:47:42.
