data_PCOD9288475
_publ_section_title
;
Structure prediction by ZEFSAII (Michael W. Deem and Ramdas Pophale) SiO2 
 PCOD9288475
Probable space group: C 2/C
;
_chemical_formula_sum "Si O2"
_cell_formula_units_Z 40
_cell_length_a 23.157537
_cell_length_b 8.313422
_cell_length_c 8.124422
_cell_angle_alpha 90.000000
_cell_angle_beta 88.081841
_cell_angle_gamma 90.000000
_cell_volume 1563.224110
_symmetry_space_group_name_H-M "C 2/C"
_symmetry_group_IT_number 15
_symmetry_cell_setting 'monoclinic'
loop_
_space_group_symop_operation_xyz
x,y,z
-x,y,1/2-z
-x,-y,-z
x,-y,1/2+z
1/2+x,1/2+y,z
1/2-x,1/2+y,1/2-z
1/2-x,1/2-y,-z
1/2+x,1/2-y,1/2+z
loop_
_atom_site_type_symbol
_atom_site_label
_atom_site_fract_x
_atom_site_fract_y
_atom_site_fract_z
Si Si1 0.124152 0.173767 0.923465
Si Si2 0.419384 0.333299 0.443811
Si Si3 0.978700 0.329313 0.436206
Si Si4 0.679423 0.175128 0.897261
Si Si5 0.724643 0.166108 0.266465
O O1 0.096850 0.191700 0.743831
O O2 0.191873 0.207904 0.888340
O O3 0.107792 0.002242 0.998833
O O4 0.089681 0.304567 0.034856
O O5 0.486992 0.308161 0.465625
O O6 0.387849 0.204154 0.566918
O O7 0.000000 0.309888 0.250000
O O8 0.000000 0.500000 0.500000
O O9 0.707574 0.304382 0.768931
O O10 0.702994 0.006087 0.829410
O O11 0.701742 0.193389 0.082836
#
# Coordination Sequence:
#
# PCOD9288475 Si02
#       5
#     8   8   8   8   8
#     4  11  23  40  62  89 121 157 199 244 295 352
#     4  11  23  40  62  89 121 157 199 244 295 352
#     4  12  25  42  63  88 120 156 198 246 297 352
#     4  10  22  39  60  88 120 155 196 242 293 350
#     4  10  22  39  60  88 120 155 196 242 293 350
#
# _framework density 25.588139999999999
#
# number of rings (size 3 to 8) (size 9 to 14) (size 15 to 20)
#    0.000    1.200    0.000    6.000    0.000    7.200 
#    0.000    0.000    0.000    0.000    0.000    0.000 
#    0.000    0.000    0.000    0.000    0.000    0.000 
#
# Total GULP energy -112001.325155 kJ/mol
# GULP energy per Si atom -5600.066258 kJ/mol
# Density = 2.552990 g / cm^3
# Si number density = 25.588140 Si / 1000 Ang^3
#
#
#
# Elastic Constant Matrix: (Units=GPa)
#
#
# Indices 1 2 3 4 5 6 
#
# 1 82.4374 -7.3174 25.1013 0.0000 -40.7948 0.0000
# 2 -7.3174 99.3682 7.2869 0.0000 -33.6046 0.0000
# 3 25.1013 7.2869 154.0341 0.0000 -28.8175 0.0000
# 4 0.0000 0.0000 0.0000 37.6637 0.0000 -17.2659
# 5 -40.7948 -33.6046 -28.8175 0.0000 51.8288 0.0000
# 6 0.0000 0.0000 0.0000 -17.2659 0.0000 37.8133
#
#
#
# Elastic Compliance Matrix: (Units=1/GPa)
#
#
# Indices 1 2 3 4 5 6 
#
# 1 0.028104 0.012310 0.000524 0.000000 0.030393 0.000000
# 2 0.012310 0.018440 0.001307 0.000000 0.022372 0.000000
# 3 0.000524 0.001307 0.007345 0.000000 0.005344 0.000000
# 4 0.000000 0.000000 0.000000 0.033580 0.000000 0.015333
# 5 0.030393 0.022372 0.005344 0.000000 0.060694 0.000000
# 6 0.000000 0.000000 0.000000 0.015333 0.000000 0.033447
#
#
# Mechanical properties :
#
#
# Convention : Reuss Voigt Hill
#
# Bulk Modulus (GPa) = 12.16987 42.88680 27.52834
# Shear Modulus (GPa) = 27.66757 46.17909 36.92333
#
# Velocity S-wave (km/s) = 3.29183 4.25279 3.80279
# Velocity P-wave (km/s) = 4.38344 6.39623 5.48299
#
# Compressibility (1/GPa) = 0.08217013
#
# Stress axis : x y z
#
# Youngs Moduli (GPa) = 35.58222 54.22996 136.15525
#
# Poissons Ratio (x) = -0.66755 -0.07135
# Poissons Ratio (y) = -0.43801 -0.17797
# Poissons Ratio (z) = -0.01865 -0.07089
#
# Static dielectric constant tensor:
#      x y z
#    x 2.025760 0.000000 0.013010 
#    y 0.000000 2.015060 0.000000 
#    z 0.013010 0.000000 1.945310 
# 
# From -- ./inp_files/59916.got.cif
#   From: 2010.05.17/outbox.cif.g08.bks.cpg/sg15_30_cif.got.tgz:59916.got - 2010.06.03 18:47:42.
