data_PCOD9288116
_publ_section_title
;
Structure prediction by ZEFSAII (Michael W. Deem and Ramdas Pophale) SiO2 
 PCOD9288116
Probable space group: C 2/C
;
_chemical_formula_sum "Si O2"
_cell_formula_units_Z 36
_cell_length_a 25.731451
_cell_length_b 6.645343
_cell_length_c 9.242008
_cell_angle_alpha 90.000000
_cell_angle_beta 118.798702
_cell_angle_gamma 90.000000
_cell_volume 1384.871730
_symmetry_space_group_name_H-M "C 2/C"
_symmetry_group_IT_number 15
_symmetry_cell_setting 'monoclinic'
loop_
_space_group_symop_operation_xyz
x,y,z
-x,y,1/2-z
-x,-y,-z
x,-y,1/2+z
1/2+x,1/2+y,z
1/2-x,1/2+y,1/2-z
1/2-x,1/2-y,-z
1/2+x,1/2-y,1/2+z
loop_
_atom_site_type_symbol
_atom_site_label
_atom_site_fract_x
_atom_site_fract_y
_atom_site_fract_z
Si Si1 0.807000 0.183835 0.486296
Si Si2 0.970015 0.852672 0.043233
Si Si3 0.348576 0.573387 0.823068
Si Si4 0.396158 0.021872 0.501213
Si Si5 0.500000 0.270162 0.750000
O O1 0.750000 0.250000 0.500000
O O2 0.842754 0.042806 0.645923
O O3 0.846625 0.377098 0.502038
O O4 0.795369 0.039195 0.334126
O O5 0.945172 0.619734 0.991933
O O6 0.000000 0.832386 0.250000
O O7 0.997003 0.882076 0.907154
O O8 0.905631 0.959779 0.958890
O O9 0.361160 0.808705 0.863592
O O10 0.438951 0.149359 0.663093
#
# Coordination Sequence:
#
# PCOD9288116 Si02
#       5
#     8   8   8   8   4
#     4  11  27  48  73 101 144 185 251 303 361 426
#     4  10  23  38  67  98 143 180 234 289 356 437
#     4  10  26  45  70 104 140 189 238 300 359 434
#     4  10  24  42  69 105 139 191 236 293 371 427
#     4  10  22  38  64 102 140 182 228 288 360 440
#
# _framework density 25.995187000000001
#
# number of rings (size 3 to 8) (size 9 to 14) (size 15 to 20)
#    0.000    1.778    0.000    0.667   18.667    4.444 
#    0.000    0.000    0.000    0.000    0.000    0.000 
#    0.000    0.000    0.000    0.000    0.000    0.000 
#
# Total GULP energy -100430.389210 kJ/mol
# GULP energy per Si atom -5579.466067 kJ/mol
# Density = 2.593602 g / cm^3
# Si number density = 25.995187 Si / 1000 Ang^3
#
#
#
# Elastic Constant Matrix: (Units=GPa)
#
#
# Indices 1 2 3 4 5 6 
#
# 1 122.6042 43.8058 39.4120 0.0000 -19.1169 0.0000
# 2 43.8058 120.9111 45.6165 0.0000 -24.3464 0.0000
# 3 39.4120 45.6165 109.6902 0.0000 -29.3275 0.0000
# 4 0.0000 0.0000 0.0000 30.6502 0.0000 -10.0057
# 5 -19.1169 -24.3464 -29.3275 0.0000 39.3696 0.0000
# 6 0.0000 0.0000 0.0000 -10.0057 0.0000 50.5124
#
#
#
# Elastic Compliance Matrix: (Units=1/GPa)
#
#
# Indices 1 2 3 4 5 6 
#
# 1 0.009987 -0.002476 -0.002087 0.000000 0.001764 0.000000
# 2 -0.002476 0.010896 -0.002699 0.000000 0.003525 0.000000
# 3 -0.002087 -0.002699 0.012826 0.000000 0.006872 0.000000
# 4 0.000000 0.000000 0.000000 0.034882 0.000000 0.006910
# 5 0.001764 0.003525 0.006872 0.000000 0.033556 0.000000
# 6 0.000000 0.000000 0.000000 0.006910 0.000000 0.021166
#
#
# Mechanical properties :
#
#
# Convention : Reuss Voigt Hill
#
# Bulk Modulus (GPa) = 52.12459 67.87490 59.99975
# Shear Modulus (GPa) = 34.66663 39.06453 36.86558
#
# Velocity S-wave (km/s) = 3.65578 3.88075 3.76994
# Velocity P-wave (km/s) = 6.15750 6.80056 6.48700
#
# Compressibility (1/GPa) = 0.01918480
#
# Stress axis : x y z
#
# Youngs Moduli (GPa) = 100.13226 91.78050 77.96446
#
# Poissons Ratio (x) = 0.22721 0.16273
# Poissons Ratio (y) = 0.24789 0.21043
# Poissons Ratio (z) = 0.20900 0.24772
#
# Static dielectric constant tensor:
#      x y z
#    x 2.056250 0.000000 -0.031320 
#    y 0.000000 2.260080 0.000000 
#    z -0.031320 0.000000 2.103540 
# 
# From -- ./inp_files/60137.got.cif
#   From: 2010.05.17/outbox.cif.g08.bks.cpg/sg15_31_cif.got.tgz:60137.got - 2010.06.03 18:47:42.
