data_PCOD9288968
_publ_section_title
;
Structure prediction by ZEFSAII (Michael W. Deem and Ramdas Pophale) SiO2 
 PCOD9288968
Probable space group: C 2/C
;
_chemical_formula_sum "Si O2"
_cell_formula_units_Z 40
_cell_length_a 8.842334
_cell_length_b 13.630018
_cell_length_c 23.504129
_cell_angle_alpha 90.000000
_cell_angle_beta 34.324454
_cell_angle_gamma 90.000000
_cell_volume 1597.324317
_symmetry_space_group_name_H-M "C 2/C"
_symmetry_group_IT_number 15
_symmetry_cell_setting 'monoclinic'
loop_
_space_group_symop_operation_xyz
x,y,z
-x,y,1/2-z
-x,-y,-z
x,-y,1/2+z
1/2+x,1/2+y,z
1/2-x,1/2+y,1/2-z
1/2-x,1/2-y,-z
1/2+x,1/2-y,1/2+z
loop_
_atom_site_type_symbol
_atom_site_label
_atom_site_fract_x
_atom_site_fract_y
_atom_site_fract_z
Si Si1 0.396232 0.111367 0.840170
Si Si2 0.548922 0.453388 0.801107
Si Si3 0.174815 0.134877 0.022201
Si Si4 0.906556 0.341215 0.838458
Si Si5 0.431624 0.333208 0.151208
O O1 0.500000 0.053915 0.750000
O O2 0.115744 0.146682 0.900626
O O3 0.628155 0.194640 0.767106
O O4 0.361117 0.083624 0.916505
O O5 0.500000 0.441730 0.750000
O O6 0.339480 0.400906 0.908748
O O7 0.521158 0.566842 0.829147
O O8 0.849879 0.411537 0.718661
O O9 0.877145 0.112742 0.089838
O O10 0.250000 0.250000 0.000000
O O11 0.000000 0.292526 0.750000
O O12 0.878100 0.253986 0.891957
#
# Coordination Sequence:
#
# PCOD9288968 Si02
#       5
#     8   8   8   8   8
#     4   8  21  39  68  88 133 164 219 260 332 371
#     4  11  25  43  67  99 133 167 220 274 325 385
#     4  11  24  41  67  98 130 175 220 265 327 393
#     4  10  22  39  69  93 132 173 218 263 329 388
#     4   9  21  42  67  91 135 171 213 276 324 380
#
# _framework density 25.041879999999999
#
# number of rings (size 3 to 8) (size 9 to 14) (size 15 to 20)
#    1.200    0.800    0.000    3.000   14.000    1.600 
#    0.000    2.000    0.000    0.000    0.000    0.000 
#    0.000    0.000    0.000    0.000    0.000    0.000 
#
# Total GULP energy -111400.786264 kJ/mol
# GULP energy per Si atom -5570.039313 kJ/mol
# Density = 2.498488 g / cm^3
# Si number density = 25.041880 Si / 1000 Ang^3
#
#
#
# Elastic Constant Matrix: (Units=GPa)
#
#
# Indices 1 2 3 4 5 6 
#
# 1 113.2479 26.6006 41.3556 -0.0061 32.4176 0.0074
# 2 26.6006 107.9582 36.8387 -0.0030 9.6848 0.0030
# 3 41.3556 36.8387 133.9759 -0.0067 46.6354 0.0102
# 4 -0.0061 -0.0030 -0.0067 27.3825 0.0034 -0.4102
# 5 32.4176 9.6848 46.6354 0.0034 48.2249 -0.0034
# 6 0.0074 0.0030 0.0102 -0.4102 -0.0034 25.4082
#
#
#
# Elastic Compliance Matrix: (Units=1/GPa)
#
#
# Indices 1 2 3 4 5 6 
#
# 1 0.011446 -0.001995 -0.000672 0.000003 -0.006644 -0.000004
# 2 -0.001995 0.010602 -0.003053 0.000000 0.002164 0.000001
# 3 -0.000672 -0.003053 0.012271 0.000004 -0.010801 -0.000006
# 4 0.000003 0.000000 0.000004 0.036529 -0.000008 0.000590
# 5 -0.006644 0.002164 -0.010801 -0.000008 0.035213 0.000011
# 6 -0.000004 0.000001 -0.000006 0.000590 0.000011 0.039367
#
#
# Mechanical properties :
#
#
# Convention : Reuss Voigt Hill
#
# Bulk Modulus (GPa) = 43.70728 62.75243 53.22986
# Shear Modulus (GPa) = 30.39650 36.89558 33.64604
#
# Velocity S-wave (km/s) = 3.48778 3.84259 3.66948
# Velocity P-wave (km/s) = 5.80612 6.69334 6.26545
#
# Compressibility (1/GPa) = 0.02287948
#
# Stress axis : x y z
#
# Youngs Moduli (GPa) = 87.36712 94.32261 81.49513
#
# Poissons Ratio (x) = 0.18817 0.05476
# Poissons Ratio (y) = 0.17429 0.24877
# Poissons Ratio (z) = 0.05871 0.28793
#
# Static dielectric constant tensor:
#      x y z
#    x 2.044480 0.000000 -0.061870 
#    y 0.000000 2.100880 0.000000 
#    z -0.061870 0.000000 1.982620 
# 
# From -- ./inp_files/264093.got.cif
#   From: 2010.05.17/outbox.cif.g08.bks.cpg/sg15_133_cif.got.tgz:264093.got - 2010.06.03 18:47:42.
