data_PCOD9288637
_publ_section_title
;
Structure prediction by ZEFSAII (Michael W. Deem and Ramdas Pophale) SiO2 
 PCOD9288637
Probable space group: C 2/C
;
_chemical_formula_sum "Si O2"
_cell_formula_units_Z 56
_cell_length_a 18.737269
_cell_length_b 26.842162
_cell_length_c 9.022532
_cell_angle_alpha 90.000000
_cell_angle_beta 141.103175
_cell_angle_gamma 90.000000
_cell_volume 2849.420105
_symmetry_space_group_name_H-M "C 2/C"
_symmetry_group_IT_number 15
_symmetry_cell_setting 'monoclinic'
loop_
_space_group_symop_operation_xyz
x,y,z
-x,y,1/2-z
-x,-y,-z
x,-y,1/2+z
1/2+x,1/2+y,z
1/2-x,1/2+y,1/2-z
1/2-x,1/2-y,-z
1/2+x,1/2-y,1/2+z
loop_
_atom_site_type_symbol
_atom_site_label
_atom_site_fract_x
_atom_site_fract_y
_atom_site_fract_z
Si Si1 0.152114 0.051027 0.137113
Si Si2 0.500000 0.795214 0.250000
Si Si3 0.232443 0.692181 0.510943
Si Si4 0.086974 0.777555 0.633862
Si Si5 0.267292 0.154525 0.310358
Si Si6 0.380074 0.549067 0.761054
Si Si7 0.582147 0.350898 0.025695
Si Si8 0.500000 0.205050 0.250000
O O1 0.224255 0.100233 0.294956
O O2 0.178803 0.998261 0.256244
O O3 0.160859 0.049156 0.973844
O O4 0.018316 0.052306 0.966230
O O5 0.448100 0.756756 0.285573
O O6 0.600607 0.830856 0.470036
O O7 0.250000 0.750000 0.500000
O O8 0.270762 0.663115 0.423167
O O9 0.101252 0.677839 0.328089
O O10 0.306392 0.683377 0.779327
O O11 0.206863 0.804300 0.816491
O O12 0.068279 0.741399 0.467726
O O13 0.999232 0.824033 0.486165
O O14 0.365619 0.596659 0.842235
O O15 0.500000 0.354175 0.750000
#
# Coordination Sequence:
#
# PCOD9288637 Si02
#       8
#     8   4   8   8   8   8   8   4
#     4  10  22  39  65  91 128 162 209 268 335 394
#     4  12  26  42  60  99 139 178 232 268 318 394
#     4  12  23  41  63  91 130 177 225 259 324 398
#     4  12  23  38  61  94 136 178 218 269 320 382
#     4  12  23  42  66  93 132 182 219 271 332 395
#     4  10  22  39  62  96 125 161 206 269 336 393
#     4  12  24  38  62  98 135 171 218 269 327 394
#     4  12  24  40  64  87 129 180 224 268 312 384
#
# _framework density 19.653122
#
# number of rings (size 3 to 8) (size 9 to 14) (size 15 to 20)
#    0.000    0.571    7.857    0.429    4.000    1.143 
#    0.000    0.000    0.000    1.714    0.000    0.000 
#    0.000    0.000    0.000    0.000    0.000    0.000 
#
# Total GULP energy -155963.367972 kJ/mol
# GULP energy per Si atom -5570.120285 kJ/mol
# Density = 1.960839 g / cm^3
# Si number density = 19.653122 Si / 1000 Ang^3
#
#
#
# Elastic Constant Matrix: (Units=GPa)
#
#
# Indices 1 2 3 4 5 6 
#
# 1 76.6452 44.5114 32.9074 0.0000 5.5098 0.0000
# 2 44.5114 123.9024 47.4575 0.0000 -12.6829 0.0000
# 3 32.9074 47.4575 94.5046 0.0000 6.8181 0.0000
# 4 0.0000 0.0000 0.0000 22.4667 0.0000 0.5789
# 5 5.5098 -12.6829 6.8181 0.0000 27.1386 0.0000
# 6 0.0000 0.0000 0.0000 0.5789 0.0000 30.9676
#
#
#
# Elastic Compliance Matrix: (Units=1/GPa)
#
#
# Indices 1 2 3 4 5 6 
#
# 1 0.018204 -0.006022 -0.002898 0.000000 -0.005782 0.000000
# 2 -0.006022 0.013062 -0.005083 0.000000 0.008604 0.000000
# 3 -0.002898 -0.005083 0.014536 0.000000 -0.005439 0.000000
# 4 0.000000 0.000000 0.000000 0.044532 0.000000 -0.000832
# 5 -0.005782 0.008604 -0.005439 0.000000 0.043409 0.000000
# 6 0.000000 0.000000 0.000000 -0.000832 0.000000 0.032307
#
#
# Mechanical properties :
#
#
# Convention : Reuss Voigt Hill
#
# Bulk Modulus (GPa) = 56.19198 60.53386 58.36292
# Shear Modulus (GPa) = 25.00165 27.45964 26.23064
#
# Velocity S-wave (km/s) = 3.57059 3.74199 3.65729
# Velocity P-wave (km/s) = 6.75668 7.03832 6.89894
#
# Compressibility (1/GPa) = 0.01779613
#
# Stress axis : x y z
#
# Youngs Moduli (GPa) = 54.93312 76.55910 68.79679
#
# Poissons Ratio (x) = 0.46101 0.19936
# Poissons Ratio (y) = 0.33079 0.34971
# Poissons Ratio (z) = 0.15918 0.38917
#
# Static dielectric constant tensor:
#      x y z
#    x 1.715690 0.000000 0.007790 
#    y 0.000000 1.732290 0.000000 
#    z 0.007790 0.000000 1.732740 
# 
# From -- ./inp_files/52406.got.cif
#   From: 2010.05.17/outbox.cif.g08.bks.cpg/sg15_27_cif.got.tgz:52406.got - 2010.06.03 18:47:42.
