data_PCOD9288754
_publ_section_title
;
Structure prediction by ZEFSAII (Michael W. Deem and Ramdas Pophale) SiO2 
 PCOD9288754
Probable space group: C 2/C
;
_chemical_formula_sum "Si O2"
_cell_formula_units_Z 48
_cell_length_a 12.795099
_cell_length_b 14.090157
_cell_length_c 22.878182
_cell_angle_alpha 90.000000
_cell_angle_beta 33.267127
_cell_angle_gamma 90.000000
_cell_volume 2262.516843
_symmetry_space_group_name_H-M "C 2/C"
_symmetry_group_IT_number 15
_symmetry_cell_setting 'monoclinic'
loop_
_space_group_symop_operation_xyz
x,y,z
-x,y,1/2-z
-x,-y,-z
x,-y,1/2+z
1/2+x,1/2+y,z
1/2-x,1/2+y,1/2-z
1/2-x,1/2-y,-z
1/2+x,1/2-y,1/2+z
loop_
_atom_site_type_symbol
_atom_site_label
_atom_site_fract_x
_atom_site_fract_y
_atom_site_fract_z
Si Si1 0.125055 0.205129 0.916197
Si Si2 0.934379 0.398691 0.006004
Si Si3 0.140458 0.799246 0.228101
Si Si4 0.630525 0.597848 0.553855
Si Si5 0.309231 0.621436 0.486341
Si Si6 0.557304 0.774870 0.324137
O O1 0.142105 0.162253 0.972338
O O2 0.319895 0.191469 0.788431
O O3 0.943466 0.157104 0.967685
O O4 0.093025 0.317687 0.933670
O O5 0.770573 0.363741 0.126444
O O6 0.839384 0.391235 0.985614
O O7 0.000000 0.500000 0.000000
O O8 0.283883 0.744369 0.202722
O O9 0.000000 0.743956 0.250000
O O10 0.015983 0.864918 0.328713
O O11 0.622437 0.485816 0.547817
O O12 0.416353 0.685057 0.387624
O O13 0.081859 0.641081 0.587885
#
# Coordination Sequence:
#
# PCOD9288754 Si02
#       6
#     8   8   8   8   8   8
#     4  11  23  42  66  91 132 169 216 263 329 383
#     4  11  22  38  63  95 126 168 216 267 317 379
#     4   9  19  39  60  89 126 163 214 261 310 382
#     4  10  23  39  65  91 130 170 211 265 322 387
#     4  11  22  41  64  93 132 169 215 266 326 382
#     4  10  22  39  64  93 128 167 216 267 320 383
#
# _framework density 21.215311
#
# number of rings (size 3 to 8) (size 9 to 14) (size 15 to 20)
#    0.000    1.667    1.667    2.500    4.667    0.000 
#    0.000    0.000    0.000    0.000    0.000    0.000 
#    0.000    0.000    0.000    0.000    0.000    0.000 
#
# Total GULP energy -133836.704839 kJ/mol
# GULP energy per Si atom -5576.529368 kJ/mol
# Density = 2.116702 g / cm^3
# Si number density = 21.215311 Si / 1000 Ang^3
#
#
#
# Elastic Constant Matrix: (Units=GPa)
#
#
# Indices 1 2 3 4 5 6 
#
# 1 103.5601 10.9579 24.4761 0.0001 -12.5229 -0.0002
# 2 10.9579 79.9540 1.7819 -0.0003 -13.3049 -0.0002
# 3 24.4761 1.7819 51.7954 -0.0010 -17.8371 -0.0008
# 4 0.0001 -0.0003 -0.0010 5.3671 -0.0004 -0.0419
# 5 -12.5229 -13.3049 -17.8371 -0.0004 26.1361 0.0003
# 6 -0.0002 -0.0002 -0.0008 -0.0419 0.0003 21.6289
#
#
#
# Elastic Compliance Matrix: (Units=1/GPa)
#
#
# Indices 1 2 3 4 5 6 
#
# 1 0.011066 -0.001158 -0.004662 -0.000001 0.001531 0.000000
# 2 -0.001158 0.014042 0.003052 0.000002 0.008676 0.000000
# 3 -0.004662 0.003052 0.027675 0.000007 0.018207 0.000001
# 4 -0.000001 0.000002 0.000007 0.186324 0.000008 0.000361
# 5 0.001531 0.008676 0.018207 0.000008 0.055837 0.000000
# 6 0.000000 0.000000 0.000001 0.000361 0.000000 0.046235
#
#
# Mechanical properties :
#
#
# Convention : Reuss Voigt Hill
#
# Bulk Modulus (GPa) = 21.16579 34.41571 27.79075
# Shear Modulus (GPa) = 13.79449 23.83265 18.81357
#
# Velocity S-wave (km/s) = 2.55270 3.35531 2.98114
# Velocity P-wave (km/s) = 4.32281 5.59179 4.99774
#
# Compressibility (1/GPa) = 0.04724606
#
# Stress axis : x y z
#
# Youngs Moduli (GPa) = 90.36887 71.21673 36.13377
#
# Poissons Ratio (x) = 0.08246 0.16846
# Poissons Ratio (y) = 0.10464 -0.11028
# Poissons Ratio (z) = 0.42131 -0.21735
#
# Static dielectric constant tensor:
#      x y z
#    x 1.899110 0.000000 -0.035410 
#    y 0.000000 1.709890 0.000000 
#    z -0.035410 0.000000 1.765560 
# 
# From -- ./inp_files/296058.got.cif
#   From: 2010.05.17/outbox.cif.g08.bks.cpg/sg15_149_cif.got.tgz:296058.got - 2010.06.03 18:47:42.
