data_PCOD9288832
_publ_section_title
;
Structure prediction by ZEFSAII (Michael W. Deem and Ramdas Pophale) SiO2 
 PCOD9288832
Probable space group: C 2/C
;
_chemical_formula_sum "Si O2"
_cell_formula_units_Z 56
_cell_length_a 18.360250
_cell_length_b 16.118887
_cell_length_c 11.438340
_cell_angle_alpha 90.000000
_cell_angle_beta 124.227082
_cell_angle_gamma 90.000000
_cell_volume 2798.883911
_symmetry_space_group_name_H-M "C 2/C"
_symmetry_group_IT_number 15
_symmetry_cell_setting 'monoclinic'
loop_
_space_group_symop_operation_xyz
x,y,z
-x,y,1/2-z
-x,-y,-z
x,-y,1/2+z
1/2+x,1/2+y,z
1/2-x,1/2+y,1/2-z
1/2-x,1/2-y,-z
1/2+x,1/2-y,1/2+z
loop_
_atom_site_type_symbol
_atom_site_label
_atom_site_fract_x
_atom_site_fract_y
_atom_site_fract_z
Si Si1 0.734585 0.836662 0.044503
Si Si2 0.234496 0.997407 0.030856
Si Si3 0.451956 0.129827 0.006865
Si Si4 0.920920 0.042610 0.274082
Si Si5 0.929495 0.494830 0.277474
Si Si6 0.140285 0.894626 0.139415
Si Si7 0.501812 0.712022 0.112171
O O1 0.632576 0.851223 0.988170
O O2 0.794908 0.849211 0.213099
O O3 0.750000 0.750000 0.000000
O O4 0.771938 0.904407 0.987678
O O5 0.196484 0.956982 0.111762
O O6 0.338457 0.985884 0.126884
O O7 0.174816 0.961015 0.873268
O O8 0.476428 0.210870 0.952397
O O9 0.423341 0.059280 0.888588
O O10 0.533197 0.085878 0.149881
O O11 0.000000 0.039053 0.250000
O O12 0.932577 0.132763 0.342784
O O13 0.925389 0.958202 0.353212
O O14 0.000000 0.460341 0.250000
O O15 0.089767 0.828749 0.013570
O O16 0.500000 0.732945 0.250000
#
# Coordination Sequence:
#
# PCOD9288832 Si02
#       7
#     8   8   8   8   8   8   8
#     4  11  26  43  64 105 138 174 237 286 340 415
#     4  11  22  43  70  95 137 180 232 277 345 418
#     4  11  25  41  67  97 133 182 223 286 344 402
#     4  10  22  39  66 101 133 176 225 276 340 418
#     4  11  23  45  69  94 132 181 235 279 337 413
#     4  11  23  42  68  97 138 183 224 282 353 407
#     4  11  23  42  64 100 139 170 227 279 346 415
#
# _framework density 20.007975999999999
#
# number of rings (size 3 to 8) (size 9 to 14) (size 15 to 20)
#    0.000    1.143    5.714    0.857    4.000    1.143 
#    0.000    4.286    0.000    0.000    0.000    0.000 
#    0.000    0.000    0.000    0.000    0.000    0.000 
#
# Total GULP energy -156159.720763 kJ/mol
# GULP energy per Si atom -5577.132884 kJ/mol
# Density = 1.996244 g / cm^3
# Si number density = 20.007976 Si / 1000 Ang^3
#
#
#
# Elastic Constant Matrix: (Units=GPa)
#
#
# Indices 1 2 3 4 5 6 
#
# 1 93.2832 67.5572 50.1820 0.0000 6.7046 0.0000
# 2 67.5572 138.5378 49.0158 0.0000 -1.9786 0.0000
# 3 50.1820 49.0158 104.4711 0.0000 18.9227 0.0000
# 4 0.0000 0.0000 0.0000 80.8094 0.0000 -24.8023
# 5 6.7046 -1.9786 18.9227 0.0000 39.2681 0.0000
# 6 0.0000 0.0000 0.0000 -24.8023 0.0000 27.7519
#
#
#
# Elastic Compliance Matrix: (Units=1/GPa)
#
#
# Indices 1 2 3 4 5 6 
#
# 1 0.019111 -0.007370 -0.005548 0.000000 -0.000961 0.000000
# 2 -0.007370 0.011751 -0.002529 0.000000 0.003069 0.000000
# 3 -0.005548 -0.002529 0.014544 0.000000 -0.006189 0.000000
# 4 0.000000 0.000000 0.000000 0.017052 0.000000 0.015240
# 5 -0.000961 0.003069 -0.006189 0.000000 0.028767 0.000000
# 6 0.000000 0.000000 0.000000 0.015240 0.000000 0.049654
#
#
# Mechanical properties :
#
#
# Convention : Reuss Voigt Hill
#
# Bulk Modulus (GPa) = 68.90692 74.42245 71.66468
# Shear Modulus (GPa) = 28.31071 40.86836 34.58953
#
# Velocity S-wave (km/s) = 3.76569 4.52442 4.16238
# Velocity P-wave (km/s) = 7.30902 8.03561 7.68091
#
# Compressibility (1/GPa) = 0.01451233
#
# Stress axis : x y z
#
# Youngs Moduli (GPa) = 52.32476 85.09943 68.75480
#
# Poissons Ratio (x) = 0.62722 0.38145
# Poissons Ratio (y) = 0.38565 0.17387
# Poissons Ratio (z) = 0.29029 0.21521
#
# Static dielectric constant tensor:
#      x y z
#    x 1.671040 0.000000 -0.000710 
#    y 0.000000 1.698080 0.000000 
#    z -0.000710 0.000000 1.767240 
# 
# From -- ./inp_files/105786.got.cif
#   From: 2010.05.17/outbox.cif.g08.bks.cpg/sg15_53_cif.got.tgz:105786.got - 2010.06.03 18:47:42.
