data_PCOD9288909
_publ_section_title
;
Structure prediction by ZEFSAII (Michael W. Deem and Ramdas Pophale) SiO2 
 PCOD9288909
Probable space group: C 2/C
;
_chemical_formula_sum "Si O2"
_cell_formula_units_Z 64
_cell_length_a 14.422379
_cell_length_b 13.146528
_cell_length_c 28.097545
_cell_angle_alpha 90.000000
_cell_angle_beta 138.849694
_cell_angle_gamma 90.000000
_cell_volume 3505.632742
_symmetry_space_group_name_H-M "C 2/C"
_symmetry_group_IT_number 15
_symmetry_cell_setting 'monoclinic'
loop_
_space_group_symop_operation_xyz
x,y,z
-x,y,1/2-z
-x,-y,-z
x,-y,1/2+z
1/2+x,1/2+y,z
1/2-x,1/2+y,1/2-z
1/2-x,1/2-y,-z
1/2+x,1/2-y,1/2+z
loop_
_atom_site_type_symbol
_atom_site_label
_atom_site_fract_x
_atom_site_fract_y
_atom_site_fract_z
Si Si1 0.951049 0.248711 0.809825
Si Si2 0.768740 0.253566 0.642616
Si Si3 0.696189 0.754248 0.531769
Si Si4 0.171805 0.568121 0.175317
Si Si5 0.979554 0.080646 0.450831
Si Si6 0.126692 0.125656 0.332653
Si Si7 0.044149 0.421961 0.058216
Si Si8 0.450000 0.513253 0.834522
O O1 0.842860 0.249508 0.723197
O O2 0.902692 0.336163 0.828103
O O3 0.106156 0.266262 0.847305
O O4 0.951189 0.135384 0.831953
O O5 0.657906 0.346535 0.597874
O O6 0.682338 0.148055 0.602092
O O7 0.750000 0.750000 0.500000
O O8 0.613810 0.652343 0.509540
O O9 0.821078 0.782697 0.615057
O O10 0.583850 0.844355 0.489969
O O11 0.248639 0.595239 0.155007
O O12 0.066092 0.480428 0.116714
O O13 0.297280 0.525970 0.257134
O O14 0.976866 0.029222 0.397656
O O15 0.000000 0.000000 0.500000
O O16 0.000000 0.157675 0.250000
O O17 0.065375 0.035672 0.342627
O O18 0.000000 0.500000 0.000000
#
# Coordination Sequence:
#
# PCOD9288909 Si02
#       8
#     8   8   8   8   8   8   8   8
#     4  11  23  38  70  92 128 161 219 264 311 378
#     4  10  23  43  62  95 125 173 206 258 325 374
#     4  11  23  41  63  91 127 171 208 254 325 381
#     4  11  22  40  64  98 122 162 217 263 309 372
#     4  11  25  43  65  90 138 172 205 256 330 397
#     4  10  22  39  67  92 123 156 222 268 306 369
#     4  11  22  38  64  91 128 160 210 262 307 370
#     4  11  22  41  67  94 124 171 211 265 317 375
#
# _framework density 18.256333000000001
#
# number of rings (size 3 to 8) (size 9 to 14) (size 15 to 20)
#    0.000    1.250    5.000    0.750    5.250    1.000 
#    0.000    1.250    2.750    0.000    0.000    0.000 
#    0.000    0.000    0.000    0.000    0.000    0.000 
#
# Total GULP energy -178601.125302 kJ/mol
# GULP energy per Si atom -5581.285166 kJ/mol
# Density = 1.821478 g / cm^3
# Si number density = 18.256333 Si / 1000 Ang^3
#
#
#
# Elastic Constant Matrix: (Units=GPa)
#
#
# Indices 1 2 3 4 5 6 
#
# 1 105.7837 76.6404 42.4902 0.0000 -5.4117 0.0000
# 2 76.6404 148.2054 55.9811 0.0000 -10.6584 0.0000
# 3 42.4902 55.9811 97.3558 0.0000 -16.3617 0.0000
# 4 0.0000 0.0000 0.0000 28.7297 0.0000 -18.5940
# 5 -5.4117 -10.6584 -16.3617 0.0000 26.1907 0.0000
# 6 0.0000 0.0000 0.0000 -18.5940 0.0000 21.7563
#
#
#
# Elastic Compliance Matrix: (Units=1/GPa)
#
#
# Indices 1 2 3 4 5 6 
#
# 1 0.015743 -0.007101 -0.003046 0.000000 -0.001540 0.000000
# 2 -0.007101 0.011827 -0.003508 0.000000 0.001155 0.000000
# 3 -0.003046 -0.003508 0.014830 0.000000 0.007207 0.000000
# 4 0.000000 0.000000 0.000000 0.077892 0.000000 0.066570
# 5 -0.001540 0.001155 0.007207 0.000000 0.042836 0.000000
# 6 0.000000 0.000000 0.000000 0.066570 0.000000 0.102858
#
#
# Mechanical properties :
#
#
# Convention : Reuss Voigt Hill
#
# Bulk Modulus (GPa) = 66.27202 77.95203 72.11203
# Shear Modulus (GPa) = 16.76024 27.08421 21.92223
#
# Velocity S-wave (km/s) = 3.03322 3.85587 3.46902
# Velocity P-wave (km/s) = 6.97473 7.91296 7.45861
#
# Compressibility (1/GPa) = 0.01508932
#
# Stress axis : x y z
#
# Youngs Moduli (GPa) = 63.52096 84.54881 67.43314
#
# Poissons Ratio (x) = 0.60038 0.20543
# Poissons Ratio (y) = 0.45106 0.23654
# Poissons Ratio (z) = 0.19352 0.29658
#
# Static dielectric constant tensor:
#      x y z
#    x 1.627760 0.000000 0.022720 
#    y 0.000000 1.630090 0.000000 
#    z 0.022720 0.000000 1.631140 
# 
# From -- ./inp_files/296145.got.cif
#   From: 2010.05.17/outbox.cif.g08.bks.cpg/sg15_149_cif.got.tgz:296145.got - 2010.06.03 18:47:42.
