data_PCOD9288011
_publ_section_title
;
Structure prediction by ZEFSAII (Michael W. Deem and Ramdas Pophale) SiO2 
 PCOD9288011
Probable space group: C 2/C
;
_chemical_formula_sum "Si O2"
_cell_formula_units_Z 40
_cell_length_a 16.214419
_cell_length_b 14.862514
_cell_length_c 16.500535
_cell_angle_alpha 90.000000
_cell_angle_beta 153.950345
_cell_angle_gamma 90.000000
_cell_volume 1746.242274
_symmetry_space_group_name_H-M "C 2/C"
_symmetry_group_IT_number 15
_symmetry_cell_setting 'monoclinic'
loop_
_space_group_symop_operation_xyz
x,y,z
-x,y,1/2-z
-x,-y,-z
x,-y,1/2+z
1/2+x,1/2+y,z
1/2-x,1/2+y,1/2-z
1/2-x,1/2-y,-z
1/2+x,1/2-y,1/2+z
loop_
_atom_site_type_symbol
_atom_site_label
_atom_site_fract_x
_atom_site_fract_y
_atom_site_fract_z
Si Si1 0.854759 0.869403 0.517768
Si Si2 0.500000 0.769674 0.250000
Si Si3 0.750000 0.250000 0.500000
Si Si4 0.129580 0.926615 0.479527
Si Si5 0.777177 0.154673 0.760946
Si Si6 0.057177 0.340530 0.645217
O O1 0.677180 0.834159 0.411420
O O2 0.803401 0.860788 0.378552
O O3 0.011899 0.797818 0.683790
O O4 0.892916 0.972484 0.569958
O O5 0.823136 0.148515 0.545184
O O6 0.928093 0.292683 0.600589
O O7 0.309389 0.915761 0.698471
O O8 0.942763 0.898386 0.361922
O O9 0.578731 0.128926 0.546415
O O10 0.808184 0.259992 0.766479
#
# Coordination Sequence:
#
# PCOD9288011 Si02
#       6
#     8   4   4   8   8   8
#     4  11  25  49  68  97 131 177 238 284 342 407
#     4  10  26  48  72  90 126 184 232 294 340 388
#     4  10  22  38  62 100 146 164 216 266 334 424
#     4  11  25  41  69 104 139 180 221 280 347 411
#     4  11  22  42  66 101 138 179 223 276 337 411
#     4  11  22  38  67 102 138 186 212 272 346 395
#
# _framework density 22.906330000000001
#
# number of rings (size 3 to 8) (size 9 to 14) (size 15 to 20)
#    0.000    1.200    4.000    2.400    5.600    2.400 
#    3.600    0.000    0.000    0.000    0.000    0.000 
#    0.000    0.000    0.000    0.000    0.000    0.000 
#
# Total GULP energy -111393.409184 kJ/mol
# GULP energy per Si atom -5569.670459 kJ/mol
# Density = 2.285419 g / cm^3
# Si number density = 22.906330 Si / 1000 Ang^3
#
#
#
# Elastic Constant Matrix: (Units=GPa)
#
#
# Indices 1 2 3 4 5 6 
#
# 1 39.2439 30.1055 10.4583 -0.0060 -14.7511 -0.0028
# 2 30.1055 119.3192 6.2350 0.0024 -4.2861 -0.0008
# 3 10.4583 6.2350 120.4119 0.0072 -16.8986 -0.0003
# 4 -0.0060 0.0024 0.0072 15.8678 0.0004 -1.9492
# 5 -14.7511 -4.2861 -16.8986 0.0004 34.4692 -0.0017
# 6 -0.0028 -0.0008 -0.0003 -1.9492 -0.0017 12.2575
#
#
#
# Elastic Compliance Matrix: (Units=1/GPa)
#
#
# Indices 1 2 3 4 5 6 
#
# 1 0.038230 -0.009072 -0.000766 0.000017 0.014857 0.000013
# 2 -0.009072 0.010582 -0.000129 -0.000005 -0.002630 -0.000003
# 3 -0.000766 -0.000129 0.008945 -0.000004 0.004042 0.000000
# 4 0.000017 -0.000005 -0.000004 0.064276 0.000004 0.010221
# 5 0.014857 -0.002630 0.004042 0.000004 0.037024 0.000009
# 6 0.000013 -0.000003 0.000000 0.010221 0.000009 0.083208
#
#
# Mechanical properties :
#
#
# Convention : Reuss Voigt Hill
#
# Bulk Modulus (GPa) = 26.43856 41.39696 33.91776
# Shear Modulus (GPa) = 18.19457 27.99730 23.09594
#
# Velocity S-wave (km/s) = 2.82140 3.49986 3.17878
# Velocity P-wave (km/s) = 4.70965 5.86887 5.32092
#
# Compressibility (1/GPa) = 0.03782354
#
# Stress axis : x y z
#
# Youngs Moduli (GPa) = 26.15761 94.49874 111.79152
#
# Poissons Ratio (x) = 0.85730 0.08559
# Poissons Ratio (y) = 0.23730 0.01443
# Poissons Ratio (z) = 0.02003 0.01220
#
# Static dielectric constant tensor:
#      x y z
#    x 1.854750 0.000000 -0.072860 
#    y 0.000000 1.778580 0.000000 
#    z -0.072860 0.000000 2.042100 
# 
# From -- ./inp_files/210839.got.cif
#   From: 2010.05.17/outbox.cif.g08.bks.cpg/sg15_106_cif.got.tgz:210839.got - 2010.06.03 18:47:42.
