data_PCOD9288328
_publ_section_title
;
Structure prediction by ZEFSAII (Michael W. Deem and Ramdas Pophale) SiO2 
 PCOD9288328
Probable space group: C 2/C
;
_chemical_formula_sum "Si O2"
_cell_formula_units_Z 52
_cell_length_a 13.736861
_cell_length_b 16.729781
_cell_length_c 12.724723
_cell_angle_alpha 90.000000
_cell_angle_beta 64.492865
_cell_angle_gamma 90.000000
_cell_volume 2639.298708
_symmetry_space_group_name_H-M "C 2/C"
_symmetry_group_IT_number 15
_symmetry_cell_setting 'monoclinic'
loop_
_space_group_symop_operation_xyz
x,y,z
-x,y,1/2-z
-x,-y,-z
x,-y,1/2+z
1/2+x,1/2+y,z
1/2-x,1/2+y,1/2-z
1/2-x,1/2-y,-z
1/2+x,1/2-y,1/2+z
loop_
_atom_site_type_symbol
_atom_site_label
_atom_site_fract_x
_atom_site_fract_y
_atom_site_fract_z
Si Si1 0.351463 0.558503 0.508524
Si Si2 0.597372 0.394367 0.901879
Si Si3 0.827646 0.272267 0.059756
Si Si4 0.500000 0.148724 0.750000
Si Si5 0.262354 0.800338 0.319702
Si Si6 0.496019 0.093693 0.990958
Si Si7 0.235838 0.373099 0.865491
O O1 0.359821 0.467837 0.546285
O O2 0.474500 0.585354 0.428021
O O3 0.300341 0.620202 0.616852
O O4 0.276419 0.572488 0.442494
O O5 0.600861 0.307380 0.954103
O O6 0.678491 0.386995 0.766364
O O7 0.755699 0.286584 0.197777
O O8 0.905780 0.349811 0.015909
O O9 0.750000 0.250000 0.000000
O O10 0.610556 0.194852 0.715930
O O11 0.484502 0.106767 0.870140
O O12 0.229222 0.720708 0.395839
O O13 0.387329 0.111995 0.105133
O O14 0.500000 0.000000 0.000000
#
# Coordination Sequence:
#
# PCOD9288328 Si02
#       7
#     8   8   8   4   8   8   8
#     4  11  22  40  66  92 128 167 221 279 324 401
#     4  10  25  40  61  95 126 171 221 263 340 397
#     4  10  24  44  63  92 139 176 207 268 336 406
#     4  10  22  40  64 100 122 170 210 282 318 388
#     4  10  22  38  68  94 127 165 221 269 330 389
#     4  11  25  41  67  99 130 172 225 271 333 395
#     4  11  23  39  66  93 126 167 216 285 325 385
#
# _framework density 19.702202
#
# number of rings (size 3 to 8) (size 9 to 14) (size 15 to 20)
#    0.000    1.538    1.538    1.846   12.923    0.000 
#    2.769    5.385    0.000    0.000    0.000    0.000 
#    0.000    0.000    0.000    0.000    0.000    0.000 
#
# Total GULP energy -144948.032898 kJ/mol
# GULP energy per Si atom -5574.924342 kJ/mol
# Density = 1.965736 g / cm^3
# Si number density = 19.702202 Si / 1000 Ang^3
#
#
#
# Elastic Constant Matrix: (Units=GPa)
#
#
# Indices 1 2 3 4 5 6 
#
# 1 77.2816 27.7490 31.6124 0.0000 2.1560 0.0000
# 2 27.7490 125.9583 16.3108 0.0000 -7.7867 0.0000
# 3 31.6124 16.3108 55.8681 0.0000 -3.2421 0.0000
# 4 0.0000 0.0000 0.0000 50.0204 0.0000 1.3669
# 5 2.1560 -7.7867 -3.2421 0.0000 37.0247 0.0000
# 6 0.0000 0.0000 0.0000 1.3669 0.0000 19.8933
#
#
#
# Elastic Compliance Matrix: (Units=1/GPa)
#
#
# Indices 1 2 3 4 5 6 
#
# 1 0.017899 -0.002875 -0.009432 0.000000 -0.002473 0.000000
# 2 -0.002875 0.008800 -0.000830 0.000000 0.001946 0.000000
# 3 -0.009432 -0.000830 0.023620 0.000000 0.002443 0.000000
# 4 0.000000 0.000000 0.000000 0.020029 0.000000 -0.001376
# 5 -0.002473 0.001946 0.002443 0.000000 0.027776 0.000000
# 6 0.000000 0.000000 0.000000 -0.001376 0.000000 0.050363
#
#
# Mechanical properties :
#
#
# Convention : Reuss Voigt Hill
#
# Bulk Modulus (GPa) = 41.58625 45.60584 43.59605
# Shear Modulus (GPa) = 27.35575 33.61674 30.48624
#
# Velocity S-wave (km/s) = 3.73025 4.13515 3.93791
# Velocity P-wave (km/s) = 6.30129 6.78212 6.54612
#
# Compressibility (1/GPa) = 0.02404641
#
# Stress axis : x y z
#
# Youngs Moduli (GPa) = 55.86846 113.63443 42.33619
#
# Poissons Ratio (x) = 0.32666 0.39933
# Poissons Ratio (y) = 0.16060 0.03513
# Poissons Ratio (z) = 0.52697 0.09428
#
# Static dielectric constant tensor:
#      x y z
#    x 1.737470 0.000000 -0.030370 
#    y 0.000000 1.687340 0.000000 
#    z -0.030370 0.000000 1.457910 
# 
# From -- ./inp_files/144172.got.cif
#   From: 2010.05.17/outbox.cif.g08.bks.cpg/sg15_73_cif.got.tgz:144172.got - 2010.06.03 18:47:42.
