data_PCOD9288508
_publ_section_title
;
Structure prediction by ZEFSAII (Michael W. Deem and Ramdas Pophale) SiO2 
 PCOD9288508
Probable space group: C 2/C
;
_chemical_formula_sum "Si O2"
_cell_formula_units_Z 64
_cell_length_a 12.257455
_cell_length_b 22.802618
_cell_length_c 11.475323
_cell_angle_alpha 90.000000
_cell_angle_beta 85.858901
_cell_angle_gamma 90.000000
_cell_volume 3199.002775
_symmetry_space_group_name_H-M "C 2/C"
_symmetry_group_IT_number 15
_symmetry_cell_setting 'monoclinic'
loop_
_space_group_symop_operation_xyz
x,y,z
-x,y,1/2-z
-x,-y,-z
x,-y,1/2+z
1/2+x,1/2+y,z
1/2-x,1/2+y,1/2-z
1/2-x,1/2-y,-z
1/2+x,1/2-y,1/2+z
loop_
_atom_site_type_symbol
_atom_site_label
_atom_site_fract_x
_atom_site_fract_y
_atom_site_fract_z
Si Si1 0.001399 0.628318 0.612156
Si Si2 0.919609 0.736813 0.033637
Si Si3 0.303186 0.328976 0.879542
Si Si4 0.380793 0.279811 0.371947
Si Si5 0.869514 0.899981 0.260192
Si Si6 0.733736 0.931630 0.042382
Si Si7 0.212556 0.565808 0.975427
Si Si8 0.284591 0.672492 0.117649
O O1 0.898031 0.589852 0.578000
O O2 0.000000 0.639309 0.750000
O O3 0.007834 0.689480 0.542388
O O4 0.115446 0.596294 0.577108
O O5 0.814119 0.703499 0.092920
O O6 0.993395 0.762464 0.129607
O O7 0.882138 0.788794 0.951287
O O8 0.335636 0.331175 0.741911
O O9 0.287616 0.393644 0.934316
O O10 0.347783 0.330847 0.285395
O O11 0.357897 0.306767 0.503375
O O12 0.307886 0.222376 0.365079
O O13 0.811855 0.921720 0.147525
O O14 0.810051 0.929857 0.374011
O O15 0.000000 0.908698 0.250000
O O16 0.711411 0.999168 0.016683
O O17 0.235708 0.610379 0.079994
#
# Coordination Sequence:
#
# PCOD9288508 Si02
#       8
#     8   8   8   8   8   8   8   8
#     4  11  22  40  69 102 132 176 214 270 351 403
#     4  10  22  39  60  97 136 164 216 265 333 404
#     4  10  24  38  60  98 129 176 210 270 330 396
#     4  10  22  39  62  92 129 167 213 267 329 400
#     4  11  25  43  70  94 125 182 224 274 339 396
#     4  11  25  44  69  95 135 174 229 275 331 408
#     4  11  24  46  67  98 131 174 228 279 331 400
#     4  10  23  38  63  94 128 166 214 267 332 385
#
# _framework density 20.006233999999999
#
# number of rings (size 3 to 8) (size 9 to 14) (size 15 to 20)
#    0.000    1.500    2.500    1.125   10.500    0.500 
#    0.000    0.000    0.000    0.000    0.000    0.000 
#    0.000    0.000    0.000    0.000    0.000    0.000 
#
# Total GULP energy -178838.152657 kJ/mol
# GULP energy per Si atom -5588.692271 kJ/mol
# Density = 1.996070 g / cm^3
# Si number density = 20.006234 Si / 1000 Ang^3
#
#
#
# Elastic Constant Matrix: (Units=GPa)
#
#
# Indices 1 2 3 4 5 6 
#
# 1 76.9392 17.4378 19.7015 0.0000 8.0317 0.0000
# 2 17.4378 111.1847 47.5756 0.0000 1.6519 0.0000
# 3 19.7015 47.5756 121.5801 0.0000 7.1392 0.0000
# 4 0.0000 0.0000 0.0000 17.0730 0.0000 0.6248
# 5 8.0317 1.6519 7.1392 0.0000 26.1255 0.0000
# 6 0.0000 0.0000 0.0000 0.6248 0.0000 9.7497
#
#
#
# Elastic Compliance Matrix: (Units=1/GPa)
#
#
# Indices 1 2 3 4 5 6 
#
# 1 0.014120 -0.001531 -0.001463 0.000000 -0.003844 0.000000
# 2 -0.001531 0.010975 -0.004099 0.000000 0.000897 0.000000
# 3 -0.001463 -0.004099 0.010188 0.000000 -0.002075 0.000000
# 4 0.000000 0.000000 0.000000 0.058710 0.000000 -0.003762
# 5 -0.003844 0.000897 -0.002075 0.000000 0.039969 0.000000
# 6 0.000000 0.000000 0.000000 -0.003762 0.000000 0.102808
#
#
# Mechanical properties :
#
#
# Convention : Reuss Voigt Hill
#
# Bulk Modulus (GPa) = 47.40253 53.23710 50.31981
# Shear Modulus (GPa) = 19.38066 25.58892 22.48479
#
# Velocity S-wave (km/s) = 3.11582 3.58026 3.35608
# Velocity P-wave (km/s) = 6.05721 6.61506 6.34227
#
# Compressibility (1/GPa) = 0.02109592
#
# Stress axis : x y z
#
# Youngs Moduli (GPa) = 70.81990 91.11710 98.15470
#
# Poissons Ratio (x) = 0.13954 0.14361
# Poissons Ratio (y) = 0.10845 0.40235
# Poissons Ratio (z) = 0.10362 0.37350
#
# Static dielectric constant tensor:
#      x y z
#    x 1.716320 0.000000 -0.033800 
#    y 0.000000 1.682690 0.000000 
#    z -0.033800 0.000000 1.716920 
# 
# From -- ./inp_files/90865.got.cif
#   From: 2010.05.17/outbox.cif.g08.bks.cpg/sg15_46_cif.got.tgz:90865.got - 2010.06.03 18:47:42.
