data_PCOD9288133
_publ_section_title
;
Structure prediction by ZEFSAII (Michael W. Deem and Ramdas Pophale) SiO2 
 PCOD9288133
Probable space group: C 2/C
;
_chemical_formula_sum "Si O2"
_cell_formula_units_Z 40
_cell_length_a 9.170533
_cell_length_b 23.769700
_cell_length_c 8.488285
_cell_angle_alpha 90.000000
_cell_angle_beta 97.298860
_cell_angle_gamma 90.000000
_cell_volume 1835.290410
_symmetry_space_group_name_H-M "C 2/C"
_symmetry_group_IT_number 15
_symmetry_cell_setting 'monoclinic'
loop_
_space_group_symop_operation_xyz
x,y,z
-x,y,1/2-z
-x,-y,-z
x,-y,1/2+z
1/2+x,1/2+y,z
1/2-x,1/2+y,1/2-z
1/2-x,1/2-y,-z
1/2+x,1/2-y,1/2+z
loop_
_atom_site_type_symbol
_atom_site_label
_atom_site_fract_x
_atom_site_fract_y
_atom_site_fract_z
Si Si1 0.767932 0.167541 0.775527
Si Si2 0.500000 0.252977 0.250000
Si Si3 0.000000 0.258387 0.250000
Si Si4 0.772886 0.820349 0.898132
Si Si5 0.167711 0.569646 0.227602
Si Si6 0.338630 0.948346 0.145622
O O1 0.624648 0.198123 0.829476
O O2 0.770387 0.171011 0.585269
O O3 0.764484 0.102222 0.812631
O O4 0.906475 0.204490 0.846548
O O5 0.377443 0.213346 0.158466
O O6 0.904126 0.218169 0.349199
O O7 0.765534 0.878831 0.801829
O O8 0.210137 0.510923 0.315543
O O9 0.000000 0.583341 0.250000
O O10 0.158912 0.558494 0.040975
O O11 0.500000 0.940787 0.250000
#
# Coordination Sequence:
#
# PCOD9288133 Si02
#       6
#     8   4   4   8   8   8
#     4  11  23  41  63  94 129 164 209 259 306 369
#     4  10  22  38  64  90 128 166 206 250 306 364
#     4  10  22  38  64  90 128 166 206 250 306 364
#     4  11  23  41  63  94 129 164 209 259 306 369
#     4  11  22  38  63  91 123 161 206 256 309 368
#     4  11  22  38  63  91 123 161 206 256 309 368
#
# _framework density 21.794917999999999
#
# number of rings (size 3 to 8) (size 9 to 14) (size 15 to 20)
#    0.000    1.200    2.000    7.200    0.000    4.800 
#    0.000   11.000    0.000    4.800    0.000    0.000 
#    0.000    0.000    0.000    0.000    0.000    0.000 
#
# Total GULP energy -111766.858817 kJ/mol
# GULP energy per Si atom -5588.342941 kJ/mol
# Density = 2.174531 g / cm^3
# Si number density = 21.794918 Si / 1000 Ang^3
#
#
#
# Elastic Constant Matrix: (Units=GPa)
#
#
# Indices 1 2 3 4 5 6 
#
# 1 97.5724 29.2802 11.3838 0.0000 0.5414 0.0000
# 2 29.2802 162.3992 29.8620 0.0000 4.2875 0.0000
# 3 11.3838 29.8620 109.9174 0.0000 2.9339 0.0000
# 4 0.0000 0.0000 0.0000 33.6599 0.0000 -8.2162
# 5 0.5414 4.2875 2.9339 0.0000 22.1582 0.0000
# 6 0.0000 0.0000 0.0000 -8.2162 0.0000 28.3010
#
#
#
# Elastic Compliance Matrix: (Units=1/GPa)
#
#
# Indices 1 2 3 4 5 6 
#
# 1 0.010876 -0.001850 -0.000628 0.000000 0.000175 0.000000
# 2 -0.001850 0.006819 -0.001633 0.000000 -0.001058 0.000000
# 3 -0.000628 -0.001633 0.009632 0.000000 -0.000944 0.000000
# 4 0.000000 0.000000 0.000000 0.031975 0.000000 0.009283
# 5 0.000175 -0.001058 -0.000944 0.000000 0.045455 0.000000
# 6 0.000000 0.000000 0.000000 0.009283 0.000000 0.038029
#
#
# Mechanical properties :
#
#
# Convention : Reuss Voigt Hill
#
# Bulk Modulus (GPa) = 52.34333 56.77122 54.55728
# Shear Modulus (GPa) = 31.77066 36.78137 34.27602
#
# Velocity S-wave (km/s) = 3.82214 4.11251 3.96998
# Velocity P-wave (km/s) = 6.59900 6.97530 6.78976
#
# Compressibility (1/GPa) = 0.01910463
#
# Stress axis : x y z
#
# Youngs Moduli (GPa) = 91.94287 146.64038 103.82462
#
# Poissons Ratio (x) = 0.27129 0.06525
# Poissons Ratio (y) = 0.17010 0.16953
# Poissons Ratio (z) = 0.05779 0.23944
#
# Static dielectric constant tensor:
#      x y z
#    x 1.808890 0.000000 0.001070 
#    y 0.000000 1.797110 0.000000 
#    z 0.001070 0.000000 1.822830 
# 
# From -- ./inp_files/23538.got.cif
#   From: 2010.05.17/outbox.cif.g08.bks.cpg/sg15_12_cif.got.tgz:23538.got - 2010.06.03 18:47:42.
