data_PCOD9288040
_publ_section_title
;
Structure prediction by ZEFSAII (Michael W. Deem and Ramdas Pophale) SiO2 
 PCOD9288040
Probable space group: C 2/C
;
_chemical_formula_sum "Si O2"
_cell_formula_units_Z 56
_cell_length_a 30.294998
_cell_length_b 5.338920
_cell_length_c 16.724761
_cell_angle_alpha 90.000000
_cell_angle_beta 70.850923
_cell_angle_gamma 90.000000
_cell_volume 2555.427694
_symmetry_space_group_name_H-M "C 2/C"
_symmetry_group_IT_number 15
_symmetry_cell_setting 'monoclinic'
loop_
_space_group_symop_operation_xyz
x,y,z
-x,y,1/2-z
-x,-y,-z
x,-y,1/2+z
1/2+x,1/2+y,z
1/2-x,1/2+y,1/2-z
1/2-x,1/2-y,-z
1/2+x,1/2-y,1/2+z
loop_
_atom_site_type_symbol
_atom_site_label
_atom_site_fract_x
_atom_site_fract_y
_atom_site_fract_z
Si Si1 0.048178 0.537101 0.198840
Si Si2 0.552261 0.347877 0.844596
Si Si3 0.305446 0.966230 0.014974
Si Si4 0.618548 0.035544 0.394896
Si Si5 0.532712 0.818331 0.033452
Si Si6 0.199010 0.038775 0.086221
Si Si7 0.374044 0.290832 0.264962
O O1 0.046026 0.320349 0.268215
O O2 0.100146 0.646443 0.179001
O O3 0.000000 0.686857 0.250000
O O4 0.954903 0.453049 0.390525
O O5 0.586003 0.191639 0.883655
O O6 0.502540 0.397891 0.915515
O O7 0.580242 0.584424 0.800074
O O8 0.343817 0.971456 0.060986
O O9 0.253236 0.022857 0.079182
O O10 0.312027 0.195561 0.948319
O O11 0.306038 0.694995 0.972284
O O12 0.580863 0.224991 0.458558
O O13 0.643712 0.130280 0.299110
O O14 0.500000 0.000000 0.000000
O O15 0.163513 0.980748 0.178800
#
# Coordination Sequence:
#
# PCOD9288040 Si02
#       7
#     8   8   8   8   8   8   8
#     4   9  19  37  57  84 124 169 217 262 319 385
#     4   9  21  37  56  88 126 164 216 260 322 382
#     4  10  23  47  68 100 125 173 221 271 325 397
#     4  10  22  38  62  91 128 166 217 266 325 381
#     4   9  18  37  58  82 124 169 207 271 309 387
#     4  10  24  44  71  94 134 169 218 270 332 391
#     4  11  23  38  60  95 126 173 212 276 326 396
#
# _framework density 21.91414
#
# number of rings (size 3 to 8) (size 9 to 14) (size 15 to 20)
#    0.000    2.286    0.000    1.714    8.000    2.286 
#    2.571    0.000    0.000    0.000    0.000    0.000 
#    0.000    0.000    0.000    0.000    0.000    0.000 
#
# Total GULP energy -156226.097543 kJ/mol
# GULP energy per Si atom -5579.503484 kJ/mol
# Density = 2.186426 g / cm^3
# Si number density = 21.914140 Si / 1000 Ang^3
#
#
#
# Elastic Constant Matrix: (Units=GPa)
#
#
# Indices 1 2 3 4 5 6 
#
# 1 134.1759 8.5308 57.5387 0.0000 18.5669 0.0000
# 2 8.5308 33.9110 -0.0144 0.0000 0.9810 0.0000
# 3 57.5387 -0.0144 94.7077 0.0000 -1.1938 0.0000
# 4 0.0000 0.0000 0.0000 30.4109 0.0000 -14.0100
# 5 18.5669 0.9810 -1.1938 0.0000 25.0502 0.0000
# 6 0.0000 0.0000 0.0000 -14.0100 0.0000 9.5981
#
#
#
# Elastic Compliance Matrix: (Units=1/GPa)
#
#
# Indices 1 2 3 4 5 6 
#
# 1 0.012112 -0.002783 -0.007475 0.000000 -0.009224 0.000000
# 2 -0.002783 0.030162 0.001708 0.000000 0.000963 0.000000
# 3 -0.007475 0.001708 0.015179 0.000000 0.006197 0.000000
# 4 0.000000 0.000000 0.000000 0.100391 0.000000 0.146538
# 5 -0.009224 0.000963 0.006197 0.000000 0.047014 0.000000
# 6 0.000000 0.000000 0.000000 0.146538 0.000000 0.318082
#
#
# Mechanical properties :
#
#
# Convention : Reuss Voigt Hill
#
# Bulk Modulus (GPa) = 24.78250 43.87831 34.33040
# Shear Modulus (GPa) = 9.03355 26.12780 17.58067
#
# Velocity S-wave (km/s) = 2.03253 3.45669 2.83548
# Velocity P-wave (km/s) = 4.10387 5.99982 5.14002
#
# Compressibility (1/GPa) = 0.04035106
#
# Stress axis : x y z
#
# Youngs Moduli (GPa) = 82.56357 33.15428 65.88210
#
# Poissons Ratio (x) = 0.09228 0.49248
# Poissons Ratio (y) = 0.22979 -0.11250
# Poissons Ratio (z) = 0.61717 -0.05662
#
# Static dielectric constant tensor:
#      x y z
#    x 1.820310 0.000000 0.016380 
#    y 0.000000 1.915000 0.000000 
#    z 0.016380 0.000000 1.864790 
# 
# From -- ./inp_files/223823.got.cif
#   From: 2010.05.17/outbox.cif.g08.bks.cpg/sg15_112_cif.got.tgz:223823.got - 2010.06.03 18:47:42.
