data_PCOD9288203
_publ_section_title
;
Structure prediction by ZEFSAII (Michael W. Deem and Ramdas Pophale) SiO2 
 PCOD9288203
Probable space group: C 2/C
;
_chemical_formula_sum "Si O2"
_cell_formula_units_Z 40
_cell_length_a 17.422013
_cell_length_b 6.850408
_cell_length_c 19.413574
_cell_angle_alpha 90.000000
_cell_angle_beta 126.493232
_cell_angle_gamma 90.000000
_cell_volume 1862.674399
_symmetry_space_group_name_H-M "C 2/C"
_symmetry_group_IT_number 15
_symmetry_cell_setting 'monoclinic'
loop_
_space_group_symop_operation_xyz
x,y,z
-x,y,1/2-z
-x,-y,-z
x,-y,1/2+z
1/2+x,1/2+y,z
1/2-x,1/2+y,1/2-z
1/2-x,1/2-y,-z
1/2+x,1/2-y,1/2+z
loop_
_atom_site_type_symbol
_atom_site_label
_atom_site_fract_x
_atom_site_fract_y
_atom_site_fract_z
Si Si1 0.340185 0.380871 0.030097
Si Si2 0.395949 0.572500 0.200136
Si Si3 0.833624 0.892965 0.874125
Si Si4 0.789873 0.449222 0.820553
Si Si5 0.451293 0.665934 0.859645
O O1 0.324633 0.469581 0.946504
O O2 0.250000 0.250000 0.000000
O O3 0.363306 0.521891 0.105887
O O4 0.440518 0.265880 0.078041
O O5 0.500000 0.677327 0.250000
O O6 0.298948 0.643403 0.184746
O O7 0.421769 0.387726 0.265086
O O8 0.818002 0.659626 0.866016
O O9 0.754450 0.973580 0.779326
O O10 0.932196 0.963688 0.891293
O O11 0.881625 0.317010 0.858975
#
# Coordination Sequence:
#
# PCOD9288203 Si02
#       5
#     8   8   8   8   8
#     4  11  20  38  61  89 118 156 190 242 299 338
#     4   9  19  36  60  84 118 154 185 238 297 338
#     4  11  21  37  63  85 116 153 197 239 282 348
#     4  11  19  38  64  85 112 158 198 235 285 352
#     4  10  22  38  65  85 115 157 198 232 292 352
#
# _framework density 21.474498000000001
#
# number of rings (size 3 to 8) (size 9 to 14) (size 15 to 20)
#    0.000    1.600    6.000    0.600    0.000    0.800 
#    0.000    1.000   13.200    7.200    0.000    0.000 
#    0.000    0.000    0.000    0.000    0.000    0.000 
#
# Total GULP energy -111415.090953 kJ/mol
# GULP energy per Si atom -5570.754548 kJ/mol
# Density = 2.142562 g / cm^3
# Si number density = 21.474498 Si / 1000 Ang^3
#
#
#
# Elastic Constant Matrix: (Units=GPa)
#
#
# Indices 1 2 3 4 5 6 
#
# 1 185.1151 31.0180 50.4019 0.0000 12.8466 0.0000
# 2 31.0180 35.7766 -4.3967 0.0000 1.5683 0.0000
# 3 50.4019 -4.3967 125.3320 0.0000 -28.1406 0.0000
# 4 0.0000 0.0000 0.0000 13.9308 0.0000 4.7158
# 5 12.8466 1.5683 -28.1406 0.0000 51.5105 0.0000
# 6 0.0000 0.0000 0.0000 4.7158 0.0000 24.7505
#
#
#
# Elastic Compliance Matrix: (Units=1/GPa)
#
#
# Indices 1 2 3 4 5 6 
#
# 1 0.008176 -0.007455 -0.004509 0.000000 -0.004276 0.000000
# 2 -0.007455 0.034876 0.005016 0.000000 0.003538 0.000000
# 3 -0.004509 0.005016 0.011611 0.000000 0.007315 0.000000
# 4 0.000000 0.000000 0.000000 0.076732 0.000000 -0.014620
# 5 -0.004276 0.003538 0.007315 0.000000 0.024368 0.000000
# 6 0.000000 0.000000 0.000000 -0.014620 0.000000 0.043189
#
#
# Mechanical properties :
#
#
# Convention : Reuss Voigt Hill
#
# Bulk Modulus (GPa) = 24.53079 55.58557 40.05818
# Shear Modulus (GPa) = 22.08118 35.98508 29.03313
#
# Velocity S-wave (km/s) = 3.21011 4.09799 3.68092
# Velocity P-wave (km/s) = 5.01875 6.95212 6.06299
#
# Compressibility (1/GPa) = 0.04076509
#
# Stress axis : x y z
#
# Youngs Moduli (GPa) = 122.31383 28.67305 86.12835
#
# Poissons Ratio (x) = 0.21376 0.38838
# Poissons Ratio (y) = 0.91185 -0.43200
# Poissons Ratio (z) = 0.55155 -0.14382
#
# Static dielectric constant tensor:
#      x y z
#    x 1.859120 0.000000 0.005040 
#    y 0.000000 1.824200 0.000000 
#    z 0.005040 0.000000 1.812420 
# 
# From -- ./inp_files/208344.got.cif
#   From: 2010.05.17/outbox.cif.g08.bks.cpg/sg15_105_cif.got.tgz:208344.got - 2010.06.03 18:47:42.
