data_PCOD9288237
_publ_section_title
;
Structure prediction by ZEFSAII (Michael W. Deem and Ramdas Pophale) SiO2 
 PCOD9288237
Probable space group: C 2/C
;
_chemical_formula_sum "Si O2"
_cell_formula_units_Z 64
_cell_length_a 12.549960
_cell_length_b 13.572360
_cell_length_c 30.345853
_cell_angle_alpha 90.000000
_cell_angle_beta 33.985411
_cell_angle_gamma 90.000000
_cell_volume 2889.313871
_symmetry_space_group_name_H-M "C 2/C"
_symmetry_group_IT_number 15
_symmetry_cell_setting 'monoclinic'
loop_
_space_group_symop_operation_xyz
x,y,z
-x,y,1/2-z
-x,-y,-z
x,-y,1/2+z
1/2+x,1/2+y,z
1/2-x,1/2+y,1/2-z
1/2-x,1/2-y,-z
1/2+x,1/2-y,1/2+z
loop_
_atom_site_type_symbol
_atom_site_label
_atom_site_fract_x
_atom_site_fract_y
_atom_site_fract_z
Si Si1 0.894786 0.052426 0.943900
Si Si2 0.120505 0.094648 0.946286
Si Si3 0.488965 0.898375 0.873789
Si Si4 0.045507 0.720100 0.525261
Si Si5 0.236299 0.219389 0.557803
Si Si6 0.342191 0.270034 0.766184
Si Si7 0.973338 0.839521 0.887828
Si Si8 0.051147 0.549789 0.780382
O O1 0.876783 0.117563 0.906580
O O2 0.019156 0.117449 0.935301
O O3 0.002098 0.949933 0.897260
O O4 0.676831 0.047682 0.039651
O O5 0.340847 0.084573 0.865229
O O6 0.101573 0.171199 0.990927
O O7 0.000000 0.000000 0.000000
O O8 0.369445 0.815903 0.887340
O O9 0.649154 0.831419 0.843025
O O10 0.593440 0.972828 0.804624
O O11 0.968286 0.747717 0.600154
O O12 0.242785 0.662080 0.460731
O O13 0.908577 0.692796 0.531662
O O14 0.250000 0.250000 0.500000
O O15 0.500000 0.282324 0.750000
O O16 0.425688 0.316823 0.692773
O O17 0.327629 0.150692 0.764752
O O18 0.000000 0.503742 0.750000
#
# Coordination Sequence:
#
# PCOD9288237 Si02
#       8
#     8   8   8   8   8   8   8   8
#     4  11  24  39  72 103 134 181 228 282 338 408
#     4  12  19  39  70 103 132 164 233 290 329 383
#     4  11  24  43  65 103 132 172 231 288 335 396
#     4  11  21  40  66 100 137 169 230 285 339 387
#     4  10  22  38  65  99 134 171 218 287 330 393
#     4  11  28  46  66  94 143 183 226 278 349 431
#     4  11  25  41  68 101 136 183 225 286 342 412
#     4  11  25  41  71  98 130 181 225 283 341 411
#
# _framework density 22.150587999999999
#
# number of rings (size 3 to 8) (size 9 to 14) (size 15 to 20)
#    0.000    1.000    6.250    0.000   10.500    0.500 
#    0.000    0.000    0.000    0.750    0.000    0.000 
#    0.000    0.000    0.000    0.000    0.000    0.000 
#
# Total GULP energy -178167.136836 kJ/mol
# GULP energy per Si atom -5567.723026 kJ/mol
# Density = 2.210017 g / cm^3
# Si number density = 22.150588 Si / 1000 Ang^3
#
#
#
# Elastic Constant Matrix: (Units=GPa)
#
#
# Indices 1 2 3 4 5 6 
#
# 1 105.2503 10.5794 14.7267 0.0003 -7.2414 0.0001
# 2 10.5794 57.2318 15.8587 -0.0004 5.2133 0.0002
# 3 14.7267 15.8587 82.2426 0.0010 7.6084 -0.0002
# 4 0.0003 -0.0004 0.0010 26.0274 -0.0006 0.0207
# 5 -7.2414 5.2133 7.6084 -0.0006 33.0909 -0.0004
# 6 0.0001 0.0002 -0.0002 0.0207 -0.0004 41.9345
#
#
#
# Elastic Compliance Matrix: (Units=1/GPa)
#
#
# Indices 1 2 3 4 5 6 
#
# 1 0.010110 -0.001643 -0.001760 0.000000 0.002876 0.000000
# 2 -0.001643 0.018875 -0.003103 0.000000 -0.002620 0.000000
# 3 -0.001760 -0.003103 0.013347 -0.000001 -0.002965 0.000000
# 4 0.000000 0.000000 -0.000001 0.038421 0.000001 -0.000019
# 5 0.002876 -0.002620 -0.002965 0.000001 0.031944 0.000000
# 6 0.000000 0.000000 0.000000 -0.000019 0.000000 0.023847
#
#
# Mechanical properties :
#
#
# Convention : Reuss Voigt Hill
#
# Bulk Modulus (GPa) = 34.10586 36.33935 35.22260
# Shear Modulus (GPa) = 31.38156 33.78119 32.58138
#
# Velocity S-wave (km/s) = 3.76804 3.90945 3.83940
# Velocity P-wave (km/s) = 5.86187 6.06792 5.96578
#
# Compressibility (1/GPa) = 0.02932048
#
# Stress axis : x y z
#
# Youngs Moduli (GPa) = 98.90782 52.97995 74.92390
#
# Poissons Ratio (x) = 0.08706 0.13184
# Poissons Ratio (y) = 0.16254 0.23249
# Poissons Ratio (z) = 0.17404 0.16440
#
# Static dielectric constant tensor:
#      x y z
#    x 1.896910 0.000000 0.030340 
#    y 0.000000 1.908140 0.000000 
#    z 0.030340 0.000000 1.900010 
# 
# From -- ./inp_files/311173.got.cif
#   From: 2010.05.17/outbox.cif.g08.bks.cpg/sg15_156_cif.got.tgz:311173.got - 2010.06.03 18:47:42.
