data_PCOD9288908
_publ_section_title
;
Structure prediction by ZEFSAII (Michael W. Deem and Ramdas Pophale) SiO2 
 PCOD9288908
Probable space group: C 2/C
;
_chemical_formula_sum "Si O2"
_cell_formula_units_Z 36
_cell_length_a 11.184901
_cell_length_b 18.796482
_cell_length_c 9.011597
_cell_angle_alpha 90.000000
_cell_angle_beta 106.514737
_cell_angle_gamma 90.000000
_cell_volume 1816.411905
_symmetry_space_group_name_H-M "C 2/C"
_symmetry_group_IT_number 15
_symmetry_cell_setting 'monoclinic'
loop_
_space_group_symop_operation_xyz
x,y,z
-x,y,1/2-z
-x,-y,-z
x,-y,1/2+z
1/2+x,1/2+y,z
1/2-x,1/2+y,1/2-z
1/2-x,1/2-y,-z
1/2+x,1/2-y,1/2+z
loop_
_atom_site_type_symbol
_atom_site_label
_atom_site_fract_x
_atom_site_fract_y
_atom_site_fract_z
Si Si1 0.258007 0.264249 0.829874
Si Si2 0.867584 0.589039 0.264012
Si Si3 0.126414 0.442930 0.387875
Si Si4 0.500000 0.709346 0.250000
Si Si5 0.818816 0.182690 0.944083
O O1 0.228635 0.346450 0.781814
O O2 0.394566 0.247873 0.806356
O O3 0.157012 0.216019 0.707912
O O4 0.250000 0.250000 0.000000
O O5 0.833058 0.521229 0.151377
O O6 0.889570 0.562843 0.440231
O O7 0.000000 0.616417 0.250000
O O8 0.229929 0.384019 0.392126
O O9 0.000000 0.428495 0.250000
O O10 0.569489 0.666392 0.404512
O O11 0.750000 0.250000 0.000000
#
# Coordination Sequence:
#
# PCOD9288908 Si02
#       5
#     8   8   8   4   8
#     4  11  26  39  69  99 131 173 221 273 322 400
#     4  11  24  40  64  98 130 168 221 273 331 385
#     4  11  23  41  65  97 128 171 219 276 335 375
#     4  10  22  46  60  94 134 170 218 262 336 382
#     4  10  22  39  67  91 128 173 210 270 328 391
#
# _framework density 19.819292999999998
#
# number of rings (size 3 to 8) (size 9 to 14) (size 15 to 20)
#    0.000    1.333    4.444    2.667   15.556    0.000 
#    0.000    1.111    0.000    0.000    0.000    0.000 
#    0.000    0.000    0.000    0.000    0.000    0.000 
#
# Total GULP energy -100353.019505 kJ/mol
# GULP energy per Si atom -5575.167750 kJ/mol
# Density = 1.977418 g / cm^3
# Si number density = 19.819293 Si / 1000 Ang^3
#
#
#
# Elastic Constant Matrix: (Units=GPa)
#
#
# Indices 1 2 3 4 5 6 
#
# 1 58.2461 36.6434 42.7562 0.0000 -3.8715 0.0000
# 2 36.6434 75.0928 38.0117 0.0000 9.2948 0.0000
# 3 42.7562 38.0117 194.1254 0.0000 -13.0805 0.0000
# 4 0.0000 0.0000 0.0000 24.6958 0.0000 -4.2132
# 5 -3.8715 9.2948 -13.0805 0.0000 38.0326 0.0000
# 6 0.0000 0.0000 0.0000 -4.2132 0.0000 25.4495
#
#
#
# Elastic Compliance Matrix: (Units=1/GPa)
#
#
# Indices 1 2 3 4 5 6 
#
# 1 0.027773 -0.012431 -0.003366 0.000000 0.004708 0.000000
# 2 -0.012431 0.021222 -0.001896 0.000000 -0.007104 0.000000
# 3 -0.003366 -0.001896 0.006421 0.000000 0.002329 0.000000
# 4 0.000000 0.000000 0.000000 0.041670 0.000000 0.006899
# 5 0.004708 -0.007104 0.002329 0.000000 0.029310 0.000000
# 6 0.000000 0.000000 0.000000 0.006899 0.000000 0.040436
#
#
# Mechanical properties :
#
#
# Convention : Reuss Voigt Hill
#
# Bulk Modulus (GPa) = 49.92654 62.47633 56.20144
# Shear Modulus (GPa) = 23.93563 31.63913 27.78738
#
# Velocity S-wave (km/s) = 3.47896 3.99981 3.74844
# Velocity P-wave (km/s) = 6.43297 7.27480 6.86680
#
# Compressibility (1/GPa) = 0.02002943
#
# Stress axis : x y z
#
# Youngs Moduli (GPa) = 36.00646 47.12029 155.74376
#
# Poissons Ratio (x) = 0.58578 0.52416
# Poissons Ratio (y) = 0.44761 0.29532
# Poissons Ratio (z) = 0.12118 0.08935
#
# Static dielectric constant tensor:
#      x y z
#    x 1.773510 0.000000 0.013830 
#    y 0.000000 1.674730 0.000000 
#    z 0.013830 0.000000 1.771250 
# 
# From -- ./inp_files/29000.got.cif
#   From: 2010.05.17/outbox.cif.g08.bks.cpg/sg15_15_cif.got.tgz:29000.got - 2010.06.03 18:47:42.
