data_PCOD9288552
_publ_section_title
;
Structure prediction by ZEFSAII (Michael W. Deem and Ramdas Pophale) SiO2 
 PCOD9288552
Probable space group: C 2/C
;
_chemical_formula_sum "Si O2"
_cell_formula_units_Z 64
_cell_length_a 24.407857
_cell_length_b 8.737729
_cell_length_c 20.958453
_cell_angle_alpha 90.000000
_cell_angle_beta 47.541518
_cell_angle_gamma 90.000000
_cell_volume 3297.664653
_symmetry_space_group_name_H-M "C 2/C"
_symmetry_group_IT_number 15
_symmetry_cell_setting 'monoclinic'
loop_
_space_group_symop_operation_xyz
x,y,z
-x,y,1/2-z
-x,-y,-z
x,-y,1/2+z
1/2+x,1/2+y,z
1/2-x,1/2+y,1/2-z
1/2-x,1/2-y,-z
1/2+x,1/2-y,1/2+z
loop_
_atom_site_type_symbol
_atom_site_label
_atom_site_fract_x
_atom_site_fract_y
_atom_site_fract_z
Si Si1 0.738100 0.103621 0.880197
Si Si2 0.562782 0.028883 0.652880
Si Si3 0.914867 0.318560 0.075722
Si Si4 0.259366 0.619584 0.658393
Si Si5 0.467392 0.112013 0.114737
Si Si6 0.346202 0.125914 0.311753
Si Si7 0.181287 0.102089 0.284412
Si Si8 0.807764 0.311698 0.505609
O O1 0.661801 0.147296 0.903004
O O2 0.780077 0.253631 0.871822
O O3 0.797663 0.015006 0.788238
O O4 0.716203 0.979518 0.950587
O O5 0.500000 0.086353 0.750000
O O6 0.614247 0.165023 0.589131
O O7 0.525249 0.953862 0.620876
O O8 0.608793 0.906128 0.658920
O O9 0.933603 0.472301 0.100182
O O10 0.897216 0.181999 0.139114
O O11 0.983439 0.289909 0.973549
O O12 0.188611 0.537696 0.681603
O O13 0.233973 0.753657 0.726053
O O14 0.298059 0.487904 0.668024
O O15 0.307774 0.699401 0.565985
O O16 0.400952 0.176991 0.210876
O O17 0.750000 0.250000 0.500000
#
# Coordination Sequence:
#
# PCOD9288552 Si02
#       8
#     8   8   8   8   8   8   8   8
#     4  11  23  37  67  96 128 154 216 266 316 367
#     4  10  22  40  66  89 122 169 213 250 311 389
#     4  11  20  36  63  90 125 164 206 254 304 376
#     4  11  20  34  64  91 130 152 210 262 311 367
#     4  10  22  39  61  92 125 166 212 245 312 395
#     4  11  20  40  64  92 119 167 206 271 305 372
#     4  11  20  36  58  98 125 165 197 259 322 366
#     4  11  23  41  61  97 124 166 214 266 310 372
#
# _framework density 19.407675000000001
#
# number of rings (size 3 to 8) (size 9 to 14) (size 15 to 20)
#    0.000    1.250    6.250    0.000    0.000    0.500 
#    2.250    0.625    2.750    0.000    0.000    0.000 
#    0.000    0.000    0.000    0.000    0.000    0.000 
#
# Total GULP energy -178515.494384 kJ/mol
# GULP energy per Si atom -5578.609200 kJ/mol
# Density = 1.936350 g / cm^3
# Si number density = 19.407675 Si / 1000 Ang^3
#
#
#
# Elastic Constant Matrix: (Units=GPa)
#
#
# Indices 1 2 3 4 5 6 
#
# 1 68.5027 34.3306 29.6872 0.0002 -1.6650 -0.0002
# 2 34.3306 78.8812 29.1061 0.0035 -2.8670 -0.0023
# 3 29.6872 29.1061 110.4085 0.0029 0.2459 -0.0020
# 4 0.0002 0.0035 0.0029 33.7468 -0.0012 -4.1030
# 5 -1.6650 -2.8670 0.2459 -0.0012 20.5823 0.0009
# 6 -0.0002 -0.0023 -0.0020 -4.1030 0.0009 23.3589
#
#
#
# Elastic Compliance Matrix: (Units=1/GPa)
#
#
# Indices 1 2 3 4 5 6 
#
# 1 0.019749 -0.007325 -0.003381 0.000001 0.000618 -0.000001
# 2 -0.007325 0.016843 -0.002475 -0.000001 0.001783 0.000001
# 3 -0.003381 -0.002475 0.010620 -0.000001 -0.000745 0.000001
# 4 0.000001 -0.000001 -0.000001 0.030279 0.000001 0.005318
# 5 0.000618 0.001783 -0.000745 0.000001 0.048893 -0.000001
# 6 -0.000001 0.000001 0.000001 0.005318 -0.000001 0.043744
#
#
# Mechanical properties :
#
#
# Convention : Reuss Voigt Hill
#
# Bulk Modulus (GPa) = 47.95740 49.33781 48.64760
# Shear Modulus (GPa) = 24.57723 26.51551 25.54637
#
# Velocity S-wave (km/s) = 3.56246 3.70028 3.63202
# Velocity P-wave (km/s) = 6.45645 6.61310 6.53524
#
# Compressibility (1/GPa) = 0.02085184
#
# Stress axis : x y z
#
# Youngs Moduli (GPa) = 50.63502 59.37069 94.15981
#
# Poissons Ratio (x) = 0.43491 0.31831
# Poissons Ratio (y) = 0.37092 0.23300
# Poissons Ratio (z) = 0.17117 0.14692
#
# Static dielectric constant tensor:
#      x y z
#    x 1.685990 0.000000 -0.003140 
#    y 0.000000 1.663820 0.000000 
#    z -0.003140 0.000000 1.727050 
# 
# From -- ./inp_files/255031.got.cif
#   From: 2010.05.17/outbox.cif.g08.bks.cpg/sg15_128_cif.got.tgz:255031.got - 2010.06.03 18:47:42.
