data_PCOD9288673
_publ_section_title
;
Structure prediction by ZEFSAII (Michael W. Deem and Ramdas Pophale) SiO2 
 PCOD9288673
Probable space group: C 2/C
;
_chemical_formula_sum "Si O2"
_cell_formula_units_Z 32
_cell_length_a 13.753611
_cell_length_b 8.462327
_cell_length_c 13.687150
_cell_angle_alpha 90.000000
_cell_angle_beta 104.914828
_cell_angle_gamma 90.000000
_cell_volume 1539.344473
_symmetry_space_group_name_H-M "C 2/C"
_symmetry_group_IT_number 15
_symmetry_cell_setting 'monoclinic'
loop_
_space_group_symop_operation_xyz
x,y,z
-x,y,1/2-z
-x,-y,-z
x,-y,1/2+z
1/2+x,1/2+y,z
1/2-x,1/2+y,1/2-z
1/2-x,1/2-y,-z
1/2+x,1/2-y,1/2+z
loop_
_atom_site_type_symbol
_atom_site_label
_atom_site_fract_x
_atom_site_fract_y
_atom_site_fract_z
Si Si1 0.224125 0.350958 0.588850
Si Si2 0.406956 0.126300 0.973262
Si Si3 0.406581 0.337474 0.786597
Si Si4 0.466315 0.691975 0.850373
O O1 0.250000 0.250000 0.500000
O O2 0.190056 0.519117 0.536499
O O3 0.315741 0.362700 0.688038
O O4 0.131604 0.276504 0.627889
O O5 0.388096 0.212739 0.866375
O O6 0.440081 0.259813 0.057683
O O7 0.500000 0.000000 0.000000
O O8 0.500000 0.271793 0.750000
O O9 0.441427 0.506185 0.838966
O O10 0.500000 0.741748 0.750000
#
# Coordination Sequence:
#
# PCOD9288673 Si02
#       4
#     8   8   8   8
#     4  11  24  42  65  95 128 170 215 264 319 381
#     4  10  22  39  63  92 124 165 208 259 318 376
#     4  11  22  41  65  95 130 167 212 266 320 382
#     4  10  23  42  64  94 128 168 213 265 322 381
#
# _framework density 20.788070999999999
#
# number of rings (size 3 to 8) (size 9 to 14) (size 15 to 20)
#    0.000    1.500    0.000    5.250    0.000   12.000 
#    0.000    7.500    0.000    0.000    0.000    0.000 
#    0.000    0.000    0.000    0.000    0.000    0.000 
#
# Total GULP energy -89333.036621 kJ/mol
# GULP energy per Si atom -5583.314789 kJ/mol
# Density = 2.074076 g / cm^3
# Si number density = 20.788071 Si / 1000 Ang^3
#
#
#
# Elastic Constant Matrix: (Units=GPa)
#
#
# Indices 1 2 3 4 5 6 
#
# 1 93.8845 41.8517 59.3393 0.0000 0.6325 0.0000
# 2 41.8517 104.0487 78.0554 0.0000 13.1656 0.0000
# 3 59.3393 78.0554 141.9041 0.0000 28.0325 0.0000
# 4 0.0000 0.0000 0.0000 32.1860 0.0000 -3.2401
# 5 0.6325 13.1656 28.0325 0.0000 41.8735 0.0000
# 6 0.0000 0.0000 0.0000 -3.2401 0.0000 38.2184
#
#
#
# Elastic Compliance Matrix: (Units=1/GPa)
#
#
# Indices 1 2 3 4 5 6 
#
# 1 0.015505 -0.002168 -0.006200 0.000000 0.004598 0.000000
# 2 -0.002168 0.016703 -0.008355 0.000000 0.000375 0.000000
# 3 -0.006200 -0.008355 0.015786 0.000000 -0.007847 0.000000
# 4 0.000000 0.000000 0.000000 0.031337 0.000000 0.002657
# 5 0.004598 0.000375 -0.007847 0.000000 0.028948 0.000000
# 6 0.000000 0.000000 0.000000 0.002657 0.000000 0.026391
#
#
# Mechanical properties :
#
#
# Convention : Reuss Voigt Hill
#
# Bulk Modulus (GPa) = 68.73394 77.59224 73.16309
# Shear Modulus (GPa) = 28.90771 33.16165 31.03468
#
# Velocity S-wave (km/s) = 3.73311 3.99836 3.86801
# Velocity P-wave (km/s) = 7.19148 7.66304 7.43100
#
# Compressibility (1/GPa) = 0.01454885
#
# Stress axis : x y z
#
# Youngs Moduli (GPa) = 64.49466 59.86788 63.34867
#
# Poissons Ratio (x) = 0.12977 0.39274
# Poissons Ratio (y) = 0.13979 0.52931
# Poissons Ratio (z) = 0.39985 0.50022
#
# Static dielectric constant tensor:
#      x y z
#    x 1.847740 0.000000 -0.046590 
#    y 0.000000 1.754560 0.000000 
#    z -0.046590 0.000000 1.781550 
# 
# From -- ./inp_files/93423.got.cif
#   From: 2010.05.17/outbox.cif.g08.bks.cpg/sg15_47_cif.got.tgz:93423.got - 2010.06.03 18:47:42.
