data_PCOD9288752
_publ_section_title
;
Structure prediction by ZEFSAII (Michael W. Deem and Ramdas Pophale) SiO2 
 PCOD9288752
Probable space group: C 2/C
;
_chemical_formula_sum "Si O2"
_cell_formula_units_Z 52
_cell_length_a 19.133414
_cell_length_b 7.221060
_cell_length_c 19.774915
_cell_angle_alpha 90.000000
_cell_angle_beta 67.270981
_cell_angle_gamma 90.000000
_cell_volume 2519.998470
_symmetry_space_group_name_H-M "C 2/C"
_symmetry_group_IT_number 15
_symmetry_cell_setting 'monoclinic'
loop_
_space_group_symop_operation_xyz
x,y,z
-x,y,1/2-z
-x,-y,-z
x,-y,1/2+z
1/2+x,1/2+y,z
1/2-x,1/2+y,1/2-z
1/2-x,1/2-y,-z
1/2+x,1/2-y,1/2+z
loop_
_atom_site_type_symbol
_atom_site_label
_atom_site_fract_x
_atom_site_fract_y
_atom_site_fract_z
Si Si1 0.632007 0.013138 0.165177
Si Si2 0.073680 0.733211 0.435236
Si Si3 0.489885 0.108434 0.897649
Si Si4 0.000000 0.276248 0.750000
Si Si5 0.243496 0.726846 0.334686
Si Si6 0.306090 0.652212 0.793036
Si Si7 0.539723 0.501228 0.835515
O O1 0.567650 0.083448 0.242472
O O2 0.682790 0.196457 0.152733
O O3 0.580680 0.972788 0.119185
O O4 0.685789 0.845823 0.165433
O O5 0.043171 0.694399 0.520838
O O6 0.163561 0.768027 0.399368
O O7 0.047498 0.553808 0.400068
O O8 0.041295 0.913032 0.409412
O O9 0.524411 0.283553 0.843615
O O10 0.980785 0.132532 0.816938
O O11 0.257934 0.512695 0.340281
O O12 0.233397 0.757959 0.257855
O O13 0.382299 0.556322 0.732760
#
# Coordination Sequence:
#
# PCOD9288752 Si02
#       7
#     8   8   8   4   8   8   8
#     4  11  24  38  62  94 126 163 212 265 316 386
#     4  10  24  45  61  95 128 168 222 260 313 399
#     4  11  24  41  69  89 127 176 214 266 317 370
#     4  10  22  40  60 100 132 144 218 272 320 380
#     4  11  23  40  64  88 129 167 204 260 333 383
#     4  10  23  38  59  94 125 160 203 259 328 388
#     4  10  22  39  64  93 124 162 210 266 319 380
#
# _framework density 20.634934000000001
#
# number of rings (size 3 to 8) (size 9 to 14) (size 15 to 20)
#    0.000    1.538    3.077    0.462    8.615    0.615 
#    0.000    0.769    0.000    0.000    0.000    0.000 
#    0.000    0.000    0.000    0.000    0.000    0.000 
#
# Total GULP energy -144920.358805 kJ/mol
# GULP energy per Si atom -5573.859954 kJ/mol
# Density = 2.058797 g / cm^3
# Si number density = 20.634934 Si / 1000 Ang^3
#
#
#
# Elastic Constant Matrix: (Units=GPa)
#
#
# Indices 1 2 3 4 5 6 
#
# 1 71.8700 22.9097 5.3230 0.0001 20.0543 0.0003
# 2 22.9097 113.9705 6.7396 0.0004 13.5613 0.0007
# 3 5.3230 6.7396 54.6400 0.0001 16.7374 0.0002
# 4 0.0001 0.0004 0.0001 26.7017 0.0001 3.0741
# 5 20.0543 13.5613 16.7374 0.0001 19.4244 0.0002
# 6 0.0003 0.0007 0.0002 3.0741 0.0002 37.0634
#
#
#
# Elastic Compliance Matrix: (Units=1/GPa)
#
#
# Indices 1 2 3 4 5 6 
#
# 1 0.021241 -0.001521 0.006128 0.000000 -0.026149 0.000000
# 2 -0.001521 0.009734 0.000745 0.000000 -0.005868 0.000000
# 3 0.006128 0.000745 0.026778 0.000000 -0.029921 0.000000
# 4 0.000000 0.000000 0.000000 0.037812 0.000000 -0.003136
# 5 -0.026149 -0.005868 -0.029921 0.000000 0.108357 0.000000
# 6 0.000000 0.000000 0.000000 -0.003136 0.000000 0.027241
#
#
# Mechanical properties :
#
#
# Convention : Reuss Voigt Hill
#
# Bulk Modulus (GPa) = 14.60739 34.49168 24.54954
# Shear Modulus (GPa) = 20.55260 30.33845 25.44552
#
# Velocity S-wave (km/s) = 3.15939 3.83854 3.51540
# Velocity P-wave (km/s) = 4.51700 6.03302 5.32919
#
# Compressibility (1/GPa) = 0.06845848
#
# Stress axis : x y z
#
# Youngs Moduli (GPa) = 47.07783 102.73230 37.34379
#
# Poissons Ratio (x) = 0.15623 -0.22885
# Poissons Ratio (y) = 0.07159 -0.02782
# Poissons Ratio (z) = -0.28851 -0.07652
#
# Static dielectric constant tensor:
#      x y z
#    x 1.846610 0.000000 0.007640 
#    y 0.000000 1.761030 0.000000 
#    z 0.007640 0.000000 1.743160 
# 
# From -- ./inp_files/251028.got.cif
#   From: 2010.05.17/outbox.cif.g08.bks.cpg/sg15_126_cif.got.tgz:251028.got - 2010.06.03 18:47:42.
