data_PCOD9288408
_publ_section_title
;
Structure prediction by ZEFSAII (Michael W. Deem and Ramdas Pophale) SiO2 
 PCOD9288408
Probable space group: C 2/C
;
_chemical_formula_sum "Si O2"
_cell_formula_units_Z 60
_cell_length_a 22.011080
_cell_length_b 17.114943
_cell_length_c 8.421515
_cell_angle_alpha 90.000000
_cell_angle_beta 112.062634
_cell_angle_gamma 90.000000
_cell_volume 2940.226449
_symmetry_space_group_name_H-M "C 2/C"
_symmetry_group_IT_number 15
_symmetry_cell_setting 'monoclinic'
loop_
_space_group_symop_operation_xyz
x,y,z
-x,y,1/2-z
-x,-y,-z
x,-y,1/2+z
1/2+x,1/2+y,z
1/2-x,1/2+y,1/2-z
1/2-x,1/2-y,-z
1/2+x,1/2-y,1/2+z
loop_
_atom_site_type_symbol
_atom_site_label
_atom_site_fract_x
_atom_site_fract_y
_atom_site_fract_z
Si Si1 0.926438 0.303666 0.155305
Si Si2 0.283141 0.348716 0.687260
Si Si3 0.266030 0.881167 0.389132
Si Si4 0.000000 0.305694 0.750000
Si Si5 0.874140 0.256145 0.446409
Si Si6 0.797579 0.522342 0.225678
Si Si7 0.444989 0.066749 0.441791
Si Si8 0.677801 0.291957 0.105568
O O1 0.890402 0.292850 0.287695
O O2 0.000000 0.274922 0.250000
O O3 0.930663 0.392341 0.097238
O O4 0.889786 0.252888 0.985380
O O5 0.339533 0.325749 0.869308
O O6 0.241804 0.424754 0.685875
O O7 0.313591 0.345291 0.542254
O O8 0.232333 0.276312 0.648977
O O9 0.320365 0.814145 0.470094
O O10 0.270981 0.940593 0.537991
O O11 0.197090 0.840417 0.279875
O O12 0.284775 0.932546 0.253339
O O13 0.028045 0.364178 0.643306
O O14 0.940076 0.257705 0.614023
O O15 0.875321 0.536419 0.311948
O O16 0.500000 0.000000 0.500000
#
# Coordination Sequence:
#
# PCOD9288408 Si02
#       8
#     8   8   8   4   8   8   8   8
#     4  11  22  38  60  82 113 159 200 231 299 358
#     4   9  19  37  61  80 112 149 203 250 300 338
#     4  11  24  36  58  81 119 149 202 242 302 344
#     4  12  22  40  48  84 118 158 192 242 280 348
#     4  10  22  39  58  84 115 157 200 249 286 354
#     4  12  24  38  56  89 114 163 193 249 298 353
#     4  12  27  36  54  80 125 166 198 232 284 357
#     4   9  19  39  58  83 109 152 197 256 286 352
#
# _framework density 20.406592
#
# number of rings (size 3 to 8) (size 9 to 14) (size 15 to 20)
#    0.000    1.333    4.000    2.400    2.800    3.200 
#    0.000    0.000    0.000    0.000    1.733    2.800 
#    0.000    0.000    0.000    0.000    0.000    0.000 
#
# Total GULP energy -167639.729689 kJ/mol
# GULP energy per Si atom -5587.990990 kJ/mol
# Density = 2.036015 g / cm^3
# Si number density = 20.406592 Si / 1000 Ang^3
#
#
#
# Elastic Constant Matrix: (Units=GPa)
#
#
# Indices 1 2 3 4 5 6 
#
# 1 59.9112 29.3967 33.2529 0.0000 20.0015 0.0000
# 2 29.3967 53.4604 36.6567 0.0000 21.8943 0.0000
# 3 33.2529 36.6567 116.1100 0.0000 34.8941 0.0000
# 4 0.0000 0.0000 0.0000 31.9115 0.0000 5.2962
# 5 20.0015 21.8943 34.8941 0.0000 46.1214 0.0000
# 6 0.0000 0.0000 0.0000 5.2962 0.0000 36.2340
#
#
#
# Elastic Compliance Matrix: (Units=1/GPa)
#
#
# Indices 1 2 3 4 5 6 
#
# 1 0.024350 -0.010003 -0.002678 0.000000 -0.003785 0.000000
# 2 -0.010003 0.030038 -0.004707 0.000000 -0.006360 0.000000
# 3 -0.002678 -0.004707 0.012742 0.000000 -0.006244 0.000000
# 4 0.000000 0.000000 0.000000 0.032116 0.000000 -0.004694
# 5 -0.003785 -0.006360 -0.006244 0.000000 0.031067 0.000000
# 6 0.000000 0.000000 0.000000 -0.004694 0.000000 0.028285
#
#
# Mechanical properties :
#
#
# Convention : Reuss Voigt Hill
#
# Bulk Modulus (GPa) = 30.90814 47.56603 39.23708
# Shear Modulus (GPa) = 24.49084 31.53172 28.01128
#
# Velocity S-wave (km/s) = 3.46807 3.93513 3.70896
# Velocity P-wave (km/s) = 5.58710 6.63376 6.13280
#
# Compressibility (1/GPa) = 0.03235394
#
# Stress axis : x y z
#
# Youngs Moduli (GPa) = 41.06842 33.29093 78.47963
#
# Poissons Ratio (x) = 0.33301 0.21017
# Poissons Ratio (y) = 0.41080 0.36941
# Poissons Ratio (z) = 0.10998 0.15670
#
# Static dielectric constant tensor:
#      x y z
#    x 1.770450 0.000000 -0.077970 
#    y 0.000000 1.720360 0.000000 
#    z -0.077970 0.000000 1.846900 
# 
# From -- ./inp_files/62746.got.cif
#   From: 2010.05.17/outbox.cif.g08.bks.cpg/sg15_32_cif.got.tgz:62746.got - 2010.06.03 18:47:42.
