data_PCOD9288824
_publ_section_title
;
Structure prediction by ZEFSAII (Michael W. Deem and Ramdas Pophale) SiO2 
 PCOD9288824
Probable space group: C 2/C
;
_chemical_formula_sum "Si O2"
_cell_formula_units_Z 40
_cell_length_a 9.879811
_cell_length_b 23.414445
_cell_length_c 7.861159
_cell_angle_alpha 90.000000
_cell_angle_beta 86.956945
_cell_angle_gamma 90.000000
_cell_volume 1815.959945
_symmetry_space_group_name_H-M "C 2/C"
_symmetry_group_IT_number 15
_symmetry_cell_setting 'monoclinic'
loop_
_space_group_symop_operation_xyz
x,y,z
-x,y,1/2-z
-x,-y,-z
x,-y,1/2+z
1/2+x,1/2+y,z
1/2-x,1/2+y,1/2-z
1/2-x,1/2-y,-z
1/2+x,1/2-y,1/2+z
loop_
_atom_site_type_symbol
_atom_site_label
_atom_site_fract_x
_atom_site_fract_y
_atom_site_fract_z
Si Si1 0.606098 0.174145 0.094938
Si Si2 0.000000 0.969601 0.750000
Si Si3 0.471261 0.935193 0.450500
Si Si4 0.401383 0.715315 0.103060
Si Si5 0.659340 0.432392 0.422909
Si Si6 0.000000 0.159304 0.750000
O O1 0.500000 0.190555 0.250000
O O2 0.757785 0.185555 0.150237
O O3 0.563027 0.110454 0.044222
O O4 0.603774 0.216516 0.931839
O O5 0.057978 0.933969 0.589876
O O6 0.880914 0.010540 0.681664
O O7 0.500000 0.928056 0.250000
O O8 0.310331 0.926995 0.481479
O O9 0.500000 0.000000 0.500000
O O10 0.500000 0.703136 0.250000
O O11 0.454707 0.692876 0.918836
O O12 0.622958 0.381063 0.300479
#
# Coordination Sequence:
#
# PCOD9288824 Si02
#       6
#     8   4   8   8   8   4
#     4  11  26  48  72 108 145 186 245 297 363 437
#     4   9  20  40  64  96 144 184 243 288 362 426
#     4  12  25  43  69 101 143 188 234 296 364 425
#     4  11  26  48  74 105 145 193 236 302 357 430
#     4  10  22  39  65  99 137 187 233 299 345 427
#     4  11  24  42  68 106 136 180 247 284 354 424
#
# _framework density 22.026917999999998
#
# number of rings (size 3 to 8) (size 9 to 14) (size 15 to 20)
#    0.000    1.200    1.000    3.600    4.200    5.600 
#    0.000    0.000    0.000    0.000    0.000    0.000 
#    0.000    0.000    0.000    0.000    0.000    0.000 
#
# Total GULP energy -111876.635702 kJ/mol
# GULP energy per Si atom -5593.831785 kJ/mol
# Density = 2.197678 g / cm^3
# Si number density = 22.026918 Si / 1000 Ang^3
#
#
#
# Elastic Constant Matrix: (Units=GPa)
#
#
# Indices 1 2 3 4 5 6 
#
# 1 165.7023 71.1056 49.2492 0.0000 14.1904 0.0000
# 2 71.1056 137.1481 35.2613 0.0000 14.3893 0.0000
# 3 49.2492 35.2613 120.0958 0.0000 7.7972 0.0000
# 4 0.0000 0.0000 0.0000 69.7000 0.0000 -14.2771
# 5 14.1904 14.3893 7.7972 0.0000 30.3381 0.0000
# 6 0.0000 0.0000 0.0000 -14.2771 0.0000 58.7110
#
#
#
# Elastic Compliance Matrix: (Units=1/GPa)
#
#
# Indices 1 2 3 4 5 6 
#
# 1 0.008396 -0.003595 -0.002281 0.000000 -0.001636 0.000000
# 2 -0.003595 0.009743 -0.001216 0.000000 -0.002627 0.000000
# 3 -0.002281 -0.001216 0.009674 0.000000 -0.000842 0.000000
# 4 0.000000 0.000000 0.000000 0.015099 0.000000 0.003672
# 5 -0.001636 -0.002627 -0.000842 0.000000 0.035190 0.000000
# 6 0.000000 0.000000 0.000000 0.003672 0.000000 0.017925
#
#
# Mechanical properties :
#
#
# Convention : Reuss Voigt Hill
#
# Bulk Modulus (GPa) = 73.37315 81.57538 77.47426
# Shear Modulus (GPa) = 43.57143 49.57182 46.57162
#
# Velocity S-wave (km/s) = 4.45241 4.74910 4.60315
# Velocity P-wave (km/s) = 7.73401 8.19675 7.96874
#
# Compressibility (1/GPa) = 0.01362896
#
# Stress axis : x y z
#
# Youngs Moduli (GPa) = 119.11117 102.63408 103.37048
#
# Poissons Ratio (x) = 0.36893 0.23581
# Poissons Ratio (y) = 0.42816 0.12571
# Poissons Ratio (z) = 0.27172 0.12481
#
# Static dielectric constant tensor:
#      x y z
#    x 1.801620 0.000000 -0.012440 
#    y 0.000000 1.864960 0.000000 
#    z -0.012440 0.000000 1.760080 
# 
# From -- ./inp_files/24467.got.cif
#   From: 2010.05.17/outbox.cif.g08.bks.cpg/sg15_13_cif.got.tgz:24467.got - 2010.06.03 18:47:42.
