data_PCOD9288512
_publ_section_title
;
Structure prediction by ZEFSAII (Michael W. Deem and Ramdas Pophale) SiO2 
 PCOD9288512
Probable space group: C 2/C
;
_chemical_formula_sum "Si O2"
_cell_formula_units_Z 52
_cell_length_a 16.315894
_cell_length_b 25.707439
_cell_length_c 8.593586
_cell_angle_alpha 90.000000
_cell_angle_beta 44.763116
_cell_angle_gamma 90.000000
_cell_volume 2538.201668
_symmetry_space_group_name_H-M "C 2/C"
_symmetry_group_IT_number 15
_symmetry_cell_setting 'monoclinic'
loop_
_space_group_symop_operation_xyz
x,y,z
-x,y,1/2-z
-x,-y,-z
x,-y,1/2+z
1/2+x,1/2+y,z
1/2-x,1/2+y,1/2-z
1/2-x,1/2-y,-z
1/2+x,1/2-y,1/2+z
loop_
_atom_site_type_symbol
_atom_site_label
_atom_site_fract_x
_atom_site_fract_y
_atom_site_fract_z
Si Si1 0.500000 0.001195 0.250000
Si Si2 0.500000 0.230360 0.250000
Si Si3 0.150314 0.444258 0.803601
Si Si4 0.382893 0.696305 0.151041
Si Si5 0.000000 0.257684 0.250000
Si Si6 0.026485 0.915088 0.892189
Si Si7 0.857961 0.320562 0.688199
Si Si8 0.618817 0.477190 0.189616
O O1 0.445463 0.036954 0.191220
O O2 0.396818 0.967755 0.469948
O O3 0.464826 0.269294 0.433358
O O4 0.603190 0.196240 0.189549
O O5 0.150612 0.382401 0.810202
O O6 0.271429 0.464633 0.565423
O O7 0.403176 0.720754 0.296321
O O8 0.420916 0.635980 0.101160
O O9 0.260580 0.700687 0.227930
O O10 0.952406 0.296288 0.445120
O O11 0.000000 0.901746 0.750000
O O12 0.114344 0.964436 0.764877
O O13 0.909666 0.936023 0.135101
O O14 0.500000 0.474117 0.250000
#
# Coordination Sequence:
#
# PCOD9288512 Si02
#       8
#     4   4   8   8   4   8   8   8
#     4  10  26  44  62  96 134 178 224 272 320 400
#     4  10  25  42  62  94 134 158 229 276 310 398
#     4  11  24  44  68  95 134 175 227 270 330 400
#     4  11  22  41  66  94 130 171 216 269 335 388
#     4  10  23  44  62  94 132 164 229 274 310 402
#     4  10  22  39  61 101 135 171 211 265 347 394
#     4  11  23  42  68  91 124 177 214 273 332 377
#     4  10  23  40  65 101 137 169 218 275 335 405
#
# _framework density 20.486946
#
# number of rings (size 3 to 8) (size 9 to 14) (size 15 to 20)
#    0.000    1.538    0.769    2.769   11.846    0.000 
#    0.000    1.538    0.000    0.000    0.000    0.000 
#    0.000    0.000    0.000    0.000    0.000    0.000 
#
# Total GULP energy -145004.663988 kJ/mol
# GULP energy per Si atom -5577.102461 kJ/mol
# Density = 2.044032 g / cm^3
# Si number density = 20.486946 Si / 1000 Ang^3
#
#
#
# Elastic Constant Matrix: (Units=GPa)
#
#
# Indices 1 2 3 4 5 6 
#
# 1 88.8187 4.8388 2.4950 0.0000 4.5295 0.0000
# 2 4.8388 91.0514 24.9191 0.0000 -7.1755 0.0000
# 3 2.4950 24.9191 94.2643 0.0000 -4.5669 0.0000
# 4 0.0000 0.0000 0.0000 22.2520 0.0000 6.7664
# 5 4.5295 -7.1755 -4.5669 0.0000 31.8829 0.0000
# 6 0.0000 0.0000 0.0000 6.7664 0.0000 30.4156
#
#
#
# Elastic Compliance Matrix: (Units=1/GPa)
#
#
# Indices 1 2 3 4 5 6 
#
# 1 0.011394 -0.000691 -0.000206 0.000000 -0.001804 0.000000
# 2 -0.000691 0.012041 -0.003050 0.000000 0.002371 0.000000
# 3 -0.000206 -0.003050 0.011468 0.000000 0.000986 0.000000
# 4 0.000000 0.000000 0.000000 0.048200 0.000000 -0.010723
# 5 -0.001804 0.002371 0.000986 0.000000 0.032296 0.000000
# 6 0.000000 0.000000 0.000000 -0.010723 0.000000 0.035263
#
#
# Mechanical properties :
#
#
# Convention : Reuss Voigt Hill
#
# Bulk Modulus (GPa) = 37.02532 37.62668 37.32600
# Shear Modulus (GPa) = 29.83995 33.03555 31.43775
#
# Velocity S-wave (km/s) = 3.82060 4.01997 3.92155
# Velocity P-wave (km/s) = 6.12980 6.32083 6.22605
#
# Compressibility (1/GPa) = 0.02700855
#
# Stress axis : x y z
#
# Youngs Moduli (GPa) = 87.76295 83.04871 87.19963
#
# Poissons Ratio (x) = 0.05741 0.01798
# Poissons Ratio (y) = 0.06067 0.26595
# Poissons Ratio (z) = 0.01810 0.25329
#
# Static dielectric constant tensor:
#      x y z
#    x 1.830550 0.000000 0.011780 
#    y 0.000000 1.702410 0.000000 
#    z 0.011780 0.000000 1.754410 
# 
# From -- ./inp_files/52163.got.cif
#   From: 2010.05.17/outbox.cif.g08.bks.cpg/sg15_27_cif.got.tgz:52163.got - 2010.06.03 18:47:42.
