data_PCOD9288007
_publ_section_title
;
Structure prediction by ZEFSAII (Michael W. Deem and Ramdas Pophale) SiO2 
 PCOD9288007
Probable space group: C 2/C
;
_chemical_formula_sum "Si O2"
_cell_formula_units_Z 52
_cell_length_a 18.558024
_cell_length_b 12.586665
_cell_length_c 9.799158
_cell_angle_alpha 90.000000
_cell_angle_beta 116.943254
_cell_angle_gamma 90.000000
_cell_volume 2040.473422
_symmetry_space_group_name_H-M "C 2/C"
_symmetry_group_IT_number 15
_symmetry_cell_setting 'monoclinic'
loop_
_space_group_symop_operation_xyz
x,y,z
-x,y,1/2-z
-x,-y,-z
x,-y,1/2+z
1/2+x,1/2+y,z
1/2-x,1/2+y,1/2-z
1/2-x,1/2-y,-z
1/2+x,1/2-y,1/2+z
loop_
_atom_site_type_symbol
_atom_site_label
_atom_site_fract_x
_atom_site_fract_y
_atom_site_fract_z
Si Si1 0.632668 0.280494 0.635911
Si Si2 0.048523 0.227923 0.485656
Si Si3 0.686617 0.395007 0.941195
Si Si4 0.500000 0.084943 0.750000
Si Si5 0.159501 0.670450 0.264354
Si Si6 0.709286 0.626240 0.928061
Si Si7 0.343526 0.048466 0.756839
O O1 0.540998 0.318267 0.587552
O O2 0.686295 0.317009 0.811489
O O3 0.659516 0.332698 0.517339
O O4 0.630317 0.152688 0.637845
O O5 0.114797 0.148728 0.477459
O O6 0.045060 0.332201 0.387753
O O7 0.073964 0.279208 0.652487
O O8 0.673900 0.512177 0.865505
O O9 0.767872 0.412939 0.099869
O O10 0.427984 0.019133 0.754274
O O11 0.199012 0.623580 0.436392
O O12 0.205944 0.785091 0.308254
O O13 0.175929 0.564559 0.187529
#
# Coordination Sequence:
#
# PCOD9288007 Si02
#       7
#     8   8   8   4   8   8   8
#     4  11  23  42  64  99 125 173 222 267 324 398
#     4  11  22  41  65  93 133 165 218 271 326 386
#     4  11  22  42  66  95 123 178 215 271 323 389
#     4  10  22  38  62 100 126 162 212 278 312 394
#     4  10  24  44  62  97 129 175 211 277 329 385
#     4  10  25  43  64  95 135 165 228 267 327 391
#     4  10  22  40  68  94 127 170 218 266 330 390
#
# _framework density 25.484283000000001
#
# number of rings (size 3 to 8) (size 9 to 14) (size 15 to 20)
#    0.000    1.538    3.077    1.385    4.308    6.154 
#    8.308    0.000    0.000    0.000    0.000    0.000 
#    0.000    0.000    0.000    0.000    0.000    0.000 
#
# Total GULP energy -144875.601116 kJ/mol
# GULP energy per Si atom -5572.138504 kJ/mol
# Density = 2.542628 g / cm^3
# Si number density = 25.484283 Si / 1000 Ang^3
#
#
#
# Elastic Constant Matrix: (Units=GPa)
#
#
# Indices 1 2 3 4 5 6 
#
# 1 155.7585 48.6162 33.7392 0.0000 0.4234 0.0000
# 2 48.6162 173.7816 27.0437 0.0000 -0.6925 0.0000
# 3 33.7392 27.0437 65.7426 0.0000 17.5849 0.0000
# 4 0.0000 0.0000 0.0000 28.3759 0.0000 4.6656
# 5 0.4234 -0.6925 17.5849 0.0000 37.4899 0.0000
# 6 0.0000 0.0000 0.0000 4.6656 0.0000 26.6359
#
#
#
# Elastic Compliance Matrix: (Units=1/GPa)
#
#
# Indices 1 2 3 4 5 6 
#
# 1 0.007719 -0.001568 -0.003756 0.000000 0.001646 0.000000
# 2 -0.001568 0.006540 -0.002198 0.000000 0.001170 0.000000
# 3 -0.003756 -0.002198 0.020631 0.000000 -0.009675 0.000000
# 4 0.000000 0.000000 0.000000 0.036286 0.000000 -0.006356
# 5 0.001646 0.001170 -0.009675 0.000000 0.031215 0.000000
# 6 0.000000 0.000000 0.000000 -0.006356 0.000000 0.038657
#
#
# Mechanical properties :
#
#
# Convention : Reuss Voigt Hill
#
# Bulk Modulus (GPa) = 50.39383 68.23121 59.31252
# Shear Modulus (GPa) = 30.72987 37.55924 34.14456
#
# Velocity S-wave (km/s) = 3.47628 3.84320 3.66434
# Velocity P-wave (km/s) = 5.99417 6.82096 6.42089
#
# Compressibility (1/GPa) = 0.01984370
#
# Stress axis : x y z
#
# Youngs Moduli (GPa) = 129.55188 152.90932 48.47103
#
# Poissons Ratio (x) = 0.23980 0.18208
# Poissons Ratio (y) = 0.20317 0.10655
# Poissons Ratio (z) = 0.48666 0.33613
#
# Static dielectric constant tensor:
#      x y z
#    x 2.080380 0.000000 -0.022230 
#    y 0.000000 2.014550 0.000000 
#    z -0.022230 0.000000 2.109260 
# 
# From -- ./inp_files/111740.got.cif
#   From: 2010.05.17/outbox.cif.g08.bks.cpg/sg15_56_cif.got.tgz:111740.got - 2010.06.03 18:47:42.
