data_PCOD9288813
_publ_section_title
;
Structure prediction by ZEFSAII (Michael W. Deem and Ramdas Pophale) SiO2 
 PCOD9288813
Probable space group: C 2/C
;
_chemical_formula_sum "Si O2"
_cell_formula_units_Z 44
_cell_length_a 10.318688
_cell_length_b 9.711043
_cell_length_c 28.399395
_cell_angle_alpha 90.000000
_cell_angle_beta 40.865888
_cell_angle_gamma 90.000000
_cell_volume 1861.959309
_symmetry_space_group_name_H-M "C 2/C"
_symmetry_group_IT_number 15
_symmetry_cell_setting 'monoclinic'
loop_
_space_group_symop_operation_xyz
x,y,z
-x,y,1/2-z
-x,-y,-z
x,-y,1/2+z
1/2+x,1/2+y,z
1/2-x,1/2+y,1/2-z
1/2-x,1/2-y,-z
1/2+x,1/2-y,1/2+z
loop_
_atom_site_type_symbol
_atom_site_label
_atom_site_fract_x
_atom_site_fract_y
_atom_site_fract_z
Si Si1 0.560132 0.059744 0.323509
Si Si2 0.500000 0.075446 0.750000
Si Si3 0.491753 0.588394 0.195794
Si Si4 0.531503 0.203999 0.606024
Si Si5 0.435650 0.443571 0.967516
Si Si6 0.046828 0.846751 0.358075
O O1 0.435564 0.010465 0.313479
O O2 0.763032 0.112165 0.244885
O O3 0.482495 0.188459 0.373682
O O4 0.607251 0.921823 0.339928
O O5 0.710143 0.147105 0.705702
O O6 0.500000 0.597917 0.250000
O O7 0.596158 0.704904 0.134650
O O8 0.529556 0.435482 0.165715
O O9 0.458944 0.313601 0.587502
O O10 0.716623 0.118356 0.534920
O O11 0.457278 0.570289 0.926111
O O12 0.500000 0.500000 0.000000
#
# Coordination Sequence:
#
# PCOD9288813 Si02
#       6
#     8   4   8   8   8   8
#     4  11  23  37  67  98 128 170 220 271 336 387
#     4  10  22  42  64  96 142 172 208 280 338 394
#     4  10  22  39  65  95 135 170 214 273 336 397
#     4  10  23  43  63  96 131 173 220 268 327 395
#     4  10  22  43  70  87 130 183 219 264 329 388
#     4  10  23  41  65  98 129 175 222 273 333 390
#
# _framework density 23.631022000000002
#
# number of rings (size 3 to 8) (size 9 to 14) (size 15 to 20)
#    0.000    1.818    0.000    3.273    8.909    0.727 
#    3.273    0.909    0.000    0.000    0.000    0.000 
#    0.000    0.000    0.000    0.000    0.000    0.000 
#
# Total GULP energy -122702.078712 kJ/mol
# GULP energy per Si atom -5577.367214 kJ/mol
# Density = 2.357724 g / cm^3
# Si number density = 23.631022 Si / 1000 Ang^3
#
#
#
# Elastic Constant Matrix: (Units=GPa)
#
#
# Indices 1 2 3 4 5 6 
#
# 1 66.5273 51.3629 27.2569 0.0000 27.8697 0.0000
# 2 51.3629 203.2345 52.2731 0.0000 44.6807 0.0000
# 3 27.2569 52.2731 102.5302 0.0000 34.5257 0.0000
# 4 0.0000 0.0000 0.0000 34.2320 0.0000 2.1759
# 5 27.8697 44.6807 34.5257 0.0000 42.8504 0.0000
# 6 0.0000 0.0000 0.0000 2.1759 0.0000 31.3750
#
#
#
# Elastic Compliance Matrix: (Units=1/GPa)
#
#
# Indices 1 2 3 4 5 6 
#
# 1 0.022153 -0.003076 -0.000754 0.000000 -0.010594 0.000000
# 2 -0.003076 0.006959 -0.001318 0.000000 -0.004194 0.000000
# 3 -0.000754 -0.001318 0.013720 0.000000 -0.009190 0.000000
# 4 0.000000 0.000000 0.000000 0.029342 0.000000 -0.002035
# 5 -0.010594 -0.004194 -0.009190 0.000000 0.042005 0.000000
# 6 0.000000 0.000000 0.000000 -0.002035 0.000000 0.032014
#
#
# Mechanical properties :
#
#
# Convention : Reuss Voigt Hill
#
# Bulk Modulus (GPa) = 30.73447 70.45308 50.59378
# Shear Modulus (GPa) = 29.88068 37.78477 33.83272
#
# Velocity S-wave (km/s) = 3.55979 4.00302 3.78790
# Velocity P-wave (km/s) = 5.47087 7.15850 6.37081
#
# Compressibility (1/GPa) = 0.03253675
#
# Stress axis : x y z
#
# Youngs Moduli (GPa) = 45.14100 143.70548 72.88490
#
# Poissons Ratio (x) = 0.44200 0.05494
# Poissons Ratio (y) = 0.13884 0.09606
# Poissons Ratio (z) = 0.03403 0.18940
#
# Static dielectric constant tensor:
#      x y z
#    x 1.902390 0.000000 -0.005380 
#    y 0.000000 1.975010 0.000000 
#    z -0.005380 0.000000 1.982850 
# 
# From -- ./inp_files/291434.got.cif
#   From: 2010.05.17/outbox.cif.g08.bks.cpg/sg15_146_cif.got.tgz:291434.got - 2010.06.03 18:47:42.
