data_PCOD9288495
_publ_section_title
;
Structure prediction by ZEFSAII (Michael W. Deem and Ramdas Pophale) SiO2 
 PCOD9288495
Probable space group: C 2/C
;
_chemical_formula_sum "Si O2"
_cell_formula_units_Z 40
_cell_length_a 11.503864
_cell_length_b 13.624054
_cell_length_c 11.722158
_cell_angle_alpha 90.000000
_cell_angle_beta 100.962116
_cell_angle_gamma 90.000000
_cell_volume 1803.681959
_symmetry_space_group_name_H-M "C 2/C"
_symmetry_group_IT_number 15
_symmetry_cell_setting 'monoclinic'
loop_
_space_group_symop_operation_xyz
x,y,z
-x,y,1/2-z
-x,-y,-z
x,-y,1/2+z
1/2+x,1/2+y,z
1/2-x,1/2+y,1/2-z
1/2-x,1/2-y,-z
1/2+x,1/2-y,1/2+z
loop_
_atom_site_type_symbol
_atom_site_label
_atom_site_fract_x
_atom_site_fract_y
_atom_site_fract_z
Si Si1 0.000000 0.223327 0.250000
Si Si2 0.000000 0.899977 0.250000
Si Si3 0.103167 0.480536 0.672763
Si Si4 0.977520 0.660423 0.536616
Si Si5 0.351075 0.445911 0.841582
Si Si6 0.139618 0.182638 0.955071
O O1 0.931747 0.291620 0.145641
O O2 0.905478 0.151887 0.292786
O O3 0.892226 0.838584 0.180181
O O4 0.946091 0.969249 0.337282
O O5 0.096922 0.400420 0.569548
O O6 0.227550 0.474247 0.760556
O O7 0.000000 0.465039 0.750000
O O8 0.075252 0.583187 0.603322
O O9 0.030388 0.753410 0.480701
O O10 0.338831 0.416789 0.970715
O O11 0.250000 0.250000 0.000000
#
# Coordination Sequence:
#
# PCOD9288495 Si02
#       6
#     4   4   8   8   8   8
#     4   9  20  44  59  90 126 166 215 260 316 385
#     4  11  24  44  65  94 134 168 215 268 320 383
#     4  11  22  39  64  93 132 165 217 261 330 374
#     4  10  22  39  60  92 127 170 209 270 307 388
#     4  10  23  41  66  91 128 171 210 265 324 382
#     4  11  23  40  67  94 131 167 220 263 323 380
#
# _framework density 22.176857999999999
#
# number of rings (size 3 to 8) (size 9 to 14) (size 15 to 20)
#    0.000    1.600    1.000    3.000    4.200    2.400 
#    0.000    0.000    0.000    0.000    0.000    0.000 
#    0.000    0.000    0.000    0.000    0.000    0.000 
#
# Total GULP energy -111662.318694 kJ/mol
# GULP energy per Si atom -5583.115935 kJ/mol
# Density = 2.212638 g / cm^3
# Si number density = 22.176858 Si / 1000 Ang^3
#
#
#
# Elastic Constant Matrix: (Units=GPa)
#
#
# Indices 1 2 3 4 5 6 
#
# 1 47.4825 -4.5573 12.3240 0.0000 20.3668 0.0000
# 2 -4.5573 59.0679 28.2245 0.0000 10.9472 0.0000
# 3 12.3240 28.2245 107.1677 0.0000 24.3150 0.0000
# 4 0.0000 0.0000 0.0000 34.8890 0.0000 2.0954
# 5 20.3668 10.9472 24.3150 0.0000 38.5754 0.0000
# 6 0.0000 0.0000 0.0000 2.0954 0.0000 5.6231
#
#
#
# Elastic Compliance Matrix: (Units=1/GPa)
#
#
# Indices 1 2 3 4 5 6 
#
# 1 0.028835 0.005776 -0.001180 0.000000 -0.016120 0.000000
# 2 0.005776 0.020761 -0.004788 0.000000 -0.005923 0.000000
# 3 -0.001180 -0.004788 0.011993 0.000000 -0.005578 0.000000
# 4 0.000000 0.000000 0.000000 0.029318 0.000000 -0.010925
# 5 -0.016120 -0.005923 -0.005578 0.000000 0.039631 0.000000
# 6 0.000000 0.000000 0.000000 -0.010925 0.000000 0.181908
#
#
# Mechanical properties :
#
#
# Convention : Reuss Voigt Hill
#
# Bulk Modulus (GPa) = 16.33832 31.74451 24.04141
# Shear Modulus (GPa) = 15.00453 27.66596 21.33524
#
# Velocity S-wave (km/s) = 2.60395 3.53585 3.10506
# Velocity P-wave (km/s) = 4.05265 5.56911 4.87026
#
# Compressibility (1/GPa) = 0.06120581
#
# Stress axis : x y z
#
# Youngs Moduli (GPa) = 34.67976 48.16733 83.37874
#
# Poissons Ratio (x) = -0.27821 0.09837
# Poissons Ratio (y) = -0.20031 0.39922
# Poissons Ratio (z) = 0.04092 0.23063
#
# Static dielectric constant tensor:
#      x y z
#    x 1.832200 0.000000 -0.053190 
#    y 0.000000 1.827080 0.000000 
#    z -0.053190 0.000000 1.869240 
# 
# From -- ./inp_files/85766.got.cif
#   From: 2010.05.17/outbox.cif.g08.bks.cpg/sg15_43_cif.got.tgz:85766.got - 2010.06.03 18:47:42.
