data_PCOD9288273
_publ_section_title
;
Structure prediction by ZEFSAII (Michael W. Deem and Ramdas Pophale) SiO2 
 PCOD9288273
Probable space group: C 2/C
;
_chemical_formula_sum "Si O2"
_cell_formula_units_Z 36
_cell_length_a 10.786483
_cell_length_b 19.369728
_cell_length_c 10.759860
_cell_angle_alpha 90.000000
_cell_angle_beta 128.488826
_cell_angle_gamma 90.000000
_cell_volume 1759.631525
_symmetry_space_group_name_H-M "C 2/C"
_symmetry_group_IT_number 15
_symmetry_cell_setting 'monoclinic'
loop_
_space_group_symop_operation_xyz
x,y,z
-x,y,1/2-z
-x,-y,-z
x,-y,1/2+z
1/2+x,1/2+y,z
1/2-x,1/2+y,1/2-z
1/2-x,1/2-y,-z
1/2+x,1/2-y,1/2+z
loop_
_atom_site_type_symbol
_atom_site_label
_atom_site_fract_x
_atom_site_fract_y
_atom_site_fract_z
Si Si1 0.000000 0.694419 0.750000
Si Si2 0.395496 0.674443 0.300753
Si Si3 0.132509 0.183686 0.938236
Si Si4 0.369213 0.908678 0.973473
Si Si5 0.128940 0.442856 0.942668
O O1 0.117078 0.745727 0.748870
O O2 0.898284 0.647316 0.597070
O O3 0.500000 0.646087 0.250000
O O4 0.448599 0.678650 0.476008
O O5 0.241133 0.627621 0.196763
O O6 0.000000 0.188351 0.750000
O O7 0.250000 0.250000 0.000000
O O8 0.238590 0.114851 0.992227
O O9 0.534210 0.924486 0.009194
O O10 0.307549 0.979615 0.995063
O O11 0.000000 0.444243 0.750000
#
# Coordination Sequence:
#
# PCOD9288273 Si02
#       5
#     4   8   8   8   8
#     4  10  22  38  66  96 134 176 224 278 342 398
#     4  10  25  41  67 102 141 176 233 288 344 407
#     4  12  27  47  72 102 139 183 233 287 346 414
#     4  11  22  43  68 102 136 183 230 286 341 415
#     4  11  23  44  72  98 136 184 231 281 346 411
#
# _framework density 20.458829999999999
#
# number of rings (size 3 to 8) (size 9 to 14) (size 15 to 20)
#    0.667    0.444    3.333    2.667    3.111    2.667 
#    0.000    2.222    0.000    0.000    0.000    0.000 
#    0.000    0.000    0.000    0.000    0.000    0.000 
#
# Total GULP energy -100392.186441 kJ/mol
# GULP energy per Si atom -5577.343691 kJ/mol
# Density = 2.041226 g / cm^3
# Si number density = 20.458830 Si / 1000 Ang^3
#
#
#
# Elastic Constant Matrix: (Units=GPa)
#
#
# Indices 1 2 3 4 5 6 
#
# 1 71.9262 34.4214 28.0404 0.0000 -21.6892 0.0000
# 2 34.4214 162.3177 60.7127 0.0000 2.6257 0.0000
# 3 28.0404 60.7127 163.1175 0.0000 -16.7269 0.0000
# 4 0.0000 0.0000 0.0000 0.2581 0.0000 42.5181
# 5 -21.6892 2.6257 -16.7269 0.0000 28.4556 0.0000
# 6 0.0000 0.0000 0.0000 42.5181 0.0000 -30.8616
#
#
#
# Elastic Compliance Matrix: (Units=1/GPa)
#
#
# Indices 1 2 3 4 5 6 
#
# 1 0.021188 -0.004680 -0.000213 0.000000 0.016456 0.000000
# 2 -0.004680 0.008344 -0.002922 0.000000 -0.006055 0.000000
# 3 -0.000213 -0.002922 0.007732 0.000000 0.004652 0.000000
# 4 0.000000 0.000000 0.000000 0.016997 0.000000 0.023416
# 5 0.016456 -0.006055 0.004652 0.000000 0.050979 0.000000
# 6 0.000000 0.000000 0.000000 0.023416 0.000000 -0.000142
#
#
# Mechanical properties :
#
#
# Convention : Reuss Voigt Hill
#
# Bulk Modulus (GPa) = 46.22259 71.52336 58.87298
# Shear Modulus (GPa) = 39.08124 17.84956 28.46540
#
# Velocity S-wave (km/s) = 4.37537 2.95695 3.73413
# Velocity P-wave (km/s) = 6.94026 6.83327 6.88697
#
# Compressibility (1/GPa) = 0.02163444
#
# Stress axis : x y z
#
# Youngs Moduli (GPa) = 47.19625 119.84578 129.33546
#
# Poissons Ratio (x) = 0.56085 0.02754
# Poissons Ratio (y) = 0.22087 0.37793
# Poissons Ratio (z) = 0.01005 0.35020
#
# Static dielectric constant tensor:
#      x y z
#    x 1.841480 0.000000 0.017930 
#    y 0.000000 1.717110 0.000000 
#    z 0.017930 0.000000 1.758060 
# 
# From -- ./inp_files/87642.got.cif
#   From: 2010.05.17/outbox.cif.g08.bks.cpg/sg15_44_cif.got.tgz:87642.got - 2010.06.03 18:47:42.
