data_PCOD9288417
_publ_section_title
;
Structure prediction by ZEFSAII (Michael W. Deem and Ramdas Pophale) SiO2 
 PCOD9288417
Probable space group: C 2/C
;
_chemical_formula_sum "Si O2"
_cell_formula_units_Z 40
_cell_length_a 7.541785
_cell_length_b 17.389872
_cell_length_c 17.932775
_cell_angle_alpha 90.000000
_cell_angle_beta 58.236928
_cell_angle_gamma 90.000000
_cell_volume 1999.657213
_symmetry_space_group_name_H-M "C 2/C"
_symmetry_group_IT_number 15
_symmetry_cell_setting 'monoclinic'
loop_
_space_group_symop_operation_xyz
x,y,z
-x,y,1/2-z
-x,-y,-z
x,-y,1/2+z
1/2+x,1/2+y,z
1/2-x,1/2+y,1/2-z
1/2-x,1/2-y,-z
1/2+x,1/2-y,1/2+z
loop_
_atom_site_type_symbol
_atom_site_label
_atom_site_fract_x
_atom_site_fract_y
_atom_site_fract_z
Si Si1 0.787681 0.101579 0.507143
Si Si2 0.222798 0.826587 0.921407
Si Si3 0.408318 0.017937 0.346800
Si Si4 0.828753 0.341063 0.070126
Si Si5 0.678819 0.495806 0.649689
O O1 0.193072 0.085498 0.624012
O O2 0.975207 0.158771 0.483250
O O3 0.840084 0.055341 0.419882
O O4 0.757997 0.038882 0.579088
O O5 0.313960 0.897809 0.855157
O O6 0.253380 0.741214 0.883517
O O7 0.321120 0.834154 0.982084
O O8 0.500000 0.985855 0.250000
O O9 0.598494 0.023294 0.362619
O O10 0.064357 0.357559 0.044992
O O11 0.500000 0.482338 0.750000
#
# Coordination Sequence:
#
# PCOD9288417 Si02
#       5
#     8   8   8   8   8
#     4  11  21  41  62  86 117 155 193 244 284 345
#     4  11  21  37  64  85 118 156 191 237 296 342
#     4  11  22  37  62  90 115 150 202 238 286 349
#     4  10  22  39  58  89 118 155 191 238 292 346
#     4  11  22  39  61  86 119 152 196 244 286 340
#
# _framework density 20.003428
#
# number of rings (size 3 to 8) (size 9 to 14) (size 15 to 20)
#    0.000    1.200    4.000    3.600    2.800    0.800 
#    0.000    0.000    0.000    2.400    0.000    0.000 
#    0.000    0.000    0.000    0.000    0.000    0.000 
#
# Total GULP energy -111776.175498 kJ/mol
# GULP energy per Si atom -5588.808775 kJ/mol
# Density = 1.995790 g / cm^3
# Si number density = 20.003428 Si / 1000 Ang^3
#
#
#
# Elastic Constant Matrix: (Units=GPa)
#
#
# Indices 1 2 3 4 5 6 
#
# 1 59.1917 10.6947 -16.9108 0.0000 -2.1589 0.0000
# 2 10.6947 94.4256 11.5906 0.0000 8.3654 0.0000
# 3 -16.9108 11.5906 60.2376 0.0000 12.2387 0.0000
# 4 0.0000 0.0000 0.0000 1.4045 0.0000 -11.9846
# 5 -2.1589 8.3654 12.2387 0.0000 22.6290 0.0000
# 6 0.0000 0.0000 0.0000 -11.9846 0.0000 8.2860
#
#
#
# Elastic Compliance Matrix: (Units=1/GPa)
#
#
# Indices 1 2 3 4 5 6 
#
# 1 0.019111 -0.002868 0.005989 0.000000 -0.000356 0.000000
# 2 -0.002868 0.011492 -0.002357 0.000000 -0.003247 0.000000
# 3 0.005989 -0.002357 0.020719 0.000000 -0.009763 0.000000
# 4 0.000000 0.000000 0.000000 -0.062776 0.000000 -0.090798
# 5 -0.000356 -0.003247 -0.009763 0.000000 0.050638 0.000000
# 6 0.000000 0.000000 0.000000 -0.090798 0.000000 -0.010641
#
#
# Mechanical properties :
#
#
# Convention : Reuss Voigt Hill
#
# Bulk Modulus (GPa) = 18.92117 24.95597 21.93857
# Shear Modulus (GPa) = 112.02992 20.36261 66.19626
#
# Velocity S-wave (km/s) = 7.49179 3.19400 5.75885
# Velocity P-wave (km/s) = 9.18234 5.10932 7.43036
#
# Compressibility (1/GPa) = 0.05285085
#
# Stress axis : x y z
#
# Youngs Moduli (GPa) = 52.32710 87.01580 48.26401
#
# Poissons Ratio (x) = 0.24957 -0.28906
# Poissons Ratio (y) = 0.15008 0.11374
# Poissons Ratio (z) = -0.31339 0.20507
#
# Static dielectric constant tensor:
#      x y z
#    x 1.718360 0.000000 -0.011010 
#    y 0.000000 1.715930 0.000000 
#    z -0.011010 0.000000 1.699030 
# 
# From -- ./inp_files/232429.got.cif
#   From: 2010.05.17/outbox.cif.g08.bks.cpg/sg15_117_cif.got.tgz:232429.got - 2010.06.03 18:47:42.
