data_PCOD9288685
_publ_section_title
;
Structure prediction by ZEFSAII (Michael W. Deem and Ramdas Pophale) SiO2 
 PCOD9288685
Probable space group: C 2/C
;
_chemical_formula_sum "Si O2"
_cell_formula_units_Z 60
_cell_length_a 25.187379
_cell_length_b 11.560051
_cell_length_c 29.795003
_cell_angle_alpha 90.000000
_cell_angle_beta 159.810438
_cell_angle_gamma 90.000000
_cell_volume 2994.093615
_symmetry_space_group_name_H-M "C 2/C"
_symmetry_group_IT_number 15
_symmetry_cell_setting 'monoclinic'
loop_
_space_group_symop_operation_xyz
x,y,z
-x,y,1/2-z
-x,-y,-z
x,-y,1/2+z
1/2+x,1/2+y,z
1/2-x,1/2+y,1/2-z
1/2-x,1/2-y,-z
1/2+x,1/2-y,1/2+z
loop_
_atom_site_type_symbol
_atom_site_label
_atom_site_fract_x
_atom_site_fract_y
_atom_site_fract_z
Si Si1 0.715034 0.565773 0.077925
Si Si2 0.906094 0.344915 0.083202
Si Si3 0.868063 0.508136 0.292468
Si Si4 0.956974 0.098464 0.332270
Si Si5 0.365449 0.168700 0.973600
Si Si6 0.000000 0.460771 0.250000
Si Si7 0.848556 0.993363 0.651201
Si Si8 0.818924 0.526067 0.850179
O O1 0.759370 0.532273 0.164149
O O2 0.662966 0.698352 0.038962
O O3 0.860977 0.537877 0.160877
O O4 0.575771 0.488086 0.949779
O O5 0.953844 0.217991 0.105317
O O6 0.949942 0.380024 0.168583
O O7 0.002942 0.423731 0.125436
O O8 0.731288 0.387824 0.938533
O O9 0.795651 0.449202 0.279093
O O10 0.959304 0.623433 0.381321
O O11 0.904821 0.057482 0.242367
O O12 0.794342 0.082205 0.229366
O O13 0.271003 0.095016 0.935165
O O14 0.298907 0.125990 0.872164
O O15 0.000000 0.043905 0.750000
O O16 0.000000 0.500000 0.000000
#
# Coordination Sequence:
#
# PCOD9288685 Si02
#       8
#     8   8   8   8   8   4   8   8
#     4  11  24  40  64 100 132 168 222 274 321 387
#     4  10  23  43  63  96 134 169 215 272 322 386
#     4   9  21  42  64  92 131 171 212 273 335 379
#     4  11  25  40  66  98 130 167 226 269 320 396
#     4   9  21  40  65  92 131 168 219 276 323 390
#     4  10  24  44  64  98 138 176 210 270 330 382
#     4  10  22  39  63  93 126 180 221 259 330 389
#     4   9  20  45  68  94 124 167 216 261 334 392
#
# _framework density 20.039453000000002
#
# number of rings (size 3 to 8) (size 9 to 14) (size 15 to 20)
#    0.000    2.133    0.000    1.600    9.333    2.667 
#    2.400    2.667    0.000    0.000    0.000    0.000 
#    0.000    0.000    0.000    0.000    0.000    0.000 
#
# Total GULP energy -167165.780489 kJ/mol
# GULP energy per Si atom -5572.192683 kJ/mol
# Density = 1.999384 g / cm^3
# Si number density = 20.039453 Si / 1000 Ang^3
#
#
#
# Elastic Constant Matrix: (Units=GPa)
#
#
# Indices 1 2 3 4 5 6 
#
# 1 111.8561 29.4714 25.0664 -0.0037 -5.7519 -0.0023
# 2 29.4714 140.8289 44.4527 0.0107 -5.7962 0.0057
# 3 25.0664 44.4527 93.3324 0.0188 -3.8055 0.0089
# 4 -0.0037 0.0107 0.0188 21.6195 0.0138 3.0592
# 5 -5.7519 -5.7962 -3.8055 0.0138 25.6364 0.0013
# 6 -0.0023 0.0057 0.0089 3.0592 0.0013 15.8082
#
#
#
# Elastic Compliance Matrix: (Units=1/GPa)
#
#
# Indices 1 2 3 4 5 6 
#
# 1 0.009816 -0.001385 -0.001911 0.000003 0.001606 0.000002
# 2 -0.001385 0.008596 -0.003678 -0.000002 0.001087 -0.000001
# 3 -0.001911 -0.003678 0.013007 -0.000010 0.000670 -0.000005
# 4 0.000003 -0.000002 -0.000010 0.047557 -0.000026 -0.009203
# 5 0.001606 0.001087 0.000670 -0.000026 0.039713 0.000001
# 6 0.000002 -0.000001 -0.000005 -0.009203 0.000001 0.065039
#
#
# Mechanical properties :
#
#
# Convention : Reuss Voigt Hill
#
# Bulk Modulus (GPa) = 57.23842 60.44426 58.84134
# Shear Modulus (GPa) = 24.57009 29.08127 26.82568
#
# Velocity S-wave (km/s) = 3.50535 3.81360 3.66272
# Velocity P-wave (km/s) = 6.70881 7.04411 6.87850
#
# Compressibility (1/GPa) = 0.01747078
#
# Stress axis : x y z
#
# Youngs Moduli (GPa) = 101.87688 116.32871 76.88274
#
# Poissons Ratio (x) = 0.16109 0.14694
# Poissons Ratio (y) = 0.14108 0.28278
# Poissons Ratio (z) = 0.19471 0.42786
#
# Static dielectric constant tensor:
#      x y z
#    x 1.696790 0.000000 -0.007940 
#    y 0.000000 1.710230 -0.000010 
#    z -0.007940 -0.000010 1.718410 
# 
# From -- ./inp_files/319578.got.cif
#   From: 2010.05.17/outbox.cif.g08.bks.cpg/sg15_160_cif.got.tgz:319578.got - 2010.06.03 18:47:42.
