data_PCOD9288833
_publ_section_title
;
Structure prediction by ZEFSAII (Michael W. Deem and Ramdas Pophale) SiO2 
 PCOD9288833
Probable space group: C 2/C
;
_chemical_formula_sum "Si O2"
_cell_formula_units_Z 48
_cell_length_a 23.663617
_cell_length_b 7.010068
_cell_length_c 22.512451
_cell_angle_alpha 90.000000
_cell_angle_beta 150.352291
_cell_angle_gamma 90.000000
_cell_volume 1847.302174
_symmetry_space_group_name_H-M "C 2/C"
_symmetry_group_IT_number 15
_symmetry_cell_setting 'monoclinic'
loop_
_space_group_symop_operation_xyz
x,y,z
-x,y,1/2-z
-x,-y,-z
x,-y,1/2+z
1/2+x,1/2+y,z
1/2-x,1/2+y,1/2-z
1/2-x,1/2-y,-z
1/2+x,1/2-y,1/2+z
loop_
_atom_site_type_symbol
_atom_site_label
_atom_site_fract_x
_atom_site_fract_y
_atom_site_fract_z
Si Si1 0.917735 0.074823 0.622621
Si Si2 0.195461 0.485964 0.087869
Si Si3 0.889630 0.782237 0.419869
Si Si4 0.520084 0.998746 0.830307
Si Si5 0.424149 0.524024 0.340485
Si Si6 0.258195 0.957935 0.624923
O O1 0.794170 0.999214 0.489429
O O2 0.000000 0.002653 0.750000
O O3 0.917136 0.301792 0.631932
O O4 0.984556 0.048986 0.622294
O O5 0.141318 0.561886 0.099687
O O6 0.319521 0.582020 0.203505
O O7 0.219139 0.262594 0.101365
O O8 0.109793 0.572142 0.960673
O O9 0.885601 0.856549 0.349546
O O10 0.802544 0.913109 0.379882
O O11 0.015203 0.825389 0.561179
O O12 0.500000 0.104266 0.750000
O O13 0.395658 0.969393 0.746508
#
# Coordination Sequence:
#
# PCOD9288833 Si02
#       6
#     8   8   8   8   8   8
#     4   9  19  36  67  95 127 176 219 280 336 393
#     4  11  24  41  71  98 132 184 223 273 351 394
#     4  10  25  45  66  96 140 179 223 294 327 408
#     4  10  22  39  66 103 136 176 232 280 337 413
#     4  10  22  44  65  99 136 174 235 268 345 409
#     4  10  22  43  65  98 137 174 233 281 336 408
#
# _framework density 25.983839
#
# number of rings (size 3 to 8) (size 9 to 14) (size 15 to 20)
#    0.000    2.000    1.667    0.000    7.000    2.000 
#    0.000   18.333    0.000    1.000    0.000    0.000 
#    0.000    0.000    0.000    0.000    0.000    0.000 
#
# Total GULP energy -134012.980459 kJ/mol
# GULP energy per Si atom -5583.874186 kJ/mol
# Density = 2.592470 g / cm^3
# Si number density = 25.983839 Si / 1000 Ang^3
#
#
#
# Elastic Constant Matrix: (Units=GPa)
#
#
# Indices 1 2 3 4 5 6 
#
# 1 104.9549 22.7804 44.6300 0.0000 -5.2305 0.0000
# 2 22.7804 93.7425 10.9625 0.0000 0.6606 0.0001
# 3 44.6300 10.9625 218.9121 0.0000 1.4034 0.0000
# 4 0.0000 0.0000 0.0000 5.4646 0.0000 -0.0558
# 5 -5.2305 0.6606 1.4034 0.0000 32.1423 0.0000
# 6 0.0000 0.0001 0.0000 -0.0558 0.0000 6.2005
#
#
#
# Elastic Compliance Matrix: (Units=1/GPa)
#
#
# Indices 1 2 3 4 5 6 
#
# 1 0.011070 -0.002453 -0.002147 0.000000 0.001946 0.000000
# 2 -0.002453 0.011275 -0.000061 0.000000 -0.000628 0.000000
# 3 -0.002147 -0.000061 0.005012 0.000000 -0.000567 0.000000
# 4 0.000000 0.000000 0.000000 0.183012 0.000000 0.001648
# 5 0.001946 -0.000628 -0.000567 0.000000 0.031466 0.000000
# 6 0.000000 0.000000 0.000000 0.001648 0.000000 0.161293
#
#
# Mechanical properties :
#
#
# Convention : Reuss Voigt Hill
#
# Bulk Modulus (GPa) = 55.43947 63.81726 59.62836
# Shear Modulus (GPa) = 11.94857 31.37726 21.66291
#
# Velocity S-wave (km/s) = 2.14673 3.47878 2.89053
# Velocity P-wave (km/s) = 5.24662 6.38354 5.84280
#
# Compressibility (1/GPa) = 0.01803769
#
# Stress axis : x y z
#
# Youngs Moduli (GPa) = 90.33420 88.69115 199.50837
#
# Poissons Ratio (x) = 0.21754 0.42825
# Poissons Ratio (y) = 0.22157 0.01208
# Poissons Ratio (z) = 0.19390 0.00537
#
# Static dielectric constant tensor:
#      x y z
#    x 2.046750 0.000000 -0.016730 
#    y 0.000000 2.098090 0.000000 
#    z -0.016730 0.000000 2.193350 
# 
# From -- ./inp_files/281724.got.cif
#   From: 2010.05.17/outbox.cif.g08.bks.cpg/sg15_141_cif.got.tgz:281724.got - 2010.06.03 18:47:42.
