data_PCOD9288561
_publ_section_title
;
Structure prediction by ZEFSAII (Michael W. Deem and Ramdas Pophale) SiO2 
 PCOD9288561
Probable space group: C 2/C
;
_chemical_formula_sum "Si O2"
_cell_formula_units_Z 48
_cell_length_a 25.439184
_cell_length_b 8.084080
_cell_length_c 10.982627
_cell_angle_alpha 90.000000
_cell_angle_beta 113.063008
_cell_angle_gamma 90.000000
_cell_volume 2078.083815
_symmetry_space_group_name_H-M "C 2/C"
_symmetry_group_IT_number 15
_symmetry_cell_setting 'monoclinic'
loop_
_space_group_symop_operation_xyz
x,y,z
-x,y,1/2-z
-x,-y,-z
x,-y,1/2+z
1/2+x,1/2+y,z
1/2-x,1/2+y,1/2-z
1/2-x,1/2-y,-z
1/2+x,1/2-y,1/2+z
loop_
_atom_site_type_symbol
_atom_site_label
_atom_site_fract_x
_atom_site_fract_y
_atom_site_fract_z
Si Si1 0.884133 0.109151 0.722212
Si Si2 0.911507 0.693411 0.497618
Si Si3 0.787730 0.899758 0.773013
Si Si4 0.705072 0.293983 0.060334
Si Si5 0.026432 0.131585 0.116449
Si Si6 0.619449 0.190025 0.533556
O O1 0.900072 0.227579 0.852577
O O2 0.878433 0.217880 0.595534
O O3 0.827490 0.004483 0.713057
O O4 0.937396 0.981712 0.757578
O O5 0.860598 0.772285 0.530699
O O6 0.898910 0.499480 0.492569
O O7 0.974287 0.745244 0.598775
O O8 0.725064 0.840721 0.678597
O O9 0.821441 0.735280 0.845122
O O10 0.785193 0.023465 0.883036
O O11 0.750000 0.250000 0.000000
O O12 0.072748 0.227966 0.078747
O O13 0.000000 0.000000 0.000000
#
# Coordination Sequence:
#
# PCOD9288561 Si02
#       6
#     8   8   8   8   8   8
#     4   9  21  41  64  91 125 166 206 256 318 373
#     4  10  22  39  61  94 126 158 212 263 304 376
#     4  10  22  39  62  94 125 159 213 262 305 379
#     4  11  23  41  63  88 122 167 209 257 314 367
#     4   9  20  40  62  89 123 156 204 258 305 373
#     4  11  21  39  65  92 126 165 200 255 323 376
#
# _framework density 23.098201
#
# number of rings (size 3 to 8) (size 9 to 14) (size 15 to 20)
#    0.000    2.000    0.000    3.500    0.000    6.667 
#    0.000   15.833    0.000    0.000    0.000    0.000 
#    0.000    0.000    0.000    0.000    0.000    0.000 
#
# Total GULP energy -134115.207838 kJ/mol
# GULP energy per Si atom -5588.133660 kJ/mol
# Density = 2.304563 g / cm^3
# Si number density = 23.098201 Si / 1000 Ang^3
#
#
#
# Elastic Constant Matrix: (Units=GPa)
#
#
# Indices 1 2 3 4 5 6 
#
# 1 109.3874 20.1543 35.0895 0.0000 9.1354 0.0000
# 2 20.1543 135.4446 43.2561 0.0000 5.4405 0.0000
# 3 35.0895 43.2561 54.9809 0.0000 -1.5327 0.0000
# 4 0.0000 0.0000 0.0000 23.1492 0.0000 7.1593
# 5 9.1354 5.4405 -1.5327 0.0000 32.6057 0.0000
# 6 0.0000 0.0000 0.0000 7.1593 0.0000 38.1642
#
#
#
# Elastic Compliance Matrix: (Units=1/GPa)
#
#
# Indices 1 2 3 4 5 6 
#
# 1 0.012056 0.001147 -0.008707 0.000000 -0.003978 0.000000
# 2 0.001147 0.010103 -0.008748 0.000000 -0.002418 0.000000
# 3 -0.008707 -0.008748 0.030777 0.000000 0.005346 0.000000
# 4 0.000000 0.000000 0.000000 0.045859 0.000000 -0.008603
# 5 -0.003978 -0.002418 0.005346 0.000000 0.032439 0.000000
# 6 0.000000 0.000000 0.000000 -0.008603 0.000000 0.027816
#
#
# Mechanical properties :
#
#
# Convention : Reuss Voigt Hill
#
# Bulk Modulus (GPa) = 49.21564 55.20142 52.20853
# Shear Modulus (GPa) = 25.19648 32.20468 28.70058
#
# Velocity S-wave (km/s) = 3.30637 3.73802 3.52880
# Velocity P-wave (km/s) = 5.99412 6.52540 6.26539
#
# Compressibility (1/GPa) = 0.02031875
#
# Stress axis : x y z
#
# Youngs Moduli (GPa) = 82.94653 98.97629 32.49198
#
# Poissons Ratio (x) = -0.11349 0.28292
# Poissons Ratio (y) = -0.09511 0.28424
# Poissons Ratio (z) = 0.72224 0.86585
#
# Static dielectric constant tensor:
#      x y z
#    x 1.788520 0.000000 -0.045760 
#    y 0.000000 1.824070 0.000000 
#    z -0.045760 0.000000 2.009470 
# 
# From -- ./inp_files/116793.got.cif
#   From: 2010.05.17/outbox.cif.g08.bks.cpg/sg15_59_cif.got.tgz:116793.got - 2010.06.03 18:47:42.
