data_PCOD9288215
_publ_section_title
;
Structure prediction by ZEFSAII (Michael W. Deem and Ramdas Pophale) SiO2 
 PCOD9288215
Probable space group: C 2/C
;
_chemical_formula_sum "Si O2"
_cell_formula_units_Z 44
_cell_length_a 11.560426
_cell_length_b 13.929878
_cell_length_c 13.834899
_cell_angle_alpha 90.000000
_cell_angle_beta 104.798377
_cell_angle_gamma 90.000000
_cell_volume 2154.009141
_symmetry_space_group_name_H-M "C 2/C"
_symmetry_group_IT_number 15
_symmetry_cell_setting 'monoclinic'
loop_
_space_group_symop_operation_xyz
x,y,z
-x,y,1/2-z
-x,-y,-z
x,-y,1/2+z
1/2+x,1/2+y,z
1/2-x,1/2+y,1/2-z
1/2-x,1/2-y,-z
1/2+x,1/2-y,1/2+z
loop_
_atom_site_type_symbol
_atom_site_label
_atom_site_fract_x
_atom_site_fract_y
_atom_site_fract_z
Si Si1 0.733179 0.884631 0.918625
Si Si2 0.361282 0.270605 0.591759
Si Si3 0.000000 0.875557 0.250000
Si Si4 0.728380 0.259486 0.259914
Si Si5 0.600530 0.789585 0.043856
Si Si6 0.601792 0.490774 0.941190
O O1 0.717709 0.848026 0.805351
O O2 0.846165 0.815312 0.973282
O O3 0.777694 0.984155 0.971782
O O4 0.615853 0.852536 0.952139
O O5 0.250000 0.250000 0.500000
O O6 0.315280 0.242627 0.687600
O O7 0.475638 0.217534 0.570458
O O8 0.391971 0.382975 0.596414
O O9 0.900228 0.808115 0.279975
O O10 0.934546 0.941541 0.156388
O O11 0.798943 0.319894 0.357036
O O12 0.500000 0.500000 0.000000
#
# Coordination Sequence:
#
# PCOD9288215 Si02
#       6
#     8   8   4   8   8   8
#     4   9  19  39  64  88 125 170 204 259 326 377
#     4  12  26  39  62  98 133 170 213 268 325 385
#     4  12  24  40  72 100 118 168 226 266 312 396
#     4  10  22  38  65  91 129 167 211 260 337 373
#     4   9  18  39  60  89 123 171 199 255 332 373
#     4  12  23  39  65 100 129 161 225 276 308 377
#
# _framework density 20.427026000000001
#
# number of rings (size 3 to 8) (size 9 to 14) (size 15 to 20)
#    1.091    0.364    3.636    1.636    7.636    0.000 
#    0.000    0.909    0.000    0.000    0.000    0.000 
#    0.000    0.000    0.000    0.000    0.000    0.000 
#
# Total GULP energy -122492.767551 kJ/mol
# GULP energy per Si atom -5567.853070 kJ/mol
# Density = 2.038053 g / cm^3
# Si number density = 20.427026 Si / 1000 Ang^3
#
#
#
# Elastic Constant Matrix: (Units=GPa)
#
#
# Indices 1 2 3 4 5 6 
#
# 1 144.0604 27.7288 31.4438 0.0000 -30.8496 0.0000
# 2 27.7288 23.3066 2.6610 0.0000 -0.6125 0.0000
# 3 31.4438 2.6610 76.9219 0.0000 -23.6414 0.0000
# 4 0.0000 0.0000 0.0000 22.9851 0.0000 6.0357
# 5 -30.8496 -0.6125 -23.6414 0.0000 44.7190 0.0000
# 6 0.0000 0.0000 0.0000 6.0357 0.0000 23.3049
#
#
#
# Elastic Compliance Matrix: (Units=1/GPa)
#
#
# Indices 1 2 3 4 5 6 
#
# 1 0.011315 -0.013042 -0.002185 0.000000 0.006472 0.000000
# 2 -0.013042 0.058111 0.000956 0.000000 -0.007696 0.000000
# 3 -0.002185 0.000956 0.016001 0.000000 0.006965 0.000000
# 4 0.000000 0.000000 0.000000 0.046681 0.000000 -0.012090
# 5 0.006472 -0.007696 0.006965 0.000000 0.030403 0.000000
# 6 0.000000 0.000000 0.000000 -0.012090 0.000000 0.046041
#
#
# Mechanical properties :
#
#
# Convention : Reuss Voigt Hill
#
# Bulk Modulus (GPa) = 17.57945 40.88399 29.23172
# Shear Modulus (GPa) = 19.52700 30.36550 24.94625
#
# Velocity S-wave (km/s) = 3.09518 3.85974 3.49841
# Velocity P-wave (km/s) = 4.62582 6.31835 5.53714
#
# Compressibility (1/GPa) = 0.05688461
#
# Stress axis : x y z
#
# Youngs Moduli (GPa) = 88.38116 17.20830 62.49645
#
# Poissons Ratio (x) = 0.22443 0.13655
# Poissons Ratio (y) = 1.15266 -0.05973
# Poissons Ratio (z) = 0.19311 -0.01645
#
# Static dielectric constant tensor:
#      x y z
#    x 1.748960 0.000000 0.004320 
#    y 0.000000 1.803940 0.000000 
#    z 0.004320 0.000000 1.826650 
# 
# From -- ./inp_files/143042.got.cif
#   From: 2010.05.17/outbox.cif.g08.bks.cpg/sg15_72_cif.got.tgz:143042.got - 2010.06.03 18:47:42.
