data_PCOD9288132
_publ_section_title
;
Structure prediction by ZEFSAII (Michael W. Deem and Ramdas Pophale) SiO2 
 PCOD9288132
Probable space group: C 2/C
;
_chemical_formula_sum "Si O2"
_cell_formula_units_Z 56
_cell_length_a 13.533546
_cell_length_b 12.209070
_cell_length_c 29.178011
_cell_angle_alpha 90.000000
_cell_angle_beta 33.383433
_cell_angle_gamma 90.000000
_cell_volume 2652.781585
_symmetry_space_group_name_H-M "C 2/C"
_symmetry_group_IT_number 15
_symmetry_cell_setting 'monoclinic'
loop_
_space_group_symop_operation_xyz
x,y,z
-x,y,1/2-z
-x,-y,-z
x,-y,1/2+z
1/2+x,1/2+y,z
1/2-x,1/2+y,1/2-z
1/2-x,1/2-y,-z
1/2+x,1/2-y,1/2+z
loop_
_atom_site_type_symbol
_atom_site_label
_atom_site_fract_x
_atom_site_fract_y
_atom_site_fract_z
Si Si1 0.764725 0.741594 0.572074
Si Si2 0.641384 0.128699 0.591479
Si Si3 0.974083 0.723753 0.953368
Si Si4 0.957132 0.562871 0.315951
Si Si5 0.886639 0.230227 0.247501
Si Si6 0.003581 0.156001 0.900271
Si Si7 0.366358 0.414165 0.674017
O O1 0.645779 0.823578 0.648758
O O2 0.890722 0.811137 0.488828
O O3 0.626410 0.677902 0.593008
O O4 0.895532 0.681896 0.557448
O O5 0.803352 0.210927 0.539317
O O6 0.602541 0.134114 0.552434
O O7 0.467414 0.173072 0.684940
O O8 0.665336 0.011087 0.604066
O O9 0.069969 0.816633 0.884497
O O10 0.000000 0.511457 0.250000
O O11 0.152004 0.582453 0.260996
O O12 0.678491 0.264427 0.333344
O O13 0.923672 0.121626 0.202874
O O14 0.000000 0.226093 0.250000
O O15 0.064473 0.029585 0.872354
#
# Coordination Sequence:
#
# PCOD9288132 Si02
#       7
#     8   8   8   8   8   8   8
#     4  11  24  41  64  92 125 162 201 257 305 366
#     4  10  22  38  64  90 122 157 205 255 300 365
#     4  10  22  41  62  91 122 158 203 252 308 360
#     4  12  22  37  64  96 121 161 206 255 304 359
#     4  11  22  40  62  88 121 165 208 250 303 366
#     4  11  24  42  62  90 127 162 205 251 310 362
#     4  11  23  40  59  91 126 156 204 256 300 367
#
# _framework density 21.109918
#
# number of rings (size 3 to 8) (size 9 to 14) (size 15 to 20)
#    0.000    1.143    4.286    2.143    2.000    1.143 
#    2.571    0.000    0.000    6.000    0.000    0.000 
#    0.000    0.000    0.000    0.000    0.000    0.000 
#
# Total GULP energy -156292.238629 kJ/mol
# GULP energy per Si atom -5581.865665 kJ/mol
# Density = 2.106187 g / cm^3
# Si number density = 21.109918 Si / 1000 Ang^3
#
#
#
# Elastic Constant Matrix: (Units=GPa)
#
#
# Indices 1 2 3 4 5 6 
#
# 1 128.8848 4.3756 10.8929 0.0002 -7.6772 0.0000
# 2 4.3756 24.0863 -2.5612 -0.0001 11.2576 0.0000
# 3 10.8929 -2.5612 76.8837 0.0007 -3.8926 0.0001
# 4 0.0002 -0.0001 0.0007 14.8285 0.0001 1.4508
# 5 -7.6772 11.2576 -3.8926 0.0001 22.7146 0.0000
# 6 0.0000 0.0000 0.0001 1.4508 0.0000 13.5487
#
#
#
# Elastic Compliance Matrix: (Units=1/GPa)
#
#
# Indices 1 2 3 4 5 6 
#
# 1 0.008237 -0.003677 -0.001066 0.000000 0.004424 0.000000
# 2 -0.003677 0.055691 0.000924 0.000001 -0.028685 0.000000
# 3 -0.001066 0.000924 0.013262 -0.000001 0.001455 0.000000
# 4 0.000000 0.000001 -0.000001 0.068152 -0.000001 -0.007298
# 5 0.004424 -0.028685 0.001455 -0.000001 0.059986 0.000000
# 6 0.000000 0.000000 0.000000 -0.007298 0.000000 0.074589
#
#
# Mechanical properties :
#
#
# Convention : Reuss Voigt Hill
#
# Bulk Modulus (GPa) = 14.37779 28.36329 21.37054
# Shear Modulus (GPa) = 16.09067 24.69486 20.39277
#
# Velocity S-wave (km/s) = 2.76385 3.42398 3.11147
# Velocity P-wave (km/s) = 4.12442 5.39413 4.80143
#
# Compressibility (1/GPa) = 0.06955171
#
# Stress axis : x y z
#
# Youngs Moduli (GPa) = 121.39897 17.95631 75.40311
#
# Poissons Ratio (x) = 0.06603 0.08035
# Poissons Ratio (y) = 0.44644 -0.06966
# Poissons Ratio (z) = 0.12936 -0.01659
#
# Static dielectric constant tensor:
#      x y z
#    x 1.813580 0.000000 0.007640 
#    y 0.000000 1.788610 0.000000 
#    z 0.007640 0.000000 1.751560 
# 
# From -- ./inp_files/197767.got.cif
#   From: 2010.05.17/outbox.cif.g08.bks.cpg/sg15_99_cif.got.tgz:197767.got - 2010.06.03 18:47:42.
