data_PCOD9288731
_publ_section_title
;
Structure prediction by ZEFSAII (Michael W. Deem and Ramdas Pophale) SiO2 
 PCOD9288731
Probable space group: C 2/C
;
_chemical_formula_sum "Si O2"
_cell_formula_units_Z 52
_cell_length_a 13.856697
_cell_length_b 26.227412
_cell_length_c 8.370846
_cell_angle_alpha 90.000000
_cell_angle_beta 65.175449
_cell_angle_gamma 90.000000
_cell_volume 2761.072939
_symmetry_space_group_name_H-M "C 2/C"
_symmetry_group_IT_number 15
_symmetry_cell_setting 'monoclinic'
loop_
_space_group_symop_operation_xyz
x,y,z
-x,y,1/2-z
-x,-y,-z
x,-y,1/2+z
1/2+x,1/2+y,z
1/2-x,1/2+y,1/2-z
1/2-x,1/2-y,-z
1/2+x,1/2-y,1/2+z
loop_
_atom_site_type_symbol
_atom_site_label
_atom_site_fract_x
_atom_site_fract_y
_atom_site_fract_z
Si Si1 0.000000 0.705472 0.250000
Si Si2 0.746427 0.013658 0.371132
Si Si3 0.000000 0.760037 0.750000
Si Si4 0.095184 0.963147 0.997363
Si Si5 0.117682 0.563118 0.738494
Si Si6 0.867778 0.678428 0.640642
Si Si7 0.624747 0.291270 0.357739
Si Si8 0.000000 0.126268 0.750000
O O1 0.921996 0.675936 0.426715
O O2 0.922271 0.741211 0.197603
O O3 0.808453 0.043628 0.191924
O O4 0.693439 0.050215 0.536786
O O5 0.843597 0.985214 0.391525
O O6 0.661850 0.974610 0.348284
O O7 0.066130 0.721366 0.812947
O O8 0.077417 0.790236 0.572097
O O9 0.049022 0.909892 0.082496
O O10 0.000000 0.000000 0.000000
O O11 0.125355 0.621714 0.789470
O O12 0.000000 0.552663 0.750000
O O13 0.749591 0.700800 0.745642
O O14 0.579414 0.338131 0.288971
#
# Coordination Sequence:
#
# PCOD9288731 Si02
#       8
#     4   8   4   8   8   8   8   4
#     4   9  22  42  62  91 121 160 200 260 313 364
#     4  10  23  39  63  86 123 163 208 249 317 351
#     4  10  22  42  61  93 121 159 202 260 310 360
#     4  11  20  39  61  90 125 163 199 253 303 366
#     4  11  23  43  59  90 120 165 208 264 299 370
#     4  11  21  41  65  88 122 158 211 246 315 370
#     4  10  22  39  64  90 126 157 201 253 308 370
#     4  11  22  38  57  94 124 161 202 238 305 382
#
# _framework density 18.833258000000001
#
# number of rings (size 3 to 8) (size 9 to 14) (size 15 to 20)
#    0.000    1.538    2.308    2.308    2.154    1.231 
#    9.692    1.538    0.000    0.000    0.000    0.000 
#    0.000    0.000    0.000    0.000    0.000    0.000 
#
# Total GULP energy -144839.521795 kJ/mol
# GULP energy per Si atom -5570.750838 kJ/mol
# Density = 1.879039 g / cm^3
# Si number density = 18.833258 Si / 1000 Ang^3
#
#
#
# Elastic Constant Matrix: (Units=GPa)
#
#
# Indices 1 2 3 4 5 6 
#
# 1 124.4494 40.0888 45.7093 0.0000 -11.7623 0.0000
# 2 40.0888 83.3701 43.3231 0.0000 -8.3379 0.0000
# 3 45.7093 43.3231 122.8123 0.0000 -8.2494 0.0000
# 4 0.0000 0.0000 0.0000 12.1426 0.0000 -0.0923
# 5 -11.7623 -8.3379 -8.2494 0.0000 29.9235 0.0000
# 6 0.0000 0.0000 0.0000 -0.0923 0.0000 10.0824
#
#
#
# Elastic Compliance Matrix: (Units=1/GPa)
#
#
# Indices 1 2 3 4 5 6 
#
# 1 0.010266 -0.003421 -0.002452 0.000000 0.002406 0.000000
# 2 -0.003421 0.016047 -0.004256 0.000000 0.001953 0.000000
# 3 -0.002452 -0.004256 0.010609 0.000000 0.000775 0.000000
# 4 0.000000 0.000000 0.000000 0.082360 0.000000 0.000754
# 5 0.002406 0.001953 0.000775 0.000000 0.035122 0.000000
# 6 0.000000 0.000000 0.000000 0.000754 0.000000 0.099190
#
#
# Mechanical properties :
#
#
# Convention : Reuss Voigt Hill
#
# Bulk Modulus (GPa) = 60.01772 65.43047 62.72410
# Shear Modulus (GPa) = 17.89506 23.86372 20.87939
#
# Velocity S-wave (km/s) = 3.08585 3.56350 3.33324
# Velocity P-wave (km/s) = 6.68085 7.19367 6.94199
#
# Compressibility (1/GPa) = 0.01666175
#
# Stress axis : x y z
#
# Youngs Moduli (GPa) = 97.41289 62.31739 94.26296
#
# Poissons Ratio (x) = 0.21321 0.23115
# Poissons Ratio (y) = 0.33328 0.40119
# Poissons Ratio (z) = 0.23888 0.26523
#
# Static dielectric constant tensor:
#      x y z
#    x 1.693960 0.000000 0.004810 
#    y 0.000000 1.632440 0.000000 
#    z 0.004810 0.000000 1.700460 
# 
# From -- ./inp_files/42085.got.cif
#   From: 2010.05.17/outbox.cif.g08.bks.cpg/sg15_22_cif.got.tgz:42085.got - 2010.06.03 18:47:42.
