data_PCOD9288151
_publ_section_title
;
Structure prediction by ZEFSAII (Michael W. Deem and Ramdas Pophale) SiO2 
 PCOD9288151
Probable space group: C 2/C
;
_chemical_formula_sum "Si O2"
_cell_formula_units_Z 60
_cell_length_a 23.806953
_cell_length_b 13.715583
_cell_length_c 28.421943
_cell_angle_alpha 90.000000
_cell_angle_beta 160.125059
_cell_angle_gamma 90.000000
_cell_volume 3155.079002
_symmetry_space_group_name_H-M "C 2/C"
_symmetry_group_IT_number 15
_symmetry_cell_setting 'monoclinic'
loop_
_space_group_symop_operation_xyz
x,y,z
-x,y,1/2-z
-x,-y,-z
x,-y,1/2+z
1/2+x,1/2+y,z
1/2-x,1/2+y,1/2-z
1/2-x,1/2-y,-z
1/2+x,1/2-y,1/2+z
loop_
_atom_site_type_symbol
_atom_site_label
_atom_site_fract_x
_atom_site_fract_y
_atom_site_fract_z
Si Si1 0.052495 0.266190 0.975642
Si Si2 0.133578 0.340421 0.892295
Si Si3 0.281942 0.524608 0.232100
Si Si4 0.366401 0.952493 0.517816
Si Si5 0.999418 0.604870 0.557410
Si Si6 0.500000 0.426654 0.250000
Si Si7 0.944111 0.895246 0.101414
Si Si8 0.333427 0.295830 0.832481
O O1 0.065760 0.195015 0.941756
O O2 0.857021 0.274195 0.829879
O O3 0.121775 0.372816 0.015545
O O4 0.138657 0.222372 0.089811
O O5 0.061273 0.392914 0.881105
O O6 0.000000 0.307863 0.750000
O O7 0.250000 0.250000 0.000000
O O8 0.251878 0.418259 0.958854
O O9 0.158272 0.445684 0.157799
O O10 0.431257 0.472931 0.322330
O O11 0.354953 0.595562 0.329665
O O12 0.162174 0.584145 0.102083
O O13 0.001758 0.874997 0.200407
O O14 0.463165 0.046566 0.576604
O O15 0.045776 0.717806 0.596930
O O16 0.678896 0.477836 0.385937
#
# Coordination Sequence:
#
# PCOD9288151 Si02
#       8
#     8   8   8   8   8   4   8   8
#     4  12  23  37  61  94 135 163 205 255 319 377
#     4  11  26  39  61  96 131 172 214 262 326 387
#     4  11  22  40  64  93 125 171 211 262 321 384
#     4  11  22  38  65  91 131 170 212 260 312 388
#     4  11  21  41  64  91 129 168 216 258 321 391
#     4  10  22  38  64  94 116 172 218 252 316 374
#     4  11  23  37  62  91 133 159 215 257 314 385
#     4  12  24  40  62  96 126 170 208 261 315 385
#
# _framework density 19.016956
#
# number of rings (size 3 to 8) (size 9 to 14) (size 15 to 20)
#    0.000    0.800    6.667    1.600    5.600    0.533 
#    2.400    0.000    0.000    3.200    3.467    0.000 
#    0.000    0.000    0.000    0.000    0.000    0.000 
#
# Total GULP energy -167231.345009 kJ/mol
# GULP energy per Si atom -5574.378167 kJ/mol
# Density = 1.897367 g / cm^3
# Si number density = 19.016956 Si / 1000 Ang^3
#
#
#
# Elastic Constant Matrix: (Units=GPa)
#
#
# Indices 1 2 3 4 5 6 
#
# 1 108.3071 42.4298 35.5269 -0.0018 -6.3085 -0.0003
# 2 42.4298 57.4893 21.0663 0.0044 -0.3084 0.0065
# 3 35.5269 21.0663 88.5404 -0.0094 2.4985 -0.0008
# 4 -0.0018 0.0044 -0.0094 20.0786 -0.0097 2.0453
# 5 -6.3085 -0.3084 2.4985 -0.0097 29.2319 -0.0034
# 6 -0.0003 0.0065 -0.0008 2.0453 -0.0034 37.8483
#
#
#
# Elastic Compliance Matrix: (Units=1/GPa)
#
#
# Indices 1 2 3 4 5 6 
#
# 1 0.014184 -0.009127 -0.003612 0.000003 0.003274 0.000002
# 2 -0.009127 0.024940 -0.002229 -0.000008 -0.001516 -0.000004
# 3 -0.003612 -0.002229 0.013329 0.000005 -0.001942 0.000000
# 4 0.000003 -0.000008 0.000005 0.050080 0.000016 -0.002706
# 5 0.003274 -0.001516 -0.001942 0.000016 0.035066 0.000002
# 6 0.000002 -0.000004 0.000000 -0.002706 0.000002 0.026568
#
#
# Mechanical properties :
#
#
# Convention : Reuss Voigt Hill
#
# Bulk Modulus (GPa) = 44.41276 50.26476 47.33876
# Shear Modulus (GPa) = 24.80066 27.78601 26.29334
#
# Velocity S-wave (km/s) = 3.61520 3.82660 3.72240
# Velocity P-wave (km/s) = 6.38993 6.78327 6.58954
#
# Compressibility (1/GPa) = 0.02251605
#
# Stress axis : x y z
#
# Youngs Moduli (GPa) = 70.50078 40.09697 75.02600
#
# Poissons Ratio (x) = 0.36598 0.27100
# Poissons Ratio (y) = 0.64349 0.16721
# Poissons Ratio (z) = 0.25466 0.08936
#
# Static dielectric constant tensor:
#      x y z
#    x 1.715700 0.000000 0.002650 
#    y 0.000000 1.672120 -0.000010 
#    z 0.002650 -0.000010 1.724070 
# 
# From -- ./inp_files/302365.got.cif
#   From: 2010.05.17/outbox.cif.g08.bks.cpg/sg15_152_cif.got.tgz:302365.got - 2010.06.03 18:47:42.
