data_PCOD9288406
_publ_section_title
;
Structure prediction by ZEFSAII (Michael W. Deem and Ramdas Pophale) SiO2 
 PCOD9288406
Probable space group: C 2/C
;
_chemical_formula_sum "Si O2"
_cell_formula_units_Z 52
_cell_length_a 13.672413
_cell_length_b 8.326461
_cell_length_c 27.742582
_cell_angle_alpha 90.000000
_cell_angle_beta 130.118930
_cell_angle_gamma 90.000000
_cell_volume 2415.174103
_symmetry_space_group_name_H-M "C 2/C"
_symmetry_group_IT_number 15
_symmetry_cell_setting 'monoclinic'
loop_
_space_group_symop_operation_xyz
x,y,z
-x,y,1/2-z
-x,-y,-z
x,-y,1/2+z
1/2+x,1/2+y,z
1/2-x,1/2+y,1/2-z
1/2-x,1/2-y,-z
1/2+x,1/2-y,1/2+z
loop_
_atom_site_type_symbol
_atom_site_label
_atom_site_fract_x
_atom_site_fract_y
_atom_site_fract_z
Si Si1 0.883799 0.617434 0.477380
Si Si2 0.117565 0.960106 0.860738
Si Si3 0.660108 0.956242 0.220606
Si Si4 0.428800 0.314340 0.329050
Si Si5 0.000000 0.264283 0.250000
Si Si6 0.953898 0.228312 0.389133
Si Si7 0.417694 0.573381 0.929963
O O1 0.754360 0.519354 0.428891
O O2 0.934900 0.689659 0.543624
O O3 0.000000 0.500000 0.500000
O O4 0.851673 0.776379 0.435038
O O5 0.103326 0.853501 0.808275
O O6 0.030335 0.863741 0.871573
O O7 0.045330 0.128724 0.832888
O O8 0.806829 0.929248 0.281099
O O9 0.573194 0.874095 0.234448
O O10 0.633938 0.860522 0.162951
O O11 0.619473 0.137781 0.198398
O O12 0.470871 0.338053 0.398497
O O13 0.871879 0.096720 0.392957
O O14 0.500000 0.500000 0.000000
#
# Coordination Sequence:
#
# PCOD9288406 Si02
#       7
#     8   8   8   8   4   8   8
#     4  11  21  36  60  88 118 155 203 255 303 358
#     4  10  22  39  58  82 119 157 198 246 302 361
#     4  11  22  40  66  92 124 161 205 252 311 374
#     4  11  22  40  63  91 123 162 201 251 309 372
#     4  10  22  40  62  90 118 158 204 258 310 364
#     4   9  20  39  60  85 116 157 198 244 304 368
#     4   9  19  37  60  87 119 157 203 251 305 363
#
# _framework density 21.530539000000001
#
# number of rings (size 3 to 8) (size 9 to 14) (size 15 to 20)
#    0.000    1.846    0.000    5.077    0.000    1.846 
#    0.000   20.769    0.000    0.000    0.000    0.000 
#    0.000    0.000    0.000    0.000    0.000    0.000 
#
# Total GULP energy -144813.951881 kJ/mol
# GULP energy per Si atom -5569.767380 kJ/mol
# Density = 2.148153 g / cm^3
# Si number density = 21.530539 Si / 1000 Ang^3
#
#
#
# Elastic Constant Matrix: (Units=GPa)
#
#
# Indices 1 2 3 4 5 6 
#
# 1 28.3357 30.0033 32.4645 0.0000 5.5239 0.0000
# 2 30.0033 125.0180 56.4056 0.0000 -1.0519 0.0000
# 3 32.4645 56.4056 130.5528 0.0000 3.3381 0.0000
# 4 0.0000 0.0000 0.0000 33.3695 0.0000 -1.9668
# 5 5.5239 -1.0519 3.3381 0.0000 41.9929 0.0000
# 6 0.0000 0.0000 0.0000 -1.9668 0.0000 21.3670
#
#
#
# Elastic Compliance Matrix: (Units=1/GPa)
#
#
# Indices 1 2 3 4 5 6 
#
# 1 0.058454 -0.009455 -0.010269 0.000000 -0.007110 0.000000
# 2 -0.009455 0.011480 -0.002653 0.000000 0.001742 0.000000
# 3 -0.010269 -0.002653 0.011350 0.000000 0.000382 0.000000
# 4 0.000000 0.000000 0.000000 0.030131 0.000000 0.002773
# 5 -0.007110 0.001742 0.000382 0.000000 0.024762 0.000000
# 6 0.000000 0.000000 0.000000 0.002773 0.000000 0.047057
#
#
# Mechanical properties :
#
#
# Convention : Reuss Voigt Hill
#
# Bulk Modulus (GPa) = 27.37541 57.96149 42.66845
# Shear Modulus (GPa) = 20.81913 30.34808 25.58361
#
# Velocity S-wave (km/s) = 3.11297 3.75845 3.45084
# Velocity P-wave (km/s) = 5.06587 6.76858 5.97816
#
# Compressibility (1/GPa) = 0.03652913
#
# Stress axis : x y z
#
# Youngs Moduli (GPa) = 17.10750 87.11006 88.10716
#
# Poissons Ratio (x) = 0.82364 0.90475
# Poissons Ratio (y) = 0.16175 0.23376
# Poissons Ratio (z) = 0.17567 0.23112
#
# Static dielectric constant tensor:
#      x y z
#    x 1.815730 0.000000 -0.035810 
#    y 0.000000 1.848020 0.000000 
#    z -0.035810 0.000000 1.850240 
# 
# From -- ./inp_files/295018.got.cif
#   From: 2010.05.17/outbox.cif.g08.bks.cpg/sg15_148_cif.got.tgz:295018.got - 2010.06.03 18:47:42.
