data_PCOD9288765
_publ_section_title
;
Structure prediction by ZEFSAII (Michael W. Deem and Ramdas Pophale) SiO2 
 PCOD9288765
Probable space group: C 2/C
;
_chemical_formula_sum "Si O2"
_cell_formula_units_Z 44
_cell_length_a 12.312518
_cell_length_b 29.215894
_cell_length_c 5.788373
_cell_angle_alpha 90.000000
_cell_angle_beta 91.639197
_cell_angle_gamma 90.000000
_cell_volume 2081.348523
_symmetry_space_group_name_H-M "C 2/C"
_symmetry_group_IT_number 15
_symmetry_cell_setting 'monoclinic'
loop_
_space_group_symop_operation_xyz
x,y,z
-x,y,1/2-z
-x,-y,-z
x,-y,1/2+z
1/2+x,1/2+y,z
1/2-x,1/2+y,1/2-z
1/2-x,1/2-y,-z
1/2+x,1/2-y,1/2+z
loop_
_atom_site_type_symbol
_atom_site_label
_atom_site_fract_x
_atom_site_fract_y
_atom_site_fract_z
Si Si1 0.873522 0.483344 0.470918
Si Si2 0.500000 0.334246 0.250000
Si Si3 0.113037 0.678759 0.682298
Si Si4 0.649385 0.723143 0.112503
Si Si5 0.799732 0.856514 0.520149
Si Si6 0.124665 0.609374 0.329457
O O1 0.829779 0.501372 0.222312
O O2 0.858946 0.428608 0.472804
O O3 0.000000 0.500000 0.500000
O O4 0.571455 0.301195 0.420834
O O5 0.414774 0.364123 0.397130
O O6 0.103644 0.731972 0.732740
O O7 0.125589 0.661363 0.422126
O O8 0.000000 0.656040 0.750000
O O9 0.216318 0.660791 0.822831
O O10 0.675107 0.684657 0.301013
O O11 0.750000 0.750000 0.000000
O O12 0.724698 0.892952 0.655266
O O13 0.000000 0.600245 0.250000
#
# Coordination Sequence:
#
# PCOD9288765 Si02
#       6
#     8   4   8   8   8   8
#     4  10  22  39  64  95 142 184 213 271 357 435
#     4  12  26  44  64  82 132 174 234 278 336 402
#     4  12  25  36  62  91 131 168 223 281 337 398
#     4  12  25  42  61  90 124 181 225 283 340 391
#     4  12  25  43  61  91 129 176 232 277 338 398
#     4  12  24  38  63  99 134 169 225 277 344 416
#
# _framework density 21.140139999999999
#
# number of rings (size 3 to 8) (size 9 to 14) (size 15 to 20)
#    0.000    0.364    7.273    2.182    8.909    0.000 
#    0.000    0.000    0.000    0.000    0.000    1.273 
#    0.000    0.000    0.000    0.000    0.000    0.000 
#
# Total GULP energy -122499.410612 kJ/mol
# GULP energy per Si atom -5568.155028 kJ/mol
# Density = 2.109202 g / cm^3
# Si number density = 21.140140 Si / 1000 Ang^3
#
#
#
# Elastic Constant Matrix: (Units=GPa)
#
#
# Indices 1 2 3 4 5 6 
#
# 1 146.9590 12.6898 35.3525 0.0000 -24.8524 0.0000
# 2 12.6898 66.0042 10.0592 0.0000 -5.8782 0.0000
# 3 35.3525 10.0592 82.1897 0.0000 -0.1944 0.0000
# 4 0.0000 0.0000 0.0000 20.0990 0.0000 -5.4308
# 5 -24.8524 -5.8782 -0.1944 0.0000 37.8059 0.0000
# 6 0.0000 0.0000 0.0000 -5.4308 0.0000 -11.1798
#
#
#
# Elastic Compliance Matrix: (Units=1/GPa)
#
#
# Indices 1 2 3 4 5 6 
#
# 1 0.008680 -0.000615 -0.003645 0.000000 0.005592 0.000000
# 2 -0.000615 0.015701 -0.001652 0.000000 0.002028 0.000000
# 3 -0.003645 -0.001652 0.013931 0.000000 -0.002581 0.000000
# 4 0.000000 0.000000 0.000000 0.043981 0.000000 -0.021364
# 5 0.005592 0.002028 -0.002581 0.000000 0.030429 0.000000
# 6 0.000000 0.000000 0.000000 -0.021364 0.000000 -0.079069
#
#
# Mechanical properties :
#
#
# Convention : Reuss Voigt Hill
#
# Bulk Modulus (GPa) = 37.75410 45.70619 41.73014
# Shear Modulus (GPa) = 92.06754 25.14844 58.60799
#
# Velocity S-wave (km/s) = 6.60648 3.45281 5.27103
# Velocity P-wave (km/s) = 8.72307 6.12890 7.53841
#
# Compressibility (1/GPa) = 0.02648719
#
# Stress axis : x y z
#
# Youngs Moduli (GPa) = 115.20411 63.68905 71.78249
#
# Poissons Ratio (x) = 0.03919 0.26166
# Poissons Ratio (y) = 0.07089 0.11860
# Poissons Ratio (z) = 0.41993 0.10523
#
# Static dielectric constant tensor:
#      x y z
#    x 1.976480 0.000000 -0.158650 
#    y 0.000000 2.262380 0.000000 
#    z -0.158650 0.000000 1.863490 
# 
# From -- ./inp_files/5867.got.cif
#   From: 2010.05.17/outbox.cif.g08.bks.cpg/sg15_3_cif.got.tgz:5867.got - 2010.06.03 18:47:42.
