data_PCOD9288045
_publ_section_title
;
Structure prediction by ZEFSAII (Michael W. Deem and Ramdas Pophale) SiO2 
 PCOD9288045
Probable space group: C 2/C
;
_chemical_formula_sum "Si O2"
_cell_formula_units_Z 60
_cell_length_a 25.221528
_cell_length_b 4.985465
_cell_length_c 24.957347
_cell_angle_alpha 90.000000
_cell_angle_beta 128.260828
_cell_angle_gamma 90.000000
_cell_volume 2464.085247
_symmetry_space_group_name_H-M "C 2/C"
_symmetry_group_IT_number 15
_symmetry_cell_setting 'monoclinic'
loop_
_space_group_symop_operation_xyz
x,y,z
-x,y,1/2-z
-x,-y,-z
x,-y,1/2+z
1/2+x,1/2+y,z
1/2-x,1/2+y,1/2-z
1/2-x,1/2-y,-z
1/2+x,1/2-y,1/2+z
loop_
_atom_site_type_symbol
_atom_site_label
_atom_site_fract_x
_atom_site_fract_y
_atom_site_fract_z
Si Si1 0.890431 0.578863 0.028550
Si Si2 0.504786 0.527663 0.860193
Si Si3 0.886384 0.662471 0.629120
Si Si4 0.512687 0.748213 0.469206
Si Si5 0.704226 0.543728 0.222223
Si Si6 0.700944 0.424349 0.602844
Si Si7 0.294437 0.575590 0.159570
Si Si8 0.500000 0.784116 0.750000
O O1 0.962174 0.711213 0.091247
O O2 0.851595 0.498717 0.058641
O O3 0.912575 0.328543 0.005683
O O4 0.850119 0.798919 0.970850
O O5 0.567343 0.367077 0.874493
O O6 0.471204 0.620636 0.783416
O O7 0.475969 0.343424 0.890117
O O8 0.841429 0.826430 0.641639
O O9 0.937891 0.465304 0.691537
O O10 0.500000 0.500000 0.500000
O O11 0.500000 0.000000 0.500000
O O12 0.729464 0.236649 0.237528
O O13 0.670650 0.601516 0.144150
O O14 0.673148 0.604532 0.260684
O O15 0.730607 0.721455 0.616363
O O16 0.766007 0.225005 0.638545
#
# Coordination Sequence:
#
# PCOD9288045 Si02
#       8
#     8   8   8   8   8   8   8   4
#     4  10  23  40  64  93 136 174 209 267 336 393
#     4  10  22  43  67  92 138 172 218 279 340 395
#     4  10  23  40  64  94 127 172 216 276 329 393
#     4  11  22  42  68  94 130 170 220 271 326 393
#     4   8  16  36  56  78 116 159 201 256 309 359
#     4  10  22  38  62  92 128 174 209 259 330 386
#     4  10  22  38  64  90 127 164 222 265 311 396
#     4  10  22  44  66  92 132 174 222 274 348 386
#
# _framework density 24.349807999999999
#
# number of rings (size 3 to 8) (size 9 to 14) (size 15 to 20)
#    0.000    2.133    1.333    0.400    7.467    1.067 
#    2.400    0.000    2.933    0.000    0.000    0.000 
#    0.000    0.000    0.000    0.000    0.000    0.000 
#
# Total GULP energy -167420.027974 kJ/mol
# GULP energy per Si atom -5580.667599 kJ/mol
# Density = 2.429439 g / cm^3
# Si number density = 24.349808 Si / 1000 Ang^3
#
#
#
# Elastic Constant Matrix: (Units=GPa)
#
#
# Indices 1 2 3 4 5 6 
#
# 1 91.0753 11.4795 42.9899 0.0041 -42.3917 -0.0039
# 2 11.4795 100.0195 9.7402 0.0244 -10.0645 -0.0297
# 3 42.9899 9.7402 95.5676 -0.0114 -29.4260 -0.0025
# 4 0.0041 0.0244 -0.0114 27.9501 -0.0015 -17.8657
# 5 -42.3917 -10.0645 -29.4260 -0.0015 39.2611 0.0009
# 6 -0.0039 -0.0297 -0.0025 -17.8657 0.0009 29.9702
#
#
#
# Elastic Compliance Matrix: (Units=1/GPa)
#
#
# Indices 1 2 3 4 5 6 
#
# 1 0.022941 -0.000065 -0.003499 -0.000004 0.022131 0.000000
# 2 -0.000065 0.010270 -0.000297 -0.000004 0.002340 0.000008
# 3 -0.003499 -0.000297 0.014146 0.000011 0.006748 0.000007
# 4 -0.000004 -0.000004 0.000011 0.057803 0.000005 0.034457
# 5 0.022131 0.002340 0.006748 0.000005 0.055024 0.000007
# 6 0.000000 0.000008 0.000007 0.034457 0.000007 0.053907
#
#
# Mechanical properties :
#
#
# Convention : Reuss Voigt Hill
#
# Bulk Modulus (GPa) = 25.23049 46.12017 35.67533
# Shear Modulus (GPa) = 21.27445 34.26644 27.77044
#
# Velocity S-wave (km/s) = 2.95905 3.75541 3.38076
# Velocity P-wave (km/s) = 4.69668 6.14703 5.47014
#
# Compressibility (1/GPa) = 0.03963458
#
# Stress axis : x y z
#
# Youngs Moduli (GPa) = 43.59081 97.37198 70.69245
#
# Poissons Ratio (x) = 0.00636 0.24733
# Poissons Ratio (y) = 0.00285 0.02099
# Poissons Ratio (z) = 0.15251 0.02891
#
# Static dielectric constant tensor:
#      x y z
#    x 1.955660 0.000000 -0.002350 
#    y 0.000000 1.993840 0.000000 
#    z -0.002350 0.000000 2.045360 
# 
# From -- ./inp_files/256787.got.cif
#   From: 2010.05.17/outbox.cif.g08.bks.cpg/sg15_129_cif.got.tgz:256787.got - 2010.06.03 18:47:42.
