data_PCOD9288803
_publ_section_title
;
Structure prediction by ZEFSAII (Michael W. Deem and Ramdas Pophale) SiO2 
 PCOD9288803
Probable space group: C 2/C
;
_chemical_formula_sum "Si O2"
_cell_formula_units_Z 56
_cell_length_a 17.663557
_cell_length_b 7.914992
_cell_length_c 18.178305
_cell_angle_alpha 90.000000
_cell_angle_beta 68.789034
_cell_angle_gamma 90.000000
_cell_volume 2369.280893
_symmetry_space_group_name_H-M "C 2/C"
_symmetry_group_IT_number 15
_symmetry_cell_setting 'monoclinic'
loop_
_space_group_symop_operation_xyz
x,y,z
-x,y,1/2-z
-x,-y,-z
x,-y,1/2+z
1/2+x,1/2+y,z
1/2-x,1/2+y,1/2-z
1/2-x,1/2-y,-z
1/2+x,1/2-y,1/2+z
loop_
_atom_site_type_symbol
_atom_site_label
_atom_site_fract_x
_atom_site_fract_y
_atom_site_fract_z
Si Si1 0.855192 0.757009 0.147543
Si Si2 0.984779 0.297494 0.338948
Si Si3 0.253896 0.529484 0.242203
Si Si4 0.657574 0.261793 0.510739
Si Si5 0.838453 0.168607 0.985868
Si Si6 0.015862 0.886450 0.161166
Si Si7 0.647061 0.193833 0.858234
O O1 0.827307 0.641384 0.226628
O O2 0.940222 0.837315 0.136937
O O3 0.780738 0.893478 0.172702
O O4 0.859230 0.685902 0.064190
O O5 0.900008 0.330354 0.409919
O O6 0.000000 0.352982 0.250000
O O7 0.060018 0.366578 0.360520
O O8 0.982887 0.091313 0.339447
O O9 0.328029 0.659024 0.209753
O O10 0.228193 0.423265 0.323418
O O11 0.750000 0.250000 0.500000
O O12 0.649182 0.465679 0.509811
O O13 0.903511 0.201088 0.898819
O O14 0.750000 0.250000 0.000000
O O15 0.862003 0.240866 0.056996
O O16 0.000000 0.833251 0.250000
#
# Coordination Sequence:
#
# PCOD9288803 Si02
#       7
#     8   8   8   8   8   8   8
#     4  11  22  43  64  94 128 167 206 261 316 375
#     4  10  22  39  65  93 126 166 210 255 312 377
#     4  10  24  36  72  92 126 162 214 256 322 368
#     4  11  25  41  65  94 129 168 211 260 313 371
#     4  11  25  41  65  94 129 168 211 260 313 371
#     4  10  22  39  65  93 126 166 210 255 312 377
#     4  11  22  43  64  94 128 167 206 261 316 375
#
# _framework density 23.635864999999999
#
# number of rings (size 3 to 8) (size 9 to 14) (size 15 to 20)
#    0.000    1.429    2.857    0.857   10.000    2.286 
#    2.571    2.143    0.000    0.000    0.000    0.000 
#    0.000    0.000    0.000    0.000    0.000    0.000 
#
# Total GULP energy -155939.122998 kJ/mol
# GULP energy per Si atom -5569.254393 kJ/mol
# Density = 2.358207 g / cm^3
# Si number density = 23.635865 Si / 1000 Ang^3
#
#
#
# Elastic Constant Matrix: (Units=GPa)
#
#
# Indices 1 2 3 4 5 6 
#
# 1 108.4151 -12.6922 74.6525 0.0000 -7.0205 0.0000
# 2 -12.6922 23.2050 4.7740 0.0000 -11.3140 0.0000
# 3 74.6525 4.7740 171.3897 0.0000 -24.2908 0.0000
# 4 0.0000 0.0000 0.0000 26.2839 0.0000 -6.8248
# 5 -7.0205 -11.3140 -24.2908 0.0000 47.5309 0.0000
# 6 0.0000 0.0000 0.0000 -6.8248 0.0000 26.4711
#
#
#
# Elastic Compliance Matrix: (Units=1/GPa)
#
#
# Indices 1 2 3 4 5 6 
#
# 1 0.015112 0.010253 -0.006690 0.000000 0.001254 0.000000
# 2 0.010253 0.055724 -0.004230 0.000000 0.012617 0.000000
# 3 -0.006690 -0.004230 0.009254 0.000000 0.002734 0.000000
# 4 0.000000 0.000000 0.000000 0.040776 0.000000 0.010513
# 5 0.001254 0.012617 0.002734 0.000000 0.025625 0.000000
# 6 0.000000 0.000000 0.000000 0.010513 0.000000 0.040488
#
#
# Mechanical properties :
#
#
# Convention : Reuss Voigt Hill
#
# Bulk Modulus (GPa) = 12.69736 48.49760 30.59748
# Shear Modulus (GPa) = 23.30297 35.80889 29.55593
#
# Velocity S-wave (km/s) = 3.14334 3.89655 3.54003
# Velocity P-wave (km/s) = 4.30788 6.38806 5.44817
#
# Compressibility (1/GPa) = 0.07875654
#
# Stress axis : x y z
#
# Youngs Moduli (GPa) = 66.17158 17.94551 108.05968
#
# Poissons Ratio (x) = -0.18400 0.72296
# Poissons Ratio (y) = -0.67849 0.45711
# Poissons Ratio (z) = 0.44271 0.07591
#
# Static dielectric constant tensor:
#      x y z
#    x 1.840100 0.000000 -0.027380 
#    y 0.000000 2.064500 0.000000 
#    z -0.027380 0.000000 1.869070 
# 
# From -- ./inp_files/209539.got.cif
#   From: 2010.05.17/outbox.cif.g08.bks.cpg/sg15_105_cif.got.tgz:209539.got - 2010.06.03 18:47:42.
