data_PCOD9288934
_publ_section_title
;
Structure prediction by ZEFSAII (Michael W. Deem and Ramdas Pophale) SiO2 
 PCOD9288934
Probable space group: C 2/C
;
_chemical_formula_sum "Si O2"
_cell_formula_units_Z 48
_cell_length_a 13.111071
_cell_length_b 26.032215
_cell_length_c 10.733583
_cell_angle_alpha 90.000000
_cell_angle_beta 144.509555
_cell_angle_gamma 90.000000
_cell_volume 2126.897164
_symmetry_space_group_name_H-M "C 2/C"
_symmetry_group_IT_number 15
_symmetry_cell_setting 'monoclinic'
loop_
_space_group_symop_operation_xyz
x,y,z
-x,y,1/2-z
-x,-y,-z
x,-y,1/2+z
1/2+x,1/2+y,z
1/2-x,1/2+y,1/2-z
1/2-x,1/2-y,-z
1/2+x,1/2-y,1/2+z
loop_
_atom_site_type_symbol
_atom_site_label
_atom_site_fract_x
_atom_site_fract_y
_atom_site_fract_z
Si Si1 0.809031 0.544297 0.015673
Si Si2 0.821196 0.859602 0.413307
Si Si3 0.311428 0.520475 0.861927
Si Si4 0.981074 0.709227 0.965665
Si Si5 0.000000 0.882223 0.250000
Si Si6 0.364971 0.308719 0.931552
Si Si7 0.500000 0.714722 0.250000
O O1 0.749291 0.511172 0.076756
O O2 0.000000 0.565246 0.250000
O O3 0.815657 0.516778 0.886618
O O4 0.641560 0.581446 0.823654
O O5 0.823118 0.920484 0.421780
O O6 0.647010 0.838385 0.174965
O O7 0.843509 0.825097 0.560719
O O8 0.987406 0.838680 0.501321
O O9 0.500000 0.500000 0.000000
O O10 0.921991 0.750058 0.011466
O O11 0.966593 0.746743 0.830872
O O12 0.178242 0.692586 0.181101
O O13 0.135595 0.843676 0.449451
#
# Coordination Sequence:
#
# PCOD9288934 Si02
#       7
#     8   8   8   8   4   8   4
#     4  12  27  51  77 109 150 192 257 322 378 450
#     4  11  24  42  69 101 138 193 238 291 384 439
#     4  12  25  52  77 110 151 196 252 319 384 451
#     4  11  23  43  63 103 144 182 238 302 355 449
#     4  12  26  47  72 100 140 204 239 310 374 446
#     4  11  23  42  67  97 140 187 236 293 366 438
#     4  10  22  39  68 100 146 184 231 302 360 438
#
# _framework density 22.568086000000001
#
# number of rings (size 3 to 8) (size 9 to 14) (size 15 to 20)
#    0.000    0.667    6.667    1.000    7.000    0.667 
#    4.500    0.000    0.000    0.000    0.000    0.000 
#    0.000    0.000    0.000    0.000    0.000    0.000 
#
# Total GULP energy -133871.039839 kJ/mol
# GULP energy per Si atom -5577.959993 kJ/mol
# Density = 2.251672 g / cm^3
# Si number density = 22.568086 Si / 1000 Ang^3
#
#
#
# Elastic Constant Matrix: (Units=GPa)
#
#
# Indices 1 2 3 4 5 6 
#
# 1 42.0952 37.2469 33.5015 0.0000 3.7747 0.0000
# 2 37.2469 123.8058 41.2576 0.0000 12.0187 0.0000
# 3 33.5015 41.2576 148.4291 0.0000 22.7291 0.0000
# 4 0.0000 0.0000 0.0000 28.6565 0.0000 -3.5013
# 5 3.7747 12.0187 22.7291 0.0000 46.5403 0.0000
# 6 0.0000 0.0000 0.0000 -3.5013 0.0000 14.7097
#
#
#
# Elastic Compliance Matrix: (Units=1/GPa)
#
#
# Indices 1 2 3 4 5 6 
#
# 1 0.036486 -0.009193 -0.006042 0.000000 0.002366 0.000000
# 2 -0.009193 0.011278 -0.000787 0.000000 -0.001783 0.000000
# 3 -0.006042 -0.000787 0.008877 0.000000 -0.003642 0.000000
# 4 0.000000 0.000000 0.000000 0.035941 0.000000 0.008555
# 5 0.002366 -0.001783 -0.003642 0.000000 0.023534 0.000000
# 6 0.000000 0.000000 0.000000 0.008555 0.000000 0.070019
#
#
# Mechanical properties :
#
#
# Convention : Reuss Voigt Hill
#
# Bulk Modulus (GPa) = 40.65428 59.81577 50.23503
# Shear Modulus (GPa) = 22.08676 31.46958 26.77817
#
# Velocity S-wave (km/s) = 3.13177 3.73826 3.44837
# Velocity P-wave (km/s) = 5.57947 6.72271 6.17759
#
# Compressibility (1/GPa) = 0.02459766
#
# Stress axis : x y z
#
# Youngs Moduli (GPa) = 27.40745 88.66669 112.64454
#
# Poissons Ratio (x) = 0.81512 0.68062
# Poissons Ratio (y) = 0.25196 0.08865
# Poissons Ratio (z) = 0.16560 0.06978
#
# Static dielectric constant tensor:
#      x y z
#    x 1.986220 0.000000 -0.136910 
#    y 0.000000 1.828230 0.000000 
#    z -0.136910 0.000000 1.899380 
# 
# From -- ./inp_files/101435.got.cif
#   From: 2010.05.17/outbox.cif.g08.bks.cpg/sg15_51_cif.got.tgz:101435.got - 2010.06.03 18:47:42.
