data_PCOD9288349
_publ_section_title
;
Structure prediction by ZEFSAII (Michael W. Deem and Ramdas Pophale) SiO2 
 PCOD9288349
Probable space group: C 2/C
;
_chemical_formula_sum "Si O2"
_cell_formula_units_Z 52
_cell_length_a 25.615917
_cell_length_b 15.794056
_cell_length_c 19.411726
_cell_angle_alpha 90.000000
_cell_angle_beta 18.108828
_cell_angle_gamma 90.000000
_cell_volume 2441.072693
_symmetry_space_group_name_H-M "C 2/C"
_symmetry_group_IT_number 15
_symmetry_cell_setting 'monoclinic'
loop_
_space_group_symop_operation_xyz
x,y,z
-x,y,1/2-z
-x,-y,-z
x,-y,1/2+z
1/2+x,1/2+y,z
1/2-x,1/2+y,1/2-z
1/2-x,1/2-y,-z
1/2+x,1/2-y,1/2+z
loop_
_atom_site_type_symbol
_atom_site_label
_atom_site_fract_x
_atom_site_fract_y
_atom_site_fract_z
Si Si1 0.077060 0.263792 0.257420
Si Si2 0.206786 0.983185 0.069224
Si Si3 0.302316 0.486812 0.585587
Si Si4 0.292379 0.697730 0.143039
Si Si5 0.754991 0.175178 0.669747
Si Si6 0.500000 0.102191 0.750000
Si Si7 0.311002 0.303283 0.359438
O O1 0.132042 0.290517 0.264535
O O2 0.953207 0.184980 0.403522
O O3 0.976937 0.338723 0.345337
O O4 0.250000 0.250000 0.000000
O O5 0.260943 0.896388 0.038687
O O6 0.231719 0.980983 0.954598
O O7 0.006902 0.992492 0.333534
O O8 0.330356 0.052041 0.946522
O O9 0.235560 0.400717 0.706334
O O10 0.228511 0.574202 0.709541
O O11 0.260435 0.757796 0.248658
O O12 0.231209 0.752937 0.155878
O O13 0.490603 0.689086 0.886807
O O14 0.250000 0.250000 0.500000
#
# Coordination Sequence:
#
# PCOD9288349 Si02
#       7
#     8   8   8   8   8   4   8
#     4  12  24  42  68 100 134 181 233 278 333 403
#     4  10  22  38  69 105 131 172 236 288 327 399
#     4  10  22  44  69  96 138 184 224 276 350 408
#     4  11  25  45  66 104 136 185 223 278 361 404
#     4  12  25  45  68  96 145 182 221 286 343 414
#     4  12  22  38  64 110 126 164 236 278 334 390
#     4  11  22  43  71  98 135 175 232 288 334 406
#
# _framework density 21.302111
#
# number of rings (size 3 to 8) (size 9 to 14) (size 15 to 20)
#    0.000    0.923    4.615    2.308    4.308    0.000 
#    2.769    3.846    0.000    0.000    0.000    0.000 
#    0.000    0.000    0.000    0.000    0.000    0.000 
#
# Total GULP energy -145155.882008 kJ/mol
# GULP energy per Si atom -5582.918539 kJ/mol
# Density = 2.125363 g / cm^3
# Si number density = 21.302111 Si / 1000 Ang^3
#
#
#
# Elastic Constant Matrix: (Units=GPa)
#
#
# Indices 1 2 3 4 5 6 
#
# 1 169.1227 87.4906 18.0836 -0.0035 -8.1473 0.0010
# 2 87.4906 197.6323 22.6551 -0.0043 -0.5388 0.0026
# 3 18.0836 22.6551 37.9184 -0.0039 -5.0746 0.0023
# 4 -0.0035 -0.0043 -0.0039 34.9999 0.0036 -4.1189
# 5 -8.1473 -0.5388 -5.0746 0.0036 34.4748 -0.0011
# 6 0.0010 0.0026 0.0023 -4.1189 -0.0011 38.9676
#
#
#
# Elastic Compliance Matrix: (Units=1/GPa)
#
#
# Indices 1 2 3 4 5 6 
#
# 1 0.007862 -0.003296 -0.001569 0.000000 0.001575 0.000000
# 2 -0.003296 0.006819 -0.002644 0.000000 -0.001062 0.000000
# 3 -0.001569 -0.002644 0.029221 0.000002 0.003889 -0.000001
# 4 0.000000 0.000000 0.000002 0.028931 -0.000003 0.003058
# 5 0.001575 -0.001062 0.003889 -0.000003 0.029935 0.000000
# 6 0.000000 0.000000 -0.000001 0.003058 0.000000 0.025986
#
#
# Mechanical properties :
#
#
# Convention : Reuss Voigt Hill
#
# Bulk Modulus (GPa) = 34.62273 73.45910 54.04092
# Shear Modulus (GPa) = 32.59428 40.11807 36.35618
#
# Velocity S-wave (km/s) = 3.91589 4.34440 4.13570
# Velocity P-wave (km/s) = 6.06086 7.72815 6.94472
#
# Compressibility (1/GPa) = 0.02888276
#
# Stress axis : x y z
#
# Youngs Moduli (GPa) = 127.19871 146.64166 34.22176
#
# Poissons Ratio (x) = 0.48336 0.05370
# Poissons Ratio (y) = 0.41927 0.09050
# Poissons Ratio (z) = 0.19959 0.38779
#
# Static dielectric constant tensor:
#      x y z
#    x 1.691830 0.000020 0.005480 
#    y 0.000020 2.004910 -0.000020 
#    z 0.005480 -0.000020 1.836650 
# 
# From -- ./inp_files/249125.got.cif
#   From: 2010.05.17/outbox.cif.g08.bks.cpg/sg15_125_cif.got.tgz:249125.got - 2010.06.03 18:47:42.
