data_PCOD9288715
_publ_section_title
;
Structure prediction by ZEFSAII (Michael W. Deem and Ramdas Pophale) SiO2 
 PCOD9288715
Probable space group: C 2/C
;
_chemical_formula_sum "Si O2"
_cell_formula_units_Z 48
_cell_length_a 30.518656
_cell_length_b 5.664859
_cell_length_c 26.054881
_cell_angle_alpha 90.000000
_cell_angle_beta 153.184907
_cell_angle_gamma 90.000000
_cell_volume 2032.022958
_symmetry_space_group_name_H-M "C 2/C"
_symmetry_group_IT_number 15
_symmetry_cell_setting 'monoclinic'
loop_
_space_group_symop_operation_xyz
x,y,z
-x,y,1/2-z
-x,-y,-z
x,-y,1/2+z
1/2+x,1/2+y,z
1/2-x,1/2+y,1/2-z
1/2-x,1/2-y,-z
1/2+x,1/2-y,1/2+z
loop_
_atom_site_type_symbol
_atom_site_label
_atom_site_fract_x
_atom_site_fract_y
_atom_site_fract_z
Si Si1 0.282109 0.165862 0.133371
Si Si2 0.642418 0.963999 0.530945
Si Si3 0.124374 0.143167 0.419058
Si Si4 0.937240 0.368973 0.352669
Si Si5 0.576833 0.459464 0.760755
Si Si6 0.276905 0.745922 0.251620
O O1 0.202256 0.300097 0.084264
O O2 0.342272 0.341763 0.159924
O O3 0.363789 0.068664 0.256715
O O4 0.224497 0.979521 0.038697
O O5 0.614703 0.867929 0.445775
O O6 0.546037 0.966899 0.464555
O O7 0.715505 0.781409 0.634708
O O8 0.109752 0.195295 0.344088
O O9 0.034059 0.973353 0.341286
O O10 0.890401 0.267923 0.355372
O O11 0.929151 0.171699 0.299715
O O12 0.255216 0.493146 0.255964
#
# Coordination Sequence:
#
# PCOD9288715 Si02
#       6
#     8   8   8   8   8   8
#     4  12  20  40  65  98 138 189 230 285 343 422
#     4  11  25  45  69 100 141 182 230 294 357 426
#     4  10  22  39  64 100 140 184 230 280 348 428
#     4  11  25  45  69 100 141 182 230 294 357 426
#     4  10  22  39  64 100 140 184 230 280 348 428
#     4  12  27  50  76 106 141 185 246 305 366 432
#
# _framework density 23.621782
#
# number of rings (size 3 to 8) (size 9 to 14) (size 15 to 20)
#    0.000    1.000    3.333    2.500    0.000    5.333 
#    0.000    3.333    0.000    0.000    0.000    0.000 
#    0.000    0.000    0.000    0.000    0.000    0.000 
#
# Total GULP energy -134166.944220 kJ/mol
# GULP energy per Si atom -5590.289342 kJ/mol
# Density = 2.356802 g / cm^3
# Si number density = 23.621782 Si / 1000 Ang^3
#
#
#
# Elastic Constant Matrix: (Units=GPa)
#
#
# Indices 1 2 3 4 5 6 
#
# 1 83.0714 19.4481 11.5057 0.0008 22.3439 -0.0010
# 2 19.4481 49.6957 6.6180 0.0054 14.1765 0.0013
# 3 11.5057 6.6180 78.2838 0.0004 30.8354 0.0002
# 4 0.0008 0.0054 0.0004 34.9635 0.0001 1.8683
# 5 22.3439 14.1765 30.8354 0.0001 57.0882 -0.0001
# 6 -0.0010 0.0013 0.0002 1.8683 -0.0001 44.2571
#
#
#
# Elastic Compliance Matrix: (Units=1/GPa)
#
#
# Indices 1 2 3 4 5 6 
#
# 1 0.014257 -0.004290 0.000058 0.000000 -0.004546 0.000000
# 2 -0.004290 0.022956 0.000348 -0.000003 -0.004209 -0.000001
# 3 0.000058 0.000348 0.016233 0.000000 -0.008877 0.000000
# 4 0.000000 -0.000003 0.000000 0.028666 0.000001 -0.001210
# 5 -0.004546 -0.004209 -0.008877 0.000001 0.025136 0.000000
# 6 0.000000 -0.000001 0.000000 -0.001210 0.000000 0.022646
#
#
# Mechanical properties :
#
#
# Convention : Reuss Voigt Hill
#
# Bulk Modulus (GPa) = 21.89309 31.79937 26.84623
# Shear Modulus (GPa) = 32.70365 38.82704 35.76534
#
# Velocity S-wave (km/s) = 3.72488 4.05865 3.89534
# Velocity P-wave (km/s) = 5.27143 5.95438 5.62328
#
# Compressibility (1/GPa) = 0.04567652
#
# Stress axis : x y z
#
# Youngs Moduli (GPa) = 70.14115 43.56187 61.60432
#
# Poissons Ratio (x) = 0.18689 -0.00357
# Poissons Ratio (y) = 0.30093 -0.02143
# Poissons Ratio (z) = -0.00406 -0.01516
#
# Static dielectric constant tensor:
#      x y z
#    x 1.973400 0.000000 0.006740 
#    y 0.000000 1.911790 0.000000 
#    z 0.006740 0.000000 1.884530 
# 
# From -- ./inp_files/179990.got.cif
#   From: 2010.05.17/outbox.cif.g08.bks.cpg/sg15_90_cif.got.tgz:179990.got - 2010.06.03 18:47:42.
