data_PCOD9288627
_publ_section_title
;
Structure prediction by ZEFSAII (Michael W. Deem and Ramdas Pophale) SiO2 
 PCOD9288627
Probable space group: C 2/C
;
_chemical_formula_sum "Si O2"
_cell_formula_units_Z 60
_cell_length_a 13.667010
_cell_length_b 13.615283
_cell_length_c 17.032743
_cell_angle_alpha 90.000000
_cell_angle_beta 102.452758
_cell_angle_gamma 90.000000
_cell_volume 3094.892176
_symmetry_space_group_name_H-M "C 2/C"
_symmetry_group_IT_number 15
_symmetry_cell_setting 'monoclinic'
loop_
_space_group_symop_operation_xyz
x,y,z
-x,y,1/2-z
-x,-y,-z
x,-y,1/2+z
1/2+x,1/2+y,z
1/2-x,1/2+y,1/2-z
1/2-x,1/2-y,-z
1/2+x,1/2-y,1/2+z
loop_
_atom_site_type_symbol
_atom_site_label
_atom_site_fract_x
_atom_site_fract_y
_atom_site_fract_z
Si Si1 0.837935 0.805458 0.325224
Si Si2 0.316137 0.145601 0.121646
Si Si3 0.616274 0.973870 0.018772
Si Si4 0.410175 0.512783 0.095348
Si Si5 0.000000 0.286229 0.750000
Si Si6 0.868235 0.010027 0.405311
Si Si7 0.253146 0.834557 0.935944
Si Si8 0.237526 0.861530 0.353201
O O1 0.946825 0.779396 0.307803
O O2 0.796789 0.712012 0.364299
O O3 0.769978 0.835557 0.239471
O O4 0.841394 0.897089 0.384363
O O5 0.409318 0.152040 0.197543
O O6 0.222107 0.081077 0.133976
O O7 0.279905 0.258035 0.105735
O O8 0.355663 0.094689 0.049764
O O9 0.662092 0.915913 0.101390
O O10 0.677150 0.075584 0.024264
O O11 0.500000 0.000000 0.000000
O O12 0.528495 0.525459 0.123487
O O13 0.354490 0.616194 0.095554
O O14 0.354108 0.434572 0.140780
O O15 0.389429 0.476893 0.001894
O O16 0.250000 0.750000 0.000000
#
# Coordination Sequence:
#
# PCOD9288627 Si02
#       8
#     8   8   8   8   4   8   8   8
#     4  11  22  41  64  89 127 171 210 264 317 389
#     4  11  21  40  62  93 125 167 215 267 316 387
#     4  11  23  38  62  91 127 166 210 267 322 384
#     4  10  22  39  62  95 124 161 215 263 312 383
#     4  10  24  40  64  96 126 174 216 264 328 384
#     4  11  21  37  65  93 122 165 208 266 315 374
#     4  11  21  41  61  92 124 166 207 256 324 384
#     4  10  23  41  62  90 127 165 219 259 317 383
#
# _framework density 19.386783000000001
#
# number of rings (size 3 to 8) (size 9 to 14) (size 15 to 20)
#    0.000    1.333    4.000    2.800    0.000    6.400 
#    0.000    0.000    0.000    6.400    0.000    0.000 
#    0.000    0.000    0.000    0.000    0.000    0.000 
#
# Total GULP energy -167556.382209 kJ/mol
# GULP energy per Si atom -5585.212740 kJ/mol
# Density = 1.934266 g / cm^3
# Si number density = 19.386783 Si / 1000 Ang^3
#
#
#
# Elastic Constant Matrix: (Units=GPa)
#
#
# Indices 1 2 3 4 5 6 
#
# 1 118.5298 34.6040 15.1521 0.0000 23.1856 0.0000
# 2 34.6040 97.5680 13.8053 0.0000 4.6511 0.0000
# 3 15.1521 13.8053 56.3377 0.0000 5.3983 0.0000
# 4 0.0000 0.0000 0.0000 26.0224 0.0000 1.2150
# 5 23.1856 4.6511 5.3983 0.0000 35.4025 0.0000
# 6 0.0000 0.0000 0.0000 1.2150 0.0000 31.8130
#
#
#
# Elastic Compliance Matrix: (Units=1/GPa)
#
#
# Indices 1 2 3 4 5 6 
#
# 1 0.010862 -0.003335 -0.001486 0.000000 -0.006449 0.000000
# 2 -0.003335 0.011677 -0.002057 0.000000 0.000963 0.000000
# 3 -0.001486 -0.002057 0.018810 0.000000 -0.001625 0.000000
# 4 0.000000 0.000000 0.000000 0.038497 0.000000 -0.001470
# 5 -0.006449 0.000963 -0.001625 0.000000 0.032591 0.000000
# 6 0.000000 0.000000 0.000000 -0.001470 0.000000 0.031490
#
#
# Mechanical properties :
#
#
# Convention : Reuss Voigt Hill
#
# Bulk Modulus (GPa) = 36.24121 44.39536 40.31829
# Shear Modulus (GPa) = 29.96182 32.57253 31.26717
#
# Velocity S-wave (km/s) = 3.93552 4.10340 4.02034
# Velocity P-wave (km/s) = 6.27578 6.73795 6.51097
#
# Compressibility (1/GPa) = 0.02759289
#
# Stress axis : x y z
#
# Youngs Moduli (GPa) = 92.06733 85.63826 53.16453
#
# Poissons Ratio (x) = 0.28556 0.07901
# Poissons Ratio (y) = 0.30700 0.10935
# Poissons Ratio (z) = 0.13683 0.17615
#
# Static dielectric constant tensor:
#      x y z
#    x 1.697740 0.000000 0.003150 
#    y 0.000000 1.657460 0.000000 
#    z 0.003150 0.000000 1.704260 
# 
# From -- ./inp_files/204504.got.cif
#   From: 2010.05.17/outbox.cif.g08.bks.cpg/sg15_103_cif.got.tgz:204504.got - 2010.06.03 18:47:42.
