data_PCOD9288049
_publ_section_title
;
Structure prediction by ZEFSAII (Michael W. Deem and Ramdas Pophale) SiO2 
 PCOD9288049
Probable space group: C 2/C
;
_chemical_formula_sum "Si O2"
_cell_formula_units_Z 52
_cell_length_a 16.307607
_cell_length_b 9.679318
_cell_length_c 19.123463
_cell_angle_alpha 90.000000
_cell_angle_beta 53.231241
_cell_angle_gamma 90.000000
_cell_volume 2418.050846
_symmetry_space_group_name_H-M "C 2/C"
_symmetry_group_IT_number 15
_symmetry_cell_setting 'monoclinic'
loop_
_space_group_symop_operation_xyz
x,y,z
-x,y,1/2-z
-x,-y,-z
x,-y,1/2+z
1/2+x,1/2+y,z
1/2-x,1/2+y,1/2-z
1/2-x,1/2-y,-z
1/2+x,1/2-y,1/2+z
loop_
_atom_site_type_symbol
_atom_site_label
_atom_site_fract_x
_atom_site_fract_y
_atom_site_fract_z
Si Si1 0.714295 0.102219 0.991559
Si Si2 0.889594 0.067540 0.684766
Si Si3 0.668877 0.079541 0.850609
Si Si4 0.039919 0.170550 0.438439
Si Si5 0.492768 0.840803 0.599837
Si Si6 0.651552 0.657515 0.057673
Si Si7 0.500000 0.605656 0.250000
O O1 0.707988 0.084044 0.910853
O O2 0.801741 0.995832 0.970215
O O3 0.750000 0.250000 0.000000
O O4 0.595777 0.089008 0.078008
O O5 0.768250 0.056228 0.753240
O O6 0.926655 0.225785 0.673896
O O7 0.923586 0.984781 0.597113
O O8 0.945187 0.985706 0.718790
O O9 0.617400 0.226117 0.858579
O O10 0.583489 0.960372 0.886942
O O11 0.036419 0.242354 0.515527
O O12 0.928047 0.185523 0.462935
O O13 0.588858 0.682208 0.161466
O O14 0.750000 0.750000 0.000000
#
# Coordination Sequence:
#
# PCOD9288049 Si02
#       7
#     8   8   8   8   8   8   4
#     4  11  22  40  67  91 122 170 212 255 320 383
#     4  11  22  39  65  89 130 163 212 262 327 372
#     4  11  22  41  63  92 128 163 209 262 319 372
#     4  10  22  38  62  94 124 163 210 261 313 387
#     4  11  23  40  65  95 125 164 218 264 313 388
#     4  11  21  40  67  91 131 171 211 265 324 377
#     4  10  22  38  62  96 126 170 216 264 318 394
#
# _framework density 21.504925
#
# number of rings (size 3 to 8) (size 9 to 14) (size 15 to 20)
#    0.000    1.231    1.538    6.923    0.000    1.231 
#    0.000    0.000    3.385    0.923    0.000    0.000 
#    0.000    0.000    0.000    0.000    0.000    0.000 
#
# Total GULP energy -145144.335694 kJ/mol
# GULP energy per Si atom -5582.474450 kJ/mol
# Density = 2.145598 g / cm^3
# Si number density = 21.504925 Si / 1000 Ang^3
#
#
#
# Elastic Constant Matrix: (Units=GPa)
#
#
# Indices 1 2 3 4 5 6 
#
# 1 82.9785 -0.6495 11.1863 0.0000 -25.9981 0.0000
# 2 -0.6495 47.5728 16.6660 0.0000 -10.0483 0.0000
# 3 11.1863 16.6660 72.8704 0.0000 -33.8618 0.0000
# 4 0.0000 0.0000 0.0000 35.1232 0.0000 -16.9604
# 5 -25.9981 -10.0483 -33.8618 0.0000 39.5213 0.0000
# 6 0.0000 0.0000 0.0000 -16.9604 0.0000 39.9342
#
#
#
# Elastic Compliance Matrix: (Units=1/GPa)
#
#
# Indices 1 2 3 4 5 6 
#
# 1 0.016014 0.001921 0.003696 0.000000 0.014189 0.000000
# 2 0.001921 0.023199 -0.003776 0.000000 0.003927 0.000000
# 3 0.003696 -0.003776 0.024429 0.000000 0.022402 0.000000
# 4 0.000000 0.000000 0.000000 0.035817 0.000000 0.015212
# 5 0.014189 0.003927 0.022402 0.000000 0.054830 0.000000
# 6 0.000000 0.000000 0.000000 0.015212 0.000000 0.031502
#
#
# Mechanical properties :
#
#
# Convention : Reuss Voigt Hill
#
# Bulk Modulus (GPa) = 14.85359 28.64748 21.75054
# Shear Modulus (GPa) = 24.44400 34.66367 29.55384
#
# Velocity S-wave (km/s) = 3.37511 4.01920 3.71115
# Velocity P-wave (km/s) = 4.70219 5.90668 5.33851
#
# Compressibility (1/GPa) = 0.06732379
#
# Stress axis : x y z
#
# Youngs Moduli (GPa) = 62.44614 43.10565 40.93462
#
# Poissons Ratio (x) = -0.08280 -0.15130
# Poissons Ratio (y) = -0.11995 0.15457
# Poissons Ratio (z) = -0.23080 0.16276
#
# Static dielectric constant tensor:
#      x y z
#    x 1.749250 0.000000 -0.003300 
#    y 0.000000 1.780260 0.000000 
#    z -0.003300 0.000000 1.881070 
# 
# From -- ./inp_files/209090.got.cif
#   From: 2010.05.17/outbox.cif.g08.bks.cpg/sg15_105_cif.got.tgz:209090.got - 2010.06.03 18:47:42.
