data_PCOD9288241
_publ_section_title
;
Structure prediction by ZEFSAII (Michael W. Deem and Ramdas Pophale) SiO2 
 PCOD9288241
Probable space group: C 2/C
;
_chemical_formula_sum "Si O2"
_cell_formula_units_Z 40
_cell_length_a 20.027598
_cell_length_b 11.862874
_cell_length_c 12.463270
_cell_angle_alpha 90.000000
_cell_angle_beta 37.921612
_cell_angle_gamma 90.000000
_cell_volume 1819.831541
_symmetry_space_group_name_H-M "C 2/C"
_symmetry_group_IT_number 15
_symmetry_cell_setting 'monoclinic'
loop_
_space_group_symop_operation_xyz
x,y,z
-x,y,1/2-z
-x,-y,-z
x,-y,1/2+z
1/2+x,1/2+y,z
1/2-x,1/2+y,1/2-z
1/2-x,1/2-y,-z
1/2+x,1/2-y,1/2+z
loop_
_atom_site_type_symbol
_atom_site_label
_atom_site_fract_x
_atom_site_fract_y
_atom_site_fract_z
Si Si1 0.170673 0.200014 0.389048
Si Si2 0.282630 0.082761 0.440794
Si Si3 0.729891 0.331784 0.423463
Si Si4 0.000000 0.694172 0.250000
Si Si5 0.613794 0.513288 0.297526
Si Si6 0.000000 0.858806 0.750000
O O1 0.243408 0.168070 0.398741
O O2 0.205344 0.298873 0.265365
O O3 0.175091 0.093503 0.303234
O O4 0.053120 0.227879 0.589802
O O5 0.401027 0.118010 0.331685
O O6 0.271534 0.956352 0.405343
O O7 0.195795 0.080332 0.649320
O O8 0.750000 0.250000 0.500000
O O9 0.601871 0.306903 0.557608
O O10 0.500000 0.500000 0.500000
O O11 0.571234 0.572261 0.243314
#
# Coordination Sequence:
#
# PCOD9288241 Si02
#       6
#     8   8   8   4   8   4
#     4  12  26  46  73 107 150 193 247 304 376 445
#     4  11  27  49  72 111 149 192 256 302 377 449
#     4  11  24  46  72 109 143 194 249 302 365 444
#     4  12  30  48  74 114 154 192 242 324 384 428
#     4  11  22  43  73  99 137 194 245 297 359 442
#     4  10  22  38  66 100 134 184 246 292 346 436
#
# _framework density 21.980056999999999
#
# number of rings (size 3 to 8) (size 9 to 14) (size 15 to 20)
#    0.000    0.800    4.000    4.200    8.400    2.400 
#    0.000    0.000    0.000    0.000    0.000    0.000 
#    0.000    0.000    0.000    0.000    0.000    0.000 
#
# Total GULP energy -111494.584382 kJ/mol
# GULP energy per Si atom -5574.729219 kJ/mol
# Density = 2.193003 g / cm^3
# Si number density = 21.980057 Si / 1000 Ang^3
#
#
#
# Elastic Constant Matrix: (Units=GPa)
#
#
# Indices 1 2 3 4 5 6 
#
# 1 146.6195 43.3061 57.8621 0.0000 -11.4629 0.0000
# 2 43.3061 97.3946 32.9977 0.0000 8.0608 0.0000
# 3 57.8621 32.9977 153.8549 0.0000 10.4384 0.0000
# 4 0.0000 0.0000 0.0000 44.4874 0.0000 0.6329
# 5 -11.4629 8.0608 10.4384 0.0000 44.4939 0.0000
# 6 0.0000 0.0000 0.0000 0.6329 0.0000 65.0796
#
#
#
# Elastic Compliance Matrix: (Units=1/GPa)
#
#
# Indices 1 2 3 4 5 6 
#
# 1 0.009317 -0.003428 -0.003022 0.000000 0.003730 0.000000
# 2 -0.003428 0.012429 -0.001183 0.000000 -0.002857 0.000000
# 3 -0.003022 -0.001183 0.008056 0.000000 -0.002454 0.000000
# 4 0.000000 0.000000 0.000000 0.022481 0.000000 -0.000219
# 5 0.003730 -0.002857 -0.002454 0.000000 0.024529 0.000000
# 6 0.000000 0.000000 0.000000 -0.000219 0.000000 0.015368
#
#
# Mechanical properties :
#
#
# Convention : Reuss Voigt Hill
#
# Bulk Modulus (GPa) = 68.78743 74.02233 71.40488
# Shear Modulus (GPa) = 44.52710 48.39237 46.45973
#
# Velocity S-wave (km/s) = 4.50577 4.69726 4.60251
# Velocity P-wave (km/s) = 7.64412 7.94791 7.79749
#
# Compressibility (1/GPa) = 0.01453754
#
# Stress axis : x y z
#
# Youngs Moduli (GPa) = 107.33094 80.45835 124.12674
#
# Poissons Ratio (x) = 0.27578 0.37510
# Poissons Ratio (y) = 0.36789 0.14681
# Poissons Ratio (z) = 0.32434 0.09516
#
# Static dielectric constant tensor:
#      x y z
#    x 1.776570 0.000000 -0.094030 
#    y 0.000000 1.922210 0.000000 
#    z -0.094030 0.000000 1.862170 
# 
# From -- ./inp_files/96055.got.cif
#   From: 2010.05.17/outbox.cif.g08.bks.cpg/sg15_49_cif.got.tgz:96055.got - 2010.06.03 18:47:42.
