data_PCOD9288407
_publ_section_title
;
Structure prediction by ZEFSAII (Michael W. Deem and Ramdas Pophale) SiO2 
 PCOD9288407
Probable space group: C 2/C
;
_chemical_formula_sum "Si O2"
_cell_formula_units_Z 28
_cell_length_a 20.570964
_cell_length_b 4.824013
_cell_length_c 10.539172
_cell_angle_alpha 90.000000
_cell_angle_beta 112.025254
_cell_angle_gamma 90.000000
_cell_volume 969.522914
_symmetry_space_group_name_H-M "C 2/C"
_symmetry_group_IT_number 15
_symmetry_cell_setting 'monoclinic'
loop_
_space_group_symop_operation_xyz
x,y,z
-x,y,1/2-z
-x,-y,-z
x,-y,1/2+z
1/2+x,1/2+y,z
1/2-x,1/2+y,1/2-z
1/2-x,1/2-y,-z
1/2+x,1/2-y,1/2+z
loop_
_atom_site_type_symbol
_atom_site_label
_atom_site_fract_x
_atom_site_fract_y
_atom_site_fract_z
Si Si1 0.737525 0.084501 0.329180
Si Si2 0.500000 0.285210 0.250000
Si Si3 0.881095 0.053010 0.009152
Si Si4 0.405382 0.053397 0.853310
O O1 0.739352 0.390816 0.273655
O O2 0.658577 0.984609 0.293832
O O3 0.699754 0.534817 0.026051
O O4 0.564013 0.476664 0.342681
O O5 0.526979 0.081288 0.159513
O O6 0.906611 0.859783 0.909340
O O7 0.884692 0.360947 0.958022
#
# Coordination Sequence:
#
# PCOD9288407 Si02
#       4
#     8   4   8   8
#     4   8  16  35  58  77 106 144 182 229 272 315
#     4  12  24  36  60  84 116 152 180 226 284 334
#     4  10  22  39  58  83 113 146 187 230 274 328
#     4  10  22  39  58  83 113 146 187 230 274 328
#
# _framework density 28.880181
#
# number of rings (size 3 to 8) (size 9 to 14) (size 15 to 20)
#    0.000    2.286    0.000    1.714    0.000    5.714 
#    0.000    0.000    0.000   20.571    0.000    0.000 
#    0.000    0.000    0.000    0.000    0.000    0.000 
#
# Total GULP energy -78652.522858 kJ/mol
# GULP energy per Si atom -5618.037347 kJ/mol
# Density = 2.881445 g / cm^3
# Si number density = 28.880181 Si / 1000 Ang^3
#
#
#
# Elastic Constant Matrix: (Units=GPa)
#
#
# Indices 1 2 3 4 5 6 
#
# 1 106.1930 3.9873 49.0083 0.0000 33.3370 0.0000
# 2 3.9873 110.3066 32.5760 0.0000 -0.8913 0.0000
# 3 49.0083 32.5760 148.8084 0.0000 34.7099 0.0000
# 4 0.0000 0.0000 0.0000 36.1197 0.0000 13.2548
# 5 33.3370 -0.8913 34.7099 0.0000 77.3462 0.0000
# 6 0.0000 0.0000 0.0000 13.2548 0.0000 40.0673
#
#
#
# Elastic Compliance Matrix: (Units=1/GPa)
#
#
# Indices 1 2 3 4 5 6 
#
# 1 0.012054 0.000479 -0.003199 0.000000 -0.003754 0.000000
# 2 0.000479 0.009810 -0.002550 0.000000 0.001051 0.000000
# 3 -0.003199 -0.002550 0.008954 0.000000 -0.002669 0.000000
# 4 0.000000 0.000000 0.000000 0.031511 0.000000 -0.010424
# 5 -0.003754 0.001051 -0.002669 0.000000 0.015757 0.000000
# 6 0.000000 0.000000 0.000000 -0.010424 0.000000 0.028406
#
#
# Mechanical properties :
#
#
# Convention : Reuss Voigt Hill
#
# Bulk Modulus (GPa) = 49.31704 59.60571 54.46137
# Shear Modulus (GPa) = 40.39009 49.35573 44.87291
#
# Velocity S-wave (km/s) = 3.74376 4.13847 3.94605
# Velocity P-wave (km/s) = 5.98341 6.59694 6.29765
#
# Compressibility (1/GPa) = 0.02027697
#
# Stress axis : x y z
#
# Youngs Moduli (GPa) = 82.96222 101.93660 111.67668
#
# Poissons Ratio (x) = -0.04879 0.35723
# Poissons Ratio (y) = -0.03971 0.28482
# Poissons Ratio (z) = 0.26538 0.25998
#
# Static dielectric constant tensor:
#      x y z
#    x 2.183710 0.000000 0.087520 
#    y 0.000000 2.109580 0.000000 
#    z 0.087520 0.000000 2.282710 
# 
# From -- ./inp_files/115204.got.cif
#   From: 2010.05.17/outbox.cif.g08.bks.cpg/sg15_58_cif.got.tgz:115204.got - 2010.06.03 18:47:42.
