data_PCOD9288656
_publ_section_title
;
Structure prediction by ZEFSAII (Michael W. Deem and Ramdas Pophale) SiO2 
 PCOD9288656
Probable space group: C 2/C
;
_chemical_formula_sum "Si O2"
_cell_formula_units_Z 56
_cell_length_a 13.889154
_cell_length_b 8.430773
_cell_length_c 24.418307
_cell_angle_alpha 90.000000
_cell_angle_beta 60.742920
_cell_angle_gamma 90.000000
_cell_volume 2494.549514
_symmetry_space_group_name_H-M "C 2/C"
_symmetry_group_IT_number 15
_symmetry_cell_setting 'monoclinic'
loop_
_space_group_symop_operation_xyz
x,y,z
-x,y,1/2-z
-x,-y,-z
x,-y,1/2+z
1/2+x,1/2+y,z
1/2-x,1/2+y,1/2-z
1/2-x,1/2-y,-z
1/2+x,1/2-y,1/2+z
loop_
_atom_site_type_symbol
_atom_site_label
_atom_site_fract_x
_atom_site_fract_y
_atom_site_fract_z
Si Si1 0.242491 0.351974 0.287830
Si Si2 0.122167 0.984214 0.832779
Si Si3 0.670574 0.775635 0.075807
Si Si4 0.542075 0.955239 0.401823
Si Si5 0.043556 0.731708 0.008519
Si Si6 0.086329 0.021026 0.180663
Si Si7 0.145206 0.026844 0.950294
O O1 0.182613 0.182393 0.302779
O O2 0.293901 0.387436 0.214729
O O3 0.143040 0.468853 0.332645
O O4 0.339159 0.394392 0.305999
O O5 0.107733 0.975434 0.901026
O O6 0.004964 0.028762 0.838647
O O7 0.548199 0.831153 0.094943
O O8 0.663492 0.637266 0.123093
O O9 0.729553 0.924872 0.086943
O O10 0.750000 0.750000 0.000000
O O11 0.584343 0.881857 0.448077
O O12 0.484841 0.120272 0.433049
O O13 0.124051 0.879608 0.995907
O O14 0.931669 0.819732 0.019307
O O15 0.000000 0.095598 0.250000
#
# Coordination Sequence:
#
# PCOD9288656 Si02
#       7
#     8   8   8   8   8   8   8
#     4  11  24  45  73 100 133 183 231 291 347 420
#     4  11  25  46  72  99 133 181 233 288 349 414
#     4  12  24  39  67 106 137 187 229 287 352 424
#     4  11  22  43  64  97 137 178 229 274 349 419
#     4  10  22  39  63  89 132 182 216 281 340 404
#     4  10  24  46  71  93 134 186 231 278 357 418
#     4  11  23  41  64  97 136 176 230 282 345 410
#
# _framework density 22.448941999999999
#
# number of rings (size 3 to 8) (size 9 to 14) (size 15 to 20)
#    0.000    1.143    4.286    0.857   10.000    0.571 
#    2.571    1.429    0.000    0.000    0.000    0.000 
#    0.000    0.000    0.000    0.000    0.000    0.000 
#
# Total GULP energy -156085.724656 kJ/mol
# GULP energy per Si atom -5574.490166 kJ/mol
# Density = 2.239785 g / cm^3
# Si number density = 22.448942 Si / 1000 Ang^3
#
#
#
# Elastic Constant Matrix: (Units=GPa)
#
#
# Indices 1 2 3 4 5 6 
#
# 1 68.8361 0.5484 -4.1169 0.0000 -13.7491 0.0000
# 2 0.5484 50.5170 -1.9574 0.0000 -2.0012 0.0000
# 3 -4.1169 -1.9574 66.2958 0.0000 -15.8211 0.0000
# 4 0.0000 0.0000 0.0000 42.5585 0.0000 -3.8848
# 5 -13.7491 -2.0012 -15.8211 0.0000 26.3240 0.0000
# 6 0.0000 0.0000 0.0000 -3.8848 0.0000 17.8151
#
#
#
# Elastic Compliance Matrix: (Units=1/GPa)
#
#
# Indices 1 2 3 4 5 6 
#
# 1 0.016970 0.000401 0.003722 0.000000 0.011131 0.000000
# 2 0.000401 0.019934 0.001197 0.000000 0.002444 0.000000
# 3 0.003722 0.001197 0.018488 0.000000 0.013146 0.000000
# 4 0.000000 0.000000 0.000000 0.023974 0.000000 0.005228
# 5 0.011131 0.002444 0.013146 0.000000 0.051889 0.000000
# 6 0.000000 0.000000 0.000000 0.005228 0.000000 0.057272
#
#
# Mechanical properties :
#
#
# Convention : Reuss Voigt Hill
#
# Bulk Modulus (GPa) = 15.14442 19.39968 17.27205
# Shear Modulus (GPa) = 25.01281 30.08454 27.54867
#
# Velocity S-wave (km/s) = 3.34160 3.66475 3.50690
# Velocity P-wave (km/s) = 4.65287 5.15438 4.91003
#
# Compressibility (1/GPa) = 0.06603091
#
# Stress axis : x y z
#
# Youngs Moduli (GPa) = 58.92794 50.16516 54.09019
#
# Poissons Ratio (x) = -0.02011 -0.20132
# Poissons Ratio (y) = -0.02363 -0.06473
# Poissons Ratio (z) = -0.21933 -0.06003
#
# Static dielectric constant tensor:
#      x y z
#    x 1.885250 0.000000 0.016900 
#    y 0.000000 1.893250 0.000000 
#    z 0.016900 0.000000 1.865200 
# 
# From -- ./inp_files/295080.got.cif
#   From: 2010.05.17/outbox.cif.g08.bks.cpg/sg15_148_cif.got.tgz:295080.got - 2010.06.03 18:47:42.
