data_PCOD9288559
_publ_section_title
;
Structure prediction by ZEFSAII (Michael W. Deem and Ramdas Pophale) SiO2 
 PCOD9288559
Probable space group: C 2/C
;
_chemical_formula_sum "Si O2"
_cell_formula_units_Z 48
_cell_length_a 16.440681
_cell_length_b 19.167048
_cell_length_c 12.683716
_cell_angle_alpha 90.000000
_cell_angle_beta 33.385452
_cell_angle_gamma 90.000000
_cell_volume 2199.360337
_symmetry_space_group_name_H-M "C 2/C"
_symmetry_group_IT_number 15
_symmetry_cell_setting 'monoclinic'
loop_
_space_group_symop_operation_xyz
x,y,z
-x,y,1/2-z
-x,-y,-z
x,-y,1/2+z
1/2+x,1/2+y,z
1/2-x,1/2+y,1/2-z
1/2-x,1/2-y,-z
1/2+x,1/2-y,1/2+z
loop_
_atom_site_type_symbol
_atom_site_label
_atom_site_fract_x
_atom_site_fract_y
_atom_site_fract_z
Si Si1 0.458456 0.880651 0.672745
Si Si2 0.762966 0.381362 0.248257
Si Si3 0.470115 0.276014 0.068595
Si Si4 0.490142 0.541865 0.139916
Si Si5 0.116661 0.285314 0.207016
Si Si6 0.355861 0.591130 0.081063
O O1 0.500000 0.884577 0.750000
O O2 0.599764 0.913334 0.460803
O O3 0.456823 0.799036 0.637171
O O4 0.303410 0.913463 0.802201
O O5 0.684124 0.317974 0.269943
O O6 0.635006 0.432071 0.421679
O O7 0.822817 0.347254 0.289172
O O8 0.529497 0.264042 0.884507
O O9 0.587300 0.329527 0.991214
O O10 0.500000 0.566806 0.250000
O O11 0.361560 0.570268 0.200875
O O12 0.520216 0.459037 0.105371
O O13 0.000000 0.311529 0.250000
O O14 0.250000 0.250000 0.000000
#
# Coordination Sequence:
#
# PCOD9288559 Si02
#       6
#     8   8   8   8   8   8
#     4  11  24  41  64  95 134 171 210 275 332 376
#     4  10  23  38  59  95 128 164 225 269 319 392
#     4  10  22  39  61  93 131 167 219 266 316 402
#     4  10  24  45  70  92 125 175 218 268 321 390
#     4  11  21  33  59  94 131 172 207 269 336 387
#     4  10  24  43  65  93 130 170 224 262 312 401
#
# _framework density 21.824527
#
# number of rings (size 3 to 8) (size 9 to 14) (size 15 to 20)
#    0.000    1.667    1.667    2.000    7.000    8.000 
#    0.000    0.833    0.000    0.000    0.000    0.000 
#    0.000    0.000    0.000    0.000    0.000    0.000 
#
# Total GULP energy -133968.204411 kJ/mol
# GULP energy per Si atom -5582.008517 kJ/mol
# Density = 2.177485 g / cm^3
# Si number density = 21.824527 Si / 1000 Ang^3
#
#
#
# Elastic Constant Matrix: (Units=GPa)
#
#
# Indices 1 2 3 4 5 6 
#
# 1 183.4257 9.4464 61.6365 0.0000 -6.5138 -0.0002
# 2 9.4464 42.8631 -0.4676 -0.0002 1.7638 -0.0001
# 3 61.6365 -0.4676 60.8268 -0.0012 -5.8580 0.0013
# 4 0.0000 -0.0002 -0.0012 18.3431 -0.0001 -7.3382
# 5 -6.5138 1.7638 -5.8580 -0.0001 34.5620 0.0005
# 6 -0.0002 -0.0001 0.0013 -7.3382 0.0005 12.4064
#
#
#
# Elastic Compliance Matrix: (Units=1/GPa)
#
#
# Indices 1 2 3 4 5 6 
#
# 1 0.008429 -0.001961 -0.008532 0.000000 0.000242 0.000001
# 2 -0.001961 0.023836 0.002051 0.000000 -0.001238 0.000000
# 3 -0.008532 0.002051 0.025351 0.000001 0.002584 -0.000003
# 4 0.000000 0.000000 0.000001 0.071415 0.000000 0.042241
# 5 0.000242 -0.001238 0.002584 0.000000 0.029480 -0.000002
# 6 0.000001 0.000000 -0.000003 0.042241 -0.000002 0.105588
#
#
# Mechanical properties :
#
#
# Convention : Reuss Voigt Hill
#
# Bulk Modulus (GPa) = 24.55186 47.59402 36.07294
# Shear Modulus (GPa) = 16.97448 27.49565 22.23507
#
# Velocity S-wave (km/s) = 2.79188 3.55329 3.19534
# Velocity P-wave (km/s) = 4.65477 6.22008 5.49346
#
# Compressibility (1/GPa) = 0.04073011
#
# Stress axis : x y z
#
# Youngs Moduli (GPa) = 118.64451 41.95418 39.44648
#
# Poissons Ratio (x) = 0.08226 0.33658
# Poissons Ratio (y) = 0.23261 -0.08089
# Poissons Ratio (z) = 1.01233 -0.08603
#
# Static dielectric constant tensor:
#      x y z
#    x 1.814840 0.000000 -0.003310 
#    y 0.000000 1.892120 0.000000 
#    z -0.003310 0.000000 1.832640 
# 
# From -- ./inp_files/99996.got.cif
#   From: 2010.05.17/outbox.cif.g08.bks.cpg/sg15_50_cif.got.tgz:99996.got - 2010.06.03 18:47:42.
