data_PCOD9288576
_publ_section_title
;
Structure prediction by ZEFSAII (Michael W. Deem and Ramdas Pophale) SiO2 
 PCOD9288576
Probable space group: C 2/C
;
_chemical_formula_sum "Si O2"
_cell_formula_units_Z 56
_cell_length_a 12.368830
_cell_length_b 20.732539
_cell_length_c 10.918579
_cell_angle_alpha 90.000000
_cell_angle_beta 108.395713
_cell_angle_gamma 90.000000
_cell_volume 2656.852889
_symmetry_space_group_name_H-M "C 2/C"
_symmetry_group_IT_number 15
_symmetry_cell_setting 'monoclinic'
loop_
_space_group_symop_operation_xyz
x,y,z
-x,y,1/2-z
-x,-y,-z
x,-y,1/2+z
1/2+x,1/2+y,z
1/2-x,1/2+y,1/2-z
1/2-x,1/2-y,-z
1/2+x,1/2-y,1/2+z
loop_
_atom_site_type_symbol
_atom_site_label
_atom_site_fract_x
_atom_site_fract_y
_atom_site_fract_z
Si Si1 0.500000 0.141648 0.750000
Si Si2 0.240030 0.928644 0.574498
Si Si3 0.839362 0.043375 0.071736
Si Si4 0.625494 0.769204 0.499659
Si Si5 0.997984 0.862493 0.003936
Si Si6 0.142690 0.616336 0.149640
Si Si7 0.930549 0.566878 0.953664
Si Si8 0.500000 0.559229 0.750000
O O1 0.428497 0.186372 0.629444
O O2 0.430840 0.093561 0.815778
O O3 0.136722 0.878357 0.554098
O O4 0.329778 0.913844 0.711366
O O5 0.307754 0.929148 0.470794
O O6 0.191345 0.001280 0.559594
O O7 0.729222 0.078462 0.088741
O O8 0.898639 0.989727 0.178191
O O9 0.933554 0.095961 0.071865
O O10 0.750000 0.750000 0.500000
O O11 0.540933 0.710239 0.500257
O O12 0.658300 0.808307 0.634711
O O13 0.027537 0.894459 0.145629
O O14 0.012713 0.611253 0.063283
O O15 0.000000 0.500000 0.000000
#
# Coordination Sequence:
#
# PCOD9288576 Si02
#       8
#     4   8   8   8   8   8   8   4
#     4  10  28  47  68 101 138 180 256 284 342 442
#     4  11  24  40  70 105 136 174 225 294 364 408
#     4  11  20  39  68 102 138 175 224 292 359 425
#     4  11  25  46  70  97 137 198 237 280 341 426
#     4  11  24  43  66 103 138 184 232 282 361 415
#     4  11  23  41  66 101 136 177 232 280 339 428
#     4  11  24  44  69 103 136 182 226 291 363 418
#     4  10  22  39  62 105 142 172 226 300 364 420
#
# _framework density 21.077569
#
# number of rings (size 3 to 8) (size 9 to 14) (size 15 to 20)
#    0.000    1.143    2.857    3.857    4.000    2.857 
#    5.143    2.857    0.000    0.000    0.000    0.000 
#    0.000    0.000    0.000    0.000    0.000    0.000 
#
# Total GULP energy -156104.851368 kJ/mol
# GULP energy per Si atom -5575.173263 kJ/mol
# Density = 2.102960 g / cm^3
# Si number density = 21.077569 Si / 1000 Ang^3
#
#
#
# Elastic Constant Matrix: (Units=GPa)
#
#
# Indices 1 2 3 4 5 6 
#
# 1 119.9063 29.2220 12.7309 0.0000 0.6319 0.0000
# 2 29.2220 98.6126 23.9167 0.0000 -8.1969 0.0000
# 3 12.7309 23.9167 85.8708 0.0000 -2.8140 0.0000
# 4 0.0000 0.0000 0.0000 26.5753 0.0000 -2.7104
# 5 0.6319 -8.1969 -2.8140 0.0000 26.3556 0.0000
# 6 0.0000 0.0000 0.0000 -2.7104 0.0000 34.8310
#
#
#
# Elastic Compliance Matrix: (Units=1/GPa)
#
#
# Indices 1 2 3 4 5 6 
#
# 1 0.009052 -0.002616 -0.000649 0.000000 -0.001100 0.000000
# 2 -0.002616 0.011885 -0.002809 0.000000 0.003459 0.000000
# 3 -0.000649 -0.002809 0.012540 0.000000 0.000481 0.000000
# 4 0.000000 0.000000 0.000000 0.037930 0.000000 0.002952
# 5 -0.001100 0.003459 0.000481 0.000000 0.039096 0.000000
# 6 0.000000 0.000000 0.000000 0.002952 0.000000 0.028940
#
#
# Mechanical properties :
#
#
# Convention : Reuss Voigt Hill
#
# Bulk Modulus (GPa) = 46.88796 48.45875 47.67336
# Shear Modulus (GPa) = 31.50576 33.45372 32.47974
#
# Velocity S-wave (km/s) = 3.87040 3.98825 3.92977
# Velocity P-wave (km/s) = 6.50131 6.65198 6.57708
#
# Compressibility (1/GPa) = 0.02132744
#
# Stress axis : x y z
#
# Youngs Moduli (GPa) = 110.47003 84.14115 79.74627
#
# Poissons Ratio (x) = 0.22015 0.05179
# Poissons Ratio (y) = 0.28903 0.22400
# Poissons Ratio (z) = 0.07174 0.23634
#
# Static dielectric constant tensor:
#      x y z
#    x 2.501220 0.000000 0.053500 
#    y 0.000000 2.085220 0.000000 
#    z 0.053500 0.000000 1.814120 
# 
# From -- ./inp_files/89683.got.cif
#   From: 2010.05.17/outbox.cif.g08.bks.cpg/sg15_45_cif.got.tgz:89683.got - 2010.06.03 18:47:42.
