data_PCOD9288755
_publ_section_title
;
Structure prediction by ZEFSAII (Michael W. Deem and Ramdas Pophale) SiO2 
 PCOD9288755
Probable space group: C 2/C
;
_chemical_formula_sum "Si O2"
_cell_formula_units_Z 60
_cell_length_a 18.962631
_cell_length_b 10.885951
_cell_length_c 21.243220
_cell_angle_alpha 90.000000
_cell_angle_beta 40.421537
_cell_angle_gamma 90.000000
_cell_volume 2843.363704
_symmetry_space_group_name_H-M "C 2/C"
_symmetry_group_IT_number 15
_symmetry_cell_setting 'monoclinic'
loop_
_space_group_symop_operation_xyz
x,y,z
-x,y,1/2-z
-x,-y,-z
x,-y,1/2+z
1/2+x,1/2+y,z
1/2-x,1/2+y,1/2-z
1/2-x,1/2-y,-z
1/2+x,1/2-y,1/2+z
loop_
_atom_site_type_symbol
_atom_site_label
_atom_site_fract_x
_atom_site_fract_y
_atom_site_fract_z
Si Si1 0.887649 0.831956 0.213706
Si Si2 0.192409 0.616269 0.032903
Si Si3 0.823257 0.869900 0.937015
Si Si4 0.258775 0.344062 0.841887
Si Si5 0.955302 0.110576 0.140771
Si Si6 0.000000 0.311812 0.750000
Si Si7 0.956326 0.238110 0.529352
Si Si8 0.844750 0.599624 0.591387
O O1 0.943910 0.773432 0.235893
O O2 0.932180 0.772983 0.119457
O O3 0.758606 0.822983 0.313291
O O4 0.920045 0.973913 0.183275
O O5 0.270405 0.500041 0.994070
O O6 0.408433 0.886380 0.850336
O O7 0.156341 0.604646 0.984315
O O8 0.250000 0.750000 0.000000
O O9 0.823141 0.878136 0.861338
O O10 0.940656 0.855057 0.888144
O O11 0.750000 0.750000 0.000000
O O12 0.350413 0.308437 0.730160
O O13 0.163671 0.247881 0.918965
O O14 0.187946 0.461431 0.867919
O O15 0.985284 0.128220 0.047610
O O16 0.040710 0.350031 0.462317
#
# Coordination Sequence:
#
# PCOD9288755 Si02
#       8
#     8   8   8   8   8   4   8   8
#     4  11  24  38  66  98 130 173 224 274 334 394
#     4  11  22  41  69 100 129 170 230 279 326 390
#     4  11  23  45  67  96 133 175 220 276 335 389
#     4  10  23  42  65  93 126 177 226 261 332 406
#     4  11  24  41  66  94 129 174 221 274 328 410
#     4  12  22  42  66 102 132 172 226 284 334 382
#     4  12  22  42  62  93 136 168 219 273 338 392
#     4  10  22  39  64  93 130 174 217 269 330 394
#
# _framework density 21.101768
#
# number of rings (size 3 to 8) (size 9 to 14) (size 15 to 20)
#    0.000    1.067    4.000    2.800    3.733    0.000 
#    2.400    1.333    0.000    0.000    0.000    0.000 
#    0.000    0.000    0.000    0.000    0.000    0.000 
#
# Total GULP energy -167468.420852 kJ/mol
# GULP energy per Si atom -5582.280695 kJ/mol
# Density = 2.105374 g / cm^3
# Si number density = 21.101768 Si / 1000 Ang^3
#
#
#
# Elastic Constant Matrix: (Units=GPa)
#
#
# Indices 1 2 3 4 5 6 
#
# 1 76.0502 12.7151 50.2840 0.0000 -5.1970 0.0000
# 2 12.7151 59.8853 35.6950 0.0000 -4.8684 0.0000
# 3 50.2840 35.6950 190.6949 0.0000 -3.4047 0.0000
# 4 0.0000 0.0000 0.0000 29.6682 0.0000 -0.4800
# 5 -5.1970 -4.8684 -3.4047 0.0000 36.2528 0.0000
# 6 0.0000 0.0000 0.0000 -0.4800 0.0000 22.1700
#
#
#
# Elastic Compliance Matrix: (Units=1/GPa)
#
#
# Indices 1 2 3 4 5 6 
#
# 1 0.016095 -0.000855 -0.004052 0.000000 0.001812 0.000000
# 2 -0.000855 0.019017 -0.003296 0.000000 0.002122 0.000000
# 3 -0.004052 -0.003296 0.006923 0.000000 -0.000373 0.000000
# 4 0.000000 0.000000 0.000000 0.033718 0.000000 0.000730
# 5 0.001812 0.002122 -0.000373 0.000000 0.028094 0.000000
# 6 0.000000 0.000000 0.000000 0.000730 0.000000 0.045122
#
#
# Mechanical properties :
#
#
# Convention : Reuss Voigt Hill
#
# Bulk Modulus (GPa) = 39.01844 58.22428 48.62136
# Shear Modulus (GPa) = 28.74924 32.81395 30.78159
#
# Velocity S-wave (km/s) = 3.69509 3.94767 3.82346
# Velocity P-wave (km/s) = 6.06099 6.95923 6.52558
#
# Compressibility (1/GPa) = 0.02562891
#
# Stress axis : x y z
#
# Youngs Moduli (GPa) = 62.13145 52.58326 144.45202
#
# Poissons Ratio (x) = 0.04496 0.58527
# Poissons Ratio (y) = 0.05313 0.47617
# Poissons Ratio (z) = 0.25173 0.17334
#
# Static dielectric constant tensor:
#      x y z
#    x 1.773280 0.000000 0.014040 
#    y 0.000000 1.795510 0.000000 
#    z 0.014040 0.000000 1.810410 
# 
# From -- ./inp_files/248770.got.cif
#   From: 2010.05.17/outbox.cif.g08.bks.cpg/sg15_125_cif.got.tgz:248770.got - 2010.06.03 18:47:42.
