data_PCOD9288831
_publ_section_title
;
Structure prediction by ZEFSAII (Michael W. Deem and Ramdas Pophale) SiO2 
 PCOD9288831
Probable space group: C 2/C
;
_chemical_formula_sum "Si O2"
_cell_formula_units_Z 56
_cell_length_a 20.677255
_cell_length_b 17.959213
_cell_length_c 8.473446
_cell_angle_alpha 90.000000
_cell_angle_beta 126.729045
_cell_angle_gamma 90.000000
_cell_volume 2521.906166
_symmetry_space_group_name_H-M "C 2/C"
_symmetry_group_IT_number 15
_symmetry_cell_setting 'monoclinic'
loop_
_space_group_symop_operation_xyz
x,y,z
-x,y,1/2-z
-x,-y,-z
x,-y,1/2+z
1/2+x,1/2+y,z
1/2-x,1/2+y,1/2-z
1/2-x,1/2-y,-z
1/2+x,1/2-y,1/2+z
loop_
_atom_site_type_symbol
_atom_site_label
_atom_site_fract_x
_atom_site_fract_y
_atom_site_fract_z
Si Si1 0.726369 0.402279 0.700055
Si Si2 0.179898 0.266449 0.531542
Si Si3 0.221580 0.172825 0.881113
Si Si4 0.500000 0.482540 0.250000
Si Si5 0.329953 0.949166 0.393516
Si Si6 0.000000 0.772004 0.750000
Si Si7 0.567130 0.399540 0.648903
Si Si8 0.442333 0.041527 0.789908
O O1 0.795420 0.342708 0.844185
O O2 0.687302 0.377228 0.474958
O O3 0.765250 0.484837 0.759872
O O4 0.658562 0.387544 0.731800
O O5 0.250000 0.250000 0.500000
O O6 0.178891 0.198817 0.658358
O O7 0.084758 0.271003 0.356067
O O8 0.292759 0.121157 0.923653
O O9 0.250000 0.250000 0.000000
O O10 0.526187 0.435268 0.436370
O O11 0.431838 0.539675 0.210071
O O12 0.374577 0.921980 0.300194
O O13 0.393139 0.984117 0.608998
O O14 0.013887 0.829695 0.624515
O O15 0.500000 0.082615 0.750000
O O16 0.500000 0.000000 0.000000
#
# Coordination Sequence:
#
# PCOD9288831 Si02
#       8
#     8   8   8   4   8   4   8   8
#     4  11  24  42  68 104 137 185 241 298 363 440
#     4  11  25  48  70  99 143 185 241 301 359 445
#     4  10  25  45  70  99 146 184 240 300 365 440
#     4   9  22  38  60 108 144 177 230 306 347 432
#     4  11  21  40  70 102 133 189 241 294 371 436
#     4  11  24  46  70  98 136 199 234 294 379 436
#     4  10  22  39  66 100 144 180 235 290 365 435
#     4   9  20  38  61  99 143 180 240 309 354 418
#
# _framework density 22.205424000000001
#
# number of rings (size 3 to 8) (size 9 to 14) (size 15 to 20)
#    0.000    1.714    2.857    0.000    6.000    2.286 
#    3.857    0.000    0.000    0.000    0.000    0.000 
#    0.000    0.000    0.000    0.000    0.000    0.000 
#
# Total GULP energy -156064.546414 kJ/mol
# GULP energy per Si atom -5573.733800 kJ/mol
# Density = 2.215488 g / cm^3
# Si number density = 22.205424 Si / 1000 Ang^3
#
#
#
# Elastic Constant Matrix: (Units=GPa)
#
#
# Indices 1 2 3 4 5 6 
#
# 1 186.6542 56.8610 31.0174 0.0000 -9.8784 0.0000
# 2 56.8610 95.1939 29.0040 0.0000 3.0088 0.0000
# 3 31.0174 29.0040 65.0523 0.0000 -2.5659 0.0000
# 4 0.0000 0.0000 0.0000 14.4739 0.0000 -8.8006
# 5 -9.8784 3.0088 -2.5659 0.0000 39.8636 0.0000
# 6 0.0000 0.0000 0.0000 -8.8006 0.0000 29.8461
#
#
#
# Elastic Compliance Matrix: (Units=1/GPa)
#
#
# Indices 1 2 3 4 5 6 
#
# 1 0.006831 -0.003668 -0.001548 0.000000 0.001870 0.000000
# 2 -0.003668 0.014190 -0.004668 0.000000 -0.002280 0.000000
# 3 -0.001548 -0.004668 0.018237 0.000000 0.001143 0.000000
# 4 0.000000 0.000000 0.000000 0.084183 0.000000 0.024823
# 5 0.001870 -0.002280 0.001143 0.000000 0.025795 0.000000
# 6 0.000000 0.000000 0.000000 0.024823 0.000000 0.040825
#
#
# Mechanical properties :
#
#
# Convention : Reuss Voigt Hill
#
# Bulk Modulus (GPa) = 51.30733 64.51834 57.91284
# Shear Modulus (GPa) = 23.11352 32.17126 27.64239
#
# Velocity S-wave (km/s) = 3.22979 3.81044 3.53207
# Velocity P-wave (km/s) = 6.08808 6.96258 6.53996
#
# Compressibility (1/GPa) = 0.01949039
#
# Stress axis : x y z
#
# Youngs Moduli (GPa) = 146.39089 70.47233 54.83478
#
# Poissons Ratio (x) = 0.25847 0.08489
# Poissons Ratio (y) = 0.53692 0.25596
# Poissons Ratio (z) = 0.22662 0.32895
#
# Static dielectric constant tensor:
#      x y z
#    x 1.858100 0.000000 -0.010190 
#    y 0.000000 1.836340 0.000000 
#    z -0.010190 0.000000 1.893090 
# 
# From -- ./inp_files/57953.got.cif
#   From: 2010.05.17/outbox.cif.g08.bks.cpg/sg15_29_cif.got.tgz:57953.got - 2010.06.03 18:47:42.
