data_PCOD9288757
_publ_section_title
;
Structure prediction by ZEFSAII (Michael W. Deem and Ramdas Pophale) SiO2 
 PCOD9288757
Probable space group: C 2/C
;
_chemical_formula_sum "Si O2"
_cell_formula_units_Z 40
_cell_length_a 10.177429
_cell_length_b 15.163824
_cell_length_c 18.925570
_cell_angle_alpha 90.000000
_cell_angle_beta 36.999322
_cell_angle_gamma 90.000000
_cell_volume 1757.729290
_symmetry_space_group_name_H-M "C 2/C"
_symmetry_group_IT_number 15
_symmetry_cell_setting 'monoclinic'
loop_
_space_group_symop_operation_xyz
x,y,z
-x,y,1/2-z
-x,-y,-z
x,-y,1/2+z
1/2+x,1/2+y,z
1/2-x,1/2+y,1/2-z
1/2-x,1/2-y,-z
1/2+x,1/2-y,1/2+z
loop_
_atom_site_type_symbol
_atom_site_label
_atom_site_fract_x
_atom_site_fract_y
_atom_site_fract_z
Si Si1 0.182035 0.082580 0.074679
Si Si2 0.795246 0.611182 0.188032
Si Si3 0.049384 0.120323 0.605381
Si Si4 0.942250 0.426117 0.192164
Si Si5 0.869219 0.704986 0.373381
O O1 0.274509 0.095543 0.113635
O O2 0.944909 0.128629 0.176860
O O3 0.355952 0.109878 0.940813
O O4 0.126065 0.978757 0.088541
O O5 0.892811 0.523569 0.182476
O O6 0.962474 0.687329 0.134910
O O7 0.788429 0.122821 0.718211
O O8 0.149721 0.189626 0.618363
O O9 0.154801 0.150747 0.485391
O O10 0.000000 0.429257 0.250000
O O11 0.000000 0.672732 0.250000
#
# Coordination Sequence:
#
# PCOD9288757 Si02
#       5
#     8   8   8   8   8
#     4  10  22  41  68  91 128 172 224 266 316 391
#     4  10  22  39  64  94 124 170 218 266 323 378
#     4  10  25  41  63  96 128 174 216 260 333 384
#     4  11  23  38  65  93 128 164 220 272 319 374
#     4  11  24  41  66  93 134 169 214 271 324 389
#
# _framework density 22.756630999999999
#
# number of rings (size 3 to 8) (size 9 to 14) (size 15 to 20)
#    0.000    1.600    2.000    1.200    8.400    3.200 
#    3.600    1.000    0.000    0.000    0.000    0.000 
#    0.000    0.000    0.000    0.000    0.000    0.000 
#
# Total GULP energy -111780.445298 kJ/mol
# GULP energy per Si atom -5589.022265 kJ/mol
# Density = 2.270484 g / cm^3
# Si number density = 22.756631 Si / 1000 Ang^3
#
#
#
# Elastic Constant Matrix: (Units=GPa)
#
#
# Indices 1 2 3 4 5 6 
#
# 1 69.0471 -16.9410 51.2701 -0.0009 -0.7695 0.0006
# 2 -16.9410 26.7547 1.1888 -0.0002 -13.5419 0.0007
# 3 51.2701 1.1888 224.9952 0.0005 1.6356 0.0021
# 4 -0.0009 -0.0002 0.0005 29.2084 0.0005 -3.9856
# 5 -0.7695 -13.5419 1.6356 0.0005 35.2458 -0.0008
# 6 0.0006 0.0007 0.0021 -3.9856 -0.0008 4.7111
#
#
#
# Elastic Compliance Matrix: (Units=1/GPa)
#
#
# Indices 1 2 3 4 5 6 
#
# 1 0.023331 0.019122 -0.005477 0.000001 0.008110 -0.000002
# 2 0.019122 0.062103 -0.004864 0.000000 0.024504 -0.000006
# 3 -0.005477 -0.004864 0.005735 -0.000001 -0.002254 -0.000002
# 4 0.000001 0.000000 -0.000001 0.038705 0.000000 0.032744
# 5 0.008110 0.024504 -0.002254 0.000000 0.038069 0.000003
# 6 -0.000002 -0.000006 -0.000002 0.032744 0.000003 0.239965
#
#
# Mechanical properties :
#
#
# Convention : Reuss Voigt Hill
#
# Bulk Modulus (GPa) = 9.19687 43.53698 26.36692
# Shear Modulus (GPa) = 11.72090 32.85167 22.28629
#
# Velocity S-wave (km/s) = 2.27194 3.80361 3.13282
# Velocity P-wave (km/s) = 3.30643 6.20185 4.96968
#
# Compressibility (1/GPa) = 0.10873269
#
# Stress axis : x y z
#
# Youngs Moduli (GPa) = 42.86068 16.10218 174.38063
#
# Poissons Ratio (x) = -0.30790 0.95501
# Poissons Ratio (y) = -0.81957 0.84811
# Poissons Ratio (z) = 0.23473 0.07831
#
# Static dielectric constant tensor:
#      x y z
#    x 1.818790 0.000000 0.008600 
#    y 0.000000 1.873450 0.000000 
#    z 0.008600 0.000000 1.909240 
# 
# From -- ./inp_files/239706.got.cif
#   From: 2010.05.17/outbox.cif.g08.bks.cpg/sg15_120_cif.got.tgz:239706.got - 2010.06.03 18:47:42.
