data_PCOD9288293
_publ_section_title
;
Structure prediction by ZEFSAII (Michael W. Deem and Ramdas Pophale) SiO2 
 PCOD9288293
Probable space group: C 2/C
;
_chemical_formula_sum "Si O2"
_cell_formula_units_Z 36
_cell_length_a 10.655561
_cell_length_b 14.110471
_cell_length_c 14.671768
_cell_angle_alpha 90.000000
_cell_angle_beta 134.052771
_cell_angle_gamma 90.000000
_cell_volume 1585.432447
_symmetry_space_group_name_H-M "C 2/C"
_symmetry_group_IT_number 15
_symmetry_cell_setting 'monoclinic'
loop_
_space_group_symop_operation_xyz
x,y,z
-x,y,1/2-z
-x,-y,-z
x,-y,1/2+z
1/2+x,1/2+y,z
1/2-x,1/2+y,1/2-z
1/2-x,1/2-y,-z
1/2+x,1/2-y,1/2+z
loop_
_atom_site_type_symbol
_atom_site_label
_atom_site_fract_x
_atom_site_fract_y
_atom_site_fract_z
Si Si1 0.000000 0.713358 0.250000
Si Si2 0.226611 0.645663 0.702709
Si Si3 0.106737 0.038085 0.211550
Si Si4 0.024004 0.640241 0.075232
Si Si5 0.562526 0.278478 0.942818
O O1 0.151621 0.780292 0.288915
O O2 0.054121 0.650613 0.363729
O O3 0.335294 0.561719 0.802981
O O4 0.110205 0.595195 0.564066
O O5 0.082106 0.710193 0.679501
O O6 0.287263 0.093451 0.322704
O O7 0.000000 0.016570 0.250000
O O8 0.989829 0.113401 0.097890
O O9 0.049081 0.743722 0.040645
O O10 0.750000 0.250000 0.000000
#
# Coordination Sequence:
#
# PCOD9288293 Si02
#       5
#     4   8   8   8   8
#     4  12  20  42  66  88 136 172 220 278 334 390
#     4  10  23  37  66  98 131 176 219 275 334 398
#     4  12  20  39  69  93 134 180 217 272 340 395
#     4  10  22  38  67  95 129 176 221 274 333 390
#     4  10  22  40  67 102 132 170 225 276 336 397
#
# _framework density 22.706738999999999
#
# number of rings (size 3 to 8) (size 9 to 14) (size 15 to 20)
#    1.333    0.000    5.556    1.333    0.000    0.000 
#    0.000    1.111   12.222    0.000    0.000    0.000 
#    0.000    0.000    0.000    0.000    0.000    0.000 
#
# Total GULP energy -100373.077183 kJ/mol
# GULP energy per Si atom -5576.282066 kJ/mol
# Density = 2.265506 g / cm^3
# Si number density = 22.706739 Si / 1000 Ang^3
#
#
#
# Elastic Constant Matrix: (Units=GPa)
#
#
# Indices 1 2 3 4 5 6 
#
# 1 80.4736 32.8023 26.2000 0.0000 19.7520 0.0000
# 2 32.8023 110.3916 23.8097 0.0000 18.6976 0.0000
# 3 26.2000 23.8097 51.5762 0.0000 13.5268 0.0000
# 4 0.0000 0.0000 0.0000 40.6689 0.0000 6.7880
# 5 19.7520 18.6976 13.5268 0.0000 45.0131 0.0000
# 6 0.0000 0.0000 0.0000 6.7880 0.0000 18.5099
#
#
#
# Elastic Compliance Matrix: (Units=1/GPa)
#
#
# Indices 1 2 3 4 5 6 
#
# 1 0.016612 -0.002924 -0.005966 0.000000 -0.004282 0.000000
# 2 -0.002924 0.010968 -0.002952 0.000000 -0.002386 0.000000
# 3 -0.005966 -0.002952 0.024722 0.000000 -0.003585 0.000000
# 4 0.000000 0.000000 0.000000 0.026192 0.000000 -0.009605
# 5 -0.004282 -0.002386 -0.003585 0.000000 0.026163 0.000000
# 6 0.000000 0.000000 0.000000 -0.009605 0.000000 0.057548
#
#
# Mechanical properties :
#
#
# Convention : Reuss Voigt Hill
#
# Bulk Modulus (GPa) = 34.94262 45.34062 40.14162
# Shear Modulus (GPa) = 25.58481 31.48035 28.53258
#
# Velocity S-wave (km/s) = 3.36035 3.72746 3.54866
# Velocity P-wave (km/s) = 5.52069 6.20778 5.87429
#
# Compressibility (1/GPa) = 0.02861834
#
# Stress axis : x y z
#
# Youngs Moduli (GPa) = 60.19904 91.17091 40.44915
#
# Poissons Ratio (x) = 0.26659 0.24130
# Poissons Ratio (y) = 0.17603 0.11942
# Poissons Ratio (z) = 0.35912 0.26917
#
# Static dielectric constant tensor:
#      x y z
#    x 1.804250 0.000000 -0.025970 
#    y 0.000000 1.877670 0.000000 
#    z -0.025970 0.000000 1.983110 
# 
# From -- ./inp_files/197500.got.cif
#   From: 2010.05.17/outbox.cif.g08.bks.cpg/sg15_99_cif.got.tgz:197500.got - 2010.06.03 18:47:42.
