data_PCOD9288267
_publ_section_title
;
Structure prediction by ZEFSAII (Michael W. Deem and Ramdas Pophale) SiO2 
 PCOD9288267
Probable space group: C 2/C
;
_chemical_formula_sum "Si O2"
_cell_formula_units_Z 40
_cell_length_a 17.341469
_cell_length_b 7.279013
_cell_length_c 22.712540
_cell_angle_alpha 90.000000
_cell_angle_beta 144.363446
_cell_angle_gamma 90.000000
_cell_volume 1670.419586
_symmetry_space_group_name_H-M "C 2/C"
_symmetry_group_IT_number 15
_symmetry_cell_setting 'monoclinic'
loop_
_space_group_symop_operation_xyz
x,y,z
-x,y,1/2-z
-x,-y,-z
x,-y,1/2+z
1/2+x,1/2+y,z
1/2-x,1/2+y,1/2-z
1/2-x,1/2-y,-z
1/2+x,1/2-y,1/2+z
loop_
_atom_site_type_symbol
_atom_site_label
_atom_site_fract_x
_atom_site_fract_y
_atom_site_fract_z
Si Si1 0.896433 0.822641 0.878868
Si Si2 0.185784 0.822603 0.020552
Si Si3 0.345467 0.754544 0.479569
Si Si4 0.883383 0.185679 0.820389
Si Si5 0.645691 0.537076 0.318704
O O1 0.884617 0.730996 0.934959
O O2 0.755561 0.785334 0.760894
O O3 0.902776 0.043558 0.885922
O O4 0.030868 0.768542 0.929516
O O5 0.264432 0.717521 0.121004
O O6 0.192894 0.043420 0.030797
O O7 0.250000 0.750000 0.000000
O O8 0.480945 0.800510 0.598069
O O9 0.221415 0.889770 0.407849
O O10 0.874022 0.061634 0.755975
O O11 0.500000 0.583061 0.250000
#
# Coordination Sequence:
#
# PCOD9288267 Si02
#       5
#     8   8   8   8   8
#     4  10  23  40  67  97 129 172 220 274 332 389
#     4  11  24  43  65  96 132 174 214 276 331 390
#     4  10  24  46  65  93 137 172 217 277 330 391
#     4  10  22  38  66  95 123 172 217 270 322 394
#     4  11  25  42  65  98 131 172 220 265 331 400
#
# _framework density 23.946079000000001
#
# number of rings (size 3 to 8) (size 9 to 14) (size 15 to 20)
#    0.000    1.600    0.000    4.800    8.400    5.600 
#    3.600    0.000    0.000    0.000    0.000    0.000 
#    0.000    0.000    0.000    0.000    0.000    0.000 
#
# Total GULP energy -111833.589580 kJ/mol
# GULP energy per Si atom -5591.679479 kJ/mol
# Density = 2.389158 g / cm^3
# Si number density = 23.946079 Si / 1000 Ang^3
#
#
#
# Elastic Constant Matrix: (Units=GPa)
#
#
# Indices 1 2 3 4 5 6 
#
# 1 72.1616 19.2090 28.0812 0.0000 10.7292 0.0000
# 2 19.2090 75.4892 42.6725 0.0001 23.8776 0.0001
# 3 28.0812 42.6725 183.3808 0.0000 37.1816 0.0000
# 4 0.0000 0.0001 0.0000 53.1451 0.0000 -4.5761
# 5 10.7292 23.8776 37.1816 0.0000 48.7032 0.0000
# 6 0.0000 0.0001 0.0000 -4.5761 0.0000 18.4464
#
#
#
# Elastic Compliance Matrix: (Units=1/GPa)
#
#
# Indices 1 2 3 4 5 6 
#
# 1 0.015315 -0.002763 -0.001530 0.000000 -0.000851 0.000000
# 2 -0.002763 0.017185 -0.002356 0.000000 -0.006018 0.000000
# 3 -0.001530 -0.002356 0.007020 0.000000 -0.003867 0.000000
# 4 0.000000 0.000000 0.000000 0.019227 0.000000 0.004770
# 5 -0.000851 -0.006018 -0.003867 0.000000 0.026623 0.000000
# 6 0.000000 0.000000 0.000000 0.004770 0.000000 0.055394
#
#
# Mechanical properties :
#
#
# Convention : Reuss Voigt Hill
#
# Bulk Modulus (GPa) = 38.13404 56.77300 47.45352
# Shear Modulus (GPa) = 30.71211 40.13020 35.42116
#
# Velocity S-wave (km/s) = 3.58516 4.09816 3.85022
# Velocity P-wave (km/s) = 5.75303 6.79363 6.29487
#
# Compressibility (1/GPa) = 0.02622329
#
# Stress axis : x y z
#
# Youngs Moduli (GPa) = 65.29486 58.18953 142.45831
#
# Poissons Ratio (x) = 0.16078 0.21790
# Poissons Ratio (y) = 0.18042 0.33558
# Poissons Ratio (z) = 0.09988 0.13707
#
# Static dielectric constant tensor:
#      x y z
#    x 1.952290 0.000000 -0.033790 
#    y 0.000000 1.912230 0.000000 
#    z -0.033790 0.000000 1.965690 
# 
# From -- ./inp_files/125437.got.cif
#   From: 2010.05.17/outbox.cif.g08.bks.cpg/sg15_63_cif.got.tgz:125437.got - 2010.06.03 18:47:42.
