data_PCOD9288821
_publ_section_title
;
Structure prediction by ZEFSAII (Michael W. Deem and Ramdas Pophale) SiO2 
 PCOD9288821
Probable space group: C 2/C
;
_chemical_formula_sum "Si O2"
_cell_formula_units_Z 48
_cell_length_a 10.516516
_cell_length_b 8.894955
_cell_length_c 24.193925
_cell_angle_alpha 90.000000
_cell_angle_beta 113.159705
_cell_angle_gamma 90.000000
_cell_volume 2080.808998
_symmetry_space_group_name_H-M "C 2/C"
_symmetry_group_IT_number 15
_symmetry_cell_setting 'monoclinic'
loop_
_space_group_symop_operation_xyz
x,y,z
-x,y,1/2-z
-x,-y,-z
x,-y,1/2+z
1/2+x,1/2+y,z
1/2-x,1/2+y,1/2-z
1/2-x,1/2-y,-z
1/2+x,1/2-y,1/2+z
loop_
_atom_site_type_symbol
_atom_site_label
_atom_site_fract_x
_atom_site_fract_y
_atom_site_fract_z
Si Si1 0.846529 0.198558 0.438370
Si Si2 0.138144 0.395293 0.751126
Si Si3 0.613550 0.060781 0.641214
Si Si4 0.957118 0.728388 0.073141
Si Si5 0.213116 0.916128 0.130667
Si Si6 0.349001 0.348326 0.698685
O O1 0.896002 0.281738 0.391111
O O2 0.944898 0.240412 0.505910
O O3 0.693285 0.255066 0.427617
O O4 0.822619 0.020943 0.427200
O O5 0.084491 0.528460 0.700926
O O6 0.224784 0.469513 0.814397
O O7 0.244624 0.303371 0.731622
O O8 0.000000 0.317289 0.750000
O O9 0.515174 0.938725 0.594320
O O10 0.772898 0.999500 0.664745
O O11 0.067997 0.838413 0.119697
O O12 0.322503 0.778909 0.147876
O O13 0.500000 0.364879 0.750000
#
# Coordination Sequence:
#
# PCOD9288821 Si02
#       6
#     8   8   8   8   8   8
#     4  11  23  41  70  92 133 179 230 275 343 385
#     4  10  22  39  65  97 131 173 217 273 340 403
#     4   9  22  40  69  93 133 172 223 273 336 402
#     4  10  23  44  62 100 132 176 227 287 324 406
#     4  11  23  39  66  93 138 168 221 274 335 400
#     4   9  22  41  63  98 135 169 218 272 334 412
#
# _framework density 23.067951999999998
#
# number of rings (size 3 to 8) (size 9 to 14) (size 15 to 20)
#    1.000    1.000    0.000    2.500    4.667    0.000 
#    0.000    2.500    0.000   12.000    0.000    0.000 
#    0.000    0.000    0.000    0.000    0.000    0.000 
#
# Total GULP energy -133849.072136 kJ/mol
# GULP energy per Si atom -5577.044672 kJ/mol
# Density = 2.301545 g / cm^3
# Si number density = 23.067952 Si / 1000 Ang^3
#
#
#
# Elastic Constant Matrix: (Units=GPa)
#
#
# Indices 1 2 3 4 5 6 
#
# 1 86.1515 10.0392 35.3210 0.0000 20.6322 0.0000
# 2 10.0392 30.5494 4.8125 0.0000 8.5816 0.0000
# 3 35.3210 4.8125 71.4574 0.0000 27.0245 0.0000
# 4 0.0000 0.0000 0.0000 26.6052 0.0000 -1.9987
# 5 20.6322 8.5816 27.0245 0.0000 38.0466 0.0000
# 6 0.0000 0.0000 0.0000 -1.9987 0.0000 -0.1963
#
#
#
# Elastic Compliance Matrix: (Units=1/GPa)
#
#
# Indices 1 2 3 4 5 6 
#
# 1 0.015249 -0.003144 -0.006107 0.000000 -0.003222 0.000000
# 2 -0.003144 0.035635 0.002118 0.000000 -0.007837 0.000000
# 3 -0.006107 0.002118 0.021601 0.000000 -0.012509 0.000000
# 4 0.000000 0.000000 0.000000 0.021299 0.000000 -0.216813
# 5 -0.003222 -0.007837 -0.012509 0.000000 0.038684 0.000000
# 6 0.000000 0.000000 0.000000 -0.216813 0.000000 -2.886115
#
#
# Mechanical properties :
#
#
# Convention : Reuss Voigt Hill
#
# Bulk Modulus (GPa) = 17.17642 32.05596 24.61619
# Shear Modulus (GPa) = -1.83825 22.09012 10.12593
#
# Velocity S-wave (km/s) = -0.89365 3.09789 2.09741
# Velocity P-wave (km/s) = 2.52930 5.16937 4.06938
#
# Compressibility (1/GPa) = 0.05821933
#
# Stress axis : x y z
#
# Youngs Moduli (GPa) = 65.57603 28.06235 46.29331
#
# Poissons Ratio (x) = 0.08823 0.28273
# Poissons Ratio (y) = 0.20617 -0.09805
# Poissons Ratio (z) = 0.40049 -0.05944
#
# Static dielectric constant tensor:
#      x y z
#    x 1.903330 0.000000 -0.035620 
#    y 0.000000 1.895940 0.000000 
#    z -0.035620 0.000000 1.874510 
# 
# From -- ./inp_files/291308.got.cif
#   From: 2010.05.17/outbox.cif.g08.bks.cpg/sg15_146_cif.got.tgz:291308.got - 2010.06.03 18:47:42.
