data_PCOD9288558
_publ_section_title
;
Structure prediction by ZEFSAII (Michael W. Deem and Ramdas Pophale) SiO2 
 PCOD9288558
Probable space group: C 2/C
;
_chemical_formula_sum "Si O2"
_cell_formula_units_Z 56
_cell_length_a 8.264563
_cell_length_b 24.087731
_cell_length_c 13.483518
_cell_angle_alpha 90.000000
_cell_angle_beta 102.316888
_cell_angle_gamma 90.000000
_cell_volume 2622.442038
_symmetry_space_group_name_H-M "C 2/C"
_symmetry_group_IT_number 15
_symmetry_cell_setting 'monoclinic'
loop_
_space_group_symop_operation_xyz
x,y,z
-x,y,1/2-z
-x,-y,-z
x,-y,1/2+z
1/2+x,1/2+y,z
1/2-x,1/2+y,1/2-z
1/2-x,1/2-y,-z
1/2+x,1/2-y,1/2+z
loop_
_atom_site_type_symbol
_atom_site_label
_atom_site_fract_x
_atom_site_fract_y
_atom_site_fract_z
Si Si1 0.238454 0.639040 0.035834
Si Si2 0.365092 0.509591 0.339812
Si Si3 0.569530 0.307696 0.644266
Si Si4 0.849098 0.565935 0.808744
Si Si5 0.817160 0.387057 0.751708
Si Si6 0.241468 0.991472 0.963920
Si Si7 0.043927 0.316948 0.139736
O O1 0.424296 0.663376 0.061623
O O2 0.175944 0.642301 0.140812
O O3 0.228756 0.573446 0.013672
O O4 0.120095 0.670365 0.944904
O O5 0.305554 0.454172 0.277146
O O6 0.310365 0.561452 0.264911
O O7 0.265513 0.518909 0.429067
O O8 0.555326 0.505411 0.394630
O O9 0.500000 0.309457 0.750000
O O10 0.735701 0.343708 0.665546
O O11 0.604123 0.244316 0.619713
O O12 0.859134 0.522869 0.901701
O O13 0.842632 0.628045 0.851606
O O14 0.000000 0.562349 0.750000
O O15 0.000000 0.406725 0.750000
O O16 0.000000 0.313547 0.250000
#
# Coordination Sequence:
#
# PCOD9288558 Si02
#       7
#     8   8   8   8   8   8   8
#     4  11  21  38  68  89 118 170 213 261 313 382
#     4  11  23  40  58  93 127 172 205 267 314 398
#     4   9  20  41  65  90 120 165 216 266 311 379
#     4  11  23  38  60  91 131 165 203 266 322 380
#     4  11  23  39  64  93 122 159 213 266 323 373
#     4  11  23  37  64  90 128 166 218 252 333 381
#     4  10  22  39  61  93 128 163 215 264 316 379
#
# _framework density 21.354143000000001
#
# number of rings (size 3 to 8) (size 9 to 14) (size 15 to 20)
#    0.000    1.429    2.857    3.000    2.000    1.143 
#    0.000    2.143    0.000    0.000    0.000    0.000 
#    0.000    0.000    0.000    0.000    0.000    0.000 
#
# Total GULP energy -156409.770914 kJ/mol
# GULP energy per Si atom -5586.063247 kJ/mol
# Density = 2.130554 g / cm^3
# Si number density = 21.354143 Si / 1000 Ang^3
#
#
#
# Elastic Constant Matrix: (Units=GPa)
#
#
# Indices 1 2 3 4 5 6 
#
# 1 52.4641 20.4092 22.0701 0.0000 8.5101 0.0000
# 2 20.4092 138.4426 22.0460 0.0000 14.4721 0.0000
# 3 22.0701 22.0460 97.2942 0.0000 14.8667 0.0000
# 4 0.0000 0.0000 0.0000 -2.0537 0.0000 5.7793
# 5 8.5101 14.4721 14.8667 0.0000 40.3418 0.0000
# 6 0.0000 0.0000 0.0000 5.7793 0.0000 19.5506
#
#
#
# Elastic Compliance Matrix: (Units=1/GPa)
#
#
# Indices 1 2 3 4 5 6 
#
# 1 0.022086 -0.002359 -0.004125 0.000000 -0.002292 0.000000
# 2 -0.002359 0.007932 -0.000957 0.000000 -0.001995 0.000000
# 3 -0.004125 -0.000957 0.011916 0.000000 -0.003178 0.000000
# 4 0.000000 0.000000 0.000000 -0.265806 0.000000 0.078574
# 5 -0.002292 -0.001995 -0.003178 0.000000 0.027159 0.000000
# 6 0.000000 0.000000 0.000000 0.078574 0.000000 0.027922
#
#
# Mechanical properties :
#
#
# Convention : Reuss Voigt Hill
#
# Bulk Modulus (GPa) = 36.96762 46.36126 41.66444
# Shear Modulus (GPa) = -34.50867 26.47944 -4.01461
#
# Velocity S-wave (km/s) = -4.02433 3.52520 -1.37262
# Velocity P-wave (km/s) = 2.06020 6.19090 4.12812
#
# Compressibility (1/GPa) = 0.02705070
#
# Stress axis : x y z
#
# Youngs Moduli (GPa) = 45.27845 126.07131 83.91874
#
# Poissons Ratio (x) = 0.29744 0.34616
# Poissons Ratio (y) = 0.10683 0.08034
# Poissons Ratio (z) = 0.18677 0.12069
#
# Static dielectric constant tensor:
#      x y z
#    x 1.774980 0.000000 -0.015360 
#    y 0.000000 1.775840 0.000000 
#    z -0.015360 0.000000 1.816910 
# 
# From -- ./inp_files/81442.got.cif
#   From: 2010.05.17/outbox.cif.g08.bks.cpg/sg15_41_cif.got.tgz:81442.got - 2010.06.03 18:47:42.
