data_PCOD9288103
_publ_section_title
;
Structure prediction by ZEFSAII (Michael W. Deem and Ramdas Pophale) SiO2 
 PCOD9288103
Probable space group: C 2/C
;
_chemical_formula_sum "Si O2"
_cell_formula_units_Z 48
_cell_length_a 14.970818
_cell_length_b 16.845876
_cell_length_c 14.842998
_cell_angle_alpha 90.000000
_cell_angle_beta 142.004151
_cell_angle_gamma 90.000000
_cell_volume 2304.424388
_symmetry_space_group_name_H-M "C 2/C"
_symmetry_group_IT_number 15
_symmetry_cell_setting 'monoclinic'
loop_
_space_group_symop_operation_xyz
x,y,z
-x,y,1/2-z
-x,-y,-z
x,-y,1/2+z
1/2+x,1/2+y,z
1/2-x,1/2+y,1/2-z
1/2-x,1/2-y,-z
1/2+x,1/2-y,1/2+z
loop_
_atom_site_type_symbol
_atom_site_label
_atom_site_fract_x
_atom_site_fract_y
_atom_site_fract_z
Si Si1 0.214929 0.662225 0.571723
Si Si2 0.500000 0.922984 0.250000
Si Si3 0.724067 0.488432 0.946216
Si Si4 0.171425 0.667447 0.744208
Si Si5 0.000000 0.733959 0.250000
Si Si6 0.439949 0.435015 0.517693
Si Si7 0.873106 0.167446 0.223309
O O1 0.263397 0.570917 0.594883
O O2 0.153354 0.674244 0.623276
O O3 0.364557 0.713321 0.680410
O O4 0.088757 0.685557 0.398633
O O5 0.633573 0.978329 0.380302
O O6 0.462333 0.867637 0.305241
O O7 0.716411 0.408417 0.881165
O O8 0.593308 0.478364 0.913507
O O9 0.298791 0.605511 0.864947
O O10 0.208256 0.751721 0.819696
O O11 0.500000 0.500000 0.500000
O O12 0.549191 0.363653 0.625119
O O13 0.000000 0.182546 0.250000
#
# Coordination Sequence:
#
# PCOD9288103 Si02
#       7
#     8   4   8   8   4   8   8
#     4  11  25  45  71  96 135 187 227 285 340 405
#     4  10  23  42  63 102 140 166 214 280 335 416
#     4  10  23  41  67  94 136 178 217 279 338 398
#     4  11  24  39  70  98 136 177 217 278 343 406
#     4  10  27  46  65  98 136 178 240 286 329 404
#     4  10  23  39  65  98 131 176 228 279 326 404
#     4  10  22  38  63  97 133 175 213 275 336 402
#
# _framework density 20.829495999999999
#
# number of rings (size 3 to 8) (size 9 to 14) (size 15 to 20)
#    0.000    1.667    0.833    1.500   10.500    4.000 
#    0.000    0.000    0.000    0.000    0.000    0.000 
#    0.000    0.000    0.000    0.000    0.000    0.000 
#
# Total GULP energy -133937.691886 kJ/mol
# GULP energy per Si atom -5580.737162 kJ/mol
# Density = 2.078209 g / cm^3
# Si number density = 20.829496 Si / 1000 Ang^3
#
#
#
# Elastic Constant Matrix: (Units=GPa)
#
#
# Indices 1 2 3 4 5 6 
#
# 1 106.0587 65.6776 36.8953 -0.0003 -17.6452 0.0002
# 2 65.6776 145.8517 29.3510 -0.0002 -7.0643 0.0001
# 3 36.8953 29.3510 90.9296 -0.0005 -0.6041 0.0004
# 4 -0.0003 -0.0002 -0.0005 17.6012 -0.0003 16.4257
# 5 -17.6452 -7.0643 -0.6041 -0.0003 31.2046 0.0003
# 6 0.0002 0.0001 0.0004 16.4257 0.0003 -1.8180
#
#
#
# Elastic Compliance Matrix: (Units=1/GPa)
#
#
# Indices 1 2 3 4 5 6 
#
# 1 0.015900 -0.005887 -0.004501 0.000000 0.007571 0.000000
# 2 -0.005887 0.009595 -0.000716 0.000000 -0.001171 0.000000
# 3 -0.004501 -0.000716 0.013039 0.000000 -0.002455 0.000000
# 4 0.000000 0.000000 0.000000 0.006024 0.000000 0.054425
# 5 0.007571 -0.001171 -0.002455 0.000000 0.036015 0.000001
# 6 0.000000 0.000000 0.000000 0.054425 0.000001 -0.058320
#
#
# Mechanical properties :
#
#
# Convention : Reuss Voigt Hill
#
# Bulk Modulus (GPa) = 61.25640 67.40975 64.33308
# Shear Modulus (GPa) = 100.19787 23.45866 61.82827
#
# Velocity S-wave (km/s) = 6.94322 3.35957 5.45412
# Velocity P-wave (km/s) = 9.68246 6.89070 8.40333
#
# Compressibility (1/GPa) = 0.01632482
#
# Stress axis : x y z
#
# Youngs Moduli (GPa) = 62.89389 104.22365 76.69558
#
# Poissons Ratio (x) = 0.61360 0.34519
# Poissons Ratio (y) = 0.37028 0.05492
# Poissons Ratio (z) = 0.28307 0.07463
#
# Static dielectric constant tensor:
#      x y z
#    x 1.754040 0.000000 0.002600 
#    y 0.000000 1.734260 0.000000 
#    z 0.002600 0.000000 1.774240 
# 
# From -- ./inp_files/155296.got.cif
#   From: 2010.05.17/outbox.cif.g08.bks.cpg/sg15_78_cif.got.tgz:155296.got - 2010.06.03 18:47:42.
