data_PCOD9288530
_publ_section_title
;
Structure prediction by ZEFSAII (Michael W. Deem and Ramdas Pophale) SiO2 
 PCOD9288530
Probable space group: C 2/C
;
_chemical_formula_sum "Si O2"
_cell_formula_units_Z 60
_cell_length_a 14.949042
_cell_length_b 9.177875
_cell_length_c 19.240579
_cell_angle_alpha 90.000000
_cell_angle_beta 93.684489
_cell_angle_gamma 90.000000
_cell_volume 2634.359520
_symmetry_space_group_name_H-M "C 2/C"
_symmetry_group_IT_number 15
_symmetry_cell_setting 'monoclinic'
loop_
_space_group_symop_operation_xyz
x,y,z
-x,y,1/2-z
-x,-y,-z
x,-y,1/2+z
1/2+x,1/2+y,z
1/2-x,1/2+y,1/2-z
1/2-x,1/2-y,-z
1/2+x,1/2-y,1/2+z
loop_
_atom_site_type_symbol
_atom_site_label
_atom_site_fract_x
_atom_site_fract_y
_atom_site_fract_z
Si Si1 0.776920 0.242484 0.142973
Si Si2 0.115328 0.991134 0.911071
Si Si3 0.760811 0.012262 0.952312
Si Si4 0.886909 0.331610 0.596449
Si Si5 0.923020 0.009626 0.355458
Si Si6 0.581548 0.829301 0.648651
Si Si7 0.633217 0.038369 0.777596
Si Si8 0.000000 0.226544 0.250000
O O1 0.794935 0.350831 0.079856
O O2 0.678917 0.181829 0.120076
O O3 0.781925 0.350316 0.210959
O O4 0.842847 0.106437 0.147814
O O5 0.126405 0.160983 0.898217
O O6 0.174373 0.954915 0.980930
O O7 0.009107 0.965146 0.909959
O O8 0.683758 0.893496 0.962693
O O9 0.831818 0.971378 0.894271
O O10 0.858375 0.411816 0.665897
O O11 0.993956 0.361589 0.597946
O O12 0.938814 0.125928 0.295554
O O13 0.931688 0.841372 0.328663
O O14 0.599233 0.952446 0.708101
O O15 0.559249 0.157659 0.795974
#
# Coordination Sequence:
#
# PCOD9288530 Si02
#       8
#     8   8   8   8   8   8   8   4
#     4  10  23  39  60  97 120 162 215 252 317 368
#     4  11  21  40  65  90 124 165 214 261 307 373
#     4  10  22  43  62  89 126 165 212 263 310 371
#     4  10  22  39  61  88 123 167 210 251 314 369
#     4  10  24  39  65  93 122 164 212 253 322 379
#     4  10  22  40  62  87 131 165 200 253 317 380
#     4  11  22  39  60  88 132 162 198 260 314 370
#     4  12  22  38  64  94 126 152 206 260 310 378
#
# _framework density 22.775935
#
# number of rings (size 3 to 8) (size 9 to 14) (size 15 to 20)
#    0.000    1.600    2.667    1.200    3.733    5.333 
#    0.000    0.667    0.000    0.000    0.000    0.000 
#    0.000    0.000    0.000    0.000    0.000    0.000 
#
# Total GULP energy -167055.620422 kJ/mol
# GULP energy per Si atom -5568.520681 kJ/mol
# Density = 2.272410 g / cm^3
# Si number density = 22.775935 Si / 1000 Ang^3
#
#
#
# Elastic Constant Matrix: (Units=GPa)
#
#
# Indices 1 2 3 4 5 6 
#
# 1 104.3167 28.3020 4.5118 0.0000 31.0756 0.0000
# 2 28.3020 62.7362 9.2665 0.0000 3.6371 0.0000
# 3 4.5118 9.2665 51.0135 0.0000 22.2030 0.0000
# 4 0.0000 0.0000 0.0000 22.8597 0.0000 10.3085
# 5 31.0756 3.6371 22.2030 0.0000 35.9893 0.0000
# 6 0.0000 0.0000 0.0000 10.3085 0.0000 38.2101
#
#
#
# Elastic Compliance Matrix: (Units=1/GPa)
#
#
# Indices 1 2 3 4 5 6 
#
# 1 0.016962 -0.007758 0.008124 0.000000 -0.018874 0.000000
# 2 -0.007758 0.019929 -0.006798 0.000000 0.008879 0.000000
# 3 0.008124 -0.006798 0.031269 0.000000 -0.025619 0.000000
# 4 0.000000 0.000000 0.000000 0.049804 0.000000 -0.013436
# 5 -0.018874 0.008879 -0.025619 0.000000 0.058991 0.000000
# 6 0.000000 0.000000 0.000000 -0.013436 0.000000 0.029796
#
#
# Mechanical properties :
#
#
# Convention : Reuss Voigt Hill
#
# Bulk Modulus (GPa) = 18.08464 33.58077 25.83271
# Shear Modulus (GPa) = 21.00419 31.14423 26.07421
#
# Velocity S-wave (km/s) = 3.04009 3.70187 3.38718
# Velocity P-wave (km/s) = 4.50337 5.74872 5.16372
#
# Compressibility (1/GPa) = 0.05529555
#
# Stress axis : x y z
#
# Youngs Moduli (GPa) = 58.95501 50.17833 31.98033
#
# Poissons Ratio (x) = 0.38927 -0.25980
# Poissons Ratio (y) = 0.45736 0.21741
# Poissons Ratio (z) = -0.47893 0.34113
#
# Static dielectric constant tensor:
#      x y z
#    x 1.958240 0.000000 0.084350 
#    y 0.000000 1.879170 0.000000 
#    z 0.084350 0.000000 1.918490 
# 
# From -- ./inp_files/272793.got.cif
#   From: 2010.05.17/outbox.cif.g08.bks.cpg/sg15_137_cif.got.tgz:272793.got - 2010.06.03 18:47:42.
