data_PCOD9288294
_publ_section_title
;
Structure prediction by ZEFSAII (Michael W. Deem and Ramdas Pophale) SiO2 
 PCOD9288294
Probable space group: C 2/C
;
_chemical_formula_sum "Si O2"
_cell_formula_units_Z 36
_cell_length_a 9.213181
_cell_length_b 16.763238
_cell_length_c 11.148330
_cell_angle_alpha 90.000000
_cell_angle_beta 106.349794
_cell_angle_gamma 90.000000
_cell_volume 1652.151707
_symmetry_space_group_name_H-M "C 2/C"
_symmetry_group_IT_number 15
_symmetry_cell_setting 'monoclinic'
loop_
_space_group_symop_operation_xyz
x,y,z
-x,y,1/2-z
-x,-y,-z
x,-y,1/2+z
1/2+x,1/2+y,z
1/2-x,1/2+y,1/2-z
1/2-x,1/2-y,-z
1/2+x,1/2-y,1/2+z
loop_
_atom_site_type_symbol
_atom_site_label
_atom_site_fract_x
_atom_site_fract_y
_atom_site_fract_z
Si Si1 0.106979 0.077020 0.510402
Si Si2 0.958550 0.464481 0.118703
Si Si3 0.035718 0.215755 0.884369
Si Si4 0.500000 0.673296 0.250000
Si Si5 0.631822 0.805512 0.123093
O O1 0.281235 0.054646 0.567464
O O2 0.068511 0.119722 0.373555
O O3 0.065298 0.140316 0.604828
O O4 0.000000 0.000000 0.500000
O O5 0.000000 0.512747 0.250000
O O6 0.066638 0.387172 0.155185
O O7 0.000000 0.500000 0.000000
O O8 0.206978 0.185612 0.903513
O O9 0.000000 0.254722 0.750000
O O10 0.023635 0.275645 0.991054
O O11 0.622145 0.734329 0.218574
#
# Coordination Sequence:
#
# PCOD9288294 Si02
#       5
#     8   8   8   4   8
#     4  11  26  43  71  97 140 182 233 283 351 416
#     4  12  27  45  72 102 144 186 233 291 350 413
#     4  10  22  38  67  95 131 175 219 282 338 411
#     4  10  24  42  72 100 136 180 226 286 346 410
#     4  10  22  43  64 100 137 169 231 273 349 414
#
# _framework density 21.789767999999999
#
# number of rings (size 3 to 8) (size 9 to 14) (size 15 to 20)
#    0.000    1.333    1.111    2.667    7.778    2.667 
#    0.000    0.000    0.000    0.000    0.000    0.000 
#    0.000    0.000    0.000    0.000    0.000    0.000 
#
# Total GULP energy -100520.958265 kJ/mol
# GULP energy per Si atom -5584.497681 kJ/mol
# Density = 2.174017 g / cm^3
# Si number density = 21.789768 Si / 1000 Ang^3
#
#
#
# Elastic Constant Matrix: (Units=GPa)
#
#
# Indices 1 2 3 4 5 6 
#
# 1 123.8203 16.1936 22.6049 0.0000 -1.8506 0.0000
# 2 16.1936 39.7052 31.2761 0.0000 -9.6841 0.0000
# 3 22.6049 31.2761 137.7850 0.0000 -23.8927 0.0000
# 4 0.0000 0.0000 0.0000 21.3248 0.0000 -10.1611
# 5 -1.8506 -9.6841 -23.8927 0.0000 38.5324 0.0000
# 6 0.0000 0.0000 0.0000 -10.1611 0.0000 24.0782
#
#
#
# Elastic Compliance Matrix: (Units=1/GPa)
#
#
# Indices 1 2 3 4 5 6 
#
# 1 0.008621 -0.003042 -0.000879 0.000000 -0.000896 0.000000
# 2 -0.003042 0.032248 -0.006096 0.000000 0.004178 0.000000
# 3 -0.000879 -0.006096 0.009538 0.000000 0.004340 0.000000
# 4 0.000000 0.000000 0.000000 0.058697 0.000000 0.024770
# 5 -0.000896 0.004178 0.004340 0.000000 0.029650 0.000000
# 6 0.000000 0.000000 0.000000 0.024770 0.000000 0.051984
#
#
# Mechanical properties :
#
#
# Convention : Reuss Voigt Hill
#
# Bulk Modulus (GPa) = 32.92506 49.05107 40.98806
# Shear Modulus (GPa) = 22.63492 32.20282 27.41887
#
# Velocity S-wave (km/s) = 3.22652 3.84850 3.55115
# Velocity P-wave (km/s) = 5.38736 6.50445 5.97208
#
# Compressibility (1/GPa) = 0.03037200
#
# Stress axis : x y z
#
# Youngs Moduli (GPa) = 115.99341 31.01013 104.84032
#
# Poissons Ratio (x) = 0.09433 0.09217
# Poissons Ratio (y) = 0.35285 0.63914
# Poissons Ratio (z) = 0.10198 0.18905
#
# Static dielectric constant tensor:
#      x y z
#    x 1.798000 0.000000 -0.051620 
#    y 0.000000 1.787110 0.000000 
#    z -0.051620 0.000000 2.046480 
# 
# From -- ./inp_files/76596.got.cif
#   From: 2010.05.17/outbox.cif.g08.bks.cpg/sg15_39_cif.got.tgz:76596.got - 2010.06.03 18:47:42.
