data_PCOD9288996
_publ_section_title
;
Structure prediction by ZEFSAII (Michael W. Deem and Ramdas Pophale) SiO2 
 PCOD9288996
Probable space group: C 2/C
;
_chemical_formula_sum "Si O2"
_cell_formula_units_Z 44
_cell_length_a 5.427376
_cell_length_b 18.183337
_cell_length_c 19.858593
_cell_angle_alpha 90.000000
_cell_angle_beta 95.689777
_cell_angle_gamma 90.000000
_cell_volume 1950.145590
_symmetry_space_group_name_H-M "C 2/C"
_symmetry_group_IT_number 15
_symmetry_cell_setting 'monoclinic'
loop_
_space_group_symop_operation_xyz
x,y,z
-x,y,1/2-z
-x,-y,-z
x,-y,1/2+z
1/2+x,1/2+y,z
1/2-x,1/2+y,1/2-z
1/2-x,1/2-y,-z
1/2+x,1/2-y,1/2+z
loop_
_atom_site_type_symbol
_atom_site_label
_atom_site_fract_x
_atom_site_fract_y
_atom_site_fract_z
Si Si1 0.000000 0.192743 0.250000
Si Si2 0.550168 0.959123 0.396169
Si Si3 0.371869 0.751826 0.575959
Si Si4 0.788915 0.111103 0.368462
Si Si5 0.183326 0.949374 0.961743
Si Si6 0.120118 0.697309 0.861136
O O1 0.151527 0.141004 0.203452
O O2 0.161585 0.249217 0.298788
O O3 0.621292 0.930331 0.474200
O O4 0.582414 0.889447 0.349640
O O5 0.708886 0.026932 0.371967
O O6 0.292553 0.999056 0.405880
O O7 0.250000 0.750000 0.500000
O O8 0.409090 0.835696 0.601747
O O9 0.631146 0.709329 0.588186
O O10 0.147502 0.721238 0.616355
O O11 0.033044 0.115466 0.422529
O O12 0.000000 0.000000 0.000000
#
# Coordination Sequence:
#
# PCOD9288996 Si02
#       6
#     4   8   8   8   8   8
#     4  10  26  52  62  96 142 194 234 282 336 438
#     4  10  22  39  71 102 131 177 228 299 355 418
#     4  11  25  42  70 103 140 179 229 293 365 417
#     4  10  23  42  68  95 135 186 231 288 346 430
#     4   9  20  38  67 101 140 160 227 290 364 411
#     4  11  26  45  67  98 142 183 233 286 352 419
#
# _framework density 22.562418999999998
#
# number of rings (size 3 to 8) (size 9 to 14) (size 15 to 20)
#    0.000    1.818    0.000    1.636   17.818    2.909 
#    3.273    0.000    0.000    0.000    0.000    0.000 
#    0.000    0.000    0.000    0.000    0.000    0.000 
#
# Total GULP energy -122743.100876 kJ/mol
# GULP energy per Si atom -5579.231858 kJ/mol
# Density = 2.251107 g / cm^3
# Si number density = 22.562419 Si / 1000 Ang^3
#
#
#
# Elastic Constant Matrix: (Units=GPa)
#
#
# Indices 1 2 3 4 5 6 
#
# 1 87.2810 28.4124 8.7106 0.0000 0.6030 0.0000
# 2 28.4124 159.8285 42.8194 0.0000 -14.7018 0.0000
# 3 8.7106 42.8194 81.0962 0.0000 -17.7313 0.0000
# 4 0.0000 0.0000 0.0000 39.7319 0.0000 -2.8267
# 5 0.6030 -14.7018 -17.7313 0.0000 24.9266 0.0000
# 6 0.0000 0.0000 0.0000 -2.8267 0.0000 35.3336
#
#
#
# Elastic Compliance Matrix: (Units=1/GPa)
#
#
# Indices 1 2 3 4 5 6 
#
# 1 0.012248 -0.002204 -0.000593 0.000000 -0.002018 0.000000
# 2 -0.002204 0.007757 -0.003371 0.000000 0.002230 0.000000
# 3 -0.000593 -0.003371 0.016274 0.000000 0.009603 0.000000
# 4 0.000000 0.000000 0.000000 0.025313 0.000000 0.002025
# 5 -0.002018 0.002230 0.009603 0.000000 0.048313 0.000000
# 6 0.000000 0.000000 0.000000 0.002025 0.000000 0.028464
#
#
# Mechanical properties :
#
#
# Convention : Reuss Voigt Hill
#
# Bulk Modulus (GPa) = 41.76712 54.23227 47.99969
# Shear Modulus (GPa) = 31.50881 36.54932 34.02907
#
# Velocity S-wave (km/s) = 3.74105 4.02919 3.88779
# Velocity P-wave (km/s) = 6.10022 6.76273 6.44000
#
# Compressibility (1/GPa) = 0.02394228
#
# Stress axis : x y z
#
# Youngs Moduli (GPa) = 81.64696 128.91814 61.44630
#
# Poissons Ratio (x) = 0.28414 0.03644
# Poissons Ratio (y) = 0.17995 0.20715
# Poissons Ratio (z) = 0.04842 0.43462
#
# Static dielectric constant tensor:
#      x y z
#    x 1.926270 0.000000 0.056120 
#    y 0.000000 1.879460 0.000000 
#    z 0.056120 0.000000 1.890130 
# 
# From -- ./inp_files/227020.got.cif
#   From: 2010.05.17/outbox.cif.g08.bks.cpg/sg15_114_cif.got.tgz:227020.got - 2010.06.03 18:47:42.
