data_PCOD9288488
_publ_section_title
;
Structure prediction by ZEFSAII (Michael W. Deem and Ramdas Pophale) SiO2 
 PCOD9288488
Probable space group: C 2/C
;
_chemical_formula_sum "Si O2"
_cell_formula_units_Z 40
_cell_length_a 24.489793
_cell_length_b 8.529924
_cell_length_c 10.773062
_cell_angle_alpha 90.000000
_cell_angle_beta 57.874199
_cell_angle_gamma 90.000000
_cell_volume 1905.867106
_symmetry_space_group_name_H-M "C 2/C"
_symmetry_group_IT_number 15
_symmetry_cell_setting 'monoclinic'
loop_
_space_group_symop_operation_xyz
x,y,z
-x,y,1/2-z
-x,-y,-z
x,-y,1/2+z
1/2+x,1/2+y,z
1/2-x,1/2+y,1/2-z
1/2-x,1/2-y,-z
1/2+x,1/2-y,1/2+z
loop_
_atom_site_type_symbol
_atom_site_label
_atom_site_fract_x
_atom_site_fract_y
_atom_site_fract_z
Si Si1 0.443718 0.026007 0.217484
Si Si2 0.122630 0.333664 0.385689
Si Si3 0.682944 0.923724 0.979106
Si Si4 0.177335 0.112290 0.106842
Si Si5 0.571033 0.644585 0.686372
O O1 0.500000 0.994986 0.250000
O O2 0.439385 0.212704 0.204000
O O3 0.439438 0.916770 0.102398
O O4 0.376289 0.979200 0.364403
O O5 0.169283 0.475953 0.372621
O O6 0.159190 0.219889 0.247004
O O7 0.097774 0.231309 0.531009
O O8 0.752522 0.960046 0.953243
O O9 0.679668 0.733917 0.987831
O O10 0.122583 0.983792 0.160334
O O11 0.500000 0.575124 0.750000
#
# Coordination Sequence:
#
# PCOD9288488 Si02
#       5
#     8   8   8   8   8
#     4   9  20  39  61  86 118 155 198 241 289 356
#     4  10  22  39  61  84 118 164 195 234 302 353
#     4   9  21  39  59  85 117 155 198 237 289 355
#     4  10  22  39  60  90 122 151 197 251 288 340
#     4  10  23  39  59  90 119 150 198 248 292 344
#
# _framework density 20.987822000000001
#
# number of rings (size 3 to 8) (size 9 to 14) (size 15 to 20)
#    0.000    2.400    0.000    0.000    0.000   22.400 
#    0.000    0.000    0.000    0.000    0.000    0.000 
#    0.000    0.000    0.000    0.000    0.000    0.000 
#
# Total GULP energy -111544.098717 kJ/mol
# GULP energy per Si atom -5577.204936 kJ/mol
# Density = 2.094005 g / cm^3
# Si number density = 20.987822 Si / 1000 Ang^3
#
#
#
# Elastic Constant Matrix: (Units=GPa)
#
#
# Indices 1 2 3 4 5 6 
#
# 1 172.8273 97.5591 37.4577 0.0000 -29.5253 0.0000
# 2 97.5591 100.4912 38.0814 0.0000 1.8397 0.0000
# 3 37.4577 38.0814 55.5572 0.0000 -2.2335 0.0000
# 4 0.0000 0.0000 0.0000 21.0708 0.0000 -2.0948
# 5 -29.5253 1.8397 -2.2335 0.0000 40.8766 0.0000
# 6 0.0000 0.0000 0.0000 -2.0948 0.0000 45.8421
#
#
#
# Elastic Compliance Matrix: (Units=1/GPa)
#
#
# Indices 1 2 3 4 5 6 
#
# 1 0.018506 -0.018529 0.000796 0.000000 0.014245 0.000000
# 2 -0.018529 0.032045 -0.010091 0.000000 -0.015377 0.000000
# 3 0.000796 -0.010091 0.024475 0.000000 0.002366 0.000000
# 4 0.000000 0.000000 0.000000 0.047676 0.000000 0.002179
# 5 0.014245 -0.015377 0.002366 0.000000 0.035574 0.000000
# 6 0.000000 0.000000 0.000000 0.002179 0.000000 0.021914
#
#
# Mechanical properties :
#
#
# Convention : Reuss Voigt Hill
#
# Bulk Modulus (GPa) = 51.60368 75.00803 63.30586
# Shear Modulus (GPa) = 20.63592 31.94306 26.28949
#
# Velocity S-wave (km/s) = 3.13906 3.90549 3.54306
# Velocity P-wave (km/s) = 6.14647 7.49357 6.85320
#
# Compressibility (1/GPa) = 0.01937846
#
# Stress axis : x y z
#
# Youngs Moduli (GPa) = 54.03510 31.20644 40.85868
#
# Poissons Ratio (x) = 0.57822 -0.03251
# Poissons Ratio (y) = 1.00121 0.41229
# Poissons Ratio (z) = -0.04300 0.31489
#
# Static dielectric constant tensor:
#      x y z
#    x 1.772080 0.000000 0.050560 
#    y 0.000000 1.757910 0.000000 
#    z 0.050560 0.000000 1.896520 
# 
# From -- ./inp_files/102838.got.cif
#   From: 2010.05.17/outbox.cif.g08.bks.cpg/sg15_52_cif.got.tgz:102838.got - 2010.06.03 18:47:42.
