data_PCOD9288985
_publ_section_title
;
Structure prediction by ZEFSAII (Michael W. Deem and Ramdas Pophale) SiO2 
 PCOD9288985
Probable space group: C 2/C
;
_chemical_formula_sum "Si O2"
_cell_formula_units_Z 44
_cell_length_a 24.773620
_cell_length_b 9.573671
_cell_length_c 10.618327
_cell_angle_alpha 90.000000
_cell_angle_beta 51.798590
_cell_angle_gamma 90.000000
_cell_volume 1979.060736
_symmetry_space_group_name_H-M "C 2/C"
_symmetry_group_IT_number 15
_symmetry_cell_setting 'monoclinic'
loop_
_space_group_symop_operation_xyz
x,y,z
-x,y,1/2-z
-x,-y,-z
x,-y,1/2+z
1/2+x,1/2+y,z
1/2-x,1/2+y,1/2-z
1/2-x,1/2-y,-z
1/2+x,1/2-y,1/2+z
loop_
_atom_site_type_symbol
_atom_site_label
_atom_site_fract_x
_atom_site_fract_y
_atom_site_fract_z
Si Si1 0.235123 0.371313 0.673919
Si Si2 0.500000 0.318029 0.250000
Si Si3 0.534109 0.817379 0.325220
Si Si4 0.573767 0.560978 0.428175
Si Si5 0.079403 0.605985 0.314166
Si Si6 0.218770 0.056611 0.662671
O O1 0.155649 0.370231 0.750293
O O2 0.252369 0.206264 0.650309
O O3 0.248835 0.442782 0.788606
O O4 0.271367 0.449820 0.503144
O O5 0.440434 0.403583 0.406359
O O6 0.543719 0.219516 0.277783
O O7 0.500000 0.754302 0.250000
O O8 0.576547 0.704623 0.344108
O O9 0.469292 0.880565 0.494209
O O10 0.578216 0.957300 0.244239
O O11 0.500000 0.500000 0.500000
O O12 0.637530 0.461925 0.309005
#
# Coordination Sequence:
#
# PCOD9288985 Si02
#       6
#     8   4   8   8   8   8
#     4  11  28  48  73 102 147 190 236 296 356 446
#     4  10  22  42  74 100 144 178 234 302 358 412
#     4  10  22  39  70 104 134 176 237 287 346 419
#     4  11  26  43  70 100 140 184 233 298 354 418
#     4  10  22  42  68 104 138 183 225 292 356 417
#     4  11  28  48  73 106 142 191 242 289 366 431
#
# _framework density 22.232769000000001
#
# number of rings (size 3 to 8) (size 9 to 14) (size 15 to 20)
#    0.000    1.455    0.909    2.182   14.000    2.182 
#    0.000    0.000    0.000    0.000    0.000    0.000 
#    0.000    0.000    0.000    0.000    0.000    0.000 
#
# Total GULP energy -122798.899566 kJ/mol
# GULP energy per Si atom -5581.768162 kJ/mol
# Density = 2.218217 g / cm^3
# Si number density = 22.232769 Si / 1000 Ang^3
#
#
#
# Elastic Constant Matrix: (Units=GPa)
#
#
# Indices 1 2 3 4 5 6 
#
# 1 72.8965 5.2546 19.8575 0.0000 -8.8640 0.0000
# 2 5.2546 71.6379 22.3150 0.0000 10.1688 0.0000
# 3 19.8575 22.3150 81.1782 0.0000 4.4536 0.0000
# 4 0.0000 0.0000 0.0000 29.0853 0.0000 1.5894
# 5 -8.8640 10.1688 4.4536 0.0000 34.3697 0.0000
# 6 0.0000 0.0000 0.0000 1.5894 0.0000 8.7553
#
#
#
# Elastic Compliance Matrix: (Units=1/GPa)
#
#
# Indices 1 2 3 4 5 6 
#
# 1 0.015374 -0.000585 -0.003854 0.000000 0.004638 0.000000
# 2 -0.000585 0.015855 -0.003978 0.000000 -0.004327 0.000000
# 3 -0.003854 -0.003978 0.014448 0.000000 -0.001689 0.000000
# 4 0.000000 0.000000 0.000000 0.034726 0.000000 -0.006304
# 5 0.004638 -0.004327 -0.001689 0.000000 0.031790 0.000000
# 6 0.000000 0.000000 0.000000 -0.006304 0.000000 0.115361
#
#
# Mechanical properties :
#
#
# Convention : Reuss Voigt Hill
#
# Bulk Modulus (GPa) = 34.67185 35.61855 35.14520
# Shear Modulus (GPa) = 19.68477 26.32776 23.00627
#
# Velocity S-wave (km/s) = 2.97879 3.44494 3.22031
# Velocity P-wave (km/s) = 5.24020 5.64615 5.44696
#
# Compressibility (1/GPa) = 0.02884184
#
# Stress axis : x y z
#
# Youngs Moduli (GPa) = 65.04431 63.07054 69.21585
#
# Poissons Ratio (x) = 0.03692 0.26678
# Poissons Ratio (y) = 0.03808 0.27533
# Poissons Ratio (z) = 0.25070 0.25089
#
# Static dielectric constant tensor:
#      x y z
#    x 1.642110 0.000000 -0.099480 
#    y 0.000000 1.916250 0.000000 
#    z -0.099480 0.000000 1.899610 
# 
# From -- ./inp_files/121766.got.cif
#   From: 2010.05.17/outbox.cif.g08.bks.cpg/sg15_61_cif.got.tgz:121766.got - 2010.06.03 18:47:42.
