data_PCOD9288277
_publ_section_title
;
Structure prediction by ZEFSAII (Michael W. Deem and Ramdas Pophale) SiO2 
 PCOD9288277
Probable space group: C 2/C
;
_chemical_formula_sum "Si O2"
_cell_formula_units_Z 36
_cell_length_a 4.911977
_cell_length_b 21.612641
_cell_length_c 15.261483
_cell_angle_alpha 90.000000
_cell_angle_beta 82.183309
_cell_angle_gamma 90.000000
_cell_volume 1605.116971
_symmetry_space_group_name_H-M "C 2/C"
_symmetry_group_IT_number 15
_symmetry_cell_setting 'monoclinic'
loop_
_space_group_symop_operation_xyz
x,y,z
-x,y,1/2-z
-x,-y,-z
x,-y,1/2+z
1/2+x,1/2+y,z
1/2-x,1/2+y,1/2-z
1/2-x,1/2-y,-z
1/2+x,1/2-y,1/2+z
loop_
_atom_site_type_symbol
_atom_site_label
_atom_site_fract_x
_atom_site_fract_y
_atom_site_fract_z
Si Si1 0.869336 0.931449 0.014955
Si Si2 0.000000 0.507593 0.250000
Si Si3 0.500000 0.218967 0.250000
Si Si4 0.344867 0.385206 0.663903
Si Si5 0.812302 0.409064 0.128367
Si Si6 0.000000 0.696169 0.750000
O O1 0.024652 0.903174 0.092481
O O2 0.547048 0.928543 0.048502
O O3 0.951956 0.893037 0.925542
O O4 0.000000 0.000000 0.000000
O O5 0.164930 0.552558 0.178605
O O6 0.190628 0.463553 0.299643
O O7 0.355089 0.173742 0.326947
O O8 0.738591 0.260725 0.280756
O O9 0.500000 0.381532 0.750000
O O10 0.907285 0.347782 0.174457
#
# Coordination Sequence:
#
# PCOD9288277 Si02
#       6
#     8   4   4   8   8   4
#     4  12  24  41  66 104 142 163 210 271 338 396
#     4  10  22  38  66  98 130 174 210 262 334 404
#     4  11  24  45  70  91 122 187 224 276 308 385
#     4  11  24  41  69  95 133 171 221 265 335 389
#     4  11  25  42  67 100 132 174 214 268 329 391
#     4  11  24  49  70  89 134 177 232 264 320 381
#
# _framework density 22.428273000000001
#
# number of rings (size 3 to 8) (size 9 to 14) (size 15 to 20)
#    0.000    0.889    3.333    3.333    6.222    1.778 
#    0.000    6.667    0.000    0.000    0.000    0.000 
#    0.000    0.000    0.000    0.000    0.000    0.000 
#
# Total GULP energy -100833.589762 kJ/mol
# GULP energy per Si atom -5601.866098 kJ/mol
# Density = 2.237723 g / cm^3
# Si number density = 22.428273 Si / 1000 Ang^3
#
#
#
# Elastic Constant Matrix: (Units=GPa)
#
#
# Indices 1 2 3 4 5 6 
#
# 1 87.0275 26.0168 5.4902 0.0000 5.5457 0.0000
# 2 26.0168 120.6042 22.8970 0.0000 -0.1074 0.0000
# 3 5.4902 22.8970 73.8090 0.0000 2.6680 0.0000
# 4 0.0000 0.0000 0.0000 8.7915 0.0000 -4.3551
# 5 5.5457 -0.1074 2.6680 0.0000 44.9965 0.0000
# 6 0.0000 0.0000 0.0000 -4.3551 0.0000 15.0433
#
#
#
# Elastic Compliance Matrix: (Units=1/GPa)
#
#
# Indices 1 2 3 4 5 6 
#
# 1 0.012388 -0.002666 -0.000039 0.000000 -0.001531 0.000000
# 2 -0.002666 0.009386 -0.002732 0.000000 0.000513 0.000000
# 3 -0.000039 -0.002732 0.014430 0.000000 -0.000857 0.000000
# 4 0.000000 0.000000 0.000000 0.132790 0.000000 0.038443
# 5 -0.001531 0.000513 -0.000857 0.000000 0.022465 0.000000
# 6 0.000000 0.000000 0.000000 0.038443 0.000000 0.077604
#
#
# Mechanical properties :
#
#
# Convention : Reuss Voigt Hill
#
# Bulk Modulus (GPa) = 39.48018 43.36098 41.42058
# Shear Modulus (GPa) = 17.33827 28.90204 23.12015
#
# Velocity S-wave (km/s) = 2.78340 3.59366 3.21417
# Velocity P-wave (km/s) = 5.28875 6.04933 5.68178
#
# Compressibility (1/GPa) = 0.02532916
#
# Stress axis : x y z
#
# Youngs Moduli (GPa) = 80.72524 106.54327 69.30072
#
# Poissons Ratio (x) = 0.28407 0.00270
# Poissons Ratio (y) = 0.21523 0.18932
# Poissons Ratio (z) = 0.00315 0.29107
#
# Static dielectric constant tensor:
#      x y z
#    x 1.835280 0.000000 -0.005770 
#    y 0.000000 1.838040 0.000000 
#    z -0.005770 0.000000 1.835430 
# 
# From -- ./inp_files/128708.got.cif
#   From: 2010.05.17/outbox.cif.g08.bks.cpg/sg15_65_cif.got.tgz:128708.got - 2010.06.03 18:47:42.
