data_PCOD9288313
_publ_section_title
;
Structure prediction by ZEFSAII (Michael W. Deem and Ramdas Pophale) SiO2 
 PCOD9288313
Probable space group: C 2/C
;
_chemical_formula_sum "Si O2"
_cell_formula_units_Z 56
_cell_length_a 18.634643
_cell_length_b 11.482607
_cell_length_c 14.514859
_cell_angle_alpha 90.000000
_cell_angle_beta 120.822769
_cell_angle_gamma 90.000000
_cell_volume 2667.131073
_symmetry_space_group_name_H-M "C 2/C"
_symmetry_group_IT_number 15
_symmetry_cell_setting 'monoclinic'
loop_
_space_group_symop_operation_xyz
x,y,z
-x,y,1/2-z
-x,-y,-z
x,-y,1/2+z
1/2+x,1/2+y,z
1/2-x,1/2+y,1/2-z
1/2-x,1/2-y,-z
1/2+x,1/2-y,1/2+z
loop_
_atom_site_type_symbol
_atom_site_label
_atom_site_fract_x
_atom_site_fract_y
_atom_site_fract_z
Si Si1 0.745355 0.966514 0.167049
Si Si2 0.588152 0.462994 0.141242
Si Si3 0.773630 0.114555 0.009468
Si Si4 0.842457 0.514176 0.715652
Si Si5 0.000000 0.832360 0.250000
Si Si6 0.448882 0.349485 0.563102
Si Si7 0.000000 0.340315 0.250000
Si Si8 0.820966 0.743027 0.125680
O O1 0.822147 0.017375 0.276419
O O2 0.666373 0.965363 0.181297
O O3 0.783712 0.840630 0.169130
O O4 0.735016 0.040330 0.067595
O O5 0.541160 0.406346 0.196606
O O6 0.529857 0.575796 0.089617
O O7 0.593279 0.361058 0.066738
O O8 0.734088 0.072167 0.888959
O O9 0.750000 0.250000 0.000000
O O10 0.873650 0.095200 0.074894
O O11 0.832800 0.379190 0.684189
O O12 0.923718 0.577048 0.728808
O O13 0.916430 0.769292 0.155664
O O14 0.475577 0.240260 0.644672
O O15 0.750000 0.750000 0.000000
#
# Coordination Sequence:
#
# PCOD9288313 Si02
#       8
#     8   8   8   8   4   8   4   8
#     4  11  25  44  72 101 133 184 229 298 356 413
#     4  10  22  38  68 104 131 175 232 292 349 407
#     4  12  24  44  70 102 141 179 235 293 346 423
#     4  12  27  45  68 101 138 184 237 281 357 436
#     4  10  22  40  62  96 136 173 231 290 338 414
#     4  11  22  40  68 100 139 177 228 286 352 416
#     4  12  26  46  66 102 148 193 221 294 360 432
#     4  11  24  45  69  96 140 188 236 292 352 419
#
# _framework density 20.996343
#
# number of rings (size 3 to 8) (size 9 to 14) (size 15 to 20)
#    0.000    0.857    4.286    3.429    2.000    1.143 
#    0.000    0.714    0.000    0.000    0.000    0.000 
#    0.000    0.000    0.000    0.000    0.000    0.000 
#
# Total GULP energy -155916.477901 kJ/mol
# GULP energy per Si atom -5568.445639 kJ/mol
# Density = 2.094855 g / cm^3
# Si number density = 20.996343 Si / 1000 Ang^3
#
#
#
# Elastic Constant Matrix: (Units=GPa)
#
#
# Indices 1 2 3 4 5 6 
#
# 1 105.0726 24.9411 27.3917 0.0000 -4.3133 0.0000
# 2 24.9411 81.9566 3.9436 0.0000 -14.4208 0.0000
# 3 27.3917 3.9436 62.6331 0.0000 -7.3041 0.0000
# 4 0.0000 0.0000 0.0000 26.4615 0.0000 8.8702
# 5 -4.3133 -14.4208 -7.3041 0.0000 46.9726 0.0000
# 6 0.0000 0.0000 0.0000 8.8702 0.0000 1.0275
#
#
#
# Elastic Compliance Matrix: (Units=1/GPa)
#
#
# Indices 1 2 3 4 5 6 
#
# 1 0.011586 -0.003421 -0.004940 0.000000 -0.000754 0.000000
# 2 -0.003421 0.013916 0.001101 0.000000 0.004129 0.000000
# 3 -0.004940 0.001101 0.018377 0.000000 0.002742 0.000000
# 4 0.000000 0.000000 0.000000 -0.019955 0.000000 0.172266
# 5 -0.000754 0.004129 0.002742 0.000000 0.022914 0.000000
# 6 0.000000 0.000000 0.000000 0.172266 0.000000 -0.513904
#
#
# Mechanical properties :
#
#
# Convention : Reuss Voigt Hill
#
# Bulk Modulus (GPa) = 34.05893 40.24611 37.15252
# Shear Modulus (GPa) = -11.29277 27.78472 8.24597
#
# Velocity S-wave (km/s) = -2.32166 3.64168 1.98390
# Velocity P-wave (km/s) = 3.01160 6.07390 4.79385
#
# Compressibility (1/GPa) = 0.02936087
#
# Stress axis : x y z
#
# Youngs Moduli (GPa) = 86.31112 71.85841 54.41678
#
# Poissons Ratio (x) = 0.24582 0.26880
# Poissons Ratio (y) = 0.29526 -0.05994
# Poissons Ratio (z) = 0.42634 -0.07915
#
# Static dielectric constant tensor:
#      x y z
#    x 1.675750 0.000000 -0.078050 
#    y 0.000000 1.840530 0.000000 
#    z -0.078050 0.000000 1.716600 
# 
# From -- ./inp_files/161460.got.cif
#   From: 2010.05.17/outbox.cif.g08.bks.cpg/sg15_81_cif.got.tgz:161460.got - 2010.06.03 18:47:42.
