data_PCOD9288599
_publ_section_title
;
Structure prediction by ZEFSAII (Michael W. Deem and Ramdas Pophale) SiO2 
 PCOD9288599
Probable space group: C 2/C
;
_chemical_formula_sum "Si O2"
_cell_formula_units_Z 40
_cell_length_a 14.271369
_cell_length_b 20.384376
_cell_length_c 11.446791
_cell_angle_alpha 90.000000
_cell_angle_beta 31.551809
_cell_angle_gamma 90.000000
_cell_volume 1742.497242
_symmetry_space_group_name_H-M "C 2/C"
_symmetry_group_IT_number 15
_symmetry_cell_setting 'monoclinic'
loop_
_space_group_symop_operation_xyz
x,y,z
-x,y,1/2-z
-x,-y,-z
x,-y,1/2+z
1/2+x,1/2+y,z
1/2-x,1/2+y,1/2-z
1/2-x,1/2-y,-z
1/2+x,1/2-y,1/2+z
loop_
_atom_site_type_symbol
_atom_site_label
_atom_site_fract_x
_atom_site_fract_y
_atom_site_fract_z
Si Si1 0.215291 0.124221 0.854233
Si Si2 0.685831 0.167546 0.510868
Si Si3 0.600901 0.318030 0.933503
Si Si4 0.531799 0.178704 0.350570
Si Si5 0.980812 0.532141 0.647016
O O1 0.382711 0.146803 0.594420
O O2 0.277459 0.056571 0.845716
O O3 0.201314 0.163626 0.990465
O O4 0.039955 0.129009 0.963087
O O5 0.788770 0.202813 0.298930
O O6 0.613405 0.096050 0.532689
O O7 0.500000 0.198035 0.750000
O O8 0.763026 0.340635 0.842447
O O9 0.492535 0.256909 0.100804
O O10 0.500000 0.165284 0.250000
O O11 0.000000 0.493960 0.750000
O O12 0.000000 0.500000 0.500000
#
# Coordination Sequence:
#
# PCOD9288599 Si02
#       5
#     8   8   8   8   8
#     4  10  22  39  62  91 120 163 203 258 309 367
#     4   9  19  40  60  87 122 155 202 259 310 361
#     4  12  22  40  61  87 126 167 209 253 307 366
#     4  12  25  39  57  87 130 171 209 257 305 368
#     4   9  19  40  66  92 126 161 201 258 326 372
#
# _framework density 22.955559000000001
#
# number of rings (size 3 to 8) (size 9 to 14) (size 15 to 20)
#    0.000    2.000    6.000    1.200    0.000    1.600 
#    3.600    1.000    0.000    0.000    0.000    0.000 
#    0.000    0.000    0.000    0.000    0.000    0.000 
#
# Total GULP energy -111357.071023 kJ/mol
# GULP energy per Si atom -5567.853551 kJ/mol
# Density = 2.290331 g / cm^3
# Si number density = 22.955559 Si / 1000 Ang^3
#
#
#
# Elastic Constant Matrix: (Units=GPa)
#
#
# Indices 1 2 3 4 5 6 
#
# 1 256.9437 35.0894 78.0082 0.0128 -1.7637 -0.0116
# 2 35.0894 42.3301 17.8400 0.0266 7.1859 -0.0209
# 3 78.0082 17.8400 55.3711 0.0098 -16.2276 -0.0025
# 4 0.0128 0.0266 0.0098 12.1042 -0.0146 8.2197
# 5 -1.7637 7.1859 -16.2276 -0.0146 57.2524 0.0140
# 6 -0.0116 -0.0209 -0.0025 8.2197 0.0140 20.0922
#
#
#
# Elastic Compliance Matrix: (Units=1/GPa)
#
#
# Indices 1 2 3 4 5 6 
#
# 1 0.007255 -0.001071 -0.010657 -0.000003 -0.002663 0.000005
# 2 -0.001071 0.029879 -0.010062 -0.000121 -0.006635 0.000083
# 3 -0.010657 -0.010062 0.039904 0.000041 0.012245 -0.000037
# 4 -0.000003 -0.000121 0.000041 0.114397 0.000067 -0.046800
# 5 -0.002663 -0.006635 0.012245 0.000067 0.021688 -0.000049
# 6 0.000005 0.000083 -0.000037 -0.046800 -0.000049 0.068916
#
#
# Mechanical properties :
#
#
# Convention : Reuss Voigt Hill
#
# Bulk Modulus (GPa) = 29.88821 68.50223 49.19522
# Shear Modulus (GPa) = 14.84683 32.80358 23.82521
#
# Velocity S-wave (km/s) = 2.54591 3.78432 3.22512
# Velocity P-wave (km/s) = 4.65731 7.00005 5.94522
#
# Compressibility (1/GPa) = 0.03345801
#
# Stress axis : x y z
#
# Youngs Moduli (GPa) = 137.83144 33.46838 25.06015
#
# Poissons Ratio (x) = 0.03584 0.26706
# Poissons Ratio (y) = 0.14761 0.25217
# Poissons Ratio (z) = 1.46882 0.33678
#
# Static dielectric constant tensor:
#      x y z
#    x 1.908430 0.000000 0.009510 
#    y 0.000000 2.063390 0.000010 
#    z 0.009510 0.000010 1.873370 
# 
# From -- ./inp_files/100909.got.cif
#   From: 2010.05.17/outbox.cif.g08.bks.cpg/sg15_51_cif.got.tgz:100909.got - 2010.06.03 18:47:42.
