data_PCOD9288862
_publ_section_title
;
Structure prediction by ZEFSAII (Michael W. Deem and Ramdas Pophale) SiO2 
 PCOD9288862
Probable space group: C 2/C
;
_chemical_formula_sum "Si O2"
_cell_formula_units_Z 40
_cell_length_a 23.499644
_cell_length_b 20.128630
_cell_length_c 9.240759
_cell_angle_alpha 90.000000
_cell_angle_beta 24.859514
_cell_angle_gamma 90.000000
_cell_volume 1837.555466
_symmetry_space_group_name_H-M "C 2/C"
_symmetry_group_IT_number 15
_symmetry_cell_setting 'monoclinic'
loop_
_space_group_symop_operation_xyz
x,y,z
-x,y,1/2-z
-x,-y,-z
x,-y,1/2+z
1/2+x,1/2+y,z
1/2-x,1/2+y,1/2-z
1/2-x,1/2-y,-z
1/2+x,1/2-y,1/2+z
loop_
_atom_site_type_symbol
_atom_site_label
_atom_site_fract_x
_atom_site_fract_y
_atom_site_fract_z
Si Si1 0.000000 0.156266 0.750000
Si Si2 0.076580 0.643340 0.267693
Si Si3 0.691279 0.987777 0.396240
Si Si4 0.000000 0.392916 0.250000
Si Si5 0.333512 0.777095 0.172129
Si Si6 0.621243 0.539939 0.293114
O O1 0.115842 0.208946 0.521832
O O2 0.060017 0.109509 0.487550
O O3 0.062088 0.648173 0.473324
O O4 0.945454 0.678639 0.501156
O O5 0.090191 0.565400 0.200035
O O6 0.199200 0.677251 0.892369
O O7 0.616158 0.057121 0.540160
O O8 0.816822 0.002321 0.211937
O O9 0.754153 0.957733 0.105208
O O10 0.250000 0.750000 0.500000
O O11 0.500000 0.500000 0.500000
#
# Coordination Sequence:
#
# PCOD9288862 Si02
#       6
#     4   8   8   4   8   8
#     4  10  22  39  66  95 130 176 234 268 352 406
#     4  10  23  40  66 102 129 180 234 273 360 405
#     4  12  24  40  67 103 143 176 223 294 351 428
#     4  12  24  39  66 107 142 174 220 302 358 412
#     4  10  23  44  72  91 132 188 237 289 336 430
#     4  12  24  41  67  98 139 182 227 279 354 414
#
# _framework density 21.768052000000001
#
# number of rings (size 3 to 8) (size 9 to 14) (size 15 to 20)
#    0.000    1.200    4.000    3.000    8.400    0.000 
#    0.000    1.000   22.000    0.000    0.000    0.000 
#    0.000    0.000    0.000    0.000    0.000    0.000 
#
# Total GULP energy -111463.105865 kJ/mol
# GULP energy per Si atom -5573.155293 kJ/mol
# Density = 2.171851 g / cm^3
# Si number density = 21.768052 Si / 1000 Ang^3
#
#
#
# Elastic Constant Matrix: (Units=GPa)
#
#
# Indices 1 2 3 4 5 6 
#
# 1 95.4442 39.5912 34.1481 0.0005 18.8708 -0.0005
# 2 39.5912 111.4279 24.2021 0.0004 10.0920 -0.0004
# 3 34.1481 24.2021 105.2729 0.0012 40.5473 -0.0014
# 4 0.0005 0.0004 0.0012 53.0046 -0.0006 14.5866
# 5 18.8708 10.0920 40.5473 -0.0006 56.4328 0.0006
# 6 -0.0005 -0.0004 -0.0014 14.5866 0.0006 10.6029
#
#
#
# Elastic Compliance Matrix: (Units=1/GPa)
#
#
# Indices 1 2 3 4 5 6 
#
# 1 0.013493 -0.004032 -0.002751 0.000000 -0.001814 0.000001
# 2 -0.004032 0.010652 -0.001281 0.000000 0.000364 0.000000
# 3 -0.002751 -0.001281 0.014163 -0.000002 -0.009027 0.000004
# 4 0.000000 0.000000 -0.000002 0.030361 0.000002 -0.041768
# 5 -0.001814 0.000364 -0.009027 0.000002 0.024748 -0.000005
# 6 0.000001 0.000000 0.000004 -0.041768 -0.000005 0.151774
#
#
# Mechanical properties :
#
#
# Convention : Reuss Voigt Hill
#
# Bulk Modulus (GPa) = 45.08691 56.44752 50.76722
# Shear Modulus (GPa) = 18.60724 38.28830 28.44777
#
# Velocity S-wave (km/s) = 2.92686 4.19850 3.61897
# Velocity P-wave (km/s) = 5.67269 7.03497 6.39024
#
# Compressibility (1/GPa) = 0.02217939
#
# Stress axis : x y z
#
# Youngs Moduli (GPa) = 74.11295 93.87529 70.60685
#
# Poissons Ratio (x) = 0.37853 0.19424
# Poissons Ratio (y) = 0.29885 0.09046
# Poissons Ratio (z) = 0.20388 0.12027
#
# Static dielectric constant tensor:
#      x y z
#    x 1.813250 0.000000 0.034550 
#    y 0.000000 1.809160 0.000000 
#    z 0.034550 0.000000 1.971410 
# 
# From -- ./inp_files/62861.got.cif
#   From: 2010.05.17/outbox.cif.g08.bks.cpg/sg15_32_cif.got.tgz:62861.got - 2010.06.03 18:47:42.
