data_PCOD9288663
_publ_section_title
;
Structure prediction by ZEFSAII (Michael W. Deem and Ramdas Pophale) SiO2 
 PCOD9288663
Probable space group: C 2/C
;
_chemical_formula_sum "Si O2"
_cell_formula_units_Z 48
_cell_length_a 19.620522
_cell_length_b 13.836182
_cell_length_c 14.716165
_cell_angle_alpha 90.000000
_cell_angle_beta 154.210016
_cell_angle_gamma 90.000000
_cell_volume 1738.138220
_symmetry_space_group_name_H-M "C 2/C"
_symmetry_group_IT_number 15
_symmetry_cell_setting 'monoclinic'
loop_
_space_group_symop_operation_xyz
x,y,z
-x,y,1/2-z
-x,-y,-z
x,-y,1/2+z
1/2+x,1/2+y,z
1/2-x,1/2+y,1/2-z
1/2-x,1/2-y,-z
1/2+x,1/2-y,1/2+z
loop_
_atom_site_type_symbol
_atom_site_label
_atom_site_fract_x
_atom_site_fract_y
_atom_site_fract_z
Si Si1 0.672214 0.022882 0.171555
Si Si2 0.000000 0.065743 0.750000
Si Si3 0.660833 0.227331 0.769607
Si Si4 0.794790 0.685498 0.165590
Si Si5 0.628540 0.143364 0.524360
Si Si6 0.494872 0.561431 0.086326
Si Si7 0.500000 0.790945 0.250000
O O1 0.666444 0.970087 0.068230
O O2 0.809970 0.961411 0.386910
O O3 0.691205 0.134356 0.217964
O O4 0.500000 0.000000 0.000000
O O5 0.862618 0.136089 0.555220
O O6 0.071526 0.995005 0.760524
O O7 0.639298 0.189076 0.640933
O O8 0.572164 0.333473 0.666644
O O9 0.573243 0.166050 0.744619
O O10 0.842240 0.237903 0.020374
O O11 0.761409 0.797850 0.132720
O O12 0.945888 0.661277 0.287203
O O13 0.500000 0.500000 0.000000
#
# Coordination Sequence:
#
# PCOD9288663 Si02
#       7
#     8   4   8   8   8   8   4
#     4   9  20  38  61  91 126 166 212 264 325 386
#     4  10  23  42  60  90 135 170 210 272 327 386
#     4  11  21  38  58  88 122 160 214 266 327 392
#     4  10  22  39  63  91 123 165 210 263 325 380
#     4  11  21  38  65  91 121 165 213 264 320 393
#     4  11  22  39  65  90 123 170 217 267 324 386
#     4  10  23  34  54  84 121 158 198 268 331 382
#
# _framework density 27.615755
#
# number of rings (size 3 to 8) (size 9 to 14) (size 15 to 20)
#    0.000    1.667    0.000    5.500    0.000    6.000 
#    0.000    3.333    0.000    0.000    0.000    1.167 
#    0.000    0.000    0.000    0.000    0.000    0.000 
#
# Total GULP energy -133950.181157 kJ/mol
# GULP energy per Si atom -5581.257548 kJ/mol
# Density = 2.755290 g / cm^3
# Si number density = 27.615755 Si / 1000 Ang^3
#
#
#
# Elastic Constant Matrix: (Units=GPa)
#
#
# Indices 1 2 3 4 5 6 
#
# 1 110.5128 4.4847 17.3856 0.0000 5.7049 0.0000
# 2 4.4847 118.8712 4.0517 -0.0001 1.4871 -0.0001
# 3 17.3856 4.0517 148.8441 -0.0001 25.8588 -0.0001
# 4 0.0000 -0.0001 -0.0001 32.9304 -0.0001 6.0484
# 5 5.7049 1.4871 25.8588 -0.0001 46.7803 0.0000
# 6 0.0000 -0.0001 -0.0001 6.0484 0.0000 34.6568
#
#
#
# Elastic Compliance Matrix: (Units=1/GPa)
#
#
# Indices 1 2 3 4 5 6 
#
# 1 0.009244 -0.000308 -0.000970 0.000000 -0.000581 0.000000
# 2 -0.000308 0.008432 -0.000170 0.000000 -0.000137 0.000000
# 3 -0.000970 -0.000170 0.007539 0.000000 -0.004044 0.000000
# 4 0.000000 0.000000 0.000000 0.031373 0.000000 -0.005475
# 5 -0.000581 -0.000137 -0.004044 0.000000 0.023687 0.000000
# 6 0.000000 0.000000 0.000000 -0.005475 0.000000 0.029810
#
#
# Mechanical properties :
#
#
# Convention : Reuss Voigt Hill
#
# Bulk Modulus (GPa) = 44.80830 47.78579 46.29705
# Shear Modulus (GPa) = 41.52131 46.36057 43.94094
#
# Velocity S-wave (km/s) = 3.88175 4.10173 3.99326
# Velocity P-wave (km/s) = 6.02922 6.30663 6.16949
#
# Compressibility (1/GPa) = 0.02231729
#
# Stress axis : x y z
#
# Youngs Moduli (GPa) = 108.17953 118.60151 132.64550
#
# Poissons Ratio (x) = 0.03658 0.12872
# Poissons Ratio (y) = 0.03336 0.02252
# Poissons Ratio (z) = 0.10497 0.02013
#
# Static dielectric constant tensor:
#      x y z
#    x 2.243370 0.000000 -0.014080 
#    y 0.000000 2.263240 0.000000 
#    z -0.014080 0.000000 2.326030 
# 
# From -- ./inp_files/220000.got.cif
#   From: 2010.05.17/outbox.cif.g08.bks.cpg/sg15_110_cif.got.tgz:220000.got - 2010.06.03 18:47:42.
