data_PCOD9288323
_publ_section_title
;
Structure prediction by ZEFSAII (Michael W. Deem and Ramdas Pophale) SiO2 
 PCOD9288323
Probable space group: C 2/C
;
_chemical_formula_sum "Si O2"
_cell_formula_units_Z 56
_cell_length_a 8.585590
_cell_length_b 18.781257
_cell_length_c 18.325148
_cell_angle_alpha 90.000000
_cell_angle_beta 112.990137
_cell_angle_gamma 90.000000
_cell_volume 2720.195391
_symmetry_space_group_name_H-M "C 2/C"
_symmetry_group_IT_number 15
_symmetry_cell_setting 'monoclinic'
loop_
_space_group_symop_operation_xyz
x,y,z
-x,y,1/2-z
-x,-y,-z
x,-y,1/2+z
1/2+x,1/2+y,z
1/2-x,1/2+y,1/2-z
1/2-x,1/2-y,-z
1/2+x,1/2-y,1/2+z
loop_
_atom_site_type_symbol
_atom_site_label
_atom_site_fract_x
_atom_site_fract_y
_atom_site_fract_z
Si Si1 0.566407 0.229128 0.501440
Si Si2 0.666548 0.677255 0.137817
Si Si3 0.000000 0.246162 0.750000
Si Si4 0.333612 0.546501 0.469105
Si Si5 0.919511 0.559449 0.657669
Si Si6 0.797183 0.199260 0.848368
Si Si7 0.000000 0.806804 0.750000
Si Si8 0.904752 0.428617 0.456257
O O1 0.750000 0.250000 0.500000
O O2 0.575711 0.253513 0.587211
O O3 0.420492 0.271394 0.433367
O O4 0.532810 0.144656 0.494544
O O5 0.649131 0.618774 0.072503
O O6 0.576718 0.652108 0.195271
O O7 0.857015 0.702760 0.188760
O O8 0.910369 0.199122 0.795587
O O9 0.500000 0.500000 0.500000
O O10 0.189503 0.502714 0.399516
O O11 0.279987 0.562391 0.542639
O O12 0.794627 0.626197 0.647832
O O13 0.000000 0.539859 0.750000
O O14 0.063535 0.578017 0.624002
O O15 0.651042 0.256582 0.805343
O O16 0.000000 0.500000 0.500000
#
# Coordination Sequence:
#
# PCOD9288323 Si02
#       8
#     8   8   4   8   8   8   4   8
#     4  12  22  39  73  99 125 177 225 279 331 395
#     4  11  23  43  64  99 133 170 226 275 340 390
#     4  10  22  38  68  92 138 172 214 288 332 406
#     4  11  24  45  67  95 131 175 231 278 323 409
#     4  11  25  43  65  96 138 180 214 276 347 404
#     4  11  22  42  64 100 133 171 228 273 335 406
#     4  10  24  40  62  94 136 168 212 284 336 394
#     4  10  24  45  66  95 136 177 219 269 342 404
#
# _framework density 20.586756000000001
#
# number of rings (size 3 to 8) (size 9 to 14) (size 15 to 20)
#    0.000    1.143    3.571    1.714    3.000    4.571 
#    5.143    0.000    0.000    0.000    0.000    0.000 
#    0.000    0.000    0.000    0.000    0.000    0.000 
#
# Total GULP energy -156383.664926 kJ/mol
# GULP energy per Si atom -5585.130890 kJ/mol
# Density = 2.053990 g / cm^3
# Si number density = 20.586756 Si / 1000 Ang^3
#
#
#
# Elastic Constant Matrix: (Units=GPa)
#
#
# Indices 1 2 3 4 5 6 
#
# 1 120.7517 24.8748 61.9789 0.0000 -29.0543 0.0000
# 2 24.8748 89.7078 21.7701 0.0000 -7.4092 0.0000
# 3 61.9789 21.7701 112.4458 0.0000 -3.4899 0.0000
# 4 0.0000 0.0000 0.0000 20.8008 0.0000 -3.1880
# 5 -29.0543 -7.4092 -3.4899 0.0000 53.8530 0.0000
# 6 0.0000 0.0000 0.0000 -3.1880 0.0000 25.3769
#
#
#
# Elastic Compliance Matrix: (Units=1/GPa)
#
#
# Indices 1 2 3 4 5 6 
#
# 1 0.013921 -0.001558 -0.007159 0.000000 0.006832 0.000000
# 2 -0.001558 0.011988 -0.001440 0.000000 0.000715 0.000000
# 3 -0.007159 -0.001440 0.013018 0.000000 -0.003217 0.000000
# 4 0.000000 0.000000 0.000000 0.049019 0.000000 0.006158
# 5 0.006832 0.000715 -0.003217 0.000000 0.022145 0.000000
# 6 0.000000 0.000000 0.000000 0.006158 0.000000 0.040180
#
#
# Mechanical properties :
#
#
# Convention : Reuss Voigt Hill
#
# Bulk Modulus (GPa) = 53.72834 60.01700 56.87267
# Shear Modulus (GPa) = 28.28208 34.29154 31.28681
#
# Velocity S-wave (km/s) = 3.71050 4.08574 3.90263
# Velocity P-wave (km/s) = 6.67175 7.17455 6.92771
#
# Compressibility (1/GPa) = 0.01861215
#
# Stress axis : x y z
#
# Youngs Moduli (GPa) = 71.83290 83.41741 76.81505
#
# Poissons Ratio (x) = 0.13000 0.54995
# Poissons Ratio (y) = 0.11195 0.11059
# Poissons Ratio (z) = 0.51428 0.12010
#
# Static dielectric constant tensor:
#      x y z
#    x 1.735770 0.000000 -0.056680 
#    y 0.000000 1.751810 0.000000 
#    z -0.056680 0.000000 1.730720 
# 
# From -- ./inp_files/191096.got.cif
#   From: 2010.05.17/outbox.cif.g08.bks.cpg/sg15_96_cif.got.tgz:191096.got - 2010.06.03 18:47:42.
