data_PCOD9288867
_publ_section_title
;
Structure prediction by ZEFSAII (Michael W. Deem and Ramdas Pophale) SiO2 
 PCOD9288867
Probable space group: C 2/C
;
_chemical_formula_sum "Si O2"
_cell_formula_units_Z 64
_cell_length_a 27.426554
_cell_length_b 8.583691
_cell_length_c 18.559525
_cell_angle_alpha 90.000000
_cell_angle_beta 137.221038
_cell_angle_gamma 90.000000
_cell_volume 2967.507676
_symmetry_space_group_name_H-M "C 2/C"
_symmetry_group_IT_number 15
_symmetry_cell_setting 'monoclinic'
loop_
_space_group_symop_operation_xyz
x,y,z
-x,y,1/2-z
-x,-y,-z
x,-y,1/2+z
1/2+x,1/2+y,z
1/2-x,1/2+y,1/2-z
1/2-x,1/2-y,-z
1/2+x,1/2-y,1/2+z
loop_
_atom_site_type_symbol
_atom_site_label
_atom_site_fract_x
_atom_site_fract_y
_atom_site_fract_z
Si Si1 0.480104 0.675824 0.412350
Si Si2 0.691734 0.672563 0.034885
Si Si3 0.854637 0.648790 0.152078
Si Si4 0.753327 0.701563 0.361418
Si Si5 0.416877 0.328742 0.352505
Si Si6 0.743524 0.369954 0.273365
Si Si7 0.891552 0.849411 0.560963
Si Si8 0.378153 0.791587 0.192981
O O1 0.437004 0.512352 0.371025
O O2 0.518071 0.730947 0.526884
O O3 0.543387 0.651476 0.423387
O O4 0.424901 0.791727 0.316069
O O5 0.773011 0.652553 0.093915
O O6 0.703081 0.763764 0.121575
O O7 0.648922 0.771885 0.929405
O O8 0.650947 0.510324 0.994933
O O9 0.904372 0.744755 0.262343
O O10 0.873983 0.469279 0.165205
O O11 0.745658 0.542853 0.308172
O O12 0.738196 0.844064 0.289956
O O13 0.833493 0.717904 0.477228
O O14 0.697960 0.716400 0.366903
O O15 0.339235 0.314525 0.306799
O O16 0.910284 0.814691 0.664263
#
# Coordination Sequence:
#
# PCOD9288867 Si02
#       8
#     8   8   8   8   8   8   8   8
#     4  11  24  43  66  92 130 182 221 264 326 400
#     4  10  22  39  66  96 128 165 218 273 329 384
#     4  10  22  40  64  96 128 167 214 276 332 385
#     4  12  24  40  66 100 133 166 218 277 328 385
#     4  10  22  43  67  91 129 172 224 265 324 404
#     4  11  23  40  66  99 132 165 216 276 328 389
#     4  12  24  42  66  98 131 176 223 269 323 399
#     4  12  25  41  65  97 135 175 217 270 332 387
#
# _framework density 21.566918999999999
#
# number of rings (size 3 to 8) (size 9 to 14) (size 15 to 20)
#    0.000    1.000    3.750    3.000    5.250    0.500 
#    0.000    3.750    0.000    0.000    0.000    0.000 
#    0.000    0.000    0.000    0.000    0.000    0.000 
#
# Total GULP energy -178904.077836 kJ/mol
# GULP energy per Si atom -5590.752432 kJ/mol
# Density = 2.151783 g / cm^3
# Si number density = 21.566919 Si / 1000 Ang^3
#
#
#
# Elastic Constant Matrix: (Units=GPa)
#
#
# Indices 1 2 3 4 5 6 
#
# 1 36.1454 -13.7537 15.9096 0.0000 -9.0574 0.0000
# 2 -13.7537 74.3995 33.4341 0.0000 -0.1023 0.0000
# 3 15.9096 33.4341 133.2196 0.0000 -1.9479 0.0000
# 4 0.0000 0.0000 0.0000 34.7716 0.0000 -5.3169
# 5 -9.0574 -0.1023 -1.9479 0.0000 19.0455 0.0000
# 6 0.0000 0.0000 0.0000 -5.3169 0.0000 19.5098
#
#
#
# Elastic Compliance Matrix: (Units=1/GPa)
#
#
# Indices 1 2 3 4 5 6 
#
# 1 0.039255 0.010448 -0.007047 0.000000 0.018004 0.000000
# 2 0.010448 0.017932 -0.005683 0.000000 0.004484 0.000000
# 3 -0.007047 -0.005683 0.009739 0.000000 -0.002386 0.000000
# 4 0.000000 0.000000 0.000000 0.030010 0.000000 0.008178
# 5 0.018004 0.004484 -0.002386 0.000000 0.060848 0.000000
# 6 0.000000 0.000000 0.000000 0.008178 0.000000 0.053485
#
#
# Mechanical properties :
#
#
# Convention : Reuss Voigt Hill
#
# Bulk Modulus (GPa) = 16.03491 34.99385 25.51438
# Shear Modulus (GPa) = 21.13095 28.54368 24.83732
#
# Velocity S-wave (km/s) = 3.13355 3.64193 3.39726
# Velocity P-wave (km/s) = 4.53247 5.82630 5.21963
#
# Compressibility (1/GPa) = 0.06236394
#
# Stress axis : x y z
#
# Youngs Moduli (GPa) = 25.47452 55.76507 102.67691
#
# Poissons Ratio (x) = -0.58265 0.72356
# Poissons Ratio (y) = -0.26617 0.58348
# Poissons Ratio (z) = 0.17952 0.31690
#
# Static dielectric constant tensor:
#      x y z
#    x 1.746580 0.000000 -0.010350 
#    y 0.000000 1.739440 0.000000 
#    z -0.010350 0.000000 1.814320 
# 
# From -- ./inp_files/224627.got.cif
#   From: 2010.05.17/outbox.cif.g08.bks.cpg/sg15_113_cif.got.tgz:224627.got - 2010.06.03 18:47:42.
