data_PCOD9288634
_publ_section_title
;
Structure prediction by ZEFSAII (Michael W. Deem and Ramdas Pophale) SiO2 
 PCOD9288634
Probable space group: C 2/C
;
_chemical_formula_sum "Si O2"
_cell_formula_units_Z 40
_cell_length_a 20.557718
_cell_length_b 18.173699
_cell_length_c 5.417932
_cell_angle_alpha 90.000000
_cell_angle_beta 74.819915
_cell_angle_gamma 90.000000
_cell_volume 1953.563384
_symmetry_space_group_name_H-M "C 2/C"
_symmetry_group_IT_number 15
_symmetry_cell_setting 'monoclinic'
loop_
_space_group_symop_operation_xyz
x,y,z
-x,y,1/2-z
-x,-y,-z
x,-y,1/2+z
1/2+x,1/2+y,z
1/2-x,1/2+y,1/2-z
1/2-x,1/2-y,-z
1/2+x,1/2-y,1/2+z
loop_
_atom_site_type_symbol
_atom_site_label
_atom_site_fract_x
_atom_site_fract_y
_atom_site_fract_z
Si Si1 0.097441 0.324238 0.790638
Si Si2 0.579692 0.534721 0.714235
Si Si3 0.500000 0.951674 0.750000
Si Si4 0.889318 0.177928 0.021224
Si Si5 0.254914 0.201948 0.241860
Si Si6 0.000000 0.768545 0.750000
O O1 0.107942 0.261885 0.573063
O O2 0.171974 0.336380 0.828305
O O3 0.063714 0.396680 0.712763
O O4 0.045227 0.285197 0.032386
O O5 0.500000 0.522820 0.750000
O O6 0.607763 0.504411 0.427364
O O7 0.592575 0.621676 0.712505
O O8 0.500000 0.000000 0.500000
O O9 0.814991 0.157744 0.186672
O O10 0.948300 0.177942 0.161323
O O11 0.250000 0.250000 0.500000
O O12 0.250000 0.250000 0.000000
#
# Coordination Sequence:
#
# PCOD9288634 Si02
#       6
#     8   8   4   8   8   4
#     4  11  23  41  65  97 127 173 220 282 337 396
#     4  10  23  38  56  88 131 167 204 259 318 382
#     4  12  27  44  66  99 134 170 222 286 343 402
#     4  11  23  38  65  97 126 173 224 273 326 403
#     4  10  22  39  62  95 132 162 216 279 335 386
#     4  12  19  34  70  93 128 156 228 266 325 380
#
# _framework density 20.475404000000001
#
# number of rings (size 3 to 8) (size 9 to 14) (size 15 to 20)
#    0.000    1.200    4.000    1.800    7.000    0.000 
#    0.000    2.000    0.000    0.000    0.000    0.000 
#    0.000    0.000    0.000    0.000    0.000    0.000 
#
# Total GULP energy -111588.160491 kJ/mol
# GULP energy per Si atom -5579.408025 kJ/mol
# Density = 2.042880 g / cm^3
# Si number density = 20.475404 Si / 1000 Ang^3
#
#
#
# Elastic Constant Matrix: (Units=GPa)
#
#
# Indices 1 2 3 4 5 6 
#
# 1 177.7179 35.4397 41.6639 0.0000 -3.7205 0.0000
# 2 35.4397 97.1333 30.6528 0.0000 12.6913 0.0000
# 3 41.6639 30.6528 96.8696 0.0000 5.4396 0.0000
# 4 0.0000 0.0000 0.0000 36.3904 0.0000 7.2771
# 5 -3.7205 12.6913 5.4396 0.0000 19.7246 0.0000
# 6 0.0000 0.0000 0.0000 7.2771 0.0000 17.2304
#
#
#
# Elastic Compliance Matrix: (Units=1/GPa)
#
#
# Indices 1 2 3 4 5 6 
#
# 1 0.006676 -0.002110 -0.002388 0.000000 0.003275 0.000000
# 2 -0.002110 0.012977 -0.002750 0.000000 -0.007989 0.000000
# 3 -0.002388 -0.002750 0.012337 0.000000 -0.002083 0.000000
# 4 0.000000 0.000000 0.000000 0.030015 0.000000 -0.012676
# 5 0.003275 -0.007989 -0.002083 0.000000 0.057031 0.000000
# 6 0.000000 0.000000 0.000000 -0.012676 0.000000 0.063391
#
#
# Mechanical properties :
#
#
# Convention : Reuss Voigt Hill
#
# Bulk Modulus (GPa) = 57.16144 65.24818 61.20481
# Shear Modulus (GPa) = 24.66046 32.26670 28.46358
#
# Velocity S-wave (km/s) = 3.47420 3.97404 3.73250
# Velocity P-wave (km/s) = 6.63861 7.27964 6.96650
#
# Compressibility (1/GPa) = 0.01749431
#
# Stress axis : x y z
#
# Youngs Moduli (GPa) = 149.78974 77.06069 81.05554
#
# Poissons Ratio (x) = 0.16262 0.19352
# Poissons Ratio (y) = 0.31610 0.22290
# Poissons Ratio (z) = 0.35763 0.21192
#
# Static dielectric constant tensor:
#      x y z
#    x 1.799170 0.000000 0.014010 
#    y 0.000000 1.727310 0.000000 
#    z 0.014010 0.000000 1.837530 
# 
# From -- ./inp_files/9831.got.cif
#   From: 2010.05.17/outbox.cif.g08.bks.cpg/sg15_5_cif.got.tgz:9831.got - 2010.06.03 18:47:42.
