data_PCOD9288848
_publ_section_title
;
Structure prediction by ZEFSAII (Michael W. Deem and Ramdas Pophale) SiO2 
 PCOD9288848
Probable space group: C 2/C
;
_chemical_formula_sum "Si O2"
_cell_formula_units_Z 32
_cell_length_a 15.766693
_cell_length_b 11.688311
_cell_length_c 11.505952
_cell_angle_alpha 90.000000
_cell_angle_beta 136.615436
_cell_angle_gamma 90.000000
_cell_volume 1456.475629
_symmetry_space_group_name_H-M "C 2/C"
_symmetry_group_IT_number 15
_symmetry_cell_setting 'monoclinic'
loop_
_space_group_symop_operation_xyz
x,y,z
-x,y,1/2-z
-x,-y,-z
x,-y,1/2+z
1/2+x,1/2+y,z
1/2-x,1/2+y,1/2-z
1/2-x,1/2-y,-z
1/2+x,1/2-y,1/2+z
loop_
_atom_site_type_symbol
_atom_site_label
_atom_site_fract_x
_atom_site_fract_y
_atom_site_fract_z
Si Si1 0.887471 0.581116 0.422301
Si Si2 0.647362 0.510735 0.788582
Si Si3 0.302355 0.337792 0.958751
Si Si4 0.492431 0.681724 0.018373
O O1 0.790358 0.521533 0.411203
O O2 0.806411 0.612155 0.227932
O O3 0.000000 0.500000 0.500000
O O4 0.935726 0.703991 0.514309
O O5 0.606818 0.605071 0.651520
O O6 0.565172 0.400216 0.678651
O O7 0.635509 0.561840 0.904601
O O8 0.405097 0.284608 0.976705
O O9 0.250000 0.250000 0.000000
#
# Coordination Sequence:
#
# PCOD9288848 Si02
#       4
#     8   8   8   8
#     4  11  24  38  65  96 130 162 217 266 315 374
#     4  10  22  39  66  92 128 164 213 262 326 362
#     4  11  21  39  70  95 117 166 225 255 303 384
#     4  10  22  41  65  94 130 165 209 270 320 377
#
# _framework density 21.970845000000001
#
# number of rings (size 3 to 8) (size 9 to 14) (size 15 to 20)
#    0.000    1.500    2.500    2.250    3.500    3.000 
#    0.000    1.250   16.500    0.000    0.000    0.000 
#    0.000    0.000    0.000    0.000    0.000    0.000 
#
# Total GULP energy -89553.838906 kJ/mol
# GULP energy per Si atom -5597.114932 kJ/mol
# Density = 2.192084 g / cm^3
# Si number density = 21.970845 Si / 1000 Ang^3
#
#
#
# Elastic Constant Matrix: (Units=GPa)
#
#
# Indices 1 2 3 4 5 6 
#
# 1 74.1046 8.1984 10.2221 0.0000 22.2490 0.0000
# 2 8.1984 83.1424 7.4717 0.0000 24.1811 0.0000
# 3 10.2221 7.4717 47.5656 0.0000 18.4336 0.0000
# 4 0.0000 0.0000 0.0000 24.0194 0.0000 7.5722
# 5 22.2490 24.1811 18.4336 0.0000 39.6216 0.0000
# 6 0.0000 0.0000 0.0000 7.5722 0.0000 38.7416
#
#
#
# Elastic Compliance Matrix: (Units=1/GPa)
#
#
# Indices 1 2 3 4 5 6 
#
# 1 0.016344 0.001296 0.000180 0.000000 -0.010052 0.000000
# 2 0.001296 0.014805 0.001439 0.000000 -0.010432 0.000000
# 3 0.000180 0.001439 0.025788 0.000000 -0.012977 0.000000
# 4 0.000000 0.000000 0.000000 0.044367 0.000000 -0.008672
# 5 -0.010052 -0.010432 -0.012977 0.000000 0.043288 0.000000
# 6 0.000000 0.000000 0.000000 -0.008672 0.000000 0.027507
#
#
# Mechanical properties :
#
#
# Convention : Reuss Voigt Hill
#
# Bulk Modulus (GPa) = 15.93222 28.51075 22.22148
# Shear Modulus (GPa) = 26.71063 32.40456 29.55760
#
# Velocity S-wave (km/s) = 3.49052 3.84459 3.67183
# Velocity P-wave (km/s) = 4.84894 5.71950 5.30212
#
# Compressibility (1/GPa) = 0.06276591
#
# Stress axis : x y z
#
# Youngs Moduli (GPa) = 61.18296 67.54653 38.77779
#
# Poissons Ratio (x) = -0.08753 -0.00697
# Poissons Ratio (y) = -0.07928 -0.05580
# Poissons Ratio (z) = -0.01099 -0.09720
#
# Static dielectric constant tensor:
#      x y z
#    x 1.823260 0.000000 0.032670 
#    y 0.000000 1.828910 0.000000 
#    z 0.032670 0.000000 1.797130 
# 
# From -- ./inp_files/93963.got.cif
#   From: 2010.05.17/outbox.cif.g08.bks.cpg/sg15_47_cif.got.tgz:93963.got - 2010.06.03 18:47:42.
