data_PCOD9288888
_publ_section_title
;
Structure prediction by ZEFSAII (Michael W. Deem and Ramdas Pophale) SiO2 
 PCOD9288888
Probable space group: C 2/C
;
_chemical_formula_sum "Si O2"
_cell_formula_units_Z 56
_cell_length_a 25.642763
_cell_length_b 14.077759
_cell_length_c 14.461029
_cell_angle_alpha 90.000000
_cell_angle_beta 149.498408
_cell_angle_gamma 90.000000
_cell_volume 2649.640184
_symmetry_space_group_name_H-M "C 2/C"
_symmetry_group_IT_number 15
_symmetry_cell_setting 'monoclinic'
loop_
_space_group_symop_operation_xyz
x,y,z
-x,y,1/2-z
-x,-y,-z
x,-y,1/2+z
1/2+x,1/2+y,z
1/2-x,1/2+y,1/2-z
1/2-x,1/2-y,-z
1/2+x,1/2-y,1/2+z
loop_
_atom_site_type_symbol
_atom_site_label
_atom_site_fract_x
_atom_site_fract_y
_atom_site_fract_z
Si Si1 0.433079 0.660595 0.568080
Si Si2 0.230170 0.596610 0.745376
Si Si3 0.619313 0.055896 0.958002
Si Si4 0.791377 0.701409 0.258419
Si Si5 0.178720 0.657369 0.871241
Si Si6 0.999401 0.228046 0.020352
Si Si7 0.462800 0.448659 0.593264
O O1 0.500000 0.708442 0.750000
O O2 0.316709 0.650314 0.428791
O O3 0.441077 0.716990 0.484756
O O4 0.489749 0.559925 0.631378
O O5 0.151232 0.539235 0.561153
O O6 0.251001 0.700915 0.739093
O O7 0.204908 0.605878 0.814986
O O8 0.340388 0.548157 0.902759
O O9 0.500000 0.054203 0.750000
O O10 0.680696 0.082707 0.958086
O O11 0.651585 0.139606 0.077063
O O12 0.883636 0.731690 0.330562
O O13 0.065124 0.700989 0.684361
O O14 0.250000 0.750000 0.000000
O O15 0.997883 0.125723 0.069445
O O16 0.500000 0.411393 0.750000
#
# Coordination Sequence:
#
# PCOD9288888 Si02
#       7
#     8   8   8   8   8   8   8
#     4  11  23  44  66  97 144 181 227 296 360 419
#     4  11  24  43  68 104 142 179 236 300 348 429
#     4  12  25  45  70 104 142 189 241 297 353 425
#     4  11  23  45  69 101 143 182 238 292 351 438
#     4  12  23  42  76 100 137 194 239 295 363 422
#     4  11  23  41  71  99 131 183 241 287 353 425
#     4  10  22  39  67 101 135 174 230 298 355 415
#
# _framework density 21.134944999999998
#
# number of rings (size 3 to 8) (size 9 to 14) (size 15 to 20)
#    0.000    0.857    5.714    1.286    2.000    1.714 
#   10.286    0.000    0.000    0.000    0.000    0.000 
#    0.000    0.000    0.000    0.000    0.000    0.000 
#
# Total GULP energy -156223.423302 kJ/mol
# GULP energy per Si atom -5579.407975 kJ/mol
# Density = 2.108684 g / cm^3
# Si number density = 21.134945 Si / 1000 Ang^3
#
#
#
# Elastic Constant Matrix: (Units=GPa)
#
#
# Indices 1 2 3 4 5 6 
#
# 1 79.7843 17.3723 20.6875 0.0000 1.3668 0.0000
# 2 17.3723 86.1786 8.9079 0.0000 -16.4562 0.0000
# 3 20.6875 8.9079 125.2448 0.0000 5.3401 0.0000
# 4 0.0000 0.0000 0.0000 284.0484 0.0000 141.0049
# 5 1.3668 -16.4562 5.3401 0.0000 31.0878 0.0000
# 6 0.0000 0.0000 0.0000 141.0049 0.0000 88.4564
#
#
#
# Elastic Compliance Matrix: (Units=1/GPa)
#
#
# Indices 1 2 3 4 5 6 
#
# 1 0.013710 -0.002902 -0.001982 0.000000 -0.001799 0.000000
# 2 -0.002902 0.013710 -0.000817 0.000000 0.007525 0.000000
# 3 -0.001982 -0.000817 0.008446 0.000000 -0.001796 0.000000
# 4 0.000000 0.000000 0.000000 0.016870 0.000000 -0.026891
# 5 -0.001799 0.007525 -0.001796 0.000000 0.036538 0.000000
# 6 0.000000 0.000000 0.000000 -0.026891 0.000000 0.054171
#
#
# Mechanical properties :
#
#
# Convention : Reuss Voigt Hill
#
# Bulk Modulus (GPa) = 40.87319 42.79368 41.83344
# Shear Modulus (GPa) = 30.67437 97.00117 63.83777
#
# Velocity S-wave (km/s) = 3.81380 6.78202 5.50186
# Velocity P-wave (km/s) = 6.22692 9.03435 7.75867
#
# Compressibility (1/GPa) = 0.02446591
#
# Stress axis : x y z
#
# Youngs Moduli (GPa) = 72.93738 72.93775 118.39483
#
# Poissons Ratio (x) = 0.21170 0.23460
# Poissons Ratio (y) = 0.21170 0.09668
# Poissons Ratio (z) = 0.14453 0.05956
#
# Static dielectric constant tensor:
#      x y z
#    x 1.780850 0.000000 0.000270 
#    y 0.000000 1.806650 0.000000 
#    z 0.000270 0.000000 1.785960 
# 
# From -- ./inp_files/178424.got.cif
#   From: 2010.05.17/outbox.cif.g08.bks.cpg/sg15_90_cif.got.tgz:178424.got - 2010.06.03 18:47:42.
