data_PCOD9288073
_publ_section_title
;
Structure prediction by ZEFSAII (Michael W. Deem and Ramdas Pophale) SiO2 
 PCOD9288073
Probable space group: C 2/C
;
_chemical_formula_sum "Si O2"
_cell_formula_units_Z 44
_cell_length_a 25.323425
_cell_length_b 7.610191
_cell_length_c 9.353656
_cell_angle_alpha 90.000000
_cell_angle_beta 80.459147
_cell_angle_gamma 90.000000
_cell_volume 1777.665953
_symmetry_space_group_name_H-M "C 2/C"
_symmetry_group_IT_number 15
_symmetry_cell_setting 'monoclinic'
loop_
_space_group_symop_operation_xyz
x,y,z
-x,y,1/2-z
-x,-y,-z
x,-y,1/2+z
1/2+x,1/2+y,z
1/2-x,1/2+y,1/2-z
1/2-x,1/2-y,-z
1/2+x,1/2-y,1/2+z
loop_
_atom_site_type_symbol
_atom_site_label
_atom_site_fract_x
_atom_site_fract_y
_atom_site_fract_z
Si Si1 0.131374 0.127246 0.408678
Si Si2 0.500000 0.874921 0.750000
Si Si3 0.744717 0.648222 0.228011
Si Si4 0.396334 0.991704 0.196437
Si Si5 0.096056 0.140398 0.726509
Si Si6 0.699492 0.976725 0.073458
O O1 0.187389 0.079021 0.309012
O O2 0.122266 0.335182 0.395504
O O3 0.130522 0.082208 0.575284
O O4 0.087763 0.021520 0.335567
O O5 0.544841 0.736670 0.675632
O O6 0.539196 0.000887 0.822364
O O7 0.729784 0.825434 0.151130
O O8 0.780067 0.652022 0.355987
O O9 0.779023 0.540374 0.095424
O O10 0.363088 0.952604 0.358347
O O11 0.383519 0.198952 0.181360
#
# Coordination Sequence:
#
# PCOD9288073 Si02
#       6
#     8   4   8   8   8   8
#     4  11  23  43  68  96 139 169 222 274 333 389
#     4   8  22  46  62 104 122 174 234 262 344 378
#     4  10  23  38  58  99 116 175 205 261 324 388
#     4   9  23  43  63  97 131 178 219 275 322 400
#     4  10  24  43  67 100 129 176 221 273 330 393
#     4  10  22  38  63  85 133 159 218 259 322 378
#
# _framework density 24.751555
#
# number of rings (size 3 to 8) (size 9 to 14) (size 15 to 20)
#    1.091    1.091    0.000    1.091    7.636    4.364 
#    0.000    0.000    0.000    0.000    0.000    0.000 
#    0.000    0.000    0.000    0.000    0.000    0.000 
#
# Total GULP energy -122518.828687 kJ/mol
# GULP energy per Si atom -5569.037668 kJ/mol
# Density = 2.469522 g / cm^3
# Si number density = 24.751555 Si / 1000 Ang^3
#
#
#
# Elastic Constant Matrix: (Units=GPa)
#
#
# Indices 1 2 3 4 5 6 
#
# 1 96.9360 9.6880 7.9319 0.0000 -6.0365 0.0000
# 2 9.6880 85.0591 40.3681 0.0000 2.0203 0.0000
# 3 7.9319 40.3681 134.9621 0.0000 -0.2495 0.0000
# 4 0.0000 0.0000 0.0000 40.0659 0.0000 4.5696
# 5 -6.0365 2.0203 -0.2495 0.0000 18.1939 0.0000
# 6 0.0000 0.0000 0.0000 4.5696 0.0000 19.9481
#
#
#
# Elastic Compliance Matrix: (Units=1/GPa)
#
#
# Indices 1 2 3 4 5 6 
#
# 1 0.010684 -0.001176 -0.000269 0.000000 0.003672 0.000000
# 2 -0.001176 0.013876 -0.004085 0.000000 -0.001987 0.000000
# 3 -0.000269 -0.004085 0.008648 0.000000 0.000483 0.000000
# 4 0.000000 0.000000 0.000000 0.025628 0.000000 -0.005871
# 5 0.003672 -0.001987 0.000483 0.000000 0.056409 0.000000
# 6 0.000000 0.000000 0.000000 -0.005871 0.000000 0.051475
#
#
# Mechanical properties :
#
#
# Convention : Reuss Voigt Hill
#
# Bulk Modulus (GPa) = 45.15191 48.10371 46.62781
# Shear Modulus (GPa) = 27.00288 32.90617 29.95453
#
# Velocity S-wave (km/s) = 3.30655 3.65013 3.48258
# Velocity P-wave (km/s) = 5.73231 6.10257 5.92034
#
# Compressibility (1/GPa) = 0.02214746
#
# Stress axis : x y z
#
# Youngs Moduli (GPa) = 93.59490 72.06453 115.63253
#
# Poissons Ratio (x) = 0.08477 0.03114
# Poissons Ratio (y) = 0.11010 0.47237
# Poissons Ratio (z) = 0.02521 0.29439
#
# Static dielectric constant tensor:
#      x y z
#    x 2.057760 0.000000 0.025470 
#    y 0.000000 1.997010 0.000000 
#    z 0.025470 0.000000 1.908350 
# 
# From -- ./inp_files/68343.got.cif
#   From: 2010.05.17/outbox.cif.g08.bks.cpg/sg15_35_cif.got.tgz:68343.got - 2010.06.03 18:47:42.
