data_PCOD9288470
_publ_section_title
;
Structure prediction by ZEFSAII (Michael W. Deem and Ramdas Pophale) SiO2 
 PCOD9288470
Probable space group: C 2/C
;
_chemical_formula_sum "Si O2"
_cell_formula_units_Z 56
_cell_length_a 19.072511
_cell_length_b 14.301583
_cell_length_c 18.369419
_cell_angle_alpha 90.000000
_cell_angle_beta 34.080411
_cell_angle_gamma 90.000000
_cell_volume 2807.703987
_symmetry_space_group_name_H-M "C 2/C"
_symmetry_group_IT_number 15
_symmetry_cell_setting 'monoclinic'
loop_
_space_group_symop_operation_xyz
x,y,z
-x,y,1/2-z
-x,-y,-z
x,-y,1/2+z
1/2+x,1/2+y,z
1/2-x,1/2+y,1/2-z
1/2-x,1/2-y,-z
1/2+x,1/2-y,1/2+z
loop_
_atom_site_type_symbol
_atom_site_label
_atom_site_fract_x
_atom_site_fract_y
_atom_site_fract_z
Si Si1 0.144664 0.740300 0.653367
Si Si2 0.598112 0.726998 0.729148
Si Si3 0.385277 0.036408 0.799297
Si Si4 0.793344 0.597342 0.278146
Si Si5 0.315194 0.580110 0.283074
Si Si6 0.278042 0.557322 0.944759
Si Si7 0.541922 0.446186 0.083188
O O1 0.250000 0.750000 0.500000
O O2 0.175662 0.637591 0.659651
O O3 0.159487 0.822503 0.698882
O O4 0.000000 0.749145 0.750000
O O5 0.500000 0.757352 0.750000
O O6 0.659036 0.807831 0.724848
O O7 0.701932 0.662504 0.599445
O O8 0.527199 0.652377 0.842467
O O9 0.500000 0.063741 0.750000
O O10 0.391434 0.982412 0.718697
O O11 0.324735 0.960743 0.906354
O O12 0.772486 0.598296 0.210400
O O13 0.658584 0.567784 0.429039
O O14 0.260128 0.510456 0.391977
O O15 0.442096 0.525782 0.149414
O O16 0.399529 0.529077 0.888043
#
# Coordination Sequence:
#
# PCOD9288470 Si02
#       7
#     8   8   8   8   8   8   8
#     4  11  23  41  68  93 122 168 221 262 310 369
#     4   9  19  36  59  86 117 157 199 246 305 380
#     4  10  22  39  60  87 114 159 211 253 300 375
#     4  11  23  36  57  91 126 157 199 252 323 370
#     4  11  21  38  60  89 121 158 202 264 310 367
#     4   9  18  37  64  81 112 155 209 245 297 367
#     4   9  20  38  61  86 110 161 208 245 303 372
#
# _framework density 19.945122999999999
#
# number of rings (size 3 to 8) (size 9 to 14) (size 15 to 20)
#    0.000    2.000    1.429    3.000    2.000    8.571 
#    2.571    0.714    0.000    0.000    0.000    0.000 
#    0.000    0.000    0.000    0.000    0.000    0.000 
#
# Total GULP energy -155947.370897 kJ/mol
# GULP energy per Si atom -5569.548961 kJ/mol
# Density = 1.989973 g / cm^3
# Si number density = 19.945123 Si / 1000 Ang^3
#
#
#
# Elastic Constant Matrix: (Units=GPa)
#
#
# Indices 1 2 3 4 5 6 
#
# 1 155.5157 86.0203 12.9171 0.0000 23.4488 0.0000
# 2 86.0203 130.4143 1.4206 0.0000 11.3896 0.0000
# 3 12.9171 1.4206 28.8305 0.0000 5.4996 0.0000
# 4 0.0000 0.0000 0.0000 -137.6513 0.0000 -113.7897
# 5 23.4488 11.3896 5.4996 0.0000 17.9379 0.0000
# 6 0.0000 0.0000 0.0000 -113.7897 0.0000 -71.9108
#
#
#
# Elastic Compliance Matrix: (Units=1/GPa)
#
#
# Indices 1 2 3 4 5 6 
#
# 1 0.012192 -0.007093 -0.003114 0.000000 -0.010480 0.000000
# 2 -0.007093 0.012255 0.002432 0.000000 0.000745 0.000000
# 3 -0.003114 0.002432 0.037683 0.000000 -0.009027 0.000000
# 4 0.000000 0.000000 0.000000 0.023581 0.000000 -0.037315
# 5 -0.010480 0.000745 -0.009027 0.000000 0.071741 0.000000
# 6 0.000000 0.000000 0.000000 -0.037315 0.000000 0.045139
#
#
# Mechanical properties :
#
#
# Convention : Reuss Voigt Hill
#
# Bulk Modulus (GPa) = 21.46854 57.27513 39.37184
# Shear Modulus (GPa) = 21.39788 -24.03134 -1.31673
#
# Velocity S-wave (km/s) = 3.27897 -3.47489 -0.81340
# Velocity P-wave (km/s) = 5.01226 3.56074 4.34750
#
# Compressibility (1/GPa) = 0.04657978
#
# Stress axis : x y z
#
# Youngs Moduli (GPa) = 82.01975 81.60192 26.53734
#
# Poissons Ratio (x) = 0.57878 0.08264
# Poissons Ratio (y) = 0.58174 -0.06453
# Poissons Ratio (z) = 0.25541 -0.19844
#
# Static dielectric constant tensor:
#      x y z
#    x 1.653610 0.000000 -0.005000 
#    y 0.000000 1.729020 0.000000 
#    z -0.005000 0.000000 1.759010 
# 
# From -- ./inp_files/211194.got.cif
#   From: 2010.05.17/outbox.cif.g08.bks.cpg/sg15_106_cif.got.tgz:211194.got - 2010.06.03 18:47:42.
