data_PCOD9288457
_publ_section_title
;
Structure prediction by ZEFSAII (Michael W. Deem and Ramdas Pophale) SiO2 
 PCOD9288457
Probable space group: C 2/C
;
_chemical_formula_sum "Si O2"
_cell_formula_units_Z 44
_cell_length_a 7.980074
_cell_length_b 17.819839
_cell_length_c 26.115855
_cell_angle_alpha 90.000000
_cell_angle_beta 147.809548
_cell_angle_gamma 90.000000
_cell_volume 1978.455935
_symmetry_space_group_name_H-M "C 2/C"
_symmetry_group_IT_number 15
_symmetry_cell_setting 'monoclinic'
loop_
_space_group_symop_operation_xyz
x,y,z
-x,y,1/2-z
-x,-y,-z
x,-y,1/2+z
1/2+x,1/2+y,z
1/2-x,1/2+y,1/2-z
1/2-x,1/2-y,-z
1/2+x,1/2-y,1/2+z
loop_
_atom_site_type_symbol
_atom_site_label
_atom_site_fract_x
_atom_site_fract_y
_atom_site_fract_z
Si Si1 0.656297 0.842470 0.886978
Si Si2 0.370515 0.172585 0.924827
Si Si3 0.871726 0.957632 0.273729
Si Si4 0.000000 0.558112 0.250000
Si Si5 0.102114 0.711805 0.088272
Si Si6 0.693736 0.142878 0.901775
O O1 0.731475 0.756783 0.889940
O O2 0.608775 0.891151 0.825216
O O3 0.371356 0.835330 0.853543
O O4 0.943747 0.876300 0.994770
O O5 0.573242 0.166129 0.926447
O O6 0.103640 0.109107 0.852017
O O7 0.581884 0.165652 0.030518
O O8 0.527849 0.921963 0.174967
O O9 0.000000 0.982563 0.250000
O O10 0.793328 0.012921 0.300348
O O11 0.324934 0.783227 0.138637
O O12 0.750000 0.750000 0.000000
#
# Coordination Sequence:
#
# PCOD9288457 Si02
#       6
#     8   8   8   4   8   8
#     4  10  22  39  59  98 123 164 213 267 318 380
#     4   9  18  39  67  92 122 157 218 267 312 381
#     4  10  24  43  62  94 128 175 216 256 321 399
#     4  12  28  42  60  90 146 168 206 270 334 366
#     4   8  16  33  60  94 116 149 213 260 303 374
#     4   9  18  38  68  92 119 166 214 264 317 375
#
# _framework density 22.239564999999999
#
# number of rings (size 3 to 8) (size 9 to 14) (size 15 to 20)
#    0.000    2.909    0.000    2.182   11.455    0.727 
#    6.545    1.818    0.000    0.000    0.000    0.000 
#    0.000    0.000    0.000    0.000    0.000    0.000 
#
# Total GULP energy -122702.947811 kJ/mol
# GULP energy per Si atom -5577.406719 kJ/mol
# Density = 2.218895 g / cm^3
# Si number density = 22.239565 Si / 1000 Ang^3
#
#
#
# Elastic Constant Matrix: (Units=GPa)
#
#
# Indices 1 2 3 4 5 6 
#
# 1 133.0094 56.5323 27.7081 -0.0002 -15.4979 0.0005
# 2 56.5323 65.1977 23.4199 -0.0058 -9.4424 -0.0017
# 3 27.7081 23.4199 47.5970 -0.0148 -2.7778 -0.0052
# 4 -0.0002 -0.0058 -0.0148 9.1517 0.0000 -9.7169
# 5 -15.4979 -9.4424 -2.7778 0.0000 27.9939 -0.0005
# 6 0.0005 -0.0017 -0.0052 -9.7169 -0.0005 49.5362
#
#
#
# Elastic Compliance Matrix: (Units=1/GPa)
#
#
# Indices 1 2 3 4 5 6 
#
# 1 0.012419 -0.009405 -0.002400 -0.000013 0.003465 -0.000003
# 2 -0.009405 0.026603 -0.007438 0.000006 0.003029 0.000002
# 3 -0.002400 -0.007438 0.025994 0.000050 -0.001258 0.000012
# 4 -0.000013 0.000006 0.000050 0.138015 0.000000 0.027073
# 5 0.003465 0.003029 -0.001258 0.000000 0.038537 0.000000
# 6 -0.000003 0.000002 0.000012 0.027073 0.000000 0.025498
#
#
# Mechanical properties :
#
#
# Convention : Reuss Voigt Hill
#
# Bulk Modulus (GPa) = 37.69342 51.23607 44.46474
# Shear Modulus (GPa) = 15.90358 26.54593 21.22475
#
# Velocity S-wave (km/s) = 2.67704 3.45865 3.09264
# Velocity P-wave (km/s) = 5.15180 6.24804 5.72621
#
# Compressibility (1/GPa) = 0.02652983
#
# Stress axis : x y z
#
# Youngs Moduli (GPa) = 80.52081 37.58946 38.47114
#
# Poissons Ratio (x) = 0.35351 0.09233
# Poissons Ratio (y) = 0.75726 0.28617
# Poissons Ratio (z) = 0.19325 0.27961
#
# Static dielectric constant tensor:
#      x y z
#    x 1.899060 0.000000 0.010770 
#    y 0.000000 1.868470 0.000000 
#    z 0.010770 0.000000 1.885820 
# 
# From -- ./inp_files/308687.got.cif
#   From: 2010.05.17/outbox.cif.g08.bks.cpg/sg15_155_cif.got.tgz:308687.got - 2010.06.03 18:47:42.
