data_PCOD9288901
_publ_section_title
;
Structure prediction by ZEFSAII (Michael W. Deem and Ramdas Pophale) SiO2 
 PCOD9288901
Probable space group: C 2/C
;
_chemical_formula_sum "Si O2"
_cell_formula_units_Z 44
_cell_length_a 25.244483
_cell_length_b 14.866136
_cell_length_c 12.385265
_cell_angle_alpha 90.000000
_cell_angle_beta 26.467332
_cell_angle_gamma 90.000000
_cell_volume 2071.573378
_symmetry_space_group_name_H-M "C 2/C"
_symmetry_group_IT_number 15
_symmetry_cell_setting 'monoclinic'
loop_
_space_group_symop_operation_xyz
x,y,z
-x,y,1/2-z
-x,-y,-z
x,-y,1/2+z
1/2+x,1/2+y,z
1/2-x,1/2+y,1/2-z
1/2-x,1/2-y,-z
1/2+x,1/2-y,1/2+z
loop_
_atom_site_type_symbol
_atom_site_label
_atom_site_fract_x
_atom_site_fract_y
_atom_site_fract_z
Si Si1 0.855802 0.665545 0.375847
Si Si2 0.822818 0.733330 0.150524
Si Si3 0.275353 0.637783 0.534080
Si Si4 0.315224 0.949093 0.734867
Si Si5 0.500000 0.965972 0.750000
Si Si6 0.047767 0.743174 0.883784
O O1 0.748351 0.721027 0.620906
O O2 0.828025 0.602535 0.324556
O O3 0.898266 0.598216 0.390819
O O4 0.964668 0.729136 0.139731
O O5 0.798960 0.793427 0.090005
O O6 0.776661 0.630874 0.224091
O O7 0.958850 0.730967 0.944566
O O8 0.263466 0.537087 0.600095
O O9 0.150874 0.667866 0.706571
O O10 0.382569 0.662990 0.257609
O O11 0.441387 0.980503 0.455373
#
# Coordination Sequence:
#
# PCOD9288901 Si02
#       6
#     8   8   8   8   4   8
#     4  11  22  43  64  98 134 169 216 275 330 378
#     4  11  24  43  67  95 135 174 216 269 331 384
#     4  11  23  42  63 100 131 169 221 266 328 387
#     4  11  24  38  68  97 128 169 220 276 322 384
#     4  12  22  38  68 100 130 162 224 276 322 396
#     4  10  22  39  67  89 131 168 212 273 316 385
#
# _framework density 21.239894
#
# number of rings (size 3 to 8) (size 9 to 14) (size 15 to 20)
#    0.000    1.091    3.636    3.273    7.636    1.455 
#    0.000    3.636   12.000    0.000    0.000    0.000 
#    0.000    0.000    0.000    0.000    0.000    0.000 
#
# Total GULP energy -122817.291426 kJ/mol
# GULP energy per Si atom -5582.604156 kJ/mol
# Density = 2.119155 g / cm^3
# Si number density = 21.239894 Si / 1000 Ang^3
#
#
#
# Elastic Constant Matrix: (Units=GPa)
#
#
# Indices 1 2 3 4 5 6 
#
# 1 76.9183 34.5983 28.0774 0.0000 -7.0290 0.0000
# 2 34.5983 155.5920 55.1380 0.0000 -10.8394 0.0000
# 3 28.0774 55.1380 100.2564 0.0000 6.3711 0.0000
# 4 0.0000 0.0000 0.0000 17.0854 0.0000 -7.7935
# 5 -7.0290 -10.8394 6.3711 0.0000 21.9242 0.0000
# 6 0.0000 0.0000 0.0000 -7.7935 0.0000 -21.5985
#
#
#
# Elastic Compliance Matrix: (Units=1/GPa)
#
#
# Indices 1 2 3 4 5 6 
#
# 1 0.015644 -0.001796 -0.003725 0.000000 0.005210 0.000000
# 2 -0.001796 0.008849 -0.004692 0.000000 0.005162 0.000000
# 3 -0.003725 -0.004692 0.014081 0.000000 -0.007606 0.000000
# 4 0.000000 0.000000 0.000000 0.050257 0.000000 -0.018135
# 5 0.005210 0.005162 -0.007606 0.000000 0.052045 0.000000
# 6 0.000000 0.000000 0.000000 -0.018135 0.000000 -0.039756
#
#
# Mechanical properties :
#
#
# Convention : Reuss Voigt Hill
#
# Bulk Modulus (GPa) = 55.09720 63.15490 59.12605
# Shear Modulus (GPa) = 39.18673 17.81243 28.49958
#
# Velocity S-wave (km/s) = 4.29996 2.89905 3.66703
# Velocity P-wave (km/s) = 7.11685 6.40349 6.76957
#
# Compressibility (1/GPa) = 0.01814974
#
# Stress axis : x y z
#
# Youngs Moduli (GPa) = 63.92098 113.01184 71.01712
#
# Poissons Ratio (x) = 0.20295 0.26452
# Poissons Ratio (y) = 0.11479 0.33318
# Poissons Ratio (z) = 0.23809 0.53021
#
# Static dielectric constant tensor:
#      x y z
#    x 1.818830 0.000000 0.027650 
#    y 0.000000 1.782050 0.000000 
#    z 0.027650 0.000000 1.775700 
# 
# From -- ./inp_files/182250.got.cif
#   From: 2010.05.17/outbox.cif.g08.bks.cpg/sg15_92_cif.got.tgz:182250.got - 2010.06.03 18:47:42.
