data_PCOD9288097
_publ_section_title
;
Structure prediction by ZEFSAII (Michael W. Deem and Ramdas Pophale) SiO2 
 PCOD9288097
Probable space group: C 2/C
;
_chemical_formula_sum "Si O2"
_cell_formula_units_Z 52
_cell_length_a 30.058617
_cell_length_b 11.220807
_cell_length_c 9.335268
_cell_angle_alpha 90.000000
_cell_angle_beta 52.552987
_cell_angle_gamma 90.000000
_cell_volume 2499.737597
_symmetry_space_group_name_H-M "C 2/C"
_symmetry_group_IT_number 15
_symmetry_cell_setting 'monoclinic'
loop_
_space_group_symop_operation_xyz
x,y,z
-x,y,1/2-z
-x,-y,-z
x,-y,1/2+z
1/2+x,1/2+y,z
1/2-x,1/2+y,1/2-z
1/2-x,1/2-y,-z
1/2+x,1/2-y,1/2+z
loop_
_atom_site_type_symbol
_atom_site_label
_atom_site_fract_x
_atom_site_fract_y
_atom_site_fract_z
Si Si1 0.000000 0.818686 0.250000
Si Si2 0.586939 0.517632 0.740371
Si Si3 0.232170 0.422353 0.476033
Si Si4 0.680365 0.831518 0.006248
Si Si5 0.895726 0.206788 0.106187
Si Si6 0.288238 0.318250 0.633671
Si Si7 0.350471 0.629798 0.630155
O O1 0.950948 0.741476 0.421748
O O2 0.035132 0.908223 0.282838
O O3 0.578423 0.408666 0.866857
O O4 0.621952 0.609385 0.770123
O O5 0.617129 0.443623 0.554650
O O6 0.190658 0.529404 0.519680
O O7 0.255832 0.412103 0.592518
O O8 0.206547 0.297105 0.478314
O O9 0.288917 0.427408 0.270607
O O10 0.745283 0.792449 0.849716
O O11 0.653841 0.766328 0.917099
O O12 0.640866 0.782571 0.210115
O O13 0.848781 0.165386 0.084429
#
# Coordination Sequence:
#
# PCOD9288097 Si02
#       7
#     4   8   8   8   8   8   8
#     4  12  24  40  66  90 130 174 212 286 326 386
#     4  11  22  40  62  93 135 169 214 268 333 384
#     4  10  22  38  64  98 132 171 212 255 321 393
#     4  10  23  39  62  95 130 170 212 265 318 392
#     4  11  23  39  61  94 129 169 218 266 333 384
#     4  10  22  40  63  97 132 173 206 260 324 387
#     4  10  22  38  63  95 138 169 212 265 320 393
#
# _framework density 20.802181999999998
#
# number of rings (size 3 to 8) (size 9 to 14) (size 15 to 20)
#    0.000    1.538    1.538    2.769    4.308    1.231 
#    0.000    0.000    0.000    0.923    0.000    0.000 
#    0.000    0.000    0.000    0.000    0.000    0.000 
#
# Total GULP energy -144796.589196 kJ/mol
# GULP energy per Si atom -5569.099584 kJ/mol
# Density = 2.075484 g / cm^3
# Si number density = 20.802182 Si / 1000 Ang^3
#
#
#
# Elastic Constant Matrix: (Units=GPa)
#
#
# Indices 1 2 3 4 5 6 
#
# 1 85.1254 38.9504 35.6321 0.0000 -1.3887 0.0000
# 2 38.9504 90.7042 25.9189 0.0000 6.9056 0.0000
# 3 35.6321 25.9189 133.7527 0.0000 -9.3686 0.0000
# 4 0.0000 0.0000 0.0000 26.0855 0.0000 -1.4681
# 5 -1.3887 6.9056 -9.3686 0.0000 40.6924 0.0000
# 6 0.0000 0.0000 0.0000 -1.4681 0.0000 24.5877
#
#
#
# Elastic Compliance Matrix: (Units=1/GPa)
#
#
# Indices 1 2 3 4 5 6 
#
# 1 0.015741 -0.005975 -0.002975 0.000000 0.000866 0.000000
# 2 -0.005975 0.014204 -0.001366 0.000000 -0.002929 0.000000
# 3 -0.002975 -0.001366 0.008683 0.000000 0.002129 0.000000
# 4 0.000000 0.000000 0.000000 0.038465 0.000000 0.002297
# 5 0.000866 -0.002929 0.002129 0.000000 0.025591 0.000000
# 6 0.000000 0.000000 0.000000 0.002297 0.000000 0.040808
#
#
# Mechanical properties :
#
#
# Convention : Reuss Voigt Hill
#
# Bulk Modulus (GPa) = 55.56861 56.73168 56.15015
# Shear Modulus (GPa) = 29.39063 32.21185 30.80124
#
# Velocity S-wave (km/s) = 3.76288 3.93935 3.85213
# Velocity P-wave (km/s) = 6.75647 6.92982 6.84370
#
# Compressibility (1/GPa) = 0.01799577
#
# Stress axis : x y z
#
# Youngs Moduli (GPa) = 63.52906 70.40240 115.17037
#
# Poissons Ratio (x) = 0.42068 0.34261
# Poissons Ratio (y) = 0.37961 0.15730
# Poissons Ratio (z) = 0.18899 0.09615
#
# Static dielectric constant tensor:
#      x y z
#    x 1.743860 0.000000 0.008310 
#    y 0.000000 1.811710 0.000000 
#    z 0.008310 0.000000 1.880910 
# 
# From -- ./inp_files/69018.got.cif
#   From: 2010.05.17/outbox.cif.g08.bks.cpg/sg15_35_cif.got.tgz:69018.got - 2010.06.03 18:47:42.
