data_PCOD9288381
_publ_section_title
;
Structure prediction by ZEFSAII (Michael W. Deem and Ramdas Pophale) SiO2 
 PCOD9288381
Probable space group: C 2/C
;
_chemical_formula_sum "Si O2"
_cell_formula_units_Z 52
_cell_length_a 26.663006
_cell_length_b 10.258516
_cell_length_c 8.316606
_cell_angle_alpha 90.000000
_cell_angle_beta 116.348914
_cell_angle_gamma 90.000000
_cell_volume 2038.449981
_symmetry_space_group_name_H-M "C 2/C"
_symmetry_group_IT_number 15
_symmetry_cell_setting 'monoclinic'
loop_
_space_group_symop_operation_xyz
x,y,z
-x,y,1/2-z
-x,-y,-z
x,-y,1/2+z
1/2+x,1/2+y,z
1/2-x,1/2+y,1/2-z
1/2-x,1/2-y,-z
1/2+x,1/2-y,1/2+z
loop_
_atom_site_type_symbol
_atom_site_label
_atom_site_fract_x
_atom_site_fract_y
_atom_site_fract_z
Si Si1 0.392529 0.251971 0.313378
Si Si2 0.705499 0.436002 0.435723
Si Si3 0.663512 0.273774 0.919833
Si Si4 0.618782 0.138203 0.546544
Si Si5 0.524566 0.694810 0.005594
Si Si6 0.215248 0.443914 0.675425
Si Si7 0.000000 0.972621 0.750000
O O1 0.349649 0.359382 0.187044
O O2 0.376676 0.244088 0.481064
O O3 0.458001 0.284822 0.403219
O O4 0.382783 0.150794 0.149683
O O5 0.683848 0.579128 0.452508
O O6 0.748137 0.383035 0.630854
O O7 0.745998 0.443955 0.340754
O O8 0.708125 0.161667 0.025981
O O9 0.644437 0.244789 0.708694
O O10 0.554629 0.169813 0.506992
O O11 0.656074 0.010951 0.634809
O O12 0.535555 0.624070 0.189933
O O13 0.537657 0.574474 0.903786
#
# Coordination Sequence:
#
# PCOD9288381 Si02
#       7
#     8   8   8   8   8   8   4
#     4  12  27  45  78 113 151 199 261 324 399 454
#     4  12  26  44  76 113 150 195 258 325 395 461
#     4  12  28  47  76 112 156 204 254 326 391 465
#     4  12  27  47  76 106 155 205 258 320 384 467
#     4  11  24  45  71 111 152 197 257 332 392 460
#     4  12  26  49  72 105 157 207 254 313 383 477
#     4  10  22  38  74 102 156 190 250 338 394 450
#
# _framework density 25.509578000000001
#
# number of rings (size 3 to 8) (size 9 to 14) (size 15 to 20)
#    0.000    0.308    4.615    3.231    8.615    1.231 
#    0.000    0.769    3.385    0.000    0.000    0.000 
#    0.000    0.000    0.000    0.000    0.000    0.000 
#
# Total GULP energy -145049.662992 kJ/mol
# GULP energy per Si atom -5578.833192 kJ/mol
# Density = 2.545152 g / cm^3
# Si number density = 25.509578 Si / 1000 Ang^3
#
#
#
# Elastic Constant Matrix: (Units=GPa)
#
#
# Indices 1 2 3 4 5 6 
#
# 1 154.2126 46.3182 36.4005 0.0000 6.9833 0.0000
# 2 46.3182 51.2116 9.4598 0.0000 16.3187 0.0000
# 3 36.4005 9.4598 141.5102 0.0000 -1.4461 0.0000
# 4 0.0000 0.0000 0.0000 -32.8522 0.0000 -40.2067
# 5 6.9833 16.3187 -1.4461 0.0000 50.9706 0.0000
# 6 0.0000 0.0000 0.0000 -40.2067 0.0000 22.9073
#
#
#
# Elastic Compliance Matrix: (Units=1/GPa)
#
#
# Indices 1 2 3 4 5 6 
#
# 1 0.009458 -0.008669 -0.001839 0.000000 0.001428 0.000000
# 2 -0.008669 0.030026 0.000137 0.000000 -0.008421 0.000000
# 3 -0.001839 0.000137 0.007535 0.000000 0.000422 0.000000
# 4 0.000000 0.000000 0.000000 -0.009669 0.000000 -0.016971
# 5 0.001428 -0.008421 0.000422 0.000000 0.022132 0.000000
# 6 0.000000 0.000000 0.000000 -0.016971 0.000000 0.013867
#
#
# Mechanical properties :
#
#
# Convention : Reuss Voigt Hill
#
# Bulk Modulus (GPa) = 38.05752 59.03240 48.54496
# Shear Modulus (GPa) = 48.61484 25.18887 36.90185
#
# Velocity S-wave (km/s) = 4.37022 3.14575 3.80753
# Velocity P-wave (km/s) = 6.35739 6.03206 6.19686
#
# Compressibility (1/GPa) = 0.02627601
#
# Stress axis : x y z
#
# Youngs Moduli (GPa) = 105.73312 33.30442 132.71819
#
# Poissons Ratio (x) = 0.28873 0.24403
# Poissons Ratio (y) = 0.91664 -0.01815
# Poissons Ratio (z) = 0.19441 -0.00455
#
# Static dielectric constant tensor:
#      x y z
#    x 2.099520 0.000000 0.012670 
#    y 0.000000 2.055250 0.000000 
#    z 0.012670 0.000000 2.093490 
# 
# From -- ./inp_files/69198.got.cif
#   From: 2010.05.17/outbox.cif.g08.bks.cpg/sg15_35_cif.got.tgz:69198.got - 2010.06.03 18:47:42.
