data_PCOD9288514
_publ_section_title
;
Structure prediction by ZEFSAII (Michael W. Deem and Ramdas Pophale) SiO2 
 PCOD9288514
Probable space group: C 2/C
;
_chemical_formula_sum "Si O2"
_cell_formula_units_Z 52
_cell_length_a 11.715083
_cell_length_b 8.797357
_cell_length_c 28.044451
_cell_angle_alpha 90.000000
_cell_angle_beta 127.548665
_cell_angle_gamma 90.000000
_cell_volume 2291.542346
_symmetry_space_group_name_H-M "C 2/C"
_symmetry_group_IT_number 15
_symmetry_cell_setting 'monoclinic'
loop_
_space_group_symop_operation_xyz
x,y,z
-x,y,1/2-z
-x,-y,-z
x,-y,1/2+z
1/2+x,1/2+y,z
1/2-x,1/2+y,1/2-z
1/2-x,1/2-y,-z
1/2+x,1/2-y,1/2+z
loop_
_atom_site_type_symbol
_atom_site_label
_atom_site_fract_x
_atom_site_fract_y
_atom_site_fract_z
Si Si1 0.977762 0.732480 0.384865
Si Si2 0.990138 0.990943 0.668570
Si Si3 0.730513 0.487458 0.808521
Si Si4 0.250000 0.750000 0.000000
Si Si5 0.644047 0.446320 0.063181
Si Si6 0.597980 0.279635 0.612011
Si Si7 0.597406 0.973910 0.479265
O O1 0.048506 0.850007 0.366720
O O2 0.853820 0.633631 0.328067
O O3 0.901752 0.831651 0.406671
O O4 0.076964 0.610594 0.437974
O O5 0.126189 0.022132 0.738310
O O6 0.866474 0.931118 0.672020
O O7 0.047117 0.872896 0.644400
O O8 0.810485 0.636388 0.848480
O O9 0.260285 0.641249 0.950748
O O10 0.254481 0.582142 0.031397
O O11 0.684489 0.605783 0.099523
O O12 0.500000 0.500000 0.000000
O O13 0.452683 0.200934 0.550899
O O14 0.500000 0.000000 0.500000
#
# Coordination Sequence:
#
# PCOD9288514 Si02
#       7
#     8   8   8   4   8   8   8
#     4  10  22  39  61  84 123 152 195 244 293 346
#     4  10  22  40  62  88 116 152 197 244 298 352
#     4  10  22  40  62  88 116 152 197 244 298 352
#     4  12  24  36  66  78 126 160 194 240 300 330
#     4  11  22  40  57  90 119 155 200 238 285 355
#     4  10  22  39  61  84 123 152 195 244 293 346
#     4  11  22  40  57  90 119 155 200 238 285 355
#
# _framework density 22.692140999999999
#
# number of rings (size 3 to 8) (size 9 to 14) (size 15 to 20)
#    0.000    1.538    3.077    0.923    4.308    0.000 
#    0.000    1.538    0.000    9.231    0.000    0.000 
#    0.000    0.000    0.000    0.000    0.000    0.000 
#
# Total GULP energy -144948.515334 kJ/mol
# GULP energy per Si atom -5574.942897 kJ/mol
# Density = 2.264049 g / cm^3
# Si number density = 22.692141 Si / 1000 Ang^3
#
#
#
# Elastic Constant Matrix: (Units=GPa)
#
#
# Indices 1 2 3 4 5 6 
#
# 1 65.7768 25.8503 14.7678 0.0000 -15.4553 0.0000
# 2 25.8503 120.1018 32.4864 0.0000 -5.9205 0.0000
# 3 14.7678 32.4864 73.2282 0.0000 -8.6674 0.0000
# 4 0.0000 0.0000 0.0000 38.7472 0.0000 -4.9486
# 5 -15.4553 -5.9205 -8.6674 0.0000 36.8821 0.0000
# 6 0.0000 0.0000 0.0000 -4.9486 0.0000 43.6036
#
#
#
# Elastic Compliance Matrix: (Units=1/GPa)
#
#
# Indices 1 2 3 4 5 6 
#
# 1 0.018411 -0.003227 -0.001470 0.000000 0.006852 0.000000
# 2 -0.003227 0.010038 -0.003880 0.000000 -0.000653 0.000000
# 3 -0.001470 -0.003880 0.015971 0.000000 0.002514 0.000000
# 4 0.000000 0.000000 0.000000 0.026188 0.000000 0.002972
# 5 0.006852 -0.000653 0.002514 0.000000 0.030471 0.000000
# 6 0.000000 0.000000 0.000000 0.002972 0.000000 0.023271
#
#
# Mechanical properties :
#
#
# Convention : Reuss Voigt Hill
#
# Bulk Modulus (GPa) = 36.67556 45.03508 40.85532
# Shear Modulus (GPa) = 33.20195 36.24673 34.72434
#
# Velocity S-wave (km/s) = 3.82926 4.00099 3.91607
# Velocity P-wave (km/s) = 5.97899 6.42130 6.20409
#
# Compressibility (1/GPa) = 0.02726611
#
# Stress axis : x y z
#
# Youngs Moduli (GPa) = 54.31458 99.62009 62.61272
#
# Poissons Ratio (x) = 0.32151 0.09206
# Poissons Ratio (y) = 0.17529 0.24292
# Poissons Ratio (z) = 0.07986 0.38649
#
# Static dielectric constant tensor:
#      x y z
#    x 1.901630 0.000000 0.007720 
#    y 0.000000 1.954110 0.000000 
#    z 0.007720 0.000000 1.889850 
# 
# From -- ./inp_files/291254.got.cif
#   From: 2010.05.17/outbox.cif.g08.bks.cpg/sg15_146_cif.got.tgz:291254.got - 2010.06.03 18:47:42.
