data_PCOD9288583
_publ_section_title
;
Structure prediction by ZEFSAII (Michael W. Deem and Ramdas Pophale) SiO2 
 PCOD9288583
Probable space group: C 2/C
;
_chemical_formula_sum "Si O2"
_cell_formula_units_Z 64
_cell_length_a 23.129755
_cell_length_b 19.702331
_cell_length_c 19.927167
_cell_angle_alpha 90.000000
_cell_angle_beta 157.961773
_cell_angle_gamma 90.000000
_cell_volume 3407.423414
_symmetry_space_group_name_H-M "C 2/C"
_symmetry_group_IT_number 15
_symmetry_cell_setting 'monoclinic'
loop_
_space_group_symop_operation_xyz
x,y,z
-x,y,1/2-z
-x,-y,-z
x,-y,1/2+z
1/2+x,1/2+y,z
1/2-x,1/2+y,1/2-z
1/2-x,1/2-y,-z
1/2+x,1/2-y,1/2+z
loop_
_atom_site_type_symbol
_atom_site_label
_atom_site_fract_x
_atom_site_fract_y
_atom_site_fract_z
Si Si1 0.907362 0.935153 0.210214
Si Si2 0.950506 0.428246 0.273312
Si Si3 0.056597 0.824789 0.145418
Si Si4 0.126040 0.326420 0.559343
Si Si5 0.914666 0.076743 0.091246
Si Si6 0.305847 0.821536 0.714033
Si Si7 0.602482 0.924231 0.803671
Si Si8 0.010588 0.821129 0.579092
O O1 0.000000 0.897295 0.250000
O O2 0.878681 0.886605 0.241620
O O3 0.748501 0.952677 0.002713
O O4 0.010683 0.001208 0.338956
O O5 0.982928 0.508735 0.315020
O O6 0.000000 0.409720 0.250000
O O7 0.043923 0.383427 0.426749
O O8 0.768159 0.420857 0.092522
O O9 0.137351 0.753105 0.245673
O O10 0.876964 0.820024 0.971526
O O11 0.063822 0.836664 0.073550
O O12 0.120473 0.338686 0.633838
O O13 0.305392 0.321882 0.732200
O O14 0.045521 0.253816 0.460881
O O15 0.000000 0.102335 0.250000
O O16 0.958074 0.123698 0.075981
O O17 0.349064 0.875847 0.704165
O O18 0.500000 0.888018 0.750000
#
# Coordination Sequence:
#
# PCOD9288583 Si02
#       8
#     8   8   8   8   8   8   8   8
#     4  11  21  41  61  86 123 158 195 245 295 345
#     4  11  22  39  63  88 121 155 196 242 296 350
#     4  10  22  39  62  87 122 158 199 245 291 352
#     4  10  22  40  62  87 122 155 196 247 292 354
#     4  11  21  39  64  88 119 156 195 242 296 353
#     4  10  22  41  59  88 121 159 199 244 296 344
#     4  11  24  40  60  89 121 158 199 245 293 351
#     4  10  22  40  61  90 120 156 198 242 297 349
#
# _framework density 18.782520999999999
#
# number of rings (size 3 to 8) (size 9 to 14) (size 15 to 20)
#    0.000    1.500    3.750    1.500    3.500    3.500 
#    0.000    2.500    0.000    0.000    0.000    0.000 
#    0.000    0.000    0.000    0.000    0.000    0.000 
#
# Total GULP energy -178592.481926 kJ/mol
# GULP energy per Si atom -5581.015060 kJ/mol
# Density = 1.873977 g / cm^3
# Si number density = 18.782521 Si / 1000 Ang^3
#
#
#
# Elastic Constant Matrix: (Units=GPa)
#
#
# Indices 1 2 3 4 5 6 
#
# 1 121.7256 87.3603 34.0130 -0.0004 4.1255 -0.0007
# 2 87.3603 121.4267 49.2530 0.0044 -20.7846 0.0003
# 3 34.0130 49.2530 65.5697 0.0034 -4.4167 -0.0008
# 4 -0.0004 0.0044 0.0034 29.0480 0.0008 -1.8182
# 5 4.1255 -20.7846 -4.4167 0.0008 26.4816 -0.0015
# 6 -0.0007 0.0003 -0.0008 -1.8182 -0.0015 44.1715
#
#
#
# Elastic Compliance Matrix: (Units=1/GPa)
#
#
# Indices 1 2 3 4 5 6 
#
# 1 0.023535 -0.021373 0.002497 0.000004 -0.020025 0.000000
# 2 -0.021373 0.033149 -0.011971 -0.000005 0.027351 0.000000
# 3 0.002497 -0.011971 0.022542 -0.000001 -0.006025 0.000000
# 4 0.000004 -0.000005 -0.000001 0.034515 -0.000005 0.001421
# 5 -0.020025 0.027351 -0.006025 -0.000005 0.061344 0.000001
# 6 0.000000 0.000000 0.000000 0.001421 0.000001 0.022697
#
#
# Mechanical properties :
#
#
# Convention : Reuss Voigt Hill
#
# Bulk Modulus (GPa) = 57.03679 72.21940 64.62809
# Shear Modulus (GPa) = 18.84515 29.14660 23.99587
#
# Velocity S-wave (km/s) = 3.17098 3.94355 3.57818
# Velocity P-wave (km/s) = 6.62116 7.69866 7.18015
#
# Compressibility (1/GPa) = 0.01753254
#
# Stress axis : x y z
#
# Youngs Moduli (GPa) = 42.49014 30.16651 44.36130
#
# Poissons Ratio (x) = 0.64474 -0.11077
# Poissons Ratio (y) = 0.90812 0.53107
# Poissons Ratio (z) = -0.10610 0.36113
#
# Static dielectric constant tensor:
#      x y z
#    x 1.648560 0.000000 0.017310 
#    y 0.000000 1.627560 0.000000 
#    z 0.017310 0.000000 1.675510 
# 
# From -- ./inp_files/256024.got.cif
#   From: 2010.05.17/outbox.cif.g08.bks.cpg/sg15_129_cif.got.tgz:256024.got - 2010.06.03 18:47:42.
