data_PCOD9288424
_publ_section_title
;
Structure prediction by ZEFSAII (Michael W. Deem and Ramdas Pophale) SiO2 
 PCOD9288424
Probable space group: C 2/C
;
_chemical_formula_sum "Si O2"
_cell_formula_units_Z 44
_cell_length_a 16.826884
_cell_length_b 27.550818
_cell_length_c 9.479248
_cell_angle_alpha 90.000000
_cell_angle_beta 29.021426
_cell_angle_gamma 90.000000
_cell_volume 2131.945866
_symmetry_space_group_name_H-M "C 2/C"
_symmetry_group_IT_number 15
_symmetry_cell_setting 'monoclinic'
loop_
_space_group_symop_operation_xyz
x,y,z
-x,y,1/2-z
-x,-y,-z
x,-y,1/2+z
1/2+x,1/2+y,z
1/2-x,1/2+y,1/2-z
1/2-x,1/2-y,-z
1/2+x,1/2-y,1/2+z
loop_
_atom_site_type_symbol
_atom_site_label
_atom_site_fract_x
_atom_site_fract_y
_atom_site_fract_z
Si Si1 0.756203 0.422876 0.292356
Si Si2 0.500000 0.492360 0.250000
Si Si3 0.689552 0.584843 0.586858
Si Si4 0.864228 0.807264 0.232695
Si Si5 0.500000 0.231340 0.250000
Si Si6 0.500000 0.660351 0.250000
Si Si7 0.461060 0.049281 0.974627
O O1 0.651813 0.471361 0.489358
O O2 0.792102 0.425259 0.070046
O O3 0.646509 0.376847 0.496716
O O4 0.907821 0.415886 0.157896
O O5 0.455180 0.455178 0.192870
O O6 0.636175 0.640531 0.686060
O O7 0.789443 0.571762 0.290731
O O8 0.674707 0.798428 0.470485
O O9 0.941819 0.766607 0.213370
O O10 0.988497 0.808882 0.908430
O O11 0.500000 0.043160 0.750000
O O12 0.500000 0.000000 0.000000
#
# Coordination Sequence:
#
# PCOD9288424 Si02
#       7
#     8   4   8   8   4   4   8
#     4  10  22  39  58  91 129 168 209 257 308 360
#     4  11  21  34  60  88 126 166 214 252 305 365
#     4  11  23  38  65  88 126 169 212 262 309 378
#     4  10  23  43  69  96 127 166 209 268 327 392
#     4  10  23  44  69  94 128 164 207 266 339 392
#     4   9  22  40  69  96 128 160 211 258 314 381
#     4  12  25  39  58  88 127 173 219 257 303 362
#
# _framework density 20.638423
#
# number of rings (size 3 to 8) (size 9 to 14) (size 15 to 20)
#    0.000    1.455    1.818    2.727    5.091    6.545 
#    0.000    0.000    8.000    0.000    0.000    0.000 
#    0.000    0.000    0.000    0.000    0.000    0.000 
#
# Total GULP energy -122510.499224 kJ/mol
# GULP energy per Si atom -5568.659056 kJ/mol
# Density = 2.059145 g / cm^3
# Si number density = 20.638423 Si / 1000 Ang^3
#
#
#
# Elastic Constant Matrix: (Units=GPa)
#
#
# Indices 1 2 3 4 5 6 
#
# 1 106.2656 15.6079 42.0757 -0.0009 5.7352 0.0005
# 2 15.6079 88.1337 28.1117 0.0000 13.9884 0.0000
# 3 42.0757 28.1117 99.6431 -0.0027 25.3591 0.0005
# 4 -0.0009 0.0000 -0.0027 1.1700 0.0010 5.6622
# 5 5.7352 13.9884 25.3591 0.0010 38.4506 -0.0004
# 6 0.0005 0.0000 0.0005 5.6622 -0.0004 18.6341
#
#
#
# Elastic Compliance Matrix: (Units=1/GPa)
#
#
# Indices 1 2 3 4 5 6 
#
# 1 0.011437 -0.000697 -0.005123 0.000009 0.001927 -0.000003
# 2 -0.000697 0.012742 -0.002580 0.000009 -0.002830 -0.000003
# 3 -0.005123 -0.002580 0.015014 -0.000085 -0.008199 0.000025
# 4 0.000009 0.000009 -0.000085 -1.816217 0.000105 0.551882
# 5 0.001927 -0.002830 -0.008199 0.000105 0.032157 -0.000031
# 6 -0.000003 -0.000003 0.000025 0.551882 -0.000031 -0.114032
#
#
# Mechanical properties :
#
#
# Convention : Reuss Voigt Hill
#
# Bulk Modulus (GPa) = 44.65889 51.73701 48.19795
# Shear Modulus (GPa) = -2.72534 25.53408 11.40437
#
# Velocity S-wave (km/s) = -1.15038 3.52122 2.35325
# Velocity P-wave (km/s) = 4.46331 6.45404 5.54869
#
# Compressibility (1/GPa) = 0.02239196
#
# Stress axis : x y z
#
# Youngs Moduli (GPa) = 87.43307 78.48050 66.60548
#
# Poissons Ratio (x) = 0.05471 0.34123
# Poissons Ratio (y) = 0.06095 0.17186
# Poissons Ratio (z) = 0.44794 0.20250
#
# Static dielectric constant tensor:
#      x y z
#    x 1.916300 0.000000 -0.097950 
#    y 0.000000 1.811400 0.000000 
#    z -0.097950 0.000000 1.875930 
# 
# From -- ./inp_files/52598.got.cif
#   From: 2010.05.17/outbox.cif.g08.bks.cpg/sg15_27_cif.got.tgz:52598.got - 2010.06.03 18:47:42.
