data_PCOD9288243
_publ_section_title
;
Structure prediction by ZEFSAII (Michael W. Deem and Ramdas Pophale) SiO2 
 PCOD9288243
Probable space group: C 2/C
;
_chemical_formula_sum "Si O2"
_cell_formula_units_Z 60
_cell_length_a 16.936248
_cell_length_b 8.317687
_cell_length_c 21.469675
_cell_angle_alpha 90.000000
_cell_angle_beta 124.436275
_cell_angle_gamma 90.000000
_cell_volume 2494.425534
_symmetry_space_group_name_H-M "C 2/C"
_symmetry_group_IT_number 15
_symmetry_cell_setting 'monoclinic'
loop_
_space_group_symop_operation_xyz
x,y,z
-x,y,1/2-z
-x,-y,-z
x,-y,1/2+z
1/2+x,1/2+y,z
1/2-x,1/2+y,1/2-z
1/2-x,1/2-y,-z
1/2+x,1/2-y,1/2+z
loop_
_atom_site_type_symbol
_atom_site_label
_atom_site_fract_x
_atom_site_fract_y
_atom_site_fract_z
Si Si1 0.176573 0.662100 0.514132
Si Si2 0.314333 0.884344 0.152387
Si Si3 0.411495 0.691698 0.302079
Si Si4 0.089990 0.811854 0.189480
Si Si5 0.000000 0.607978 0.250000
Si Si6 0.770838 0.204664 0.345685
Si Si7 0.477607 0.683745 0.976284
Si Si8 0.109377 0.678632 0.934433
O O1 0.250000 0.750000 0.500000
O O2 0.237837 0.661147 0.605048
O O3 0.138301 0.500973 0.466514
O O4 0.080294 0.746868 0.497807
O O5 0.339479 0.760846 0.218334
O O6 0.310070 0.792700 0.084099
O O7 0.407210 0.001180 0.197310
O O8 0.235105 0.022323 0.129940
O O9 0.420424 0.500366 0.300479
O O10 0.366137 0.725220 0.348961
O O11 0.513923 0.778526 0.351235
O O12 0.010315 0.717645 0.193361
O O13 0.186510 0.736521 0.259497
O O14 0.084647 0.788039 0.113522
O O15 0.500000 0.500000 0.000000
O O16 0.420663 0.745812 0.012029
#
# Coordination Sequence:
#
# PCOD9288243 Si02
#       8
#     8   8   8   8   4   8   8   8
#     4  12  26  48  75 109 151 199 252 311 379 458
#     4  11  23  43  71 106 143 191 245 304 374 449
#     4  12  24  44  75 105 145 191 253 305 374 453
#     4  11  26  43  71 107 142 194 246 310 380 438
#     4  10  22  38  66 100 140 180 240 300 360 446
#     4  11  25  47  73 105 150 190 248 317 377 450
#     4  12  26  47  76 105 155 198 255 312 383 452
#     4  12  24  44  74 109 147 200 246 308 374 462
#
# _framework density 24.053635
#
# number of rings (size 3 to 8) (size 9 to 14) (size 15 to 20)
#    0.000    0.533    5.333    2.000    5.600    1.067 
#    0.000    0.667    0.000    0.000    0.000    0.000 
#    0.000    0.000    0.000    0.000    0.000    0.000 
#
# Total GULP energy -167535.473207 kJ/mol
# GULP energy per Si atom -5584.515774 kJ/mol
# Density = 2.399889 g / cm^3
# Si number density = 24.053635 Si / 1000 Ang^3
#
#
#
# Elastic Constant Matrix: (Units=GPa)
#
#
# Indices 1 2 3 4 5 6 
#
# 1 106.7127 41.1710 29.1114 0.0000 -27.6797 0.0000
# 2 41.1710 84.0929 25.8440 0.0000 -21.5404 0.0000
# 3 29.1114 25.8440 126.6754 0.0000 -35.5789 0.0000
# 4 0.0000 0.0000 0.0000 -4.2377 0.0000 -55.0072
# 5 -27.6797 -21.5404 -35.5789 0.0000 46.4424 0.0000
# 6 0.0000 0.0000 0.0000 -55.0072 0.0000 1.4468
#
#
#
# Elastic Compliance Matrix: (Units=1/GPa)
#
#
# Indices 1 2 3 4 5 6 
#
# 1 0.012628 -0.004758 -0.000557 0.000000 0.004893 0.000000
# 2 -0.004758 0.015449 -0.001073 0.000000 0.003508 0.000000
# 3 -0.000557 -0.001073 0.010204 0.000000 0.006987 0.000000
# 4 0.000000 0.000000 0.000000 -0.000477 0.000000 -0.018143
# 5 0.004893 0.003508 0.006987 0.000000 0.031427 0.000000
# 6 0.000000 0.000000 0.000000 -0.018143 0.000000 0.001398
#
#
# Mechanical properties :
#
#
# Convention : Reuss Voigt Hill
#
# Bulk Modulus (GPa) = 39.20988 56.63708 47.92348
# Shear Modulus (GPa) = 54.40301 23.48728 38.94515
#
# Velocity S-wave (km/s) = 4.76093 3.12822 4.02816
# Velocity P-wave (km/s) = 6.82337 6.05351 6.44993
#
# Compressibility (1/GPa) = 0.02550377
#
# Stress axis : x y z
#
# Youngs Moduli (GPa) = 79.19126 64.72751 98.00443
#
# Poissons Ratio (x) = 0.30797 0.05460
# Poissons Ratio (y) = 0.37679 0.10520
# Poissons Ratio (z) = 0.04412 0.06948
#
# Static dielectric constant tensor:
#      x y z
#    x 2.113430 0.000000 0.046650 
#    y 0.000000 1.882180 0.000000 
#    z 0.046650 0.000000 2.011890 
# 
# From -- ./inp_files/247856.got.cif
#   From: 2010.05.17/outbox.cif.g08.bks.cpg/sg15_124_cif.got.tgz:247856.got - 2010.06.03 18:47:42.
