data_PCOD9288080
_publ_section_title
;
Structure prediction by ZEFSAII (Michael W. Deem and Ramdas Pophale) SiO2 
 PCOD9288080
Probable space group: C 2/C
;
_chemical_formula_sum "Si O2"
_cell_formula_units_Z 48
_cell_length_a 17.145522
_cell_length_b 14.178290
_cell_length_c 17.527121
_cell_angle_alpha 90.000000
_cell_angle_beta 146.067209
_cell_angle_gamma 90.000000
_cell_volume 2378.431113
_symmetry_space_group_name_H-M "C 2/C"
_symmetry_group_IT_number 15
_symmetry_cell_setting 'monoclinic'
loop_
_space_group_symop_operation_xyz
x,y,z
-x,y,1/2-z
-x,-y,-z
x,-y,1/2+z
1/2+x,1/2+y,z
1/2-x,1/2+y,1/2-z
1/2-x,1/2-y,-z
1/2+x,1/2-y,1/2+z
loop_
_atom_site_type_symbol
_atom_site_label
_atom_site_fract_x
_atom_site_fract_y
_atom_site_fract_z
Si Si1 0.010756 0.831160 0.848389
Si Si2 0.357057 0.995578 0.933260
Si Si3 0.673086 0.187535 0.503510
Si Si4 0.437684 0.518937 0.866855
Si Si5 0.107354 0.229636 0.696546
Si Si6 0.797715 0.284202 0.892463
O O1 0.866915 0.782243 0.759528
O O2 0.000000 0.820092 0.750000
O O3 0.000328 0.940693 0.861995
O O4 0.144784 0.785977 0.996965
O O5 0.326725 0.074881 0.973987
O O6 0.229652 0.006658 0.769896
O O7 0.338446 0.890178 0.950116
O O8 0.500000 0.000000 0.000000
O O9 0.750000 0.250000 0.500000
O O10 0.747400 0.228757 0.640263
O O11 0.509575 0.206088 0.361084
O O12 0.458697 0.625019 0.856407
O O13 0.500000 0.500000 0.000000
O O14 0.127126 0.259714 0.625637
#
# Coordination Sequence:
#
# PCOD9288080 Si02
#       6
#     8   8   8   8   8   8
#     4  11  24  41  62  94 130 164 211 272 332 382
#     4  10  22  39  64  92 127 165 217 268 318 391
#     4  11  24  41  62  95 134 171 215 276 332 384
#     4  10  22  38  63  92 121 167 217 267 318 389
#     4  11  22  39  66  91 125 173 223 265 324 396
#     4  11  22  40  67  90 126 170 217 267 321 393
#
# _framework density 20.181370999999999
#
# number of rings (size 3 to 8) (size 9 to 14) (size 15 to 20)
#    0.000    1.333    3.333    2.000    4.667    4.000 
#    0.000    1.667    0.000    0.000    0.000    0.000 
#    0.000    0.000    0.000    0.000    0.000    0.000 
#
# Total GULP energy -133761.154685 kJ/mol
# GULP energy per Si atom -5573.381445 kJ/mol
# Density = 2.013544 g / cm^3
# Si number density = 20.181371 Si / 1000 Ang^3
#
#
#
# Elastic Constant Matrix: (Units=GPa)
#
#
# Indices 1 2 3 4 5 6 
#
# 1 54.3215 16.8410 -5.4515 -0.0001 -20.0622 0.0000
# 2 16.8410 104.5678 27.9109 -0.0001 -4.1910 -0.0001
# 3 -5.4515 27.9109 47.4861 -0.0002 -3.8532 -0.0001
# 4 -0.0001 -0.0001 -0.0002 31.5601 -0.0001 -4.5461
# 5 -20.0622 -4.1910 -3.8532 -0.0001 25.4439 0.0000
# 6 0.0000 -0.0001 -0.0001 -4.5461 0.0000 27.1446
#
#
#
# Elastic Compliance Matrix: (Units=1/GPa)
#
#
# Indices 1 2 3 4 5 6 
#
# 1 0.030222 -0.006343 0.009159 0.000000 0.024172 0.000000
# 2 -0.006343 0.012693 -0.008530 0.000000 -0.004203 0.000000
# 3 0.009159 -0.008530 0.027939 0.000000 0.010048 0.000000
# 4 0.000000 0.000000 0.000000 0.032469 0.000000 0.005438
# 5 0.024172 -0.004203 0.010048 0.000000 0.059191 0.000000
# 6 0.000000 0.000000 0.000000 0.005438 0.000000 0.037750
#
#
# Mechanical properties :
#
#
# Convention : Reuss Voigt Hill
#
# Bulk Modulus (GPa) = 16.82742 31.66400 24.24571
# Shear Modulus (GPa) = 21.59814 27.96804 24.78309
#
# Velocity S-wave (km/s) = 3.27494 3.72672 3.50811
# Velocity P-wave (km/s) = 4.75989 5.85164 5.33377
#
# Compressibility (1/GPa) = 0.05942681
#
# Stress axis : x y z
#
# Youngs Moduli (GPa) = 33.08848 78.78278 35.79183
#
# Poissons Ratio (x) = 0.49975 -0.32783
# Poissons Ratio (y) = 0.20989 0.30530
# Poissons Ratio (z) = -0.30307 0.67201
#
# Static dielectric constant tensor:
#      x y z
#    x 1.757400 0.000000 0.032050 
#    y 0.000000 1.797850 0.000000 
#    z 0.032050 0.000000 1.698200 
# 
# From -- ./inp_files/211447.got.cif
#   From: 2010.05.17/outbox.cif.g08.bks.cpg/sg15_106_cif.got.tgz:211447.got - 2010.06.03 18:47:42.
