data_PCOD9288144
_publ_section_title
;
Structure prediction by ZEFSAII (Michael W. Deem and Ramdas Pophale) SiO2 
 PCOD9288144
Probable space group: C 2/C
;
_chemical_formula_sum "Si O2"
_cell_formula_units_Z 32
_cell_length_a 20.603974
_cell_length_b 5.373081
_cell_length_c 17.327394
_cell_angle_alpha 90.000000
_cell_angle_beta 137.176748
_cell_angle_gamma 90.000000
_cell_volume 1303.916642
_symmetry_space_group_name_H-M "C 2/C"
_symmetry_group_IT_number 15
_symmetry_cell_setting 'monoclinic'
loop_
_space_group_symop_operation_xyz
x,y,z
-x,y,1/2-z
-x,-y,-z
x,-y,1/2+z
1/2+x,1/2+y,z
1/2-x,1/2+y,1/2-z
1/2-x,1/2-y,-z
1/2+x,1/2-y,1/2+z
loop_
_atom_site_type_symbol
_atom_site_label
_atom_site_fract_x
_atom_site_fract_y
_atom_site_fract_z
Si Si1 0.771017 0.998487 0.468549
Si Si2 0.511544 0.367185 0.849439
Si Si3 0.638995 0.935553 0.203637
Si Si4 0.598083 0.436023 0.127432
O O1 0.750000 0.250000 0.500000
O O2 0.750000 0.750000 0.500000
O O3 0.882617 0.967053 0.543074
O O4 0.705908 0.982717 0.335343
O O5 0.500000 0.316025 0.750000
O O6 0.468375 0.131141 0.858105
O O7 0.433592 0.570309 0.809567
O O8 0.663503 0.678219 0.180783
O O9 0.633778 0.165076 0.141380
O O10 0.500000 0.500000 0.000000
#
# Coordination Sequence:
#
# PCOD9288144 Si02
#       4
#     8   8   8   8
#     4  12  23  38  61  97 133 162 208 266 324 377
#     4  10  22  38  64  92 126 164 210 259 323 366
#     4  10  22  39  62  89 128 161 216 251 318 373
#     4  10  22  42  64  88 126 170 208 259 315 381
#
# _framework density 24.541447999999999
#
# number of rings (size 3 to 8) (size 9 to 14) (size 15 to 20)
#    1.500    0.000    2.500    3.750    3.500    1.000 
#    0.000    2.500    0.000    0.000    0.000    0.000 
#    0.000    0.000    0.000    0.000    0.000    0.000 
#
# Total GULP energy -89261.442580 kJ/mol
# GULP energy per Si atom -5578.840161 kJ/mol
# Density = 2.448559 g / cm^3
# Si number density = 24.541448 Si / 1000 Ang^3
#
#
#
# Elastic Constant Matrix: (Units=GPa)
#
#
# Indices 1 2 3 4 5 6 
#
# 1 81.0382 26.2914 7.2897 0.0000 25.4665 -0.0001
# 2 26.2914 210.7482 83.0000 0.0003 8.8214 0.0016
# 3 7.2897 83.0000 164.6172 -0.0001 13.3829 -0.0002
# 4 0.0000 0.0003 -0.0001 36.7707 -0.0002 -13.6534
# 5 25.4665 8.8214 13.3829 -0.0002 48.2365 -0.0001
# 6 -0.0001 0.0016 -0.0002 -13.6534 -0.0001 -3.8482
#
#
#
# Elastic Compliance Matrix: (Units=1/GPa)
#
#
# Indices 1 2 3 4 5 6 
#
# 1 0.015420 -0.001966 0.000963 0.000000 -0.008049 0.000000
# 2 -0.001966 0.006175 -0.003088 0.000000 0.000766 0.000001
# 3 0.000963 -0.003088 0.007760 0.000000 -0.002096 -0.000001
# 4 0.000000 0.000000 0.000000 0.011735 0.000000 -0.041637
# 5 -0.008049 0.000766 -0.002096 0.000000 0.025422 0.000000
# 6 0.000000 0.000001 -0.000001 -0.041637 0.000000 -0.112134
#
#
# Mechanical properties :
#
#
# Convention : Reuss Voigt Hill
#
# Bulk Modulus (GPa) = 47.23358 76.61841 61.92599
# Shear Modulus (GPa) = -164.57394 38.88661 -62.84367
#
# Velocity S-wave (km/s) = -8.19788 3.98493 -5.06584
# Velocity P-wave (km/s) = 8.38562 7.24297 2.98814
#
# Compressibility (1/GPa) = 0.02117138
#
# Stress axis : x y z
#
# Youngs Moduli (GPa) = 64.84889 161.95563 128.87164
#
# Poissons Ratio (x) = 0.31841 -0.12407
# Poissons Ratio (y) = 0.12749 0.39800
# Poissons Ratio (z) = -0.06243 0.50018
#
# Static dielectric constant tensor:
#      x y z
#    x 2.095910 0.000010 -0.085700 
#    y 0.000010 2.078520 0.000000 
#    z -0.085700 0.000000 1.996260 
# 
# From -- ./inp_files/175201.got.cif
#   From: 2010.05.17/outbox.cif.g08.bks.cpg/sg15_88_cif.got.tgz:175201.got - 2010.06.03 18:47:42.
