data_PCOD9288517
_publ_section_title
;
Structure prediction by ZEFSAII (Michael W. Deem and Ramdas Pophale) SiO2 
 PCOD9288517
Probable space group: C 2/C
;
_chemical_formula_sum "Si O2"
_cell_formula_units_Z 48
_cell_length_a 37.280214
_cell_length_b 11.183070
_cell_length_c 18.897833
_cell_angle_alpha 90.000000
_cell_angle_beta 164.296269
_cell_angle_gamma 90.000000
_cell_volume 2132.458329
_symmetry_space_group_name_H-M "C 2/C"
_symmetry_group_IT_number 15
_symmetry_cell_setting 'monoclinic'
loop_
_space_group_symop_operation_xyz
x,y,z
-x,y,1/2-z
-x,-y,-z
x,-y,1/2+z
1/2+x,1/2+y,z
1/2-x,1/2+y,1/2-z
1/2-x,1/2-y,-z
1/2+x,1/2-y,1/2+z
loop_
_atom_site_type_symbol
_atom_site_label
_atom_site_fract_x
_atom_site_fract_y
_atom_site_fract_z
Si Si1 0.905272 0.712514 0.742021
Si Si2 0.050160 0.423373 0.921544
Si Si3 0.635767 0.388507 0.711342
Si Si4 0.524044 0.335527 0.223374
Si Si5 0.178645 0.638320 0.234007
Si Si6 0.341765 0.043656 0.150942
O O1 0.766755 0.691573 0.437660
O O2 0.905849 0.823904 0.795215
O O3 0.893992 0.591094 0.769633
O O4 0.039681 0.703556 0.952937
O O5 0.068246 0.282494 0.944983
O O6 0.937366 0.423441 0.768334
O O7 0.000000 0.470395 0.750000
O O8 0.164004 0.508657 0.168438
O O9 0.525173 0.393743 0.442274
O O10 0.696966 0.517186 0.844509
O O11 0.500000 0.407324 0.250000
O O12 0.679921 0.307467 0.514765
O O13 0.171047 0.622897 0.304606
#
# Coordination Sequence:
#
# PCOD9288517 Si02
#       6
#     8   8   8   8   8   8
#     4   8  17  33  59  88 115 152 189 248 302 351
#     4  10  22  39  61  85 122 161 197 243 300 368
#     4   9  18  34  57  86 125 146 188 259 297 347
#     4  11  25  39  57  87 122 158 200 252 306 360
#     4  11  21  37  65  86 113 161 208 244 297 371
#     4   9  18  33  61  89 111 154 200 242 299 350
#
# _framework density 22.509232000000001
#
# number of rings (size 3 to 8) (size 9 to 14) (size 15 to 20)
#    1.000    1.333    0.000    4.000    2.333    3.333 
#    0.000    0.000    0.000    0.000    0.000    0.000 
#    0.000    0.000    0.000    0.000    0.000    0.000 
#
# Total GULP energy -133630.404826 kJ/mol
# GULP energy per Si atom -5567.933534 kJ/mol
# Density = 2.245800 g / cm^3
# Si number density = 22.509232 Si / 1000 Ang^3
#
#
#
# Elastic Constant Matrix: (Units=GPa)
#
#
# Indices 1 2 3 4 5 6 
#
# 1 91.4406 -0.3790 32.4895 0.0000 -5.4115 0.0000
# 2 -0.3790 14.7143 10.8227 0.0000 -5.7673 0.0000
# 3 32.4895 10.8227 113.1235 0.0000 14.7611 0.0000
# 4 0.0000 0.0000 0.0000 19.5803 0.0000 3.4325
# 5 -5.4115 -5.7673 14.7611 0.0000 29.7068 0.0000
# 6 0.0000 0.0000 0.0000 3.4325 0.0000 14.0373
#
#
#
# Elastic Compliance Matrix: (Units=1/GPa)
#
#
# Indices 1 2 3 4 5 6 
#
# 1 0.013205 0.006680 -0.005255 0.000000 0.006314 0.000000
# 2 0.006680 0.087957 -0.013603 0.000000 0.025052 0.000000
# 3 -0.005255 -0.013603 0.012960 0.000000 -0.010038 0.000000
# 4 0.000000 0.000000 0.000000 0.053359 0.000000 -0.013048
# 5 0.006314 0.025052 -0.010038 0.000000 0.044664 0.000000
# 6 0.000000 0.000000 0.000000 -0.013048 0.000000 0.074429
#
#
# Mechanical properties :
#
#
# Convention : Reuss Voigt Hill
#
# Bulk Modulus (GPa) = 11.13995 33.90499 22.52247
# Shear Modulus (GPa) = 14.66910 24.42122 19.54516
#
# Velocity S-wave (km/s) = 2.55560 3.29742 2.94992
# Velocity P-wave (km/s) = 3.69701 5.43992 4.65084
#
# Compressibility (1/GPa) = 0.08976703
#
# Stress axis : x y z
#
# Youngs Moduli (GPa) = 75.73078 11.36916 77.15771
#
# Poissons Ratio (x) = -0.07595 0.40549
# Poissons Ratio (y) = -0.50590 1.04954
# Poissons Ratio (z) = 0.39799 0.15465
#
# Static dielectric constant tensor:
#      x y z
#    x 1.868050 0.000000 -0.025450 
#    y 0.000000 1.911330 0.000000 
#    z -0.025450 0.000000 1.947840 
# 
# From -- ./inp_files/182498.got.cif
#   From: 2010.05.17/outbox.cif.g08.bks.cpg/sg15_92_cif.got.tgz:182498.got - 2010.06.03 18:47:42.
