data_PCOD9288004
_publ_section_title
;
Structure prediction by ZEFSAII (Michael W. Deem and Ramdas Pophale) SiO2 
 PCOD9288004
Probable space group: C 2/C
;
_chemical_formula_sum "Si O2"
_cell_formula_units_Z 32
_cell_length_a 12.875768
_cell_length_b 13.472568
_cell_length_c 7.390687
_cell_angle_alpha 90.000000
_cell_angle_beta 60.169034
_cell_angle_gamma 90.000000
_cell_volume 1112.182827
_symmetry_space_group_name_H-M "C 2/C"
_symmetry_group_IT_number 15
_symmetry_cell_setting 'monoclinic'
loop_
_space_group_symop_operation_xyz
x,y,z
-x,y,1/2-z
-x,-y,-z
x,-y,1/2+z
1/2+x,1/2+y,z
1/2-x,1/2+y,1/2-z
1/2-x,1/2-y,-z
1/2+x,1/2-y,1/2+z
loop_
_atom_site_type_symbol
_atom_site_label
_atom_site_fract_x
_atom_site_fract_y
_atom_site_fract_z
Si Si1 0.944250 0.674537 0.491077
Si Si2 0.954392 0.130333 0.579951
Si Si3 0.705992 0.365045 0.807313
Si Si4 0.210225 0.446002 0.131116
O O1 0.831138 0.754493 0.597086
O O2 0.905006 0.586807 0.655539
O O3 0.000000 0.645177 0.250000
O O4 0.045181 0.752678 0.470346
O O5 0.828321 0.088388 0.637225
O O6 0.000000 0.124207 0.750000
O O7 0.072210 0.092026 0.374568
O O8 0.781054 0.388633 0.564194
O O9 0.767900 0.435717 0.902251
#
# Coordination Sequence:
#
# PCOD9288004 Si02
#       4
#     8   8   8   8
#     4   9  23  41  62  94 123 161 210 248 308 369
#     4   9  20  37  60  95 118 151 210 248 303 352
#     4  10  22  38  61  98 118 160 210 249 307 363
#     4  12  21  40  68  87 130 162 199 264 303 359
#
# _framework density 28.772248000000001
#
# number of rings (size 3 to 8) (size 9 to 14) (size 15 to 20)
#    1.500    0.500    0.000    3.750    0.000    4.000 
#    0.000    1.250    0.000    0.000    0.000    0.000 
#    0.000    0.000    0.000    0.000    0.000    0.000 
#
# Total GULP energy -89429.617825 kJ/mol
# GULP energy per Si atom -5589.351114 kJ/mol
# Density = 2.870676 g / cm^3
# Si number density = 28.772248 Si / 1000 Ang^3
#
#
#
# Elastic Constant Matrix: (Units=GPa)
#
#
# Indices 1 2 3 4 5 6 
#
# 1 90.6820 48.3036 23.9891 0.0000 -3.7630 0.0000
# 2 48.3036 127.7625 59.4686 0.0000 -7.5074 0.0000
# 3 23.9891 59.4686 230.8241 0.0000 6.1104 0.0000
# 4 0.0000 0.0000 0.0000 38.8397 0.0000 -2.7203
# 5 -3.7630 -7.5074 6.1104 0.0000 28.0898 0.0000
# 6 0.0000 0.0000 0.0000 -2.7203 0.0000 35.8951
#
#
#
# Elastic Compliance Matrix: (Units=1/GPa)
#
#
# Indices 1 2 3 4 5 6 
#
# 1 0.013817 -0.005135 -0.000126 0.000000 0.000506 0.000000
# 2 -0.005135 0.011042 -0.002385 0.000000 0.002782 0.000000
# 3 -0.000126 -0.002385 0.005006 0.000000 -0.001743 0.000000
# 4 0.000000 0.000000 0.000000 0.025884 0.000000 0.001962
# 5 0.000506 0.002782 -0.001743 0.000000 0.036791 0.000000
# 6 0.000000 0.000000 0.000000 0.001962 0.000000 0.028008
#
#
# Mechanical properties :
#
#
# Convention : Reuss Voigt Hill
#
# Bulk Modulus (GPa) = 68.62288 79.19903 73.91096
# Shear Modulus (GPa) = 35.53693 41.73207 38.63450
#
# Velocity S-wave (km/s) = 3.51823 3.81258 3.66836
# Velocity P-wave (km/s) = 6.35658 6.85324 6.60958
#
# Compressibility (1/GPa) = 0.01457240
#
# Stress axis : x y z
#
# Youngs Moduli (GPa) = 72.37206 90.56254 199.76103
#
# Poissons Ratio (x) = 0.46508 0.02524
# Poissons Ratio (y) = 0.37167 0.47638
# Poissons Ratio (z) = 0.00914 0.21597
#
# Static dielectric constant tensor:
#      x y z
#    x 2.223250 0.000000 0.033170 
#    y 0.000000 2.339990 0.000000 
#    z 0.033170 0.000000 2.276660 
# 
# From -- ./inp_files/38463.got.cif
#   From: 2010.05.17/outbox.cif.g08.bks.cpg/sg15_20_cif.got.tgz:38463.got - 2010.06.03 18:47:42.
