data_PCOD9288455
_publ_section_title
;
Structure prediction by ZEFSAII (Michael W. Deem and Ramdas Pophale) SiO2 
 PCOD9288455
Probable space group: C 2/C
;
_chemical_formula_sum "Si O2"
_cell_formula_units_Z 40
_cell_length_a 27.232295
_cell_length_b 9.286489
_cell_length_c 23.183549
_cell_angle_alpha 90.000000
_cell_angle_beta 21.683781
_cell_angle_gamma 90.000000
_cell_volume 2166.262235
_symmetry_space_group_name_H-M "C 2/C"
_symmetry_group_IT_number 15
_symmetry_cell_setting 'monoclinic'
loop_
_space_group_symop_operation_xyz
x,y,z
-x,y,1/2-z
-x,-y,-z
x,-y,1/2+z
1/2+x,1/2+y,z
1/2-x,1/2+y,1/2-z
1/2-x,1/2-y,-z
1/2+x,1/2-y,1/2+z
loop_
_atom_site_type_symbol
_atom_site_label
_atom_site_fract_x
_atom_site_fract_y
_atom_site_fract_z
Si Si1 0.014021 0.959901 0.552263
Si Si2 0.462488 0.100559 0.356241
Si Si3 0.693188 0.067196 0.265740
Si Si4 0.834118 0.803948 0.297210
Si Si5 0.967717 0.378979 0.452394
O O1 0.011902 0.791131 0.568201
O O2 0.159024 0.020235 0.409439
O O3 0.000000 0.000000 0.500000
O O4 0.904262 0.044781 0.708434
O O5 0.500000 0.065461 0.250000
O O6 0.317002 0.173878 0.517982
O O7 0.573779 0.208490 0.261114
O O8 0.459000 0.959830 0.401088
O O9 0.665915 0.217055 0.263243
O O10 0.661871 0.084453 0.367436
O O11 0.590855 0.951329 0.351859
#
# Coordination Sequence:
#
# PCOD9288455 Si02
#       5
#     8   8   8   8   8
#     4  12  23  35  64  95 129 160 202 261 329 381
#     4  11  24  45  66  91 128 173 215 254 305 377
#     4  10  22  39  59  95 130 158 206 263 321 378
#     4  11  22  42  67  94 124 166 212 263 312 374
#     4  10  24  38  62  92 130 167 204 260 321 375
#
# _framework density 18.464986
#
# number of rings (size 3 to 8) (size 9 to 14) (size 15 to 20)
#    0.000    1.200    4.000    1.800    5.600    0.000 
#    0.000    2.000    0.000    0.000    0.000    0.000 
#    0.000    0.000    0.000    0.000    0.000    0.000 
#
# Total GULP energy -111754.333050 kJ/mol
# GULP energy per Si atom -5587.716652 kJ/mol
# Density = 1.842296 g / cm^3
# Si number density = 18.464986 Si / 1000 Ang^3
#
#
#
# Elastic Constant Matrix: (Units=GPa)
#
#
# Indices 1 2 3 4 5 6 
#
# 1 97.8510 51.4442 63.4443 0.0000 22.8210 0.0000
# 2 51.4442 146.8879 50.0883 -0.0002 5.6766 0.0001
# 3 63.4443 50.0883 95.3979 -0.0002 -2.6617 0.0001
# 4 0.0000 -0.0002 -0.0002 22.1465 0.0001 1.4159
# 5 22.8210 5.6766 -2.6617 0.0001 40.3901 0.0000
# 6 0.0000 0.0001 0.0001 1.4159 0.0000 7.6145
#
#
#
# Elastic Compliance Matrix: (Units=1/GPa)
#
#
# Indices 1 2 3 4 5 6 
#
# 1 0.025603 -0.002964 -0.015892 0.000000 -0.015097 0.000000
# 2 -0.002964 0.008722 -0.002600 0.000000 0.000278 0.000000
# 3 -0.015892 -0.002600 0.022719 0.000000 0.010842 0.000000
# 4 0.000000 0.000000 0.000000 0.045697 0.000000 -0.008498
# 5 -0.015097 0.000278 0.010842 0.000000 0.033964 0.000000
# 6 0.000000 0.000000 0.000000 -0.008498 0.000000 0.132909
#
#
# Mechanical properties :
#
#
# Convention : Reuss Voigt Hill
#
# Bulk Modulus (GPa) = 70.76708 74.45448 72.61078
# Shear Modulus (GPa) = 15.76102 25.70755 20.73429
#
# Velocity S-wave (km/s) = 2.92475 3.73531 3.35460
# Velocity P-wave (km/s) = 7.05789 7.68199 7.37654
#
# Compressibility (1/GPa) = 0.01413087
#
# Stress axis : x y z
#
# Youngs Moduli (GPa) = 39.05786 114.65167 44.01558
#
# Poissons Ratio (x) = 0.33986 0.69950
# Poissons Ratio (y) = 0.11578 0.11445
# Poissons Ratio (z) = 0.62071 0.29813
#
# Static dielectric constant tensor:
#      x y z
#    x 1.633500 0.000000 -0.019730 
#    y 0.000000 1.629560 0.000000 
#    z -0.019730 0.000000 1.632640 
# 
# From -- ./inp_files/64542.got.cif
#   From: 2010.05.17/outbox.cif.g08.bks.cpg/sg15_33_cif.got.tgz:64542.got - 2010.06.03 18:47:42.
