data_PCOD9288088
_publ_section_title
;
Structure prediction by ZEFSAII (Michael W. Deem and Ramdas Pophale) SiO2 
 PCOD9288088
Probable space group: C 2/C
;
_chemical_formula_sum "Si O2"
_cell_formula_units_Z 60
_cell_length_a 24.483095
_cell_length_b 7.832715
_cell_length_c 23.084085
_cell_angle_alpha 90.000000
_cell_angle_beta 141.613028
_cell_angle_gamma 90.000000
_cell_volume 2748.916977
_symmetry_space_group_name_H-M "C 2/C"
_symmetry_group_IT_number 15
_symmetry_cell_setting 'monoclinic'
loop_
_space_group_symop_operation_xyz
x,y,z
-x,y,1/2-z
-x,-y,-z
x,-y,1/2+z
1/2+x,1/2+y,z
1/2-x,1/2+y,1/2-z
1/2-x,1/2-y,-z
1/2+x,1/2-y,1/2+z
loop_
_atom_site_type_symbol
_atom_site_label
_atom_site_fract_x
_atom_site_fract_y
_atom_site_fract_z
Si Si1 0.575446 0.678733 0.419391
Si Si2 0.742488 0.379277 0.111027
Si Si3 0.000000 0.636666 0.750000
Si Si4 0.389346 0.701160 0.308627
Si Si5 0.142195 0.627455 0.361430
Si Si6 0.195821 0.184374 0.139619
Si Si7 0.084889 0.765780 0.437475
Si Si8 0.613535 0.307234 0.227436
O O1 0.669617 0.739136 0.521045
O O2 0.554593 0.747647 0.338749
O O3 0.492212 0.744270 0.387177
O O4 0.579539 0.471983 0.422867
O O5 0.825261 0.287828 0.208455
O O6 0.772285 0.521901 0.087949
O O7 0.693101 0.483329 0.121195
O O8 0.067642 0.504388 0.778790
O O9 0.351156 0.731820 0.340343
O O10 0.386768 0.499833 0.293720
O O11 0.124863 0.675680 0.413445
O O12 0.130320 0.791162 0.310600
O O13 0.299988 0.221349 0.227806
O O14 0.145382 0.270089 0.043480
O O15 0.981912 0.723900 0.363528
#
# Coordination Sequence:
#
# PCOD9288088 Si02
#       8
#     8   8   4   8   8   8   8   8
#     4  10  25  39  64  95 128 169 209 257 322 376
#     4  10  23  43  63  95 128 171 208 264 317 369
#     4  12  22  40  64  94 130 162 198 262 322 378
#     4  11  22  42  64  93 129 167 217 261 312 373
#     4  11  22  41  66  93 131 162 207 261 318 377
#     4  10  23  40  64  93 127 169 215 262 310 376
#     4  10  22  41  64  96 128 169 210 256 317 380
#     4  10  22  38  63  93 122 171 210 261 314 372
#
# _framework density 21.826778000000001
#
# number of rings (size 3 to 8) (size 9 to 14) (size 15 to 20)
#    0.000    1.600    2.667    0.800    3.733   12.267 
#    0.000    0.000    0.000    4.800    0.000    0.000 
#    0.000    0.000    0.000    0.000    0.000    0.000 
#
# Total GULP energy -167375.852208 kJ/mol
# GULP energy per Si atom -5579.195074 kJ/mol
# Density = 2.177710 g / cm^3
# Si number density = 21.826778 Si / 1000 Ang^3
#
#
#
# Elastic Constant Matrix: (Units=GPa)
#
#
# Indices 1 2 3 4 5 6 
#
# 1 111.3034 16.2559 72.1445 0.0000 2.7395 0.0000
# 2 16.2559 29.9931 24.5035 0.0002 -7.5791 0.0003
# 3 72.1445 24.5035 127.6152 0.0000 14.9483 0.0000
# 4 0.0000 0.0002 0.0000 25.2723 0.0000 1.6228
# 5 2.7395 -7.5791 14.9483 0.0000 32.5759 0.0000
# 6 0.0000 0.0003 0.0000 1.6228 0.0000 12.9258
#
#
#
# Elastic Compliance Matrix: (Units=1/GPa)
#
#
# Indices 1 2 3 4 5 6 
#
# 1 0.014399 -0.000309 -0.008381 0.000000 0.002563 0.000000
# 2 -0.000309 0.045992 -0.010476 0.000000 0.015534 -0.000001
# 3 -0.008381 -0.010476 0.015628 0.000000 -0.008904 0.000000
# 4 0.000000 0.000000 0.000000 0.039891 0.000000 -0.005008
# 5 0.002563 0.015534 -0.008904 0.000000 0.038182 0.000000
# 6 0.000000 -0.000001 0.000000 -0.005008 0.000000 0.077993
#
#
# Mechanical properties :
#
#
# Convention : Reuss Voigt Hill
#
# Bulk Modulus (GPa) = 26.53388 54.96884 40.75136
# Shear Modulus (GPa) = 17.66912 24.55533 21.11222
#
# Velocity S-wave (km/s) = 2.84829 3.35775 3.11346
# Velocity P-wave (km/s) = 4.79582 6.34598 5.62456
#
# Compressibility (1/GPa) = 0.03768767
#
# Stress axis : x y z
#
# Youngs Moduli (GPa) = 69.44987 21.74279 63.98603
#
# Poissons Ratio (x) = 0.00673 0.53626
# Poissons Ratio (y) = 0.02149 0.67029
# Poissons Ratio (z) = 0.58205 0.22777
#
# Static dielectric constant tensor:
#      x y z
#    x 1.859250 0.000000 0.061830 
#    y 0.000000 1.818240 0.000000 
#    z 0.061830 0.000000 1.841930 
# 
# From -- ./inp_files/255212.got.cif
#   From: 2010.05.17/outbox.cif.g08.bks.cpg/sg15_128_cif.got.tgz:255212.got - 2010.06.03 18:47:42.
