data_PCOD9288804
_publ_section_title
;
Structure prediction by ZEFSAII (Michael W. Deem and Ramdas Pophale) SiO2 
 PCOD9288804
Probable space group: C 2/C
;
_chemical_formula_sum "Si O2"
_cell_formula_units_Z 40
_cell_length_a 29.283024
_cell_length_b 8.698234
_cell_length_c 13.594659
_cell_angle_alpha 90.000000
_cell_angle_beta 29.199061
_cell_angle_gamma 90.000000
_cell_volume 1689.263901
_symmetry_space_group_name_H-M "C 2/C"
_symmetry_group_IT_number 15
_symmetry_cell_setting 'monoclinic'
loop_
_space_group_symop_operation_xyz
x,y,z
-x,y,1/2-z
-x,-y,-z
x,-y,1/2+z
1/2+x,1/2+y,z
1/2-x,1/2+y,1/2-z
1/2-x,1/2-y,-z
1/2+x,1/2-y,1/2+z
loop_
_atom_site_type_symbol
_atom_site_label
_atom_site_fract_x
_atom_site_fract_y
_atom_site_fract_z
Si Si1 0.063222 0.863492 0.040832
Si Si2 0.425039 0.887351 0.734529
Si Si3 0.291715 0.913921 0.387016
Si Si4 0.145719 0.876713 0.276175
Si Si5 0.711862 0.834615 0.327784
O O1 0.000000 0.916608 0.250000
O O2 0.020355 0.698693 0.088741
O O3 0.168991 0.829950 0.876273
O O4 0.070359 0.994608 0.946964
O O5 0.390352 0.763432 0.719586
O O6 0.395421 0.046954 0.736677
O O7 0.364092 0.893119 0.949614
O O8 0.250000 0.750000 0.500000
O O9 0.284057 0.921540 0.283654
O O10 0.223450 0.039429 0.563511
O O11 0.193214 0.823511 0.289078
#
# Coordination Sequence:
#
# PCOD9288804 Si02
#       5
#     8   8   8   8   8
#     4  10  22  42  65  97 137 176 219 284 346 400
#     4  10  24  40  66  95 135 177 216 282 342 397
#     4  11  22  38  65  98 130 178 228 272 330 412
#     4  11  23  40  68  98 128 178 229 275 338 413
#     4  10  22  39  65  93 133 172 225 272 334 404
#
# _framework density 23.678954000000001
#
# number of rings (size 3 to 8) (size 9 to 14) (size 15 to 20)
#    0.000    1.600    2.000    3.000    8.400    0.800 
#    0.000    0.000    0.000    1.200    0.000    0.000 
#    0.000    0.000    0.000    0.000    0.000    0.000 
#
# Total GULP energy -111619.603588 kJ/mol
# GULP energy per Si atom -5580.980179 kJ/mol
# Density = 2.362506 g / cm^3
# Si number density = 23.678954 Si / 1000 Ang^3
#
#
#
# Elastic Constant Matrix: (Units=GPa)
#
#
# Indices 1 2 3 4 5 6 
#
# 1 182.8740 46.6193 45.2369 0.0000 25.0727 0.0000
# 2 46.6193 77.4799 31.5193 0.0000 6.8049 0.0000
# 3 45.2369 31.5193 106.6063 0.0000 36.3084 0.0000
# 4 0.0000 0.0000 0.0000 25.0879 0.0000 4.1755
# 5 25.0727 6.8049 36.3084 0.0000 45.6643 0.0000
# 6 0.0000 0.0000 0.0000 4.1755 0.0000 49.5509
#
#
#
# Elastic Compliance Matrix: (Units=1/GPa)
#
#
# Indices 1 2 3 4 5 6 
#
# 1 0.006973 -0.003542 -0.001080 0.000000 -0.002442 0.000000
# 2 -0.003542 0.016571 -0.004413 0.000000 0.002984 0.000000
# 3 -0.001080 -0.004413 0.014697 0.000000 -0.010436 0.000000
# 4 0.000000 0.000000 0.000000 0.040427 0.000000 -0.003407
# 5 -0.002442 0.002984 -0.010436 0.000000 0.031093 0.000000
# 6 0.000000 0.000000 0.000000 -0.003407 0.000000 0.020468
#
#
# Mechanical properties :
#
#
# Convention : Reuss Voigt Hill
#
# Bulk Modulus (GPa) = 49.57301 68.19016 58.88159
# Shear Modulus (GPa) = 32.25342 40.29961 36.27652
#
# Velocity S-wave (km/s) = 3.69469 4.12990 3.91834
# Velocity P-wave (km/s) = 6.25954 7.18344 6.73735
#
# Compressibility (1/GPa) = 0.02017227
#
# Stress axis : x y z
#
# Youngs Moduli (GPa) = 143.40724 60.34736 68.03903
#
# Poissons Ratio (x) = 0.21374 0.07348
# Poissons Ratio (y) = 0.50793 0.30023
# Poissons Ratio (z) = 0.15488 0.26629
#
# Static dielectric constant tensor:
#      x y z
#    x 2.005120 0.000000 -0.080810 
#    y 0.000000 1.921320 0.000000 
#    z -0.080810 0.000000 1.935480 
# 
# From -- ./inp_files/125434.got.cif
#   From: 2010.05.17/outbox.cif.g08.bks.cpg/sg15_63_cif.got.tgz:125434.got - 2010.06.03 18:47:42.
