data_PCOD9288801
_publ_section_title
;
Structure prediction by ZEFSAII (Michael W. Deem and Ramdas Pophale) SiO2 
 PCOD9288801
Probable space group: C 2/C
;
_chemical_formula_sum "Si O2"
_cell_formula_units_Z 56
_cell_length_a 16.155132
_cell_length_b 12.474822
_cell_length_c 25.800515
_cell_angle_alpha 90.000000
_cell_angle_beta 154.472545
_cell_angle_gamma 90.000000
_cell_volume 2240.751143
_symmetry_space_group_name_H-M "C 2/C"
_symmetry_group_IT_number 15
_symmetry_cell_setting 'monoclinic'
loop_
_space_group_symop_operation_xyz
x,y,z
-x,y,1/2-z
-x,-y,-z
x,-y,1/2+z
1/2+x,1/2+y,z
1/2-x,1/2+y,1/2-z
1/2-x,1/2-y,-z
1/2+x,1/2-y,1/2+z
loop_
_atom_site_type_symbol
_atom_site_label
_atom_site_fract_x
_atom_site_fract_y
_atom_site_fract_z
Si Si1 0.168666 0.850948 0.231582
Si Si2 0.153023 0.657672 0.875062
Si Si3 0.780590 0.090221 0.563113
Si Si4 0.807943 0.287901 0.658598
Si Si5 0.854196 0.568781 0.344598
Si Si6 0.927607 0.116289 0.120299
Si Si7 0.898563 0.787807 0.418370
O O1 0.194282 0.749510 0.283334
O O2 0.206299 0.829554 0.192635
O O3 0.940341 0.877042 0.110354
O O4 0.314394 0.943616 0.333133
O O5 0.068321 0.768892 0.850012
O O6 0.317680 0.686485 0.927894
O O7 0.000000 0.603769 0.750000
O O8 0.255219 0.605072 0.981567
O O9 0.805953 0.180164 0.621546
O O10 0.551468 0.081396 0.422732
O O11 0.866926 0.974806 0.627167
O O12 0.607659 0.341032 0.533716
O O13 0.000000 0.346677 0.750000
O O14 0.630612 0.597761 0.206071
O O15 0.898543 0.658215 0.413177
#
# Coordination Sequence:
#
# PCOD9288801 Si02
#       7
#     8   8   8   8   8   8   8
#     4  10  23  41  63  94 133 162 215 268 310 382
#     4  11  24  39  64  94 127 167 207 267 327 385
#     4   9  21  39  64  91 124 164 212 265 315 370
#     4   9  21  38  63  93 121 168 212 265 319 368
#     4  10  22  39  65  93 124 169 210 259 319 371
#     4  10  23  41  63  95 129 161 213 268 321 378
#     4  11  24  39  64  98 127 167 213 261 323 385
#
# _framework density 24.991619
#
# number of rings (size 3 to 8) (size 9 to 14) (size 15 to 20)
#    0.000    2.000    1.429    0.000    8.000    6.857 
#    0.000    2.857    0.000    0.000    0.000    0.000 
#    0.000    0.000    0.000    0.000    0.000    0.000 
#
# Total GULP energy -156088.541200 kJ/mol
# GULP energy per Si atom -5574.590757 kJ/mol
# Density = 2.493474 g / cm^3
# Si number density = 24.991619 Si / 1000 Ang^3
#
#
#
# Elastic Constant Matrix: (Units=GPa)
#
#
# Indices 1 2 3 4 5 6 
#
# 1 67.3040 7.2431 13.4645 0.0010 11.7716 0.0001
# 2 7.2431 33.8756 8.6075 0.0016 8.2785 0.0000
# 3 13.4645 8.6075 122.2159 0.0068 15.1638 -0.0002
# 4 0.0010 0.0016 0.0068 2.8142 0.0002 9.7643
# 5 11.7716 8.2785 15.1638 0.0002 39.9566 -0.0001
# 6 0.0001 0.0000 -0.0002 9.7643 -0.0001 -0.6000
#
#
#
# Elastic Compliance Matrix: (Units=1/GPa)
#
#
# Indices 1 2 3 4 5 6 
#
# 1 0.015990 -0.002196 -0.001132 0.000000 -0.003826 0.000000
# 2 -0.002196 0.031646 -0.001316 0.000000 -0.005410 -0.000004
# 3 -0.001132 -0.001316 0.008736 0.000000 -0.002709 -0.000006
# 4 0.000000 0.000000 0.000000 0.006184 0.000000 0.100631
# 5 -0.003826 -0.005410 -0.002709 0.000000 0.028303 0.000003
# 6 0.000000 -0.000004 -0.000006 0.100631 0.000003 -0.029003
#
#
# Mechanical properties :
#
#
# Convention : Reuss Voigt Hill
#
# Bulk Modulus (GPa) = 21.23879 31.33619 26.28749
# Shear Modulus (GPa) = 57.57845 21.37285 39.47565
#
# Velocity S-wave (km/s) = 4.80511 2.92755 3.97867
# Velocity P-wave (km/s) = 6.26916 4.89830 5.62564
#
# Compressibility (1/GPa) = 0.04708367
#
# Stress axis : x y z
#
# Youngs Moduli (GPa) = 62.53905 31.59976 114.47191
#
# Poissons Ratio (x) = 0.06940 0.12961
# Poissons Ratio (y) = 0.13735 0.15059
# Poissons Ratio (z) = 0.07081 0.04157
#
# Static dielectric constant tensor:
#      x y z
#    x 1.928500 0.000000 0.047670 
#    y 0.000000 2.058140 0.000000 
#    z 0.047670 0.000000 2.062270 
# 
# From -- ./inp_files/296601.got.cif
#   From: 2010.05.17/outbox.cif.g08.bks.cpg/sg15_149_cif.got.tgz:296601.got - 2010.06.03 18:47:42.
