data_PCOD9288300
_publ_section_title
;
Structure prediction by ZEFSAII (Michael W. Deem and Ramdas Pophale) SiO2 
 PCOD9288300
Probable space group: C 2/C
;
_chemical_formula_sum "Si O2"
_cell_formula_units_Z 48
_cell_length_a 15.132361
_cell_length_b 15.736837
_cell_length_c 9.248513
_cell_angle_alpha 90.000000
_cell_angle_beta 120.200279
_cell_angle_gamma 90.000000
_cell_volume 1903.472784
_symmetry_space_group_name_H-M "C 2/C"
_symmetry_group_IT_number 15
_symmetry_cell_setting 'monoclinic'
loop_
_space_group_symop_operation_xyz
x,y,z
-x,y,1/2-z
-x,-y,-z
x,-y,1/2+z
1/2+x,1/2+y,z
1/2-x,1/2+y,1/2-z
1/2-x,1/2-y,-z
1/2+x,1/2-y,1/2+z
loop_
_atom_site_type_symbol
_atom_site_label
_atom_site_fract_x
_atom_site_fract_y
_atom_site_fract_z
Si Si1 0.658611 0.814120 0.946500
Si Si2 0.473290 0.241570 0.436887
Si Si3 0.577584 0.432352 0.130484
Si Si4 0.120224 0.918933 0.862374
Si Si5 0.836240 0.382079 0.968526
Si Si6 0.384658 0.024252 0.210843
O O1 0.588956 0.794799 0.750153
O O2 0.587615 0.794836 0.025273
O O3 0.684575 0.911909 0.943279
O O4 0.750000 0.750000 0.000000
O O5 0.475181 0.341368 0.403046
O O6 0.403221 0.203641 0.507029
O O7 0.616254 0.483990 0.299594
O O8 0.500000 0.500000 0.000000
O O9 0.651994 0.418222 0.056602
O O10 0.212743 0.872137 0.855831
O O11 0.000000 0.887208 0.750000
O O12 0.869877 0.446917 0.864912
O O13 0.861807 0.429832 0.138365
O O14 0.500000 0.040150 0.250000
#
# Coordination Sequence:
#
# PCOD9288300 Si02
#       6
#     8   8   8   8   8   8
#     4  10  22  38  67  97 130 176 228 277 333 404
#     4  10  23  42  63 100 135 172 227 287 330 408
#     4  10  23  41  68  90 135 177 224 282 340 391
#     4  10  23  41  65 100 130 183 226 278 338 408
#     4  11  23  42  70  98 139 180 229 280 343 412
#     4  11  22  43  68 100 135 179 228 279 341 410
#
# _framework density 25.217068000000001
#
# number of rings (size 3 to 8) (size 9 to 14) (size 15 to 20)
#    0.000    1.667    3.333    1.500    9.333    6.000 
#    0.000    2.500    0.000    0.000    0.000    0.000 
#    0.000    0.000    0.000    0.000    0.000    0.000 
#
# Total GULP energy -133841.527116 kJ/mol
# GULP energy per Si atom -5576.730297 kJ/mol
# Density = 2.515967 g / cm^3
# Si number density = 25.217068 Si / 1000 Ang^3
#
#
#
# Elastic Constant Matrix: (Units=GPa)
#
#
# Indices 1 2 3 4 5 6 
#
# 1 135.0293 -11.5986 18.3018 0.0000 16.5748 0.0000
# 2 -11.5986 97.4718 0.7339 0.0000 11.0937 0.0000
# 3 18.3018 0.7339 28.3200 0.0000 4.7918 0.0000
# 4 0.0000 0.0000 0.0000 23.5932 0.0000 2.6817
# 5 16.5748 11.0937 4.7918 0.0000 41.3757 0.0000
# 6 0.0000 0.0000 0.0000 2.6817 0.0000 31.5991
#
#
#
# Elastic Compliance Matrix: (Units=1/GPa)
#
#
# Indices 1 2 3 4 5 6 
#
# 1 0.008613 0.001433 -0.005053 0.000000 -0.003249 0.000000
# 2 0.001433 0.010822 -0.000631 0.000000 -0.003402 0.000000
# 3 -0.005053 -0.000631 0.038986 0.000000 -0.002322 0.000000
# 4 0.000000 0.000000 0.000000 0.042798 0.000000 -0.003632
# 5 -0.003249 -0.003402 -0.002322 0.000000 0.026651 0.000000
# 6 0.000000 0.000000 0.000000 -0.003632 0.000000 0.031955
#
#
# Mechanical properties :
#
#
# Convention : Reuss Voigt Hill
#
# Bulk Modulus (GPa) = 20.03302 30.63281 25.33291
# Shear Modulus (GPa) = 27.03204 36.20588 31.61896
#
# Velocity S-wave (km/s) = 3.27765 3.79326 3.54485
# Velocity P-wave (km/s) = 4.72075 5.59993 5.17903
#
# Compressibility (1/GPa) = 0.04991759
#
# Stress axis : x y z
#
# Youngs Moduli (GPa) = 116.10889 92.40557 25.65054
#
# Poissons Ratio (x) = -0.13239 0.12962
# Poissons Ratio (y) = -0.16635 0.01618
# Poissons Ratio (z) = 0.58673 0.05827
#
# Static dielectric constant tensor:
#      x y z
#    x 2.145860 0.000000 -0.036030 
#    y 0.000000 2.130720 0.000000 
#    z -0.036030 0.000000 2.077210 
# 
# From -- ./inp_files/97173.got.cif
#   From: 2010.05.17/outbox.cif.g08.bks.cpg/sg15_49_cif.got.tgz:97173.got - 2010.06.03 18:47:42.
