data_PCOD9288670
_publ_section_title
;
Structure prediction by ZEFSAII (Michael W. Deem and Ramdas Pophale) SiO2 
 PCOD9288670
Probable space group: C 2/C
;
_chemical_formula_sum "Si O2"
_cell_formula_units_Z 40
_cell_length_a 26.021904
_cell_length_b 8.342207
_cell_length_c 25.477525
_cell_angle_alpha 90.000000
_cell_angle_beta 159.088943
_cell_angle_gamma 90.000000
_cell_volume 1973.995035
_symmetry_space_group_name_H-M "C 2/C"
_symmetry_group_IT_number 15
_symmetry_cell_setting 'monoclinic'
loop_
_space_group_symop_operation_xyz
x,y,z
-x,y,1/2-z
-x,-y,-z
x,-y,1/2+z
1/2+x,1/2+y,z
1/2-x,1/2+y,1/2-z
1/2-x,1/2-y,-z
1/2+x,1/2-y,1/2+z
loop_
_atom_site_type_symbol
_atom_site_label
_atom_site_fract_x
_atom_site_fract_y
_atom_site_fract_z
Si Si1 0.780506 0.896322 0.402698
Si Si2 0.911314 0.626196 0.346528
Si Si3 0.578657 0.547229 0.704921
Si Si4 0.824570 0.399712 0.879347
Si Si5 0.856534 0.185692 0.145965
O O1 0.856401 0.741268 0.450377
O O2 0.660191 0.826911 0.327144
O O3 0.697332 0.994055 0.279373
O O4 0.911666 0.998106 0.551368
O O5 0.915343 0.769196 0.308115
O O6 0.850530 0.667941 0.346069
O O7 0.067530 0.547090 0.506124
O O8 0.662515 0.455568 0.737702
O O9 0.657305 0.478308 0.832583
O O10 0.000000 0.170644 0.250000
O O11 0.750000 0.250000 0.000000
#
# Coordination Sequence:
#
# PCOD9288670 Si02
#       5
#     8   8   8   8   8
#     4  11  23  40  65  91 123 171 213 258 319 393
#     4  11  23  39  61  98 133 166 210 268 315 373
#     4  11  23  39  63  95 129 161 218 269 313 379
#     4  10  22  39  63  91 134 177 208 249 323 389
#     4  11  23  45  70  90 120 169 213 262 329 396
#
# _framework density 20.263475
#
# number of rings (size 3 to 8) (size 9 to 14) (size 15 to 20)
#    0.000    1.200    2.000    4.800    2.800    6.400 
#    0.000    2.000    0.000    0.000    0.000    0.000 
#    0.000    0.000    0.000    0.000    0.000    0.000 
#
# Total GULP energy -111450.705948 kJ/mol
# GULP energy per Si atom -5572.535297 kJ/mol
# Density = 2.021735 g / cm^3
# Si number density = 20.263475 Si / 1000 Ang^3
#
#
#
# Elastic Constant Matrix: (Units=GPa)
#
#
# Indices 1 2 3 4 5 6 
#
# 1 120.1451 38.0472 24.9733 0.0002 6.0529 0.0000
# 2 38.0472 68.9897 16.4383 0.0017 6.6173 0.0008
# 3 24.9733 16.4383 41.5667 0.0016 -4.9963 0.0008
# 4 0.0002 0.0017 0.0016 26.2004 0.0005 -3.7943
# 5 6.0529 6.6173 -4.9963 0.0005 30.6545 0.0001
# 6 0.0000 0.0008 0.0008 -3.7943 0.0001 30.5751
#
#
#
# Elastic Compliance Matrix: (Units=1/GPa)
#
#
# Indices 1 2 3 4 5 6 
#
# 1 0.010928 -0.004657 -0.004959 0.000001 -0.001961 0.000000
# 2 -0.004657 0.018642 -0.005047 -0.000001 -0.003927 0.000000
# 3 -0.004959 -0.005047 0.029867 -0.000002 0.006937 -0.000001
# 4 0.000001 -0.000001 -0.000002 0.038866 -0.000001 0.004823
# 5 -0.001961 -0.003927 0.006937 -0.000001 0.034987 0.000000
# 6 0.000000 0.000000 -0.000001 0.004823 0.000000 0.033305
#
#
# Mechanical properties :
#
#
# Convention : Reuss Voigt Hill
#
# Bulk Modulus (GPa) = 33.21034 43.29100 38.25067
# Shear Modulus (GPa) = 24.27686 27.56884 25.92285
#
# Velocity S-wave (km/s) = 3.46506 3.69252 3.58060
# Velocity P-wave (km/s) = 5.69506 6.29206 6.00099
#
# Compressibility (1/GPa) = 0.03011111
#
# Stress axis : x y z
#
# Youngs Moduli (GPa) = 91.51155 53.64158 33.48182
#
# Poissons Ratio (x) = 0.24979 0.16605
# Poissons Ratio (y) = 0.42614 0.16897
# Poissons Ratio (z) = 0.45384 0.27071
#
# Static dielectric constant tensor:
#      x y z
#    x 1.777510 0.000000 -0.024140 
#    y 0.000000 1.733150 0.000000 
#    z -0.024140 0.000000 1.722940 
# 
# From -- ./inp_files/59930.got.cif
#   From: 2010.05.17/outbox.cif.g08.bks.cpg/sg15_30_cif.got.tgz:59930.got - 2010.06.03 18:47:42.
