data_PCOD9288299
_publ_section_title
;
Structure prediction by ZEFSAII (Michael W. Deem and Ramdas Pophale) SiO2 
 PCOD9288299
Probable space group: C 2/C
;
_chemical_formula_sum "Si O2"
_cell_formula_units_Z 56
_cell_length_a 6.054804
_cell_length_b 19.696044
_cell_length_c 26.334365
_cell_angle_alpha 90.000000
_cell_angle_beta 115.079748
_cell_angle_gamma 90.000000
_cell_volume 2844.430137
_symmetry_space_group_name_H-M "C 2/C"
_symmetry_group_IT_number 15
_symmetry_cell_setting 'monoclinic'
loop_
_space_group_symop_operation_xyz
x,y,z
-x,y,1/2-z
-x,-y,-z
x,-y,1/2+z
1/2+x,1/2+y,z
1/2-x,1/2+y,1/2-z
1/2-x,1/2-y,-z
1/2+x,1/2-y,1/2+z
loop_
_atom_site_type_symbol
_atom_site_label
_atom_site_fract_x
_atom_site_fract_y
_atom_site_fract_z
Si Si1 0.000000 0.091238 0.750000
Si Si2 0.529351 0.799172 0.696169
Si Si3 0.894489 0.581704 0.934153
Si Si4 0.337768 0.422282 0.844264
Si Si5 0.019924 0.555504 0.830703
Si Si6 0.000000 0.106400 0.250000
Si Si7 0.852469 0.959451 0.529484
Si Si8 0.547840 0.339208 0.147254
O O1 0.266646 0.056481 0.775065
O O2 0.985860 0.133004 0.697023
O O3 0.500000 0.768610 0.750000
O O4 0.305872 0.851195 0.668545
O O5 0.561094 0.741351 0.656903
O O6 0.765702 0.846306 0.720453
O O7 0.780534 0.519791 0.953669
O O8 0.682175 0.638278 0.909768
O O9 0.950672 0.556411 0.883013
O O10 0.157159 0.592393 0.985879
O O11 0.161172 0.487012 0.831281
O O12 0.469810 0.429707 0.802099
O O13 0.494354 0.424748 0.910935
O O14 0.201882 0.620551 0.841751
O O15 0.000000 0.000000 0.500000
#
# Coordination Sequence:
#
# PCOD9288299 Si02
#       8
#     4   8   8   8   8   4   8   8
#     4  10  24  35  62  88 129 166 214 264 327 382
#     4  10  24  42  62  88 136 187 224 259 332 408
#     4  10  22  38  67  97 128 160 220 277 338 385
#     4  11  24  43  63  98 134 175 220 271 336 400
#     4  11  23  39  62 100 131 166 216 281 329 397
#     4  10  26  41  62  90 137 180 212 262 329 406
#     4  11  21  42  68  96 129 171 220 279 340 392
#     4  11  21  40  62  95 127 172 221 273 323 393
#
# _framework density 19.687598999999999
#
# number of rings (size 3 to 8) (size 9 to 14) (size 15 to 20)
#    0.000    1.429    3.571    0.429    4.000    5.714 
#    0.000    0.714    0.000    4.286    0.000    0.000 
#    0.000    0.000    0.000    0.000    0.000    0.000 
#
# Total GULP energy -156151.010714 kJ/mol
# GULP energy per Si atom -5576.821811 kJ/mol
# Density = 1.964279 g / cm^3
# Si number density = 19.687599 Si / 1000 Ang^3
#
#
#
# Elastic Constant Matrix: (Units=GPa)
#
#
# Indices 1 2 3 4 5 6 
#
# 1 104.7928 37.5107 58.5661 0.0000 2.9605 0.0000
# 2 37.5107 78.5391 47.5406 0.0000 5.8923 0.0000
# 3 58.5661 47.5406 139.4453 0.0000 25.3205 0.0000
# 4 0.0000 0.0000 0.0000 25.3393 0.0000 0.2230
# 5 2.9605 5.8923 25.3205 0.0000 52.4473 0.0000
# 6 0.0000 0.0000 0.0000 0.2230 0.0000 6.4790
#
#
#
# Elastic Compliance Matrix: (Units=1/GPa)
#
#
# Indices 1 2 3 4 5 6 
#
# 1 0.013466 -0.003705 -0.004746 0.000000 0.001948 0.000000
# 2 -0.003705 0.017103 -0.004345 0.000000 0.000385 0.000000
# 3 -0.004746 -0.004345 0.011518 0.000000 -0.004805 0.000000
# 4 0.000000 0.000000 0.000000 0.039476 0.000000 -0.001359
# 5 0.001948 0.000385 -0.004805 0.000000 0.021233 0.000000
# 6 0.000000 0.000000 0.000000 -0.001359 0.000000 0.154392
#
#
# Mechanical properties :
#
#
# Convention : Reuss Voigt Hill
#
# Bulk Modulus (GPa) = 60.62106 67.77912 64.20009
# Shear Modulus (GPa) = 17.34423 28.79709 23.07066
#
# Velocity S-wave (km/s) = 2.97134 3.82868 3.42692
# Velocity P-wave (km/s) = 6.52918 7.35167 6.95260
#
# Compressibility (1/GPa) = 0.01649592
#
# Stress axis : x y z
#
# Youngs Moduli (GPa) = 74.25916 58.46937 86.81705
#
# Poissons Ratio (x) = 0.21661 0.41207
# Poissons Ratio (y) = 0.27511 0.37721
# Poissons Ratio (z) = 0.35246 0.25404
#
# Static dielectric constant tensor:
#      x y z
#    x 1.763700 0.000000 0.046650 
#    y 0.000000 1.696850 0.000000 
#    z 0.046650 0.000000 1.745370 
# 
# From -- ./inp_files/261418.got.cif
#   From: 2010.05.17/outbox.cif.g08.bks.cpg/sg15_131_cif.got.tgz:261418.got - 2010.06.03 18:47:42.
