data_PCOD9288297
_publ_section_title
;
Structure prediction by ZEFSAII (Michael W. Deem and Ramdas Pophale) SiO2 
 PCOD9288297
Probable space group: C 2/C
;
_chemical_formula_sum "Si O2"
_cell_formula_units_Z 48
_cell_length_a 17.502553
_cell_length_b 17.375109
_cell_length_c 14.113729
_cell_angle_alpha 90.000000
_cell_angle_beta 31.773324
_cell_angle_gamma 90.000000
_cell_volume 2260.052943
_symmetry_space_group_name_H-M "C 2/C"
_symmetry_group_IT_number 15
_symmetry_cell_setting 'monoclinic'
loop_
_space_group_symop_operation_xyz
x,y,z
-x,y,1/2-z
-x,-y,-z
x,-y,1/2+z
1/2+x,1/2+y,z
1/2-x,1/2+y,1/2-z
1/2-x,1/2-y,-z
1/2+x,1/2-y,1/2+z
loop_
_atom_site_type_symbol
_atom_site_label
_atom_site_fract_x
_atom_site_fract_y
_atom_site_fract_z
Si Si1 0.498350 0.327170 0.597867
Si Si2 0.663952 0.833294 0.938432
Si Si3 0.149036 0.701256 0.036372
Si Si4 0.265927 0.554307 0.981053
Si Si5 0.000000 0.060920 0.250000
Si Si6 0.851718 0.850119 0.573706
Si Si7 0.000000 0.449659 0.250000
O O1 0.577197 0.246028 0.520434
O O2 0.327122 0.318346 0.807161
O O3 0.568717 0.385748 0.597238
O O4 0.482964 0.363030 0.508816
O O5 0.705745 0.862027 0.788776
O O6 0.575914 0.894678 0.092527
O O7 0.220289 0.617951 0.952203
O O8 0.000000 0.690514 0.250000
O O9 0.250000 0.750000 0.000000
O O10 0.133555 0.758884 0.965395
O O11 0.338058 0.600195 0.993516
O O12 0.124355 0.506027 0.159380
O O13 0.382163 0.492762 0.824660
#
# Coordination Sequence:
#
# PCOD9288297 Si02
#       7
#     8   8   8   8   4   8   4
#     4  10  24  43  66  93 125 167 225 266 316 378
#     4  10  24  42  66  94 122 170 220 273 308 383
#     4  10  22  38  67  96 127 171 207 257 323 387
#     4  11  24  39  69  93 138 169 207 270 329 397
#     4  12  25  44  63  96 130 180 210 264 335 382
#     4   9  24  43  65  99 127 165 221 268 318 379
#     4  12  23  44  65  94 128 178 216 260 325 388
#
# _framework density 21.238440000000001
#
# number of rings (size 3 to 8) (size 9 to 14) (size 15 to 20)
#    1.000    0.667    2.500    0.500   11.667    2.667 
#    0.000    3.333    0.000    0.000    0.000    0.000 
#    0.000    0.000    0.000    0.000    0.000    0.000 
#
# Total GULP energy -133797.927808 kJ/mol
# GULP energy per Si atom -5574.913659 kJ/mol
# Density = 2.119010 g / cm^3
# Si number density = 21.238440 Si / 1000 Ang^3
#
#
#
# Elastic Constant Matrix: (Units=GPa)
#
#
# Indices 1 2 3 4 5 6 
#
# 1 48.4347 14.0850 -0.8059 0.0004 6.7946 -0.0002
# 2 14.0850 70.0107 10.7155 0.0005 2.9995 -0.0002
# 3 -0.8059 10.7155 47.3810 0.0006 -2.6136 -0.0001
# 4 0.0004 0.0005 0.0006 7.2841 -0.0003 6.3341
# 5 6.7946 2.9995 -2.6136 -0.0003 34.8176 0.0001
# 6 -0.0002 -0.0002 -0.0001 6.3341 0.0001 36.3426
#
#
#
# Elastic Compliance Matrix: (Units=1/GPa)
#
#
# Indices 1 2 3 4 5 6 
#
# 1 0.022539 -0.004550 0.001196 -0.000001 -0.003917 0.000000
# 2 -0.004550 0.015796 -0.003691 -0.000001 -0.000750 0.000000
# 3 0.001196 -0.003691 0.022057 -0.000002 0.001740 0.000000
# 4 -0.000001 -0.000001 -0.000002 0.161810 0.000002 -0.028202
# 5 -0.003917 -0.000750 0.001740 0.000002 0.029681 0.000000
# 6 0.000000 0.000000 0.000000 -0.028202 0.000000 0.032431
#
#
# Mechanical properties :
#
#
# Convention : Reuss Voigt Hill
#
# Bulk Modulus (GPa) = 21.59725 23.75729 22.67727
# Shear Modulus (GPa) = 15.93189 25.14429 20.53809
#
# Velocity S-wave (km/s) = 2.74185 3.44452 3.11308
# Velocity P-wave (km/s) = 4.49607 5.19903 4.86028
#
# Compressibility (1/GPa) = 0.04630220
#
# Stress axis : x y z
#
# Youngs Moduli (GPa) = 44.36794 63.30743 45.33788
#
# Poissons Ratio (x) = 0.28803 -0.05424
# Poissons Ratio (y) = 0.20186 0.16735
# Poissons Ratio (z) = -0.05307 0.23367
#
# Static dielectric constant tensor:
#      x y z
#    x 1.793760 0.000000 -0.016440 
#    y 0.000000 1.774920 0.000000 
#    z -0.016440 0.000000 1.771330 
# 
# From -- ./inp_files/215429.got.cif
#   From: 2010.05.17/outbox.cif.g08.bks.cpg/sg15_108_cif.got.tgz:215429.got - 2010.06.03 18:47:42.
