data_PCOD9288058
_publ_section_title
;
Structure prediction by ZEFSAII (Michael W. Deem and Ramdas Pophale) SiO2 
 PCOD9288058
Probable space group: C 2/C
;
_chemical_formula_sum "Si O2"
_cell_formula_units_Z 48
_cell_length_a 5.009130
_cell_length_b 19.290499
_cell_length_c 25.139477
_cell_angle_alpha 90.000000
_cell_angle_beta 57.033678
_cell_angle_gamma 90.000000
_cell_volume 2038.069906
_symmetry_space_group_name_H-M "C 2/C"
_symmetry_group_IT_number 15
_symmetry_cell_setting 'monoclinic'
loop_
_space_group_symop_operation_xyz
x,y,z
-x,y,1/2-z
-x,-y,-z
x,-y,1/2+z
1/2+x,1/2+y,z
1/2-x,1/2+y,1/2-z
1/2-x,1/2-y,-z
1/2+x,1/2-y,1/2+z
loop_
_atom_site_type_symbol
_atom_site_label
_atom_site_fract_x
_atom_site_fract_y
_atom_site_fract_z
Si Si1 0.779389 0.008273 0.318501
Si Si2 0.639372 0.368837 0.311866
Si Si3 0.001159 0.625661 0.088851
Si Si4 0.880056 0.284136 0.706294
Si Si5 0.342500 0.553039 0.592366
Si Si6 0.276435 0.426068 0.981536
O O1 0.412194 0.991137 0.345040
O O2 0.000000 0.041166 0.250000
O O3 0.943267 0.935296 0.313450
O O4 0.741972 0.064384 0.368171
O O5 0.499535 0.295382 0.309698
O O6 0.620152 0.378003 0.377614
O O7 0.000000 0.372907 0.250000
O O8 0.962475 0.680395 0.140893
O O9 0.915335 0.626735 0.035452
O O10 0.364646 0.602849 0.053230
O O11 0.500000 0.281987 0.750000
O O12 0.000000 0.314903 0.750000
O O13 0.651019 0.505852 0.546023
O O14 0.176742 0.567948 0.553909
#
# Coordination Sequence:
#
# PCOD9288058 Si02
#       6
#     8   8   8   8   8   8
#     4  11  21  35  63  94 124 155 214 272 321 376
#     4  11  22  39  64  95 129 168 212 268 331 385
#     4  11  23  42  64  92 127 167 219 260 317 387
#     4  11  25  44  66  91 132 174 209 264 336 393
#     4  10  22  38  62  95 130 166 212 267 325 377
#     4  10  23  40  64  93 129 173 211 264 321 377
#
# _framework density 23.551697000000001
#
# number of rings (size 3 to 8) (size 9 to 14) (size 15 to 20)
#    0.000    1.333    3.333    2.000    4.667    2.000 
#    0.000    1.667    0.000    0.000    0.000    0.000 
#    0.000    0.000    0.000    0.000    0.000    0.000 
#
# Total GULP energy -133925.785657 kJ/mol
# GULP energy per Si atom -5580.241069 kJ/mol
# Density = 2.349809 g / cm^3
# Si number density = 23.551697 Si / 1000 Ang^3
#
#
#
# Elastic Constant Matrix: (Units=GPa)
#
#
# Indices 1 2 3 4 5 6 
#
# 1 86.8412 15.5832 23.3414 0.0000 23.4487 0.0000
# 2 15.5832 67.4924 25.8983 0.0000 15.6960 0.0000
# 3 23.3414 25.8983 114.4564 0.0000 18.7705 0.0000
# 4 0.0000 0.0000 0.0000 25.7073 0.0000 12.4509
# 5 23.4487 15.6960 18.7705 0.0000 54.0639 0.0000
# 6 0.0000 0.0000 0.0000 12.4509 0.0000 21.6977
#
#
#
# Elastic Compliance Matrix: (Units=1/GPa)
#
#
# Indices 1 2 3 4 5 6 
#
# 1 0.013524 -0.001350 -0.001649 0.000000 -0.004901 0.000000
# 2 -0.001350 0.017066 -0.003043 0.000000 -0.003313 0.000000
# 3 -0.001649 -0.003043 0.010073 0.000000 -0.001899 0.000000
# 4 0.000000 0.000000 0.000000 0.053872 0.000000 -0.030914
# 5 -0.004901 -0.003313 -0.001899 0.000000 0.022243 0.000000
# 6 0.000000 0.000000 0.000000 -0.030914 0.000000 0.063827
#
#
# Mechanical properties :
#
#
# Convention : Reuss Voigt Hill
#
# Bulk Modulus (GPa) = 34.98961 44.27064 39.63012
# Shear Modulus (GPa) = 24.72598 33.89159 29.30878
#
# Velocity S-wave (km/s) = 3.24367 3.79757 3.53150
# Velocity P-wave (km/s) = 5.37748 6.16982 5.78723
#
# Compressibility (1/GPa) = 0.02857991
#
# Stress axis : x y z
#
# Youngs Moduli (GPa) = 73.94189 58.59506 99.27410
#
# Poissons Ratio (x) = 0.07911 0.16368
# Poissons Ratio (y) = 0.09983 0.30210
# Poissons Ratio (z) = 0.12191 0.17831
#
# Static dielectric constant tensor:
#      x y z
#    x 1.978980 0.000000 0.080620 
#    y 0.000000 1.917600 0.000000 
#    z 0.080620 0.000000 2.013960 
# 
# From -- ./inp_files/227281.got.cif
#   From: 2010.05.17/outbox.cif.g08.bks.cpg/sg15_114_cif.got.tgz:227281.got - 2010.06.03 18:47:42.
