data_PCOD9288290
_publ_section_title
;
Structure prediction by ZEFSAII (Michael W. Deem and Ramdas Pophale) SiO2 
 PCOD9288290
Probable space group: C 2/C
;
_chemical_formula_sum "Si O2"
_cell_formula_units_Z 48
_cell_length_a 16.930017
_cell_length_b 10.040555
_cell_length_c 27.447521
_cell_angle_alpha 90.000000
_cell_angle_beta 27.910095
_cell_angle_gamma 90.000000
_cell_volume 2183.953790
_symmetry_space_group_name_H-M "C 2/C"
_symmetry_group_IT_number 15
_symmetry_cell_setting 'monoclinic'
loop_
_space_group_symop_operation_xyz
x,y,z
-x,y,1/2-z
-x,-y,-z
x,-y,1/2+z
1/2+x,1/2+y,z
1/2-x,1/2+y,1/2-z
1/2-x,1/2-y,-z
1/2+x,1/2-y,1/2+z
loop_
_atom_site_type_symbol
_atom_site_label
_atom_site_fract_x
_atom_site_fract_y
_atom_site_fract_z
Si Si1 0.779403 0.380088 0.634171
Si Si2 0.513498 0.288152 0.068336
Si Si3 0.370172 0.622871 0.744485
Si Si4 0.500000 0.201116 0.250000
Si Si5 0.286710 0.004848 0.921834
Si Si6 0.000000 0.715059 0.750000
Si Si7 0.743237 0.969415 0.454373
O O1 0.765788 0.505762 0.678003
O O2 0.598254 0.307727 0.734042
O O3 0.800678 0.444297 0.569086
O O4 0.915681 0.272890 0.575993
O O5 0.386264 0.308632 0.183368
O O6 0.609653 0.428807 0.008426
O O7 0.645625 0.171585 0.009829
O O8 0.355613 0.717737 0.799785
O O9 0.558382 0.565600 0.652525
O O10 0.579908 0.109816 0.164953
O O11 0.351959 0.126876 0.854251
O O12 0.294818 0.041043 0.973984
#
# Coordination Sequence:
#
# PCOD9288290 Si02
#       7
#     8   8   8   4   8   4   8
#     4  12  24  41  65  97 133 172 214 274 328 384
#     4  11  23  39  64 104 128 159 228 275 313 380
#     4  11  19  39  68  91 130 176 212 263 327 392
#     4  11  15  36  68  94 123 169 228 250 312 395
#     4  10  22  38  67  92 126 177 217 269 316 392
#     4  11  25  44  62  90 133 177 222 252 348 395
#     4  11  19  40  69  92 124 170 222 259 330 390
#
# _framework density 21.978486
#
# number of rings (size 3 to 8) (size 9 to 14) (size 15 to 20)
#    0.000    1.000    6.667    1.500    0.000    2.667 
#    0.000    0.000    0.000    0.000    0.000    0.000 
#    0.000    0.000    0.000    0.000    0.000    0.000 
#
# Total GULP energy -133972.724018 kJ/mol
# GULP energy per Si atom -5582.196834 kJ/mol
# Density = 2.192846 g / cm^3
# Si number density = 21.978486 Si / 1000 Ang^3
#
#
#
# Elastic Constant Matrix: (Units=GPa)
#
#
# Indices 1 2 3 4 5 6 
#
# 1 81.4146 30.8732 29.1411 0.0000 19.1526 0.0000
# 2 30.8732 83.2472 18.9058 0.0000 12.1393 0.0000
# 3 29.1411 18.9058 55.1430 -0.0004 18.6648 0.0001
# 4 0.0000 0.0000 -0.0004 31.3401 0.0002 -6.7028
# 5 19.1526 12.1393 18.6648 0.0002 38.1437 0.0000
# 6 0.0000 0.0000 0.0001 -6.7028 0.0000 32.3205
#
#
#
# Elastic Compliance Matrix: (Units=1/GPa)
#
#
# Indices 1 2 3 4 5 6 
#
# 1 0.017114 -0.004340 -0.006130 0.000000 -0.004212 0.000000
# 2 -0.004340 0.014306 -0.002166 0.000000 -0.001313 0.000000
# 3 -0.006130 -0.002166 0.024979 0.000000 -0.008455 0.000000
# 4 0.000000 0.000000 0.000000 0.033389 0.000000 0.006924
# 5 -0.004212 -0.001313 -0.008455 0.000000 0.032887 0.000000
# 6 0.000000 0.000000 0.000000 0.006924 0.000000 0.032376
#
#
# Mechanical properties :
#
#
# Convention : Reuss Voigt Hill
#
# Bulk Modulus (GPa) = 32.12921 41.96057 37.04489
# Shear Modulus (GPa) = 26.21926 29.75318 27.98622
#
# Velocity S-wave (km/s) = 3.45766 3.68331 3.57227
# Velocity P-wave (km/s) = 5.53089 6.10100 5.82293
#
# Compressibility (1/GPa) = 0.03112433
#
# Stress axis : x y z
#
# Youngs Moduli (GPa) = 58.43216 69.90257 40.03364
#
# Poissons Ratio (x) = 0.30341 0.24542
# Poissons Ratio (y) = 0.25362 0.08673
# Poissons Ratio (z) = 0.35820 0.15144
#
# Static dielectric constant tensor:
#      x y z
#    x 1.810950 0.000000 -0.001550 
#    y 0.000000 1.835260 0.000000 
#    z -0.001550 0.000000 1.832360 
# 
# From -- ./inp_files/222288.got.cif
#   From: 2010.05.17/outbox.cif.g08.bks.cpg/sg15_112_cif.got.tgz:222288.got - 2010.06.03 18:47:42.
