data_PCOD9288770
_publ_section_title
;
Structure prediction by ZEFSAII (Michael W. Deem and Ramdas Pophale) SiO2 
 PCOD9288770
Probable space group: C 2/C
;
_chemical_formula_sum "Si O2"
_cell_formula_units_Z 64
_cell_length_a 25.597379
_cell_length_b 21.705471
_cell_length_c 5.715812
_cell_angle_alpha 90.000000
_cell_angle_beta 63.906157
_cell_angle_gamma 90.000000
_cell_volume 2852.037172
_symmetry_space_group_name_H-M "C 2/C"
_symmetry_group_IT_number 15
_symmetry_cell_setting 'monoclinic'
loop_
_space_group_symop_operation_xyz
x,y,z
-x,y,1/2-z
-x,-y,-z
x,-y,1/2+z
1/2+x,1/2+y,z
1/2-x,1/2+y,1/2-z
1/2-x,1/2-y,-z
1/2+x,1/2-y,1/2+z
loop_
_atom_site_type_symbol
_atom_site_label
_atom_site_fract_x
_atom_site_fract_y
_atom_site_fract_z
Si Si1 0.380473 0.513859 0.505355
Si Si2 0.759616 0.698613 0.674896
Si Si3 0.162573 0.628207 0.304947
Si Si4 0.943715 0.347953 0.743556
Si Si5 0.634932 0.225576 0.733853
Si Si6 0.629376 0.659036 0.998494
Si Si7 0.253502 0.029705 0.186564
Si Si8 0.029036 0.211480 0.943301
O O1 0.408545 0.490213 0.208526
O O2 0.375315 0.586615 0.468417
O O3 0.317780 0.477038 0.659122
O O4 0.750000 0.750000 0.500000
O O5 0.796728 0.643066 0.493730
O O6 0.801871 0.728611 0.778519
O O7 0.697610 0.672270 0.858037
O O8 0.099451 0.609505 0.325021
O O9 0.145216 0.691203 0.469644
O O10 0.205947 0.590594 0.387106
O O11 0.966407 0.286294 0.565034
O O12 0.000000 0.378584 0.750000
O O13 0.905305 0.316542 0.024939
O O14 0.609703 0.293177 0.739621
O O15 0.593561 0.682313 0.842872
O O16 0.269738 0.000529 0.406702
O O17 0.000000 0.194865 0.750000
O O18 0.000000 0.191613 0.250000
#
# Coordination Sequence:
#
# PCOD9288770 Si02
#       8
#     8   8   8   8   8   8   8   8
#     4  10  24  41  62  91 122 172 227 269 313 385
#     4  11  22  34  53  96 135 169 210 262 340 414
#     4  11  23  38  62  93 136 170 219 274 334 397
#     4  10  22  39  64  96 137 174 219 262 332 410
#     4  11  23  37  59 101 135 175 209 277 346 399
#     4  12  22  41  67  93 134 176 224 270 338 411
#     4  10  23  41  62  86 125 177 221 266 321 380
#     4  11  24  43  65  98 138 173 217 273 334 401
#
# _framework density 22.440100000000001
#
# number of rings (size 3 to 8) (size 9 to 14) (size 15 to 20)
#    0.000    1.250    2.500    4.125    7.000    3.000 
#    0.000    0.000    0.000    3.000    0.000    0.000 
#    0.000    0.000    0.000    0.000    0.000    0.000 
#
# Total GULP energy -178287.103559 kJ/mol
# GULP energy per Si atom -5571.471986 kJ/mol
# Density = 2.238903 g / cm^3
# Si number density = 22.440100 Si / 1000 Ang^3
#
#
#
# Elastic Constant Matrix: (Units=GPa)
#
#
# Indices 1 2 3 4 5 6 
#
# 1 135.3071 -10.4661 21.8591 0.0000 19.2794 0.0000
# 2 -10.4661 24.7142 3.9027 0.0000 15.3355 0.0000
# 3 21.8591 3.9027 107.6348 0.0000 17.3187 0.0000
# 4 0.0000 0.0000 0.0000 12.9390 0.0000 11.3616
# 5 19.2794 15.3355 17.3187 0.0000 30.9713 0.0000
# 6 0.0000 0.0000 0.0000 11.3616 0.0000 24.7229
#
#
#
# Elastic Compliance Matrix: (Units=1/GPa)
#
#
# Indices 1 2 3 4 5 6 
#
# 1 0.010041 0.011578 -0.000583 0.000000 -0.011657 0.000000
# 2 0.011578 0.072529 0.002150 0.000000 -0.044322 0.000000
# 3 -0.000583 0.002150 0.010378 0.000000 -0.006505 0.000000
# 4 0.000000 0.000000 0.000000 0.129573 0.000000 -0.059546
# 5 -0.011657 -0.044322 -0.006505 0.000000 0.065128 0.000000
# 6 0.000000 0.000000 0.000000 -0.059546 0.000000 0.067813
#
#
# Mechanical properties :
#
#
# Convention : Reuss Voigt Hill
#
# Bulk Modulus (GPa) = 8.38658 33.13860 20.76259
# Shear Modulus (GPa) = 13.55314 30.55067 22.05191
#
# Velocity S-wave (km/s) = 2.46025 3.69376 3.13821
# Velocity P-wave (km/s) = 3.43742 5.74382 4.73325
#
# Compressibility (1/GPa) = 0.11923808
#
# Stress axis : x y z
#
# Youngs Moduli (GPa) = 99.58735 13.78768 96.35945
#
# Poissons Ratio (x) = -0.15963 0.05621
# Poissons Ratio (y) = -1.15303 -0.20722
# Poissons Ratio (z) = 0.05810 -0.02965
#
# Static dielectric constant tensor:
#      x y z
#    x 0.983020 0.000000 -0.387410 
#    y 0.000000 1.999430 0.000000 
#    z -0.387410 0.000000 1.728350 
# 
# From -- ./inp_files/16223.got.cif
#   From: 2010.05.17/outbox.cif.g08.bks.cpg/sg15_9_cif.got.tgz:16223.got - 2010.06.03 18:47:42.
