data_PCOD9288015
_publ_section_title
;
Structure prediction by ZEFSAII (Michael W. Deem and Ramdas Pophale) SiO2 
 PCOD9288015
Probable space group: C 2/C
;
_chemical_formula_sum "Si O2"
_cell_formula_units_Z 44
_cell_length_a 23.754729
_cell_length_b 11.067563
_cell_length_c 18.549496
_cell_angle_alpha 90.000000
_cell_angle_beta 156.981104
_cell_angle_gamma 90.000000
_cell_volume 1906.994678
_symmetry_space_group_name_H-M "C 2/C"
_symmetry_group_IT_number 15
_symmetry_cell_setting 'monoclinic'
loop_
_space_group_symop_operation_xyz
x,y,z
-x,y,1/2-z
-x,-y,-z
x,-y,1/2+z
1/2+x,1/2+y,z
1/2-x,1/2+y,1/2-z
1/2-x,1/2-y,-z
1/2+x,1/2-y,1/2+z
loop_
_atom_site_type_symbol
_atom_site_label
_atom_site_fract_x
_atom_site_fract_y
_atom_site_fract_z
Si Si1 0.952168 0.618349 0.987238
Si Si2 0.089450 0.868075 0.416829
Si Si3 0.000000 0.753109 0.750000
Si Si4 0.780757 0.281238 0.770439
Si Si5 0.822139 0.029880 0.089904
Si Si6 0.117875 0.441752 0.483544
O O1 0.788821 0.660700 0.778010
O O2 0.950136 0.563722 0.065548
O O3 0.000000 0.500000 0.000000
O O4 0.068310 0.716585 0.095197
O O5 0.159380 0.809813 0.567677
O O6 0.000000 0.793776 0.250000
O O7 0.211505 0.938198 0.514879
O O8 0.970519 0.970117 0.295727
O O9 0.866755 0.842373 0.608275
O O10 0.986280 0.666134 0.664762
O O11 0.790257 0.381101 0.843945
O O12 0.710649 0.034031 0.022147
#
# Coordination Sequence:
#
# PCOD9288015 Si02
#       6
#     8   8   4   8   8   8
#     4  10  27  46  65 109 133 178 230 283 336 408
#     4   7  19  40  64  96 131 172 233 275 336 402
#     4  10  22  38  62 104 140 180 214 292 346 390
#     4  11  24  46  70  92 143 177 222 288 339 398
#     4   8  20  40  66  99 130 181 227 282 338 400
#     4  11  24  39  70  98 136 177 233 274 344 406
#
# _framework density 23.072952999999998
#
# number of rings (size 3 to 8) (size 9 to 14) (size 15 to 20)
#    1.091    1.455    0.000    0.545   10.182    6.545 
#    1.636    1.818    0.000    0.000    0.000    0.000 
#    0.000    0.000    0.000    0.000    0.000    0.000 
#
# Total GULP energy -122476.039455 kJ/mol
# GULP energy per Si atom -5567.092702 kJ/mol
# Density = 2.302044 g / cm^3
# Si number density = 23.072953 Si / 1000 Ang^3
#
#
#
# Elastic Constant Matrix: (Units=GPa)
#
#
# Indices 1 2 3 4 5 6 
#
# 1 96.3639 30.5801 15.3948 0.0000 25.9931 0.0000
# 2 30.5801 60.0135 17.5956 0.0000 7.1606 0.0000
# 3 15.3948 17.5956 60.0931 0.0000 -2.2180 0.0000
# 4 0.0000 0.0000 0.0000 25.4525 0.0000 2.6348
# 5 25.9931 7.1606 -2.2180 0.0000 49.2335 0.0000
# 6 0.0000 0.0000 0.0000 2.6348 0.0000 37.2047
#
#
#
# Elastic Compliance Matrix: (Units=1/GPa)
#
#
# Indices 1 2 3 4 5 6 
#
# 1 0.014459 -0.005892 -0.002233 0.000000 -0.006877 0.000000
# 2 -0.005892 0.021051 -0.004660 0.000000 -0.000161 0.000000
# 3 -0.002233 -0.004660 0.018677 0.000000 0.002698 0.000000
# 4 0.000000 0.000000 0.000000 0.039579 0.000000 -0.002803
# 5 -0.006877 -0.000161 0.002698 0.000000 0.024087 0.000000
# 6 0.000000 0.000000 0.000000 -0.002803 0.000000 0.027077
#
#
# Mechanical properties :
#
#
# Convention : Reuss Voigt Hill
#
# Bulk Modulus (GPa) = 34.94518 38.17905 36.56211
# Shear Modulus (GPa) = 27.77173 32.57148 30.17160
#
# Velocity S-wave (km/s) = 3.47313 3.76130 3.62008
# Velocity P-wave (km/s) = 5.59123 5.95367 5.77530
#
# Compressibility (1/GPa) = 0.02861625
#
# Stress axis : x y z
#
# Youngs Moduli (GPa) = 69.16124 47.50383 53.54197
#
# Poissons Ratio (x) = 0.27991 0.11954
# Poissons Ratio (y) = 0.40753 0.24952
# Poissons Ratio (z) = 0.15441 0.22138
#
# Static dielectric constant tensor:
#      x y z
#    x 1.897770 0.000000 0.034260 
#    y 0.000000 1.944330 0.000000 
#    z 0.034260 0.000000 1.925720 
# 
# From -- ./inp_files/257551.got.cif
#   From: 2010.05.17/outbox.cif.g08.bks.cpg/sg15_129_cif.got.tgz:257551.got - 2010.06.03 18:47:42.
