data_PCOD9288816
_publ_section_title
;
Structure prediction by ZEFSAII (Michael W. Deem and Ramdas Pophale) SiO2 
 PCOD9288816
Probable space group: C 2/C
;
_chemical_formula_sum "Si O2"
_cell_formula_units_Z 56
_cell_length_a 26.514565
_cell_length_b 17.690419
_cell_length_c 7.716085
_cell_angle_alpha 90.000000
_cell_angle_beta 42.371435
_cell_angle_gamma 90.000000
_cell_volume 2439.142026
_symmetry_space_group_name_H-M "C 2/C"
_symmetry_group_IT_number 15
_symmetry_cell_setting 'monoclinic'
loop_
_space_group_symop_operation_xyz
x,y,z
-x,y,1/2-z
-x,-y,-z
x,-y,1/2+z
1/2+x,1/2+y,z
1/2-x,1/2+y,1/2-z
1/2-x,1/2-y,-z
1/2+x,1/2-y,1/2+z
loop_
_atom_site_type_symbol
_atom_site_label
_atom_site_fract_x
_atom_site_fract_y
_atom_site_fract_z
Si Si1 0.000000 0.712551 0.750000
Si Si2 0.847051 0.068413 0.727569
Si Si3 0.000000 0.812635 0.250000
Si Si4 0.914382 0.430811 0.925686
Si Si5 0.388775 0.899033 0.370241
Si Si6 0.619238 0.719246 0.693627
Si Si7 0.567008 0.439169 0.834194
Si Si8 0.191669 0.361863 0.587813
O O1 0.956906 0.659184 0.723344
O O2 0.063423 0.759882 0.492476
O O3 0.861154 0.131164 0.839977
O O4 0.905972 0.081099 0.424677
O O5 0.864113 0.984428 0.751460
O O6 0.765041 0.088996 0.866128
O O7 0.068905 0.766940 0.153198
O O8 0.963893 0.867545 0.485526
O O9 0.912020 0.519805 0.888517
O O10 0.876999 0.393673 0.852380
O O11 0.000000 0.411074 0.750000
O O12 0.870394 0.410660 0.215007
O O13 0.325899 0.869748 0.663448
O O14 0.689722 0.774449 0.533490
O O15 0.500000 0.500000 0.000000
#
# Coordination Sequence:
#
# PCOD9288816 Si02
#       8
#     4   8   4   8   8   8   8   8
#     4  10  22  39  65  96 124 184 228 280 352 398
#     4  12  25  46  72  99 146 176 227 299 368 429
#     4  12  24  43  73 110 132 174 248 302 346 418
#     4  12  22  39  66  95 138 180 246 291 330 401
#     4  11  22  39  64  95 136 178 231 291 333 407
#     4  11  24  44  68  98 145 181 228 287 357 430
#     4  12  23  44  76 108 126 176 243 307 359 407
#     4  11  28  44  66 103 146 195 224 275 373 434
#
# _framework density 22.958893
#
# number of rings (size 3 to 8) (size 9 to 14) (size 15 to 20)
#    0.000    0.571    5.000    3.429    5.000    0.000 
#    2.571    0.714    0.000    0.000    0.000    0.000 
#    0.000    0.000    0.000    0.000    0.000    0.000 
#
# Total GULP energy -156616.096389 kJ/mol
# GULP energy per Si atom -5593.432014 kJ/mol
# Density = 2.290664 g / cm^3
# Si number density = 22.958893 Si / 1000 Ang^3
#
#
#
# Elastic Constant Matrix: (Units=GPa)
#
#
# Indices 1 2 3 4 5 6 
#
# 1 89.5460 17.9383 18.3803 0.0000 -9.0871 0.0000
# 2 17.9383 61.0072 -0.3085 0.0000 -8.5843 0.0000
# 3 18.3803 -0.3085 71.5037 0.0000 2.5103 0.0000
# 4 0.0000 0.0000 0.0000 23.1829 0.0000 -3.7082
# 5 -9.0871 -8.5843 2.5103 0.0000 44.6509 0.0000
# 6 0.0000 0.0000 0.0000 -3.7082 0.0000 40.6359
#
#
#
# Elastic Compliance Matrix: (Units=1/GPa)
#
#
# Indices 1 2 3 4 5 6 
#
# 1 0.012771 -0.003474 -0.003372 0.000000 0.002121 0.000000
# 2 -0.003474 0.017792 0.000876 0.000000 0.002664 0.000000
# 3 -0.003372 0.000876 0.014904 0.000000 -0.001356 0.000000
# 4 0.000000 0.000000 0.000000 0.043774 0.000000 0.003995
# 5 0.002121 0.002664 -0.001356 0.000000 0.023416 0.000000
# 6 0.000000 0.000000 0.000000 0.003995 0.000000 0.024973
#
#
# Mechanical properties :
#
#
# Convention : Reuss Voigt Hill
#
# Bulk Modulus (GPa) = 29.82674 32.67524 31.25099
# Shear Modulus (GPa) = 31.10513 34.09704 32.60109
#
# Velocity S-wave (km/s) = 3.68478 3.85793 3.77235
# Velocity P-wave (km/s) = 5.57880 5.84018 5.71099
#
# Compressibility (1/GPa) = 0.03352696
#
# Stress axis : x y z
#
# Youngs Moduli (GPa) = 78.30417 56.20424 67.09829
#
# Poissons Ratio (x) = 0.19524 0.22627
# Poissons Ratio (y) = 0.27200 -0.05879
# Poissons Ratio (z) = 0.26406 -0.04924
#
# Static dielectric constant tensor:
#      x y z
#    x 1.884940 0.000000 -0.013530 
#    y 0.000000 1.901500 0.000000 
#    z -0.013530 0.000000 1.851780 
# 
# From -- ./inp_files/70493.got.cif
#   From: 2010.05.17/outbox.cif.g08.bks.cpg/sg15_36_cif.got.tgz:70493.got - 2010.06.03 18:47:42.
