data_PCOD9288123
_publ_section_title
;
Structure prediction by ZEFSAII (Michael W. Deem and Ramdas Pophale) SiO2 
 PCOD9288123
Probable space group: C 2/C
;
_chemical_formula_sum "Si O2"
_cell_formula_units_Z 40
_cell_length_a 12.114102
_cell_length_b 14.822707
_cell_length_c 18.114372
_cell_angle_alpha 90.000000
_cell_angle_beta 149.865383
_cell_angle_gamma 90.000000
_cell_volume 1632.956453
_symmetry_space_group_name_H-M "C 2/C"
_symmetry_group_IT_number 15
_symmetry_cell_setting 'monoclinic'
loop_
_space_group_symop_operation_xyz
x,y,z
-x,y,1/2-z
-x,-y,-z
x,-y,1/2+z
1/2+x,1/2+y,z
1/2-x,1/2+y,1/2-z
1/2-x,1/2-y,-z
1/2+x,1/2-y,1/2+z
loop_
_atom_site_type_symbol
_atom_site_label
_atom_site_fract_x
_atom_site_fract_y
_atom_site_fract_z
Si Si1 0.645401 0.328760 0.140041
Si Si2 0.986639 0.068245 0.423956
Si Si3 0.600272 0.121213 0.105048
Si Si4 0.650918 0.661538 0.904552
Si Si5 0.354544 0.149115 0.544018
O O1 0.655703 0.223036 0.162536
O O2 0.510879 0.378139 0.127256
O O3 0.898698 0.357213 0.281145
O O4 0.506736 0.339844 0.984948
O O5 0.195537 0.078024 0.491933
O O6 0.771054 0.061959 0.249623
O O7 0.000000 0.000000 0.500000
O O8 0.632342 0.125351 0.035516
O O9 0.351166 0.104209 0.987004
O O10 0.500000 0.690521 0.750000
O O11 0.750000 0.750000 0.000000
O O12 0.250000 0.250000 0.500000
#
# Coordination Sequence:
#
# PCOD9288123 Si02
#       5
#     8   8   8   8   8
#     4  11  22  43  73 107 147 193 259 317 379 471
#     4  12  28  45  66 115 159 195 245 328 410 451
#     4  11  22  43  77 108 144 198 256 321 382 467
#     4  10  22  38  64 106 147 184 241 311 383 449
#     4  12  22  43  79 112 143 192 266 332 380 468
#
# _framework density 24.495449000000001
#
# number of rings (size 3 to 8) (size 9 to 14) (size 15 to 20)
#    0.000    0.800    6.000    1.200    8.400    0.000 
#    7.200    3.000    0.000    0.000    0.000    0.000 
#    0.000    0.000    0.000    0.000    0.000    0.000 
#
# Total GULP energy -111847.853840 kJ/mol
# GULP energy per Si atom -5592.392692 kJ/mol
# Density = 2.443970 g / cm^3
# Si number density = 24.495449 Si / 1000 Ang^3
#
#
#
# Elastic Constant Matrix: (Units=GPa)
#
#
# Indices 1 2 3 4 5 6 
#
# 1 225.0404 34.4523 75.9827 0.0001 3.8632 -0.0002
# 2 34.4523 76.7995 15.1985 0.0042 6.7940 0.0008
# 3 75.9827 15.1985 162.1496 0.0087 -3.3795 0.0018
# 4 0.0001 0.0042 0.0087 25.3689 0.0011 -7.4468
# 5 3.8632 6.7940 -3.3795 0.0011 54.3592 -0.0003
# 6 -0.0002 0.0008 0.0018 -7.4468 -0.0003 42.2375
#
#
#
# Elastic Compliance Matrix: (Units=1/GPa)
#
#
# Indices 1 2 3 4 5 6 
#
# 1 0.005575 -0.001993 -0.002432 0.000001 -0.000298 0.000000
# 2 -0.001993 0.014146 -0.000426 -0.000002 -0.001653 -0.000001
# 3 -0.002432 -0.000426 0.007361 -0.000003 0.000684 -0.000001
# 4 0.000001 -0.000002 -0.000003 0.041570 -0.000001 0.007329
# 5 -0.000298 -0.001653 0.000684 -0.000001 0.018666 0.000000
# 6 0.000000 -0.000001 -0.000001 0.007329 0.000000 0.024968
#
#
# Mechanical properties :
#
#
# Convention : Reuss Voigt Hill
#
# Bulk Modulus (GPa) = 57.54146 79.47296 68.50721
# Shear Modulus (GPa) = 39.12938 46.95021 43.03979
#
# Velocity S-wave (km/s) = 4.00110 4.38275 4.19627
# Velocity P-wave (km/s) = 6.69976 7.62403 7.17679
#
# Compressibility (1/GPa) = 0.01737877
#
# Stress axis : x y z
#
# Youngs Moduli (GPa) = 179.37199 70.69289 135.85319
#
# Poissons Ratio (x) = 0.14091 0.33037
# Poissons Ratio (y) = 0.35755 0.05791
# Poissons Ratio (z) = 0.43620 0.03014
#
# Static dielectric constant tensor:
#      x y z
#    x 2.053650 0.000000 0.067060 
#    y 0.000000 2.112440 0.000000 
#    z 0.067060 0.000000 1.908080 
# 
# From -- ./inp_files/29101.got.cif
#   From: 2010.05.17/outbox.cif.g08.bks.cpg/sg15_15_cif.got.tgz:29101.got - 2010.06.03 18:47:42.
