data_PCOD9288984
_publ_section_title
;
Structure prediction by ZEFSAII (Michael W. Deem and Ramdas Pophale) SiO2 
 PCOD9288984
Probable space group: C 2/C
;
_chemical_formula_sum "Si O2"
_cell_formula_units_Z 44
_cell_length_a 25.770005
_cell_length_b 9.496426
_cell_length_c 10.676769
_cell_angle_alpha 90.000000
_cell_angle_beta 50.770234
_cell_angle_gamma 90.000000
_cell_volume 2023.955786
_symmetry_space_group_name_H-M "C 2/C"
_symmetry_group_IT_number 15
_symmetry_cell_setting 'monoclinic'
loop_
_space_group_symop_operation_xyz
x,y,z
-x,y,1/2-z
-x,-y,-z
x,-y,1/2+z
1/2+x,1/2+y,z
1/2-x,1/2+y,1/2-z
1/2-x,1/2-y,-z
1/2+x,1/2-y,1/2+z
loop_
_atom_site_type_symbol
_atom_site_label
_atom_site_fract_x
_atom_site_fract_y
_atom_site_fract_z
Si Si1 0.572221 0.939783 0.854119
Si Si2 0.577865 0.392999 0.956010
Si Si3 0.782886 0.446815 0.346562
Si Si4 0.470225 0.315112 0.921085
Si Si5 0.000000 0.677625 0.250000
Si Si6 0.234674 0.131686 0.190389
O O1 0.558483 0.907699 0.730012
O O2 0.636019 0.036885 0.779494
O O3 0.573100 0.794321 0.931604
O O4 0.500000 0.000000 0.000000
O O5 0.534700 0.376975 0.895829
O O6 0.654679 0.373077 0.810005
O O7 0.571501 0.543099 0.034703
O O8 0.541360 0.277029 0.095004
O O9 0.751908 0.298625 0.346356
O O10 0.758524 0.565727 0.285688
O O11 0.762701 0.450924 0.524965
O O12 0.500000 0.248784 0.750000
#
# Coordination Sequence:
#
# PCOD9288984 Si02
#       6
#     8   8   8   8   4   8
#     4  11  26  43  72 101 137 183 235 302 350 419
#     4  10  22  42  66 103 141 179 227 296 349 422
#     4  11  28  49  72 106 146 192 246 288 365 429
#     4  10  22  39  70 102 133 176 234 289 357 410
#     4  10  22  44  70 104 140 180 238 296 358 416
#     4  11  28  48  72 103 150 192 237 297 353 444
#
# _framework density 21.739606999999999
#
# number of rings (size 3 to 8) (size 9 to 14) (size 15 to 20)
#    0.000    1.455    0.909    2.182   11.455    2.182 
#    0.000    0.000    0.000    0.000    0.000    0.000 
#    0.000    0.000    0.000    0.000    0.000    0.000 
#
# Total GULP energy -122764.772485 kJ/mol
# GULP energy per Si atom -5580.216931 kJ/mol
# Density = 2.169013 g / cm^3
# Si number density = 21.739607 Si / 1000 Ang^3
#
#
#
# Elastic Constant Matrix: (Units=GPa)
#
#
# Indices 1 2 3 4 5 6 
#
# 1 67.8021 29.0505 38.6800 0.0000 -1.3945 0.0000
# 2 29.0505 73.1923 9.8753 0.0000 10.8830 0.0000
# 3 38.6800 9.8753 85.5689 0.0000 -8.6183 0.0000
# 4 0.0000 0.0000 0.0000 16.7718 0.0000 0.8061
# 5 -1.3945 10.8830 -8.6183 0.0000 37.9967 0.0000
# 6 0.0000 0.0000 0.0000 0.8061 0.0000 35.0111
#
#
#
# Elastic Compliance Matrix: (Units=1/GPa)
#
#
# Indices 1 2 3 4 5 6 
#
# 1 0.023890 -0.008326 -0.009732 0.000000 0.001054 0.000000
# 2 -0.008326 0.017553 0.001229 0.000000 -0.005054 0.000000
# 3 -0.009732 0.001229 0.016243 0.000000 0.002975 0.000000
# 4 0.000000 0.000000 0.000000 0.059690 0.000000 -0.001374
# 5 0.001054 -0.005054 0.002975 0.000000 0.028479 0.000000
# 6 0.000000 0.000000 0.000000 -0.001374 0.000000 0.028594
#
#
# Mechanical properties :
#
#
# Convention : Reuss Voigt Hill
#
# Bulk Modulus (GPa) = 41.61765 42.41945 42.01855
# Shear Modulus (GPa) = 23.13568 27.88641 25.51105
#
# Velocity S-wave (km/s) = 3.26577 3.58543 3.42933
# Velocity P-wave (km/s) = 5.77976 6.05766 5.92034
#
# Compressibility (1/GPa) = 0.02402827
#
# Stress axis : x y z
#
# Youngs Moduli (GPa) = 41.85928 56.97063 61.56313
#
# Poissons Ratio (x) = 0.47431 0.59913
# Poissons Ratio (y) = 0.34850 -0.07564
# Poissons Ratio (z) = 0.40737 -0.07000
#
# Static dielectric constant tensor:
#      x y z
#    x 1.822300 0.000000 -0.026860 
#    y 0.000000 1.878040 0.000000 
#    z -0.026860 0.000000 1.653500 
# 
# From -- ./inp_files/121770.got.cif
#   From: 2010.05.17/outbox.cif.g08.bks.cpg/sg15_61_cif.got.tgz:121770.got - 2010.06.03 18:47:42.
