data_PCOD9288354
_publ_section_title
;
Structure prediction by ZEFSAII (Michael W. Deem and Ramdas Pophale) SiO2 
 PCOD9288354
Probable space group: C 2/C
;
_chemical_formula_sum "Si O2"
_cell_formula_units_Z 60
_cell_length_a 26.979682
_cell_length_b 9.491423
_cell_length_c 11.253107
_cell_angle_alpha 90.000000
_cell_angle_beta 88.726979
_cell_angle_gamma 90.000000
_cell_volume 2880.934593
_symmetry_space_group_name_H-M "C 2/C"
_symmetry_group_IT_number 15
_symmetry_cell_setting 'monoclinic'
loop_
_space_group_symop_operation_xyz
x,y,z
-x,y,1/2-z
-x,-y,-z
x,-y,1/2+z
1/2+x,1/2+y,z
1/2-x,1/2+y,1/2-z
1/2-x,1/2-y,-z
1/2+x,1/2-y,1/2+z
loop_
_atom_site_type_symbol
_atom_site_label
_atom_site_fract_x
_atom_site_fract_y
_atom_site_fract_z
Si Si1 0.340381 0.256615 0.278182
Si Si2 0.083932 0.249322 0.078080
Si Si3 0.500000 0.334525 0.750000
Si Si4 0.736859 0.850793 0.891439
Si Si5 0.364729 0.269162 0.541669
Si Si6 0.368044 0.037550 0.092124
Si Si7 0.837520 0.077276 0.269417
Si Si8 0.946345 0.991208 0.561783
O O1 0.287579 0.239135 0.214675
O O2 0.339260 0.233288 0.418677
O O3 0.372812 0.136995 0.208624
O O4 0.356790 0.417819 0.258208
O O5 0.126058 0.178898 0.158290
O O6 0.032222 0.253563 0.153477
O O7 0.102799 0.392302 0.018383
O O8 0.077544 0.139502 0.969310
O O9 0.459487 0.436899 0.691812
O O10 0.691257 0.951790 0.929384
O O11 0.785634 0.925931 0.841375
O O12 0.750000 0.750000 0.000000
O O13 0.332940 0.357168 0.638348
O O14 0.411423 0.369457 0.511411
O O15 0.381622 0.124685 0.603317
O O16 0.000000 0.000000 0.500000
#
# Coordination Sequence:
#
# PCOD9288354 Si02
#       8
#     8   8   4   8   8   8   8   8
#     4  10  26  43  65 100 137 181 241 276 339 420
#     4  11  21  42  70  96 134 177 226 292 344 420
#     4  10  22  38  70 100 130 162 232 286 356 406
#     4  10  24  42  65  99 144 184 233 290 342 410
#     4  12  25  43  70 101 134 188 228 285 362 405
#     4  10  26  42  66  96 145 180 227 281 348 413
#     4  12  23  41  72  96 138 187 236 285 340 414
#     4  10  22  40  67 100 125 169 229 286 337 422
#
# _framework density 20.826574999999998
#
# number of rings (size 3 to 8) (size 9 to 14) (size 15 to 20)
#    0.800    0.533    4.000    0.800    5.600    1.600 
#    0.000    2.667    0.000    1.600    0.000    0.000 
#    0.000    0.000    0.000    0.000    0.000    0.000 
#
# Total GULP energy -167306.828249 kJ/mol
# GULP energy per Si atom -5576.894275 kJ/mol
# Density = 2.077917 g / cm^3
# Si number density = 20.826575 Si / 1000 Ang^3
#
#
#
# Elastic Constant Matrix: (Units=GPa)
#
#
# Indices 1 2 3 4 5 6 
#
# 1 79.5648 8.2626 19.7607 0.0000 -20.9600 0.0000
# 2 8.2626 104.5536 20.1883 0.0000 -23.9817 0.0000
# 3 19.7607 20.1883 106.2809 0.0000 -7.4714 0.0000
# 4 0.0000 0.0000 0.0000 24.1699 0.0000 -8.6349
# 5 -20.9600 -23.9817 -7.4714 0.0000 46.7274 0.0000
# 6 0.0000 0.0000 0.0000 -8.6349 0.0000 18.9925
#
#
#
# Elastic Compliance Matrix: (Units=1/GPa)
#
#
# Indices 1 2 3 4 5 6 
#
# 1 0.014855 0.000836 -0.002450 0.000000 0.006701 0.000000
# 2 0.000836 0.011195 -0.001873 0.000000 0.005821 0.000000
# 3 -0.002450 -0.001873 0.010190 0.000000 -0.000431 0.000000
# 4 0.000000 0.000000 0.000000 0.049397 0.000000 0.022458
# 5 0.006701 0.005821 -0.000431 0.000000 0.027325 0.000000
# 6 0.000000 0.000000 0.000000 0.022458 0.000000 0.062863
#
#
# Mechanical properties :
#
#
# Convention : Reuss Voigt Hill
#
# Bulk Modulus (GPa) = 34.16767 42.98028 38.57397
# Shear Modulus (GPa) = 25.96667 34.12380 30.04523
#
# Velocity S-wave (km/s) = 3.53484 4.05220 3.80233
# Velocity P-wave (km/s) = 5.75340 6.52501 6.15131
#
# Compressibility (1/GPa) = 0.02926743
#
# Stress axis : x y z
#
# Youngs Moduli (GPa) = 67.31650 89.32351 98.13566
#
# Poissons Ratio (x) = -0.07468 0.24041
# Poissons Ratio (y) = -0.05628 0.18379
# Poissons Ratio (z) = 0.16491 0.16728
#
# Static dielectric constant tensor:
#      x y z
#    x 1.758900 0.000000 0.007860 
#    y 0.000000 1.812140 0.000000 
#    z 0.007860 0.000000 1.750310 
# 
# From -- ./inp_files/125582.got.cif
#   From: 2010.05.17/outbox.cif.g08.bks.cpg/sg15_63_cif.got.tgz:125582.got - 2010.06.03 18:47:42.
