data_PCOD9288636
_publ_section_title
;
Structure prediction by ZEFSAII (Michael W. Deem and Ramdas Pophale) SiO2 
 PCOD9288636
Probable space group: C 2/C
;
_chemical_formula_sum "Si O2"
_cell_formula_units_Z 48
_cell_length_a 8.196479
_cell_length_b 28.161285
_cell_length_c 14.087117
_cell_angle_alpha 90.000000
_cell_angle_beta 41.107869
_cell_angle_gamma 90.000000
_cell_volume 2137.881505
_symmetry_space_group_name_H-M "C 2/C"
_symmetry_group_IT_number 15
_symmetry_cell_setting 'monoclinic'
loop_
_space_group_symop_operation_xyz
x,y,z
-x,y,1/2-z
-x,-y,-z
x,-y,1/2+z
1/2+x,1/2+y,z
1/2-x,1/2+y,1/2-z
1/2-x,1/2-y,-z
1/2+x,1/2-y,1/2+z
loop_
_atom_site_type_symbol
_atom_site_label
_atom_site_fract_x
_atom_site_fract_y
_atom_site_fract_z
Si Si1 0.261814 0.290182 0.408140
Si Si2 0.373841 0.846400 0.703167
Si Si3 0.069249 0.055855 0.956981
Si Si4 0.984280 0.550916 0.619909
Si Si5 0.013767 0.765647 0.850922
Si Si6 0.931497 0.439187 0.923839
O O1 0.500000 0.314976 0.250000
O O2 0.250000 0.250000 0.500000
O O3 0.189299 0.260450 0.347230
O O4 0.059276 0.326776 0.539104
O O5 0.500000 0.836193 0.750000
O O6 0.114364 0.819175 0.808693
O O7 0.355692 0.902579 0.698063
O O8 0.270066 0.065359 0.786157
O O9 0.239279 0.069362 0.973619
O O10 0.811522 0.076343 0.029287
O O11 0.000000 0.000000 0.000000
O O12 0.902993 0.562562 0.549451
O O13 0.002098 0.493681 0.625163
O O14 0.000000 0.748760 0.750000
O O15 0.750000 0.750000 0.000000
#
# Coordination Sequence:
#
# PCOD9288636 Si02
#       6
#     8   8   8   8   8   8
#     4  12  21  43  69  96 133 184 231 274 357 446
#     4  12  26  43  69 105 138 181 239 295 355 427
#     4   9  18  34  63  91 126 179 236 279 342 419
#     4   9  19  39  64  92 131 188 233 279 353 426
#     4  12  23  43  73 100 134 181 227 288 357 436
#     4  10  22  39  62  95 136 177 232 291 348 412
#
# _framework density 22.452134000000001
#
# number of rings (size 3 to 8) (size 9 to 14) (size 15 to 20)
#    0.000    1.333    5.000    0.500    4.667    1.333 
#    3.000    1.667    3.667    0.000    0.000    0.000 
#    0.000    0.000    0.000    0.000    0.000    0.000 
#
# Total GULP energy -133634.184027 kJ/mol
# GULP energy per Si atom -5568.091001 kJ/mol
# Density = 2.240103 g / cm^3
# Si number density = 22.452134 Si / 1000 Ang^3
#
#
#
# Elastic Constant Matrix: (Units=GPa)
#
#
# Indices 1 2 3 4 5 6 
#
# 1 79.7989 34.3997 26.2497 0.0000 23.1966 0.0000
# 2 34.3997 55.0960 33.9076 0.0000 -5.2839 0.0000
# 3 26.2497 33.9076 110.4769 0.0000 7.0149 0.0000
# 4 0.0000 0.0000 0.0000 25.5108 0.0000 -5.6427
# 5 23.1966 -5.2839 7.0149 0.0000 44.8541 0.0000
# 6 0.0000 0.0000 0.0000 -5.6427 0.0000 19.2649
#
#
#
# Elastic Compliance Matrix: (Units=1/GPa)
#
#
# Indices 1 2 3 4 5 6 
#
# 1 0.023541 -0.016229 0.000285 0.000000 -0.014131 0.000000
# 2 -0.016229 0.034206 -0.007506 0.000000 0.013596 0.000000
# 3 0.000285 -0.007506 0.011467 0.000000 -0.002825 0.000000
# 4 0.000000 0.000000 0.000000 0.041914 0.000000 0.012277
# 5 -0.014131 0.013596 -0.002825 0.000000 0.031646 0.000000
# 6 0.000000 0.000000 0.000000 0.012277 0.000000 0.055504
#
#
# Mechanical properties :
#
#
# Convention : Reuss Voigt Hill
#
# Bulk Modulus (GPa) = 44.81350 48.27619 46.54484
# Shear Modulus (GPa) = 19.79289 27.98029 23.88659
#
# Velocity S-wave (km/s) = 2.97233 3.53401 3.26527
# Velocity P-wave (km/s) = 5.63760 6.18068 5.91538
#
# Compressibility (1/GPa) = 0.02231471
#
# Stress axis : x y z
#
# Youngs Moduli (GPa) = 42.47846 29.23483 87.20628
#
# Poissons Ratio (x) = 0.47444 -0.02482
# Poissons Ratio (y) = 0.68937 0.65455
# Poissons Ratio (z) = -0.01209 0.21943
#
# Static dielectric constant tensor:
#      x y z
#    x 1.837250 0.000000 -0.003750 
#    y 0.000000 1.856240 0.000000 
#    z -0.003750 0.000000 1.802060 
# 
# From -- ./inp_files/139401.got.cif
#   From: 2010.05.17/outbox.cif.g08.bks.cpg/sg15_70_cif.got.tgz:139401.got - 2010.06.03 18:47:42.
