data_PCOD9288378
_publ_section_title
;
Structure prediction by ZEFSAII (Michael W. Deem and Ramdas Pophale) SiO2 
 PCOD9288378
Probable space group: C 2/C
;
_chemical_formula_sum "Si O2"
_cell_formula_units_Z 44
_cell_length_a 9.221322
_cell_length_b 11.967746
_cell_length_c 20.456212
_cell_angle_alpha 90.000000
_cell_angle_beta 128.634414
_cell_angle_gamma 90.000000
_cell_volume 1763.448418
_symmetry_space_group_name_H-M "C 2/C"
_symmetry_group_IT_number 15
_symmetry_cell_setting 'monoclinic'
loop_
_space_group_symop_operation_xyz
x,y,z
-x,y,1/2-z
-x,-y,-z
x,-y,1/2+z
1/2+x,1/2+y,z
1/2-x,1/2+y,1/2-z
1/2-x,1/2-y,-z
1/2+x,1/2-y,1/2+z
loop_
_atom_site_type_symbol
_atom_site_label
_atom_site_fract_x
_atom_site_fract_y
_atom_site_fract_z
Si Si1 0.616034 0.436664 0.340218
Si Si2 0.925855 0.529625 0.616102
Si Si3 0.100070 0.329580 0.991328
Si Si4 0.745309 0.910699 0.301837
Si Si5 0.750000 0.750000 0.500000
Si Si6 0.308574 0.690111 0.136263
O O1 0.500000 0.378853 0.250000
O O2 0.802540 0.383373 0.419142
O O3 0.462862 0.426919 0.354080
O O4 0.657302 0.564969 0.333933
O O5 0.944630 0.421170 0.576359
O O6 0.818485 0.514592 0.654928
O O7 0.802477 0.617661 0.540786
O O8 0.126878 0.563988 0.703364
O O9 0.896540 0.284389 0.956402
O O10 0.250000 0.250000 0.000000
O O11 0.694584 0.783073 0.309212
O O12 0.583079 0.707450 0.400103
#
# Coordination Sequence:
#
# PCOD9288378 Si02
#       6
#     8   8   8   8   4   8
#     4  12  26  43  70 104 141 191 238 301 368 432
#     4  10  23  45  71 101 144 185 235 307 363 433
#     4  12  25  47  69 102 149 189 241 300 364 442
#     4  10  24  46  69 106 142 181 246 300 357 437
#     4  10  22  38  72  98 130 192 234 294 366 426
#     4  11  24  43  71 104 139 187 240 300 359 443
#
# _framework density 24.951111999999998
#
# number of rings (size 3 to 8) (size 9 to 14) (size 15 to 20)
#    0.000    1.091    3.636    1.636    7.636    2.182 
#    3.273    0.000    0.000    0.000    0.000    0.000 
#    0.000    0.000    0.000    0.000    0.000    0.000 
#
# Total GULP energy -122489.186421 kJ/mol
# GULP energy per Si atom -5567.690292 kJ/mol
# Density = 2.489432 g / cm^3
# Si number density = 24.951112 Si / 1000 Ang^3
#
#
#
# Elastic Constant Matrix: (Units=GPa)
#
#
# Indices 1 2 3 4 5 6 
#
# 1 79.6122 17.2136 25.4370 0.0000 12.5347 0.0000
# 2 17.2136 99.7093 46.2682 0.0000 -3.6259 0.0000
# 3 25.4370 46.2682 158.2823 0.0000 -6.3104 0.0000
# 4 0.0000 0.0000 0.0000 18.3118 0.0000 0.2372
# 5 12.5347 -3.6259 -6.3104 0.0000 55.7872 0.0000
# 6 0.0000 0.0000 0.0000 0.2372 0.0000 27.4707
#
#
#
# Elastic Compliance Matrix: (Units=1/GPa)
#
#
# Indices 1 2 3 4 5 6 
#
# 1 0.014083 -0.001670 -0.001914 0.000000 -0.003489 0.000000
# 2 -0.001670 0.011809 -0.003152 0.000000 0.000786 0.000000
# 3 -0.001914 -0.003152 0.007590 0.000000 0.001084 0.000000
# 4 0.000000 0.000000 0.000000 0.054616 0.000000 -0.000472
# 5 -0.003489 0.000786 0.001084 0.000000 0.018883 0.000000
# 6 0.000000 0.000000 0.000000 -0.000472 0.000000 0.036406
#
#
# Mechanical properties :
#
#
# Convention : Reuss Voigt Hill
#
# Bulk Modulus (GPa) = 49.97689 57.27128 53.62408
# Shear Modulus (GPa) = 30.57562 36.89296 33.73429
#
# Velocity S-wave (km/s) = 3.50440 3.84944 3.68097
# Velocity P-wave (km/s) = 6.03720 6.53918 6.29320
#
# Compressibility (1/GPa) = 0.02000925
#
# Stress axis : x y z
#
# Youngs Moduli (GPa) = 71.00792 84.68316 131.75089
#
# Poissons Ratio (x) = 0.14141 0.25220
# Poissons Ratio (y) = 0.11858 0.41530
# Poissons Ratio (z) = 0.13592 0.26693
#
# Static dielectric constant tensor:
#      x y z
#    x 2.317950 0.000000 0.018830 
#    y 0.000000 1.257300 0.000000 
#    z 0.018830 0.000000 2.018580 
# 
# From -- ./inp_files/196291.got.cif
#   From: 2010.05.17/outbox.cif.g08.bks.cpg/sg15_99_cif.got.tgz:196291.got - 2010.06.03 18:47:42.
