data_PCOD9288187
_publ_section_title
;
Structure prediction by ZEFSAII (Michael W. Deem and Ramdas Pophale) SiO2 
 PCOD9288187
Probable space group: C 2/C
;
_chemical_formula_sum "Si O2"
_cell_formula_units_Z 56
_cell_length_a 18.784555
_cell_length_b 18.666293
_cell_length_c 15.544928
_cell_angle_alpha 90.000000
_cell_angle_beta 152.853447
_cell_angle_gamma 90.000000
_cell_volume 2486.954102
_symmetry_space_group_name_H-M "C 2/C"
_symmetry_group_IT_number 15
_symmetry_cell_setting 'monoclinic'
loop_
_space_group_symop_operation_xyz
x,y,z
-x,y,1/2-z
-x,-y,-z
x,-y,1/2+z
1/2+x,1/2+y,z
1/2-x,1/2+y,1/2-z
1/2-x,1/2-y,-z
1/2+x,1/2-y,1/2+z
loop_
_atom_site_type_symbol
_atom_site_label
_atom_site_fract_x
_atom_site_fract_y
_atom_site_fract_z
Si Si1 0.800396 0.877716 0.679701
Si Si2 0.500000 0.555725 0.250000
Si Si3 0.189288 0.959978 0.238783
Si Si4 0.964297 0.839177 0.021642
Si Si5 0.208702 0.476569 0.342015
Si Si6 0.804901 0.728377 0.154282
Si Si7 0.490751 0.094932 0.142483
Si Si8 0.500000 0.883550 0.250000
O O1 0.929513 0.893090 0.746561
O O2 0.641809 0.851382 0.461527
O O3 0.780711 0.958106 0.699468
O O4 0.874905 0.829680 0.834619
O O5 0.641478 0.508555 0.437644
O O6 0.025281 0.922163 0.086220
O O7 0.317922 0.915712 0.427456
O O8 0.226195 0.948156 0.177990
O O9 0.117331 0.790781 0.204353
O O10 0.836724 0.815202 0.954321
O O11 0.105308 0.545487 0.210429
O O12 0.099103 0.426039 0.283043
O O13 0.948639 0.674299 0.297400
O O14 0.750000 0.750000 0.000000
O O15 0.500000 0.068950 0.250000
#
# Coordination Sequence:
#
# PCOD9288187 Si02
#       8
#     8   4   8   8   8   8   8   4
#     4  11  23  44  68 109 141 182 228 297 366 431
#     4  10  22  38  64  97 149 172 226 280 376 410
#     4  12  24  40  67 105 142 182 238 285 357 430
#     4  12  26  47  70  99 138 186 246 295 342 425
#     4  11  21  40  63 106 143 182 220 288 356 430
#     4  12  28  48  69 100 139 194 244 290 344 416
#     4  12  23  42  66  98 148 189 230 278 346 425
#     4  10  22  40  66 105 145 184 216 280 374 430
#
# _framework density 22.517506000000001
#
# number of rings (size 3 to 8) (size 9 to 14) (size 15 to 20)
#    0.000    0.571    3.571    5.571    4.000    0.000 
#    0.000    0.000    0.000    2.571    0.000    0.000 
#    0.000    0.000    0.000    0.000    0.000    0.000 
#
# Total GULP energy -156389.782614 kJ/mol
# GULP energy per Si atom -5585.349379 kJ/mol
# Density = 2.246625 g / cm^3
# Si number density = 22.517506 Si / 1000 Ang^3
#
#
#
# Elastic Constant Matrix: (Units=GPa)
#
#
# Indices 1 2 3 4 5 6 
#
# 1 143.1730 21.4107 28.3976 0.0000 -7.7665 0.0000
# 2 21.4107 23.9841 20.7268 0.0000 -6.8799 0.0000
# 3 28.3976 20.7268 172.1206 0.0000 -15.8654 0.0000
# 4 0.0000 0.0000 0.0000 42.1733 0.0000 6.7912
# 5 -7.7665 -6.8799 -15.8654 0.0000 37.6610 0.0000
# 6 0.0000 0.0000 0.0000 6.7912 0.0000 31.1255
#
#
#
# Elastic Compliance Matrix: (Units=1/GPa)
#
#
# Indices 1 2 3 4 5 6 
#
# 1 0.008104 -0.006732 -0.000505 0.000000 0.000229 0.000000
# 2 -0.006732 0.053656 -0.004760 0.000000 0.006408 0.000000
# 3 -0.000505 -0.004760 0.006634 0.000000 0.001821 0.000000
# 4 0.000000 0.000000 0.000000 0.024575 0.000000 -0.005362
# 5 0.000229 0.006408 0.001821 0.000000 0.028538 0.000000
# 6 0.000000 0.000000 0.000000 -0.005362 0.000000 0.033298
#
#
# Mechanical properties :
#
#
# Convention : Reuss Voigt Hill
#
# Bulk Modulus (GPa) = 22.52286 53.37198 37.94742
# Shear Modulus (GPa) = 25.82660 40.10814 32.96737
#
# Velocity S-wave (km/s) = 3.39035 4.22500 3.83048
# Velocity P-wave (km/s) = 5.03488 6.89600 6.03758
#
# Compressibility (1/GPa) = 0.04439934
#
# Stress axis : x y z
#
# Youngs Moduli (GPa) = 123.39690 18.63736 150.73221
#
# Poissons Ratio (x) = 0.12547 0.07616
# Poissons Ratio (y) = 0.83073 0.71746
# Poissons Ratio (z) = 0.06235 0.08871
#
# Static dielectric constant tensor:
#      x y z
#    x 20.634770 0.000000 13.513060 
#    y 0.000000 1.893030 0.000000 
#    z 13.513060 0.000000 11.568450 
# 
# From -- ./inp_files/163866.got.cif
#   From: 2010.05.17/outbox.cif.g08.bks.cpg/sg15_82_cif.got.tgz:163866.got - 2010.06.03 18:47:42.
