data_PCOD9288041
_publ_section_title
;
Structure prediction by ZEFSAII (Michael W. Deem and Ramdas Pophale) SiO2 
 PCOD9288041
Probable space group: C 2/C
;
_chemical_formula_sum "Si O2"
_cell_formula_units_Z 44
_cell_length_a 7.631239
_cell_length_b 23.398538
_cell_length_c 9.852810
_cell_angle_alpha 90.000000
_cell_angle_beta 78.091348
_cell_angle_gamma 90.000000
_cell_volume 1721.451845
_symmetry_space_group_name_H-M "C 2/C"
_symmetry_group_IT_number 15
_symmetry_cell_setting 'monoclinic'
loop_
_space_group_symop_operation_xyz
x,y,z
-x,y,1/2-z
-x,-y,-z
x,-y,1/2+z
1/2+x,1/2+y,z
1/2-x,1/2+y,1/2-z
1/2-x,1/2-y,-z
1/2+x,1/2-y,1/2+z
loop_
_atom_site_type_symbol
_atom_site_label
_atom_site_fract_x
_atom_site_fract_y
_atom_site_fract_z
Si Si1 0.000000 0.658095 0.250000
Si Si2 0.698146 0.641648 0.791615
Si Si3 0.690381 0.743741 0.353298
Si Si4 0.283654 0.517448 0.801951
Si Si5 0.972014 0.140598 0.409592
Si Si6 0.806861 0.434671 0.916817
O O1 0.830696 0.699503 0.260544
O O2 0.955804 0.614886 0.380785
O O3 0.500000 0.649048 0.750000
O O4 0.804356 0.696256 0.721435
O O5 0.771422 0.581038 0.732636
O O6 0.685216 0.636842 0.956731
O O7 0.750000 0.750000 0.500000
O O8 0.509729 0.708066 0.393718
O O9 0.500000 0.514238 0.750000
O O10 0.201839 0.468847 0.722468
O O11 0.213046 0.516758 0.966487
O O12 0.126826 0.103597 0.458701
O O13 0.000000 0.120089 0.250000
#
# Coordination Sequence:
#
# PCOD9288041 Si02
#       6
#     4   8   8   8   8   8
#     4  10  22  38  62  92 118 166 198 248 304 370
#     4  11  19  36  60  89 114 153 206 244 301 359
#     4  11  19  38  66  88 117 162 206 246 301 378
#     4  11  22  37  63  91 117 162 205 258 301 361
#     4  11  23  36  58  90 120 151 199 263 305 349
#     4  11  23  39  60  88 123 158 206 249 307 366
#
# _framework density 25.559819000000001
#
# number of rings (size 3 to 8) (size 9 to 14) (size 15 to 20)
#    0.000    1.091    6.364    2.182    2.545    1.455 
#    0.000    0.000    2.000    0.000    0.000    0.000 
#    0.000    0.000    0.000    0.000    0.000    0.000 
#
# Total GULP energy -122959.838648 kJ/mol
# GULP energy per Si atom -5589.083575 kJ/mol
# Density = 2.550164 g / cm^3
# Si number density = 25.559819 Si / 1000 Ang^3
#
#
#
# Elastic Constant Matrix: (Units=GPa)
#
#
# Indices 1 2 3 4 5 6 
#
# 1 50.7070 21.4297 15.5143 0.0000 -3.1517 0.0000
# 2 21.4297 154.4564 18.8769 0.0000 -1.9070 0.0000
# 3 15.5143 18.8769 139.5762 0.0000 17.2169 0.0000
# 4 0.0000 0.0000 0.0000 36.5374 0.0000 -4.0465
# 5 -3.1517 -1.9070 17.2169 0.0000 20.0049 0.0000
# 6 0.0000 0.0000 0.0000 -4.0465 0.0000 22.5111
#
#
#
# Elastic Compliance Matrix: (Units=1/GPa)
#
#
# Indices 1 2 3 4 5 6 
#
# 1 0.022041 -0.002648 -0.002785 0.000000 0.005617 0.000000
# 2 -0.002648 0.006945 -0.000755 0.000000 0.000895 0.000000
# 3 -0.002785 -0.000755 0.008547 0.000000 -0.007866 0.000000
# 4 0.000000 0.000000 0.000000 0.027925 0.000000 0.005020
# 5 0.005617 0.000895 -0.007866 0.000000 0.057728 0.000000
# 6 0.000000 0.000000 0.000000 0.005020 0.000000 0.045325
#
#
# Mechanical properties :
#
#
# Convention : Reuss Voigt Hill
#
# Bulk Modulus (GPa) = 39.75122 50.70908 45.23015
# Shear Modulus (GPa) = 26.41688 35.07195 30.74441
#
# Velocity S-wave (km/s) = 3.21835 3.70828 3.47196
# Velocity P-wave (km/s) = 5.42184 6.18203 5.81437
#
# Compressibility (1/GPa) = 0.02515646
#
# Stress axis : x y z
#
# Youngs Moduli (GPa) = 45.36900 143.98589 117.00685
#
# Poissons Ratio (x) = 0.38134 0.32582
# Poissons Ratio (y) = 0.12016 0.08837
# Poissons Ratio (z) = 0.12633 0.10875
#
# Static dielectric constant tensor:
#      x y z
#    x 2.251050 0.000000 -0.130960 
#    y 0.000000 1.921210 0.000000 
#    z -0.130960 0.000000 3.153060 
# 
# From -- ./inp_files/31840.got.cif
#   From: 2010.05.17/outbox.cif.g08.bks.cpg/sg15_16_cif.got.tgz:31840.got - 2010.06.03 18:47:42.
