data_PCOD9288609
_publ_section_title
;
Structure prediction by ZEFSAII (Michael W. Deem and Ramdas Pophale) SiO2 
 PCOD9288609
Probable space group: C 2/C
;
_chemical_formula_sum "Si O2"
_cell_formula_units_Z 52
_cell_length_a 6.538075
_cell_length_b 13.623490
_cell_length_c 32.382451
_cell_angle_alpha 90.000000
_cell_angle_beta 110.586218
_cell_angle_gamma 90.000000
_cell_volume 2700.167565
_symmetry_space_group_name_H-M "C 2/C"
_symmetry_group_IT_number 15
_symmetry_cell_setting 'monoclinic'
loop_
_space_group_symop_operation_xyz
x,y,z
-x,y,1/2-z
-x,-y,-z
x,-y,1/2+z
1/2+x,1/2+y,z
1/2-x,1/2+y,1/2-z
1/2-x,1/2-y,-z
1/2+x,1/2-y,1/2+z
loop_
_atom_site_type_symbol
_atom_site_label
_atom_site_fract_x
_atom_site_fract_y
_atom_site_fract_z
Si Si1 0.290954 0.266720 0.942653
Si Si2 0.378091 0.290228 0.364317
Si Si3 0.840848 0.001319 0.826140
Si Si4 0.984589 0.388889 0.515575
Si Si5 0.048239 0.343721 0.707887
Si Si6 0.000000 0.043492 0.250000
Si Si7 0.399554 0.352079 0.602841
O O1 0.213301 0.354072 0.968007
O O2 0.405166 0.313475 0.911378
O O3 0.074870 0.209713 0.911627
O O4 0.452510 0.190148 0.976565
O O5 0.298834 0.396210 0.344969
O O6 0.463770 0.232894 0.330027
O O7 0.183427 0.229149 0.371025
O O8 0.629223 0.930824 0.810065
O O9 0.928610 0.014974 0.785771
O O10 0.024079 0.945074 0.865591
O O11 0.000000 0.500000 0.500000
O O12 0.200982 0.373820 0.557889
O O13 0.290535 0.389485 0.724730
O O14 0.000000 0.300804 0.750000
#
# Coordination Sequence:
#
# PCOD9288609 Si02
#       7
#     8   8   8   8   8   4   8
#     4  10  22  40  61  91 128 161 207 258 309 371
#     4  11  23  40  64  92 125 166 207 252 315 367
#     4  11  23  40  63  92 121 166 208 252 315 369
#     4  10  22  39  62  92 124 166 210 254 311 372
#     4  10  22  43  61  88 125 158 207 261 302 370
#     4  10  22  44  62  86 130 156 208 264 300 376
#     4  11  22  40  62  92 130 163 208 262 305 375
#
# _framework density 19.258064999999998
#
# number of rings (size 3 to 8) (size 9 to 14) (size 15 to 20)
#    0.000    1.538    3.077    1.385    1.077    3.077 
#    4.154    0.000    0.000    0.000    0.000    0.000 
#    0.000    0.000    0.000    0.000    0.000    0.000 
#
# Total GULP energy -145141.686537 kJ/mol
# GULP energy per Si atom -5582.372559 kJ/mol
# Density = 1.921423 g / cm^3
# Si number density = 19.258065 Si / 1000 Ang^3
#
#
#
# Elastic Constant Matrix: (Units=GPa)
#
#
# Indices 1 2 3 4 5 6 
#
# 1 39.0409 12.7856 5.5184 0.0000 -5.0918 0.0000
# 2 12.7856 92.4936 36.6480 0.0000 -9.2170 0.0000
# 3 5.5184 36.6480 88.4981 0.0000 -6.3455 0.0000
# 4 0.0000 0.0000 0.0000 2.6063 0.0000 10.2895
# 5 -5.0918 -9.2170 -6.3455 0.0000 37.0165 0.0000
# 6 0.0000 0.0000 0.0000 10.2895 0.0000 8.2142
#
#
#
# Elastic Compliance Matrix: (Units=1/GPa)
#
#
# Indices 1 2 3 4 5 6 
#
# 1 0.027123 -0.003439 -0.000062 0.000000 0.002864 0.000000
# 2 -0.003439 0.013572 -0.005262 0.000000 0.002004 0.000000
# 3 -0.000062 -0.005262 0.013555 0.000000 0.001005 0.000000
# 4 0.000000 0.000000 0.000000 -0.097249 0.000000 0.121819
# 5 0.002864 0.002004 0.001005 0.000000 0.028080 0.000000
# 6 0.000000 0.000000 0.000000 0.121819 0.000000 -0.030857
#
#
# Mechanical properties :
#
#
# Convention : Reuss Voigt Hill
#
# Bulk Modulus (GPa) = 27.23094 36.65961 31.94527
# Shear Modulus (GPa) = -312.31082 20.57279 -145.86902
#
# Velocity S-wave (km/s) = -12.74847 3.27198 -8.71257
# Velocity P-wave (km/s) = 14.23121 5.77510 9.19716
#
# Compressibility (1/GPa) = 0.03672294
#
# Stress axis : x y z
#
# Youngs Moduli (GPa) = 36.86940 73.68318 73.77563
#
# Poissons Ratio (x) = 0.25343 0.00455
# Poissons Ratio (y) = 0.12681 0.38821
# Poissons Ratio (z) = 0.00227 0.38772
#
# Static dielectric constant tensor:
#      x y z
#    x 1.667930 0.000000 -0.000190 
#    y 0.000000 1.623250 0.000000 
#    z -0.000190 0.000000 1.693210 
# 
# From -- ./inp_files/305324.got.cif
#   From: 2010.05.17/outbox.cif.g08.bks.cpg/sg15_153_cif.got.tgz:305324.got - 2010.06.03 18:47:42.
