data_PCOD9288782
_publ_section_title
;
Structure prediction by ZEFSAII (Michael W. Deem and Ramdas Pophale) SiO2 
 PCOD9288782
Probable space group: C 2/C
;
_chemical_formula_sum "Si O2"
_cell_formula_units_Z 44
_cell_length_a 8.240600
_cell_length_b 26.625026
_cell_length_c 10.352197
_cell_angle_alpha 90.000000
_cell_angle_beta 56.767472
_cell_angle_gamma 90.000000
_cell_volume 1899.866607
_symmetry_space_group_name_H-M "C 2/C"
_symmetry_group_IT_number 15
_symmetry_cell_setting 'monoclinic'
loop_
_space_group_symop_operation_xyz
x,y,z
-x,y,1/2-z
-x,-y,-z
x,-y,1/2+z
1/2+x,1/2+y,z
1/2-x,1/2+y,1/2-z
1/2-x,1/2-y,-z
1/2+x,1/2-y,1/2+z
loop_
_atom_site_type_symbol
_atom_site_label
_atom_site_fract_x
_atom_site_fract_y
_atom_site_fract_z
Si Si1 0.000000 0.072985 0.750000
Si Si2 0.500000 0.072656 0.250000
Si Si3 0.000000 0.403386 0.250000
Si Si4 0.294023 0.486030 0.155156
Si Si5 0.196768 0.143153 0.480884
Si Si6 0.395450 0.188495 0.615380
Si Si7 0.181880 0.284093 0.774178
O O1 0.827256 0.036822 0.783260
O O2 0.035978 0.106389 0.607645
O O3 0.392879 0.109854 0.394273
O O4 0.668515 0.036122 0.223572
O O5 0.170055 0.442734 0.136224
O O6 0.076838 0.363860 0.322956
O O7 0.500000 0.500000 0.000000
O O8 0.229556 0.183012 0.578532
O O9 0.188519 0.171878 0.349297
O O10 0.311608 0.234592 0.733222
O O11 0.587424 0.202030 0.451612
O O12 0.000000 0.279217 0.750000
#
# Coordination Sequence:
#
# PCOD9288782 Si02
#       7
#     4   4   4   8   8   8   8
#     4  12  24  40  69  95 131 179 230 284 338 408
#     4  11  22  42  69  98 138 167 228 283 350 394
#     4  11  26  44  68  99 147 180 222 279 354 394
#     4  11  25  43  65 102 131 176 229 283 341 406
#     4  11  21  39  67  99 130 178 226 283 333 400
#     4  11  23  40  65  97 136 184 217 280 332 403
#     4  10  22  39  65 100 132 174 235 270 330 403
#
# _framework density 23.159521000000002
#
# number of rings (size 3 to 8) (size 9 to 14) (size 15 to 20)
#    0.000    1.091    6.364    2.182    3.818    2.909 
#    0.000    0.000    0.000    0.000    0.000    0.000 
#    0.000    0.000    0.000    0.000    0.000    0.000 
#
# Total GULP energy -122749.526734 kJ/mol
# GULP energy per Si atom -5579.523942 kJ/mol
# Density = 2.310681 g / cm^3
# Si number density = 23.159521 Si / 1000 Ang^3
#
#
#
# Elastic Constant Matrix: (Units=GPa)
#
#
# Indices 1 2 3 4 5 6 
#
# 1 29.9049 20.7697 16.1743 0.0000 -17.0056 0.0000
# 2 20.7697 150.5740 59.7651 0.0000 -18.8993 0.0000
# 3 16.1743 59.7651 97.6715 0.0000 -22.0740 0.0000
# 4 0.0000 0.0000 0.0000 47.8803 0.0000 -8.1547
# 5 -17.0056 -18.8993 -22.0740 0.0000 22.9352 0.0000
# 6 0.0000 0.0000 0.0000 -8.1547 0.0000 28.5710
#
#
#
# Elastic Compliance Matrix: (Units=1/GPa)
#
#
# Indices 1 2 3 4 5 6 
#
# 1 0.059254 -0.003618 0.002117 0.000000 0.042992 0.000000
# 2 -0.003618 0.009119 -0.004970 0.000000 0.000049 0.000000
# 3 0.002117 -0.004970 0.015793 0.000000 0.012675 0.000000
# 4 0.000000 0.000000 0.000000 0.021953 0.000000 0.006266
# 5 0.042992 0.000049 0.012675 0.000000 0.087717 0.000000
# 6 0.000000 0.000000 0.000000 0.006266 0.000000 0.036789
#
#
# Mechanical properties :
#
#
# Convention : Reuss Voigt Hill
#
# Bulk Modulus (GPa) = 14.03972 52.39651 33.21811
# Shear Modulus (GPa) = 18.70506 31.97338 25.33922
#
# Velocity S-wave (km/s) = 2.84502 3.71964 3.31133
# Velocity P-wave (km/s) = 4.10701 6.41256 5.38463
#
# Compressibility (1/GPa) = 0.07122650
#
# Stress axis : x y z
#
# Youngs Moduli (GPa) = 16.87646 109.66157 63.31776
#
# Poissons Ratio (x) = 0.39672 -0.13407
# Poissons Ratio (y) = 0.06105 0.31468
# Poissons Ratio (z) = -0.03574 0.54499
#
# Static dielectric constant tensor:
#      x y z
#    x 1.948700 0.000000 -0.009190 
#    y 0.000000 1.881860 0.000000 
#    z -0.009190 0.000000 1.896690 
# 
# From -- ./inp_files/81148.got.cif
#   From: 2010.05.17/outbox.cif.g08.bks.cpg/sg15_41_cif.got.tgz:81148.got - 2010.06.03 18:47:42.
