data_PCOD9288690
_publ_section_title
;
Structure prediction by ZEFSAII (Michael W. Deem and Ramdas Pophale) SiO2 
 PCOD9288690
Probable space group: C 2/C
;
_chemical_formula_sum "Si O2"
_cell_formula_units_Z 52
_cell_length_a 12.401887
_cell_length_b 18.746361
_cell_length_c 15.304009
_cell_angle_alpha 90.000000
_cell_angle_beta 44.434501
_cell_angle_gamma 90.000000
_cell_volume 2490.955478
_symmetry_space_group_name_H-M "C 2/C"
_symmetry_group_IT_number 15
_symmetry_cell_setting 'monoclinic'
loop_
_space_group_symop_operation_xyz
x,y,z
-x,y,1/2-z
-x,-y,-z
x,-y,1/2+z
1/2+x,1/2+y,z
1/2-x,1/2+y,1/2-z
1/2-x,1/2-y,-z
1/2+x,1/2-y,1/2+z
loop_
_atom_site_type_symbol
_atom_site_label
_atom_site_fract_x
_atom_site_fract_y
_atom_site_fract_z
Si Si1 0.414751 0.782188 0.661238
Si Si2 0.618911 0.075967 0.603049
Si Si3 0.169316 0.820890 0.947449
Si Si4 0.500000 0.591395 0.250000
Si Si5 0.587153 0.918534 0.606979
Si Si6 0.530562 0.566958 0.043705
Si Si7 0.285267 0.804474 0.556375
O O1 0.301746 0.781856 0.811143
O O2 0.562387 0.730360 0.568125
O O3 0.480671 0.863061 0.617136
O O4 0.323786 0.767719 0.624830
O O5 0.500000 0.079509 0.750000
O O6 0.787844 0.081631 0.550018
O O7 0.588748 0.140828 0.554630
O O8 0.612189 0.998644 0.560008
O O9 0.256234 0.877558 0.958993
O O10 0.062698 0.865791 0.941456
O O11 0.476494 0.549847 0.173744
O O12 0.357065 0.643606 0.344913
O O13 0.500000 0.927199 0.750000
O O14 0.500000 0.500000 0.000000
O O15 0.250000 0.750000 0.500000
#
# Coordination Sequence:
#
# PCOD9288690 Si02
#       7
#     8   8   8   4   8   8   8
#     4  11  23  39  66  92 131 171 211 270 331 393
#     4  10  22  39  63  94 125 164 217 267 327 401
#     4  11  22  42  66  95 127 171 219 268 333 399
#     4  10  22  40  58  96 128 164 220 270 328 394
#     4   9  20  40  64  90 127 166 213 267 327 390
#     4  11  21  41  69  91 130 177 219 273 341 402
#     4  11  24  38  61  90 130 169 211 270 330 394
#
# _framework density 20.875525
#
# number of rings (size 3 to 8) (size 9 to 14) (size 15 to 20)
#    0.000    1.538    3.077    2.308    1.077    1.846 
#    0.000    4.615    1.692    0.000    0.000    0.000 
#    0.000    0.000    0.000    0.000    0.000    0.000 
#
# Total GULP energy -145063.705849 kJ/mol
# GULP energy per Si atom -5579.373302 kJ/mol
# Density = 2.082801 g / cm^3
# Si number density = 20.875525 Si / 1000 Ang^3
#
#
#
# Elastic Constant Matrix: (Units=GPa)
#
#
# Indices 1 2 3 4 5 6 
#
# 1 43.9719 -4.8084 21.5155 -0.0003 5.2455 0.0000
# 2 -4.8084 83.9563 42.9373 -0.0003 6.0627 0.0002
# 3 21.5155 42.9373 114.2945 -0.0002 -2.6922 0.0003
# 4 -0.0003 -0.0003 -0.0002 41.8380 0.0003 -3.3765
# 5 5.2455 6.0627 -2.6922 0.0003 36.0578 -0.0002
# 6 0.0000 0.0002 0.0003 -3.3765 -0.0002 36.0176
#
#
#
# Elastic Compliance Matrix: (Units=1/GPa)
#
#
# Indices 1 2 3 4 5 6 
#
# 1 0.027745 0.005856 -0.007554 0.000000 -0.005585 0.000000
# 2 0.005856 0.016288 -0.007319 0.000000 -0.004137 0.000000
# 3 -0.007554 -0.007319 0.012999 0.000000 0.003300 0.000000
# 4 0.000000 0.000000 0.000000 0.024084 0.000000 0.002258
# 5 -0.005585 -0.004137 0.003300 0.000000 0.029488 0.000000
# 6 0.000000 0.000000 0.000000 0.002258 0.000000 0.027976
#
#
# Mechanical properties :
#
#
# Convention : Reuss Voigt Hill
#
# Bulk Modulus (GPa) = 25.64316 40.16795 32.90555
# Shear Modulus (GPa) = 29.47903 34.95457 32.21680
#
# Velocity S-wave (km/s) = 3.76191 4.09642 3.93272
# Velocity P-wave (km/s) = 5.58389 6.45427 6.03479
#
# Compressibility (1/GPa) = 0.03899676
#
# Stress axis : x y z
#
# Youngs Moduli (GPa) = 36.04302 61.39470 76.93156
#
# Poissons Ratio (x) = -0.35951 0.58116
# Poissons Ratio (y) = -0.21106 0.56304
# Poissons Ratio (z) = 0.27228 0.44933
#
# Static dielectric constant tensor:
#      x y z
#    x 1.793620 0.000000 0.009160 
#    y 0.000000 1.766210 0.000000 
#    z 0.009160 0.000000 1.805400 
# 
# From -- ./inp_files/155443.got.cif
#   From: 2010.05.17/outbox.cif.g08.bks.cpg/sg15_78_cif.got.tgz:155443.got - 2010.06.03 18:47:42.
