data_PCOD9288648
_publ_section_title
;
Structure prediction by ZEFSAII (Michael W. Deem and Ramdas Pophale) SiO2 
 PCOD9288648
Probable space group: C 2/C
;
_chemical_formula_sum "Si O2"
_cell_formula_units_Z 48
_cell_length_a 14.472656
_cell_length_b 22.893565
_cell_length_c 10.140135
_cell_angle_alpha 90.000000
_cell_angle_beta 40.818573
_cell_angle_gamma 90.000000
_cell_volume 2196.146313
_symmetry_space_group_name_H-M "C 2/C"
_symmetry_group_IT_number 15
_symmetry_cell_setting 'monoclinic'
loop_
_space_group_symop_operation_xyz
x,y,z
-x,y,1/2-z
-x,-y,-z
x,-y,1/2+z
1/2+x,1/2+y,z
1/2-x,1/2+y,1/2-z
1/2-x,1/2-y,-z
1/2+x,1/2-y,1/2+z
loop_
_atom_site_type_symbol
_atom_site_label
_atom_site_fract_x
_atom_site_fract_y
_atom_site_fract_z
Si Si1 0.000000 0.561786 0.250000
Si Si2 0.899442 0.443149 0.117152
Si Si3 0.500000 0.606956 0.750000
Si Si4 0.977182 0.821697 0.014290
Si Si5 0.000000 0.368536 0.250000
Si Si6 0.289621 0.496048 0.521877
Si Si7 0.000000 0.090120 0.250000
Si Si8 0.284783 0.222071 0.104830
O O1 0.951021 0.594060 0.435735
O O2 0.859805 0.523138 0.377612
O O3 0.745776 0.472556 0.299884
O O4 0.921695 0.406781 0.224976
O O5 0.000000 0.500000 0.000000
O O6 0.451594 0.646902 0.680792
O O7 0.620380 0.562742 0.567493
O O8 0.138819 0.798582 0.828228
O O9 0.962001 0.868451 0.912438
O O10 0.869618 0.769202 0.099563
O O11 0.889108 0.330296 0.452461
O O12 0.373783 0.545433 0.351375
O O13 0.250000 0.250000 0.000000
#
# Coordination Sequence:
#
# PCOD9288648 Si02
#       8
#     4   8   4   8   4   8   4   8
#     4  10  23  40  61 101 149 183 234 275 326 420
#     4  10  22  39  63 102 140 182 223 272 339 419
#     4  11  30  46  70 101 154 185 225 296 370 420
#     4  12  27  48  73 106 135 185 241 301 362 409
#     4  12  24  42  73  99 142 187 224 297 340 406
#     4  10  24  42  65 105 148 189 232 273 350 437
#     4  11  23  42  76  99 139 187 235 284 346 428
#     4  12  24  49  75 105 130 178 254 302 343 416
#
# _framework density 21.856468
#
# number of rings (size 3 to 8) (size 9 to 14) (size 15 to 20)
#    0.000    1.000    3.333    3.000    9.333    2.000 
#    0.000    0.833    0.000    0.000    0.000    0.000 
#    0.000    0.000    0.000    0.000    0.000    0.000 
#
# Total GULP energy -134008.686176 kJ/mol
# GULP energy per Si atom -5583.695257 kJ/mol
# Density = 2.180672 g / cm^3
# Si number density = 21.856468 Si / 1000 Ang^3
#
#
#
# Elastic Constant Matrix: (Units=GPa)
#
#
# Indices 1 2 3 4 5 6 
#
# 1 90.4082 52.0605 41.9572 0.0000 11.8443 0.0000
# 2 52.0605 111.7945 43.7938 0.0000 -0.1430 0.0000
# 3 41.9572 43.7938 98.1350 0.0000 -1.1533 0.0000
# 4 0.0000 0.0000 0.0000 0.8488 0.0000 -17.1490
# 5 11.8443 -0.1430 -1.1533 0.0000 54.3440 0.0000
# 6 0.0000 0.0000 0.0000 -17.1490 0.0000 24.9733
#
#
#
# Elastic Compliance Matrix: (Units=1/GPa)
#
#
# Indices 1 2 3 4 5 6 
#
# 1 0.017336 -0.006249 -0.004669 0.000000 -0.003894 0.000000
# 2 -0.006249 0.013093 -0.003155 0.000000 0.001330 0.000000
# 3 -0.004669 -0.003155 0.013610 0.000000 0.001298 0.000000
# 4 0.000000 0.000000 0.000000 -0.091514 0.000000 -0.062842
# 5 -0.003894 0.001330 0.001298 0.000000 0.019281 0.000000
# 6 0.000000 0.000000 0.000000 -0.062842 0.000000 -0.003110
#
#
# Mechanical properties :
#
#
# Convention : Reuss Voigt Hill
#
# Bulk Modulus (GPa) = 62.92620 63.99562 63.46091
# Shear Modulus (GPa) = 2335.74666 26.86831 1181.30749
#
# Velocity S-wave (km/s) = 32.72606 3.50995 23.27354
# Velocity P-wave (km/s) = 38.16866 6.76534 27.41000
#
# Compressibility (1/GPa) = 0.01589163
#
# Stress axis : x y z
#
# Youngs Moduli (GPa) = 57.68181 76.37735 73.47700
#
# Poissons Ratio (x) = 0.47730 0.34307
# Poissons Ratio (y) = 0.36046 0.23185
# Poissons Ratio (z) = 0.26932 0.24100
#
# Static dielectric constant tensor:
#      x y z
#    x 1.879400 0.000000 0.032940 
#    y 0.000000 1.822180 0.000000 
#    z 0.032940 0.000000 1.896270 
# 
# From -- ./inp_files/100038.got.cif
#   From: 2010.05.17/outbox.cif.g08.bks.cpg/sg15_51_cif.got.tgz:100038.got - 2010.06.03 18:47:42.
