data_PCOD9288688
_publ_section_title
;
Structure prediction by ZEFSAII (Michael W. Deem and Ramdas Pophale) SiO2 
 PCOD9288688
Probable space group: C 2/C
;
_chemical_formula_sum "Si O2"
_cell_formula_units_Z 52
_cell_length_a 12.312716
_cell_length_b 24.793003
_cell_length_c 16.796980
_cell_angle_alpha 90.000000
_cell_angle_beta 151.861074
_cell_angle_gamma 90.000000
_cell_volume 2418.233306
_symmetry_space_group_name_H-M "C 2/C"
_symmetry_group_IT_number 15
_symmetry_cell_setting 'monoclinic'
loop_
_space_group_symop_operation_xyz
x,y,z
-x,y,1/2-z
-x,-y,-z
x,-y,1/2+z
1/2+x,1/2+y,z
1/2-x,1/2+y,1/2-z
1/2-x,1/2-y,-z
1/2+x,1/2-y,1/2+z
loop_
_atom_site_type_symbol
_atom_site_label
_atom_site_fract_x
_atom_site_fract_y
_atom_site_fract_z
Si Si1 0.500000 0.271082 0.250000
Si Si2 0.914586 0.649362 0.029476
Si Si3 0.836307 0.991796 0.018979
Si Si4 0.710363 0.961791 0.119635
Si Si5 0.194786 0.220787 0.188931
Si Si6 0.000000 0.415477 0.250000
Si Si7 0.500000 0.909333 0.750000
Si Si8 0.314117 0.188336 0.693098
O O1 0.700712 0.311129 0.409371
O O2 0.360403 0.234801 0.221875
O O3 0.977969 0.622624 0.154581
O O4 0.142535 0.682499 0.151891
O O5 0.840495 0.602202 0.920280
O O6 0.708558 0.047613 0.916804
O O7 0.719173 0.948348 0.886067
O O8 0.778906 0.976476 0.073191
O O9 0.106320 0.981014 0.195853
O O10 0.500000 0.000000 0.000000
O O11 0.158968 0.277506 0.209931
O O12 0.950223 0.195323 0.006801
O O13 0.892118 0.374091 0.245037
O O14 0.500000 0.212096 0.750000
#
# Coordination Sequence:
#
# PCOD9288688 Si02
#       8
#     4   8   8   8   8   4   4   8
#     4  12  25  42  67  98 139 174 219 276 340 402
#     4  11  23  39  63  98 131 176 214 269 343 396
#     4   9  19  43  60  92 127 161 214 275 318 400
#     4  10  22  39  63  93 131 168 215 268 332 403
#     4  12  24  45  65  99 138 172 227 275 328 405
#     4   9  22  42  69  92 123 174 222 273 338 368
#     4   9  19  38  64  88 128 166 207 267 330 392
#     4  10  25  45  67  94 135 177 230 276 328 393
#
# _framework density 21.503301
#
# number of rings (size 3 to 8) (size 9 to 14) (size 15 to 20)
#    0.462    1.231    1.538    3.231    4.308    1.231 
#    2.769    2.308    0.000    0.000    0.000    0.000 
#    0.000    0.000    0.000    0.000    0.000    0.000 
#
# Total GULP energy -145011.633965 kJ/mol
# GULP energy per Si atom -5577.370537 kJ/mol
# Density = 2.145436 g / cm^3
# Si number density = 21.503301 Si / 1000 Ang^3
#
#
#
# Elastic Constant Matrix: (Units=GPa)
#
#
# Indices 1 2 3 4 5 6 
#
# 1 49.6251 19.9713 18.9486 0.0000 11.4977 0.0001
# 2 19.9713 145.5247 73.1611 0.0001 0.2353 -0.0001
# 3 18.9486 73.1611 189.3622 -0.0008 13.1352 -0.0003
# 4 0.0000 0.0001 -0.0008 38.7425 -0.0003 -15.7515
# 5 11.4977 0.2353 13.1352 -0.0003 29.7347 0.0002
# 6 0.0001 -0.0001 -0.0003 -15.7515 0.0002 21.3543
#
#
#
# Elastic Compliance Matrix: (Units=1/GPa)
#
#
# Indices 1 2 3 4 5 6 
#
# 1 0.023607 -0.002911 -0.000625 0.000000 -0.008829 0.000000
# 2 -0.002911 0.008947 -0.003341 0.000000 0.002531 0.000000
# 3 -0.000625 -0.003341 0.006825 0.000000 -0.002747 0.000000
# 4 0.000000 0.000000 0.000000 0.036868 0.000000 0.027195
# 5 -0.008829 0.002531 -0.002747 0.000000 0.038238 0.000000
# 6 0.000000 0.000000 0.000000 0.027195 0.000000 0.066889
#
#
# Mechanical properties :
#
#
# Convention : Reuss Voigt Hill
#
# Bulk Modulus (GPa) = 39.02566 67.63044 53.32805
# Shear Modulus (GPa) = 24.54968 36.12836 30.33902
#
# Velocity S-wave (km/s) = 3.38253 4.10339 3.76027
# Velocity P-wave (km/s) = 5.78303 7.34642 6.61110
#
# Compressibility (1/GPa) = 0.02562417
#
# Stress axis : x y z
#
# Youngs Moduli (GPa) = 42.36035 111.77319 146.52657
#
# Poissons Ratio (x) = 0.32540 0.09158
# Poissons Ratio (y) = 0.12332 0.48952
# Poissons Ratio (z) = 0.02648 0.37342
#
# Static dielectric constant tensor:
#      x y z
#    x 1.791320 0.000000 -0.046340 
#    y 0.000000 1.925720 0.000000 
#    z -0.046340 0.000000 1.721290 
# 
# From -- ./inp_files/245793.got.cif
#   From: 2010.05.17/outbox.cif.g08.bks.cpg/sg15_123_cif.got.tgz:245793.got - 2010.06.03 18:47:42.
