data_PCOD9288573
_publ_section_title
;
Structure prediction by ZEFSAII (Michael W. Deem and Ramdas Pophale) SiO2 
 PCOD9288573
Probable space group: C 2/C
;
_chemical_formula_sum "Si O2"
_cell_formula_units_Z 40
_cell_length_a 9.356555
_cell_length_b 8.551125
_cell_length_c 21.892500
_cell_angle_alpha 90.000000
_cell_angle_beta 106.285198
_cell_angle_gamma 90.000000
_cell_volume 1681.320551
_symmetry_space_group_name_H-M "C 2/C"
_symmetry_group_IT_number 15
_symmetry_cell_setting 'monoclinic'
loop_
_space_group_symop_operation_xyz
x,y,z
-x,y,1/2-z
-x,-y,-z
x,-y,1/2+z
1/2+x,1/2+y,z
1/2-x,1/2+y,1/2-z
1/2-x,1/2-y,-z
1/2+x,1/2-y,1/2+z
loop_
_atom_site_type_symbol
_atom_site_label
_atom_site_fract_x
_atom_site_fract_y
_atom_site_fract_z
Si Si1 0.022578 0.761426 0.378323
Si Si2 0.634594 0.365399 0.026246
Si Si3 0.717145 0.459015 0.218036
Si Si4 0.090832 0.426346 0.362201
Si Si5 0.203350 0.295410 0.154987
O O1 0.010554 0.592023 0.346836
O O2 0.195911 0.804825 0.392916
O O3 0.952577 0.754395 0.436670
O O4 0.932025 0.883393 0.326510
O O5 0.762753 0.453740 0.080005
O O6 0.500000 0.500000 0.000000
O O7 0.750000 0.250000 0.000000
O O8 0.849382 0.372536 0.196068
O O9 0.738716 0.426938 0.291200
O O10 0.725824 0.636085 0.195862
O O11 0.971467 0.312057 0.377698
#
# Coordination Sequence:
#
# PCOD9288573 Si02
#       5
#     8   8   8   8   8
#     4  10  24  42  66  97 136 179 232 287 352 428
#     4  11  28  48  73 100 138 181 245 308 377 435
#     4  10  22  39  62 101 141 178 226 274 349 427
#     4  10  24  42  66  97 135 180 233 286 352 433
#     4  11  22  39  67  98 140 182 227 279 351 425
#
# _framework density 23.790821999999999
#
# number of rings (size 3 to 8) (size 9 to 14) (size 15 to 20)
#    0.000    1.600    0.000    2.400   11.200    9.600 
#    0.000    0.000    0.000    0.000    0.000    0.000 
#    0.000    0.000    0.000    0.000    0.000    0.000 
#
# Total GULP energy -111343.867683 kJ/mol
# GULP energy per Si atom -5567.193384 kJ/mol
# Density = 2.373667 g / cm^3
# Si number density = 23.790822 Si / 1000 Ang^3
#
#
#
# Elastic Constant Matrix: (Units=GPa)
#
#
# Indices 1 2 3 4 5 6 
#
# 1 213.6460 39.9532 58.1076 0.0000 -27.0942 0.0000
# 2 39.9532 59.0524 4.9813 0.0000 -0.2000 0.0000
# 3 58.1076 4.9813 47.0727 0.0000 -11.2008 0.0000
# 4 0.0000 0.0000 0.0000 22.0457 0.0000 -0.0577
# 5 -27.0942 -0.2000 -11.2008 0.0000 47.3089 0.0000
# 6 0.0000 0.0000 0.0000 -0.0577 0.0000 35.9282
#
#
#
# Elastic Compliance Matrix: (Units=1/GPa)
#
#
# Indices 1 2 3 4 5 6 
#
# 1 0.008467 -0.004935 -0.009305 0.000000 0.002625 0.000000
# 2 -0.004935 0.019969 0.003525 0.000000 -0.001907 0.000000
# 3 -0.009305 0.003525 0.032949 0.000000 0.002487 0.000000
# 4 0.000000 0.000000 0.000000 0.045361 0.000000 0.000073
# 5 0.002625 -0.001907 0.002487 0.000000 0.023222 0.000000
# 6 0.000000 0.000000 0.000000 0.000073 0.000000 0.027833
#
#
# Mechanical properties :
#
#
# Convention : Reuss Voigt Hill
#
# Bulk Modulus (GPa) = 25.02843 58.42838 41.72840
# Shear Modulus (GPa) = 25.96720 35.50515 30.73617
#
# Velocity S-wave (km/s) = 3.30734 3.86734 3.59825
# Velocity P-wave (km/s) = 5.01275 6.67490 5.90262
#
# Compressibility (1/GPa) = 0.03995457
#
# Stress axis : x y z
#
# Youngs Moduli (GPa) = 118.10135 50.07731 30.34983
#
# Poissons Ratio (x) = 0.24713 0.28241
# Poissons Ratio (y) = 0.58282 -0.10697
# Poissons Ratio (z) = 1.09897 -0.17651
#
# Static dielectric constant tensor:
#      x y z
#    x 2.015100 0.000000 -0.013670 
#    y 0.000000 1.946540 0.000000 
#    z -0.013670 0.000000 1.931030 
# 
# From -- ./inp_files/262419.got.cif
#   From: 2010.05.17/outbox.cif.g08.bks.cpg/sg15_132_cif.got.tgz:262419.got - 2010.06.03 18:47:42.
