data_PCOD9288887
_publ_section_title
;
Structure prediction by ZEFSAII (Michael W. Deem and Ramdas Pophale) SiO2 
 PCOD9288887
Probable space group: C 2/C
;
_chemical_formula_sum "Si O2"
_cell_formula_units_Z 40
_cell_length_a 10.687889
_cell_length_b 11.781483
_cell_length_c 22.758628
_cell_angle_alpha 90.000000
_cell_angle_beta 144.083232
_cell_angle_gamma 90.000000
_cell_volume 1681.074605
_symmetry_space_group_name_H-M "C 2/C"
_symmetry_group_IT_number 15
_symmetry_cell_setting 'monoclinic'
loop_
_space_group_symop_operation_xyz
x,y,z
-x,y,1/2-z
-x,-y,-z
x,-y,1/2+z
1/2+x,1/2+y,z
1/2-x,1/2+y,1/2-z
1/2-x,1/2-y,-z
1/2+x,1/2-y,1/2+z
loop_
_atom_site_type_symbol
_atom_site_label
_atom_site_fract_x
_atom_site_fract_y
_atom_site_fract_z
Si Si1 0.752265 0.347837 0.146686
Si Si2 0.961571 0.196956 0.054191
Si Si3 0.962852 0.354072 0.877949
Si Si4 0.383256 0.506165 0.301944
Si Si5 0.799927 0.829510 0.107355
O O1 0.633524 0.366573 0.039720
O O2 0.709824 0.219094 0.151131
O O3 0.636991 0.423143 0.150767
O O4 0.000000 0.372987 0.250000
O O5 0.750000 0.250000 0.000000
O O6 0.051233 0.123053 0.141847
O O7 0.143438 0.282580 0.098642
O O8 0.845539 0.467851 0.813760
O O9 0.055870 0.278169 0.859461
O O10 0.154064 0.365594 0.996464
O O11 0.555557 0.440259 0.328493
#
# Coordination Sequence:
#
# PCOD9288887 Si02
#       5
#     8   8   8   8   8
#     4  10  22  39  66  99 132 175 231 284 341 430
#     4  11  24  42  67  98 145 183 232 289 354 426
#     4   9  20  42  68  98 137 178 227 293 355 415
#     4  11  23  39  74 101 131 185 234 288 365 413
#     4   9  22  43  67 102 140 179 236 295 346 430
#
# _framework density 23.794302999999999
#
# number of rings (size 3 to 8) (size 9 to 14) (size 15 to 20)
#    0.000    2.000    0.000    3.000    5.600    0.800 
#    0.000    0.000   26.400    0.000    0.000    0.000 
#    0.000    0.000    0.000    0.000    0.000    0.000 
#
# Total GULP energy -111761.029929 kJ/mol
# GULP energy per Si atom -5588.051496 kJ/mol
# Density = 2.374015 g / cm^3
# Si number density = 23.794303 Si / 1000 Ang^3
#
#
#
# Elastic Constant Matrix: (Units=GPa)
#
#
# Indices 1 2 3 4 5 6 
#
# 1 116.7806 49.4470 53.2280 0.0000 20.6032 0.0000
# 2 49.4470 72.1138 50.9447 0.0000 6.0597 0.0000
# 3 53.2280 50.9447 119.6130 0.0001 4.3619 0.0002
# 4 0.0000 0.0000 0.0001 42.2129 0.0000 26.7466
# 5 20.6032 6.0597 4.3619 0.0000 40.3030 0.0000
# 6 0.0000 0.0000 0.0002 26.7466 0.0000 123.4845
#
#
#
# Elastic Compliance Matrix: (Units=1/GPa)
#
#
# Indices 1 2 3 4 5 6 
#
# 1 0.013872 -0.006890 -0.003030 0.000000 -0.005728 0.000000
# 2 -0.006890 0.023432 -0.006941 0.000000 0.000750 0.000000
# 3 -0.003030 -0.006941 0.012620 0.000000 0.001227 0.000000
# 4 0.000000 0.000000 0.000000 0.027458 0.000000 -0.005947
# 5 -0.005728 0.000750 0.001227 0.000000 0.027494 0.000000
# 6 0.000000 0.000000 0.000000 -0.005947 0.000000 0.009386
#
#
# Mechanical properties :
#
#
# Convention : Reuss Voigt Hill
#
# Bulk Modulus (GPa) = 61.72043 68.41631 65.06837
# Shear Modulus (GPa) = 32.59775 51.52591 42.06183
#
# Velocity S-wave (km/s) = 3.70534 4.65851 4.20900
# Velocity P-wave (km/s) = 6.65594 7.59943 7.14328
#
# Compressibility (1/GPa) = 0.01620209
#
# Stress axis : x y z
#
# Youngs Moduli (GPa) = 72.08865 42.67675 79.23892
#
# Poissons Ratio (x) = 0.29405 0.24006
# Poissons Ratio (y) = 0.49670 0.55001
# Poissons Ratio (z) = 0.21839 0.29623
#
# Static dielectric constant tensor:
#      x y z
#    x 2.051010 0.000000 -0.042540 
#    y 0.000000 1.963160 0.000000 
#    z -0.042540 0.000000 1.919580 
# 
# From -- ./inp_files/292363.got.cif
#   From: 2010.05.17/outbox.cif.g08.bks.cpg/sg15_147_cif.got.tgz:292363.got - 2010.06.03 18:47:42.
