data_PCOD9288476
_publ_section_title
;
Structure prediction by ZEFSAII (Michael W. Deem and Ramdas Pophale) SiO2 
 PCOD9288476
Probable space group: C 2/C
;
_chemical_formula_sum "Si O2"
_cell_formula_units_Z 32
_cell_length_a 11.534321
_cell_length_b 21.149689
_cell_length_c 7.982908
_cell_angle_alpha 90.000000
_cell_angle_beta 136.430414
_cell_angle_gamma 90.000000
_cell_volume 1342.222426
_symmetry_space_group_name_H-M "C 2/C"
_symmetry_group_IT_number 15
_symmetry_cell_setting 'monoclinic'
loop_
_space_group_symop_operation_xyz
x,y,z
-x,y,1/2-z
-x,-y,-z
x,-y,1/2+z
1/2+x,1/2+y,z
1/2-x,1/2+y,1/2-z
1/2-x,1/2-y,-z
1/2+x,1/2-y,1/2+z
loop_
_atom_site_type_symbol
_atom_site_label
_atom_site_fract_x
_atom_site_fract_y
_atom_site_fract_z
Si Si1 0.000000 0.559078 0.250000
Si Si2 0.000000 0.955060 0.250000
Si Si3 0.744939 0.546344 0.722047
Si Si4 0.000000 0.375069 0.250000
Si Si5 0.500000 0.282665 0.250000
Si Si6 0.816358 0.671574 0.250799
O O1 0.887339 0.608284 0.237259
O O2 0.116725 0.520096 0.499191
O O3 0.110003 0.924381 0.213335
O O4 0.133337 0.999257 0.493132
O O5 0.862574 0.589263 0.726156
O O6 0.122154 0.334803 0.496786
O O7 0.623971 0.322017 0.497480
O O8 0.397898 0.234684 0.260862
#
# Coordination Sequence:
#
# PCOD9288476 Si02
#       6
#     4   4   8   4   4   8
#     4   9  20  37  58  83 114 156 198 237 292 355
#     4  10  24  41  58  86 118 154 200 248 300 351
#     4  10  23  40  60  85 118 154 199 247 297 354
#     4  10  22  39  60  88 120 156 198 244 296 353
#     4   9  18  35  58  85 122 158 190 239 296 353
#     4   9  19  35  57  86 119 155 194 237 295 352
#
# _framework density 23.841055000000001
#
# number of rings (size 3 to 8) (size 9 to 14) (size 15 to 20)
#    0.000    2.500    0.000    0.000    0.000   15.000 
#    0.000    0.000    0.000    0.000    0.000    0.000 
#    0.000   18.000    0.000    0.000    0.000    0.000 
#
# Total GULP energy -89213.541133 kJ/mol
# GULP energy per Si atom -5575.846321 kJ/mol
# Density = 2.378679 g / cm^3
# Si number density = 23.841055 Si / 1000 Ang^3
#
#
#
# Elastic Constant Matrix: (Units=GPa)
#
#
# Indices 1 2 3 4 5 6 
#
# 1 179.4539 53.1035 64.4144 0.0000 6.2562 0.0000
# 2 53.1035 49.7597 63.1317 0.0000 7.4467 0.0000
# 3 64.4144 63.1317 274.5188 0.0000 -8.4522 0.0000
# 4 0.0000 0.0000 0.0000 41.1168 0.0000 -12.5931
# 5 6.2562 7.4467 -8.4522 0.0000 43.4933 0.0000
# 6 0.0000 0.0000 0.0000 -12.5931 0.0000 69.6271
#
#
#
# Elastic Compliance Matrix: (Units=1/GPa)
#
#
# Indices 1 2 3 4 5 6 
#
# 1 0.008154 -0.008964 0.000160 0.000000 0.000393 0.000000
# 2 -0.008964 0.039974 -0.007304 0.000000 -0.006974 0.000000
# 3 0.000160 -0.007304 0.005355 0.000000 0.002268 0.000000
# 4 0.000000 0.000000 0.000000 0.025747 0.000000 0.004657
# 5 0.000393 -0.006974 0.002268 0.000000 0.024570 0.000000
# 6 0.000000 0.000000 0.000000 0.004657 0.000000 0.015204
#
#
# Mechanical properties :
#
#
# Convention : Reuss Voigt Hill
#
# Bulk Modulus (GPa) = 47.02224 96.11465 71.56844
# Shear Modulus (GPa) = 31.58378 52.38627 41.98503
#
# Velocity S-wave (km/s) = 3.64368 4.69264 4.20103
# Velocity P-wave (km/s) = 6.12110 8.35245 7.32227
#
# Compressibility (1/GPa) = 0.02126653
#
# Stress axis : x y z
#
# Youngs Moduli (GPa) = 122.64204 25.01639 186.75086
#
# Poissons Ratio (x) = 0.22425 -0.02994
# Poissons Ratio (y) = 1.09936 1.36407
# Poissons Ratio (z) = -0.01966 0.18273
#
# Static dielectric constant tensor:
#      x y z
#    x 1.968580 0.000000 0.032610 
#    y 0.000000 1.933910 0.000000 
#    z 0.032610 0.000000 1.909000 
# 
# From -- ./inp_files/31659.got.cif
#   From: 2010.05.17/outbox.cif.g08.bks.cpg/sg15_16_cif.got.tgz:31659.got - 2010.06.03 18:47:42.
