data_PCOD9288759
_publ_section_title
;
Structure prediction by ZEFSAII (Michael W. Deem and Ramdas Pophale) SiO2 
 PCOD9288759
Probable space group: C 2/C
;
_chemical_formula_sum "Si O2"
_cell_formula_units_Z 52
_cell_length_a 5.424548
_cell_length_b 27.484420
_cell_length_c 17.283077
_cell_angle_alpha 90.000000
_cell_angle_beta 56.505114
_cell_angle_gamma 90.000000
_cell_volume 2148.836846
_symmetry_space_group_name_H-M "C 2/C"
_symmetry_group_IT_number 15
_symmetry_cell_setting 'monoclinic'
loop_
_space_group_symop_operation_xyz
x,y,z
-x,y,1/2-z
-x,-y,-z
x,-y,1/2+z
1/2+x,1/2+y,z
1/2-x,1/2+y,1/2-z
1/2-x,1/2-y,-z
1/2+x,1/2-y,1/2+z
loop_
_atom_site_type_symbol
_atom_site_label
_atom_site_fract_x
_atom_site_fract_y
_atom_site_fract_z
Si Si1 0.500000 0.367587 0.250000
Si Si2 0.197552 0.468517 0.136696
Si Si3 0.145505 0.689893 0.109142
Si Si4 0.814010 0.978993 0.860318
Si Si5 0.596471 0.129955 0.604705
Si Si6 0.541269 0.702729 0.885297
Si Si7 0.333842 0.365146 0.895513
O O1 0.523056 0.334560 0.171082
O O2 0.801032 0.395325 0.188680
O O3 0.500715 0.495306 0.104978
O O4 0.307642 0.414132 0.092901
O O5 0.000000 0.470170 0.250000
O O6 0.002756 0.496822 0.105293
O O7 0.021302 0.744656 0.139659
O O8 0.361584 0.663689 0.134232
O O9 0.854586 0.659359 0.139772
O O10 0.344262 0.695060 0.996351
O O11 0.837697 0.921788 0.875339
O O12 0.000000 0.985726 0.750000
O O13 0.639468 0.138830 0.507600
O O14 0.643238 0.182019 0.638541
#
# Coordination Sequence:
#
# PCOD9288759 Si02
#       7
#     4   8   8   8   8   8   8
#     4  12  22  40  62  96 130 168 212 266 318 390
#     4  10  22  39  64  94 127 172 208 267 328 381
#     4  10  23  42  67  90 127 174 210 257 328 371
#     4  10  23  42  64  91 129 169 221 267 319 379
#     4  11  25  38  66  96 134 167 214 263 333 383
#     4  10  23  40  63  92 132 166 212 260 317 396
#     4  11  23  44  66  94 129 173 215 268 316 384
#
# _framework density 24.199135999999999
#
# number of rings (size 3 to 8) (size 9 to 14) (size 15 to 20)
#    0.000    1.538    1.538    2.308    7.538    3.077 
#    2.769    0.000    0.000    0.000    0.000    0.000 
#    0.000    0.000    0.000    0.000    0.000    0.000 
#
# Total GULP energy -145096.176611 kJ/mol
# GULP energy per Si atom -5580.622177 kJ/mol
# Density = 2.414406 g / cm^3
# Si number density = 24.199136 Si / 1000 Ang^3
#
#
#
# Elastic Constant Matrix: (Units=GPa)
#
#
# Indices 1 2 3 4 5 6 
#
# 1 171.0572 61.0515 28.1456 0.0000 6.7937 0.0000
# 2 61.0515 118.2110 7.4588 0.0000 5.9124 0.0000
# 3 28.1456 7.4588 48.1952 0.0000 -2.1615 0.0000
# 4 0.0000 0.0000 0.0000 25.1840 0.0000 2.3417
# 5 6.7937 5.9124 -2.1615 0.0000 12.9713 0.0000
# 6 0.0000 0.0000 0.0000 2.3417 0.0000 43.7833
#
#
#
# Elastic Compliance Matrix: (Units=1/GPa)
#
#
# Indices 1 2 3 4 5 6 
#
# 1 0.007991 -0.003699 -0.004238 0.000000 -0.003205 0.000000
# 2 -0.003699 0.010483 0.000414 0.000000 -0.002772 0.000000
# 3 -0.004238 0.000414 0.023426 0.000000 0.005935 0.000000
# 4 0.000000 0.000000 0.000000 0.039906 0.000000 -0.002134
# 5 -0.003205 -0.002772 0.005935 0.000000 0.081024 0.000000
# 6 0.000000 0.000000 0.000000 -0.002134 0.000000 0.022954
#
#
# Mechanical properties :
#
#
# Convention : Reuss Voigt Hill
#
# Bulk Modulus (GPa) = 37.24035 58.97501 48.10768
# Shear Modulus (GPa) = 23.83434 32.44155 28.13794
#
# Velocity S-wave (km/s) = 3.14176 3.66540 3.41364
# Velocity P-wave (km/s) = 5.34634 6.50670 5.95485
#
# Compressibility (1/GPa) = 0.02685259
#
# Stress axis : x y z
#
# Youngs Moduli (GPa) = 125.14250 95.39705 42.68766
#
# Poissons Ratio (x) = 0.35290 0.18090
# Poissons Ratio (y) = 0.46294 -0.01766
# Poissons Ratio (z) = 0.53034 -0.03947
#
# Static dielectric constant tensor:
#      x y z
#    x 2.301960 0.000000 -0.054750 
#    y 0.000000 1.900560 0.000000 
#    z -0.054750 0.000000 1.927620 
# 
# From -- ./inp_files/186033.got.cif
#   From: 2010.05.17/outbox.cif.g08.bks.cpg/sg15_94_cif.got.tgz:186033.got - 2010.06.03 18:47:42.
