data_PCOD9288948
_publ_section_title
;
Structure prediction by ZEFSAII (Michael W. Deem and Ramdas Pophale) SiO2 
 PCOD9288948
Probable space group: C 2/C
;
_chemical_formula_sum "Si O2"
_cell_formula_units_Z 36
_cell_length_a 18.128900
_cell_length_b 9.401410
_cell_length_c 8.227116
_cell_angle_alpha 90.000000
_cell_angle_beta 80.675399
_cell_angle_gamma 90.000000
_cell_volume 1383.678367
_symmetry_space_group_name_H-M "C 2/C"
_symmetry_group_IT_number 15
_symmetry_cell_setting 'monoclinic'
loop_
_space_group_symop_operation_xyz
x,y,z
-x,y,1/2-z
-x,-y,-z
x,-y,1/2+z
1/2+x,1/2+y,z
1/2-x,1/2+y,1/2-z
1/2-x,1/2-y,-z
1/2+x,1/2-y,1/2+z
loop_
_atom_site_type_symbol
_atom_site_label
_atom_site_fract_x
_atom_site_fract_y
_atom_site_fract_z
Si Si1 0.463506 0.809578 0.598198
Si Si2 0.793471 0.915261 0.537878
Si Si3 0.401832 0.455214 0.240769
Si Si4 0.500000 0.725792 0.250000
Si Si5 0.287472 0.851133 0.621616
O O1 0.500000 0.868360 0.750000
O O2 0.462781 0.637622 0.626814
O O3 0.502368 0.822167 0.410167
O O4 0.376497 0.847615 0.608554
O O5 0.865143 0.870660 0.404532
O O6 0.751083 0.823382 0.688288
O O7 0.834816 0.029291 0.638099
O O8 0.735348 0.994028 0.441626
O O9 0.430572 0.613272 0.273365
O O10 0.250000 0.750000 0.500000
#
# Coordination Sequence:
#
# PCOD9288948 Si02
#       5
#     8   8   8   4   8
#     4  12  24  39  64  99 134 180 224 270 344 410
#     4  10  22  39  68  95 130 175 221 282 330 391
#     4  11  18  37  63  99 130 167 214 281 352 400
#     4  12  22  40  64 102 148 166 216 288 358 416
#     4  11  23  46  65  98 138 174 233 278 336 410
#
# _framework density 26.017607000000002
#
# number of rings (size 3 to 8) (size 9 to 14) (size 15 to 20)
#    0.000    0.889    5.556    3.333    0.000    0.889 
#    8.000    1.111    0.000    0.000    0.000    0.000 
#    0.000    0.000    0.000    0.000    0.000    0.000 
#
# Total GULP energy -100543.065519 kJ/mol
# GULP energy per Si atom -5585.725862 kJ/mol
# Density = 2.595839 g / cm^3
# Si number density = 26.017607 Si / 1000 Ang^3
#
#
#
# Elastic Constant Matrix: (Units=GPa)
#
#
# Indices 1 2 3 4 5 6 
#
# 1 169.8548 26.4520 60.1287 0.0000 22.4880 0.0000
# 2 26.4520 53.4756 29.0313 0.0000 4.8519 0.0000
# 3 60.1287 29.0313 218.3627 0.0000 -2.3911 0.0000
# 4 0.0000 0.0000 0.0000 33.1601 0.0000 -6.2722
# 5 22.4880 4.8519 -2.3911 0.0000 39.1053 0.0000
# 6 0.0000 0.0000 0.0000 -6.2722 0.0000 38.6513
#
#
#
# Elastic Compliance Matrix: (Units=1/GPa)
#
#
# Indices 1 2 3 4 5 6 
#
# 1 0.007421 -0.002335 -0.001778 0.000000 -0.004087 0.000000
# 2 -0.002335 0.021171 -0.002187 0.000000 -0.001418 0.000000
# 3 -0.001778 -0.002187 0.005378 0.000000 0.001623 0.000000
# 4 0.000000 0.000000 0.000000 0.031112 0.000000 0.005049
# 5 -0.004087 -0.001418 0.001623 0.000000 0.028197 0.000000
# 6 0.000000 0.000000 0.000000 0.005049 0.000000 0.026692
#
#
# Mechanical properties :
#
#
# Convention : Reuss Voigt Hill
#
# Bulk Modulus (GPa) = 46.79470 74.76855 60.78162
# Shear Modulus (GPa) = 35.79235 43.92209 39.85722
#
# Velocity S-wave (km/s) = 3.71306 4.11319 3.91824
# Velocity P-wave (km/s) = 6.03384 7.16644 6.62439
#
# Compressibility (1/GPa) = 0.02136994
#
# Stress axis : x y z
#
# Youngs Moduli (GPa) = 134.74406 47.23389 185.95445
#
# Poissons Ratio (x) = 0.11030 0.33061
# Poissons Ratio (y) = 0.31464 0.40673
# Poissons Ratio (z) = 0.23956 0.10331
#
# Static dielectric constant tensor:
#      x y z
#    x 2.082820 0.000000 -0.015670 
#    y 0.000000 2.135900 0.000000 
#    z -0.015670 0.000000 2.114710 
# 
# From -- ./inp_files/45935.got.cif
#   From: 2010.05.17/outbox.cif.g08.bks.cpg/sg15_23_cif.got.tgz:45935.got - 2010.06.03 18:47:42.
