data_PCOD9288420
_publ_section_title
;
Structure prediction by ZEFSAII (Michael W. Deem and Ramdas Pophale) SiO2 
 PCOD9288420
Probable space group: C 2/C
;
_chemical_formula_sum "Si O2"
_cell_formula_units_Z 64
_cell_length_a 15.511952
_cell_length_b 13.037419
_cell_length_c 17.901486
_cell_angle_alpha 90.000000
_cell_angle_beta 50.541761
_cell_angle_gamma 90.000000
_cell_volume 2795.206891
_symmetry_space_group_name_H-M "C 2/C"
_symmetry_group_IT_number 15
_symmetry_cell_setting 'monoclinic'
loop_
_space_group_symop_operation_xyz
x,y,z
-x,y,1/2-z
-x,-y,-z
x,-y,1/2+z
1/2+x,1/2+y,z
1/2-x,1/2+y,1/2-z
1/2-x,1/2-y,-z
1/2+x,1/2-y,1/2+z
loop_
_atom_site_type_symbol
_atom_site_label
_atom_site_fract_x
_atom_site_fract_y
_atom_site_fract_z
Si Si1 0.368831 0.523183 0.565570
Si Si2 0.709493 0.368192 0.245641
Si Si3 0.720300 0.963016 0.532448
Si Si4 0.017851 0.215678 0.058375
Si Si5 0.307022 0.690497 0.264631
Si Si6 0.158393 0.690891 0.601183
Si Si7 0.427576 0.897593 0.021875
Si Si8 0.622570 0.507874 0.188485
O O1 0.500000 0.500000 0.500000
O O2 0.309425 0.558041 0.673712
O O3 0.294272 0.436598 0.565217
O O4 0.387696 0.631783 0.510855
O O5 0.711824 0.252047 0.273417
O O6 0.825676 0.386975 0.137738
O O7 0.615264 0.403530 0.239477
O O8 0.666331 0.069055 0.589793
O O9 0.821558 0.987037 0.420258
O O10 0.630796 0.904567 0.528590
O O11 0.901854 0.167391 0.150483
O O12 0.999149 0.295355 0.000969
O O13 0.049575 0.279190 0.114431
O O14 0.338431 0.765826 0.316838
O O15 0.293180 0.584160 0.315244
O O16 0.250000 0.750000 0.500000
O O17 0.500000 0.000000 0.000000
O O18 0.500000 0.555686 0.250000
#
# Coordination Sequence:
#
# PCOD9288420 Si02
#       8
#     8   8   8   8   8   8   8   8
#     4  12  23  40  60  89 121 161 212 258 298 352
#     4  10  23  36  58  90 122 158 203 254 300 364
#     4  11  21  35  59  88 121 154 197 250 306 362
#     4  11  22  35  57  85 117 159 197 243 303 366
#     4  11  20  34  53  89 119 149 196 252 303 356
#     4  12  18  31  56  89 116 146 191 248 305 351
#     4  10  22  39  58  89 126 162 194 243 318 377
#     4  11  21  37  59  88 118 160 202 250 304 365
#
# _framework density 22.896336999999999
#
# number of rings (size 3 to 8) (size 9 to 14) (size 15 to 20)
#    0.000    1.000    5.000    3.375    0.000    0.000 
#    0.000    1.250    0.000    1.500    0.000    1.750 
#    0.000    0.000    0.000    0.000    0.000    0.000 
#
# Total GULP energy -178340.438600 kJ/mol
# GULP energy per Si atom -5573.138706 kJ/mol
# Density = 2.284422 g / cm^3
# Si number density = 22.896337 Si / 1000 Ang^3
#
#
#
# Elastic Constant Matrix: (Units=GPa)
#
#
# Indices 1 2 3 4 5 6 
#
# 1 102.5367 27.5734 1.5014 0.0000 11.1386 0.0000
# 2 27.5734 28.3797 -4.7959 0.0000 4.2377 0.0000
# 3 1.5014 -4.7959 75.6427 0.0000 13.0020 0.0000
# 4 0.0000 0.0000 0.0000 26.7733 0.0000 6.3931
# 5 11.1386 4.2377 13.0020 0.0000 24.6285 0.0000
# 6 0.0000 0.0000 0.0000 6.3931 0.0000 47.9096
#
#
#
# Elastic Compliance Matrix: (Units=1/GPa)
#
#
# Indices 1 2 3 4 5 6 
#
# 1 0.013583 -0.012714 -0.000435 0.000000 -0.003726 0.000000
# 2 -0.012714 0.049032 0.004204 0.000000 -0.004906 0.000000
# 3 -0.000435 0.004204 0.014942 0.000000 -0.008415 0.000000
# 4 0.000000 0.000000 0.000000 0.038580 0.000000 -0.005148
# 5 -0.003726 -0.004906 -0.008415 0.000000 0.047575 0.000000
# 6 0.000000 0.000000 0.000000 -0.005148 0.000000 0.021560
#
#
# Mechanical properties :
#
#
# Convention : Reuss Voigt Hill
#
# Bulk Modulus (GPa) = 16.75973 28.34632 22.55303
# Shear Modulus (GPa) = 22.41652 32.01428 27.21540
#
# Velocity S-wave (km/s) = 3.13236 3.74334 3.45140
# Velocity P-wave (km/s) = 4.51863 5.57590 5.07487
#
# Compressibility (1/GPa) = 0.05966683
#
# Stress axis : x y z
#
# Youngs Moduli (GPa) = 73.62346 20.39471 66.92713
#
# Poissons Ratio (x) = 0.25930 0.02913
# Poissons Ratio (y) = 0.93605 -0.28139
# Poissons Ratio (z) = 0.03205 -0.08575
#
# Static dielectric constant tensor:
#      x y z
#    x 2.107830 0.000000 0.001210 
#    y 0.000000 1.947220 0.000000 
#    z 0.001210 0.000000 1.865540 
# 
# From -- ./inp_files/205696.got.cif
#   From: 2010.05.17/outbox.cif.g08.bks.cpg/sg15_103_cif.got.tgz:205696.got - 2010.06.03 18:47:42.
