data_PCOD9288554
_publ_section_title
;
Structure prediction by ZEFSAII (Michael W. Deem and Ramdas Pophale) SiO2 
 PCOD9288554
Probable space group: C 2/C
;
_chemical_formula_sum "Si O2"
_cell_formula_units_Z 28
_cell_length_a 7.852609
_cell_length_b 7.218076
_cell_length_c 28.337251
_cell_angle_alpha 90.000000
_cell_angle_beta 44.237049
_cell_angle_gamma 90.000000
_cell_volume 1120.514226
_symmetry_space_group_name_H-M "C 2/C"
_symmetry_group_IT_number 15
_symmetry_cell_setting 'monoclinic'
loop_
_space_group_symop_operation_xyz
x,y,z
-x,y,1/2-z
-x,-y,-z
x,-y,1/2+z
1/2+x,1/2+y,z
1/2-x,1/2+y,1/2-z
1/2-x,1/2-y,-z
1/2+x,1/2-y,1/2+z
loop_
_atom_site_type_symbol
_atom_site_label
_atom_site_fract_x
_atom_site_fract_y
_atom_site_fract_z
Si Si1 0.756014 0.537883 0.578442
Si Si2 0.505035 0.267864 0.802459
Si Si3 0.990014 0.115486 0.454078
Si Si4 0.000000 0.596309 0.250000
O O1 0.694395 0.379847 0.628013
O O2 0.546721 0.525462 0.581127
O O3 0.000000 0.500000 0.500000
O O4 0.789128 0.739831 0.593636
O O5 0.500000 0.348035 0.750000
O O6 0.463687 0.051511 0.800272
O O7 0.760788 0.293986 0.779881
O O8 0.750000 0.250000 0.500000
O O9 0.000000 0.000000 0.500000
#
# Coordination Sequence:
#
# PCOD9288554 Si02
#       4
#     8   8   8   4
#     4  10  23  42  68  98 131 172 219 275 334 392
#     4  10  26  45  70  97 138 175 229 275 336 401
#     4  10  22  39  61  92 129 164 207 261 325 386
#     4  10  26  42  70  94 134 178 228 268 338 400
#
# _framework density 24.988527000000001
#
# number of rings (size 3 to 8) (size 9 to 14) (size 15 to 20)
#    0.857    1.143    0.000    0.857    6.000    9.143 
#    5.143    0.000    0.000    0.000    0.000    0.000 
#    0.000    0.000    0.000    0.000    0.000    0.000 
#
# Total GULP energy -78204.428975 kJ/mol
# GULP energy per Si atom -5586.030641 kJ/mol
# Density = 2.493165 g / cm^3
# Si number density = 24.988527 Si / 1000 Ang^3
#
#
#
# Elastic Constant Matrix: (Units=GPa)
#
#
# Indices 1 2 3 4 5 6 
#
# 1 199.5748 92.2888 47.8398 0.0000 5.1078 0.0000
# 2 92.2888 114.3772 23.7090 0.0000 -14.5435 0.0000
# 3 47.8398 23.7090 104.9387 -0.0001 -4.8618 0.0000
# 4 0.0000 0.0000 -0.0001 24.0750 0.0000 -8.5531
# 5 5.1078 -14.5435 -4.8618 0.0000 41.7651 0.0000
# 6 0.0000 0.0000 0.0000 -8.5531 0.0000 72.9992
#
#
#
# Elastic Compliance Matrix: (Units=1/GPa)
#
#
# Indices 1 2 3 4 5 6 
#
# 1 0.009149 -0.007329 -0.002700 0.000000 -0.003985 0.000000
# 2 -0.007329 0.015426 0.000147 0.000000 0.006285 0.000000
# 3 -0.002700 0.000147 0.010803 0.000000 0.001639 0.000000
# 4 0.000000 0.000000 0.000000 0.043341 0.000000 0.005078
# 5 -0.003985 0.006285 0.001639 0.000000 0.026810 0.000000
# 6 0.000000 0.000000 0.000000 0.005078 0.000000 0.014294
#
#
# Mechanical properties :
#
#
# Convention : Reuss Voigt Hill
#
# Bulk Modulus (GPa) = 64.04442 82.95175 73.49809
# Shear Modulus (GPa) = 34.53275 44.77142 39.65208
#
# Velocity S-wave (km/s) = 3.72148 4.23741 3.98780
# Velocity P-wave (km/s) = 6.64463 7.56366 7.11899
#
# Compressibility (1/GPa) = 0.01561416
#
# Stress axis : x y z
#
# Youngs Moduli (GPa) = 109.30070 64.82756 92.56928
#
# Poissons Ratio (x) = 0.47515 0.24990
# Poissons Ratio (y) = 0.80111 -0.01365
# Poissons Ratio (z) = 0.29507 -0.00956
#
# Static dielectric constant tensor:
#      x y z
#    x 1.978740 0.000000 0.004140 
#    y 0.000000 1.948810 0.000000 
#    z 0.004140 0.000000 1.944350 
# 
# From -- ./inp_files/187117.got.cif
#   From: 2010.05.17/outbox.cif.g08.bks.cpg/sg15_94_cif.got.tgz:187117.got - 2010.06.03 18:47:42.
