data_PCOD9288434
_publ_section_title
;
Structure prediction by ZEFSAII (Michael W. Deem and Ramdas Pophale) SiO2 
 PCOD9288434
Probable space group: C 2/C
;
_chemical_formula_sum "Si O2"
_cell_formula_units_Z 44
_cell_length_a 14.375126
_cell_length_b 17.030822
_cell_length_c 7.719755
_cell_angle_alpha 90.000000
_cell_angle_beta 101.049531
_cell_angle_gamma 90.000000
_cell_volume 1854.915873
_symmetry_space_group_name_H-M "C 2/C"
_symmetry_group_IT_number 15
_symmetry_cell_setting 'monoclinic'
loop_
_space_group_symop_operation_xyz
x,y,z
-x,y,1/2-z
-x,-y,-z
x,-y,1/2+z
1/2+x,1/2+y,z
1/2-x,1/2+y,1/2-z
1/2-x,1/2-y,-z
1/2+x,1/2-y,1/2+z
loop_
_atom_site_type_symbol
_atom_site_label
_atom_site_fract_x
_atom_site_fract_y
_atom_site_fract_z
Si Si1 0.954580 0.150834 0.895512
Si Si2 0.129250 0.951550 0.384343
Si Si3 0.500000 0.951597 0.750000
Si Si4 0.850732 0.248711 0.136555
Si Si5 0.298917 0.596671 0.256918
Si Si6 0.109146 0.411548 0.462650
O O1 0.864320 0.104793 0.781741
O O2 0.000000 0.198732 0.750000
O O3 0.926095 0.204012 0.041717
O O4 0.033740 0.082402 0.940487
O O5 0.209330 0.936868 0.553710
O O6 0.127503 0.039921 0.318048
O O7 0.418076 0.011333 0.654326
O O8 0.532760 0.904686 0.591919
O O9 0.832381 0.186908 0.282729
O O10 0.750000 0.250000 0.000000
O O11 0.884695 0.337379 0.164173
O O12 0.206349 0.588569 0.106482
#
# Coordination Sequence:
#
# PCOD9288434 Si02
#       6
#     8   8   4   8   8   8
#     4   8  21  38  55  89 120 158 196 231 289 347
#     4   9  21  34  60  87 121 158 193 237 284 354
#     4  10  22  42  62  80 110 150 204 244 296 344
#     4  10  22  39  59  86 123 155 194 245 297 349
#     4  11  20  37  59  89 121 153 195 241 300 351
#     4  10  23  40  60  85 110 152 195 250 294 354
#
# _framework density 23.720751
#
# number of rings (size 3 to 8) (size 9 to 14) (size 15 to 20)
#    1.091    1.091    0.000    2.182    1.273   10.182 
#    0.000    3.636    0.000    0.000    0.000    0.000 
#    0.000    0.000    0.000    0.000    0.000    0.000 
#
# Total GULP energy -122642.858128 kJ/mol
# GULP energy per Si atom -5574.675369 kJ/mol
# Density = 2.366676 g / cm^3
# Si number density = 23.720751 Si / 1000 Ang^3
#
#
#
# Elastic Constant Matrix: (Units=GPa)
#
#
# Indices 1 2 3 4 5 6 
#
# 1 54.0691 23.6118 -4.9455 0.0000 10.4714 0.0000
# 2 23.6118 82.1364 12.5749 0.0000 0.4665 0.0000
# 3 -4.9455 12.5749 75.9925 0.0000 18.7098 0.0000
# 4 0.0000 0.0000 0.0000 17.8104 0.0000 4.7272
# 5 10.4714 0.4665 18.7098 0.0000 28.7809 0.0000
# 6 0.0000 0.0000 0.0000 4.7272 0.0000 15.5772
#
#
#
# Elastic Compliance Matrix: (Units=1/GPa)
#
#
# Indices 1 2 3 4 5 6 
#
# 1 0.025117 -0.008093 0.006180 0.000000 -0.013025 0.000000
# 2 -0.008093 0.015144 -0.004401 0.000000 0.005560 0.000000
# 3 0.006180 -0.004401 0.017651 0.000000 -0.013652 0.000000
# 4 0.000000 0.000000 0.000000 0.061066 0.000000 -0.018531
# 5 -0.013025 0.005560 -0.013652 0.000000 0.048269 0.000000
# 6 0.000000 0.000000 0.000000 -0.018531 0.000000 0.069820
#
#
# Mechanical properties :
#
#
# Convention : Reuss Voigt Hill
#
# Bulk Modulus (GPa) = 22.08292 30.52006 26.30149
# Shear Modulus (GPa) = 18.88311 24.49748 21.69029
#
# Velocity S-wave (km/s) = 2.82451 3.21712 3.02719
# Velocity P-wave (km/s) = 4.46843 5.16664 4.83017
#
# Compressibility (1/GPa) = 0.04528387
#
# Stress axis : x y z
#
# Youngs Moduli (GPa) = 39.81428 66.03492 56.65445
#
# Poissons Ratio (x) = 0.53439 -0.35015
# Poissons Ratio (y) = 0.32220 0.24936
# Poissons Ratio (z) = -0.24607 0.29065
#
# Static dielectric constant tensor:
#      x y z
#    x 1.964690 0.000000 0.045800 
#    y 0.000000 1.903170 0.000000 
#    z 0.045800 0.000000 1.975790 
# 
# From -- ./inp_files/39321.got.cif
#   From: 2010.05.17/outbox.cif.g08.bks.cpg/sg15_20_cif.got.tgz:39321.got - 2010.06.03 18:47:42.
