data_PCOD9288017
_publ_section_title
;
Structure prediction by ZEFSAII (Michael W. Deem and Ramdas Pophale) SiO2 
 PCOD9288017
Probable space group: C 2/C
;
_chemical_formula_sum "Si O2"
_cell_formula_units_Z 60
_cell_length_a 24.156573
_cell_length_b 16.290525
_cell_length_c 8.944016
_cell_angle_alpha 90.000000
_cell_angle_beta 103.973563
_cell_angle_gamma 90.000000
_cell_volume 3415.521337
_symmetry_space_group_name_H-M "C 2/C"
_symmetry_group_IT_number 15
_symmetry_cell_setting 'monoclinic'
loop_
_space_group_symop_operation_xyz
x,y,z
-x,y,1/2-z
-x,-y,-z
x,-y,1/2+z
1/2+x,1/2+y,z
1/2-x,1/2+y,1/2-z
1/2-x,1/2-y,-z
1/2+x,1/2-y,1/2+z
loop_
_atom_site_type_symbol
_atom_site_label
_atom_site_fract_x
_atom_site_fract_y
_atom_site_fract_z
Si Si1 0.065767 0.313828 0.329013
Si Si2 0.284371 0.966591 0.763467
Si Si3 0.500000 0.127116 0.250000
Si Si4 0.833477 0.246340 0.948623
Si Si5 0.204217 0.689557 0.398099
Si Si6 0.583036 0.958968 0.567842
Si Si7 0.744882 0.887214 0.458443
Si Si8 0.093862 0.349068 0.019469
O O1 0.100855 0.253889 0.460883
O O2 0.071219 0.402058 0.416012
O O3 0.094893 0.314567 0.186211
O O4 0.000000 0.296716 0.250000
O O5 0.267274 0.895783 0.635667
O O6 0.351656 0.950852 0.836199
O O7 0.253019 0.947058 0.897357
O O8 0.275094 0.056576 0.691760
O O9 0.459044 0.072651 0.330185
O O10 0.541472 0.180449 0.382234
O O11 0.821537 0.269396 0.769038
O O12 0.800541 0.316655 0.024680
O O13 0.803031 0.160772 0.964383
O O14 0.250000 0.750000 0.500000
O O15 0.152957 0.667069 0.475712
O O16 0.578804 0.054323 0.526561
#
# Coordination Sequence:
#
# PCOD9288017 Si02
#       8
#     8   8   4   8   8   8   8   8
#     4  12  24  38  56  82 117 168 203 244 301 356
#     4  11  22  38  58  85 116 153 204 244 304 357
#     4  12  22  38  50  80 120 162 204 256 274 348
#     4  10  23  42  56  84 124 155 200 253 305 353
#     4  11  25  39  59  83 117 159 203 255 308 354
#     4  12  23  37  50  83 120 163 204 245 283 350
#     4  10  22  38  62  82 118 158 194 254 305 354
#     4  12  25  34  57  76 117 158 208 244 290 346
#
# _framework density 17.566865
#
# number of rings (size 3 to 8) (size 9 to 14) (size 15 to 20)
#    0.000    0.800    5.333    2.800   11.200    0.000 
#    0.000    0.000    0.000    0.000    0.000    0.933 
#    2.000    0.000    0.000    0.000    0.000    0.000 
#
# Total GULP energy -167649.131439 kJ/mol
# GULP energy per Si atom -5588.304381 kJ/mol
# Density = 1.752688 g / cm^3
# Si number density = 17.566865 Si / 1000 Ang^3
#
#
#
# Elastic Constant Matrix: (Units=GPa)
#
#
# Indices 1 2 3 4 5 6 
#
# 1 57.5927 27.3069 50.4586 0.0000 10.8383 0.0000
# 2 27.3069 49.0289 39.3078 0.0000 7.0568 0.0000
# 3 50.4586 39.3078 120.1008 0.0000 4.6915 0.0000
# 4 0.0000 0.0000 0.0000 25.5652 0.0000 7.9770
# 5 10.8383 7.0568 4.6915 0.0000 41.1812 0.0000
# 6 0.0000 0.0000 0.0000 7.9770 0.0000 23.7142
#
#
#
# Elastic Compliance Matrix: (Units=1/GPa)
#
#
# Indices 1 2 3 4 5 6 
#
# 1 0.031373 -0.008501 -0.010178 0.000000 -0.005641 0.000000
# 2 -0.008501 0.030536 -0.006334 0.000000 -0.002274 0.000000
# 3 -0.010178 -0.006334 0.014593 0.000000 0.002102 0.000000
# 4 0.000000 0.000000 0.000000 0.043703 0.000000 -0.014701
# 5 -0.005641 -0.002274 0.002102 0.000000 0.025918 0.000000
# 6 0.000000 0.000000 0.000000 -0.014701 0.000000 0.047114
#
#
# Mechanical properties :
#
#
# Convention : Reuss Voigt Hill
#
# Bulk Modulus (GPa) = 37.76979 51.20767 44.48873
# Shear Modulus (GPa) = 19.83431 25.40207 22.61819
#
# Velocity S-wave (km/s) = 3.36382 3.80678 3.59214
# Velocity P-wave (km/s) = 6.05263 6.96675 6.52571
#
# Compressibility (1/GPa) = 0.02647619
#
# Stress axis : x y z
#
# Youngs Moduli (GPa) = 31.87457 32.74810 68.52427
#
# Poissons Ratio (x) = 0.27840 0.69745
# Poissons Ratio (y) = 0.27098 0.43401
# Poissons Ratio (z) = 0.32442 0.20741
#
# Static dielectric constant tensor:
#      x y z
#    x 1.621760 0.000000 0.015380 
#    y 0.000000 1.601570 0.000000 
#    z 0.015380 0.000000 1.672280 
# 
# From -- ./inp_files/61577.got.cif
#   From: 2010.05.17/outbox.cif.g08.bks.cpg/sg15_31_cif.got.tgz:61577.got - 2010.06.03 18:47:42.
