data_PCOD9288035
_publ_section_title
;
Structure prediction by ZEFSAII (Michael W. Deem and Ramdas Pophale) SiO2 
 PCOD9288035
Probable space group: C 2/C
;
_chemical_formula_sum "Si O2"
_cell_formula_units_Z 60
_cell_length_a 12.855836
_cell_length_b 26.473002
_cell_length_c 8.804024
_cell_angle_alpha 90.000000
_cell_angle_beta 94.870261
_cell_angle_gamma 90.000000
_cell_volume 2985.477997
_symmetry_space_group_name_H-M "C 2/C"
_symmetry_group_IT_number 15
_symmetry_cell_setting 'monoclinic'
loop_
_space_group_symop_operation_xyz
x,y,z
-x,y,1/2-z
-x,-y,-z
x,-y,1/2+z
1/2+x,1/2+y,z
1/2-x,1/2+y,1/2-z
1/2-x,1/2-y,-z
1/2+x,1/2-y,1/2+z
loop_
_atom_site_type_symbol
_atom_site_label
_atom_site_fract_x
_atom_site_fract_y
_atom_site_fract_z
Si Si1 0.638559 0.537611 0.892042
Si Si2 0.292086 0.752776 0.176324
Si Si3 0.619189 0.358509 0.818000
Si Si4 0.447390 0.820421 0.575419
Si Si5 0.728251 0.624227 0.051464
Si Si6 0.500000 0.818558 0.250000
Si Si7 0.100172 0.790919 0.360524
Si Si8 0.090905 0.063159 0.542069
O O1 0.626096 0.548234 0.713548
O O2 0.534580 0.558486 0.965500
O O3 0.732624 0.572532 0.958719
O O4 0.636165 0.479047 0.934054
O O5 0.335137 0.696590 0.202904
O O6 0.390808 0.788385 0.220212
O O7 0.195733 0.769980 0.269673
O O8 0.250000 0.750000 0.000000
O O9 0.500000 0.360154 0.750000
O O10 0.688371 0.390932 0.712147
O O11 0.623430 0.381912 0.986174
O O12 0.500000 0.827152 0.750000
O O13 0.334661 0.845394 0.573046
O O14 0.494043 0.841714 0.421781
O O15 0.438524 0.759194 0.554432
O O16 0.645295 0.663013 0.963566
O O17 0.000000 0.807679 0.250000
#
# Coordination Sequence:
#
# PCOD9288035 Si02
#       8
#     8   8   8   8   8   4   8   8
#     4  10  22  38  62  90 128 170 203 264 324 404
#     4  12  25  39  62  92 131 177 229 275 328 387
#     4  12  24  36  58  92 127 169 216 265 321 395
#     4  11  24  44  62  89 130 178 225 279 328 381
#     4  12  23  39  63  91 129 174 217 266 332 389
#     4  12  24  42  64  88 130 180 230 278 320 384
#     4  11  24  40  59  89 134 178 220 269 330 392
#     4  10  22  39  59  91 131 164 210 257 329 399
#
# _framework density 20.097283000000001
#
# number of rings (size 3 to 8) (size 9 to 14) (size 15 to 20)
#    0.000    0.800    4.667    3.600    7.467    0.000 
#    0.000    0.000    0.000    0.000    0.000    3.733 
#    2.000    0.000    0.000    0.000    0.000    0.000 
#
# Total GULP energy -167469.394070 kJ/mol
# GULP energy per Si atom -5582.313136 kJ/mol
# Density = 2.005154 g / cm^3
# Si number density = 20.097283 Si / 1000 Ang^3
#
#
#
# Elastic Constant Matrix: (Units=GPa)
#
#
# Indices 1 2 3 4 5 6 
#
# 1 84.6784 20.1314 34.0472 0.0000 8.4873 0.0000
# 2 20.1314 55.1762 24.3180 0.0000 -2.8670 0.0000
# 3 34.0472 24.3180 112.4451 0.0000 -7.0398 0.0000
# 4 0.0000 0.0000 0.0000 33.2609 0.0000 -4.1863
# 5 8.4873 -2.8670 -7.0398 0.0000 30.0289 0.0000
# 6 0.0000 0.0000 0.0000 -4.1863 0.0000 12.5649
#
#
#
# Elastic Compliance Matrix: (Units=1/GPa)
#
#
# Indices 1 2 3 4 5 6 
#
# 1 0.014917 -0.003965 -0.004006 0.000000 -0.005534 0.000000
# 2 -0.003965 0.021112 -0.003216 0.000000 0.002382 0.000000
# 3 -0.004006 -0.003216 0.011015 0.000000 0.003407 0.000000
# 4 0.000000 0.000000 0.000000 0.031381 0.000000 0.010455
# 5 -0.005534 0.002382 0.003407 0.000000 0.035892 0.000000
# 6 0.000000 0.000000 0.000000 0.010455 0.000000 0.083070
#
#
# Mechanical properties :
#
#
# Convention : Reuss Voigt Hill
#
# Bulk Modulus (GPa) = 40.53411 45.47699 43.00555
# Shear Modulus (GPa) = 21.93141 26.75782 24.34461
#
# Velocity S-wave (km/s) = 3.30701 3.65281 3.48420
# Velocity P-wave (km/s) = 5.89869 6.36147 6.13444
#
# Compressibility (1/GPa) = 0.02467058
#
# Stress axis : x y z
#
# Youngs Moduli (GPa) = 67.03642 47.36749 90.78529
#
# Poissons Ratio (x) = 0.18780 0.36367
# Poissons Ratio (y) = 0.26578 0.29197
# Poissons Ratio (z) = 0.26854 0.15234
#
# Static dielectric constant tensor:
#      x y z
#    x 1.700740 0.000000 0.008550 
#    y 0.000000 1.737410 0.000000 
#    z 0.008550 0.000000 1.832610 
# 
# From -- ./inp_files/34289.got.cif
#   From: 2010.05.17/outbox.cif.g08.bks.cpg/sg15_18_cif.got.tgz:34289.got - 2010.06.03 18:47:42.
