data_PCOD9288450
_publ_section_title
;
Structure prediction by ZEFSAII (Michael W. Deem and Ramdas Pophale) SiO2 
 PCOD9288450
Probable space group: C 2/C
;
_chemical_formula_sum "Si O2"
_cell_formula_units_Z 48
_cell_length_a 30.404971
_cell_length_b 5.187627
_cell_length_c 15.146773
_cell_angle_alpha 90.000000
_cell_angle_beta 63.166159
_cell_angle_gamma 90.000000
_cell_volume 2131.835878
_symmetry_space_group_name_H-M "C 2/C"
_symmetry_group_IT_number 15
_symmetry_cell_setting 'monoclinic'
loop_
_space_group_symop_operation_xyz
x,y,z
-x,y,1/2-z
-x,-y,-z
x,-y,1/2+z
1/2+x,1/2+y,z
1/2-x,1/2+y,1/2-z
1/2-x,1/2-y,-z
1/2+x,1/2-y,1/2+z
loop_
_atom_site_type_symbol
_atom_site_label
_atom_site_fract_x
_atom_site_fract_y
_atom_site_fract_z
Si Si1 0.561703 0.971312 0.107560
Si Si2 0.657250 0.273638 0.432851
Si Si3 0.780163 0.501425 0.002798
Si Si4 0.109604 0.058345 0.805303
Si Si5 0.863495 0.833625 0.404152
Si Si6 0.049544 0.580872 0.824247
O O1 0.508850 0.950035 0.110439
O O2 0.556439 0.863542 0.212482
O O3 0.582461 0.258605 0.108822
O O4 0.604293 0.845231 0.009915
O O5 0.701020 0.072912 0.414850
O O6 0.649856 0.380347 0.342451
O O7 0.663168 0.510081 0.495177
O O8 0.750000 0.750000 0.000000
O O9 0.833770 0.431643 0.912511
O O10 0.750000 0.250000 0.000000
O O11 0.135223 0.015912 0.687782
O O12 0.076434 0.313327 0.821841
O O13 0.075168 0.812326 0.854184
#
# Coordination Sequence:
#
# PCOD9288450 Si02
#       6
#     8   8   8   8   8   8
#     4   9  21  37  63  88 128 177 216 264 317 369
#     4  11  23  41  67  93 128 167 216 262 327 389
#     4  11  23  43  72  94 118 159 205 261 328 396
#     4  11  25  39  62  94 131 172 214 264 317 373
#     4  10  22  44  65  93 132 170 210 271 330 380
#     4  10  22  39  59  91 130 172 223 262 308 376
#
# _framework density 22.515806999999999
#
# number of rings (size 3 to 8) (size 9 to 14) (size 15 to 20)
#    0.000    1.667    3.333    0.000    7.000    2.667 
#    0.000    1.667    0.000    0.000    0.000    0.000 
#    0.000    0.000    0.000    0.000    0.000    0.000 
#
# Total GULP energy -133845.559342 kJ/mol
# GULP energy per Si atom -5576.898306 kJ/mol
# Density = 2.246456 g / cm^3
# Si number density = 22.515807 Si / 1000 Ang^3
#
#
#
# Elastic Constant Matrix: (Units=GPa)
#
#
# Indices 1 2 3 4 5 6 
#
# 1 120.8800 48.4147 8.1999 0.0000 15.6616 0.0000
# 2 48.4147 128.6393 8.9132 0.0000 10.1446 0.0000
# 3 8.1999 8.9132 13.9138 0.0000 13.3373 0.0000
# 4 0.0000 0.0000 0.0000 15.7314 0.0000 2.2385
# 5 15.6616 10.1446 13.3373 0.0000 23.9470 0.0000
# 6 0.0000 0.0000 0.0000 2.2385 0.0000 41.6747
#
#
#
# Elastic Compliance Matrix: (Units=1/GPa)
#
#
# Indices 1 2 3 4 5 6 
#
# 1 0.010396 -0.003562 0.002630 0.000000 -0.006755 0.000000
# 2 -0.003562 0.009371 -0.005002 0.000000 0.001146 0.000000
# 3 0.002630 -0.005002 0.156915 0.000000 -0.086995 0.000000
# 4 0.000000 0.000000 0.000000 0.064057 0.000000 -0.003441
# 5 -0.006755 0.001146 -0.086995 0.000000 0.094143 0.000000
# 6 0.000000 0.000000 0.000000 -0.003441 0.000000 0.024180
#
#
# Mechanical properties :
#
#
# Convention : Reuss Voigt Hill
#
# Bulk Modulus (GPa) = 6.06743 43.83207 24.94975
# Shear Modulus (GPa) = 11.74074 29.46431 20.60253
#
# Velocity S-wave (km/s) = 2.28599 3.62139 3.02822
# Velocity P-wave (km/s) = 3.10939 6.08239 4.83031
#
# Compressibility (1/GPa) = 0.16481442
#
# Stress axis : x y z
#
# Youngs Moduli (GPa) = 96.18905 106.71717 6.37287
#
# Poissons Ratio (x) = 0.38015 -0.01676
# Poissons Ratio (y) = 0.34265 0.03188
# Poissons Ratio (z) = -0.25300 0.53377
#
# Static dielectric constant tensor:
#      x y z
#    x 1.913920 0.000000 0.002520 
#    y 0.000000 1.927750 0.000000 
#    z 0.002520 0.000000 1.881430 
# 
# From -- ./inp_files/179961.got.cif
#   From: 2010.05.17/outbox.cif.g08.bks.cpg/sg15_90_cif.got.tgz:179961.got - 2010.06.03 18:47:42.
