data_PCOD9288375
_publ_section_title
;
Structure prediction by ZEFSAII (Michael W. Deem and Ramdas Pophale) SiO2 
 PCOD9288375
Probable space group: C 2/C
;
_chemical_formula_sum "Si O2"
_cell_formula_units_Z 52
_cell_length_a 16.752081
_cell_length_b 9.494720
_cell_length_c 27.972027
_cell_angle_alpha 90.000000
_cell_angle_beta 38.255426
_cell_angle_gamma 90.000000
_cell_volume 2754.758872
_symmetry_space_group_name_H-M "C 2/C"
_symmetry_group_IT_number 15
_symmetry_cell_setting 'monoclinic'
loop_
_space_group_symop_operation_xyz
x,y,z
-x,y,1/2-z
-x,-y,-z
x,-y,1/2+z
1/2+x,1/2+y,z
1/2-x,1/2+y,1/2-z
1/2-x,1/2-y,-z
1/2+x,1/2-y,1/2+z
loop_
_atom_site_type_symbol
_atom_site_label
_atom_site_fract_x
_atom_site_fract_y
_atom_site_fract_z
Si Si1 0.500000 0.943612 0.750000
Si Si2 0.766842 0.705106 0.316920
Si Si3 0.968047 0.010309 0.570648
Si Si4 0.436838 0.059898 0.577834
Si Si5 0.052260 0.278168 0.275207
Si Si6 0.842979 0.721283 0.171299
Si Si7 0.896433 0.781412 0.941473
O O1 0.625613 0.847901 0.696600
O O2 0.485131 0.055868 0.713347
O O3 0.661277 0.581503 0.359647
O O4 0.687174 0.840204 0.372191
O O5 0.826376 0.734151 0.236339
O O6 0.082994 0.930552 0.543060
O O7 0.940499 0.164290 0.603599
O O8 0.000000 0.000000 0.500000
O O9 0.539644 0.161003 0.555639
O O10 0.500000 0.000000 0.500000
O O11 0.390876 0.932525 0.633235
O O12 0.203278 0.254452 0.213108
O O13 0.000000 0.215098 0.250000
O O14 0.977151 0.216843 0.354952
O O15 0.750000 0.750000 0.000000
#
# Coordination Sequence:
#
# PCOD9288375 Si02
#       7
#     4   8   8   8   8   8   8
#     4  10  22  40  66 100 122 166 224 268 328 384
#     4  11  22  42  67  91 129 170 219 273 318 395
#     4  11  23  41  70  94 126 179 219 258 332 403
#     4  11  25  42  63  94 136 170 209 274 339 380
#     4  10  22  38  72  94 125 170 224 274 314 389
#     4  12  21  44  67  96 127 175 223 271 331 390
#     4  11  25  44  64  97 131 170 221 269 325 394
#
# _framework density 18.876425000000001
#
# number of rings (size 3 to 8) (size 9 to 14) (size 15 to 20)
#    0.462    0.615    4.615    3.692    6.462    0.000 
#    4.154    0.769    0.000    0.000    0.000    0.000 
#    0.000    0.000    0.000    0.000    0.000    0.000 
#
# Total GULP energy -145149.231037 kJ/mol
# GULP energy per Si atom -5582.662732 kJ/mol
# Density = 1.883346 g / cm^3
# Si number density = 18.876425 Si / 1000 Ang^3
#
#
#
# Elastic Constant Matrix: (Units=GPa)
#
#
# Indices 1 2 3 4 5 6 
#
# 1 92.5725 11.8364 14.5012 0.0000 -15.6255 0.0001
# 2 11.8364 76.0107 4.0453 0.0000 -7.5317 0.0002
# 3 14.5012 4.0453 66.2256 0.0000 16.3912 0.0000
# 4 0.0000 0.0000 0.0000 25.8941 0.0000 0.3121
# 5 -15.6255 -7.5317 16.3912 0.0000 40.8703 0.0000
# 6 0.0001 0.0002 0.0000 0.3121 0.0000 33.3559
#
#
#
# Elastic Compliance Matrix: (Units=1/GPa)
#
#
# Indices 1 2 3 4 5 6 
#
# 1 0.012691 -0.001117 -0.004286 0.000000 0.006365 0.000000
# 2 -0.001117 0.013651 -0.001228 0.000000 0.002581 0.000000
# 3 -0.004286 -0.001228 0.018402 0.000000 -0.009245 0.000000
# 4 0.000000 0.000000 0.000000 0.038623 0.000000 -0.000361
# 5 0.006365 0.002581 -0.009245 0.000000 0.031084 0.000000
# 6 0.000000 0.000000 0.000000 -0.000361 0.000000 0.029983
#
#
# Mechanical properties :
#
#
# Convention : Reuss Voigt Hill
#
# Bulk Modulus (GPa) = 31.76535 32.84161 32.30348
# Shear Modulus (GPa) = 29.72813 33.65246 31.69029
#
# Velocity S-wave (km/s) = 3.97278 4.22688 4.10180
# Velocity P-wave (km/s) = 6.15700 6.42324 6.29152
#
# Compressibility (1/GPa) = 0.03148084
#
# Stress axis : x y z
#
# Youngs Moduli (GPa) = 78.79623 73.25395 54.34318
#
# Poissons Ratio (x) = 0.08186 0.23292
# Poissons Ratio (y) = 0.08805 0.06673
# Poissons Ratio (z) = 0.33772 0.08995
#
# Static dielectric constant tensor:
#      x y z
#    x 1.651610 0.000000 -0.018070 
#    y 0.000000 1.689560 0.000000 
#    z -0.018070 0.000000 1.634850 
# 
# From -- ./inp_files/298345.got.cif
#   From: 2010.05.17/outbox.cif.g08.bks.cpg/sg15_150_cif.got.tgz:298345.got - 2010.06.03 18:47:42.
