data_PCOD9288840
_publ_section_title
;
Structure prediction by ZEFSAII (Michael W. Deem and Ramdas Pophale) SiO2 
 PCOD9288840
Probable space group: C 2/C
;
_chemical_formula_sum "Si O2"
_cell_formula_units_Z 56
_cell_length_a 8.841062
_cell_length_b 27.150849
_cell_length_c 14.458788
_cell_angle_alpha 90.000000
_cell_angle_beta 60.969829
_cell_angle_gamma 90.000000
_cell_volume 3034.674773
_symmetry_space_group_name_H-M "C 2/C"
_symmetry_group_IT_number 15
_symmetry_cell_setting 'monoclinic'
loop_
_space_group_symop_operation_xyz
x,y,z
-x,y,1/2-z
-x,-y,-z
x,-y,1/2+z
1/2+x,1/2+y,z
1/2-x,1/2+y,1/2-z
1/2-x,1/2-y,-z
1/2+x,1/2-y,1/2+z
loop_
_atom_site_type_symbol
_atom_site_label
_atom_site_fract_x
_atom_site_fract_y
_atom_site_fract_z
Si Si1 0.794829 0.436569 0.304348
Si Si2 0.035080 0.583634 0.135602
Si Si3 0.803526 0.978172 0.809802
Si Si4 0.193695 0.998450 0.480753
Si Si5 0.653140 0.823246 0.482723
Si Si6 0.495582 0.734104 0.641206
Si Si7 0.829106 0.329865 0.240045
O O1 0.719882 0.479600 0.261145
O O2 0.745999 0.445341 0.425264
O O3 0.745931 0.383843 0.279217
O O4 0.000000 0.440954 0.250000
O O5 0.177419 0.539731 0.098310
O O6 0.000000 0.602572 0.250000
O O7 0.853372 0.560169 0.155547
O O8 0.109282 0.625504 0.046024
O O9 0.000000 0.957557 0.750000
O O10 0.788314 0.002088 0.915436
O O11 0.000000 0.000000 0.500000
O O12 0.538795 0.781682 0.567580
O O13 0.622662 0.824899 0.381906
O O14 0.853419 0.805282 0.428896
O O15 0.500000 0.745548 0.750000
O O16 0.308449 0.710107 0.685011
O O17 0.000000 0.327536 0.250000
#
# Coordination Sequence:
#
# PCOD9288840 Si02
#       7
#     8   8   8   8   8   8   8
#     4  11  22  40  56  87 122 161 201 249 284 357
#     4  12  23  40  58  90 119 155 200 249 296 358
#     4  12  23  39  57  81 123 161 201 245 290 348
#     4  12  23  37  59  83 120 161 200 241 296 341
#     4  10  22  39  66  88 114 159 198 244 306 347
#     4   9  20  43  64  89 116 147 199 255 292 359
#     4  10  23  38  61  92 122 152 198 241 303 359
#
# _framework density 18.453379000000002
#
# number of rings (size 3 to 8) (size 9 to 14) (size 15 to 20)
#    0.000    1.143    4.286    1.714    6.000    2.286 
#    0.000    0.714    0.000    0.000    0.000    0.000 
#    0.000    0.000    0.000    0.000    0.000    0.000 
#
# Total GULP energy -156149.369095 kJ/mol
# GULP energy per Si atom -5576.763182 kJ/mol
# Density = 1.841138 g / cm^3
# Si number density = 18.453379 Si / 1000 Ang^3
#
#
#
# Elastic Constant Matrix: (Units=GPa)
#
#
# Indices 1 2 3 4 5 6 
#
# 1 91.9413 41.8210 26.0366 0.0000 -6.1236 0.0000
# 2 41.8210 91.9604 44.0606 0.0000 -4.9067 0.0000
# 3 26.0366 44.0606 103.9260 0.0000 -3.8317 0.0000
# 4 0.0000 0.0000 0.0000 26.0574 0.0000 5.4352
# 5 -6.1236 -4.9067 -3.8317 0.0000 27.6913 0.0000
# 6 0.0000 0.0000 0.0000 5.4352 0.0000 13.1067
#
#
#
# Elastic Compliance Matrix: (Units=1/GPa)
#
#
# Indices 1 2 3 4 5 6 
#
# 1 0.013896 -0.005751 -0.000972 0.000000 0.001919 0.000000
# 2 -0.005751 0.016100 -0.005354 0.000000 0.000840 0.000000
# 3 -0.000972 -0.005354 0.012155 0.000000 0.000518 0.000000
# 4 0.000000 0.000000 0.000000 0.042011 0.000000 -0.017421
# 5 0.001919 0.000840 0.000518 0.000000 0.036757 0.000000
# 6 0.000000 0.000000 0.000000 -0.017421 0.000000 0.083521
#
#
# Mechanical properties :
#
#
# Convention : Reuss Voigt Hill
#
# Bulk Modulus (GPa) = 55.56902 56.85156 56.21029
# Shear Modulus (GPa) = 21.31355 25.09837 23.20596
#
# Velocity S-wave (km/s) = 3.40221 3.69195 3.55004
# Velocity P-wave (km/s) = 6.75366 7.00350 6.87972
#
# Compressibility (1/GPa) = 0.01799564
#
# Stress axis : x y z
#
# Youngs Moduli (GPa) = 71.96498 62.11307 82.27239
#
# Poissons Ratio (x) = 0.35722 0.07999
# Poissons Ratio (y) = 0.41388 0.44047
# Poissons Ratio (z) = 0.06997 0.33254
#
# Static dielectric constant tensor:
#      x y z
#    x 1.601510 0.000000 0.014550 
#    y 0.000000 1.645090 0.000000 
#    z 0.014550 0.000000 1.622980 
# 
# From -- ./inp_files/137713.got.cif
#   From: 2010.05.17/outbox.cif.g08.bks.cpg/sg15_69_cif.got.tgz:137713.got - 2010.06.03 18:47:42.
