data_PCOD9288924
_publ_section_title
;
Structure prediction by ZEFSAII (Michael W. Deem and Ramdas Pophale) SiO2 
 PCOD9288924
Probable space group: C 2/C
;
_chemical_formula_sum "Si O2"
_cell_formula_units_Z 60
_cell_length_a 19.905996
_cell_length_b 18.914695
_cell_length_c 8.346421
_cell_angle_alpha 90.000000
_cell_angle_beta 70.482562
_cell_angle_gamma 90.000000
_cell_volume 2961.987795
_symmetry_space_group_name_H-M "C 2/C"
_symmetry_group_IT_number 15
_symmetry_cell_setting 'monoclinic'
loop_
_space_group_symop_operation_xyz
x,y,z
-x,y,1/2-z
-x,-y,-z
x,-y,1/2+z
1/2+x,1/2+y,z
1/2-x,1/2+y,1/2-z
1/2-x,1/2-y,-z
1/2+x,1/2-y,1/2+z
loop_
_atom_site_type_symbol
_atom_site_label
_atom_site_fract_x
_atom_site_fract_y
_atom_site_fract_z
Si Si1 0.956684 0.440238 0.944261
Si Si2 0.189340 0.482306 0.008133
Si Si3 0.684107 0.798699 0.517782
Si Si4 0.034657 0.719598 0.043230
Si Si5 0.804454 0.327815 0.629766
Si Si6 0.500000 0.302171 0.750000
Si Si7 0.840712 0.176793 0.441570
Si Si8 0.253848 0.581840 0.753767
O O1 0.957616 0.362359 0.018184
O O2 0.000000 0.428401 0.750000
O O3 0.878928 0.469006 0.963685
O O4 0.000000 0.500000 0.000000
O O5 0.173670 0.404395 0.952692
O O6 0.260554 0.524013 0.889984
O O7 0.204129 0.465184 0.179574
O O8 0.750000 0.750000 0.500000
O O9 0.615984 0.757650 0.508936
O O10 0.670871 0.829695 0.705389
O O11 0.711091 0.853654 0.365290
O O12 0.000000 0.726261 0.250000
O O13 0.002099 0.759929 0.918056
O O14 0.835343 0.256664 0.521277
O O15 0.719716 0.324980 0.650755
O O16 0.578520 0.338278 0.678126
O O17 0.813989 0.119681 0.597357
#
# Coordination Sequence:
#
# PCOD9288924 Si02
#       8
#     8   8   8   8   8   4   8   8
#     4  11  25  36  53  83 132 183 219 264 311 391
#     4  11  23  39  62  89 130 173 231 274 327 390
#     4  12  22  39  63  89 129 171 216 278 325 386
#     4  11  27  42  59  97 134 180 231 263 336 403
#     4  10  22  39  67  96 132 174 224 283 328 402
#     4  12  26  44  70  94 140 182 220 288 338 418
#     4  10  23  42  66 100 130 175 225 276 349 403
#     4  11  23  41  65  94 127 171 226 280 330 394
#
# _framework density 20.256667
#
# number of rings (size 3 to 8) (size 9 to 14) (size 15 to 20)
#    0.000    1.067    2.667    3.200   10.267    0.000 
#    0.000    0.000    0.000    3.200    0.000    0.000 
#    0.000    0.000    0.000    0.000    0.000    0.000 
#
# Total GULP energy -167171.409565 kJ/mol
# GULP energy per Si atom -5572.380319 kJ/mol
# Density = 2.021056 g / cm^3
# Si number density = 20.256667 Si / 1000 Ang^3
#
#
#
# Elastic Constant Matrix: (Units=GPa)
#
#
# Indices 1 2 3 4 5 6 
#
# 1 108.2466 15.3139 29.7885 0.0000 -7.3256 0.0000
# 2 15.3139 59.0731 17.9513 0.0000 -13.9785 0.0000
# 3 29.7885 17.9513 75.2064 0.0000 -0.0798 0.0000
# 4 0.0000 0.0000 0.0000 39.9805 0.0000 6.6290
# 5 -7.3256 -13.9785 -0.0798 0.0000 28.0218 0.0000
# 6 0.0000 0.0000 0.0000 6.6290 0.0000 13.1444
#
#
#
# Elastic Compliance Matrix: (Units=1/GPa)
#
#
# Indices 1 2 3 4 5 6 
#
# 1 0.010626 -0.001015 -0.003964 0.000000 0.002260 0.000000
# 2 -0.001015 0.021003 -0.004600 0.000000 0.010199 0.000000
# 3 -0.003964 -0.004600 0.015961 0.000000 -0.003286 0.000000
# 4 0.000000 0.000000 0.000000 0.027294 0.000000 -0.013765
# 5 0.002260 0.010199 -0.003286 0.000000 0.041356 0.000000
# 6 0.000000 0.000000 0.000000 -0.013765 0.000000 0.083020
#
#
# Mechanical properties :
#
#
# Convention : Reuss Voigt Hill
#
# Bulk Modulus (GPa) = 35.17315 40.95927 38.06621
# Shear Modulus (GPa) = 21.93990 28.19416 25.06703
#
# Velocity S-wave (km/s) = 3.29461 3.73479 3.52159
# Velocity P-wave (km/s) = 5.64571 6.23396 5.94711
#
# Compressibility (1/GPa) = 0.02843077
#
# Stress axis : x y z
#
# Youngs Moduli (GPa) = 94.11243 47.61314 62.65109
#
# Poissons Ratio (x) = 0.04833 0.24835
# Poissons Ratio (y) = 0.09554 0.28821
# Poissons Ratio (z) = 0.37306 0.21903
#
# Static dielectric constant tensor:
#      x y z
#    x 1.832580 0.000000 0.201670 
#    y 0.000000 1.578140 0.000000 
#    z 0.201670 0.000000 2.308720 
# 
# From -- ./inp_files/56572.got.cif
#   From: 2010.05.17/outbox.cif.g08.bks.cpg/sg15_29_cif.got.tgz:56572.got - 2010.06.03 18:47:42.
