data_PCOD9288137
_publ_section_title
;
Structure prediction by ZEFSAII (Michael W. Deem and Ramdas Pophale) SiO2 
 PCOD9288137
Probable space group: C 2/C
;
_chemical_formula_sum "Si O2"
_cell_formula_units_Z 60
_cell_length_a 10.607714
_cell_length_b 23.997301
_cell_length_c 11.004552
_cell_angle_alpha 90.000000
_cell_angle_beta 75.260506
_cell_angle_gamma 90.000000
_cell_volume 2709.097474
_symmetry_space_group_name_H-M "C 2/C"
_symmetry_group_IT_number 15
_symmetry_cell_setting 'monoclinic'
loop_
_space_group_symop_operation_xyz
x,y,z
-x,y,1/2-z
-x,-y,-z
x,-y,1/2+z
1/2+x,1/2+y,z
1/2-x,1/2+y,1/2-z
1/2-x,1/2-y,-z
1/2+x,1/2-y,1/2+z
loop_
_atom_site_type_symbol
_atom_site_label
_atom_site_fract_x
_atom_site_fract_y
_atom_site_fract_z
Si Si1 0.848518 0.850632 0.804297
Si Si2 0.409031 0.291594 0.457256
Si Si3 0.693807 0.466984 0.813120
Si Si4 0.569194 0.032071 0.866739
Si Si5 0.729752 0.241053 0.800839
Si Si6 0.291745 0.307061 0.058752
Si Si7 0.732824 0.596325 0.545413
Si Si8 0.000000 0.953088 0.250000
O O1 0.840106 0.909157 0.742435
O O2 0.767610 0.801041 0.763596
O O3 0.000000 0.832267 0.750000
O O4 0.796138 0.854108 0.955061
O O5 0.378590 0.246473 0.569024
O O6 0.362344 0.268882 0.340496
O O7 0.558653 0.306086 0.433752
O O8 0.310327 0.344269 0.499363
O O9 0.809594 0.494207 0.707466
O O10 0.570436 0.507738 0.831868
O O11 0.733246 0.450184 0.939300
O O12 0.500000 0.041793 0.750000
O O13 0.634619 0.087307 0.911415
O O14 0.500000 0.000000 0.000000
O O15 0.709809 0.194622 0.702492
O O16 0.250000 0.250000 0.000000
O O17 0.611830 0.583456 0.663148
#
# Coordination Sequence:
#
# PCOD9288137 Si02
#       8
#     8   8   8   8   8   8   8   4
#     4  11  19  40  65  96 133 165 221 283 339 408
#     4  11  22  42  64  92 136 174 228 280 342 419
#     4  11  21  41  69 101 133 180 222 286 353 425
#     4  11  24  48  72  96 141 182 232 285 352 430
#     4  10  22  38  64  91 128 181 216 273 344 399
#     4  10  22  38  64  94 127 172 221 281 338 394
#     4  11  23  42  70 100 134 181 227 291 358 419
#     4  10  24  36  64 110 138 164 234 288 358 426
#
# _framework density 22.147597999999999
#
# number of rings (size 3 to 8) (size 9 to 14) (size 15 to 20)
#    0.000    1.333    4.667    0.800    1.867    0.000 
#    2.400   10.000    0.000    0.000    0.000    0.000 
#    0.000    0.000    0.000    0.000    0.000    0.000 
#
# Total GULP energy -167230.656490 kJ/mol
# GULP energy per Si atom -5574.355216 kJ/mol
# Density = 2.209719 g / cm^3
# Si number density = 22.147598 Si / 1000 Ang^3
#
#
#
# Elastic Constant Matrix: (Units=GPa)
#
#
# Indices 1 2 3 4 5 6 
#
# 1 79.4559 19.0075 11.8237 0.0000 20.3728 0.0000
# 2 19.0075 36.2556 6.6843 0.0000 4.7723 0.0000
# 3 11.8237 6.6843 123.7133 0.0000 12.2491 0.0000
# 4 0.0000 0.0000 0.0000 21.5799 0.0000 7.5919
# 5 20.3728 4.7723 12.2491 0.0000 34.4781 0.0000
# 6 0.0000 0.0000 0.0000 7.5919 0.0000 20.5775
#
#
#
# Elastic Compliance Matrix: (Units=1/GPa)
#
#
# Indices 1 2 3 4 5 6 
#
# 1 0.016664 -0.007533 -0.000325 0.000000 -0.008688 0.000000
# 2 -0.007533 0.031664 -0.001034 0.000000 0.000435 0.000000
# 3 -0.000325 -0.001034 0.008434 0.000000 -0.002661 0.000000
# 4 0.000000 0.000000 0.000000 0.053251 0.000000 -0.019647
# 5 -0.008688 0.000435 -0.002661 0.000000 0.035023 0.000000
# 6 0.000000 0.000000 0.000000 -0.019647 0.000000 0.055845
#
#
# Mechanical properties :
#
#
# Convention : Reuss Voigt Hill
#
# Bulk Modulus (GPa) = 25.65570 34.93953 30.29761
# Shear Modulus (GPa) = 21.58362 28.78772 25.18567
#
# Velocity S-wave (km/s) = 3.12514 3.60920 3.37586
# Velocity P-wave (km/s) = 4.96298 5.76007 5.37632
#
# Compressibility (1/GPa) = 0.03897770
#
# Stress axis : x y z
#
# Youngs Moduli (GPa) = 60.01081 31.58124 118.57291
#
# Poissons Ratio (x) = 0.23789 0.03858
# Poissons Ratio (y) = 0.45204 0.12261
# Poissons Ratio (z) = 0.01953 0.03266
#
# Static dielectric constant tensor:
#      x y z
#    x 1.825540 0.000000 0.036200 
#    y 0.000000 1.815150 0.000000 
#    z 0.036200 0.000000 1.899060 
# 
# From -- ./inp_files/90759.got.cif
#   From: 2010.05.17/outbox.cif.g08.bks.cpg/sg15_46_cif.got.tgz:90759.got - 2010.06.03 18:47:42.
