data_PCOD9288775
_publ_section_title
;
Structure prediction by ZEFSAII (Michael W. Deem and Ramdas Pophale) SiO2 
 PCOD9288775
Probable space group: C 2/C
;
_chemical_formula_sum "Si O2"
_cell_formula_units_Z 40
_cell_length_a 16.631035
_cell_length_b 21.236019
_cell_length_c 8.773157
_cell_angle_alpha 90.000000
_cell_angle_beta 149.319032
_cell_angle_gamma 90.000000
_cell_volume 1581.020447
_symmetry_space_group_name_H-M "C 2/C"
_symmetry_group_IT_number 15
_symmetry_cell_setting 'monoclinic'
loop_
_space_group_symop_operation_xyz
x,y,z
-x,y,1/2-z
-x,-y,-z
x,-y,1/2+z
1/2+x,1/2+y,z
1/2-x,1/2+y,1/2-z
1/2-x,1/2-y,-z
1/2+x,1/2-y,1/2+z
loop_
_atom_site_type_symbol
_atom_site_label
_atom_site_fract_x
_atom_site_fract_y
_atom_site_fract_z
Si Si1 0.500000 0.506392 0.250000
Si Si2 0.063278 0.241389 0.690345
Si Si3 0.000000 0.223725 0.250000
Si Si4 0.747687 0.884968 0.309040
Si Si5 0.539280 0.931986 0.490272
Si Si6 0.347952 0.397063 0.144313
O O1 0.646786 0.553778 0.479233
O O2 0.465323 0.455774 0.327298
O O3 0.007560 0.258082 0.427109
O O4 0.046762 0.165317 0.673975
O O5 0.000000 0.267222 0.750000
O O6 0.250000 0.250000 0.000000
O O7 0.151733 0.177546 0.493634
O O8 0.583534 0.886757 0.125268
O O9 0.737360 0.893357 0.111517
O O10 0.500000 0.935650 0.250000
O O11 0.500000 0.000000 0.500000
O O12 0.718397 0.908264 0.802539
#
# Coordination Sequence:
#
# PCOD9288775 Si02
#       6
#     4   8   4   8   8   8
#     4  11  20  34  68  94 128 174 222 261 322 406
#     4  11  26  48  75 103 134 176 235 294 352 412
#     4   9  24  46  74 102 136 178 222 281 350 416
#     4  10  22  39  64  97 137 175 216 267 331 406
#     4  12  25  37  58  93 139 179 220 269 327 400
#     4  11  23  41  65  94 132 173 224 275 331 402
#
# _framework density 25.300115999999999
#
# number of rings (size 3 to 8) (size 9 to 14) (size 15 to 20)
#    0.000    1.200    3.000    2.400    2.800    5.600 
#    1.800    0.000    0.000    0.000    0.000    0.000 
#    0.000    0.000    0.000    0.000    0.000    0.000 
#
# Total GULP energy -111819.985993 kJ/mol
# GULP energy per Si atom -5590.999300 kJ/mol
# Density = 2.524253 g / cm^3
# Si number density = 25.300116 Si / 1000 Ang^3
#
#
#
# Elastic Constant Matrix: (Units=GPa)
#
#
# Indices 1 2 3 4 5 6 
#
# 1 202.5433 23.8958 63.4290 0.0000 -19.4942 0.0000
# 2 23.8958 92.3426 6.0349 0.0000 -4.0522 0.0000
# 3 63.4290 6.0349 109.7266 0.0000 -24.7148 0.0000
# 4 0.0000 0.0000 0.0000 10.0772 0.0000 -3.5598
# 5 -19.4942 -4.0522 -24.7148 0.0000 63.9188 0.0000
# 6 0.0000 0.0000 0.0000 -3.5598 0.0000 22.3103
#
#
#
# Elastic Compliance Matrix: (Units=1/GPa)
#
#
# Indices 1 2 3 4 5 6 
#
# 1 0.006212 -0.001363 -0.003405 0.000000 0.000491 0.000000
# 2 -0.001363 0.011182 0.000262 0.000000 0.000394 0.000000
# 3 -0.003405 0.000262 0.011871 0.000000 0.003568 0.000000
# 4 0.000000 0.000000 0.000000 0.105161 0.000000 0.016779
# 5 0.000491 0.000394 0.003568 0.000000 0.017199 0.000000
# 6 0.000000 0.000000 0.000000 0.016779 0.000000 0.047500
#
#
# Mechanical properties :
#
#
# Convention : Reuss Voigt Hill
#
# Bulk Modulus (GPa) = 49.37754 65.70355 57.54055
# Shear Modulus (GPa) = 23.26782 40.01144 31.63963
#
# Velocity S-wave (km/s) = 3.03590 3.98109 3.54018
# Velocity P-wave (km/s) = 5.64340 6.86718 6.28515
#
# Compressibility (1/GPa) = 0.02025212
#
# Stress axis : x y z
#
# Youngs Moduli (GPa) = 160.98644 89.42771 84.23731
#
# Poissons Ratio (x) = 0.12192 0.28684
# Poissons Ratio (y) = 0.21948 -0.02206
# Poissons Ratio (z) = 0.54817 -0.02342
#
# Static dielectric constant tensor:
#      x y z
#    x 2.016680 0.000000 -0.045090 
#    y 0.000000 2.083890 0.000000 
#    z -0.045090 0.000000 2.141720 
# 
# From -- ./inp_files/51669.got.cif
#   From: 2010.05.17/outbox.cif.g08.bks.cpg/sg15_26_cif.got.tgz:51669.got - 2010.06.03 18:47:42.
