data_PCOD9288281
_publ_section_title
;
Structure prediction by ZEFSAII (Michael W. Deem and Ramdas Pophale) SiO2 
 PCOD9288281
Probable space group: C 2/C
;
_chemical_formula_sum "Si O2"
_cell_formula_units_Z 48
_cell_length_a 28.040566
_cell_length_b 14.754569
_cell_length_c 8.719774
_cell_angle_alpha 90.000000
_cell_angle_beta 36.599700
_cell_angle_gamma 90.000000
_cell_volume 2150.926457
_symmetry_space_group_name_H-M "C 2/C"
_symmetry_group_IT_number 15
_symmetry_cell_setting 'monoclinic'
loop_
_space_group_symop_operation_xyz
x,y,z
-x,y,1/2-z
-x,-y,-z
x,-y,1/2+z
1/2+x,1/2+y,z
1/2-x,1/2+y,1/2-z
1/2-x,1/2-y,-z
1/2+x,1/2-y,1/2+z
loop_
_atom_site_type_symbol
_atom_site_label
_atom_site_fract_x
_atom_site_fract_y
_atom_site_fract_z
Si Si1 0.211939 0.111495 0.828187
Si Si2 0.474353 0.593744 0.139865
Si Si3 0.822362 0.312995 0.562024
Si Si4 0.486975 0.218024 0.462748
Si Si5 0.574779 0.920983 0.954607
Si Si6 0.718422 0.038117 0.543786
O O1 0.267218 0.075161 0.823545
O O2 0.229312 0.049415 0.636181
O O3 0.121395 0.097263 0.115415
O O4 0.219787 0.219125 0.784669
O O5 0.500000 0.600311 0.250000
O O6 0.500000 0.500000 0.000000
O O7 0.509149 0.680899 0.962273
O O8 0.866319 0.361131 0.590534
O O9 0.765513 0.383077 0.620730
O O10 0.894831 0.292777 0.255201
O O11 0.500000 0.209439 0.250000
O O12 0.539497 0.143702 0.415683
O O13 0.627290 0.003973 0.759820
O O14 0.500000 0.951947 0.250000
#
# Coordination Sequence:
#
# PCOD9288281 Si02
#       6
#     8   8   8   8   8   8
#     4  11  25  43  65  99 134 177 224 279 341 405
#     4  11  22  43  68  96 136 177 229 286 339 405
#     4  10  23  45  64  92 140 176 223 281 332 406
#     4  10  22  38  67 100 128 174 229 279 338 396
#     4  10  23  44  68  97 134 181 224 277 338 406
#     4  12  24  44  66  99 136 180 226 274 346 405
#
# _framework density 22.315964999999998
#
# number of rings (size 3 to 8) (size 9 to 14) (size 15 to 20)
#    0.000    1.333    1.667    4.500    2.333    5.333 
#    3.000    0.000    0.000    0.000    0.000    0.000 
#    0.000    0.000    0.000    0.000    0.000    0.000 
#
# Total GULP energy -134378.224817 kJ/mol
# GULP energy per Si atom -5599.092701 kJ/mol
# Density = 2.226517 g / cm^3
# Si number density = 22.315965 Si / 1000 Ang^3
#
#
#
# Elastic Constant Matrix: (Units=GPa)
#
#
# Indices 1 2 3 4 5 6 
#
# 1 63.8440 5.3871 9.3443 0.0000 14.4736 0.0000
# 2 5.3871 128.6740 25.1118 0.0000 -1.7164 0.0000
# 3 9.3443 25.1118 39.4698 0.0000 5.3403 0.0000
# 4 0.0000 0.0000 0.0000 27.0849 0.0000 -1.5421
# 5 14.4736 -1.7164 5.3403 0.0000 32.1649 0.0000
# 6 0.0000 0.0000 0.0000 -1.5421 0.0000 59.1903
#
#
#
# Elastic Compliance Matrix: (Units=1/GPa)
#
#
# Indices 1 2 3 4 5 6 
#
# 1 0.017838 -0.000254 -0.003042 0.000000 -0.007535 0.000000
# 2 -0.000254 0.008943 -0.005841 0.000000 0.001561 0.000000
# 3 -0.003042 -0.005841 0.030310 0.000000 -0.003975 0.000000
# 4 0.000000 0.000000 0.000000 0.036976 0.000000 0.000963
# 5 -0.007535 0.001561 -0.003975 0.000000 0.035224 0.000000
# 6 0.000000 0.000000 0.000000 0.000963 0.000000 0.016920
#
#
# Mechanical properties :
#
#
# Convention : Reuss Voigt Hill
#
# Bulk Modulus (GPa) = 25.76152 34.63047 30.19599
# Shear Modulus (GPa) = 28.18119 36.49764 32.33941
#
# Velocity S-wave (km/s) = 3.55748 4.04851 3.81091
# Velocity P-wave (km/s) = 5.33322 6.11603 5.73799
#
# Compressibility (1/GPa) = 0.03881759
#
# Stress axis : x y z
#
# Youngs Moduli (GPa) = 56.05969 111.82020 32.99232
#
# Poissons Ratio (x) = 0.02836 0.10037
# Poissons Ratio (y) = 0.01422 0.19271
# Poissons Ratio (z) = 0.17055 0.65313
#
# Static dielectric constant tensor:
#      x y z
#    x 1.810680 0.000000 -0.009860 
#    y 0.000000 1.829420 0.000000 
#    z -0.009860 0.000000 1.809960 
# 
# From -- ./inp_files/66425.got.cif
#   From: 2010.05.17/outbox.cif.g08.bks.cpg/sg15_34_cif.got.tgz:66425.got - 2010.06.03 18:47:42.
