data_PCOD9288467
_publ_section_title
;
Structure prediction by ZEFSAII (Michael W. Deem and Ramdas Pophale) SiO2 
 PCOD9288467
Probable space group: C 2/C
;
_chemical_formula_sum "Si O2"
_cell_formula_units_Z 40
_cell_length_a 9.763939
_cell_length_b 19.196863
_cell_length_c 25.184160
_cell_angle_alpha 90.000000
_cell_angle_beta 154.508721
_cell_angle_gamma 90.000000
_cell_volume 2031.554727
_symmetry_space_group_name_H-M "C 2/C"
_symmetry_group_IT_number 15
_symmetry_cell_setting 'monoclinic'
loop_
_space_group_symop_operation_xyz
x,y,z
-x,y,1/2-z
-x,-y,-z
x,-y,1/2+z
1/2+x,1/2+y,z
1/2-x,1/2+y,1/2-z
1/2-x,1/2-y,-z
1/2+x,1/2-y,1/2+z
loop_
_atom_site_type_symbol
_atom_site_label
_atom_site_fract_x
_atom_site_fract_y
_atom_site_fract_z
Si Si1 0.729524 0.273802 0.932315
Si Si2 0.733560 0.373998 0.780434
Si Si3 0.107589 0.968389 0.226843
Si Si4 0.559185 0.857159 0.213281
Si Si5 0.738975 0.144336 0.541994
O O1 0.413868 0.320246 0.812479
O O2 0.688713 0.202840 0.884935
O O3 0.750000 0.250000 0.000000
O O4 0.020117 0.317900 0.009147
O O5 0.500000 0.369713 0.750000
O O6 0.700049 0.452529 0.747617
O O7 0.069303 0.357956 0.925636
O O8 0.826383 0.934291 0.092575
O O9 0.000000 0.963637 0.250000
O O10 0.400953 0.916499 0.316969
O O11 0.500000 0.889786 0.250000
O O12 0.911310 0.822547 0.338142
#
# Coordination Sequence:
#
# PCOD9288467 Si02
#       5
#     8   8   8   8   8
#     4  11  22  35  60  90 118 153 206 254 296 349
#     4   9  19  36  60  92 115 156 204 241 297 361
#     4   9  19  36  62  88 120 152 198 245 292 348
#     4  10  22  39  60  85 121 162 196 238 305 358
#     4   9  21  38  60  86 121 155 200 243 301 349
#
# _framework density 19.689354000000002
#
# number of rings (size 3 to 8) (size 9 to 14) (size 15 to 20)
#    1.200    1.200    0.000    3.000    0.000   12.000 
#    0.000    1.000    4.400    0.000    0.000    0.000 
#    0.000    0.000    0.000    0.000    0.000    0.000 
#
# Total GULP energy -111351.236609 kJ/mol
# GULP energy per Si atom -5567.561830 kJ/mol
# Density = 1.964454 g / cm^3
# Si number density = 19.689354 Si / 1000 Ang^3
#
#
#
# Elastic Constant Matrix: (Units=GPa)
#
#
# Indices 1 2 3 4 5 6 
#
# 1 58.8984 26.9791 16.2113 -0.0020 -9.1455 -0.0005
# 2 26.9791 99.5761 17.2592 -0.0063 -18.1117 -0.0121
# 3 16.2113 17.2592 65.1620 -0.0083 -13.4918 -0.0271
# 4 -0.0020 -0.0063 -0.0083 24.9262 -0.0095 -13.6673
# 5 -9.1455 -18.1117 -13.4918 -0.0095 22.1706 -0.0064
# 6 -0.0005 -0.0121 -0.0271 -13.6673 -0.0064 10.9697
#
#
#
# Elastic Compliance Matrix: (Units=1/GPa)
#
#
# Indices 1 2 3 4 5 6 
#
# 1 0.020352 -0.004439 -0.003318 -0.000017 0.002750 -0.000032
# 2 -0.004439 0.012859 -0.000579 0.000049 0.008322 0.000078
# 3 -0.003318 -0.000579 0.018243 0.000115 0.009260 0.000193
# 4 -0.000017 0.000049 0.000115 0.126617 0.000202 0.157755
# 5 0.002750 0.008322 0.009260 0.000202 0.058673 0.000318
# 6 -0.000032 0.000078 0.000193 0.157755 0.000318 0.287710
#
#
# Mechanical properties :
#
#
# Convention : Reuss Voigt Hill
#
# Bulk Modulus (GPa) = 28.75017 38.28175 33.51596
# Shear Modulus (GPa) = 9.04618 22.49242 15.76930
#
# Velocity S-wave (km/s) = 2.14579 3.38356 2.83310
# Velocity P-wave (km/s) = 4.55772 5.89488 5.26889
#
# Compressibility (1/GPa) = 0.03478241
#
# Stress axis : x y z
#
# Youngs Moduli (GPa) = 49.13536 77.76546 54.81697
#
# Poissons Ratio (x) = 0.34519 0.18189
# Poissons Ratio (y) = 0.21811 0.03171
# Poissons Ratio (z) = 0.16304 0.04499
#
# Static dielectric constant tensor:
#      x y z
#    x 1.688710 0.000000 0.004590 
#    y 0.000000 1.710130 -0.000010 
#    z 0.004590 -0.000010 1.755780 
# 
# From -- ./inp_files/266202.got.cif
#   From: 2010.05.17/outbox.cif.g08.bks.cpg/sg15_134_cif.got.tgz:266202.got - 2010.06.03 18:47:42.
