data_PCOD9288983
_publ_section_title
;
Structure prediction by ZEFSAII (Michael W. Deem and Ramdas Pophale) SiO2 
 PCOD9288983
Probable space group: C 2/C
;
_chemical_formula_sum "Si O2"
_cell_formula_units_Z 64
_cell_length_a 19.016952
_cell_length_b 13.593536
_cell_length_c 18.683263
_cell_angle_alpha 90.000000
_cell_angle_beta 38.190577
_cell_angle_gamma 90.000000
_cell_volume 2986.143511
_symmetry_space_group_name_H-M "C 2/C"
_symmetry_group_IT_number 15
_symmetry_cell_setting 'monoclinic'
loop_
_space_group_symop_operation_xyz
x,y,z
-x,y,1/2-z
-x,-y,-z
x,-y,1/2+z
1/2+x,1/2+y,z
1/2-x,1/2+y,1/2-z
1/2-x,1/2-y,-z
1/2+x,1/2-y,1/2+z
loop_
_atom_site_type_symbol
_atom_site_label
_atom_site_fract_x
_atom_site_fract_y
_atom_site_fract_z
Si Si1 0.794861 0.924749 0.363977
Si Si2 0.181921 0.648111 0.258260
Si Si3 0.933316 0.065155 0.493001
Si Si4 0.719570 0.199308 0.711012
Si Si5 0.412530 0.638195 0.254369
Si Si6 0.620177 0.044619 0.881628
Si Si7 0.986602 0.756381 0.182057
Si Si8 0.193802 0.892486 0.985757
O O1 0.692764 0.917138 0.390190
O O2 0.892853 0.844573 0.266842
O O3 0.754803 0.908997 0.477317
O O4 0.849325 0.033732 0.315730
O O5 0.247743 0.728381 0.250662
O O6 0.189942 0.546466 0.292676
O O7 0.054356 0.685634 0.347884
O O8 0.224806 0.635801 0.143522
O O9 0.832442 0.134750 0.603688
O O10 0.020395 0.127395 0.374843
O O11 0.874121 0.988511 0.486153
O O12 0.000000 0.000000 0.500000
O O13 0.673524 0.270035 0.685217
O O14 0.621870 0.126752 0.818600
O O15 0.500000 0.651743 0.250000
O O16 0.500000 0.000000 0.000000
O O17 0.000000 0.710264 0.250000
O O18 0.103069 0.806556 0.067674
#
# Coordination Sequence:
#
# PCOD9288983 Si02
#       8
#     8   8   8   8   8   8   8   8
#     4  11  21  47  70 101 141 176 232 297 340 414
#     4  12  25  43  68 100 140 180 236 284 343 422
#     4  12  23  44  74 100 137 192 236 287 344 415
#     4  12  27  45  68 105 140 183 246 283 342 433
#     4  12  24  44  75 107 142 181 235 295 350 411
#     4  12  28  47  65  99 143 185 222 293 365 409
#     4  10  22  39  70 102 132 176 234 285 344 406
#     4  11  23  42  73 102 134 184 234 291 349 403
#
# _framework density 21.432326
#
# number of rings (size 3 to 8) (size 9 to 14) (size 15 to 20)
#    0.000    0.500    6.250    2.625    3.500    3.500 
#    2.250    0.625    0.000    0.000    0.000    0.000 
#    0.000    0.000    0.000    0.000    0.000    0.000 
#
# Total GULP energy -179032.449248 kJ/mol
# GULP energy per Si atom -5594.764039 kJ/mol
# Density = 2.138355 g / cm^3
# Si number density = 21.432326 Si / 1000 Ang^3
#
#
#
# Elastic Constant Matrix: (Units=GPa)
#
#
# Indices 1 2 3 4 5 6 
#
# 1 116.9198 20.7321 19.2098 0.0000 6.7639 0.0000
# 2 20.7321 69.7637 9.4673 0.0000 2.8226 0.0000
# 3 19.2098 9.4673 91.1089 0.0000 10.6856 0.0000
# 4 0.0000 0.0000 0.0000 29.7153 0.0000 -3.5640
# 5 6.7639 2.8226 10.6856 0.0000 27.7662 0.0000
# 6 0.0000 0.0000 0.0000 -3.5640 0.0000 40.2452
#
#
#
# Elastic Compliance Matrix: (Units=1/GPa)
#
#
# Indices 1 2 3 4 5 6 
#
# 1 0.009333 -0.002507 -0.001540 0.000000 -0.001426 0.000000
# 2 -0.002507 0.015236 -0.000989 0.000000 -0.000557 0.000000
# 3 -0.001540 -0.000989 0.011884 0.000000 -0.004098 0.000000
# 4 0.000000 0.000000 0.000000 0.034014 0.000000 0.003012
# 5 -0.001426 -0.000557 -0.004098 0.000000 0.037996 0.000000
# 6 0.000000 0.000000 0.000000 0.003012 0.000000 0.025114
#
#
# Mechanical properties :
#
#
# Convention : Reuss Voigt Hill
#
# Bulk Modulus (GPa) = 37.90681 41.84562 39.87622
# Shear Modulus (GPa) = 32.79915 34.77088 33.78501
#
# Velocity S-wave (km/s) = 3.91622 4.03222 3.97464
# Velocity P-wave (km/s) = 6.17853 6.42225 6.30157
#
# Compressibility (1/GPa) = 0.02638048
#
# Stress axis : x y z
#
# Youngs Moduli (GPa) = 107.14775 65.63454 84.14691
#
# Poissons Ratio (x) = 0.16453 0.12959
# Poissons Ratio (y) = 0.26860 0.08324
# Poissons Ratio (z) = 0.16501 0.06493
#
# Static dielectric constant tensor:
#      x y z
#    x 1.780500 0.000000 -0.025820 
#    y 0.000000 1.788830 0.000000 
#    z -0.025820 0.000000 1.825600 
# 
# From -- ./inp_files/211360.got.cif
#   From: 2010.05.17/outbox.cif.g08.bks.cpg/sg15_106_cif.got.tgz:211360.got - 2010.06.03 18:47:42.
