data_PCOD9288694
_publ_section_title
;
Structure prediction by ZEFSAII (Michael W. Deem and Ramdas Pophale) SiO2 
 PCOD9288694
Probable space group: C 2/C
;
_chemical_formula_sum "Si O2"
_cell_formula_units_Z 60
_cell_length_a 11.338864
_cell_length_b 16.526418
_cell_length_c 27.378767
_cell_angle_alpha 90.000000
_cell_angle_beta 33.063620
_cell_angle_gamma 90.000000
_cell_volume 2799.062522
_symmetry_space_group_name_H-M "C 2/C"
_symmetry_group_IT_number 15
_symmetry_cell_setting 'monoclinic'
loop_
_space_group_symop_operation_xyz
x,y,z
-x,y,1/2-z
-x,-y,-z
x,-y,1/2+z
1/2+x,1/2+y,z
1/2-x,1/2+y,1/2-z
1/2-x,1/2-y,-z
1/2+x,1/2-y,1/2+z
loop_
_atom_site_type_symbol
_atom_site_label
_atom_site_fract_x
_atom_site_fract_y
_atom_site_fract_z
Si Si1 0.500000 0.735474 0.750000
Si Si2 0.501277 0.669900 0.329831
Si Si3 0.819169 0.664436 0.892500
Si Si4 0.467422 0.905264 0.520931
Si Si5 0.896861 0.163513 0.091001
Si Si6 0.603491 0.068414 0.349724
Si Si7 0.669644 0.011599 0.147797
Si Si8 0.340387 0.886100 0.146141
O O1 0.334526 0.793745 0.835789
O O2 0.350966 0.673477 0.771179
O O3 0.452077 0.759467 0.326597
O O4 0.282459 0.618902 0.399028
O O5 0.543643 0.676784 0.373157
O O6 0.705491 0.626119 0.234990
O O7 0.793902 0.584237 0.869091
O O8 0.947934 0.634539 0.896012
O O9 0.585996 0.694997 0.990911
O O10 0.513074 0.893624 0.562416
O O11 0.609892 0.867897 0.427938
O O12 0.500000 0.000000 0.500000
O O13 0.873430 0.067605 0.089362
O O14 0.437966 0.046070 0.364201
O O15 0.704659 0.980918 0.330116
O O16 0.500000 0.024984 0.250000
#
# Coordination Sequence:
#
# PCOD9288694 Si02
#       8
#     4   8   8   8   8   8   8   8
#     4  12  22  36  70  98 132 168 230 270 320 404
#     4  12  21  40  68  98 129 178 228 272 331 404
#     4  11  24  42  68  99 133 172 227 277 332 406
#     4  10  22  39  63  94 133 171 220 272 333 399
#     4  12  22  42  69 100 126 178 222 278 331 402
#     4  10  23  40  65  98 134 173 223 273 336 400
#     4  11  23  44  67 101 135 175 224 277 342 405
#     4  10  22  40  63 101 132 172 219 277 333 396
#
# _framework density 21.435749000000001
#
# number of rings (size 3 to 8) (size 9 to 14) (size 15 to 20)
#    0.000    1.067    4.667    2.000    3.733    1.067 
#    0.000    0.000    0.000    4.000    0.000    0.000 
#    0.000    0.000    0.000    0.000    0.000    0.000 
#
# Total GULP energy -167562.691761 kJ/mol
# GULP energy per Si atom -5585.423059 kJ/mol
# Density = 2.138696 g / cm^3
# Si number density = 21.435749 Si / 1000 Ang^3
#
#
#
# Elastic Constant Matrix: (Units=GPa)
#
#
# Indices 1 2 3 4 5 6 
#
# 1 42.8836 -3.3473 -0.0841 -0.0019 7.1326 0.0020
# 2 -3.3473 119.0999 1.2889 -0.0017 -12.4291 0.0020
# 3 -0.0841 1.2889 47.9848 0.0194 -0.3700 -0.0071
# 4 -0.0019 -0.0017 0.0194 24.4831 -0.0040 -12.8198
# 5 7.1326 -12.4291 -0.3700 -0.0040 29.9650 0.0001
# 6 0.0020 0.0020 -0.0071 -12.8198 0.0001 30.2216
#
#
#
# Elastic Compliance Matrix: (Units=1/GPa)
#
#
# Indices 1 2 3 4 5 6 
#
# 1 0.024281 0.000083 -0.000004 0.000000 -0.005745 -0.000002
# 2 0.000083 0.008779 -0.000208 0.000001 0.003619 0.000000
# 3 -0.000004 -0.000208 0.020847 -0.000018 0.000172 -0.000003
# 4 0.000000 0.000001 -0.000018 0.052507 0.000007 0.022273
# 5 -0.005745 0.003619 0.000172 0.000007 0.036243 0.000003
# 6 -0.000002 0.000000 -0.000003 0.022273 0.000003 0.042537
#
#
# Mechanical properties :
#
#
# Convention : Reuss Voigt Hill
#
# Bulk Modulus (GPa) = 18.63977 22.85370 20.74673
# Shear Modulus (GPa) = 24.59007 31.07466 27.83236
#
# Velocity S-wave (km/s) = 3.39064 3.81158 3.60725
# Velocity P-wave (km/s) = 4.90338 5.48229 5.20089
#
# Compressibility (1/GPa) = 0.05364873
#
# Stress axis : x y z
#
# Youngs Moduli (GPa) = 41.18453 113.91392 47.96885
#
# Poissons Ratio (x) = -0.00944 0.00019
# Poissons Ratio (y) = -0.00341 0.00997
# Poissons Ratio (z) = 0.00016 0.02367
#
# Static dielectric constant tensor:
#      x y z
#    x 1.783590 0.000000 0.009030 
#    y 0.000000 1.826540 0.000000 
#    z 0.009030 0.000000 1.780700 
# 
# From -- ./inp_files/293531.got.cif
#   From: 2010.05.17/outbox.cif.g08.bks.cpg/sg15_147_cif.got.tgz:293531.got - 2010.06.03 18:47:42.
