data_PCOD9288646
_publ_section_title
;
Structure prediction by ZEFSAII (Michael W. Deem and Ramdas Pophale) SiO2 
 PCOD9288646
Probable space group: C 2/C
;
_chemical_formula_sum "Si O2"
_cell_formula_units_Z 56
_cell_length_a 21.368263
_cell_length_b 10.674265
_cell_length_c 10.679356
_cell_angle_alpha 90.000000
_cell_angle_beta 94.482040
_cell_angle_gamma 90.000000
_cell_volume 2428.410515
_symmetry_space_group_name_H-M "C 2/C"
_symmetry_group_IT_number 15
_symmetry_cell_setting 'monoclinic'
loop_
_space_group_symop_operation_xyz
x,y,z
-x,y,1/2-z
-x,-y,-z
x,-y,1/2+z
1/2+x,1/2+y,z
1/2-x,1/2+y,1/2-z
1/2-x,1/2-y,-z
1/2+x,1/2-y,1/2+z
loop_
_atom_site_type_symbol
_atom_site_label
_atom_site_fract_x
_atom_site_fract_y
_atom_site_fract_z
Si Si1 0.201584 0.605767 0.955796
Si Si2 0.951653 0.695110 0.005132
Si Si3 0.081183 0.588504 0.083609
Si Si4 0.869928 0.877134 0.868414
Si Si5 0.258870 0.798931 0.302925
Si Si6 0.821912 0.975861 0.594468
Si Si7 0.851602 0.366115 0.666028
O O1 0.209013 0.650991 0.816168
O O2 0.184322 0.458190 0.933036
O O3 0.138770 0.648362 0.015483
O O4 0.268367 0.618959 0.034541
O O5 0.900741 0.724270 0.105101
O O6 0.022506 0.682306 0.063430
O O7 0.936310 0.550508 0.966855
O O8 0.933573 0.796628 0.897342
O O9 0.104950 0.564339 0.227438
O O10 0.812890 0.777736 0.881913
O O11 0.858503 0.928577 0.724905
O O12 0.860980 0.980200 0.977656
O O13 0.222072 0.910936 0.363305
O O14 0.203041 0.702472 0.268870
#
# Coordination Sequence:
#
# PCOD9288646 Si02
#       7
#     8   8   8   8   8   8   8
#     4  11  22  38  62 104 143 169 221 292 355 424
#     4  10  22  41  65  93 135 184 228 278 352 414
#     4  10  22  39  63 100 134 173 229 287 344 426
#     4  12  24  41  66  99 143 188 230 290 354 421
#     4  12  21  38  64  97 134 179 220 283 368 410
#     4  12  23  41  62 104 146 180 232 288 354 432
#     4  11  20  37  64  95 131 176 225 283 351 420
#
# _framework density 23.060352999999999
#
# number of rings (size 3 to 8) (size 9 to 14) (size 15 to 20)
#    0.000    0.857    4.286    5.143    0.000    2.286 
#    0.000    2.143    0.000    0.857   11.143    0.000 
#    0.000    0.000    0.000    0.000    0.000    0.000 
#
# Total GULP energy -156352.848214 kJ/mol
# GULP energy per Si atom -5584.030293 kJ/mol
# Density = 2.300787 g / cm^3
# Si number density = 23.060353 Si / 1000 Ang^3
#
#
#
# Elastic Constant Matrix: (Units=GPa)
#
#
# Indices 1 2 3 4 5 6 
#
# 1 91.0458 20.0768 50.5148 0.0000 17.6481 0.0000
# 2 20.0768 31.7300 9.8869 0.0000 9.3174 0.0000
# 3 50.5148 9.8869 110.2547 0.0000 7.6394 0.0000
# 4 0.0000 0.0000 0.0000 42.6010 0.0000 7.4907
# 5 17.6481 9.3174 7.6394 0.0000 29.9910 0.0000
# 6 0.0000 0.0000 0.0000 7.4907 0.0000 31.5351
#
#
#
# Elastic Compliance Matrix: (Units=1/GPa)
#
#
# Indices 1 2 3 4 5 6 
#
# 1 0.017694 -0.007125 -0.007024 0.000000 -0.006409 0.000000
# 2 -0.007125 0.038187 0.000378 0.000000 -0.007767 0.000000
# 3 -0.007024 0.000378 0.012191 0.000000 0.000910 0.000000
# 4 0.000000 0.000000 0.000000 0.024497 0.000000 -0.005819
# 5 -0.006409 -0.007767 0.000910 0.000000 0.039296 0.000000
# 6 0.000000 0.000000 0.000000 -0.005819 0.000000 0.033093
#
#
# Mechanical properties :
#
#
# Convention : Reuss Voigt Hill
#
# Bulk Modulus (GPa) = 24.67245 43.77640 34.22443
# Shear Modulus (GPa) = 24.27076 30.99555 27.63316
#
# Velocity S-wave (km/s) = 3.24773 3.67018 3.46540
# Velocity P-wave (km/s) = 4.97855 6.08152 5.55747
#
# Compressibility (1/GPa) = 0.04053103
#
# Stress axis : x y z
#
# Youngs Moduli (GPa) = 56.51645 26.18683 82.02811
#
# Poissons Ratio (x) = 0.18658 0.57614
# Poissons Ratio (y) = 0.40268 -0.03103
# Poissons Ratio (z) = 0.39696 -0.00991
#
# Static dielectric constant tensor:
#      x y z
#    x 1.838420 0.000000 -0.013530 
#    y 0.000000 1.956140 0.000000 
#    z -0.013530 0.000000 1.903180 
# 
# From -- ./inp_files/111693.got.cif
#   From: 2010.05.17/outbox.cif.g08.bks.cpg/sg15_56_cif.got.tgz:111693.got - 2010.06.03 18:47:42.
