data_PCOD9288640
_publ_section_title
;
Structure prediction by ZEFSAII (Michael W. Deem and Ramdas Pophale) SiO2 
 PCOD9288640
Probable space group: C 2/C
;
_chemical_formula_sum "Si O2"
_cell_formula_units_Z 40
_cell_length_a 11.837913
_cell_length_b 11.374769
_cell_length_c 13.846949
_cell_angle_alpha 90.000000
_cell_angle_beta 120.338286
_cell_angle_gamma 90.000000
_cell_volume 1609.207017
_symmetry_space_group_name_H-M "C 2/C"
_symmetry_group_IT_number 15
_symmetry_cell_setting 'monoclinic'
loop_
_space_group_symop_operation_xyz
x,y,z
-x,y,1/2-z
-x,-y,-z
x,-y,1/2+z
1/2+x,1/2+y,z
1/2-x,1/2+y,1/2-z
1/2-x,1/2-y,-z
1/2+x,1/2-y,1/2+z
loop_
_atom_site_type_symbol
_atom_site_label
_atom_site_fract_x
_atom_site_fract_y
_atom_site_fract_z
Si Si1 0.885065 0.062924 0.887176
Si Si2 0.040914 0.459773 0.156756
Si Si3 0.805753 0.875559 0.163330
Si Si4 0.459363 0.803362 0.962800
Si Si5 0.223130 0.858936 0.568087
O O1 0.910903 0.072545 0.784171
O O2 0.857280 0.197006 0.905313
O O3 0.774286 0.967566 0.859915
O O4 0.000000 0.000000 0.000000
O O5 0.175878 0.405125 0.170506
O O6 0.000000 0.452130 0.250000
O O7 0.033779 0.593037 0.112926
O O8 0.942063 0.374248 0.054125
O O9 0.825782 0.736752 0.151552
O O10 0.778268 0.912456 0.040702
O O11 0.592113 0.723380 0.015819
#
# Coordination Sequence:
#
# PCOD9288640 Si02
#       5
#     8   8   8   8   8
#     4  10  22  39  62  96 131 166 216 271 334 393
#     4  10  22  40  63  90 127 168 216 269 325 391
#     4  10  22  39  67  93 126 171 219 268 329 397
#     4   9  21  40  61  90 123 169 216 264 329 392
#     4   9  21  42  62  95 126 166 223 269 321 399
#
# _framework density 24.856964000000001
#
# number of rings (size 3 to 8) (size 9 to 14) (size 15 to 20)
#    0.000    2.400    0.000    0.000    5.600    7.200 
#   10.800    2.000    0.000    0.000    0.000    0.000 
#    0.000    0.000    0.000    0.000    0.000    0.000 
#
# Total GULP energy -111362.685483 kJ/mol
# GULP energy per Si atom -5568.134274 kJ/mol
# Density = 2.480039 g / cm^3
# Si number density = 24.856964 Si / 1000 Ang^3
#
#
#
# Elastic Constant Matrix: (Units=GPa)
#
#
# Indices 1 2 3 4 5 6 
#
# 1 53.0851 34.6491 44.3393 0.0000 -22.5361 0.0000
# 2 34.6491 201.8020 104.4958 0.0000 -41.8533 0.0000
# 3 44.3393 104.4958 239.9258 0.0000 -62.5927 0.0000
# 4 0.0000 0.0000 0.0000 56.0910 0.0000 -4.3109
# 5 -22.5361 -41.8533 -62.5927 0.0000 48.2866 0.0000
# 6 0.0000 0.0000 0.0000 -4.3109 0.0000 24.6299
#
#
#
# Elastic Compliance Matrix: (Units=1/GPa)
#
#
# Indices 1 2 3 4 5 6 
#
# 1 0.024744 -0.001708 -0.001817 0.000000 0.007713 0.000000
# 2 -0.001708 0.006801 -0.001989 0.000000 0.002519 0.000000
# 3 -0.001817 -0.001989 0.007100 0.000000 0.006632 0.000000
# 4 0.000000 0.000000 0.000000 0.018071 0.000000 0.003163
# 5 0.007713 0.002519 0.006632 0.000000 0.035090 0.000000
# 6 0.000000 0.000000 0.000000 0.003163 0.000000 0.041155
#
#
# Mechanical properties :
#
#
# Convention : Reuss Voigt Hill
#
# Bulk Modulus (GPa) = 36.20885 95.75347 65.98116
# Shear Modulus (GPa) = 32.63805 46.55675 39.59740
#
# Velocity S-wave (km/s) = 3.62751 4.33250 3.99558
# Velocity P-wave (km/s) = 5.66954 7.97702 6.92013
#
# Compressibility (1/GPa) = 0.02761755
#
# Stress axis : x y z
#
# Youngs Moduli (GPa) = 40.41316 147.03328 140.84184
#
# Poissons Ratio (x) = 0.25116 0.25586
# Poissons Ratio (y) = 0.06903 0.28017
# Poissons Ratio (z) = 0.07342 0.29249
#
# Static dielectric constant tensor:
#      x y z
#    x 2.416340 0.000000 0.284350 
#    y 0.000000 1.941900 0.000000 
#    z 0.284350 0.000000 2.163210 
# 
# From -- ./inp_files/95142.got.cif
#   From: 2010.05.17/outbox.cif.g08.bks.cpg/sg15_48_cif.got.tgz:95142.got - 2010.06.03 18:47:42.
