data_PCOD9288325
_publ_section_title
;
Structure prediction by ZEFSAII (Michael W. Deem and Ramdas Pophale) SiO2 
 PCOD9288325
Probable space group: C 2/C
;
_chemical_formula_sum "Si O2"
_cell_formula_units_Z 60
_cell_length_a 17.306465
_cell_length_b 8.778427
_cell_length_c 18.460971
_cell_angle_alpha 90.000000
_cell_angle_beta 108.505755
_cell_angle_gamma 90.000000
_cell_volume 2659.632284
_symmetry_space_group_name_H-M "C 2/C"
_symmetry_group_IT_number 15
_symmetry_cell_setting 'monoclinic'
loop_
_space_group_symop_operation_xyz
x,y,z
-x,y,1/2-z
-x,-y,-z
x,-y,1/2+z
1/2+x,1/2+y,z
1/2-x,1/2+y,1/2-z
1/2-x,1/2-y,-z
1/2+x,1/2-y,1/2+z
loop_
_atom_site_type_symbol
_atom_site_label
_atom_site_fract_x
_atom_site_fract_y
_atom_site_fract_z
Si Si1 0.791018 0.384498 0.283872
Si Si2 0.712228 0.891630 0.942481
Si Si3 0.589943 0.098042 0.272225
Si Si4 0.993370 0.743767 0.495012
Si Si5 0.865713 0.501451 0.440754
Si Si6 0.519724 0.488132 0.901681
Si Si7 0.826900 0.954592 0.846744
Si Si8 0.000000 0.113249 0.750000
O O1 0.858073 0.482096 0.259692
O O2 0.794779 0.461627 0.363767
O O3 0.806317 0.207033 0.302134
O O4 0.711650 0.414529 0.213651
O O5 0.639325 0.867693 0.861466
O O6 0.784538 0.953111 0.912814
O O7 0.750000 0.750000 0.000000
O O8 0.672787 0.001103 0.990992
O O9 0.500000 0.024583 0.250000
O O10 0.564559 0.265982 0.235964
O O11 0.919911 0.647941 0.438961
O O12 0.065613 0.632512 0.542320
O O13 0.952130 0.839320 0.547692
O O14 0.035653 0.859889 0.452067
O O15 0.422457 0.469481 0.878464
O O16 0.540070 0.513279 0.824464
#
# Coordination Sequence:
#
# PCOD9288325 Si02
#       8
#     8   8   8   8   8   8   8   4
#     4  11  23  43  66  95 130 174 217 266 328 402
#     4  11  21  40  65  95 127 170 224 263 319 395
#     4   9  23  40  67  95 125 171 220 268 327 400
#     4  10  23  39  67  96 129 165 217 276 335 374
#     4  11  22  41  69  96 126 174 224 271 329 388
#     4  11  22  44  62  95 131 167 216 276 324 392
#     4  11  26  42  64  94 135 180 212 268 333 392
#     4  10  22  38  68  94 120 172 214 270 334 388
#
# _framework density 22.559508000000001
#
# number of rings (size 3 to 8) (size 9 to 14) (size 15 to 20)
#    0.400    1.067    2.667    1.600    9.333    1.067 
#    6.000    0.667    0.000    0.000    0.000    0.000 
#    0.000    0.000    0.000    0.000    0.000    0.000 
#
# Total GULP energy -167476.579474 kJ/mol
# GULP energy per Si atom -5582.552649 kJ/mol
# Density = 2.250816 g / cm^3
# Si number density = 22.559508 Si / 1000 Ang^3
#
#
#
# Elastic Constant Matrix: (Units=GPa)
#
#
# Indices 1 2 3 4 5 6 
#
# 1 65.3800 18.1833 -2.4683 0.0000 0.8193 0.0000
# 2 18.1833 54.5486 16.5426 0.0000 -16.7800 0.0000
# 3 -2.4683 16.5426 83.7656 0.0000 -9.9568 0.0000
# 4 0.0000 0.0000 0.0000 23.0999 0.0000 -4.1340
# 5 0.8193 -16.7800 -9.9568 0.0000 36.2804 0.0000
# 6 0.0000 0.0000 0.0000 -4.1340 0.0000 25.3178
#
#
#
# Elastic Compliance Matrix: (Units=1/GPa)
#
#
# Indices 1 2 3 4 5 6 
#
# 1 0.017430 -0.007313 0.001560 0.000000 -0.003348 0.000000
# 2 -0.007313 0.025276 -0.003926 0.000000 0.010778 0.000000
# 3 0.001560 -0.003926 0.012962 0.000000 0.001706 0.000000
# 4 0.000000 0.000000 0.000000 0.044593 0.000000 0.007281
# 5 -0.003348 0.010778 0.001706 0.000000 0.033092 0.000000
# 6 0.000000 0.000000 0.000000 0.007281 0.000000 0.040687
#
#
# Mechanical properties :
#
#
# Convention : Reuss Voigt Hill
#
# Bulk Modulus (GPa) = 27.54068 29.80103 28.67085
# Shear Modulus (GPa) = 24.33067 28.36874 26.34970
#
# Velocity S-wave (km/s) = 3.28763 3.54998 3.42132
# Velocity P-wave (km/s) = 5.16196 5.48104 5.32389
#
# Compressibility (1/GPa) = 0.03630992
#
# Stress axis : x y z
#
# Youngs Moduli (GPa) = 57.37260 39.56298 77.14742
#
# Poissons Ratio (x) = 0.28932 -0.12034
# Poissons Ratio (y) = 0.41957 0.30288
# Poissons Ratio (z) = -0.08949 0.15533
#
# Static dielectric constant tensor:
#      x y z
#    x 1.875350 0.000000 0.006740 
#    y 0.000000 1.833880 0.000000 
#    z 0.006740 0.000000 1.879440 
# 
# From -- ./inp_files/214320.got.cif
#   From: 2010.05.17/outbox.cif.g08.bks.cpg/sg15_108_cif.got.tgz:214320.got - 2010.06.03 18:47:42.
