data_PCOD9288492
_publ_section_title
;
Structure prediction by ZEFSAII (Michael W. Deem and Ramdas Pophale) SiO2 
 PCOD9288492
Probable space group: C 2/C
;
_chemical_formula_sum "Si O2"
_cell_formula_units_Z 40
_cell_length_a 24.544469
_cell_length_b 5.048159
_cell_length_c 10.903037
_cell_angle_alpha 90.000000
_cell_angle_beta 85.105736
_cell_angle_gamma 90.000000
_cell_volume 1346.008344
_symmetry_space_group_name_H-M "C 2/C"
_symmetry_group_IT_number 15
_symmetry_cell_setting 'monoclinic'
loop_
_space_group_symop_operation_xyz
x,y,z
-x,y,1/2-z
-x,-y,-z
x,-y,1/2+z
1/2+x,1/2+y,z
1/2-x,1/2+y,1/2-z
1/2-x,1/2-y,-z
1/2+x,1/2-y,1/2+z
loop_
_atom_site_type_symbol
_atom_site_label
_atom_site_fract_x
_atom_site_fract_y
_atom_site_fract_z
Si Si1 0.407389 0.615390 0.136373
Si Si2 0.716873 0.155311 0.146319
Si Si3 0.507244 0.792642 0.612448
Si Si4 0.379963 0.530499 0.407854
Si Si5 0.318068 0.996159 0.583472
O O1 0.465670 0.459936 0.121366
O O2 0.398047 0.679401 0.282335
O O3 0.378000 0.881869 0.093235
O O4 0.375011 0.397108 0.053569
O O5 0.672812 0.377732 0.123564
O O6 0.777925 0.237651 0.104364
O O7 0.708136 0.137775 0.292922
O O8 0.695712 0.924408 0.056328
O O9 0.500000 0.918075 0.750000
O O10 0.567437 0.669906 0.591978
O O11 0.500000 0.000000 0.500000
#
# Coordination Sequence:
#
# PCOD9288492 Si02
#       5
#     8   8   8   8   8
#     4  10  22  39  61  88 123 165 208 258 313 378
#     4  10  22  39  61  92 128 168 213 264 319 381
#     4  10  23  41  62  90 122 160 210 263 320 383
#     4  10  22  39  60  91 124 163 212 258 319 381
#     4  10  22  40  62  93 131 168 214 262 318 385
#
# _framework density 29.717496000000001
#
# number of rings (size 3 to 8) (size 9 to 14) (size 15 to 20)
#    0.000    2.000    0.000    1.800    0.000   12.000 
#    0.000    0.000    0.000    0.000    0.000    0.000 
#    0.000    0.000    0.000    0.000    0.000    0.000 
#
# Total GULP energy -111493.650530 kJ/mol
# GULP energy per Si atom -5574.682526 kJ/mol
# Density = 2.964986 g / cm^3
# Si number density = 29.717496 Si / 1000 Ang^3
#
#
#
# Elastic Constant Matrix: (Units=GPa)
#
#
# Indices 1 2 3 4 5 6 
#
# 1 116.8729 -2.4387 27.5335 0.0000 -8.0883 0.0000
# 2 -2.4387 73.6892 22.2433 0.0000 35.0749 0.0000
# 3 27.5335 22.2433 228.0550 0.0000 4.9868 0.0000
# 4 0.0000 0.0000 0.0000 56.5870 0.0000 17.7063
# 5 -8.0883 35.0749 4.9868 0.0000 39.2321 0.0000
# 6 0.0000 0.0000 0.0000 17.7063 0.0000 -18.8276
#
#
#
# Elastic Compliance Matrix: (Units=1/GPa)
#
#
# Indices 1 2 3 4 5 6 
#
# 1 0.008972 -0.000561 -0.001083 0.000000 0.002489 0.000000
# 2 -0.000561 0.024461 -0.001842 0.000000 -0.021750 0.000000
# 3 -0.001083 -0.001842 0.004677 0.000000 0.000829 0.000000
# 4 0.000000 0.000000 0.000000 0.013654 0.000000 0.012841
# 5 0.002489 -0.021750 0.000829 0.000000 0.045343 0.000000
# 6 0.000000 0.000000 0.000000 0.012841 0.000000 -0.041038
#
#
# Mechanical properties :
#
#
# Convention : Reuss Voigt Hill
#
# Bulk Modulus (GPa) = 32.11538 57.03259 44.57399
# Shear Modulus (GPa) = 68.10061 40.15023 54.12542
#
# Velocity S-wave (km/s) = 4.79226 3.67967 4.27234
# Velocity P-wave (km/s) = 6.43827 6.10627 6.27447
#
# Compressibility (1/GPa) = 0.03113773
#
# Stress axis : x y z
#
# Youngs Moduli (GPa) = 111.45841 40.88150 213.80230
#
# Poissons Ratio (x) = 0.02293 0.23153
# Poissons Ratio (y) = 0.06250 0.39393
# Poissons Ratio (z) = 0.12070 0.07532
#
# Static dielectric constant tensor:
#      x y z
#    x 2.219310 0.000000 -0.028170 
#    y 0.000000 2.171410 0.000000 
#    z -0.028170 0.000000 2.634710 
# 
# From -- ./inp_files/124793.got.cif
#   From: 2010.05.17/outbox.cif.g08.bks.cpg/sg15_63_cif.got.tgz:124793.got - 2010.06.03 18:47:42.
