data_PCOD9288163
_publ_section_title
;
Structure prediction by ZEFSAII (Michael W. Deem and Ramdas Pophale) SiO2 
 PCOD9288163
Probable space group: C 2/C
;
_chemical_formula_sum "Si O2"
_cell_formula_units_Z 32
_cell_length_a 10.632286
_cell_length_b 8.695850
_cell_length_c 21.975545
_cell_angle_alpha 90.000000
_cell_angle_beta 136.062863
_cell_angle_gamma 90.000000
_cell_volume 1409.793982
_symmetry_space_group_name_H-M "C 2/C"
_symmetry_group_IT_number 15
_symmetry_cell_setting 'monoclinic'
loop_
_space_group_symop_operation_xyz
x,y,z
-x,y,1/2-z
-x,-y,-z
x,-y,1/2+z
1/2+x,1/2+y,z
1/2-x,1/2+y,1/2-z
1/2-x,1/2-y,-z
1/2+x,1/2-y,1/2+z
loop_
_atom_site_type_symbol
_atom_site_label
_atom_site_fract_x
_atom_site_fract_y
_atom_site_fract_z
Si Si1 0.419698 0.685756 0.134920
Si Si2 0.228274 0.177386 0.674611
Si Si3 0.907650 0.120269 0.422717
Si Si4 0.913719 0.178996 0.653612
O O1 0.600029 0.762448 0.227464
O O2 0.257918 0.760026 0.117006
O O3 0.453164 0.701506 0.074847
O O4 0.402020 0.504464 0.141917
O O5 0.048992 0.232149 0.647324
O O6 0.214668 0.992845 0.663222
O O7 0.778044 0.236544 0.412710
O O8 0.000000 0.000000 0.500000
O O9 0.000000 0.207173 0.750000
#
# Coordination Sequence:
#
# PCOD9288163 Si02
#       4
#     8   8   8   8
#     4  10  22  40  64  95 123 158 216 260 304 367
#     4  10  22  38  64  95 120 162 214 254 306 370
#     4  11  26  42  62  95 132 164 203 260 320 367
#     4  11  21  38  67  90 119 165 210 258 305 368
#
# _framework density 22.698350999999999
#
# number of rings (size 3 to 8) (size 9 to 14) (size 15 to 20)
#    0.000    1.500    5.000    0.000    3.500    7.000 
#    0.000    2.500    0.000    0.000    0.000    0.000 
#    0.000    0.000    0.000    0.000    0.000    0.000 
#
# Total GULP energy -89391.691767 kJ/mol
# GULP energy per Si atom -5586.980735 kJ/mol
# Density = 2.264669 g / cm^3
# Si number density = 22.698351 Si / 1000 Ang^3
#
#
#
# Elastic Constant Matrix: (Units=GPa)
#
#
# Indices 1 2 3 4 5 6 
#
# 1 258.9113 50.3343 29.7998 0.0000 -1.0067 0.0000
# 2 50.3343 75.2992 19.4380 0.0000 22.6259 0.0000
# 3 29.7998 19.4380 53.6116 0.0000 -6.4023 0.0000
# 4 0.0000 0.0000 0.0000 22.4642 0.0000 5.1629
# 5 -1.0067 22.6259 -6.4023 0.0000 29.0411 0.0000
# 6 0.0000 0.0000 0.0000 5.1629 0.0000 48.8217
#
#
#
# Elastic Compliance Matrix: (Units=1/GPa)
#
#
# Indices 1 2 3 4 5 6 
#
# 1 0.004716 -0.003801 -0.000893 0.000000 0.002928 0.000000
# 2 -0.003801 0.024690 -0.009399 0.000000 -0.021440 0.000000
# 3 -0.000893 -0.009399 0.024061 0.000000 0.012596 0.000000
# 4 0.000000 0.000000 0.000000 0.045624 0.000000 -0.004825
# 5 0.002928 -0.021440 0.012596 0.000000 0.054016 0.000000
# 6 0.000000 0.000000 0.000000 -0.004825 0.000000 0.020993
#
#
# Mechanical properties :
#
#
# Convention : Reuss Voigt Hill
#
# Bulk Modulus (GPa) = 39.55814 65.21849 52.38832
# Shear Modulus (GPa) = 23.72881 39.28207 31.50544
#
# Velocity S-wave (km/s) = 3.23677 4.16458 3.72964
# Velocity P-wave (km/s) = 5.60665 7.20555 6.45579
#
# Compressibility (1/GPa) = 0.02527925
#
# Stress axis : x y z
#
# Youngs Moduli (GPa) = 212.06468 40.50207 41.56052
#
# Poissons Ratio (x) = 0.15397 0.03712
# Poissons Ratio (y) = 0.80616 0.39064
# Poissons Ratio (z) = 0.18940 0.38069
#
# Static dielectric constant tensor:
#      x y z
#    x 1.856000 0.000000 -0.013990 
#    y 0.000000 1.795920 0.000000 
#    z -0.013990 0.000000 1.925010 
# 
# From -- ./inp_files/140722.got.cif
#   From: 2010.05.17/outbox.cif.g08.bks.cpg/sg15_71_cif.got.tgz:140722.got - 2010.06.03 18:47:42.
