data_PCOD9288245
_publ_section_title
;
Structure prediction by ZEFSAII (Michael W. Deem and Ramdas Pophale) SiO2 
 PCOD9288245
Probable space group: C 2/C
;
_chemical_formula_sum "Si O2"
_cell_formula_units_Z 60
_cell_length_a 20.051479
_cell_length_b 17.212567
_cell_length_c 11.827750
_cell_angle_alpha 90.000000
_cell_angle_beta 40.600070
_cell_angle_gamma 90.000000
_cell_volume 2656.593768
_symmetry_space_group_name_H-M "C 2/C"
_symmetry_group_IT_number 15
_symmetry_cell_setting 'monoclinic'
loop_
_space_group_symop_operation_xyz
x,y,z
-x,y,1/2-z
-x,-y,-z
x,-y,1/2+z
1/2+x,1/2+y,z
1/2-x,1/2+y,1/2-z
1/2-x,1/2-y,-z
1/2+x,1/2-y,1/2+z
loop_
_atom_site_type_symbol
_atom_site_label
_atom_site_fract_x
_atom_site_fract_y
_atom_site_fract_z
Si Si1 0.372309 0.654367 0.530683
Si Si2 0.684980 0.371013 0.749536
Si Si3 0.341236 0.957274 0.681758
Si Si4 0.000000 0.711426 0.750000
Si Si5 0.656710 0.484366 0.575966
Si Si6 0.142331 0.304006 0.264434
Si Si7 0.524604 0.420517 0.399533
Si Si8 0.035118 0.404141 0.576510
O O1 0.432523 0.730252 0.413350
O O2 0.403582 0.576161 0.424926
O O3 0.254421 0.662521 0.646164
O O4 0.401945 0.634991 0.620468
O O5 0.790112 0.386104 0.679842
O O6 0.685038 0.435223 0.651114
O O7 0.664215 0.287354 0.722537
O O8 0.588277 0.383543 0.957429
O O9 0.437135 0.930587 0.630864
O O10 0.380554 0.026985 0.549662
O O11 0.254029 0.988309 0.878798
O O12 0.077801 0.668411 0.736757
O O13 0.588274 0.554726 0.708818
O O14 0.078310 0.328215 0.457376
O O15 0.500000 0.500000 0.500000
O O16 0.000000 0.393587 0.750000
#
# Coordination Sequence:
#
# PCOD9288245 Si02
#       8
#     8   8   8   4   8   8   8   8
#     4  12  23  42  68 107 141 185 235 299 366 415
#     4  11  24  42  68 108 142 185 241 296 367 435
#     4  11  25  45  75 103 133 192 253 297 364 428
#     4  12  24  46  68 104 146 188 246 294 354 438
#     4  11  21  40  71 101 140 183 233 306 356 427
#     4  12  27  45  72 105 147 195 240 300 363 432
#     4  10  22  38  66 100 145 177 226 297 361 419
#     4  11  27  52  70  99 146 194 242 306 360 440
#
# _framework density 22.585311999999998
#
# number of rings (size 3 to 8) (size 9 to 14) (size 15 to 20)
#    0.000    0.800    4.000    3.600    3.733    2.667 
#    7.200    0.667    0.000    0.000    0.000    0.000 
#    0.000    0.000    0.000    0.000    0.000    0.000 
#
# Total GULP energy -167758.482237 kJ/mol
# GULP energy per Si atom -5591.949408 kJ/mol
# Density = 2.253391 g / cm^3
# Si number density = 22.585312 Si / 1000 Ang^3
#
#
#
# Elastic Constant Matrix: (Units=GPa)
#
#
# Indices 1 2 3 4 5 6 
#
# 1 136.8397 30.0863 51.1226 0.0000 -8.3287 0.0000
# 2 30.0863 39.8450 26.1180 0.0000 -1.5185 0.0000
# 3 51.1226 26.1180 140.6787 0.0000 2.9413 0.0000
# 4 0.0000 0.0000 0.0000 34.2501 0.0000 0.4213
# 5 -8.3287 -1.5185 2.9413 0.0000 37.2685 0.0000
# 6 0.0000 0.0000 0.0000 0.4213 0.0000 35.6166
#
#
#
# Elastic Compliance Matrix: (Units=1/GPa)
#
#
# Indices 1 2 3 4 5 6 
#
# 1 0.009584 -0.005516 -0.002503 0.000000 0.002115 0.000000
# 2 -0.005516 0.031843 -0.003915 0.000000 0.000374 0.000000
# 3 -0.002503 -0.003915 0.008774 0.000000 -0.001411 0.000000
# 4 0.000000 0.000000 0.000000 0.029201 0.000000 -0.000345
# 5 0.002115 0.000374 -0.001411 0.000000 0.027432 0.000000
# 6 0.000000 0.000000 0.000000 -0.000345 0.000000 0.028081
#
#
# Mechanical properties :
#
#
# Convention : Reuss Voigt Hill
#
# Bulk Modulus (GPa) = 37.97456 59.11302 48.54379
# Shear Modulus (GPa) = 29.83987 35.42949 32.63468
#
# Velocity S-wave (km/s) = 3.63878 3.96497 3.80538
# Velocity P-wave (km/s) = 5.87407 6.86960 6.39125
#
# Compressibility (1/GPa) = 0.02633342
#
# Stress axis : x y z
#
# Youngs Moduli (GPa) = 104.33626 31.40441 113.96718
#
# Poissons Ratio (x) = 0.17321 0.28528
# Poissons Ratio (y) = 0.57548 0.44621
# Poissons Ratio (z) = 0.26117 0.12296
#
# Static dielectric constant tensor:
#      x y z
#    x 1.870300 0.000000 -0.014840 
#    y 0.000000 1.863220 0.000000 
#    z -0.014840 0.000000 1.867630 
# 
# From -- ./inp_files/113804.got.cif
#   From: 2010.05.17/outbox.cif.g08.bks.cpg/sg15_57_cif.got.tgz:113804.got - 2010.06.03 18:47:42.
