data_PCOD9288727
_publ_section_title
;
Structure prediction by ZEFSAII (Michael W. Deem and Ramdas Pophale) SiO2 
 PCOD9288727
Probable space group: C 2/C
;
_chemical_formula_sum "Si O2"
_cell_formula_units_Z 40
_cell_length_a 13.691306
_cell_length_b 9.231326
_cell_length_c 15.941964
_cell_angle_alpha 90.000000
_cell_angle_beta 125.747507
_cell_angle_gamma 90.000000
_cell_volume 1635.281441
_symmetry_space_group_name_H-M "C 2/C"
_symmetry_group_IT_number 15
_symmetry_cell_setting 'monoclinic'
loop_
_space_group_symop_operation_xyz
x,y,z
-x,y,1/2-z
-x,-y,-z
x,-y,1/2+z
1/2+x,1/2+y,z
1/2-x,1/2+y,1/2-z
1/2-x,1/2-y,-z
1/2+x,1/2-y,1/2+z
loop_
_atom_site_type_symbol
_atom_site_label
_atom_site_fract_x
_atom_site_fract_y
_atom_site_fract_z
Si Si1 0.348762 0.592146 0.034788
Si Si2 0.654839 0.871696 0.984334
Si Si3 0.214593 0.248784 0.334994
Si Si4 0.792199 0.553654 0.802401
Si Si5 0.975778 0.841639 0.336330
O O1 0.364478 0.679753 0.129033
O O2 0.448701 0.467925 0.079415
O O3 0.217780 0.514686 0.980228
O O4 0.330686 0.689307 0.944330
O O5 0.527360 0.813911 0.889448
O O6 0.750000 0.750000 0.000000
O O7 0.651561 0.890413 0.082719
O O8 0.148107 0.376421 0.249899
O O9 0.254954 0.112426 0.297814
O O10 0.663456 0.631083 0.726256
O O11 0.000000 0.857481 0.250000
#
# Coordination Sequence:
#
# PCOD9288727 Si02
#       5
#     8   8   8   8   8
#     4   9  20  41  63  86 128 171 202 260 325 377
#     4   9  18  35  62  89 122 156 208 259 307 373
#     4  10  22  39  64  87 127 166 209 260 320 370
#     4  11  23  39  64  94 125 169 214 259 316 377
#     4  11  19  37  67  94 119 170 222 245 314 394
#
# _framework density 24.460619000000001
#
# number of rings (size 3 to 8) (size 9 to 14) (size 15 to 20)
#    0.000    2.000    6.000    0.000    5.600    0.800 
#    0.000    4.000   22.000    0.000    0.000    0.000 
#    0.000    0.000    0.000    0.000    0.000    0.000 
#
# Total GULP energy -111709.050340 kJ/mol
# GULP energy per Si atom -5585.452517 kJ/mol
# Density = 2.440495 g / cm^3
# Si number density = 24.460619 Si / 1000 Ang^3
#
#
#
# Elastic Constant Matrix: (Units=GPa)
#
#
# Indices 1 2 3 4 5 6 
#
# 1 26.1302 0.4982 8.2848 0.0000 -3.0729 0.0000
# 2 0.4982 104.4825 56.0196 0.0000 -24.7802 0.0000
# 3 8.2848 56.0196 78.7241 0.0000 -11.3433 0.0000
# 4 0.0000 0.0000 0.0000 66.3928 0.0000 -5.0216
# 5 -3.0729 -24.7802 -11.3433 0.0000 46.8143 0.0000
# 6 0.0000 0.0000 0.0000 -5.0216 0.0000 22.4309
#
#
#
# Elastic Compliance Matrix: (Units=1/GPa)
#
#
# Indices 1 2 3 4 5 6 
#
# 1 0.040741 0.004247 -0.006839 0.000000 0.003265 0.000000
# 2 0.004247 0.017554 -0.011978 0.000000 0.006669 0.000000
# 3 -0.006839 -0.011978 0.021726 0.000000 -0.001525 0.000000
# 4 0.000000 0.000000 0.000000 0.015321 0.000000 0.003430
# 5 0.003265 0.006669 -0.001525 0.000000 0.024736 0.000000
# 6 0.000000 0.000000 0.000000 0.003430 0.000000 0.045349
#
#
# Mechanical properties :
#
#
# Convention : Reuss Voigt Hill
#
# Bulk Modulus (GPa) = 19.65337 37.66023 28.65680
# Shear Modulus (GPa) = 23.63756 36.76323 30.20039
#
# Velocity S-wave (km/s) = 3.11199 3.88100 3.51758
# Velocity P-wave (km/s) = 4.57873 5.95925 5.31401
#
# Compressibility (1/GPa) = 0.05088186
#
# Stress axis : x y z
#
# Youngs Moduli (GPa) = 24.54510 56.96625 46.02818
#
# Poissons Ratio (x) = -0.24194 0.31480
# Poissons Ratio (y) = -0.10425 0.55131
# Poissons Ratio (z) = 0.16787 0.68232
#
# Static dielectric constant tensor:
#      x y z
#    x 2.644260 0.000000 -0.261720 
#    y 0.000000 1.983760 0.000000 
#    z -0.261720 0.000000 2.027960 
# 
# From -- ./inp_files/209340.got.cif
#   From: 2010.05.17/outbox.cif.g08.bks.cpg/sg15_105_cif.got.tgz:209340.got - 2010.06.03 18:47:42.
