data_PCOD9288030
_publ_section_title
;
Structure prediction by ZEFSAII (Michael W. Deem and Ramdas Pophale) SiO2 
 PCOD9288030
Probable space group: C 2/C
;
_chemical_formula_sum "Si O2"
_cell_formula_units_Z 48
_cell_length_a 15.623501
_cell_length_b 18.355081
_cell_length_c 8.928485
_cell_angle_alpha 90.000000
_cell_angle_beta 82.173254
_cell_angle_gamma 90.000000
_cell_volume 2536.575268
_symmetry_space_group_name_H-M "C 2/C"
_symmetry_group_IT_number 15
_symmetry_cell_setting 'monoclinic'
loop_
_space_group_symop_operation_xyz
x,y,z
-x,y,1/2-z
-x,-y,-z
x,-y,1/2+z
1/2+x,1/2+y,z
1/2-x,1/2+y,1/2-z
1/2-x,1/2-y,-z
1/2+x,1/2-y,1/2+z
loop_
_atom_site_type_symbol
_atom_site_label
_atom_site_fract_x
_atom_site_fract_y
_atom_site_fract_z
Si Si1 0.473546 0.606978 0.083476
Si Si2 0.485065 0.241231 0.430589
Si Si3 0.803467 0.319674 0.924999
Si Si4 0.676742 0.754397 0.893674
Si Si5 0.307916 0.542156 0.978045
Si Si6 0.852238 0.084101 0.636063
O O1 0.500000 0.602477 0.250000
O O2 0.457428 0.689419 0.033725
O O3 0.386389 0.565493 0.067386
O O4 0.552556 0.581083 0.959870
O O5 0.500000 0.260349 0.250000
O O6 0.403814 0.187458 0.449225
O O7 0.580445 0.221003 0.466766
O O8 0.798463 0.306997 0.748044
O O9 0.750000 0.250000 0.000000
O O10 0.764728 0.396702 0.982850
O O11 0.666980 0.670129 0.842948
O O12 0.750000 0.750000 0.000000
O O13 0.342186 0.549182 0.801416
O O14 0.290060 0.459869 0.036250
#
# Coordination Sequence:
#
# PCOD9288030 Si02
#       6
#     8   8   8   8   8   8
#     4  11  21  34  56  86 123 157 193 241 303 365
#     4   9  19  37  57  86 118 156 197 242 292 347
#     4  11  20  37  61  85 117 162 199 237 294 358
#     4  10  22  38  62  89 118 148 201 256 299 348
#     4  12  23  38  58  83 123 162 199 240 306 367
#     4  11  24  38  55  85 121 158 198 244 300 361
#
# _framework density 18.923151000000001
#
# number of rings (size 3 to 8) (size 9 to 14) (size 15 to 20)
#    0.000    1.333    3.333    4.000    7.000    0.000 
#    0.000    0.000    0.000    1.000    0.000    0.000 
#    0.000    0.000    0.000    0.000    0.000    0.000 
#
# Total GULP energy -133917.983891 kJ/mol
# GULP energy per Si atom -5579.915995 kJ/mol
# Density = 1.888008 g / cm^3
# Si number density = 18.923151 Si / 1000 Ang^3
#
#
#
# Elastic Constant Matrix: (Units=GPa)
#
#
# Indices 1 2 3 4 5 6 
#
# 1 102.1476 28.1553 54.4626 0.0000 14.9223 0.0000
# 2 28.1553 56.2028 29.1813 0.0000 -10.8363 0.0000
# 3 54.4626 29.1813 87.1866 0.0000 -2.0398 0.0000
# 4 0.0000 0.0000 0.0000 18.4227 0.0000 3.5212
# 5 14.9223 -10.8363 -2.0398 0.0000 24.7006 0.0000
# 6 0.0000 0.0000 0.0000 3.5212 0.0000 26.9354
#
#
#
# Elastic Compliance Matrix: (Units=1/GPa)
#
#
# Indices 1 2 3 4 5 6 
#
# 1 0.019621 -0.007707 -0.010053 0.000000 -0.016065 0.000000
# 2 -0.007707 0.026694 -0.003744 0.000000 0.016058 0.000000
# 3 -0.010053 -0.003744 0.019143 0.000000 0.006011 0.000000
# 4 0.000000 0.000000 0.000000 0.055672 0.000000 -0.007278
# 5 -0.016065 0.016058 0.006011 0.000000 0.057731 0.000000
# 6 0.000000 0.000000 0.000000 -0.007278 0.000000 0.038077
#
#
# Mechanical properties :
#
#
# Convention : Reuss Voigt Hill
#
# Bulk Modulus (GPa) = 44.54476 52.12615 48.33546
# Shear Modulus (GPa) = 18.69654 22.92761 20.81207
#
# Velocity S-wave (km/s) = 3.14670 3.48460 3.31995
# Velocity P-wave (km/s) = 6.06574 6.61785 6.34780
#
# Compressibility (1/GPa) = 0.02244933
#
# Stress axis : x y z
#
# Youngs Moduli (GPa) = 50.96621 37.46198 52.23796
#
# Poissons Ratio (x) = 0.28872 0.52514
# Poissons Ratio (y) = 0.39280 0.19560
# Poissons Ratio (z) = 0.51235 0.14027
#
# Static dielectric constant tensor:
#      x y z
#    x 1.685810 0.000000 -0.007100 
#    y 0.000000 1.709550 0.000000 
#    z -0.007100 0.000000 1.674140 
# 
# From -- ./inp_files/39621.got.cif
#   From: 2010.05.17/outbox.cif.g08.bks.cpg/sg15_20_cif.got.tgz:39621.got - 2010.06.03 18:47:42.
