data_PCOD9288662
_publ_section_title
;
Structure prediction by ZEFSAII (Michael W. Deem and Ramdas Pophale) SiO2 
 PCOD9288662
Probable space group: C 2/C
;
_chemical_formula_sum "Si O2"
_cell_formula_units_Z 52
_cell_length_a 21.474170
_cell_length_b 8.262175
_cell_length_c 29.054912
_cell_angle_alpha 90.000000
_cell_angle_beta 151.217209
_cell_angle_gamma 90.000000
_cell_volume 2482.092823
_symmetry_space_group_name_H-M "C 2/C"
_symmetry_group_IT_number 15
_symmetry_cell_setting 'monoclinic'
loop_
_space_group_symop_operation_xyz
x,y,z
-x,y,1/2-z
-x,-y,-z
x,-y,1/2+z
1/2+x,1/2+y,z
1/2-x,1/2+y,1/2-z
1/2-x,1/2-y,-z
1/2+x,1/2-y,1/2+z
loop_
_atom_site_type_symbol
_atom_site_label
_atom_site_fract_x
_atom_site_fract_y
_atom_site_fract_z
Si Si1 0.098096 0.261053 0.138178
Si Si2 0.500000 0.240120 0.750000
Si Si3 0.762355 0.472986 0.058058
Si Si4 0.187671 0.474920 0.760238
Si Si5 0.488153 0.433173 0.652433
Si Si6 0.024221 0.709733 0.320214
Si Si7 0.889011 0.101478 0.952643
O O1 0.129628 0.437283 0.178115
O O2 0.218648 0.176047 0.190698
O O3 0.065536 0.142083 0.160002
O O4 0.966198 0.254663 0.022631
O O5 0.620938 0.136301 0.846695
O O6 0.535789 0.350290 0.729856
O O7 0.670731 0.497466 0.043129
O O8 0.834235 0.630315 0.085604
O O9 0.663869 0.399872 0.956947
O O10 0.076530 0.416752 0.722845
O O11 0.275147 0.611266 0.842088
O O12 0.493922 0.625042 0.663662
O O13 0.000000 0.735369 0.250000
O O14 0.000000 0.000000 0.000000
#
# Coordination Sequence:
#
# PCOD9288662 Si02
#       7
#     8   4   8   8   8   8   8
#     4  10  22  39  63  91 118 163 208 253 309 370
#     4  12  22  38  62  90 126 162 200 262 308 376
#     4  11  21  39  61  88 122 165 205 251 317 361
#     4  11  21  41  66  88 127 163 204 256 312 368
#     4  11  24  39  61  94 124 159 214 254 305 372
#     4  12  22  40  63  89 124 167 207 256 312 364
#     4   9  19  36  60  85 116 159 199 245 303 365
#
# _framework density 20.950063
#
# number of rings (size 3 to 8) (size 9 to 14) (size 15 to 20)
#    0.000    1.231    3.077    3.692    0.000    1.231 
#    0.000    0.769    0.000    0.000    0.000    0.000 
#    0.000    0.000    0.000    0.000    0.000    0.000 
#
# Total GULP energy -145100.557182 kJ/mol
# GULP energy per Si atom -5580.790661 kJ/mol
# Density = 2.090238 g / cm^3
# Si number density = 20.950063 Si / 1000 Ang^3
#
#
#
# Elastic Constant Matrix: (Units=GPa)
#
#
# Indices 1 2 3 4 5 6 
#
# 1 63.1188 -2.5288 11.5602 0.0001 21.6240 -0.0001
# 2 -2.5288 46.2876 25.1774 -0.0002 9.3666 -0.0005
# 3 11.5602 25.1774 101.4421 -0.0009 -0.4748 -0.0002
# 4 0.0001 -0.0002 -0.0009 24.9308 -0.0001 -8.9214
# 5 21.6240 9.3666 -0.4748 -0.0001 36.9989 0.0000
# 6 -0.0001 -0.0005 -0.0002 -8.9214 0.0000 25.2146
#
#
#
# Elastic Compliance Matrix: (Units=1/GPa)
#
#
# Indices 1 2 3 4 5 6 
#
# 1 0.021783 0.006346 -0.004125 0.000000 -0.014390 0.000000
# 2 0.006346 0.028439 -0.007833 0.000000 -0.011009 0.000001
# 3 -0.004125 -0.007833 0.012293 0.000000 0.004551 0.000000
# 4 0.000000 0.000000 0.000000 0.045926 0.000000 0.016249
# 5 -0.014390 -0.011009 0.004551 0.000000 0.038284 0.000000
# 6 0.000000 0.000001 0.000000 0.016249 0.000000 0.045409
#
#
# Mechanical properties :
#
#
# Convention : Reuss Voigt Hill
#
# Bulk Modulus (GPa) = 19.49665 31.02957 25.26311
# Shear Modulus (GPa) = 22.68037 29.20482 25.94260
#
# Velocity S-wave (km/s) = 3.29385 3.73771 3.52278
# Velocity P-wave (km/s) = 4.87774 5.78538 5.35084
#
# Compressibility (1/GPa) = 0.05129086
#
# Stress axis : x y z
#
# Youngs Moduli (GPa) = 45.90780 35.16282 81.34502
#
# Poissons Ratio (x) = -0.22313 0.33552
# Poissons Ratio (y) = -0.29131 0.63718
# Poissons Ratio (z) = 0.18935 0.27543
#
# Static dielectric constant tensor:
#      x y z
#    x 1.744950 0.000000 -0.024500 
#    y 0.000000 1.760080 0.000000 
#    z -0.024500 0.000000 1.805060 
# 
# From -- ./inp_files/317405.got.cif
#   From: 2010.05.17/outbox.cif.g08.bks.cpg/sg15_159_cif.got.tgz:317405.got - 2010.06.03 18:47:42.
