data_PCOD9288432
_publ_section_title
;
Structure prediction by ZEFSAII (Michael W. Deem and Ramdas Pophale) SiO2 
 PCOD9288432
Probable space group: C 2/C
;
_chemical_formula_sum "Si O2"
_cell_formula_units_Z 48
_cell_length_a 8.884520
_cell_length_b 16.115291
_cell_length_c 17.436368
_cell_angle_alpha 90.000000
_cell_angle_beta 126.881892
_cell_angle_gamma 90.000000
_cell_volume 1996.870648
_symmetry_space_group_name_H-M "C 2/C"
_symmetry_group_IT_number 15
_symmetry_cell_setting 'monoclinic'
loop_
_space_group_symop_operation_xyz
x,y,z
-x,y,1/2-z
-x,-y,-z
x,-y,1/2+z
1/2+x,1/2+y,z
1/2-x,1/2+y,1/2-z
1/2-x,1/2-y,-z
1/2+x,1/2-y,1/2+z
loop_
_atom_site_type_symbol
_atom_site_label
_atom_site_fract_x
_atom_site_fract_y
_atom_site_fract_z
Si Si1 0.739746 0.688765 0.897781
Si Si2 0.025339 0.561539 0.435601
Si Si3 0.800715 0.958904 0.418393
Si Si4 0.200868 0.155978 0.715873
Si Si5 0.964752 0.801401 0.548653
Si Si6 0.270173 0.309536 0.631670
O O1 0.832702 0.632969 0.991391
O O2 0.781202 0.651323 0.825812
O O3 0.517953 0.682065 0.843434
O O4 0.823181 0.782031 0.914732
O O5 0.128575 0.511162 0.399680
O O6 0.000000 0.500000 0.500000
O O7 0.828345 0.610103 0.361919
O O8 0.779143 0.929836 0.324053
O O9 0.839753 0.872464 0.472911
O O10 0.000000 0.000000 0.500000
O O11 0.283472 0.231594 0.691792
O O12 0.869333 0.719706 0.481166
O O13 0.955070 0.820569 0.636154
#
# Coordination Sequence:
#
# PCOD9288432 Si02
#       6
#     8   8   8   8   8   8
#     4  10  22  39  60  84 121 162 202 255 305 353
#     4  11  21  38  62  88 121 159 197 251 309 364
#     4  11  21  36  62  92 116 158 204 248 305 369
#     4  10  22  39  59  86 120 159 208 252 300 362
#     4   9  19  35  57  86 112 151 199 241 290 360
#     4   9  19  35  58  84 113 150 200 241 287 362
#
# _framework density 24.037613
#
# number of rings (size 3 to 8) (size 9 to 14) (size 15 to 20)
#    0.000    2.000    3.333    0.000    4.667    2.667 
#    0.000    1.667    3.667    0.000    0.000    0.000 
#    0.000    0.000    0.000    0.000    0.000    0.000 
#
# Total GULP energy -133896.032573 kJ/mol
# GULP energy per Si atom -5579.001357 kJ/mol
# Density = 2.398290 g / cm^3
# Si number density = 24.037613 Si / 1000 Ang^3
#
#
#
# Elastic Constant Matrix: (Units=GPa)
#
#
# Indices 1 2 3 4 5 6 
#
# 1 114.9538 58.6857 40.7416 0.0000 -19.6451 0.0000
# 2 58.6857 94.2558 25.9713 0.0000 -14.9595 0.0000
# 3 40.7416 25.9713 88.7791 0.0000 -20.2110 0.0000
# 4 0.0000 0.0000 0.0000 25.4216 0.0000 -18.9480
# 5 -19.6451 -14.9595 -20.2110 0.0000 37.1182 0.0000
# 6 0.0000 0.0000 0.0000 -18.9480 0.0000 52.2060
#
#
#
# Elastic Compliance Matrix: (Units=1/GPa)
#
#
# Indices 1 2 3 4 5 6 
#
# 1 0.014273 -0.007444 -0.003808 0.000000 0.002481 0.000000
# 2 -0.007444 0.015767 -0.000738 0.000000 0.002013 0.000000
# 3 -0.003808 -0.000738 0.014498 0.000000 0.005581 0.000000
# 4 0.000000 0.000000 0.000000 0.053924 0.000000 0.019572
# 5 0.002481 0.002013 0.005581 0.000000 0.032104 0.000000
# 6 0.000000 0.000000 0.000000 0.019572 0.000000 0.026258
#
#
# Mechanical properties :
#
#
# Convention : Reuss Voigt Hill
#
# Bulk Modulus (GPa) = 48.64161 60.97620 54.80890
# Shear Modulus (GPa) = 26.64453 34.45519 30.54986
#
# Velocity S-wave (km/s) = 3.33295 3.79012 3.56886
# Velocity P-wave (km/s) = 5.92377 6.67648 6.31135
#
# Compressibility (1/GPa) = 0.02055853
#
# Stress axis : x y z
#
# Youngs Moduli (GPa) = 70.06424 63.42431 68.97586
#
# Poissons Ratio (x) = 0.47210 0.26263
# Poissons Ratio (y) = 0.52153 0.05092
# Poissons Ratio (z) = 0.26677 0.04682
#
# Static dielectric constant tensor:
#      x y z
#    x 2.097080 0.000000 0.033040 
#    y 0.000000 2.221440 0.000000 
#    z 0.033040 0.000000 1.756720 
# 
# From -- ./inp_files/189941.got.cif
#   From: 2010.05.17/outbox.cif.g08.bks.cpg/sg15_95_cif.got.tgz:189941.got - 2010.06.03 18:47:42.
