data_PCOD9288391
_publ_section_title
;
Structure prediction by ZEFSAII (Michael W. Deem and Ramdas Pophale) SiO2 
 PCOD9288391
Probable space group: C 2/C
;
_chemical_formula_sum "Si O2"
_cell_formula_units_Z 40
_cell_length_a 21.521027
_cell_length_b 10.148986
_cell_length_c 8.607420
_cell_angle_alpha 90.000000
_cell_angle_beta 114.995415
_cell_angle_gamma 90.000000
_cell_volume 1703.925320
_symmetry_space_group_name_H-M "C 2/C"
_symmetry_group_IT_number 15
_symmetry_cell_setting 'monoclinic'
loop_
_space_group_symop_operation_xyz
x,y,z
-x,y,1/2-z
-x,-y,-z
x,-y,1/2+z
1/2+x,1/2+y,z
1/2-x,1/2+y,1/2-z
1/2-x,1/2-y,-z
1/2+x,1/2-y,1/2+z
loop_
_atom_site_type_symbol
_atom_site_label
_atom_site_fract_x
_atom_site_fract_y
_atom_site_fract_z
Si Si1 0.342228 0.143150 0.042647
Si Si2 0.959700 0.608948 0.363081
Si Si3 0.392787 0.561494 0.094170
Si Si4 0.551069 0.677947 0.043621
Si Si5 0.800988 0.877805 0.215356
O O1 0.389035 0.059021 0.211997
O O2 0.310548 0.240545 0.137902
O O3 0.390955 0.226692 0.975763
O O4 0.279108 0.084105 0.880051
O O5 0.000000 0.634594 0.250000
O O6 0.000000 0.500000 0.500000
O O7 0.975846 0.751229 0.458886
O O8 0.430542 0.653697 0.257981
O O9 0.345035 0.476226 0.158165
O O10 0.440645 0.457574 0.047797
O O11 0.338070 0.626117 0.919513
#
# Coordination Sequence:
#
# PCOD9288391 Si02
#       5
#     8   8   8   8   8
#     4   9  19  36  53  76 111 144 182 227 273 329
#     4  10  22  39  56  79 113 150 188 226 270 333
#     4   9  18  35  58  84 110 141 183 234 290 332
#     4   9  19  37  57  84 113 142 186 234 283 335
#     4   9  18  33  54  79 109 141 177 228 279 332
#
# _framework density 23.475207000000001
#
# number of rings (size 3 to 8) (size 9 to 14) (size 15 to 20)
#    0.000    2.800    0.000    0.000    0.000    5.600 
#    0.000   31.000    0.000    0.000    0.000    0.000 
#    0.000    0.000    0.000    0.000    0.000    0.000 
#
# Total GULP energy -111379.722512 kJ/mol
# GULP energy per Si atom -5568.986126 kJ/mol
# Density = 2.342178 g / cm^3
# Si number density = 23.475207 Si / 1000 Ang^3
#
#
#
# Elastic Constant Matrix: (Units=GPa)
#
#
# Indices 1 2 3 4 5 6 
#
# 1 54.5655 0.8928 55.1862 0.0000 18.1148 0.0000
# 2 0.8928 40.7482 43.8376 0.0000 5.2088 0.0000
# 3 55.1862 43.8376 235.9117 0.0000 8.3243 0.0000
# 4 0.0000 0.0000 0.0000 39.0489 0.0000 0.7699
# 5 18.1148 5.2088 8.3243 0.0000 38.0540 0.0000
# 6 0.0000 0.0000 0.0000 0.7699 0.0000 5.8544
#
#
#
# Elastic Compliance Matrix: (Units=1/GPa)
#
#
# Indices 1 2 3 4 5 6 
#
# 1 0.032228 0.010923 -0.009045 0.000000 -0.014858 0.000000
# 2 0.010923 0.034713 -0.008722 0.000000 -0.008043 0.000000
# 3 -0.009045 -0.008722 0.007842 0.000000 0.003784 0.000000
# 4 0.000000 0.000000 0.000000 0.025675 0.000000 -0.003377
# 5 -0.014858 -0.008043 0.003784 0.000000 0.033625 0.000000
# 6 0.000000 0.000000 0.000000 -0.003377 0.000000 0.171256
#
#
# Mechanical properties :
#
#
# Convention : Reuss Voigt Hill
#
# Bulk Modulus (GPa) = 16.36751 59.00652 37.68701
# Shear Modulus (GPa) = 14.73229 32.01203 23.37216
#
# Velocity S-wave (km/s) = 2.50785 3.69677 3.15875
# Velocity P-wave (km/s) = 3.92086 6.58876 5.42148
#
# Compressibility (1/GPa) = 0.06109667
#
# Stress axis : x y z
#
# Youngs Moduli (GPa) = 31.02903 28.80768 127.52113
#
# Poissons Ratio (x) = -0.31468 1.15337
# Poissons Ratio (y) = -0.33894 1.11223
# Poissons Ratio (z) = 0.28064 0.25126
#
# Static dielectric constant tensor:
#      x y z
#    x 2.024090 0.000000 0.138470 
#    y 0.000000 1.895910 0.000000 
#    z 0.138470 0.000000 2.043270 
# 
# From -- ./inp_files/54187.got.cif
#   From: 2010.05.17/outbox.cif.g08.bks.cpg/sg15_28_cif.got.tgz:54187.got - 2010.06.03 18:47:42.
