data_PCOD9288003
_publ_section_title
;
Structure prediction by ZEFSAII (Michael W. Deem and Ramdas Pophale) SiO2 
 PCOD9288003
Probable space group: C 2/C
;
_chemical_formula_sum "Si O2"
_cell_formula_units_Z 40
_cell_length_a 10.194328
_cell_length_b 28.134153
_cell_length_c 8.014458
_cell_angle_alpha 90.000000
_cell_angle_beta 45.843368
_cell_angle_gamma 90.000000
_cell_volume 1649.115370
_symmetry_space_group_name_H-M "C 2/C"
_symmetry_group_IT_number 15
_symmetry_cell_setting 'monoclinic'
loop_
_space_group_symop_operation_xyz
x,y,z
-x,y,1/2-z
-x,-y,-z
x,-y,1/2+z
1/2+x,1/2+y,z
1/2-x,1/2+y,1/2-z
1/2-x,1/2-y,-z
1/2+x,1/2-y,1/2+z
loop_
_atom_site_type_symbol
_atom_site_label
_atom_site_fract_x
_atom_site_fract_y
_atom_site_fract_z
Si Si1 0.453129 0.446726 0.987867
Si Si2 0.946255 0.552970 0.493154
Si Si3 0.437627 0.158148 0.492216
Si Si4 0.254659 0.199934 0.086775
Si Si5 0.946488 0.844311 0.037053
O O1 0.500000 0.445918 0.750000
O O2 0.500000 0.500000 0.000000
O O3 0.252899 0.442908 0.246229
O O4 0.535268 0.396665 0.979748
O O5 0.013131 0.605784 0.481921
O O6 0.000000 0.552126 0.250000
O O7 0.000000 0.500000 0.500000
O O8 0.500000 0.166229 0.250000
O O9 0.544317 0.192370 0.521158
O O10 0.217429 0.162340 0.687690
O O11 0.107049 0.193402 0.367115
O O12 0.250000 0.250000 0.000000
O O13 0.178804 0.160627 0.021670
#
# Coordination Sequence:
#
# PCOD9288003 Si02
#       5
#     8   8   8   8   8
#     4  11  22  40  62  98 142 187 232 294 359 427
#     4  10  22  38  61  96 137 190 241 289 356 430
#     4  10  24  44  68 103 147 184 233 307 369 428
#     4  11  24  43  77  99 134 186 245 301 363 426
#     4  10  24  44  68 105 138 183 248 295 356 437
#
# _framework density 24.255427999999998
#
# number of rings (size 3 to 8) (size 9 to 14) (size 15 to 20)
#    0.000    1.600    2.000    1.800    8.400    4.000 
#    0.000    1.000    0.000    0.000    0.000    0.000 
#    0.000    0.000    0.000    0.000    0.000    0.000 
#
# Total GULP energy -111384.475892 kJ/mol
# GULP energy per Si atom -5569.223795 kJ/mol
# Density = 2.420022 g / cm^3
# Si number density = 24.255428 Si / 1000 Ang^3
#
#
#
# Elastic Constant Matrix: (Units=GPa)
#
#
# Indices 1 2 3 4 5 6 
#
# 1 24.1475 34.6285 20.9067 0.0000 0.3188 0.0000
# 2 34.6285 178.4422 49.4603 0.0000 2.3856 0.0000
# 3 20.9067 49.4603 217.9734 0.0000 -3.0344 0.0000
# 4 0.0000 0.0000 0.0000 41.5306 0.0000 0.7269
# 5 0.3188 2.3856 -3.0344 0.0000 27.6129 0.0000
# 6 0.0000 0.0000 0.0000 0.7269 0.0000 41.0497
#
#
#
# Elastic Compliance Matrix: (Units=1/GPa)
#
#
# Indices 1 2 3 4 5 6 
#
# 1 0.059519 -0.010635 -0.003297 0.000000 -0.000131 0.000000
# 2 -0.010635 0.007893 -0.000780 0.000000 -0.000645 0.000000
# 3 -0.003297 -0.000780 0.005090 0.000000 0.000665 0.000000
# 4 0.000000 0.000000 0.000000 0.024086 0.000000 -0.000427
# 5 -0.000131 -0.000645 0.000665 0.000000 0.036345 0.000000
# 6 0.000000 0.000000 0.000000 -0.000427 0.000000 0.024368
#
#
# Mechanical properties :
#
#
# Convention : Reuss Voigt Hill
#
# Bulk Modulus (GPa) = 23.21363 70.06156 46.63759
# Shear Modulus (GPa) = 24.86515 43.07647 33.97081
#
# Velocity S-wave (km/s) = 3.20525 4.21878 3.74644
# Velocity P-wave (km/s) = 4.82591 7.25799 6.16311
#
# Compressibility (1/GPa) = 0.04307813
#
# Stress axis : x y z
#
# Youngs Moduli (GPa) = 16.80133 126.70123 196.45580
#
# Poissons Ratio (x) = 1.34741 0.64780
# Poissons Ratio (y) = 0.17867 0.15321
# Poissons Ratio (z) = 0.05540 0.09881
#
# Static dielectric constant tensor:
#      x y z
#    x 1.956970 0.000000 -0.007570 
#    y 0.000000 2.015130 0.000000 
#    z -0.007570 0.000000 1.961070 
# 
# From -- ./inp_files/34980.got.cif
#   From: 2010.05.17/outbox.cif.g08.bks.cpg/sg15_18_cif.got.tgz:34980.got - 2010.06.03 18:47:42.
