data_PCOD9288879
_publ_section_title
;
Structure prediction by ZEFSAII (Michael W. Deem and Ramdas Pophale) SiO2 
 PCOD9288879
Probable space group: C 2/C
;
_chemical_formula_sum "Si O2"
_cell_formula_units_Z 52
_cell_length_a 27.716847
_cell_length_b 5.734672
_cell_length_c 13.244646
_cell_angle_alpha 90.000000
_cell_angle_beta 84.177760
_cell_angle_gamma 90.000000
_cell_volume 2094.337244
_symmetry_space_group_name_H-M "C 2/C"
_symmetry_group_IT_number 15
_symmetry_cell_setting 'monoclinic'
loop_
_space_group_symop_operation_xyz
x,y,z
-x,y,1/2-z
-x,-y,-z
x,-y,1/2+z
1/2+x,1/2+y,z
1/2-x,1/2+y,1/2-z
1/2-x,1/2-y,-z
1/2+x,1/2-y,1/2+z
loop_
_atom_site_type_symbol
_atom_site_label
_atom_site_fract_x
_atom_site_fract_y
_atom_site_fract_z
Si Si1 0.589966 0.180169 0.266261
Si Si2 0.746686 0.222809 0.379549
Si Si3 0.937551 0.954717 0.896541
Si Si4 0.143958 0.288713 0.191058
Si Si5 0.611486 0.561774 0.408733
Si Si6 0.713053 0.277903 0.914986
Si Si7 0.500000 0.854783 0.250000
O O1 0.569138 0.361187 0.190608
O O2 0.606363 0.298964 0.366461
O O3 0.636648 0.063224 0.204363
O O4 0.544826 0.004474 0.281908
O O5 0.750000 0.250000 0.500000
O O6 0.801935 0.204681 0.332069
O O7 0.726998 0.480942 0.352997
O O8 0.717568 0.981416 0.364321
O O9 0.889368 0.794012 0.894493
O O10 0.981540 0.798653 0.848311
O O11 0.933761 0.076820 0.005510
O O12 0.120328 0.194892 0.300658
O O13 0.658345 0.658595 0.458451
O O14 0.750000 0.250000 0.000000
#
# Coordination Sequence:
#
# PCOD9288879 Si02
#       7
#     8   8   8   8   8   8   4
#     4  10  24  44  72 103 146 184 245 316 373 472
#     4  10  22  39  66  97 140 194 245 299 356 427
#     4  10  22  44  71  99 142 188 234 306 381 468
#     4  10  24  41  66 102 142 190 248 304 375 437
#     4  11  25  42  70 105 144 191 249 308 386 441
#     4  10  23  40  66 101 143 194 249 298 361 438
#     4  10  22  46  72 106 138 188 240 302 396 466
#
# _framework density 24.828858
#
# number of rings (size 3 to 8) (size 9 to 14) (size 15 to 20)
#    0.000    1.846    0.000    2.308   10.769    4.308 
#    0.000   10.769    0.000    0.000    0.000    0.000 
#    0.000    0.000    0.000    0.000    0.000    0.000 
#
# Total GULP energy -145017.030204 kJ/mol
# GULP energy per Si atom -5577.578085 kJ/mol
# Density = 2.477235 g / cm^3
# Si number density = 24.828858 Si / 1000 Ang^3
#
#
#
# Elastic Constant Matrix: (Units=GPa)
#
#
# Indices 1 2 3 4 5 6 
#
# 1 100.6975 67.7216 41.6267 0.0000 -8.7319 0.0000
# 2 67.7216 147.7449 41.6362 0.0000 -15.7945 0.0000
# 3 41.6267 41.6362 114.9951 0.0000 -8.2565 0.0000
# 4 0.0000 0.0000 0.0000 20.6031 0.0000 -3.1954
# 5 -8.7319 -15.7945 -8.2565 0.0000 33.0362 0.0000
# 6 0.0000 0.0000 0.0000 -3.1954 0.0000 36.4779
#
#
#
# Elastic Compliance Matrix: (Units=1/GPa)
#
#
# Indices 1 2 3 4 5 6 
#
# 1 0.015451 -0.006100 -0.003361 0.000000 0.000328 0.000000
# 2 -0.006100 0.010244 -0.001288 0.000000 0.002964 0.000000
# 3 -0.003361 -0.001288 0.010459 0.000000 0.001110 0.000000
# 4 0.000000 0.000000 0.000000 0.049205 0.000000 0.004310
# 5 0.000328 0.002964 0.001110 0.000000 0.032051 0.000000
# 6 0.000000 0.000000 0.000000 0.004310 0.000000 0.027791
#
#
# Mechanical properties :
#
#
# Convention : Reuss Voigt Hill
#
# Bulk Modulus (GPa) = 68.23318 73.93404 71.08361
# Shear Modulus (GPa) = 29.14016 32.18697 30.66357
#
# Velocity S-wave (km/s) = 3.42956 3.60440 3.51807
# Velocity P-wave (km/s) = 6.57446 6.86763 6.72265
#
# Compressibility (1/GPa) = 0.01465563
#
# Stress axis : x y z
#
# Youngs Moduli (GPa) = 64.72110 97.61472 95.61405
#
# Poissons Ratio (x) = 0.59546 0.32135
# Poissons Ratio (y) = 0.39480 0.12317
# Poissons Ratio (z) = 0.21752 0.12575
#
# Static dielectric constant tensor:
#      x y z
#    x 1.982610 0.000000 -0.015330 
#    y 0.000000 2.145220 0.000000 
#    z -0.015330 0.000000 2.205390 
# 
# From -- ./inp_files/180043.got.cif
#   From: 2010.05.17/outbox.cif.g08.bks.cpg/sg15_91_cif.got.tgz:180043.got - 2010.06.03 18:47:42.
