data_PCOD9288118
_publ_section_title
;
Structure prediction by ZEFSAII (Michael W. Deem and Ramdas Pophale) SiO2 
 PCOD9288118
Probable space group: C 2/C
;
_chemical_formula_sum "Si O2"
_cell_formula_units_Z 52
_cell_length_a 8.650896
_cell_length_b 17.567889
_cell_length_c 20.504385
_cell_angle_alpha 90.000000
_cell_angle_beta 132.315338
_cell_angle_gamma 90.000000
_cell_volume 2304.288019
_symmetry_space_group_name_H-M "C 2/C"
_symmetry_group_IT_number 15
_symmetry_cell_setting 'monoclinic'
loop_
_space_group_symop_operation_xyz
x,y,z
-x,y,1/2-z
-x,-y,-z
x,-y,1/2+z
1/2+x,1/2+y,z
1/2-x,1/2+y,1/2-z
1/2-x,1/2-y,-z
1/2+x,1/2-y,1/2+z
loop_
_atom_site_type_symbol
_atom_site_label
_atom_site_fract_x
_atom_site_fract_y
_atom_site_fract_z
Si Si1 0.232300 0.988871 0.791601
Si Si2 0.475249 0.122021 0.812611
Si Si3 0.693327 0.399095 0.651908
Si Si4 0.062139 0.628211 0.406849
Si Si5 0.250000 0.250000 0.000000
Si Si6 0.127119 0.809668 0.009835
Si Si7 0.369531 0.253295 0.272026
O O1 0.377400 0.062632 0.835189
O O2 0.000000 0.000953 0.750000
O O3 0.204520 0.963594 0.708389
O O4 0.354991 0.918758 0.861661
O O5 0.500000 0.083398 0.750000
O O6 0.697950 0.154453 0.895058
O O7 0.312089 0.191545 0.758242
O O8 0.835388 0.409643 0.627835
O O9 0.467857 0.376633 0.561814
O O10 0.775664 0.323441 0.713256
O O11 0.220446 0.654154 0.506535
O O12 0.017285 0.719482 0.372488
O O13 0.433312 0.272450 0.993269
O O14 0.250000 0.750000 0.000000
O O15 0.500000 0.289063 0.250000
#
# Coordination Sequence:
#
# PCOD9288118 Si02
#       7
#     8   8   8   8   4   8   8
#     4  11  24  41  63  91 131 179 226 268 326 406
#     4  12  24  40  61  96 132 172 221 270 331 397
#     4   9  19  40  64  90 123 171 213 268 331 390
#     4   9  19  37  62  89 126 167 214 268 323 392
#     4  10  22  38  64 104 124 166 218 268 336 386
#     4  11  23  42  69  99 135 167 215 283 332 389
#     4   9  17  33  59  89 119 160 209 269 316 377
#
# _framework density 22.566623
#
# number of rings (size 3 to 8) (size 9 to 14) (size 15 to 20)
#    0.000    1.846    1.538    3.692    2.154    2.462 
#    2.769    9.231    0.000    0.000    0.000    0.000 
#    0.000    0.000    0.000    0.000    0.000    0.000 
#
# Total GULP energy -144779.623463 kJ/mol
# GULP energy per Si atom -5568.447056 kJ/mol
# Density = 2.251526 g / cm^3
# Si number density = 22.566623 Si / 1000 Ang^3
#
#
#
# Elastic Constant Matrix: (Units=GPa)
#
#
# Indices 1 2 3 4 5 6 
#
# 1 101.4658 39.2802 30.9704 0.0001 29.3033 0.0001
# 2 39.2802 56.0668 19.2112 0.0001 14.2754 0.0000
# 3 30.9704 19.2112 68.6419 0.0002 15.7646 0.0001
# 4 0.0001 0.0001 0.0002 5.5697 0.0001 6.4528
# 5 29.3033 14.2754 15.7646 0.0001 35.1306 0.0001
# 6 0.0001 0.0000 0.0001 6.4528 0.0001 32.4014
#
#
#
# Elastic Compliance Matrix: (Units=1/GPa)
#
#
# Indices 1 2 3 4 5 6 
#
# 1 0.016639 -0.008272 -0.003096 0.000000 -0.009129 0.000000
# 2 -0.008272 0.025120 -0.002830 0.000000 -0.002037 0.000000
# 3 -0.003096 -0.002830 0.017727 0.000000 -0.004223 0.000000
# 4 0.000000 0.000000 0.000000 0.233393 -0.000001 -0.046481
# 5 -0.009129 -0.002037 -0.004223 -0.000001 0.038802 0.000000
# 6 0.000000 0.000000 0.000000 -0.046481 0.000000 0.040120
#
#
# Mechanical properties :
#
#
# Convention : Reuss Voigt Hill
#
# Bulk Modulus (GPa) = 32.16503 45.01091 38.58797
# Shear Modulus (GPa) = 12.17847 23.73452 17.95650
#
# Velocity S-wave (km/s) = 2.32559 3.24659 2.82389
# Velocity P-wave (km/s) = 4.63632 5.83463 5.26965
#
# Compressibility (1/GPa) = 0.03108967
#
# Stress axis : x y z
#
# Youngs Moduli (GPa) = 60.09882 39.80891 56.41119
#
# Poissons Ratio (x) = 0.32932 0.17463
# Poissons Ratio (y) = 0.49716 0.15965
# Poissons Ratio (z) = 0.18605 0.11267
#
# Static dielectric constant tensor:
#      x y z
#    x 1.887070 0.000000 0.332570 
#    y 0.000000 1.933510 0.000000 
#    z 0.332570 0.000000 4.111720 
# 
# From -- ./inp_files/233120.got.cif
#   From: 2010.05.17/outbox.cif.g08.bks.cpg/sg15_117_cif.got.tgz:233120.got - 2010.06.03 18:47:42.
