data_PCOD9288603
_publ_section_title
;
Structure prediction by ZEFSAII (Michael W. Deem and Ramdas Pophale) SiO2 
 PCOD9288603
Probable space group: C 2/C
;
_chemical_formula_sum "Si O2"
_cell_formula_units_Z 56
_cell_length_a 18.092258
_cell_length_b 21.087239
_cell_length_c 12.640879
_cell_angle_alpha 90.000000
_cell_angle_beta 32.599574
_cell_angle_gamma 90.000000
_cell_volume 2598.296783
_symmetry_space_group_name_H-M "C 2/C"
_symmetry_group_IT_number 15
_symmetry_cell_setting 'monoclinic'
loop_
_space_group_symop_operation_xyz
x,y,z
-x,y,1/2-z
-x,-y,-z
x,-y,1/2+z
1/2+x,1/2+y,z
1/2-x,1/2+y,1/2-z
1/2-x,1/2-y,-z
1/2+x,1/2-y,1/2+z
loop_
_atom_site_type_symbol
_atom_site_label
_atom_site_fract_x
_atom_site_fract_y
_atom_site_fract_z
Si Si1 0.000000 0.317510 0.750000
Si Si2 0.000000 0.737187 0.750000
Si Si3 0.713294 0.266530 0.922769
Si Si4 0.926716 0.367616 0.163186
Si Si5 0.007498 0.942509 0.908626
Si Si6 0.148701 0.180911 0.904256
Si Si7 0.673434 0.107399 0.205596
Si Si8 0.730461 0.468883 0.475991
O O1 0.072247 0.270815 0.579572
O O2 0.102014 0.362624 0.688853
O O3 0.951118 0.690812 0.714176
O O4 0.106463 0.784968 0.564833
O O5 0.826567 0.235108 0.711730
O O6 0.709417 0.341208 0.908256
O O7 0.750000 0.250000 0.000000
O O8 0.797967 0.350644 0.242258
O O9 0.865708 0.426728 0.301373
O O10 0.059796 0.388931 0.935705
O O11 0.965382 0.870921 0.993403
O O12 0.155557 0.951144 0.675736
O O13 0.888157 0.952782 0.965754
O O14 0.000000 0.000000 0.000000
O O15 0.729661 0.040254 0.101808
#
# Coordination Sequence:
#
# PCOD9288603 Si02
#       8
#     4   4   8   8   8   8   8   8
#     4  10  22  39  62  91 126 168 202 260 332 374
#     4  12  24  41  66  97 130 180 222 266 322 390
#     4  10  22  39  63  94 125 164 214 260 324 388
#     4  11  23  41  63  93 131 169 215 263 328 381
#     4  10  24  44  67  91 123 176 215 263 327 382
#     4  11  22  44  66  92 135 169 221 273 321 389
#     4  11  22  40  64  94 128 164 209 266 326 383
#     4  10  24  43  62  97 129 161 217 268 316 394
#
# _framework density 21.552581
#
# number of rings (size 3 to 8) (size 9 to 14) (size 15 to 20)
#    0.000    1.429    2.857    2.571    4.000    2.857 
#    5.143    0.000    0.000    0.000    0.000    0.000 
#    0.000    0.000    0.000    0.000    0.000    0.000 
#
# Total GULP energy -156177.668316 kJ/mol
# GULP energy per Si atom -5577.773868 kJ/mol
# Density = 2.150353 g / cm^3
# Si number density = 21.552581 Si / 1000 Ang^3
#
#
#
# Elastic Constant Matrix: (Units=GPa)
#
#
# Indices 1 2 3 4 5 6 
#
# 1 17.9678 -21.4389 -8.4837 0.0001 0.4881 -0.0001
# 2 -21.4389 120.6371 38.6668 -0.0004 -5.9476 0.0006
# 3 -8.4837 38.6668 102.5975 0.0011 10.4583 0.0001
# 4 0.0001 -0.0004 0.0011 33.7843 -0.0005 0.9563
# 5 0.4881 -5.9476 10.4583 -0.0005 22.9449 0.0004
# 6 -0.0001 0.0006 0.0001 0.9563 0.0004 26.7150
#
#
#
# Elastic Compliance Matrix: (Units=1/GPa)
#
#
# Indices 1 2 3 4 5 6 
#
# 1 0.070805 0.012287 0.001104 0.000000 0.001175 0.000000
# 2 0.012287 0.011975 -0.003972 0.000000 0.004653 0.000000
# 3 0.001104 -0.003972 0.012000 -0.000001 -0.006522 0.000000
# 4 0.000000 0.000000 -0.000001 0.029630 0.000001 -0.001061
# 5 0.001175 0.004653 -0.006522 0.000001 0.047737 -0.000001
# 6 0.000000 0.000000 0.000000 -0.001061 -0.000001 0.037470
#
#
# Mechanical properties :
#
#
# Convention : Reuss Voigt Hill
#
# Bulk Modulus (GPa) = 8.80126 28.74342 18.77234
# Shear Modulus (GPa) = 21.86746 32.18606 27.02676
#
# Velocity S-wave (km/s) = 3.18875 3.86861 3.54502
# Velocity P-wave (km/s) = 4.20119 5.77237 5.04828
#
# Compressibility (1/GPa) = 0.11362008
#
# Stress axis : x y z
#
# Youngs Moduli (GPa) = 14.12324 83.50550 83.33486
#
# Poissons Ratio (x) = -1.02604 -0.09203
# Poissons Ratio (y) = -0.17353 0.33096
# Poissons Ratio (z) = -0.01560 0.33164
#
# Static dielectric constant tensor:
#      x y z
#    x 1.822610 0.000000 -0.021570 
#    y 0.000000 1.820520 0.000000 
#    z -0.021570 0.000000 1.840030 
# 
# From -- ./inp_files/169151.got.cif
#   From: 2010.05.17/outbox.cif.g08.bks.cpg/sg15_85_cif.got.tgz:169151.got - 2010.06.03 18:47:42.
