data_PCOD9288353
_publ_section_title
;
Structure prediction by ZEFSAII (Michael W. Deem and Ramdas Pophale) SiO2 
 PCOD9288353
Probable space group: C 2/C
;
_chemical_formula_sum "Si O2"
_cell_formula_units_Z 28
_cell_length_a 11.508548
_cell_length_b 17.481565
_cell_length_c 5.499030
_cell_angle_alpha 90.000000
_cell_angle_beta 71.932165
_cell_angle_gamma 90.000000
_cell_volume 1051.782289
_symmetry_space_group_name_H-M "C 2/C"
_symmetry_group_IT_number 15
_symmetry_cell_setting 'monoclinic'
loop_
_space_group_symop_operation_xyz
x,y,z
-x,y,1/2-z
-x,-y,-z
x,-y,1/2+z
1/2+x,1/2+y,z
1/2-x,1/2+y,1/2-z
1/2-x,1/2-y,-z
1/2+x,1/2-y,1/2+z
loop_
_atom_site_type_symbol
_atom_site_label
_atom_site_fract_x
_atom_site_fract_y
_atom_site_fract_z
Si Si1 0.000000 0.656425 0.750000
Si Si2 0.767733 0.548507 0.988473
Si Si3 0.873374 0.678880 0.385827
Si Si4 0.629885 0.343359 0.279754
O O1 0.108029 0.598386 0.595469
O O2 0.919505 0.707996 0.620187
O O3 0.763903 0.496925 0.744220
O O4 0.660450 0.609993 0.002175
O O5 0.744164 0.641739 0.520464
O O6 0.862666 0.750800 0.216040
O O7 0.000000 0.633271 0.250000
O O8 0.500000 0.364535 0.250000
#
# Coordination Sequence:
#
# PCOD9288353 Si02
#       4
#     4   8   8   8
#     4  10  22  38  70 100 128 168 230 292 336 386
#     4  11  25  43  67  97 137 185 228 274 330 410
#     4   9  19  39  67  99 128 168 224 284 342 390
#     4   9  20  42  63  97 134 175 221 273 342 402
#
# _framework density 26.621479999999998
#
# number of rings (size 3 to 8) (size 9 to 14) (size 15 to 20)
#    0.000    2.286    0.000    0.857    8.000    1.143 
#   10.286   12.857    0.000    0.000    0.000    0.000 
#    0.000    0.000    0.000    0.000    0.000    0.000 
#
# Total GULP energy -77976.722141 kJ/mol
# GULP energy per Si atom -5569.765867 kJ/mol
# Density = 2.656089 g / cm^3
# Si number density = 26.621480 Si / 1000 Ang^3
#
#
#
# Elastic Constant Matrix: (Units=GPa)
#
#
# Indices 1 2 3 4 5 6 
#
# 1 235.4814 24.9591 44.2671 0.0000 4.9105 0.0000
# 2 24.9591 89.0020 37.5825 0.0000 10.4238 0.0000
# 3 44.2671 37.5825 93.2502 0.0000 14.8926 0.0000
# 4 0.0000 0.0000 0.0000 -57.1388 0.0000 138.0414
# 5 4.9105 10.4238 14.8926 0.0000 42.9073 0.0000
# 6 0.0000 0.0000 0.0000 138.0414 0.0000 -95.0476
#
#
#
# Elastic Compliance Matrix: (Units=1/GPa)
#
#
# Indices 1 2 3 4 5 6 
#
# 1 0.004681 -0.000469 -0.002081 0.000000 0.000301 0.000000
# 2 -0.000469 0.013676 -0.005047 0.000000 -0.001517 0.000000
# 3 -0.002081 -0.005047 0.014305 0.000000 -0.003501 0.000000
# 4 0.000000 0.000000 0.000000 0.006976 0.000000 0.010132
# 5 0.000301 -0.001517 -0.003501 0.000000 0.024855 0.000000
# 6 0.000000 0.000000 0.000000 0.010132 0.000000 0.004194
#
#
# Mechanical properties :
#
#
# Convention : Reuss Voigt Hill
#
# Bulk Modulus (GPa) = 57.24793 70.15011 63.69902
# Shear Modulus (GPa) = 55.73846 -1.12750 27.30548
#
# Velocity S-wave (km/s) = 4.58070 -0.65150 3.20612
# Velocity P-wave (km/s) = 7.03763 5.08352 6.13883
#
# Compressibility (1/GPa) = 0.01746788
#
# Stress axis : x y z
#
# Youngs Moduli (GPa) = 213.61519 73.12049 69.90603
#
# Poissons Ratio (x) = 0.03431 0.14549
# Poissons Ratio (y) = 0.10022 0.35280
# Poissons Ratio (z) = 0.44457 0.36903
#
# Static dielectric constant tensor:
#      x y z
#    x 2.044190 0.000000 -0.057780 
#    y 0.000000 2.154120 0.000000 
#    z -0.057780 0.000000 2.675420 
# 
# From -- ./inp_files/3515.got.cif
#   From: 2010.05.17/outbox.cif.g08.bks.cpg/sg15_2_cif.got.tgz:3515.got - 2010.06.03 18:47:42.
