data_PCOD9288469
_publ_section_title
;
Structure prediction by ZEFSAII (Michael W. Deem and Ramdas Pophale) SiO2 
 PCOD9288469
Probable space group: C 2/C
;
_chemical_formula_sum "Si O2"
_cell_formula_units_Z 44
_cell_length_a 13.114559
_cell_length_b 13.271417
_cell_length_c 11.926561
_cell_angle_alpha 90.000000
_cell_angle_beta 114.327237
_cell_angle_gamma 90.000000
_cell_volume 1891.487736
_symmetry_space_group_name_H-M "C 2/C"
_symmetry_group_IT_number 15
_symmetry_cell_setting 'monoclinic'
loop_
_space_group_symop_operation_xyz
x,y,z
-x,y,1/2-z
-x,-y,-z
x,-y,1/2+z
1/2+x,1/2+y,z
1/2-x,1/2+y,1/2-z
1/2-x,1/2-y,-z
1/2+x,1/2-y,1/2+z
loop_
_atom_site_type_symbol
_atom_site_label
_atom_site_fract_x
_atom_site_fract_y
_atom_site_fract_z
Si Si1 0.339924 0.174574 0.699955
Si Si2 0.922420 0.671393 0.990884
Si Si3 0.000000 0.845464 0.750000
Si Si4 0.820383 0.340946 0.841350
Si Si5 0.227023 0.506218 0.985499
Si Si6 0.130505 0.110805 0.089249
O O1 0.405546 0.264963 0.668083
O O2 0.217173 0.224933 0.654343
O O3 0.340967 0.071942 0.634754
O O4 0.397106 0.159525 0.846339
O O5 0.952755 0.646482 0.411881
O O6 0.835575 0.595670 0.008264
O O7 0.904155 0.790838 0.996697
O O8 0.947849 0.898958 0.835794
O O9 0.769231 0.420359 0.906643
O O10 0.753948 0.366453 0.697861
O O11 0.345973 0.480649 0.983067
#
# Coordination Sequence:
#
# PCOD9288469 Si02
#       6
#     8   8   4   8   8   8
#     4  10  22  40  60  86 119 156 198 239 282 359
#     4  10  22  40  60  88 122 157 191 239 300 349
#     4   8  18  42  60  74 118 162 184 234 294 340
#     4  10  22  39  60  86 119 159 195 232 296 357
#     4  12  21  36  64  93 116 151 198 250 292 337
#     4  10  23  40  59  88 122 152 196 248 288 349
#
# _framework density 23.262111000000001
#
# number of rings (size 3 to 8) (size 9 to 14) (size 15 to 20)
#    0.000    2.182    0.000    4.909    0.000    6.545 
#    0.000    8.182    0.000    4.364    0.000    0.000 
#    0.000    0.000    0.000    0.000    0.000    0.000 
#
# Total GULP energy -122796.779581 kJ/mol
# GULP energy per Si atom -5581.671799 kJ/mol
# Density = 2.320917 g / cm^3
# Si number density = 23.262111 Si / 1000 Ang^3
#
#
#
# Elastic Constant Matrix: (Units=GPa)
#
#
# Indices 1 2 3 4 5 6 
#
# 1 105.5502 54.6887 54.7105 0.0000 -13.4245 0.0000
# 2 54.6887 57.0804 32.7719 0.0000 -9.2384 0.0000
# 3 54.7105 32.7719 61.7073 0.0000 -6.8271 0.0000
# 4 0.0000 0.0000 0.0000 21.4490 0.0000 -3.6432
# 5 -13.4245 -9.2384 -6.8271 0.0000 31.7719 0.0000
# 6 0.0000 0.0000 0.0000 -3.6432 0.0000 25.4294
#
#
#
# Elastic Compliance Matrix: (Units=1/GPa)
#
#
# Indices 1 2 3 4 5 6 
#
# 1 0.024988 -0.015706 -0.013471 0.000000 0.003097 0.000000
# 2 -0.015706 0.035738 -0.004753 0.000000 0.002734 0.000000
# 3 -0.013471 -0.004753 0.030619 0.000000 -0.000495 0.000000
# 4 0.000000 0.000000 0.000000 0.047785 0.000000 0.006846
# 5 0.003097 0.002734 -0.000495 0.000000 0.033472 0.000000
# 6 0.000000 0.000000 0.000000 0.006846 0.000000 0.040305
#
#
# Mechanical properties :
#
#
# Convention : Reuss Voigt Hill
#
# Bulk Modulus (GPa) = 42.57884 56.52001 49.54942
# Shear Modulus (GPa) = 17.32537 21.20784 19.26661
#
# Velocity S-wave (km/s) = 2.73204 3.02270 2.88104
# Velocity P-wave (km/s) = 5.31938 6.04417 5.69332
#
# Compressibility (1/GPa) = 0.02348584
#
# Stress axis : x y z
#
# Youngs Moduli (GPa) = 40.01886 27.98154 32.65988
#
# Poissons Ratio (x) = 0.43947 0.43997
# Poissons Ratio (y) = 0.62852 0.15522
# Poissons Ratio (z) = 0.53910 0.13298
#
# Static dielectric constant tensor:
#      x y z
#    x 1.945190 0.000000 -0.038460 
#    y 0.000000 1.868960 0.000000 
#    z -0.038460 0.000000 1.884260 
# 
# From -- ./inp_files/47143.got.cif
#   From: 2010.05.17/outbox.cif.g08.bks.cpg/sg15_24_cif.got.tgz:47143.got - 2010.06.03 18:47:42.
