data_PCOD9288196
_publ_section_title
;
Structure prediction by ZEFSAII (Michael W. Deem and Ramdas Pophale) SiO2 
 PCOD9288196
Probable space group: C 2/C
;
_chemical_formula_sum "Si O2"
_cell_formula_units_Z 60
_cell_length_a 21.206449
_cell_length_b 11.286430
_cell_length_c 14.064343
_cell_angle_alpha 90.000000
_cell_angle_beta 119.725126
_cell_angle_gamma 90.000000
_cell_volume 2923.283187
_symmetry_space_group_name_H-M "C 2/C"
_symmetry_group_IT_number 15
_symmetry_cell_setting 'monoclinic'
loop_
_space_group_symop_operation_xyz
x,y,z
-x,y,1/2-z
-x,-y,-z
x,-y,1/2+z
1/2+x,1/2+y,z
1/2-x,1/2+y,1/2-z
1/2-x,1/2-y,-z
1/2+x,1/2-y,1/2+z
loop_
_atom_site_type_symbol
_atom_site_label
_atom_site_fract_x
_atom_site_fract_y
_atom_site_fract_z
Si Si1 0.254472 0.875564 0.449904
Si Si2 0.070778 0.828311 0.528647
Si Si3 0.120378 0.604738 0.195136
Si Si4 0.013462 0.019613 0.151032
Si Si5 0.585002 0.057961 0.491186
Si Si6 0.500000 0.950226 0.750000
Si Si7 0.650478 0.364678 0.195804
Si Si8 0.715760 0.548846 0.111998
O O1 0.250000 0.750000 0.500000
O O2 0.334123 0.921378 0.487238
O O3 0.211250 0.861158 0.321518
O O4 0.217837 0.959447 0.500230
O O5 0.026812 0.869813 0.589770
O O6 0.056575 0.692861 0.488462
O O7 0.157913 0.850116 0.602694
O O8 0.046778 0.927331 0.433281
O O9 0.090907 0.513787 0.093844
O O10 0.124001 0.734308 0.153180
O O11 0.202194 0.570958 0.289473
O O12 0.067499 0.613839 0.247486
O O13 0.000000 0.051324 0.250000
O O14 0.086242 0.942929 0.191385
O O15 0.539422 0.994976 0.372522
O O16 0.684001 0.430040 0.131677
#
# Coordination Sequence:
#
# PCOD9288196 Si02
#       8
#     8   8   8   8   8   4   8   8
#     4  12  20  37  68  97 124 172 228 273 326 399
#     4  10  22  39  64 100 134 172 224 283 326 395
#     4  12  25  43  67  99 134 178 223 274 338 397
#     4  10  22  38  64  98 135 177 222 275 341 390
#     4  12  24  42  68  95 134 172 225 276 333 397
#     4  12  26  44  68  96 126 182 224 270 322 406
#     4  11  23  40  67  97 137 171 222 283 328 398
#     4  11  22  39  65 101 131 167 223 279 335 382
#
# _framework density 20.524865999999999
#
# number of rings (size 3 to 8) (size 9 to 14) (size 15 to 20)
#    0.000    0.800    5.333    2.000    3.733    0.000 
#    1.200    0.667    5.867    0.000    0.000    0.000 
#    0.000    0.000    0.000    0.000    0.000    0.000 
#
# Total GULP energy -167481.655331 kJ/mol
# GULP energy per Si atom -5582.721844 kJ/mol
# Density = 2.047815 g / cm^3
# Si number density = 20.524866 Si / 1000 Ang^3
#
#
#
# Elastic Constant Matrix: (Units=GPa)
#
#
# Indices 1 2 3 4 5 6 
#
# 1 133.2366 38.8269 34.1587 0.0000 -14.9081 0.0000
# 2 38.8269 52.5379 25.3326 0.0000 -22.9516 0.0000
# 3 34.1587 25.3326 111.4017 0.0000 -8.0920 0.0000
# 4 0.0000 0.0000 0.0000 24.1356 0.0000 -2.4071
# 5 -14.9081 -22.9516 -8.0920 0.0000 48.7567 0.0000
# 6 0.0000 0.0000 0.0000 -2.4071 0.0000 19.7109
#
#
#
# Elastic Compliance Matrix: (Units=1/GPa)
#
#
# Indices 1 2 3 4 5 6 
#
# 1 0.009797 -0.006687 -0.001513 0.000000 -0.000403 0.000000
# 2 -0.006687 0.031213 -0.004179 0.000000 0.011955 0.000000
# 3 -0.001513 -0.004179 0.010339 0.000000 -0.000714 0.000000
# 4 0.000000 0.000000 0.000000 0.041943 0.000000 0.005122
# 5 -0.000403 0.011955 -0.000714 0.000000 0.025896 0.000000
# 6 0.000000 0.000000 0.000000 0.005122 0.000000 0.051359
#
#
# Mechanical properties :
#
#
# Convention : Reuss Voigt Hill
#
# Bulk Modulus (GPa) = 37.60573 54.86807 46.23690
# Shear Modulus (GPa) = 24.48957 31.77785 28.13371
#
# Velocity S-wave (km/s) = 3.45797 3.93906 3.70633
# Velocity P-wave (km/s) = 5.85707 6.89049 6.39469
#
# Compressibility (1/GPa) = 0.02659169
#
# Stress axis : x y z
#
# Youngs Moduli (GPa) = 102.07440 32.03746 96.72289
#
# Poissons Ratio (x) = 0.21423 0.14631
# Poissons Ratio (y) = 0.68256 0.40422
# Poissons Ratio (z) = 0.15440 0.13389
#
# Static dielectric constant tensor:
#      x y z
#    x 1.601000 0.000000 0.124480 
#    y 0.000000 1.729070 0.000000 
#    z 0.124480 0.000000 1.740220 
# 
# From -- ./inp_files/167680.got.cif
#   From: 2010.05.17/outbox.cif.g08.bks.cpg/sg15_84_cif.got.tgz:167680.got - 2010.06.03 18:47:42.
