data_PCOD9288403
_publ_section_title
;
Structure prediction by ZEFSAII (Michael W. Deem and Ramdas Pophale) SiO2 
 PCOD9288403
Probable space group: C 2/C
;
_chemical_formula_sum "Si O2"
_cell_formula_units_Z 56
_cell_length_a 14.028182
_cell_length_b 35.712757
_cell_length_c 7.545785
_cell_angle_alpha 90.000000
_cell_angle_beta 48.433397
_cell_angle_gamma 90.000000
_cell_volume 2828.382684
_symmetry_space_group_name_H-M "C 2/C"
_symmetry_group_IT_number 15
_symmetry_cell_setting 'monoclinic'
loop_
_space_group_symop_operation_xyz
x,y,z
-x,y,1/2-z
-x,-y,-z
x,-y,1/2+z
1/2+x,1/2+y,z
1/2-x,1/2+y,1/2-z
1/2-x,1/2-y,-z
1/2+x,1/2-y,1/2+z
loop_
_atom_site_type_symbol
_atom_site_label
_atom_site_fract_x
_atom_site_fract_y
_atom_site_fract_z
Si Si1 0.969073 0.283313 0.001256
Si Si2 0.600344 0.608732 0.248144
Si Si3 0.247209 0.770403 0.816311
Si Si4 0.990604 0.367610 0.052353
Si Si5 0.777426 0.855673 0.567317
Si Si6 0.043370 0.958327 0.396970
Si Si7 0.257324 0.094331 0.718476
O O1 0.000000 0.284530 0.750000
O O2 0.104711 0.273483 0.927154
O O3 0.856315 0.253180 0.167683
O O4 0.931240 0.325684 0.101397
O O5 0.500000 0.631034 0.250000
O O6 0.637927 0.626319 0.385274
O O7 0.534166 0.570065 0.384310
O O8 0.714954 0.602081 0.972463
O O9 0.203380 0.811828 0.926083
O O10 0.250000 0.750000 0.000000
O O11 0.907159 0.397967 0.049288
O O12 0.000000 0.375601 0.250000
O O13 0.130810 0.364356 0.797649
O O14 0.798478 0.874762 0.350731
O O15 0.190425 0.944716 0.242832
O O16 0.000000 0.951963 0.250000
O O17 0.000000 0.000000 0.500000
#
# Coordination Sequence:
#
# PCOD9288403 Si02
#       7
#     8   8   8   8   8   8   8
#     4   9  18  36  53  78 112 161 214 257 325 383
#     4  10  22  39  57  97 125 154 212 249 307 376
#     4   9  18  35  55  80 113 163 212 261 323 384
#     4  11  21  37  62  87 124 166 214 271 315 370
#     4  11  21  40  63  87 125 165 209 268 321 370
#     4  11  22  42  67  97 133 167 195 248 314 378
#     4  11  21  38  64  92 120 162 210 253 301 380
#
# _framework density 19.799302999999998
#
# number of rings (size 3 to 8) (size 9 to 14) (size 15 to 20)
#    0.000    1.714    2.857    4.286    0.000    0.000 
#   20.571    3.571    0.000    0.857    3.714    0.000 
#    0.000    0.000    0.000    0.000    0.000    0.000 
#
# Total GULP energy -156054.271675 kJ/mol
# GULP energy per Si atom -5573.366846 kJ/mol
# Density = 1.975424 g / cm^3
# Si number density = 19.799303 Si / 1000 Ang^3
#
#
#
# Elastic Constant Matrix: (Units=GPa)
#
#
# Indices 1 2 3 4 5 6 
#
# 1 114.8337 69.2150 22.6084 0.0000 9.8900 0.0000
# 2 69.2150 114.7236 23.1156 0.0000 -11.8117 0.0000
# 3 22.6084 23.1156 53.7215 0.0000 12.2253 0.0000
# 4 0.0000 0.0000 0.0000 25.2730 0.0000 -6.4444
# 5 9.8900 -11.8117 12.2253 0.0000 35.1532 0.0000
# 6 0.0000 0.0000 0.0000 -6.4444 0.0000 26.8075
#
#
#
# Elastic Compliance Matrix: (Units=1/GPa)
#
#
# Indices 1 2 3 4 5 6 
#
# 1 0.015504 -0.010035 -0.000485 0.000000 -0.007565 0.000000
# 2 -0.010035 0.016936 -0.005432 0.000000 0.010403 0.000000
# 3 -0.000485 -0.005432 0.023392 0.000000 -0.009824 0.000000
# 4 0.000000 0.000000 0.000000 0.042152 0.000000 0.010133
# 5 -0.007565 0.010403 -0.009824 0.000000 0.037487 0.000000
# 6 0.000000 0.000000 0.000000 0.010133 0.000000 0.039739
#
#
# Mechanical properties :
#
#
# Convention : Reuss Voigt Hill
#
# Bulk Modulus (GPa) = 41.79237 57.01743 49.40490
# Shear Modulus (GPa) = 23.24621 28.66937 25.95779
#
# Velocity S-wave (km/s) = 3.43022 3.80939 3.62476
# Velocity P-wave (km/s) = 6.06979 6.94325 6.52116
#
# Compressibility (1/GPa) = 0.02392781
#
# Stress axis : x y z
#
# Youngs Moduli (GPa) = 64.50090 59.04489 42.75052
#
# Poissons Ratio (x) = 0.59250 0.02075
# Poissons Ratio (y) = 0.64725 0.23221
# Poissons Ratio (z) = 0.03130 0.32072
#
# Static dielectric constant tensor:
#      x y z
#    x 1.771470 0.000000 -0.027280 
#    y 0.000000 1.654950 0.000000 
#    z -0.027280 0.000000 1.737250 
# 
# From -- ./inp_files/44518.got.cif
#   From: 2010.05.17/outbox.cif.g08.bks.cpg/sg15_23_cif.got.tgz:44518.got - 2010.06.03 18:47:42.
