data_PCOD9288785
_publ_section_title
;
Structure prediction by ZEFSAII (Michael W. Deem and Ramdas Pophale) SiO2 
 PCOD9288785
Probable space group: C 2/C
;
_chemical_formula_sum "Si O2"
_cell_formula_units_Z 44
_cell_length_a 13.822154
_cell_length_b 22.922314
_cell_length_c 8.881620
_cell_angle_alpha 90.000000
_cell_angle_beta 132.016685
_cell_angle_gamma 90.000000
_cell_volume 2090.672098
_symmetry_space_group_name_H-M "C 2/C"
_symmetry_group_IT_number 15
_symmetry_cell_setting 'monoclinic'
loop_
_space_group_symop_operation_xyz
x,y,z
-x,y,1/2-z
-x,-y,-z
x,-y,1/2+z
1/2+x,1/2+y,z
1/2-x,1/2+y,1/2-z
1/2-x,1/2-y,-z
1/2+x,1/2-y,1/2+z
loop_
_atom_site_type_symbol
_atom_site_label
_atom_site_fract_x
_atom_site_fract_y
_atom_site_fract_z
Si Si1 0.979531 0.692705 0.550009
Si Si2 0.299400 0.730688 0.387908
Si Si3 0.725082 0.989931 0.399264
Si Si4 0.891954 0.958172 0.318614
Si Si5 0.420708 0.941696 0.966635
Si Si6 0.500000 0.644716 0.750000
O O1 0.834016 0.714805 0.344019
O O2 0.979391 0.622472 0.522823
O O3 0.000000 0.702976 0.750000
O O4 0.100872 0.723856 0.590259
O O5 0.250000 0.750000 0.500000
O O6 0.396309 0.679250 0.540741
O O7 0.772811 0.951475 0.310588
O O8 0.633621 0.956678 0.423377
O O9 0.844603 0.006273 0.626280
O O10 0.683794 0.050990 0.277226
O O11 0.932687 0.896156 0.302669
O O12 0.000000 0.000000 0.500000
O O13 0.500000 0.000000 0.000000
#
# Coordination Sequence:
#
# PCOD9288785 Si02
#       6
#     8   8   8   8   8   4
#     4  12  27  51  77 108 153 191 256 312 374 441
#     4  12  27  52  77 109 140 204 256 307 367 444
#     4  10  22  39  65 104 142 181 234 284 378 431
#     4  11  21  40  63 101 143 183 228 295 363 441
#     4  11  24  44  70 108 140 190 234 301 377 441
#     4  12  24  44  74 104 150 192 256 296 372 446
#
# _framework density 21.045862
#
# number of rings (size 3 to 8) (size 9 to 14) (size 15 to 20)
#    0.000    0.727    3.636    3.273    2.545    7.273 
#    3.273    0.000    0.000    0.000    0.000    0.000 
#    0.000    0.000    0.000    0.000    0.000    0.000 
#
# Total GULP energy -122569.796306 kJ/mol
# GULP energy per Si atom -5571.354378 kJ/mol
# Density = 2.099796 g / cm^3
# Si number density = 21.045862 Si / 1000 Ang^3
#
#
#
# Elastic Constant Matrix: (Units=GPa)
#
#
# Indices 1 2 3 4 5 6 
#
# 1 165.8495 98.9805 62.9065 0.0000 -8.6284 0.0000
# 2 98.9805 145.0259 59.0426 0.0000 -0.8599 0.0000
# 3 62.9065 59.0426 174.5741 0.0000 4.0372 0.0000
# 4 0.0000 0.0000 0.0000 23.1715 0.0000 1.3628
# 5 -8.6284 -0.8599 4.0372 0.0000 39.3206 0.0000
# 6 0.0000 0.0000 0.0000 1.3628 0.0000 42.9682
#
#
#
# Elastic Compliance Matrix: (Units=1/GPa)
#
#
# Indices 1 2 3 4 5 6 
#
# 1 0.010756 -0.006641 -0.001685 0.000000 0.002388 0.000000
# 2 -0.006641 0.012105 -0.001677 0.000000 -0.001020 0.000000
# 3 -0.001685 -0.001677 0.006929 0.000000 -0.001118 0.000000
# 4 0.000000 0.000000 0.000000 0.043237 0.000000 -0.001371
# 5 0.002388 -0.001020 -0.001118 0.000000 0.026048 0.000000
# 6 0.000000 0.000000 0.000000 -0.001371 0.000000 0.023317
#
#
# Mechanical properties :
#
#
# Convention : Reuss Voigt Hill
#
# Bulk Modulus (GPa) = 102.22122 103.03430 102.62776
# Shear Modulus (GPa) = 34.32660 38.72673 36.52667
#
# Velocity S-wave (km/s) = 4.04299 4.29431 4.17054
# Velocity P-wave (km/s) = 8.39467 8.58204 8.48887
#
# Compressibility (1/GPa) = 0.00978270
#
# Stress axis : x y z
#
# Youngs Moduli (GPa) = 92.96754 82.61286 144.32984
#
# Poissons Ratio (x) = 0.54864 0.24322
# Poissons Ratio (y) = 0.61740 0.24208
# Poissons Ratio (z) = 0.15667 0.13856
#
# Static dielectric constant tensor:
#      x y z
#    x 1.914120 0.000000 0.034660 
#    y 0.000000 1.647180 0.000000 
#    z 0.034660 0.000000 2.111580 
# 
# From -- ./inp_files/42380.got.cif
#   From: 2010.05.17/outbox.cif.g08.bks.cpg/sg15_22_cif.got.tgz:42380.got - 2010.06.03 18:47:42.
