data_PCOD9288864
_publ_section_title
;
Structure prediction by ZEFSAII (Michael W. Deem and Ramdas Pophale) SiO2 
 PCOD9288864
Probable space group: C 2/C
;
_chemical_formula_sum "Si O2"
_cell_formula_units_Z 44
_cell_length_a 18.690668
_cell_length_b 16.118313
_cell_length_c 14.086134
_cell_angle_alpha 90.000000
_cell_angle_beta 150.914310
_cell_angle_gamma 90.000000
_cell_volume 2062.895143
_symmetry_space_group_name_H-M "C 2/C"
_symmetry_group_IT_number 15
_symmetry_cell_setting 'monoclinic'
loop_
_space_group_symop_operation_xyz
x,y,z
-x,y,1/2-z
-x,-y,-z
x,-y,1/2+z
1/2+x,1/2+y,z
1/2-x,1/2+y,1/2-z
1/2-x,1/2-y,-z
1/2+x,1/2-y,1/2+z
loop_
_atom_site_type_symbol
_atom_site_label
_atom_site_fract_x
_atom_site_fract_y
_atom_site_fract_z
Si Si1 0.499817 0.439971 0.910918
Si Si2 0.200163 0.342772 0.843171
Si Si3 0.239567 0.025705 0.524688
Si Si4 0.639341 0.196683 0.807362
Si Si5 0.362682 0.735837 0.912520
Si Si6 0.000000 0.233059 0.750000
O O1 0.349672 0.457010 0.677065
O O2 0.547450 0.349220 0.006479
O O3 0.500000 0.500000 0.000000
O O4 0.622872 0.459360 0.974464
O O5 0.189835 0.437114 0.868407
O O6 0.159636 0.305997 0.692958
O O7 0.093390 0.289523 0.786939
O O8 0.373590 0.322056 0.055762
O O9 0.353184 0.100288 0.662427
O O10 0.473770 0.226370 0.617686
O O11 0.750000 0.250000 0.000000
O O12 0.708417 0.211112 0.781579
#
# Coordination Sequence:
#
# PCOD9288864 Si02
#       6
#     8   8   8   8   8   4
#     4  10  22  39  66  96 126 178 223 261 318 418
#     4  11  24  43  66  99 130 177 216 280 326 406
#     4  10  23  41  64  96 136 166 225 275 326 385
#     4  11  22  44  65  95 131 178 215 275 327 399
#     4  11  24  40  68  95 130 169 225 261 337 392
#     4  10  24  42  66  88 142 170 212 260 352 384
#
# _framework density 21.329248
#
# number of rings (size 3 to 8) (size 9 to 14) (size 15 to 20)
#    0.000    1.455    1.818    2.727   10.182    0.727 
#    3.273    0.000    0.000    0.000    0.000    0.000 
#    0.000    0.000    0.000    0.000    0.000    0.000 
#
# Total GULP energy -122697.501031 kJ/mol
# GULP energy per Si atom -5577.159138 kJ/mol
# Density = 2.128070 g / cm^3
# Si number density = 21.329248 Si / 1000 Ang^3
#
#
#
# Elastic Constant Matrix: (Units=GPa)
#
#
# Indices 1 2 3 4 5 6 
#
# 1 42.2924 3.8966 29.8183 0.0000 9.8728 0.0000
# 2 3.8966 146.7562 34.1594 0.0000 9.3255 0.0000
# 3 29.8183 34.1594 96.8835 0.0000 1.9334 0.0000
# 4 0.0000 0.0000 0.0000 32.4284 0.0000 0.2640
# 5 9.8728 9.3255 1.9334 0.0000 16.6462 0.0000
# 6 0.0000 0.0000 0.0000 0.2640 0.0000 11.9893
#
#
#
# Elastic Compliance Matrix: (Units=1/GPa)
#
#
# Indices 1 2 3 4 5 6 
#
# 1 0.037139 0.003264 -0.012133 0.000000 -0.022446 0.000000
# 2 0.003264 0.007967 -0.003694 0.000000 -0.005970 0.000000
# 3 -0.012133 -0.003694 0.015209 0.000000 0.007500 0.000000
# 4 0.000000 0.000000 0.000000 0.030843 0.000000 -0.000679
# 5 -0.022446 -0.005970 0.007500 0.000000 0.075860 0.000000
# 6 0.000000 0.000000 0.000000 -0.000679 0.000000 0.083422
#
#
# Mechanical properties :
#
#
# Convention : Reuss Voigt Hill
#
# Bulk Modulus (GPa) = 28.41918 46.85340 37.63629
# Shear Modulus (GPa) = 17.40368 26.74998 22.07683
#
# Velocity S-wave (km/s) = 2.85959 3.54523 3.22071
# Velocity P-wave (km/s) = 4.92504 6.22677 5.61376
#
# Compressibility (1/GPa) = 0.03518751
#
# Stress axis : x y z
#
# Youngs Moduli (GPa) = 26.92605 125.52320 65.75052
#
# Poissons Ratio (x) = -0.40977 0.79778
# Poissons Ratio (y) = -0.08790 0.24291
# Poissons Ratio (z) = 0.32671 0.46374
#
# Static dielectric constant tensor:
#      x y z
#    x 1.824160 0.000000 -0.142560 
#    y 0.000000 1.803370 0.000000 
#    z -0.142560 0.000000 1.829330 
# 
# From -- ./inp_files/168537.got.cif
#   From: 2010.05.17/outbox.cif.g08.bks.cpg/sg15_85_cif.got.tgz:168537.got - 2010.06.03 18:47:42.
