data_PCOD9288247
_publ_section_title
;
Structure prediction by ZEFSAII (Michael W. Deem and Ramdas Pophale) SiO2 
 PCOD9288247
Probable space group: C 2/C
;
_chemical_formula_sum "Si O2"
_cell_formula_units_Z 56
_cell_length_a 13.993718
_cell_length_b 21.991557
_cell_length_c 9.919190
_cell_angle_alpha 90.000000
_cell_angle_beta 129.515695
_cell_angle_gamma 90.000000
_cell_volume 2354.904315
_symmetry_space_group_name_H-M "C 2/C"
_symmetry_group_IT_number 15
_symmetry_cell_setting 'monoclinic'
loop_
_space_group_symop_operation_xyz
x,y,z
-x,y,1/2-z
-x,-y,-z
x,-y,1/2+z
1/2+x,1/2+y,z
1/2-x,1/2+y,1/2-z
1/2-x,1/2-y,-z
1/2+x,1/2-y,1/2+z
loop_
_atom_site_type_symbol
_atom_site_label
_atom_site_fract_x
_atom_site_fract_y
_atom_site_fract_z
Si Si1 0.766435 0.412863 0.237310
Si Si2 0.391302 0.727544 0.747145
Si Si3 0.120579 0.387354 0.425783
Si Si4 0.772404 0.441847 0.711019
Si Si5 0.999962 0.940206 0.091530
Si Si6 0.387993 0.748888 0.055749
Si Si7 0.655980 0.850183 0.941867
O O1 0.779968 0.382031 0.104937
O O2 0.778568 0.485069 0.217593
O O3 0.628503 0.407308 0.175216
O O4 0.864932 0.382691 0.429518
O O5 0.500000 0.700704 0.750000
O O6 0.394548 0.799718 0.711987
O O7 0.269684 0.692796 0.590667
O O8 0.398297 0.722645 0.914404
O O9 0.175065 0.422624 0.599059
O O10 0.083632 0.320315 0.437674
O O11 0.000000 0.417368 0.250000
O O12 0.633402 0.413749 0.567386
O O13 0.839160 0.410062 0.646216
O O14 0.000000 0.955085 0.250000
O O15 0.000000 0.000000 0.000000
O O16 0.500000 0.723872 0.250000
O O17 0.250000 0.750000 0.000000
#
# Coordination Sequence:
#
# PCOD9288247 Si02
#       7
#     8   8   8   8   8   8   8
#     4  11  24  42  72 103 145 186 236 300 372 442
#     4  11  27  44  75 103 143 200 248 307 364 438
#     4  11  26  45  66  96 140 187 241 293 357 431
#     4  11  23  44  71 103 145 183 237 303 369 445
#     4  10  22  38  66 101 138 180 223 292 368 439
#     4  11  26  50  74 102 149 189 244 308 371 439
#     4  11  24  44  70 106 144 182 249 293 374 434
#
# _framework density 23.780159000000001
#
# number of rings (size 3 to 8) (size 9 to 14) (size 15 to 20)
#    0.000    1.143    2.857    1.714   16.000    0.571 
#    2.571    1.429    0.000    0.000    0.000    0.000 
#    0.000    0.000    0.000    0.000    0.000    0.000 
#
# Total GULP energy -156088.010539 kJ/mol
# GULP energy per Si atom -5574.571805 kJ/mol
# Density = 2.372603 g / cm^3
# Si number density = 23.780159 Si / 1000 Ang^3
#
#
#
# Elastic Constant Matrix: (Units=GPa)
#
#
# Indices 1 2 3 4 5 6 
#
# 1 82.7148 4.0847 63.3013 0.0000 -26.6105 0.0000
# 2 4.0847 108.6860 30.4810 0.0000 -19.6372 0.0000
# 3 63.3013 30.4810 194.5436 0.0000 -28.5673 0.0000
# 4 0.0000 0.0000 0.0000 46.2850 0.0000 -5.9160
# 5 -26.6105 -19.6372 -28.5673 0.0000 39.0716 0.0000
# 6 0.0000 0.0000 0.0000 -5.9160 0.0000 13.6107
#
#
#
# Elastic Compliance Matrix: (Units=1/GPa)
#
#
# Indices 1 2 3 4 5 6 
#
# 1 0.019347 0.002656 -0.005131 0.000000 0.010760 0.000000
# 2 0.002656 0.010640 -0.001658 0.000000 0.005944 0.000000
# 3 -0.005131 -0.001658 0.007208 0.000000 0.000942 0.000000
# 4 0.000000 0.000000 0.000000 0.022876 0.000000 0.009943
# 5 0.010760 0.005944 0.000942 0.000000 0.036598 0.000000
# 6 0.000000 0.000000 0.000000 0.009943 0.000000 0.077794
#
#
# Mechanical properties :
#
#
# Convention : Reuss Voigt Hill
#
# Bulk Modulus (GPa) = 34.56893 64.63093 49.59993
# Shear Modulus (GPa) = 25.99108 38.99862 32.49485
#
# Velocity S-wave (km/s) = 3.30960 4.05404 3.70059
# Velocity P-wave (km/s) = 5.40121 7.01079 6.25796
#
# Compressibility (1/GPa) = 0.02892771
#
# Stress axis : x y z
#
# Youngs Moduli (GPa) = 51.68692 93.98438 138.73358
#
# Poissons Ratio (x) = -0.24963 0.71190
# Poissons Ratio (y) = -0.13728 0.23009
# Poissons Ratio (z) = 0.26523 0.15587
#
# Static dielectric constant tensor:
#      x y z
#    x 2.040420 0.000000 0.158210 
#    y 0.000000 1.934090 0.000000 
#    z 0.158210 0.000000 1.966410 
# 
# From -- ./inp_files/42741.got.cif
#   From: 2010.05.17/outbox.cif.g08.bks.cpg/sg15_22_cif.got.tgz:42741.got - 2010.06.03 18:47:42.
