data_PCOD9288784
_publ_section_title
;
Structure prediction by ZEFSAII (Michael W. Deem and Ramdas Pophale) SiO2 
 PCOD9288784
Probable space group: C 2/C
;
_chemical_formula_sum "Si O2"
_cell_formula_units_Z 48
_cell_length_a 15.616166
_cell_length_b 18.093716
_cell_length_c 11.854920
_cell_angle_alpha 90.000000
_cell_angle_beta 40.295229
_cell_angle_gamma 90.000000
_cell_volume 2166.313550
_symmetry_space_group_name_H-M "C 2/C"
_symmetry_group_IT_number 15
_symmetry_cell_setting 'monoclinic'
loop_
_space_group_symop_operation_xyz
x,y,z
-x,y,1/2-z
-x,-y,-z
x,-y,1/2+z
1/2+x,1/2+y,z
1/2-x,1/2+y,1/2-z
1/2-x,1/2-y,-z
1/2+x,1/2-y,1/2+z
loop_
_atom_site_type_symbol
_atom_site_label
_atom_site_fract_x
_atom_site_fract_y
_atom_site_fract_z
Si Si1 0.749219 0.343261 0.729398
Si Si2 0.125523 0.270853 0.200004
Si Si3 0.118134 0.255256 0.708811
Si Si4 0.414974 0.544827 0.425595
Si Si5 0.485201 0.601823 0.587237
Si Si6 0.855571 0.427437 0.397718
O O1 0.652339 0.277253 0.782273
O O2 0.852151 0.305109 0.710930
O O3 0.814699 0.389177 0.559623
O O4 0.642020 0.391546 0.903040
O O5 0.126324 0.358948 0.207978
O O6 0.000000 0.253175 0.250000
O O7 0.250000 0.250000 0.000000
O O8 0.250000 0.250000 0.500000
O O9 0.072123 0.172970 0.792909
O O10 0.000000 0.285868 0.750000
O O11 0.500000 0.591415 0.250000
O O12 0.407749 0.589787 0.548508
O O13 0.513048 0.476100 0.350879
O O14 0.270771 0.528710 0.520692
O O15 0.000000 0.464935 0.250000
#
# Coordination Sequence:
#
# PCOD9288784 Si02
#       6
#     8   8   8   8   8   8
#     4  11  23  39  65  99 135 180 229 282 353 419
#     4   9  20  31  57  94 131 163 200 275 350 407
#     4  12  26  44  66  95 141 183 230 290 345 423
#     4  11  23  43  72  97 136 187 236 299 329 419
#     4  11  25  42  70 102 134 187 246 272 352 427
#     4  10  22  39  65 103 140 170 227 294 361 406
#
# _framework density 22.157457999999998
#
# number of rings (size 3 to 8) (size 9 to 14) (size 15 to 20)
#    0.000    1.333    3.333    1.500   11.667    1.333 
#    0.000    1.667    0.000    0.000    0.000    0.000 
#    0.000    0.000    0.000    0.000    0.000    0.000 
#
# Total GULP energy -133960.795705 kJ/mol
# GULP energy per Si atom -5581.699821 kJ/mol
# Density = 2.210703 g / cm^3
# Si number density = 22.157458 Si / 1000 Ang^3
#
#
#
# Elastic Constant Matrix: (Units=GPa)
#
#
# Indices 1 2 3 4 5 6 
#
# 1 185.5342 26.6484 50.4132 0.0000 -17.7687 0.0000
# 2 26.6484 46.6943 18.3868 0.0000 4.5241 0.0000
# 3 50.4132 18.3868 112.6542 -0.0001 -20.7915 0.0000
# 4 0.0000 0.0000 -0.0001 30.4512 0.0001 -13.3082
# 5 -17.7687 4.5241 -20.7915 0.0001 48.2181 0.0000
# 6 0.0000 0.0000 0.0000 -13.3082 0.0000 -27.0679
#
#
#
# Elastic Compliance Matrix: (Units=1/GPa)
#
#
# Indices 1 2 3 4 5 6 
#
# 1 0.006580 -0.003102 -0.002105 0.000000 0.001808 0.000000
# 2 -0.003102 0.025114 -0.003647 0.000000 -0.005072 0.000000
# 3 -0.002105 -0.003647 0.011227 0.000000 0.004408 0.000000
# 4 0.000000 0.000000 0.000000 0.027031 0.000000 -0.013290
# 5 0.001808 -0.005072 0.004408 0.000000 0.023782 0.000000
# 6 0.000000 0.000000 0.000000 -0.013290 0.000000 -0.030410
#
#
# Mechanical properties :
#
#
# Convention : Reuss Voigt Hill
#
# Bulk Modulus (GPa) = 39.65996 59.53107 49.59551
# Shear Modulus (GPa) = 55.90564 26.94924 41.42744
#
# Velocity S-wave (km/s) = 5.02850 3.49128 4.32867
# Velocity P-wave (km/s) = 7.18696 6.57097 6.88586
#
# Compressibility (1/GPa) = 0.02521435
#
# Stress axis : x y z
#
# Youngs Moduli (GPa) = 151.96502 39.81910 89.06846
#
# Poissons Ratio (x) = 0.12351 0.18747
# Poissons Ratio (y) = 0.47138 0.32482
# Poissons Ratio (z) = 0.31985 0.14521
#
# Static dielectric constant tensor:
#      x y z
#    x 1.922770 0.000000 0.078410 
#    y 0.000000 1.892920 0.000000 
#    z 0.078410 0.000000 1.851360 
# 
# From -- ./inp_files/99970.got.cif
#   From: 2010.05.17/outbox.cif.g08.bks.cpg/sg15_50_cif.got.tgz:99970.got - 2010.06.03 18:47:42.
