data_PCOD9288758
_publ_section_title
;
Structure prediction by ZEFSAII (Michael W. Deem and Ramdas Pophale) SiO2 
 PCOD9288758
Probable space group: C 2/C
;
_chemical_formula_sum "Si O2"
_cell_formula_units_Z 56
_cell_length_a 14.268961
_cell_length_b 8.857647
_cell_length_c 19.896114
_cell_angle_alpha 90.000000
_cell_angle_beta 101.996744
_cell_angle_gamma 90.000000
_cell_volume 2459.736691
_symmetry_space_group_name_H-M "C 2/C"
_symmetry_group_IT_number 15
_symmetry_cell_setting 'monoclinic'
loop_
_space_group_symop_operation_xyz
x,y,z
-x,y,1/2-z
-x,-y,-z
x,-y,1/2+z
1/2+x,1/2+y,z
1/2-x,1/2+y,1/2-z
1/2-x,1/2-y,-z
1/2+x,1/2-y,1/2+z
loop_
_atom_site_type_symbol
_atom_site_label
_atom_site_fract_x
_atom_site_fract_y
_atom_site_fract_z
Si Si1 0.199438 0.226656 0.324091
Si Si2 0.365034 0.429720 0.937473
Si Si3 0.000000 0.155718 0.750000
Si Si4 0.000000 0.344951 0.250000
Si Si5 0.974156 0.414012 0.646707
Si Si6 0.319396 0.498289 0.785463
Si Si7 0.535019 0.747054 0.525222
Si Si8 0.314186 0.898292 0.053770
O O1 0.256927 0.361406 0.298753
O O2 0.226917 0.080493 0.286241
O O3 0.217124 0.252378 0.405764
O O4 0.086685 0.247968 0.291584
O O5 0.331841 0.399758 0.855603
O O6 0.427285 0.584263 0.944191
O O7 0.276507 0.490213 0.970922
O O8 0.432793 0.296426 0.975390
O O9 0.047525 0.269860 0.810423
O O10 0.922398 0.058487 0.777383
O O11 0.966316 0.461540 0.302870
O O12 0.021862 0.354430 0.586671
O O13 0.878043 0.499733 0.612727
O O14 0.610869 0.830380 0.488128
#
# Coordination Sequence:
#
# PCOD9288758 Si02
#       8
#     8   8   4   4   8   8   8   8
#     4  10  24  40  65  98 125 166 213 265 325 387
#     4  10  24  40  62  91 131 164 224 264 311 398
#     4  11  23  40  66  90 132 166 204 276 324 376
#     4   9  21  40  64  90 132 158 210 268 324 382
#     4  10  22  39  64  94 125 166 213 266 323 382
#     4  11  24  40  66  95 128 168 212 265 328 382
#     4  11  22  42  64  89 125 179 211 263 325 387
#     4  10  23  42  64  92 132 166 217 269 321 388
#
# _framework density 22.766666000000001
#
# number of rings (size 3 to 8) (size 9 to 14) (size 15 to 20)
#    0.000    1.714    1.429    1.286   14.000    0.571 
#    0.000    1.429    0.000    0.000    0.000    0.000 
#    0.000    0.000    0.000    0.000    0.000    0.000 
#
# Total GULP energy -156289.206516 kJ/mol
# GULP energy per Si atom -5581.757376 kJ/mol
# Density = 2.271485 g / cm^3
# Si number density = 22.766666 Si / 1000 Ang^3
#
#
#
# Elastic Constant Matrix: (Units=GPa)
#
#
# Indices 1 2 3 4 5 6 
#
# 1 88.4412 12.8383 33.8121 0.0000 -10.3078 0.0000
# 2 12.8383 48.0785 27.7878 0.0000 -10.1580 0.0000
# 3 33.8121 27.7878 78.0025 0.0000 -24.4127 0.0000
# 4 0.0000 0.0000 0.0000 -6.1724 0.0000 2.7298
# 5 -10.3078 -10.1580 -24.4127 0.0000 39.4254 0.0000
# 6 0.0000 0.0000 0.0000 2.7298 0.0000 26.2883
#
#
#
# Elastic Compliance Matrix: (Units=1/GPa)
#
#
# Indices 1 2 3 4 5 6 
#
# 1 0.013557 -0.000287 -0.005815 0.000000 -0.000130 0.000000
# 2 -0.000287 0.026244 -0.008847 0.000000 0.001209 0.000000
# 3 -0.005815 -0.008847 0.021463 0.000000 0.009490 0.000000
# 4 0.000000 0.000000 0.000000 -0.154898 0.000000 0.016085
# 5 -0.000130 0.001209 0.009490 0.000000 0.031518 0.000000
# 6 0.000000 0.000000 0.000000 0.016085 0.000000 0.036369
#
#
# Mechanical properties :
#
#
# Convention : Reuss Voigt Hill
#
# Bulk Modulus (GPa) = 31.88100 40.37763 36.12932
# Shear Modulus (GPa) = 342.33466 21.24718 181.79092
#
# Velocity S-wave (km/s) = 12.27571 3.05824 8.94555
# Velocity P-wave (km/s) = 14.66144 5.49949 11.07254
#
# Compressibility (1/GPa) = 0.03136664
#
# Stress axis : x y z
#
# Youngs Moduli (GPa) = 73.76504 38.10329 46.59277
#
# Poissons Ratio (x) = 0.01092 0.27094
# Poissons Ratio (y) = 0.02114 0.41220
# Poissons Ratio (z) = 0.42895 0.33709
#
# Static dielectric constant tensor:
#      x y z
#    x 1.890860 0.000000 0.026470 
#    y 0.000000 1.851850 0.000000 
#    z 0.026470 0.000000 1.896590 
# 
# From -- ./inp_files/242839.got.cif
#   From: 2010.05.17/outbox.cif.g08.bks.cpg/sg15_122_cif.got.tgz:242839.got - 2010.06.03 18:47:42.
