data_PCOD9288520
_publ_section_title
;
Structure prediction by ZEFSAII (Michael W. Deem and Ramdas Pophale) SiO2 
 PCOD9288520
Probable space group: C 2/C
;
_chemical_formula_sum "Si O2"
_cell_formula_units_Z 48
_cell_length_a 11.145095
_cell_length_b 9.100387
_cell_length_c 21.783730
_cell_angle_alpha 90.000000
_cell_angle_beta 69.298008
_cell_angle_gamma 90.000000
_cell_volume 2066.750179
_symmetry_space_group_name_H-M "C 2/C"
_symmetry_group_IT_number 15
_symmetry_cell_setting 'monoclinic'
loop_
_space_group_symop_operation_xyz
x,y,z
-x,y,1/2-z
-x,-y,-z
x,-y,1/2+z
1/2+x,1/2+y,z
1/2-x,1/2+y,1/2-z
1/2-x,1/2-y,-z
1/2+x,1/2-y,1/2+z
loop_
_atom_site_type_symbol
_atom_site_label
_atom_site_fract_x
_atom_site_fract_y
_atom_site_fract_z
Si Si1 0.863514 0.659415 0.561595
Si Si2 0.117487 0.556717 0.557985
Si Si3 0.022878 0.349009 0.818573
Si Si4 0.713131 0.539108 0.182286
Si Si5 0.530369 0.483784 0.329451
Si Si6 0.634855 0.518094 0.443028
O O1 0.863893 0.545463 0.505493
O O2 0.786587 0.587534 0.631621
O O3 0.814876 0.818457 0.551715
O O4 0.011515 0.674026 0.556959
O O5 0.258692 0.598271 0.555187
O O6 0.053431 0.463326 0.625070
O O7 0.172563 0.359321 0.812736
O O8 0.980200 0.183392 0.841004
O O9 0.000000 0.376950 0.750000
O O10 0.630699 0.488850 0.255620
O O11 0.594178 0.587088 0.159685
O O12 0.607752 0.515227 0.376248
O O13 0.500000 0.500000 0.500000
#
# Coordination Sequence:
#
# PCOD9288520 Si02
#       6
#     8   8   8   8   8   8
#     4  10  22  41  63  87 127 159 214 267 306 384
#     4  10  22  40  64  91 117 170 212 253 324 378
#     4  11  21  40  65  86 122 166 210 260 313 384
#     4  10  22  39  61  87 116 167 205 254 321 368
#     4  11  23  38  60  90 128 161 202 264 318 370
#     4  12  24  37  62  94 126 162 208 260 324 383
#
# _framework density 23.224868000000001
#
# number of rings (size 3 to 8) (size 9 to 14) (size 15 to 20)
#    0.000    1.333    1.667    4.500    2.333    2.000 
#    0.000    0.000    0.000    0.000    0.000    0.000 
#    0.000    0.000    0.000    0.000    0.000    0.000 
#
# Total GULP energy -134105.942167 kJ/mol
# GULP energy per Si atom -5587.747590 kJ/mol
# Density = 2.317201 g / cm^3
# Si number density = 23.224868 Si / 1000 Ang^3
#
#
#
# Elastic Constant Matrix: (Units=GPa)
#
#
# Indices 1 2 3 4 5 6 
#
# 1 189.5749 6.1395 33.3757 0.0000 6.0558 0.0000
# 2 6.1395 26.1614 6.2705 0.0000 0.8096 0.0000
# 3 33.3757 6.2705 70.8944 0.0000 -3.6820 0.0000
# 4 0.0000 0.0000 0.0000 26.7738 0.0000 -1.0042
# 5 6.0558 0.8096 -3.6820 0.0000 35.0817 0.0000
# 6 0.0000 0.0000 0.0000 -1.0042 0.0000 31.4875
#
#
#
# Elastic Compliance Matrix: (Units=1/GPa)
#
#
# Indices 1 2 3 4 5 6 
#
# 1 0.005821 -0.000668 -0.002748 0.000000 -0.001278 0.000000
# 2 -0.000668 0.039185 -0.003210 0.000000 -0.001126 0.000000
# 3 -0.002748 -0.003210 0.015798 0.000000 0.002206 0.000000
# 4 0.000000 0.000000 0.000000 0.037395 0.000000 0.001193
# 5 -0.001278 -0.001126 0.002206 0.000000 0.028983 0.000000
# 6 0.000000 0.000000 0.000000 0.001193 0.000000 0.031797
#
#
# Mechanical properties :
#
#
# Convention : Reuss Voigt Hill
#
# Bulk Modulus (GPa) = 21.02929 42.02243 31.52586
# Shear Modulus (GPa) = 26.58437 34.72493 30.65465
#
# Velocity S-wave (km/s) = 3.38694 3.87093 3.63699
# Velocity P-wave (km/s) = 4.93654 6.17347 5.58933
#
# Compressibility (1/GPa) = 0.04755273
#
# Stress axis : x y z
#
# Youngs Moduli (GPa) = 171.78665 25.51986 63.30080
#
# Poissons Ratio (x) = 0.01705 0.17394
# Poissons Ratio (y) = 0.11474 0.20319
# Poissons Ratio (z) = 0.47203 0.08192
#
# Static dielectric constant tensor:
#      x y z
#    x 1.966960 0.000000 0.023470 
#    y 0.000000 1.816820 0.000000 
#    z 0.023470 0.000000 1.833380 
# 
# From -- ./inp_files/236510.got.cif
#   From: 2010.05.17/outbox.cif.g08.bks.cpg/sg15_119_cif.got.tgz:236510.got - 2010.06.03 18:47:42.
