data_PCOD9288263
_publ_section_title
;
Structure prediction by ZEFSAII (Michael W. Deem and Ramdas Pophale) SiO2 
 PCOD9288263
Probable space group: C 2/C
;
_chemical_formula_sum "Si O2"
_cell_formula_units_Z 56
_cell_length_a 21.613942
_cell_length_b 8.579614
_cell_length_c 31.096646
_cell_angle_alpha 90.000000
_cell_angle_beta 153.621025
_cell_angle_gamma 90.000000
_cell_volume 2562.110824
_symmetry_space_group_name_H-M "C 2/C"
_symmetry_group_IT_number 15
_symmetry_cell_setting 'monoclinic'
loop_
_space_group_symop_operation_xyz
x,y,z
-x,y,1/2-z
-x,-y,-z
x,-y,1/2+z
1/2+x,1/2+y,z
1/2-x,1/2+y,1/2-z
1/2-x,1/2-y,-z
1/2+x,1/2-y,1/2+z
loop_
_atom_site_type_symbol
_atom_site_label
_atom_site_fract_x
_atom_site_fract_y
_atom_site_fract_z
Si Si1 0.982061 0.882122 0.078890
Si Si2 0.968182 0.791591 0.920034
Si Si3 0.921125 0.649405 0.429903
Si Si4 0.290929 0.591724 0.711433
Si Si5 0.645311 0.572721 0.846845
Si Si6 0.317272 0.862650 0.577241
Si Si7 0.845325 0.626319 0.533889
O O1 0.003312 0.727384 0.063815
O O2 0.062547 0.876628 0.174407
O O3 0.053327 0.026148 0.099430
O O4 0.820348 0.924312 0.983945
O O5 0.823128 0.707106 0.839682
O O6 0.070903 0.765567 0.024824
O O7 0.038266 0.713334 0.921680
O O8 0.772180 0.582954 0.322250
O O9 0.000000 0.500000 0.500000
O O10 0.296541 0.609225 0.663861
O O11 0.500000 0.483340 0.750000
O O12 0.610732 0.736904 0.847970
O O13 0.750257 0.472000 0.941083
O O14 0.250000 0.750000 0.500000
O O15 0.395104 0.000237 0.600688
O O16 0.750000 0.750000 0.500000
#
# Coordination Sequence:
#
# PCOD9288263 Si02
#       7
#     8   8   8   8   8   8   8
#     4  12  23  41  66  98 132 174 224 273 332 400
#     4  11  23  41  66  97 133 173 223 275 337 393
#     4  10  22  40  64  89 128 171 214 269 327 383
#     4  11  23  41  65  99 132 171 223 278 332 391
#     4  11  24  45  68  96 132 177 226 275 335 399
#     4  10  22  38  66  92 124 176 220 269 324 396
#     4  11  22  43  69  95 130 175 224 273 334 399
#
# _framework density 21.856978999999999
#
# number of rings (size 3 to 8) (size 9 to 14) (size 15 to 20)
#    0.000    1.143    2.857    4.714    6.000    0.000 
#    2.571    0.714    3.143    0.000    0.000    0.000 
#    0.000    0.000    0.000    0.000    0.000    0.000 
#
# Total GULP energy -156361.503984 kJ/mol
# GULP energy per Si atom -5584.339428 kJ/mol
# Density = 2.180723 g / cm^3
# Si number density = 21.856979 Si / 1000 Ang^3
#
#
#
# Elastic Constant Matrix: (Units=GPa)
#
#
# Indices 1 2 3 4 5 6 
#
# 1 121.5574 29.1228 20.3265 -0.0002 -10.4003 -0.0002
# 2 29.1228 77.4039 17.6320 -0.0002 -16.6047 -0.0001
# 3 20.3265 17.6320 75.4767 0.0014 -10.1769 0.0016
# 4 -0.0002 -0.0002 0.0014 19.3619 0.0001 1.3634
# 5 -10.4003 -16.6047 -10.1769 0.0001 34.7804 0.0001
# 6 -0.0002 -0.0001 0.0016 1.3634 0.0001 20.3288
#
#
#
# Elastic Compliance Matrix: (Units=1/GPa)
#
#
# Indices 1 2 3 4 5 6 
#
# 1 0.009285 -0.002916 -0.001700 0.000000 0.000887 0.000000
# 2 -0.002916 0.015791 -0.002087 0.000000 0.006056 0.000000
# 3 -0.001700 -0.002087 0.014566 -0.000001 0.002758 -0.000001
# 4 0.000000 0.000000 -0.000001 0.051893 0.000000 -0.003480
# 5 0.000887 0.006056 0.002758 0.000000 0.032715 0.000000
# 6 0.000000 0.000000 -0.000001 -0.003480 0.000000 0.049425
#
#
# Mechanical properties :
#
#
# Convention : Reuss Voigt Hill
#
# Bulk Modulus (GPa) = 38.11437 45.40008 41.75722
# Shear Modulus (GPa) = 25.53279 28.71801 27.12540
#
# Velocity S-wave (km/s) = 3.42157 3.62872 3.52666
# Velocity P-wave (km/s) = 5.75199 6.19462 5.97740
#
# Compressibility (1/GPa) = 0.02623683
#
# Stress axis : x y z
#
# Youngs Moduli (GPa) = 107.69672 63.32725 68.65188
#
# Poissons Ratio (x) = 0.18467 0.11669
# Poissons Ratio (y) = 0.31405 0.14328
# Poissons Ratio (z) = 0.18306 0.13216
#
# Static dielectric constant tensor:
#      x y z
#    x 1.973620 0.000000 0.004980 
#    y 0.000000 1.826890 0.000000 
#    z 0.004980 0.000000 1.855530 
# 
# From -- ./inp_files/317558.got.cif
#   From: 2010.05.17/outbox.cif.g08.bks.cpg/sg15_159_cif.got.tgz:317558.got - 2010.06.03 18:47:42.
