data_PCOD9288120
_publ_section_title
;
Structure prediction by ZEFSAII (Michael W. Deem and Ramdas Pophale) SiO2 
 PCOD9288120
Probable space group: C 2/C
;
_chemical_formula_sum "Si O2"
_cell_formula_units_Z 60
_cell_length_a 19.569408
_cell_length_b 21.851754
_cell_length_c 7.813642
_cell_angle_alpha 90.000000
_cell_angle_beta 125.317943
_cell_angle_gamma 90.000000
_cell_volume 2726.368477
_symmetry_space_group_name_H-M "C 2/C"
_symmetry_group_IT_number 15
_symmetry_cell_setting 'monoclinic'
loop_
_space_group_symop_operation_xyz
x,y,z
-x,y,1/2-z
-x,-y,-z
x,-y,1/2+z
1/2+x,1/2+y,z
1/2-x,1/2+y,1/2-z
1/2-x,1/2-y,-z
1/2+x,1/2-y,1/2+z
loop_
_atom_site_type_symbol
_atom_site_label
_atom_site_fract_x
_atom_site_fract_y
_atom_site_fract_z
Si Si1 0.000000 0.455852 0.250000
Si Si2 0.060448 0.954509 0.189263
Si Si3 0.708014 0.551851 0.455093
Si Si4 0.429761 0.845751 0.355949
Si Si5 0.327671 0.985888 0.425173
Si Si6 0.679099 0.141854 0.465145
Si Si7 0.146842 0.850229 0.091487
Si Si8 0.608079 0.210145 0.041701
O O1 0.039030 0.412316 0.160384
O O2 0.077667 0.492312 0.440881
O O3 0.092481 0.899780 0.117232
O O4 0.000000 0.930007 0.250000
O O5 0.138949 0.997203 0.363004
O O6 0.000000 0.000000 0.000000
O O7 0.762324 0.540593 0.366241
O O8 0.782700 0.546520 0.701906
O O9 0.664791 0.615742 0.436964
O O10 0.388676 0.844724 0.482344
O O11 0.514119 0.806318 0.465321
O O12 0.374004 0.821004 0.116894
O O13 0.325011 0.931927 0.565388
O O14 0.768271 0.156589 0.676584
O O15 0.663622 0.180226 0.271860
O O16 0.112395 0.782610 0.025960
#
# Coordination Sequence:
#
# PCOD9288120 Si02
#       8
#     4   8   8   8   8   8   8   8
#     4  10  22  38  64 104 138 176 232 270 346 418
#     4  12  23  40  67  95 130 173 224 284 352 411
#     4  11  22  43  62  98 137 169 224 282 344 413
#     4  10  25  43  64 102 134 182 234 284 334 412
#     4  11  24  38  67 100 139 182 216 280 358 407
#     4  11  23  44  69  96 139 177 233 282 343 411
#     4  11  24  44  68  99 133 181 227 282 347 414
#     4  10  24  45  67  93 141 178 235 285 329 403
#
# _framework density 22.007297000000001
#
# number of rings (size 3 to 8) (size 9 to 14) (size 15 to 20)
#    0.000    1.333    4.000    2.400    5.600    4.800 
#    0.000    1.333    0.000    0.000    0.000    0.000 
#    0.000    0.000    0.000    0.000    0.000    0.000 
#
# Total GULP energy -167598.265428 kJ/mol
# GULP energy per Si atom -5586.608848 kJ/mol
# Density = 2.195721 g / cm^3
# Si number density = 22.007297 Si / 1000 Ang^3
#
#
#
# Elastic Constant Matrix: (Units=GPa)
#
#
# Indices 1 2 3 4 5 6 
#
# 1 85.2483 36.0000 20.6185 0.0000 5.1009 0.0000
# 2 36.0000 142.9704 24.9988 0.0000 2.9921 0.0000
# 3 20.6185 24.9988 59.5803 0.0000 8.2581 0.0000
# 4 0.0000 0.0000 0.0000 21.1428 0.0000 -6.5320
# 5 5.1009 2.9921 8.2581 0.0000 37.6404 0.0000
# 6 0.0000 0.0000 0.0000 -6.5320 0.0000 13.5584
#
#
#
# Elastic Compliance Matrix: (Units=1/GPa)
#
#
# Indices 1 2 3 4 5 6 
#
# 1 0.013828 -0.002858 -0.003463 0.000000 -0.000887 0.000000
# 2 -0.002858 0.008139 -0.002465 0.000000 0.000281 0.000000
# 3 -0.003463 -0.002465 0.019518 0.000000 -0.003617 0.000000
# 4 0.000000 0.000000 0.000000 0.055568 0.000000 0.026771
# 5 -0.000887 0.000281 -0.003617 0.000000 0.027459 0.000000
# 6 0.000000 0.000000 0.000000 0.026771 0.000000 0.086653
#
#
# Mechanical properties :
#
#
# Convention : Reuss Voigt Hill
#
# Bulk Modulus (GPa) = 41.81811 50.11484 45.96648
# Shear Modulus (GPa) = 21.12305 28.21376 24.66841
#
# Velocity S-wave (km/s) = 3.10146 3.58441 3.35165
# Velocity P-wave (km/s) = 5.64523 6.32076 5.99252
#
# Compressibility (1/GPa) = 0.02391308
#
# Stress axis : x y z
#
# Youngs Moduli (GPa) = 72.31708 122.86251 51.23415
#
# Poissons Ratio (x) = 0.35111 0.17744
# Poissons Ratio (y) = 0.20666 0.12629
# Poissons Ratio (z) = 0.25046 0.30286
#
# Static dielectric constant tensor:
#      x y z
#    x 1.880280 0.000000 -0.059930 
#    y 0.000000 1.821190 0.000000 
#    z -0.059930 0.000000 1.861100 
# 
# From -- ./inp_files/58094.got.cif
#   From: 2010.05.17/outbox.cif.g08.bks.cpg/sg15_30_cif.got.tgz:58094.got - 2010.06.03 18:47:42.
