data_PCOD9288402
_publ_section_title
;
Structure prediction by ZEFSAII (Michael W. Deem and Ramdas Pophale) SiO2 
 PCOD9288402
Probable space group: C 2/C
;
_chemical_formula_sum "Si O2"
_cell_formula_units_Z 56
_cell_length_a 18.984562
_cell_length_b 22.091198
_cell_length_c 9.005791
_cell_angle_alpha 90.000000
_cell_angle_beta 52.116664
_cell_angle_gamma 90.000000
_cell_volume 2981.009081
_symmetry_space_group_name_H-M "C 2/C"
_symmetry_group_IT_number 15
_symmetry_cell_setting 'monoclinic'
loop_
_space_group_symop_operation_xyz
x,y,z
-x,y,1/2-z
-x,-y,-z
x,-y,1/2+z
1/2+x,1/2+y,z
1/2-x,1/2+y,1/2-z
1/2-x,1/2-y,-z
1/2+x,1/2-y,1/2+z
loop_
_atom_site_type_symbol
_atom_site_label
_atom_site_fract_x
_atom_site_fract_y
_atom_site_fract_z
Si Si1 0.685546 0.000348 0.926159
Si Si2 0.026087 0.683842 0.382633
Si Si3 0.066493 0.452176 0.841363
Si Si4 0.151353 0.283750 0.229159
Si Si5 0.747789 0.411709 0.413333
Si Si6 0.201676 0.249129 0.720287
Si Si7 0.397802 0.680004 0.431501
O O1 0.647408 0.953713 0.854133
O O2 0.729376 0.054070 0.771445
O O3 0.741200 0.960802 0.971054
O O4 0.607129 0.027809 0.131501
O O5 0.020136 0.611844 0.393976
O O6 0.126358 0.698929 0.305182
O O7 0.000000 0.704449 0.250000
O O8 0.950377 0.710421 0.585716
O O9 0.000000 0.500000 0.000000
O O10 0.187794 0.352147 0.152336
O O11 0.214897 0.254905 0.273819
O O12 0.145974 0.236821 0.100755
O O13 0.650645 0.382187 0.545302
O O14 0.250000 0.250000 0.500000
O O15 0.135765 0.194025 0.856935
O O16 0.500000 0.678343 0.250000
#
# Coordination Sequence:
#
# PCOD9288402 Si02
#       7
#     8   8   8   8   8   8   8
#     4  10  22  39  57  88 119 170 206 252 310 373
#     4  12  22  36  61  91 129 164 207 255 311 381
#     4  11  22  35  56  85 126 161 205 244 307 373
#     4  11  23  40  63  94 130 165 211 258 316 383
#     4  10  22  41  64  88 126 161 212 259 316 372
#     4  11  23  39  60  90 123 167 205 253 317 371
#     4  11  24  43  66  95 124 166 213 269 318 376
#
# _framework density 18.785585000000001
#
# number of rings (size 3 to 8) (size 9 to 14) (size 15 to 20)
#    0.000    1.143    2.857    5.571    6.000    0.000 
#    0.000    0.714    0.000    0.000    0.000    0.000 
#    0.000    0.000    0.000    0.000    0.000    0.000 
#
# Total GULP energy -156013.539098 kJ/mol
# GULP energy per Si atom -5571.912111 kJ/mol
# Density = 1.874283 g / cm^3
# Si number density = 18.785585 Si / 1000 Ang^3
#
#
#
# Elastic Constant Matrix: (Units=GPa)
#
#
# Indices 1 2 3 4 5 6 
#
# 1 71.5697 45.2400 56.9789 0.0000 -9.4441 0.0000
# 2 45.2400 98.1365 47.4720 0.0000 1.3263 0.0000
# 3 56.9789 47.4720 135.8008 0.0000 -8.4190 0.0000
# 4 0.0000 0.0000 0.0000 27.6305 0.0000 -9.7568
# 5 -9.4441 1.3263 -8.4190 0.0000 34.4116 0.0000
# 6 0.0000 0.0000 0.0000 -9.7568 0.0000 34.7658
#
#
#
# Elastic Compliance Matrix: (Units=1/GPa)
#
#
# Indices 1 2 3 4 5 6 
#
# 1 0.026148 -0.008414 -0.007681 0.000000 0.005621 0.000000
# 2 -0.008414 0.015053 -0.001940 0.000000 -0.003364 0.000000
# 3 -0.007681 -0.001940 0.011310 0.000000 0.000734 0.000000
# 4 0.000000 0.000000 0.000000 0.040173 0.000000 0.011274
# 5 0.005621 -0.003364 0.000734 0.000000 0.030912 0.000000
# 6 0.000000 0.000000 0.000000 0.011274 0.000000 0.031928
#
#
# Mechanical properties :
#
#
# Convention : Reuss Voigt Hill
#
# Bulk Modulus (GPa) = 60.82780 67.20987 64.01884
# Shear Modulus (GPa) = 25.37091 29.74930 27.56011
#
# Velocity S-wave (km/s) = 3.67897 3.98379 3.83441
# Velocity P-wave (km/s) = 7.10611 7.55088 7.33187
#
# Compressibility (1/GPa) = 0.01643985
#
# Stress axis : x y z
#
# Youngs Moduli (GPa) = 38.24329 66.43278 88.41475
#
# Poissons Ratio (x) = 0.55899 0.67914
# Poissons Ratio (y) = 0.32179 0.17153
# Poissons Ratio (z) = 0.29376 0.12889
#
# Static dielectric constant tensor:
#      x y z
#    x 1.805970 0.000000 0.000650 
#    y 0.000000 1.649930 0.000000 
#    z 0.000650 0.000000 1.711440 
# 
# From -- ./inp_files/57791.got.cif
#   From: 2010.05.17/outbox.cif.g08.bks.cpg/sg15_29_cif.got.tgz:57791.got - 2010.06.03 18:47:42.
