data_PCOD9288957
_publ_section_title
;
Structure prediction by ZEFSAII (Michael W. Deem and Ramdas Pophale) SiO2 
 PCOD9288957
Probable space group: C 2/C
;
_chemical_formula_sum "Si O2"
_cell_formula_units_Z 44
_cell_length_a 11.852273
_cell_length_b 11.984802
_cell_length_c 23.205071
_cell_angle_alpha 90.000000
_cell_angle_beta 33.418363
_cell_angle_gamma 90.000000
_cell_volume 1815.384227
_symmetry_space_group_name_H-M "C 2/C"
_symmetry_group_IT_number 15
_symmetry_cell_setting 'monoclinic'
loop_
_space_group_symop_operation_xyz
x,y,z
-x,y,1/2-z
-x,-y,-z
x,-y,1/2+z
1/2+x,1/2+y,z
1/2-x,1/2+y,1/2-z
1/2-x,1/2-y,-z
1/2+x,1/2-y,1/2+z
loop_
_atom_site_type_symbol
_atom_site_label
_atom_site_fract_x
_atom_site_fract_y
_atom_site_fract_z
Si Si1 0.835918 0.610675 0.644239
Si Si2 0.778904 0.871727 0.514998
Si Si3 0.311006 0.591955 0.441436
Si Si4 0.413523 0.345535 0.579954
Si Si5 0.500000 0.434495 0.750000
Si Si6 0.592839 0.014570 0.768671
O O1 0.784660 0.732513 0.643356
O O2 0.693479 0.514161 0.680551
O O3 0.837957 0.600448 0.712378
O O4 0.074366 0.599395 0.526139
O O5 0.750000 0.750000 0.500000
O O6 0.931861 0.865414 0.504287
O O7 0.574384 0.930983 0.629529
O O8 0.848416 0.960281 0.437517
O O9 0.376691 0.652394 0.472820
O O10 0.448053 0.631594 0.329960
O O11 0.278901 0.439732 0.667616
O O12 0.500000 0.064879 0.750000
#
# Coordination Sequence:
#
# PCOD9288957 Si02
#       6
#     8   8   8   8   4   8
#     4  11  24  42  65  97 133 172 223 272 334 393
#     4  10  22  39  68  98 127 172 225 270 327 391
#     4  11  24  44  63  98 137 176 215 277 335 391
#     4  11  22  42  68  94 133 173 222 272 335 392
#     4  12  24  42  68  94 138 174 224 276 328 398
#     4   9  21  41  63  92 130 169 217 274 324 399
#
# _framework density 24.237292
#
# number of rings (size 3 to 8) (size 9 to 14) (size 15 to 20)
#    0.000    1.455    1.818    2.727    6.364    1.455 
#    1.636    0.000    0.000    0.000    0.000    0.000 
#    0.000    0.000    0.000    0.000    0.000    0.000 
#
# Total GULP energy -123103.218805 kJ/mol
# GULP energy per Si atom -5595.600855 kJ/mol
# Density = 2.418213 g / cm^3
# Si number density = 24.237292 Si / 1000 Ang^3
#
#
#
# Elastic Constant Matrix: (Units=GPa)
#
#
# Indices 1 2 3 4 5 6 
#
# 1 109.9277 -1.7599 37.7258 0.0001 9.0417 0.0000
# 2 -1.7599 46.7297 -0.7259 0.0000 13.4405 0.0000
# 3 37.7258 -0.7259 81.5463 0.0004 14.0214 -0.0002
# 4 0.0001 0.0000 0.0004 16.4896 -0.0003 8.5291
# 5 9.0417 13.4405 14.0214 -0.0003 49.6111 0.0001
# 6 0.0000 0.0000 -0.0002 8.5291 0.0001 31.7691
#
#
#
# Elastic Compliance Matrix: (Units=1/GPa)
#
#
# Indices 1 2 3 4 5 6 
#
# 1 0.010843 0.000546 -0.004883 0.000000 -0.000744 0.000000
# 2 0.000546 0.023379 0.001116 0.000000 -0.006749 0.000000
# 3 -0.004883 0.001116 0.015168 -0.000001 -0.003699 0.000000
# 4 0.000000 0.000000 -0.000001 0.070424 0.000001 -0.018907
# 5 -0.000744 -0.006749 -0.003699 0.000001 0.023166 0.000000
# 6 0.000000 0.000000 0.000000 -0.018907 0.000000 0.036553
#
#
# Mechanical properties :
#
#
# Convention : Reuss Voigt Hill
#
# Bulk Modulus (GPa) = 23.28446 34.29817 28.79132
# Shear Modulus (GPa) = 24.96373 33.10487 29.03430
#
# Velocity S-wave (km/s) = 3.21280 3.69977 3.46485
# Velocity P-wave (km/s) = 4.83637 5.69498 5.28315
#
# Compressibility (1/GPa) = 0.04294709
#
# Stress axis : x y z
#
# Youngs Moduli (GPa) = 92.22757 42.77407 65.92752
#
# Poissons Ratio (x) = -0.02338 0.32195
# Poissons Ratio (y) = -0.05040 -0.07355
# Poissons Ratio (z) = 0.45038 -0.04772
#
# Static dielectric constant tensor:
#      x y z
#    x 1.973120 0.000000 -0.036570 
#    y 0.000000 1.935710 0.000000 
#    z -0.036570 0.000000 1.942890 
# 
# From -- ./inp_files/182249.got.cif
#   From: 2010.05.17/outbox.cif.g08.bks.cpg/sg15_92_cif.got.tgz:182249.got - 2010.06.03 18:47:42.
