data_PCOD9288737
_publ_section_title
;
Structure prediction by ZEFSAII (Michael W. Deem and Ramdas Pophale) SiO2 
 PCOD9288737
Probable space group: C 2/C
;
_chemical_formula_sum "Si O2"
_cell_formula_units_Z 60
_cell_length_a 22.497606
_cell_length_b 15.142798
_cell_length_c 15.865931
_cell_angle_alpha 90.000000
_cell_angle_beta 33.288638
_cell_angle_gamma 90.000000
_cell_volume 2966.656437
_symmetry_space_group_name_H-M "C 2/C"
_symmetry_group_IT_number 15
_symmetry_cell_setting 'monoclinic'
loop_
_space_group_symop_operation_xyz
x,y,z
-x,y,1/2-z
-x,-y,-z
x,-y,1/2+z
1/2+x,1/2+y,z
1/2-x,1/2+y,1/2-z
1/2-x,1/2-y,-z
1/2+x,1/2-y,1/2+z
loop_
_atom_site_type_symbol
_atom_site_label
_atom_site_fract_x
_atom_site_fract_y
_atom_site_fract_z
Si Si1 0.724558 0.352225 0.529948
Si Si2 0.103176 0.181420 0.564531
Si Si3 0.203895 0.563007 0.731897
Si Si4 0.500000 0.576121 0.250000
Si Si5 0.664313 0.896190 0.679758
Si Si6 0.931818 0.639366 0.472922
Si Si7 0.385721 0.024111 0.915112
Si Si8 0.077247 0.017955 0.487536
O O1 0.750000 0.250000 0.500000
O O2 0.764840 0.395128 0.394686
O O3 0.596805 0.368265 0.676177
O O4 0.789231 0.404993 0.526856
O O5 0.217403 0.145824 0.464774
O O6 0.119647 0.283779 0.521876
O O7 0.087994 0.121950 0.497573
O O8 0.000000 0.172592 0.750000
O O9 0.156571 0.467500 0.764251
O O10 0.310841 0.536294 0.658129
O O11 0.124431 0.631045 0.870762
O O12 0.460742 0.517943 0.375559
O O13 0.558896 0.836937 0.818639
O O14 0.645734 0.951304 0.617262
O O15 0.912134 0.539294 0.462173
O O16 0.500000 0.066292 0.750000
O O17 0.000000 0.000000 0.500000
#
# Coordination Sequence:
#
# PCOD9288737 Si02
#       8
#     8   8   8   4   8   8   8   8
#     4  10  22  40  64  86 121 164 214 268 318 380
#     4  11  23  38  62  93 130 165 209 271 324 386
#     4   9  21  40  58  86 123 160 207 261 316 377
#     4  10  22  42  62  92 128 168 210 268 336 384
#     4   9  20  41  58  83 123 166 200 248 321 374
#     4  11  22  37  61  93 123 161 210 261 320 389
#     4   9  20  37  61  87 113 161 206 242 309 386
#     4  10  22  39  64  91 126 172 213 257 333 398
#
# _framework density 20.224789000000001
#
# number of rings (size 3 to 8) (size 9 to 14) (size 15 to 20)
#    0.000    2.133    0.667    2.400    2.800    4.267 
#    2.400    1.333    0.000    0.000    0.000    0.000 
#    0.000    0.000    0.000    0.000    0.000    0.000 
#
# Total GULP energy -167134.319325 kJ/mol
# GULP energy per Si atom -5571.143978 kJ/mol
# Density = 2.017876 g / cm^3
# Si number density = 20.224789 Si / 1000 Ang^3
#
#
#
# Elastic Constant Matrix: (Units=GPa)
#
#
# Indices 1 2 3 4 5 6 
#
# 1 66.0502 3.0436 9.5065 0.0000 -20.7550 0.0000
# 2 3.0436 74.1769 15.3999 0.0000 -13.1556 0.0000
# 3 9.5065 15.3999 79.7203 0.0000 -15.3687 0.0000
# 4 0.0000 0.0000 0.0000 13.6050 0.0000 -0.8246
# 5 -20.7550 -13.1556 -15.3687 0.0000 30.0046 0.0000
# 6 0.0000 0.0000 0.0000 -0.8246 0.0000 10.2692
#
#
#
# Elastic Compliance Matrix: (Units=1/GPa)
#
#
# Indices 1 2 3 4 5 6 
#
# 1 0.019548 0.001718 0.000099 0.000000 0.014326 0.000000
# 2 0.001718 0.014996 -0.001781 0.000000 0.006851 0.000000
# 3 0.000099 -0.001781 0.014134 0.000000 0.006527 0.000000
# 4 0.000000 0.000000 0.000000 0.073862 0.000000 0.005931
# 5 0.014326 0.006851 0.006527 0.000000 0.049585 0.000000
# 6 0.000000 0.000000 0.000000 0.005931 0.000000 0.097855
#
#
# Mechanical properties :
#
#
# Convention : Reuss Voigt Hill
#
# Bulk Modulus (GPa) = 20.51251 30.64969 25.58110
# Shear Modulus (GPa) = 17.47283 23.57560 20.52422
#
# Velocity S-wave (km/s) = 2.94246 3.41791 3.18906
# Velocity P-wave (km/s) = 4.65922 5.54649 5.12210
#
# Compressibility (1/GPa) = 0.04875073
#
# Stress axis : x y z
#
# Youngs Moduli (GPa) = 51.15534 66.68620 70.74910
#
# Poissons Ratio (x) = -0.11458 -0.00699
# Poissons Ratio (y) = -0.08789 0.12599
# Poissons Ratio (z) = -0.00506 0.11876
#
# Static dielectric constant tensor:
#      x y z
#    x 1.825760 0.000000 -0.001760 
#    y 0.000000 1.731620 0.000000 
#    z -0.001760 0.000000 1.783620 
# 
# From -- ./inp_files/219580.got.cif
#   From: 2010.05.17/outbox.cif.g08.bks.cpg/sg15_110_cif.got.tgz:219580.got - 2010.06.03 18:47:42.
