data_PCOD9288023
_publ_section_title
;
Structure prediction by ZEFSAII (Michael W. Deem and Ramdas Pophale) SiO2 
 PCOD9288023
Probable space group: C 2/C
;
_chemical_formula_sum "Si O2"
_cell_formula_units_Z 36
_cell_length_a 12.521892
_cell_length_b 8.586592
_cell_length_c 16.019646
_cell_angle_alpha 90.000000
_cell_angle_beta 74.949780
_cell_angle_gamma 90.000000
_cell_volume 1663.356339
_symmetry_space_group_name_H-M "C 2/C"
_symmetry_group_IT_number 15
_symmetry_cell_setting 'monoclinic'
loop_
_space_group_symop_operation_xyz
x,y,z
-x,y,1/2-z
-x,-y,-z
x,-y,1/2+z
1/2+x,1/2+y,z
1/2-x,1/2+y,1/2-z
1/2-x,1/2-y,-z
1/2+x,1/2-y,1/2+z
loop_
_atom_site_type_symbol
_atom_site_label
_atom_site_fract_x
_atom_site_fract_y
_atom_site_fract_z
Si Si1 0.386112 0.450970 0.390938
Si Si2 0.726461 0.606577 0.942943
Si Si3 0.889771 0.607205 0.324121
Si Si4 0.258977 0.324038 0.801223
Si Si5 0.000000 0.164590 0.250000
O O1 0.356232 0.493216 0.491640
O O2 0.404376 0.271977 0.367859
O O3 0.285975 0.523723 0.353113
O O4 0.485919 0.553660 0.333619
O O5 0.839368 0.515142 0.899509
O O6 0.690127 0.695375 0.866130
O O7 0.750000 0.750000 0.000000
O O8 0.795957 0.632271 0.273254
O O9 0.000000 0.568421 0.250000
O O10 0.617401 0.253418 0.735523
#
# Coordination Sequence:
#
# PCOD9288023 Si02
#       5
#     8   8   8   8   4
#     4   9  19  40  59  86 120 157 202 246 290 354
#     4  10  22  38  62  87 126 153 199 251 293 355
#     4  12  22  37  62  91 121 157 199 245 299 354
#     4   9  20  39  62  86 115 162 200 240 295 354
#     4   8  18  38  66  76 120 160 204 230 304 348
#
# _framework density 21.642987000000002
#
# number of rings (size 3 to 8) (size 9 to 14) (size 15 to 20)
#    1.333    0.889    1.111    2.000    1.556    0.000 
#    0.000   11.111    0.000    0.000    0.000    0.000 
#    0.000    0.000    0.000    0.000    0.000    0.000 
#
# Total GULP energy -100298.215220 kJ/mol
# GULP energy per Si atom -5572.123068 kJ/mol
# Density = 2.159373 g / cm^3
# Si number density = 21.642987 Si / 1000 Ang^3
#
#
#
# Elastic Constant Matrix: (Units=GPa)
#
#
# Indices 1 2 3 4 5 6 
#
# 1 64.8387 8.7581 30.7878 0.0000 -6.6149 0.0000
# 2 8.7581 90.7627 59.2088 0.0000 -15.9927 0.0000
# 3 30.7878 59.2088 132.5874 0.0000 -37.5595 0.0000
# 4 0.0000 0.0000 0.0000 79.6626 0.0000 -34.2524
# 5 -6.6149 -15.9927 -37.5595 0.0000 29.0502 0.0000
# 6 0.0000 0.0000 0.0000 -34.2524 0.0000 42.7696
#
#
#
# Elastic Compliance Matrix: (Units=1/GPa)
#
#
# Indices 1 2 3 4 5 6 
#
# 1 0.017529 0.001385 -0.005274 0.000000 -0.002065 0.000000
# 2 0.001385 0.015664 -0.007550 0.000000 -0.000822 0.000000
# 3 -0.005274 -0.007550 0.016759 0.000000 0.016311 0.000000
# 4 0.000000 0.000000 0.000000 0.019146 0.000000 0.015333
# 5 -0.002065 -0.000822 0.016311 0.000000 0.054589 0.000000
# 6 0.000000 0.000000 0.000000 0.015333 0.000000 0.035661
#
#
# Mechanical properties :
#
#
# Convention : Reuss Voigt Hill
#
# Bulk Modulus (GPa) = 36.93373 53.96646 45.45010
# Shear Modulus (GPa) = 26.14392 42.92541 34.53466
#
# Velocity S-wave (km/s) = 3.47935 4.45830 3.99889
# Velocity P-wave (km/s) = 5.76569 7.17572 6.50900
#
# Compressibility (1/GPa) = 0.02707552
#
# Stress axis : x y z
#
# Youngs Moduli (GPa) = 57.04700 63.83987 59.67049
#
# Poissons Ratio (x) = -0.08843 0.31470
# Poissons Ratio (y) = -0.07902 0.45049
# Poissons Ratio (z) = 0.30086 0.48197
#
# Static dielectric constant tensor:
#      x y z
#    x 1.783840 0.000000 -0.016270 
#    y 0.000000 1.824390 0.000000 
#    z -0.016270 0.000000 1.798730 
# 
# From -- ./inp_files/195027.got.cif
#   From: 2010.05.17/outbox.cif.g08.bks.cpg/sg15_98_cif.got.tgz:195027.got - 2010.06.03 18:47:42.
