data_PCOD9288371
_publ_section_title
;
Structure prediction by ZEFSAII (Michael W. Deem and Ramdas Pophale) SiO2 
 PCOD9288371
Probable space group: C 2/C
;
_chemical_formula_sum "Si O2"
_cell_formula_units_Z 44
_cell_length_a 8.536599
_cell_length_b 17.855674
_cell_length_c 18.690314
_cell_angle_alpha 90.000000
_cell_angle_beta 50.098660
_cell_angle_gamma 90.000000
_cell_volume 2185.536688
_symmetry_space_group_name_H-M "C 2/C"
_symmetry_group_IT_number 15
_symmetry_cell_setting 'monoclinic'
loop_
_space_group_symop_operation_xyz
x,y,z
-x,y,1/2-z
-x,-y,-z
x,-y,1/2+z
1/2+x,1/2+y,z
1/2-x,1/2+y,1/2-z
1/2-x,1/2-y,-z
1/2+x,1/2-y,1/2+z
loop_
_atom_site_type_symbol
_atom_site_label
_atom_site_fract_x
_atom_site_fract_y
_atom_site_fract_z
Si Si1 0.191949 0.081782 0.375087
Si Si2 0.755969 0.479096 0.482297
Si Si3 0.093508 0.289568 0.599919
Si Si4 0.500000 0.321904 0.250000
Si Si5 0.195692 0.557695 0.893343
Si Si6 0.228470 0.895687 0.697588
O O1 0.271416 0.155919 0.390063
O O2 0.252469 0.087359 0.274921
O O3 0.948665 0.068891 0.451766
O O4 0.279610 0.012391 0.395919
O O5 0.742551 0.549800 0.541358
O O6 0.955270 0.436070 0.450459
O O7 0.250000 0.250000 0.500000
O O8 0.988063 0.229520 0.683481
O O9 0.909690 0.339896 0.621715
O O10 0.688760 0.377014 0.180779
O O11 0.255426 0.475959 0.845409
O O12 0.000000 0.865810 0.750000
#
# Coordination Sequence:
#
# PCOD9288371 Si02
#       6
#     8   8   8   4   8   8
#     4  11  21  42  67 101 133 181 231 280 342 416
#     4  10  22  38  71 103 134 176 233 286 336 401
#     4  12  27  46  67  96 145 183 226 286 359 411
#     4  12  24  42  68 102 136 180 224 282 348 406
#     4  11  22  41  68 104 139 173 233 289 335 412
#     4  12  23  45  72  98 136 189 237 279 349 421
#
# _framework density 20.132356000000001
#
# number of rings (size 3 to 8) (size 9 to 14) (size 15 to 20)
#    0.000    0.727    6.364    1.091    2.545    1.455 
#    3.273    1.818    0.000    0.000    0.000    0.000 
#    0.000    0.000    0.000    0.000    0.000    0.000 
#
# Total GULP energy -122967.884274 kJ/mol
# GULP energy per Si atom -5589.449285 kJ/mol
# Density = 2.008653 g / cm^3
# Si number density = 20.132356 Si / 1000 Ang^3
#
#
#
# Elastic Constant Matrix: (Units=GPa)
#
#
# Indices 1 2 3 4 5 6 
#
# 1 111.6870 29.2410 33.3416 0.0000 -16.5559 0.0001
# 2 29.2410 85.1131 31.8026 0.0000 -13.5897 0.0000
# 3 33.3416 31.8026 91.9356 0.0000 1.7441 0.0000
# 4 0.0000 0.0000 0.0000 48.0702 0.0000 -7.9825
# 5 -16.5559 -13.5897 1.7441 0.0000 42.0164 0.0000
# 6 0.0001 0.0000 0.0000 -7.9825 0.0000 22.8483
#
#
#
# Elastic Compliance Matrix: (Units=1/GPa)
#
#
# Indices 1 2 3 4 5 6 
#
# 1 0.011048 -0.001896 -0.003424 0.000000 0.003882 0.000000
# 2 -0.001896 0.014753 -0.004495 0.000000 0.004211 0.000000
# 3 -0.003424 -0.004495 0.013738 0.000000 -0.003374 0.000000
# 4 0.000000 0.000000 0.000000 0.022084 0.000000 0.007716
# 5 0.003882 0.004211 -0.003374 0.000000 0.026832 0.000000
# 6 0.000000 0.000000 0.000000 0.007716 0.000000 0.046463
#
#
# Mechanical properties :
#
#
# Convention : Reuss Voigt Hill
#
# Bulk Modulus (GPa) = 50.23471 53.05622 51.64546
# Shear Modulus (GPa) = 31.02034 35.54369 33.28202
#
# Velocity S-wave (km/s) = 3.92959 4.20634 4.07032
# Velocity P-wave (km/s) = 6.75243 7.07121 6.91366
#
# Compressibility (1/GPa) = 0.01990656
#
# Stress axis : x y z
#
# Youngs Moduli (GPa) = 90.51628 67.78461 72.79003
#
# Poissons Ratio (x) = 0.12853 0.24926
# Poissons Ratio (y) = 0.17163 0.32723
# Poissons Ratio (z) = 0.30996 0.30472
#
# Static dielectric constant tensor:
#      x y z
#    x 1.730600 0.000000 0.004920 
#    y 0.000000 1.704640 0.000000 
#    z 0.004920 0.000000 1.762340 
# 
# From -- ./inp_files/136266.got.cif
#   From: 2010.05.17/outbox.cif.g08.bks.cpg/sg15_69_cif.got.tgz:136266.got - 2010.06.03 18:47:42.
