data_PCOD9288679
_publ_section_title
;
Structure prediction by ZEFSAII (Michael W. Deem and Ramdas Pophale) SiO2 
 PCOD9288679
Probable space group: C 2/C
;
_chemical_formula_sum "Si O2"
_cell_formula_units_Z 56
_cell_length_a 7.408927
_cell_length_b 27.775742
_cell_length_c 13.073165
_cell_angle_alpha 90.000000
_cell_angle_beta 75.602193
_cell_angle_gamma 90.000000
_cell_volume 2605.810981
_symmetry_space_group_name_H-M "C 2/C"
_symmetry_group_IT_number 15
_symmetry_cell_setting 'monoclinic'
loop_
_space_group_symop_operation_xyz
x,y,z
-x,y,1/2-z
-x,-y,-z
x,-y,1/2+z
1/2+x,1/2+y,z
1/2-x,1/2+y,1/2-z
1/2-x,1/2-y,-z
1/2+x,1/2-y,1/2+z
loop_
_atom_site_type_symbol
_atom_site_label
_atom_site_fract_x
_atom_site_fract_y
_atom_site_fract_z
Si Si1 0.703644 0.853514 0.267977
Si Si2 0.882278 0.149308 0.167606
Si Si3 0.626800 0.606674 0.959624
Si Si4 0.117151 0.712486 0.076353
Si Si5 0.500000 0.500000 0.000000
Si Si6 0.965466 0.388154 0.014278
Si Si7 0.500000 0.276038 0.250000
Si Si8 0.679525 0.052929 0.159026
O O1 0.500000 0.841176 0.250000
O O2 0.662676 0.889940 0.366637
O O3 0.819269 0.808703 0.293724
O O4 0.829183 0.874047 0.158776
O O5 0.730104 0.187348 0.153167
O O6 0.783667 0.097405 0.201891
O O7 0.000000 0.162900 0.250000
O O8 0.011305 0.142209 0.049080
O O9 0.517145 0.557088 0.975375
O O10 0.825946 0.598539 0.984932
O O11 0.964028 0.744701 0.153969
O O12 0.250000 0.750000 0.000000
O O13 0.043602 0.667669 0.020791
O O14 0.324650 0.511855 0.107193
O O15 0.897504 0.422205 0.933609
O O16 0.500000 0.036678 0.250000
#
# Coordination Sequence:
#
# PCOD9288679 Si02
#       8
#     8   8   8   8   4   8   4   8
#     4  10  23  43  64  94 130 177 223 273 348 413
#     4  10  22  39  63  92 129 174 215 278 343 401
#     4  10  22  43  65  91 131 169 222 272 347 415
#     4  11  23  40  59  95 128 169 232 273 332 407
#     4  10  24  42  66 104 128 168 228 280 336 432
#     4  10  22  42  65  90 130 177 214 282 347 399
#     4  12  24  38  66  90 130 174 222 280 332 406
#     4  10  22  41  67  93 132 168 221 275 343 414
#
# _framework density 21.49043
#
# number of rings (size 3 to 8) (size 9 to 14) (size 15 to 20)
#    0.000    1.714    1.429    1.714   10.000    2.857 
#    0.000    9.286    0.000    0.000    0.000    0.000 
#    0.000    0.000    0.000    0.000    0.000    0.000 
#
# Total GULP energy -155944.412854 kJ/mol
# GULP energy per Si atom -5569.443316 kJ/mol
# Density = 2.144152 g / cm^3
# Si number density = 21.490430 Si / 1000 Ang^3
#
#
#
# Elastic Constant Matrix: (Units=GPa)
#
#
# Indices 1 2 3 4 5 6 
#
# 1 54.0810 8.2369 30.3393 0.0000 -13.1914 0.0000
# 2 8.2369 36.6469 16.6706 0.0000 -4.1561 0.0000
# 3 30.3393 16.6706 109.0998 0.0000 -27.1087 0.0000
# 4 0.0000 0.0000 0.0000 13.0933 0.0000 -9.8816
# 5 -13.1914 -4.1561 -27.1087 0.0000 46.8744 0.0000
# 6 0.0000 0.0000 0.0000 -9.8816 0.0000 4.2508
#
#
#
# Elastic Compliance Matrix: (Units=1/GPa)
#
#
# Indices 1 2 3 4 5 6 
#
# 1 0.022488 -0.002374 -0.005104 0.000000 0.003166 0.000000
# 2 -0.002374 0.029576 -0.003940 0.000000 -0.000324 0.000000
# 3 -0.005104 -0.003940 0.012547 0.000000 0.005470 0.000000
# 4 0.000000 0.000000 0.000000 -0.101233 0.000000 -0.235334
# 5 0.003166 -0.000324 0.005470 0.000000 0.025359 0.000000
# 6 0.000000 0.000000 0.000000 -0.235334 0.000000 -0.311821
#
#
# Mechanical properties :
#
#
# Convention : Reuss Voigt Hill
#
# Bulk Modulus (GPa) = 23.93724 34.48015 29.20870
# Shear Modulus (GPa) = -17.46273 22.48242 2.50984
#
# Velocity S-wave (km/s) = -2.85367 3.23795 1.08186
# Velocity P-wave (km/s) = 0.55208 5.48255 3.89635
#
# Compressibility (1/GPa) = 0.04177590
#
# Stress axis : x y z
#
# Youngs Moduli (GPa) = 44.46803 33.81079 79.70307
#
# Poissons Ratio (x) = 0.08025 0.40682
# Poissons Ratio (y) = 0.10555 0.31401
# Poissons Ratio (z) = 0.22698 0.13321
#
# Static dielectric constant tensor:
#      x y z
#    x 1.812670 0.000000 -0.023250 
#    y 0.000000 1.745400 0.000000 
#    z -0.023250 0.000000 1.816120 
# 
# From -- ./inp_files/81324.got.cif
#   From: 2010.05.17/outbox.cif.g08.bks.cpg/sg15_41_cif.got.tgz:81324.got - 2010.06.03 18:47:42.
