data_PCOD9288310
_publ_section_title
;
Structure prediction by ZEFSAII (Michael W. Deem and Ramdas Pophale) SiO2 
 PCOD9288310
Probable space group: C 2/C
;
_chemical_formula_sum "Si O2"
_cell_formula_units_Z 56
_cell_length_a 27.549613
_cell_length_b 8.735582
_cell_length_c 11.605152
_cell_angle_alpha 90.000000
_cell_angle_beta 119.597119
_cell_angle_gamma 90.000000
_cell_volume 2428.497378
_symmetry_space_group_name_H-M "C 2/C"
_symmetry_group_IT_number 15
_symmetry_cell_setting 'monoclinic'
loop_
_space_group_symop_operation_xyz
x,y,z
-x,y,1/2-z
-x,-y,-z
x,-y,1/2+z
1/2+x,1/2+y,z
1/2-x,1/2+y,1/2-z
1/2-x,1/2-y,-z
1/2+x,1/2-y,1/2+z
loop_
_atom_site_type_symbol
_atom_site_label
_atom_site_fract_x
_atom_site_fract_y
_atom_site_fract_z
Si Si1 0.960927 0.665577 0.561758
Si Si2 0.154692 0.416716 0.678974
Si Si3 0.468394 0.325422 0.048037
Si Si4 0.500000 0.910644 0.750000
Si Si5 0.500000 0.587748 0.250000
Si Si6 0.347232 0.280096 0.844980
Si Si7 0.758467 0.637709 0.401238
Si Si8 0.309531 0.820068 0.541612
O O1 0.902140 0.596965 0.458736
O O2 0.953133 0.788673 0.656568
O O3 0.987172 0.749366 0.483970
O O4 0.004568 0.533797 0.652301
O O5 0.163021 0.601107 0.703313
O O6 0.203097 0.325034 0.665679
O O7 0.152233 0.339787 0.801499
O O8 0.457170 0.207858 0.141970
O O9 0.496400 0.473673 0.137897
O O10 0.410617 0.337738 0.911486
O O11 0.303384 0.382190 0.723574
O O12 0.333754 0.276708 0.964992
O O13 0.750000 0.750000 0.500000
O O14 0.792280 0.490092 0.482266
O O15 0.250000 0.750000 0.500000
#
# Coordination Sequence:
#
# PCOD9288310 Si02
#       8
#     8   8   8   4   4   8   8   8
#     4  11  24  44  70  98 137 179 221 278 341 403
#     4  11  24  42  71 103 133 176 228 275 335 402
#     4  11  24  43  69  98 136 175 226 278 336 404
#     4  10  22  38  68 102 128 168 224 274 332 398
#     4  10  26  46  60  96 140 178 230 268 336 402
#     4  11  24  43  68 104 133 177 225 280 336 396
#     4  11  24  44  68  99 139 172 225 279 335 397
#     4  11  24  44  68  95 140 177 223 276 333 401
#
# _framework density 23.059526999999999
#
# number of rings (size 3 to 8) (size 9 to 14) (size 15 to 20)
#    0.000    1.143    4.286    0.857    4.000    3.429 
#    5.143    0.000    0.000    0.000    0.000    0.000 
#    0.000    0.000    0.000    0.000    0.000    0.000 
#
# Total GULP energy -156026.214282 kJ/mol
# GULP energy per Si atom -5572.364796 kJ/mol
# Density = 2.300704 g / cm^3
# Si number density = 23.059527 Si / 1000 Ang^3
#
#
#
# Elastic Constant Matrix: (Units=GPa)
#
#
# Indices 1 2 3 4 5 6 
#
# 1 57.0812 1.6978 9.6867 0.0000 13.0453 0.0000
# 2 1.6978 61.4952 25.7760 0.0000 -5.7723 0.0000
# 3 9.6867 25.7760 125.7842 0.0000 9.5682 0.0000
# 4 0.0000 0.0000 0.0000 45.1487 0.0000 -2.1647
# 5 13.0453 -5.7723 9.5682 0.0000 30.1170 0.0000
# 6 0.0000 0.0000 0.0000 -2.1647 0.0000 22.5537
#
#
#
# Elastic Compliance Matrix: (Units=1/GPa)
#
#
# Indices 1 2 3 4 5 6 
#
# 1 0.019600 -0.001068 -0.000645 0.000000 -0.008490 0.000000
# 2 -0.001068 0.018516 -0.004117 0.000000 0.005319 0.000000
# 3 -0.000645 -0.004117 0.009102 0.000000 -0.003401 0.000000
# 4 0.000000 0.000000 0.000000 0.022251 0.000000 0.002136
# 5 -0.008490 0.005319 -0.003401 0.000000 0.038981 0.000000
# 6 0.000000 0.000000 0.000000 0.002136 0.000000 0.044544
#
#
# Mechanical properties :
#
#
# Convention : Reuss Voigt Hill
#
# Bulk Modulus (GPa) = 28.12177 35.40908 31.76542
# Shear Modulus (GPa) = 28.32762 33.37723 30.85242
#
# Velocity S-wave (km/s) = 3.50874 3.80865 3.66176
# Velocity P-wave (km/s) = 5.35133 5.89321 5.62879
#
# Compressibility (1/GPa) = 0.03555964
#
# Stress axis : x y z
#
# Youngs Moduli (GPa) = 51.01958 54.00814 109.86449
#
# Poissons Ratio (x) = 0.05767 0.07084
# Poissons Ratio (y) = 0.05448 0.45228
# Poissons Ratio (z) = 0.03290 0.22233
#
# Static dielectric constant tensor:
#      x y z
#    x 1.751290 0.000000 0.051110 
#    y 0.000000 1.884430 0.000000 
#    z 0.051110 0.000000 1.757680 
# 
# From -- ./inp_files/126009.got.cif
#   From: 2010.05.17/outbox.cif.g08.bks.cpg/sg15_64_cif.got.tgz:126009.got - 2010.06.03 18:47:42.
