data_PCOD9288068
_publ_section_title
;
Structure prediction by ZEFSAII (Michael W. Deem and Ramdas Pophale) SiO2 
 PCOD9288068
Probable space group: C 2/C
;
_chemical_formula_sum "Si O2"
_cell_formula_units_Z 60
_cell_length_a 23.461003
_cell_length_b 21.328567
_cell_length_c 11.739173
_cell_angle_alpha 90.000000
_cell_angle_beta 30.218256
_cell_angle_gamma 90.000000
_cell_volume 2956.437025
_symmetry_space_group_name_H-M "C 2/C"
_symmetry_group_IT_number 15
_symmetry_cell_setting 'monoclinic'
loop_
_space_group_symop_operation_xyz
x,y,z
-x,y,1/2-z
-x,-y,-z
x,-y,1/2+z
1/2+x,1/2+y,z
1/2-x,1/2+y,1/2-z
1/2-x,1/2-y,-z
1/2+x,1/2-y,1/2+z
loop_
_atom_site_type_symbol
_atom_site_label
_atom_site_fract_x
_atom_site_fract_y
_atom_site_fract_z
Si Si1 0.500000 0.531695 0.250000
Si Si2 0.970387 0.575462 0.177517
Si Si3 0.570755 0.788784 0.817096
Si Si4 0.163248 0.095578 0.115319
Si Si5 0.304700 0.784691 0.299170
Si Si6 0.322833 0.428273 0.644255
Si Si7 0.172081 0.502148 0.249520
Si Si8 0.792886 0.795835 0.587756
O O1 0.540075 0.582170 0.277354
O O2 0.415585 0.482328 0.460067
O O3 0.938772 0.647754 0.239880
O O4 0.871418 0.546067 0.275068
O O5 0.000000 0.550243 0.250000
O O6 0.081673 0.553722 0.917653
O O7 0.667945 0.796696 0.745237
O O8 0.617204 0.733998 0.655786
O O9 0.441113 0.783793 0.083307
O O10 0.172236 0.097661 0.235688
O O11 0.236315 0.149234 0.924945
O O12 0.216298 0.029382 0.988507
O O13 0.250000 0.750000 0.500000
O O14 0.287743 0.748099 0.209165
O O15 0.204091 0.460620 0.809061
O O16 0.331354 0.366012 0.552444
#
# Coordination Sequence:
#
# PCOD9288068 Si02
#       8
#     4   8   8   8   8   8   8   8
#     4  10  26  42  70 100 136 188 228 280 346 420
#     4  11  20  37  64  93 127 166 212 269 333 397
#     4  11  25  45  69  98 136 182 235 289 346 420
#     4  11  23  44  65  96 136 175 226 283 342 412
#     4  12  25  44  69  97 137 180 231 292 352 409
#     4  11  22  44  67  98 135 173 230 280 344 417
#     4  10  22  38  62  98 129 166 211 271 342 403
#     4  11  25  45  69 103 138 184 235 288 354 420
#
# _framework density 20.294699000000001
#
# number of rings (size 3 to 8) (size 9 to 14) (size 15 to 20)
#    0.000    1.067    4.000    2.400    1.867    1.600 
#    0.000    1.333    0.000    0.000    0.000    0.000 
#    0.000    0.000    0.000    0.000    0.000    0.000 
#
# Total GULP energy -167023.393046 kJ/mol
# GULP energy per Si atom -5567.446435 kJ/mol
# Density = 2.024851 g / cm^3
# Si number density = 20.294699 Si / 1000 Ang^3
#
#
#
# Elastic Constant Matrix: (Units=GPa)
#
#
# Indices 1 2 3 4 5 6 
#
# 1 116.0703 41.0741 20.7102 0.0001 -2.6464 -0.0001
# 2 41.0741 93.2896 36.3631 0.0000 -15.1916 0.0000
# 3 20.7102 36.3631 52.2856 0.0002 -0.3721 -0.0002
# 4 0.0001 0.0000 0.0002 30.7951 -0.0001 2.4363
# 5 -2.6464 -15.1916 -0.3721 -0.0001 17.2623 0.0001
# 6 -0.0001 0.0000 -0.0002 2.4363 0.0001 31.1203
#
#
#
# Elastic Compliance Matrix: (Units=1/GPa)
#
#
# Indices 1 2 3 4 5 6 
#
# 1 0.010352 -0.004606 -0.000915 0.000000 -0.002486 0.000000
# 2 -0.004606 0.020205 -0.012108 0.000000 0.016814 0.000000
# 3 -0.000915 -0.012108 0.027836 0.000000 -0.010195 0.000000
# 4 0.000000 0.000000 0.000000 0.032675 0.000000 -0.002558
# 5 -0.002486 0.016814 -0.010195 0.000000 0.072126 0.000000
# 6 0.000000 0.000000 0.000000 -0.002558 0.000000 0.032334
#
#
# Mechanical properties :
#
#
# Convention : Reuss Voigt Hill
#
# Bulk Modulus (GPa) = 43.22311 50.88226 47.05268
# Shear Modulus (GPa) = 20.96468 26.73542 23.85005
#
# Velocity S-wave (km/s) = 3.21754 3.63348 3.43182
# Velocity P-wave (km/s) = 5.92852 6.53675 6.24005
#
# Compressibility (1/GPa) = 0.02313577
#
# Stress axis : x y z
#
# Youngs Moduli (GPa) = 96.59990 49.49306 35.92472
#
# Poissons Ratio (x) = 0.22798 0.03286
# Poissons Ratio (y) = 0.44496 0.43497
# Poissons Ratio (z) = 0.08835 0.59925
#
# Static dielectric constant tensor:
#      x y z
#    x 2.516450 0.000000 -0.149740 
#    y 0.000000 1.744370 0.000000 
#    z -0.149740 0.000000 1.830630 
# 
# From -- ./inp_files/119941.got.cif
#   From: 2010.05.17/outbox.cif.g08.bks.cpg/sg15_60_cif.got.tgz:119941.got - 2010.06.03 18:47:42.
