data_PCOD9288012
_publ_section_title
;
Structure prediction by ZEFSAII (Michael W. Deem and Ramdas Pophale) SiO2 
 PCOD9288012
Probable space group: C 2/C
;
_chemical_formula_sum "Si O2"
_cell_formula_units_Z 44
_cell_length_a 24.945145
_cell_length_b 12.762558
_cell_length_c 9.048836
_cell_angle_alpha 90.000000
_cell_angle_beta 132.364972
_cell_angle_gamma 90.000000
_cell_volume 2128.545840
_symmetry_space_group_name_H-M "C 2/C"
_symmetry_group_IT_number 15
_symmetry_cell_setting 'monoclinic'
loop_
_space_group_symop_operation_xyz
x,y,z
-x,y,1/2-z
-x,-y,-z
x,-y,1/2+z
1/2+x,1/2+y,z
1/2-x,1/2+y,1/2-z
1/2-x,1/2-y,-z
1/2+x,1/2-y,1/2+z
loop_
_atom_site_type_symbol
_atom_site_label
_atom_site_fract_x
_atom_site_fract_y
_atom_site_fract_z
Si Si1 0.972629 0.694536 0.508792
Si Si2 0.562348 0.576210 0.557418
Si Si3 0.745515 0.626754 0.441307
Si Si4 0.602455 0.925878 0.413114
Si Si5 0.337015 0.532295 0.491778
Si Si6 0.500000 0.114945 0.250000
O O1 0.972307 0.814176 0.547668
O O2 0.900533 0.640165 0.440513
O O3 0.982274 0.684719 0.354845
O O4 0.040199 0.629891 0.699505
O O5 0.500000 0.500000 0.500000
O O6 0.603604 0.529612 0.493913
O O7 0.621187 0.591528 0.798554
O O8 0.750000 0.750000 0.500000
O O9 0.824389 0.583614 0.540873
O O10 0.700695 0.605138 0.204377
O O11 0.712987 0.553462 0.513048
O O12 0.570011 0.038811 0.393649
#
# Coordination Sequence:
#
# PCOD9288012 Si02
#       6
#     8   8   8   8   8   4
#     4  10  23  38  66  95 123 169 224 264 334 390
#     4  11  24  42  70  94 136 167 228 287 325 391
#     4  11  25  45  70  92 143 178 223 271 341 412
#     4  10  22  41  65  90 133 168 211 276 329 384
#     4  10  26  45  63 106 129 179 226 272 339 404
#     4  10  22  38  62 102 124 158 232 262 332 388
#
# _framework density 20.671389999999999
#
# number of rings (size 3 to 8) (size 9 to 14) (size 15 to 20)
#    0.000    1.818    0.000    3.818   17.818    0.000 
#    0.000    2.727    0.000    0.000    0.000    0.000 
#    0.000    0.000    0.000    0.000    0.000    0.000 
#
# Total GULP energy -122728.224841 kJ/mol
# GULP energy per Si atom -5578.555675 kJ/mol
# Density = 2.062434 g / cm^3
# Si number density = 20.671390 Si / 1000 Ang^3
#
#
#
# Elastic Constant Matrix: (Units=GPa)
#
#
# Indices 1 2 3 4 5 6 
#
# 1 185.0460 29.1893 28.1193 0.0000 -13.8372 0.0000
# 2 29.1893 71.1461 33.9816 0.0000 -0.9547 0.0000
# 3 28.1193 33.9816 73.2077 0.0000 -26.9464 0.0000
# 4 0.0000 0.0000 0.0000 -1.7228 0.0000 -1.6391
# 5 -13.8372 -0.9547 -26.9464 0.0000 39.6541 0.0000
# 6 0.0000 0.0000 0.0000 -1.6391 0.0000 24.2282
#
#
#
# Elastic Compliance Matrix: (Units=1/GPa)
#
#
# Indices 1 2 3 4 5 6 
#
# 1 0.005959 -0.002048 -0.000788 0.000000 0.001495 0.000000
# 2 -0.002048 0.020357 -0.011662 0.000000 -0.008149 0.000000
# 3 -0.000788 -0.011662 0.025566 0.000000 0.016817 0.000000
# 4 0.000000 0.000000 0.000000 -0.545356 0.000000 -0.036894
# 5 0.001495 -0.008149 0.016817 0.000000 0.036971 0.000000
# 6 0.000000 0.000000 0.000000 -0.036894 0.000000 0.038778
#
#
# Mechanical properties :
#
#
# Convention : Reuss Voigt Hill
#
# Bulk Modulus (GPa) = 43.69738 56.88670 50.29204
# Shear Modulus (GPa) = -13.11991 28.30589 7.59299
#
# Velocity S-wave (km/s) = -2.52204 3.70446 1.91863
# Velocity P-wave (km/s) = 3.56427 6.77323 5.41205
#
# Compressibility (1/GPa) = 0.02288467
#
# Stress axis : x y z
#
# Youngs Moduli (GPa) = 167.82354 49.12362 39.11479
#
# Poissons Ratio (x) = 0.10062 0.03081
# Poissons Ratio (y) = 0.34376 0.45616
# Poissons Ratio (z) = 0.13221 0.57289
#
# Static dielectric constant tensor:
#      x y z
#    x 1.748720 0.000000 -0.005010 
#    y 0.000000 1.759550 0.000000 
#    z -0.005010 0.000000 1.811970 
# 
# From -- ./inp_files/54405.got.cif
#   From: 2010.05.17/outbox.cif.g08.bks.cpg/sg15_28_cif.got.tgz:54405.got - 2010.06.03 18:47:42.
