data_PCOD9288548
_publ_section_title
;
Structure prediction by ZEFSAII (Michael W. Deem and Ramdas Pophale) SiO2 
 PCOD9288548
Probable space group: C 2/C
;
_chemical_formula_sum "Si O2"
_cell_formula_units_Z 56
_cell_length_a 16.788494
_cell_length_b 24.417292
_cell_length_c 9.273800
_cell_angle_alpha 90.000000
_cell_angle_beta 127.430399
_cell_angle_gamma 90.000000
_cell_volume 3018.824904
_symmetry_space_group_name_H-M "C 2/C"
_symmetry_group_IT_number 15
_symmetry_cell_setting 'monoclinic'
loop_
_space_group_symop_operation_xyz
x,y,z
-x,y,1/2-z
-x,-y,-z
x,-y,1/2+z
1/2+x,1/2+y,z
1/2-x,1/2+y,1/2-z
1/2-x,1/2-y,-z
1/2+x,1/2-y,1/2+z
loop_
_atom_site_type_symbol
_atom_site_label
_atom_site_fract_x
_atom_site_fract_y
_atom_site_fract_z
Si Si1 0.000000 0.347381 0.250000
Si Si2 0.820295 0.426936 0.003614
Si Si3 0.110429 0.512075 0.187918
Si Si4 0.500000 0.098094 0.250000
Si Si5 0.989180 0.799095 0.082973
Si Si6 0.189626 0.775385 0.131220
Si Si7 0.682476 0.326346 0.815127
Si Si8 0.402682 0.814683 0.433144
O O1 0.084093 0.386953 0.407805
O O2 0.049538 0.313973 0.174663
O O3 0.842619 0.461532 0.172691
O O4 0.821578 0.466900 0.867892
O O5 0.727723 0.385463 0.901235
O O6 0.085192 0.560040 0.273427
O O7 0.000000 0.500000 0.000000
O O8 0.551603 0.135286 0.428532
O O9 0.000000 0.826868 0.250000
O O10 0.095994 0.784514 0.131276
O O11 0.915634 0.829702 0.891598
O O12 0.933339 0.741094 0.044935
O O13 0.233986 0.713402 0.169808
O O14 0.283493 0.812987 0.282715
O O15 0.159785 0.794268 0.937993
#
# Coordination Sequence:
#
# PCOD9288548 Si02
#       8
#     4   8   8   4   8   8   8   8
#     4  12  19  34  60  84 132 160 202 233 304 362
#     4  12  22  37  58  89 125 163 198 249 304 373
#     4  12  22  35  54  85 128 159 199 244 301 371
#     4  12  21  36  54  90 126 164 192 245 316 360
#     4  11  24  41  57  88 131 161 206 261 303 368
#     4  10  22  39  61  91 119 164 215 245 298 376
#     4  10  23  39  63  88 119 166 210 251 304 364
#     4  11  23  35  60  92 126 169 198 247 306 371
#
# _framework density 18.550263999999999
#
# number of rings (size 3 to 8) (size 9 to 14) (size 15 to 20)
#    0.000    0.857    6.429    1.286    4.000    3.429 
#    0.000    0.000    0.000    0.000    0.000   14.000 
#    0.000    0.000    0.000    0.000    0.000    0.000 
#
# Total GULP energy -156427.588994 kJ/mol
# GULP energy per Si atom -5586.699607 kJ/mol
# Density = 1.850804 g / cm^3
# Si number density = 18.550264 Si / 1000 Ang^3
#
#
#
# Elastic Constant Matrix: (Units=GPa)
#
#
# Indices 1 2 3 4 5 6 
#
# 1 63.0813 5.2302 47.1172 0.0000 -1.4675 0.0000
# 2 5.2302 66.0502 36.1649 0.0000 -0.1366 0.0000
# 3 47.1172 36.1649 123.0997 0.0000 1.9857 0.0000
# 4 0.0000 0.0000 0.0000 45.7727 0.0000 2.6729
# 5 -1.4675 -0.1366 1.9857 0.0000 22.3991 0.0000
# 6 0.0000 0.0000 0.0000 2.6729 0.0000 22.7771
#
#
#
# Elastic Compliance Matrix: (Units=1/GPa)
#
#
# Indices 1 2 3 4 5 6 
#
# 1 0.023008 0.003606 -0.009905 0.000000 0.002407 0.000000
# 2 0.003606 0.018615 -0.006865 0.000000 0.000958 0.000000
# 3 -0.009905 -0.006865 0.013962 0.000000 -0.001929 0.000000
# 4 0.000000 0.000000 0.000000 0.021998 0.000000 -0.002581
# 5 0.002407 0.000958 -0.001929 0.000000 0.044979 0.000000
# 6 0.000000 0.000000 0.000000 -0.002581 0.000000 0.044207
#
#
# Mechanical properties :
#
#
# Convention : Reuss Voigt Hill
#
# Bulk Modulus (GPa) = 34.17737 47.69508 40.93623
# Shear Modulus (GPa) = 24.64904 29.10437 26.87670
#
# Velocity S-wave (km/s) = 3.64918 3.96529 3.81052
# Velocity P-wave (km/s) = 6.01827 6.83606 6.44016
#
# Compressibility (1/GPa) = 0.02925913
#
# Stress axis : x y z
#
# Youngs Moduli (GPa) = 43.46388 53.71996 71.62094
#
# Poissons Ratio (x) = -0.19373 0.70938
# Poissons Ratio (y) = -0.15674 0.49165
# Poissons Ratio (z) = 0.43049 0.36877
#
# Static dielectric constant tensor:
#      x y z
#    x 1.638630 0.000000 -0.021720 
#    y 0.000000 1.659050 0.000000 
#    z -0.021720 0.000000 1.690140 
# 
# From -- ./inp_files/42771.got.cif
#   From: 2010.05.17/outbox.cif.g08.bks.cpg/sg15_22_cif.got.tgz:42771.got - 2010.06.03 18:47:42.
