data_PCOD9288390
_publ_section_title
;
Structure prediction by ZEFSAII (Michael W. Deem and Ramdas Pophale) SiO2 
 PCOD9288390
Probable space group: C 2/C
;
_chemical_formula_sum "Si O2"
_cell_formula_units_Z 48
_cell_length_a 19.616593
_cell_length_b 11.276478
_cell_length_c 22.885303
_cell_angle_alpha 90.000000
_cell_angle_beta 20.852009
_cell_angle_gamma 90.000000
_cell_volume 1801.977198
_symmetry_space_group_name_H-M "C 2/C"
_symmetry_group_IT_number 15
_symmetry_cell_setting 'monoclinic'
loop_
_space_group_symop_operation_xyz
x,y,z
-x,y,1/2-z
-x,-y,-z
x,-y,1/2+z
1/2+x,1/2+y,z
1/2-x,1/2+y,1/2-z
1/2-x,1/2-y,-z
1/2+x,1/2-y,1/2+z
loop_
_atom_site_type_symbol
_atom_site_label
_atom_site_fract_x
_atom_site_fract_y
_atom_site_fract_z
Si Si1 0.946083 0.181415 0.857627
Si Si2 0.012191 0.647891 0.451357
Si Si3 0.232483 0.856559 0.845890
Si Si4 0.089098 0.590448 0.514477
Si Si5 0.145284 0.418873 0.183934
Si Si6 0.983538 0.908265 0.834664
O O1 0.948144 0.047368 0.880113
O O2 0.000000 0.150534 0.750000
O O3 0.098979 0.271464 0.763186
O O4 0.750000 0.250000 0.000000
O O5 0.954997 0.783782 0.489991
O O6 0.900952 0.554512 0.498322
O O7 0.225919 0.631685 0.256033
O O8 0.966177 0.619681 0.555229
O O9 0.250697 0.982116 0.860740
O O10 0.299855 0.632296 0.326698
O O11 0.997774 0.627886 0.649448
O O12 0.000000 0.465635 0.250000
O O13 0.308875 0.353646 0.013575
O O14 0.000000 0.893341 0.750000
#
# Coordination Sequence:
#
# PCOD9288390 Si02
#       6
#     8   8   8   8   8   8
#     4  11  20  28  47  82 120 151 185 235 288 351
#     4  10  22  39  55  79 123 162 205 242 280 359
#     4  11  20  34  55  83 114 159 199 238 291 345
#     4  10  22  41  54  83 124 165 198 239 293 359
#     4  11  21  35  59  92 124 152 193 246 303 360
#     4  11  20  33  56  83 117 154 193 235 299 351
#
# _framework density 26.637409000000002
#
# number of rings (size 3 to 8) (size 9 to 14) (size 15 to 20)
#    0.000    1.333    3.333    4.500    4.667    0.000 
#    3.000    3.333    0.000    0.000    0.000    3.500 
#    0.000    0.000    0.000    0.000    0.000    0.000 
#
# Total GULP energy -133702.113459 kJ/mol
# GULP energy per Si atom -5570.921394 kJ/mol
# Density = 2.657678 g / cm^3
# Si number density = 26.637409 Si / 1000 Ang^3
#
#
#
# Elastic Constant Matrix: (Units=GPa)
#
#
# Indices 1 2 3 4 5 6 
#
# 1 103.8046 4.6443 47.4901 -0.0089 53.0074 0.0043
# 2 4.6443 81.6417 22.7793 0.0019 6.4133 0.0045
# 3 47.4901 22.7793 168.1118 -0.0152 49.1365 0.0135
# 4 -0.0089 0.0019 -0.0152 38.4183 -0.0006 1.8429
# 5 53.0074 6.4133 49.1365 -0.0006 41.7385 0.0004
# 6 0.0043 0.0045 0.0135 1.8429 0.0004 -2.4004
#
#
#
# Elastic Compliance Matrix: (Units=1/GPa)
#
#
# Indices 1 2 3 4 5 6 
#
# 1 0.029034 0.000533 0.003853 0.000004 -0.041491 0.000071
# 2 0.000533 0.012740 -0.001688 -0.000002 -0.000647 0.000014
# 3 0.003853 -0.001688 0.009823 0.000002 -0.016198 0.000058
# 4 0.000004 -0.000002 0.000002 0.025105 -0.000007 0.019274
# 5 -0.041491 -0.000647 -0.016198 -0.000007 0.095820 -0.000157
# 6 0.000071 0.000014 0.000058 0.019274 -0.000157 -0.401805
#
#
# Mechanical properties :
#
#
# Convention : Reuss Voigt Hill
#
# Bulk Modulus (GPa) = 17.54591 55.93171 36.73881
# Shear Modulus (GPa) = -23.18229 34.12757 5.47264
#
# Velocity S-wave (km/s) = -2.95327 3.58325 1.43491
# Velocity P-wave (km/s) = 2.24228 6.17759 4.07031
#
# Compressibility (1/GPa) = 0.05699333
#
# Stress axis : x y z
#
# Youngs Moduli (GPa) = 34.44249 78.49269 101.80026
#
# Poissons Ratio (x) = -0.04180 -0.39224
# Poissons Ratio (y) = -0.01834 0.17179
# Poissons Ratio (z) = -0.13271 0.13246
#
# Static dielectric constant tensor:
#      x y z
#    x 2.127560 -0.000010 -0.021670 
#    y -0.000010 2.840270 0.000050 
#    z -0.021670 0.000050 2.145020 
# 
# From -- ./inp_files/280240.got.cif
#   From: 2010.05.17/outbox.cif.g08.bks.cpg/sg15_141_cif.got.tgz:280240.got - 2010.06.03 18:47:42.
