data_PCOD9288774
_publ_section_title
;
Structure prediction by ZEFSAII (Michael W. Deem and Ramdas Pophale) SiO2 
 PCOD9288774
Probable space group: C 2/C
;
_chemical_formula_sum "Si O2"
_cell_formula_units_Z 44
_cell_length_a 18.538487
_cell_length_b 23.652885
_cell_length_c 12.143707
_cell_angle_alpha 90.000000
_cell_angle_beta 155.752998
_cell_angle_gamma 90.000000
_cell_volume 2186.773867
_symmetry_space_group_name_H-M "C 2/C"
_symmetry_group_IT_number 15
_symmetry_cell_setting 'monoclinic'
loop_
_space_group_symop_operation_xyz
x,y,z
-x,y,1/2-z
-x,-y,-z
x,-y,1/2+z
1/2+x,1/2+y,z
1/2-x,1/2+y,1/2-z
1/2-x,1/2-y,-z
1/2+x,1/2-y,1/2+z
loop_
_atom_site_type_symbol
_atom_site_label
_atom_site_fract_x
_atom_site_fract_y
_atom_site_fract_z
Si Si1 0.507024 0.567001 0.500339
Si Si2 0.194341 0.359701 0.976629
Si Si3 0.235100 0.711037 0.870899
Si Si4 0.500000 0.614538 0.250000
Si Si5 0.674310 0.631752 0.063167
Si Si6 0.652838 0.248234 0.198731
O O1 0.500000 0.500000 0.500000
O O2 0.504490 0.580499 0.368598
O O3 0.355937 0.598370 0.365306
O O4 0.686820 0.594659 0.795751
O O5 0.183317 0.380029 0.833927
O O6 0.000000 0.353899 0.750000
O O7 0.290377 0.298619 0.138449
O O8 0.357493 0.727096 0.938236
O O9 0.036955 0.718955 0.548935
O O10 0.250000 0.750000 0.000000
O O11 0.318657 0.650423 0.011883
O O12 0.704097 0.698653 0.117073
O O13 0.500000 0.621415 0.750000
#
# Coordination Sequence:
#
# PCOD9288774 Si02
#       6
#     8   8   8   4   8   8
#     4  11  26  47  70  93 127 189 239 281 335 389
#     4  11  22  42  68 104 138 176 220 282 342 403
#     4  12  21  36  58  94 137 176 211 265 329 419
#     4  12  24  44  68  94 134 180 232 276 338 394
#     4  10  22  39  64  97 132 173 220 271 337 404
#     4  12  21  36  63  99 139 169 215 264 349 412
#
# _framework density 20.120965000000002
#
# number of rings (size 3 to 8) (size 9 to 14) (size 15 to 20)
#    0.000    0.727    3.636    5.455    3.818    0.000 
#    0.000    2.727    0.000    0.000    0.000    0.000 
#    0.000    0.000    0.000    0.000    0.000    0.000 
#
# Total GULP energy -122511.721738 kJ/mol
# GULP energy per Si atom -5568.714624 kJ/mol
# Density = 2.007517 g / cm^3
# Si number density = 20.120965 Si / 1000 Ang^3
#
#
#
# Elastic Constant Matrix: (Units=GPa)
#
#
# Indices 1 2 3 4 5 6 
#
# 1 142.3619 62.9447 53.5974 0.0000 -19.1113 0.0000
# 2 62.9447 148.7188 45.2856 0.0000 -8.8799 0.0000
# 3 53.5974 45.2856 74.5295 0.0000 21.4732 0.0000
# 4 0.0000 0.0000 0.0000 16.8877 0.0000 4.7872
# 5 -19.1113 -8.8799 21.4732 0.0000 45.0855 0.0000
# 6 0.0000 0.0000 0.0000 4.7872 0.0000 -11.1374
#
#
#
# Elastic Compliance Matrix: (Units=1/GPa)
#
#
# Indices 1 2 3 4 5 6 
#
# 1 0.013883 -0.001390 -0.012466 0.000000 0.011548 0.000000
# 2 -0.001390 0.009327 -0.005826 0.000000 0.004023 0.000000
# 3 -0.012466 -0.005826 0.032193 0.000000 -0.021765 0.000000
# 4 0.000000 0.000000 0.000000 0.052783 0.000000 0.022688
# 5 0.011548 0.004023 -0.021765 0.000000 0.038234 0.000000
# 6 0.000000 0.000000 0.000000 0.022688 0.000000 -0.080036
#
#
# Mechanical properties :
#
#
# Convention : Reuss Voigt Hill
#
# Bulk Modulus (GPa) = 62.35395 76.58505 69.46950
# Shear Modulus (GPa) = 45.00637 23.75268 34.37953
#
# Velocity S-wave (km/s) = 4.73460 3.43956 4.13806
# Velocity P-wave (km/s) = 7.80676 7.34296 7.57841
#
# Compressibility (1/GPa) = 0.01603748
#
# Stress axis : x y z
#
# Youngs Moduli (GPa) = 72.03231 107.21705 31.06222
#
# Poissons Ratio (x) = 0.14906 0.38723
# Poissons Ratio (y) = 0.10014 0.18098
# Poissons Ratio (z) = 0.89796 0.62469
#
# Static dielectric constant tensor:
#      x y z
#    x 1.795500 0.000000 -0.012000 
#    y 0.000000 1.946930 0.000000 
#    z -0.012000 0.000000 1.736750 
# 
# From -- ./inp_files/108001.got.cif
#   From: 2010.05.17/outbox.cif.g08.bks.cpg/sg15_55_cif.got.tgz:108001.got - 2010.06.03 18:47:42.
