data_PCOD9288264
_publ_section_title
;
Structure prediction by ZEFSAII (Michael W. Deem and Ramdas Pophale) SiO2 
 PCOD9288264
Probable space group: C 2/C
;
_chemical_formula_sum "Si O2"
_cell_formula_units_Z 56
_cell_length_a 12.191718
_cell_length_b 18.297534
_cell_length_c 11.307827
_cell_angle_alpha 90.000000
_cell_angle_beta 89.339048
_cell_angle_gamma 90.000000
_cell_volume 2522.363827
_symmetry_space_group_name_H-M "C 2/C"
_symmetry_group_IT_number 15
_symmetry_cell_setting 'monoclinic'
loop_
_space_group_symop_operation_xyz
x,y,z
-x,y,1/2-z
-x,-y,-z
x,-y,1/2+z
1/2+x,1/2+y,z
1/2-x,1/2+y,1/2-z
1/2-x,1/2-y,-z
1/2+x,1/2-y,1/2+z
loop_
_atom_site_type_symbol
_atom_site_label
_atom_site_fract_x
_atom_site_fract_y
_atom_site_fract_z
Si Si1 0.213745 0.598964 0.543375
Si Si2 0.000000 0.958793 0.750000
Si Si3 0.326378 0.322579 0.486040
Si Si4 0.068274 0.837558 0.560374
Si Si5 0.500000 0.228865 0.750000
Si Si6 0.900423 0.452663 0.665592
Si Si7 0.789957 0.041120 0.144174
Si Si8 0.843853 0.613056 0.681426
O O1 0.318315 0.648391 0.508923
O O2 0.119339 0.599496 0.445533
O O3 0.249640 0.513406 0.543925
O O4 0.173726 0.609622 0.677102
O O5 0.956328 0.909869 0.860123
O O6 0.897060 0.998373 0.696030
O O7 0.250000 0.250000 0.500000
O O8 0.459716 0.317176 0.483717
O O9 0.310658 0.377913 0.596495
O O10 0.270232 0.367247 0.379519
O O11 0.075391 0.777229 0.663609
O O12 0.426491 0.179936 0.665705
O O13 0.793497 0.449788 0.748592
O O14 0.904186 0.539453 0.636579
O O15 0.000000 0.433142 0.750000
#
# Coordination Sequence:
#
# PCOD9288264 Si02
#       8
#     8   4   8   8   4   8   8   8
#     4  11  24  40  64 102 130 168 226 284 340 385
#     4   9  18  36  62  90 120 170 211 260 335 402
#     4  11  22  41  67  95 131 181 227 262 327 413
#     4  10  22  39  66  91 129 175 219 272 336 396
#     4  11  22  44  66  90 130 182 223 266 327 416
#     4  11  23  42  65  96 136 174 223 278 346 399
#     4  10  22  38  66  93 133 169 225 279 333 397
#     4  11  24  40  67  98 133 177 223 276 332 403
#
# _framework density 22.201395999999999
#
# number of rings (size 3 to 8) (size 9 to 14) (size 15 to 20)
#    0.000    1.429    5.000    0.000    0.000    9.143 
#    0.000    0.000    0.000    0.000    0.000    0.000 
#    0.000    0.000    0.000    0.000    0.000    0.000 
#
# Total GULP energy -156198.498250 kJ/mol
# GULP energy per Si atom -5578.517795 kJ/mol
# Density = 2.215087 g / cm^3
# Si number density = 22.201396 Si / 1000 Ang^3
#
#
#
# Elastic Constant Matrix: (Units=GPa)
#
#
# Indices 1 2 3 4 5 6 
#
# 1 68.6968 -1.1110 37.4475 0.0000 29.3935 0.0000
# 2 -1.1110 44.4717 5.4642 0.0000 -3.6755 0.0000
# 3 37.4475 5.4642 76.5121 0.0000 24.4524 0.0000
# 4 0.0000 0.0000 0.0000 35.1749 0.0000 10.0580
# 5 29.3935 -3.6755 24.4524 0.0000 50.7272 0.0000
# 6 0.0000 0.0000 0.0000 10.0580 0.0000 22.8926
#
#
#
# Elastic Compliance Matrix: (Units=1/GPa)
#
#
# Indices 1 2 3 4 5 6 
#
# 1 0.023129 0.000844 -0.008413 0.000000 -0.009286 0.000000
# 2 0.000844 0.023074 -0.002883 0.000000 0.002573 0.000000
# 3 -0.008413 -0.002883 0.018798 0.000000 -0.004395 0.000000
# 4 0.000000 0.000000 0.000000 0.032514 0.000000 -0.014285
# 5 -0.009286 0.002573 -0.004395 0.000000 0.027399 0.000000
# 6 0.000000 0.000000 0.000000 -0.014285 0.000000 0.049959
#
#
# Mechanical properties :
#
#
# Convention : Reuss Voigt Hill
#
# Bulk Modulus (GPa) = 22.67701 30.36467 26.52084
# Shear Modulus (GPa) = 23.75561 31.61761 27.68661
#
# Velocity S-wave (km/s) = 3.27464 3.77785 3.53521
# Velocity P-wave (km/s) = 4.95319 5.72156 5.35118
#
# Compressibility (1/GPa) = 0.04409752
#
# Stress axis : x y z
#
# Youngs Moduli (GPa) = 43.23484 43.33855 53.19701
#
# Poissons Ratio (x) = -0.03658 0.44755
# Poissons Ratio (y) = -0.03649 0.15337
# Poissons Ratio (z) = 0.36374 0.12495
#
# Static dielectric constant tensor:
#      x y z
#    x 1.804300 0.000000 0.055250 
#    y 0.000000 1.896970 0.000000 
#    z 0.055250 0.000000 1.793040 
# 
# From -- ./inp_files/88925.got.cif
#   From: 2010.05.17/outbox.cif.g08.bks.cpg/sg15_45_cif.got.tgz:88925.got - 2010.06.03 18:47:42.
