data_PCOD9288896
_publ_section_title
;
Structure prediction by ZEFSAII (Michael W. Deem and Ramdas Pophale) SiO2 
 PCOD9288896
Probable space group: C 2/C
;
_chemical_formula_sum "Si O2"
_cell_formula_units_Z 64
_cell_length_a 13.841618
_cell_length_b 17.557895
_cell_length_c 13.624707
_cell_angle_alpha 90.000000
_cell_angle_beta 83.549506
_cell_angle_gamma 90.000000
_cell_volume 3290.245846
_symmetry_space_group_name_H-M "C 2/C"
_symmetry_group_IT_number 15
_symmetry_cell_setting 'monoclinic'
loop_
_space_group_symop_operation_xyz
x,y,z
-x,y,1/2-z
-x,-y,-z
x,-y,1/2+z
1/2+x,1/2+y,z
1/2-x,1/2+y,1/2-z
1/2-x,1/2-y,-z
1/2+x,1/2-y,1/2+z
loop_
_atom_site_type_symbol
_atom_site_label
_atom_site_fract_x
_atom_site_fract_y
_atom_site_fract_z
Si Si1 0.818715 0.795866 0.914166
Si Si2 0.288473 0.332255 0.457499
Si Si3 0.615645 0.030659 0.758675
Si Si4 0.182999 0.574867 0.417925
Si Si5 0.677642 0.199459 0.784789
Si Si6 0.509596 0.841401 0.865742
Si Si7 0.538526 0.277184 0.963931
Si Si8 0.349388 0.958002 0.930724
O O1 0.786579 0.884777 0.913285
O O2 0.808159 0.755666 0.808600
O O3 0.930781 0.792453 0.936557
O O4 0.750000 0.750000 0.000000
O O5 0.250000 0.250000 0.500000
O O6 0.271518 0.321876 0.342405
O O7 0.392482 0.342819 0.498602
O O8 0.222109 0.400401 0.506399
O O9 0.500000 0.020930 0.750000
O O10 0.638415 0.119251 0.749292
O O11 0.654093 0.998602 0.857050
O O12 0.674305 0.975137 0.679019
O O13 0.119698 0.642551 0.380359
O O14 0.148973 0.542897 0.526052
O O15 0.598627 0.235011 0.870002
O O16 0.500000 0.832427 0.750000
O O17 0.451577 0.914834 0.913105
O O18 0.471455 0.774471 0.937553
#
# Coordination Sequence:
#
# PCOD9288896 Si02
#       8
#     8   8   8   8   8   8   8   8
#     4  12  26  42  62  95 133 171 215 270 320 383
#     4  10  22  39  67  88 122 171 221 259 307 391
#     4  12  23  35  62  96 129 162 202 270 337 383
#     4  12  24  38  60  93 134 164 208 264 329 382
#     4  11  24  43  68  96 130 173 213 268 332 392
#     4  12  22  37  63  99 130 164 211 271 326 389
#     4  11  24  43  65  93 128 175 224 261 318 387
#     4  12  22  39  60  94 129 167 208 265 329 391
#
# _framework density 19.451433000000002
#
# number of rings (size 3 to 8) (size 9 to 14) (size 15 to 20)
#    0.000    0.500    7.500    2.250    7.000    0.000 
#    0.000    0.625    0.000    0.000    0.000    0.000 
#    0.000    0.000    0.000    0.000    0.000    0.000 
#
# Total GULP energy -178218.374653 kJ/mol
# GULP energy per Si atom -5569.324208 kJ/mol
# Density = 1.940716 g / cm^3
# Si number density = 19.451433 Si / 1000 Ang^3
#
#
#
# Elastic Constant Matrix: (Units=GPa)
#
#
# Indices 1 2 3 4 5 6 
#
# 1 98.8440 26.0073 49.7188 0.0000 16.6956 0.0000
# 2 26.0073 65.4637 38.5965 0.0000 3.1647 0.0000
# 3 49.7188 38.5965 95.5219 0.0000 -3.9506 0.0000
# 4 0.0000 0.0000 0.0000 32.1524 0.0000 1.1251
# 5 16.6956 3.1647 -3.9506 0.0000 20.0607 0.0000
# 6 0.0000 0.0000 0.0000 1.1251 0.0000 28.3748
#
#
#
# Elastic Compliance Matrix: (Units=1/GPa)
#
#
# Indices 1 2 3 4 5 6 
#
# 1 0.018099 -0.000532 -0.009906 0.000000 -0.016930 0.000000
# 2 -0.000532 0.020537 -0.008204 0.000000 -0.004413 0.000000
# 3 -0.009906 -0.008204 0.019493 0.000000 0.013377 0.000000
# 4 0.000000 0.000000 0.000000 0.031145 0.000000 -0.001235
# 5 -0.016930 -0.004413 0.013377 0.000000 0.067270 0.000000
# 6 0.000000 0.000000 0.000000 -0.001235 0.000000 0.035291
#
#
# Mechanical properties :
#
#
# Convention : Reuss Voigt Hill
#
# Bulk Modulus (GPa) = 47.97045 54.27497 51.12271
# Shear Modulus (GPa) = 21.18036 25.81803 23.49920
#
# Velocity S-wave (km/s) = 3.30340 3.64718 3.47954
# Velocity P-wave (km/s) = 6.26619 6.76012 6.51784
#
# Compressibility (1/GPa) = 0.02084617
#
# Stress axis : x y z
#
# Youngs Moduli (GPa) = 55.25107 48.69216 51.30030
#
# Poissons Ratio (x) = 0.02588 0.50818
# Poissons Ratio (y) = 0.02937 0.42087
# Poissons Ratio (z) = 0.54732 0.39948
#
# Static dielectric constant tensor:
#      x y z
#    x 1.736820 0.000000 -0.010020 
#    y 0.000000 1.689300 0.000000 
#    z -0.010020 0.000000 1.713780 
# 
# From -- ./inp_files/98781.got.cif
#   From: 2010.05.17/outbox.cif.g08.bks.cpg/sg15_50_cif.got.tgz:98781.got - 2010.06.03 18:47:42.
