data_PCOD9288422
_publ_section_title
;
Structure prediction by ZEFSAII (Michael W. Deem and Ramdas Pophale) SiO2 
 PCOD9288422
Probable space group: C 2/C
;
_chemical_formula_sum "Si O2"
_cell_formula_units_Z 52
_cell_length_a 17.080921
_cell_length_b 22.363535
_cell_length_c 9.211510
_cell_angle_alpha 90.000000
_cell_angle_beta 48.603747
_cell_angle_gamma 90.000000
_cell_volume 2639.569964
_symmetry_space_group_name_H-M "C 2/C"
_symmetry_group_IT_number 15
_symmetry_cell_setting 'monoclinic'
loop_
_space_group_symop_operation_xyz
x,y,z
-x,y,1/2-z
-x,-y,-z
x,-y,1/2+z
1/2+x,1/2+y,z
1/2-x,1/2+y,1/2-z
1/2-x,1/2-y,-z
1/2+x,1/2-y,1/2+z
loop_
_atom_site_type_symbol
_atom_site_label
_atom_site_fract_x
_atom_site_fract_y
_atom_site_fract_z
Si Si1 0.780316 0.613041 0.691156
Si Si2 0.175267 0.864153 0.883433
Si Si3 0.714725 0.476024 0.032193
Si Si4 0.122082 0.892237 0.624648
Si Si5 0.500000 0.281910 0.250000
Si Si6 0.430798 0.962466 0.195647
Si Si7 0.665583 0.800452 0.638501
O O1 0.721262 0.559382 0.676442
O O2 0.874590 0.589988 0.675410
O O3 0.826573 0.655903 0.510609
O O4 0.691414 0.635880 0.910160
O O5 0.156052 0.866792 0.737686
O O6 0.288564 0.836965 0.783336
O O7 0.175630 0.929054 0.959657
O O8 0.085330 0.823815 0.068367
O O9 0.648967 0.536744 0.103528
O O10 0.834306 0.495835 0.861623
O O11 0.000000 0.883806 0.750000
O O12 0.440820 0.235882 0.215417
O O13 0.500000 0.945144 0.250000
O O14 0.500000 0.000000 0.000000
O O15 0.750000 0.750000 0.500000
#
# Coordination Sequence:
#
# PCOD9288422 Si02
#       7
#     8   8   8   8   4   8   8
#     4  10  22  39  58  91 125 161 211 259 305 362
#     4  10  23  40  65  91 121 161 204 260 303 366
#     4  10  22  39  59  93 133 168 204 242 293 385
#     4  11  24  36  60  95 133 164 197 245 318 377
#     4  10  22  44  70  86 106 162 220 260 312 366
#     4  11  21  36  59  91 137 173 203 242 301 380
#     4   9  21  43  67  82 113 153 214 268 304 362
#
# _framework density 19.700177
#
# number of rings (size 3 to 8) (size 9 to 14) (size 15 to 20)
#    0.000    1.846    1.538    1.846    9.692    3.692 
#    0.000    3.077    0.000    0.000    0.000    0.000 
#    0.000    0.000    0.000    0.000    0.000    0.000 
#
# Total GULP energy -145075.413166 kJ/mol
# GULP energy per Si atom -5579.823583 kJ/mol
# Density = 1.965534 g / cm^3
# Si number density = 19.700177 Si / 1000 Ang^3
#
#
#
# Elastic Constant Matrix: (Units=GPa)
#
#
# Indices 1 2 3 4 5 6 
#
# 1 122.5671 17.9050 41.0395 0.0000 12.0908 0.0000
# 2 17.9050 52.7954 6.2661 0.0000 2.4981 0.0000
# 3 41.0395 6.2661 63.2850 0.0000 8.4896 0.0000
# 4 0.0000 0.0000 0.0000 0.3808 0.0000 -3.5133
# 5 12.0908 2.4981 8.4896 0.0000 36.8500 0.0000
# 6 0.0000 0.0000 0.0000 -3.5133 0.0000 9.3357
#
#
#
# Elastic Compliance Matrix: (Units=1/GPa)
#
#
# Indices 1 2 3 4 5 6 
#
# 1 0.010962 -0.002848 -0.006573 0.000000 -0.001889 0.000000
# 2 -0.002848 0.019935 -0.000073 0.000000 -0.000400 0.000000
# 3 -0.006573 -0.000073 0.020412 0.000000 -0.002541 0.000000
# 4 0.000000 0.000000 0.000000 -1.062295 0.000000 -0.399771
# 5 -0.001889 -0.000400 -0.002541 0.000000 0.028369 0.000000
# 6 0.000000 0.000000 0.000000 -0.399771 0.000000 -0.043328
#
#
# Mechanical properties :
#
#
# Convention : Reuss Voigt Hill
#
# Bulk Modulus (GPa) = 30.94077 41.00762 35.97420
# Shear Modulus (GPa) = -5.01916 20.87576 7.92830
#
# Velocity S-wave (km/s) = -1.59791 3.25879 2.00829
# Velocity P-wave (km/s) = 3.51220 5.91783 4.86602
#
# Compressibility (1/GPa) = 0.03231981
#
# Stress axis : x y z
#
# Youngs Moduli (GPa) = 91.22233 50.16412 48.98983
#
# Poissons Ratio (x) = 0.14287 0.32203
# Poissons Ratio (y) = 0.25981 0.00358
# Poissons Ratio (z) = 0.59964 0.00367
#
# Static dielectric constant tensor:
#      x y z
#    x 1.705620 0.000000 -0.014130 
#    y 0.000000 1.729620 0.000000 
#    z -0.014130 0.000000 1.668890 
# 
# From -- ./inp_files/42060.got.cif
#   From: 2010.05.17/outbox.cif.g08.bks.cpg/sg15_22_cif.got.tgz:42060.got - 2010.06.03 18:47:42.
