data_PCOD9288107
_publ_section_title
;
Structure prediction by ZEFSAII (Michael W. Deem and Ramdas Pophale) SiO2 
 PCOD9288107
Probable space group: C 2/C
;
_chemical_formula_sum "Si O2"
_cell_formula_units_Z 56
_cell_length_a 20.062586
_cell_length_b 22.043449
_cell_length_c 5.648430
_cell_angle_alpha 90.000000
_cell_angle_beta 63.871232
_cell_angle_gamma 90.000000
_cell_volume 2242.729981
_symmetry_space_group_name_H-M "C 2/C"
_symmetry_group_IT_number 15
_symmetry_cell_setting 'monoclinic'
loop_
_space_group_symop_operation_xyz
x,y,z
-x,y,1/2-z
-x,-y,-z
x,-y,1/2+z
1/2+x,1/2+y,z
1/2-x,1/2+y,1/2-z
1/2-x,1/2-y,-z
1/2+x,1/2-y,1/2+z
loop_
_atom_site_type_symbol
_atom_site_label
_atom_site_fract_x
_atom_site_fract_y
_atom_site_fract_z
Si Si1 0.876802 0.664372 0.783563
Si Si2 0.800527 0.972132 0.861425
Si Si3 0.255046 0.189090 0.333646
Si Si4 0.389440 0.704895 0.247397
Si Si5 0.084371 0.474899 0.351029
Si Si6 0.721249 0.647104 0.817620
Si Si7 0.459754 0.421391 0.558829
O O1 0.921386 0.727538 0.681106
O O2 0.912783 0.598318 0.691678
O O3 0.806660 0.668603 0.717060
O O4 0.834912 0.673824 0.100690
O O5 0.889111 0.965186 0.695810
O O6 0.776699 0.991092 0.635476
O O7 0.779384 0.906004 0.991107
O O8 0.250000 0.250000 0.500000
O O9 0.194364 0.203478 0.228970
O O10 0.224853 0.133263 0.534338
O O11 0.358138 0.682786 0.550382
O O12 0.435905 0.649776 0.074794
O O13 0.116690 0.494499 0.558950
O O14 0.000000 0.500000 0.500000
O O15 0.500000 0.424436 0.750000
O O16 0.500000 0.435986 0.250000
#
# Coordination Sequence:
#
# PCOD9288107 Si02
#       7
#     8   8   8   8   8   8   8
#     4  11  22  39  68 102 129 186 221 270 356 419
#     4  11  26  43  66  94 131 178 224 274 332 400
#     4  11  19  36  68 102 140 170 216 277 360 429
#     4  10  22  39  63 102 135 170 218 284 350 414
#     4  10  25  49  68  91 133 185 238 294 324 383
#     4  10  22  38  63  99 141 164 214 284 344 410
#     4  11  26  45  67  95 133 173 230 288 327 393
#
# _framework density 24.969567000000001
#
# number of rings (size 3 to 8) (size 9 to 14) (size 15 to 20)
#    0.000    1.429    2.857    1.714   12.000    2.857 
#    5.143    0.000    0.000    0.000    0.000    0.000 
#    0.000    0.000    0.000    0.000    0.000    0.000 
#
# Total GULP energy -155869.011850 kJ/mol
# GULP energy per Si atom -5566.750423 kJ/mol
# Density = 2.491274 g / cm^3
# Si number density = 24.969567 Si / 1000 Ang^3
#
#
#
# Elastic Constant Matrix: (Units=GPa)
#
#
# Indices 1 2 3 4 5 6 
#
# 1 38.6568 12.5458 16.4164 0.0000 -13.9523 0.0000
# 2 12.5458 208.2791 51.5793 0.0000 -4.2008 0.0000
# 3 16.4164 51.5793 157.6399 0.0000 -2.0975 0.0000
# 4 0.0000 0.0000 0.0000 31.6237 0.0000 11.9083
# 5 -13.9523 -4.2008 -2.0975 0.0000 24.7051 0.0000
# 6 0.0000 0.0000 0.0000 11.9083 0.0000 19.1933
#
#
#
# Elastic Compliance Matrix: (Units=1/GPa)
#
#
# Indices 1 2 3 4 5 6 
#
# 1 0.034292 -0.000937 -0.003012 0.000000 0.018952 0.000000
# 2 -0.000937 0.005264 -0.001622 0.000000 0.000228 0.000000
# 3 -0.003012 -0.001622 0.007170 0.000000 -0.001368 0.000000
# 4 0.000000 0.000000 0.000000 0.041262 0.000000 -0.025601
# 5 0.018952 0.000228 -0.001368 0.000000 0.051103 0.000000
# 6 0.000000 0.000000 0.000000 -0.025601 0.000000 0.067985
#
#
# Mechanical properties :
#
#
# Convention : Reuss Voigt Hill
#
# Bulk Modulus (GPa) = 28.10323 62.85100 45.47711
# Shear Modulus (GPa) = 21.73155 36.70669 29.21912
#
# Velocity S-wave (km/s) = 2.95332 3.83829 3.42451
# Velocity P-wave (km/s) = 4.78632 6.69843 5.82142
#
# Compressibility (1/GPa) = 0.03558310
#
# Stress axis : x y z
#
# Youngs Moduli (GPa) = 29.16110 189.97266 139.47637
#
# Poissons Ratio (x) = 0.17808 0.42014
# Poissons Ratio (y) = 0.02734 0.22619
# Poissons Ratio (z) = 0.08784 0.30808
#
# Static dielectric constant tensor:
#      x y z
#    x 2.097140 0.000000 0.069080 
#    y 0.000000 2.288260 0.000000 
#    z 0.069080 0.000000 2.189470 
# 
# From -- ./inp_files/15816.got.cif
#   From: 2010.05.17/outbox.cif.g08.bks.cpg/sg15_8_cif.got.tgz:15816.got - 2010.06.03 18:47:42.
