data_PCOD9288382
_publ_section_title
;
Structure prediction by ZEFSAII (Michael W. Deem and Ramdas Pophale) SiO2 
 PCOD9288382
Probable space group: C 2/C
;
_chemical_formula_sum "Si O2"
_cell_formula_units_Z 52
_cell_length_a 4.779758
_cell_length_b 22.440254
_cell_length_c 20.018327
_cell_angle_alpha 90.000000
_cell_angle_beta 73.738425
_cell_angle_gamma 90.000000
_cell_volume 2061.245212
_symmetry_space_group_name_H-M "C 2/C"
_symmetry_group_IT_number 15
_symmetry_cell_setting 'monoclinic'
loop_
_space_group_symop_operation_xyz
x,y,z
-x,y,1/2-z
-x,-y,-z
x,-y,1/2+z
1/2+x,1/2+y,z
1/2-x,1/2+y,1/2-z
1/2-x,1/2-y,-z
1/2+x,1/2-y,1/2+z
loop_
_atom_site_type_symbol
_atom_site_label
_atom_site_fract_x
_atom_site_fract_y
_atom_site_fract_z
Si Si1 0.901245 0.616109 0.682352
Si Si2 0.500000 0.000000 0.500000
Si Si3 0.298163 0.502903 0.869530
Si Si4 0.000000 0.668484 0.250000
Si Si5 0.587233 0.587215 0.953507
Si Si6 0.000000 0.916271 0.750000
Si Si7 0.669662 0.238959 0.864017
Si Si8 0.942249 0.777845 0.045690
O O1 0.724910 0.555895 0.681723
O O2 0.730992 0.672421 0.663885
O O3 0.000000 0.627297 0.750000
O O4 0.187986 0.600985 0.620609
O O5 0.511034 0.980009 0.582268
O O6 0.270928 0.941956 0.499706
O O7 0.349151 0.540323 0.938645
O O8 0.497287 0.455749 0.818437
O O9 0.218273 0.624992 0.273956
O O10 0.198196 0.710680 0.190866
O O11 0.476934 0.653436 0.976155
O O12 0.321726 0.230741 0.881127
O O13 0.787891 0.249144 0.931522
O O14 0.750000 0.750000 0.000000
#
# Coordination Sequence:
#
# PCOD9288382 Si02
#       8
#     8   4   8   4   8   4   8   8
#     4  10  22  38  74 106 134 180 237 311 373 428
#     4  10  24  40  68 100 146 190 242 296 366 434
#     4  11  23  46  70 104 145 193 246 312 357 447
#     4  12  30  49  68 107 148 198 246 288 376 456
#     4  10  22  41  65 103 138 178 243 286 370 428
#     4  12  30  47  72 101 150 196 250 292 364 448
#     4  11  25  46  73 101 145 182 242 300 369 432
#     4  11  24  46  72 108 138 187 239 305 360 440
#
# _framework density 25.227468999999999
#
# number of rings (size 3 to 8) (size 9 to 14) (size 15 to 20)
#    0.000    1.231    1.538    2.769   10.769    3.077 
#    2.769    0.000    0.000    0.000    0.000    0.000 
#    0.000    0.000    0.000    0.000    0.000    0.000 
#
# Total GULP energy -144806.900855 kJ/mol
# GULP energy per Si atom -5569.496187 kJ/mol
# Density = 2.517005 g / cm^3
# Si number density = 25.227469 Si / 1000 Ang^3
#
#
#
# Elastic Constant Matrix: (Units=GPa)
#
#
# Indices 1 2 3 4 5 6 
#
# 1 122.0370 43.0434 -0.7380 0.0000 9.3960 0.0000
# 2 43.0434 109.0372 25.6575 0.0000 10.7799 0.0000
# 3 -0.7380 25.6575 86.4882 0.0000 19.5932 0.0000
# 4 0.0000 0.0000 0.0000 33.4199 0.0000 -6.0039
# 5 9.3960 10.7799 19.5932 0.0000 42.4449 0.0000
# 6 0.0000 0.0000 0.0000 -6.0039 0.0000 60.7605
#
#
#
# Elastic Compliance Matrix: (Units=1/GPa)
#
#
# Indices 1 2 3 4 5 6 
#
# 1 0.009793 -0.004083 0.001732 0.000000 -0.001931 0.000000
# 2 -0.004083 0.011625 -0.003372 0.000000 -0.000492 0.000000
# 3 0.001732 -0.003372 0.013927 0.000000 -0.005956 0.000000
# 4 0.000000 0.000000 0.000000 0.030463 0.000000 0.003010
# 5 -0.001931 -0.000492 -0.005956 0.000000 0.026862 0.000000
# 6 0.000000 0.000000 0.000000 0.003010 0.000000 0.016755
#
#
# Mechanical properties :
#
#
# Convention : Reuss Voigt Hill
#
# Bulk Modulus (GPa) = 41.84152 50.38758 46.11455
# Shear Modulus (GPa) = 38.80874 43.96503 41.38688
#
# Velocity S-wave (km/s) = 3.92644 4.17915 4.05476
# Velocity P-wave (km/s) = 6.09734 6.58055 6.34355
#
# Compressibility (1/GPa) = 0.02389970
#
# Stress axis : x y z
#
# Youngs Moduli (GPa) = 102.10993 86.02158 71.80487
#
# Poissons Ratio (x) = 0.35120 -0.12437
# Poissons Ratio (y) = 0.41689 0.24213
# Poissons Ratio (z) = -0.17687 0.29007
#
# Static dielectric constant tensor:
#      x y z
#    x 3.392810 0.000000 -1.107830 
#    y 0.000000 2.186780 0.000000 
#    z -1.107830 0.000000 2.960040 
# 
# From -- ./inp_files/227516.got.cif
#   From: 2010.05.17/outbox.cif.g08.bks.cpg/sg15_114_cif.got.tgz:227516.got - 2010.06.03 18:47:42.
