data_PCOD9288859
_publ_section_title
;
Structure prediction by ZEFSAII (Michael W. Deem and Ramdas Pophale) SiO2 
 PCOD9288859
Probable space group: C 2/C
;
_chemical_formula_sum "Si O2"
_cell_formula_units_Z 56
_cell_length_a 29.595204
_cell_length_b 15.910852
_cell_length_c 9.194773
_cell_angle_alpha 90.000000
_cell_angle_beta 140.746112
_cell_angle_gamma 90.000000
_cell_volume 2739.639035
_symmetry_space_group_name_H-M "C 2/C"
_symmetry_group_IT_number 15
_symmetry_cell_setting 'monoclinic'
loop_
_space_group_symop_operation_xyz
x,y,z
-x,y,1/2-z
-x,-y,-z
x,-y,1/2+z
1/2+x,1/2+y,z
1/2-x,1/2+y,1/2-z
1/2-x,1/2-y,-z
1/2+x,1/2-y,1/2+z
loop_
_atom_site_type_symbol
_atom_site_label
_atom_site_fract_x
_atom_site_fract_y
_atom_site_fract_z
Si Si1 0.064017 0.568950 0.817311
Si Si2 0.344281 0.996842 0.706479
Si Si3 0.251150 0.567977 0.795842
Si Si4 0.305071 0.305240 0.229556
Si Si5 0.942639 0.242614 0.216417
Si Si6 0.523266 0.614092 0.956517
Si Si7 0.880677 0.038716 0.749519
O O1 0.092400 0.526321 0.741880
O O2 0.037647 0.661256 0.703431
O O3 0.000000 0.527657 0.750000
O O4 0.127016 0.565528 0.096419
O O5 0.302213 0.064672 0.700213
O O6 0.288289 0.963275 0.448819
O O7 0.272807 0.660308 0.799974
O O8 0.319623 0.509388 0.003510
O O9 0.371197 0.251006 0.446425
O O10 0.339806 0.386570 0.233408
O O11 0.250000 0.250000 0.000000
O O12 0.940311 0.180219 0.345226
O O13 0.000000 0.203507 0.250000
O O14 0.500000 0.656929 0.750000
O O15 0.448817 0.579436 0.837722
O O16 0.578195 0.537029 0.063188
#
# Coordination Sequence:
#
# PCOD9288859 Si02
#       7
#     8   8   8   8   8   8   8
#     4  10  22  43  68  93 125 170 224 280 335 396
#     4  10  22  39  66  95 125 169 224 271 329 402
#     4  11  21  39  63  96 131 170 216 268 328 403
#     4  12  24  40  65  98 134 182 222 277 342 409
#     4  11  23  43  63  94 135 173 219 279 340 405
#     4  11  24  40  66 100 132 173 228 277 336 399
#     4  11  23  40  68  96 134 178 225 273 333 409
#
# _framework density 20.440649000000001
#
# number of rings (size 3 to 8) (size 9 to 14) (size 15 to 20)
#    0.000    1.143    4.286    2.143    4.000    0.000 
#    2.571    4.286    0.000    0.000    0.000    0.000 
#    0.000    0.000    0.000    0.000    0.000    0.000 
#
# Total GULP energy -155953.315174 kJ/mol
# GULP energy per Si atom -5569.761256 kJ/mol
# Density = 2.039413 g / cm^3
# Si number density = 20.440649 Si / 1000 Ang^3
#
#
#
# Elastic Constant Matrix: (Units=GPa)
#
#
# Indices 1 2 3 4 5 6 
#
# 1 111.9142 41.0204 33.8024 0.0000 3.9466 0.0000
# 2 41.0204 66.9838 21.6406 0.0000 -4.5086 0.0000
# 3 33.8024 21.6406 113.7112 0.0000 -3.4991 0.0000
# 4 0.0000 0.0000 0.0000 19.5345 0.0000 13.3322
# 5 3.9466 -4.5086 -3.4991 0.0000 32.4000 0.0000
# 6 0.0000 0.0000 0.0000 13.3322 0.0000 -8.3625
#
#
#
# Elastic Compliance Matrix: (Units=1/GPa)
#
#
# Indices 1 2 3 4 5 6 
#
# 1 0.012306 -0.006937 -0.002422 0.000000 -0.002726 0.000000
# 2 -0.006937 0.019934 -0.001626 0.000000 0.003443 0.000000
# 3 -0.002422 -0.001626 0.009858 0.000000 0.001133 0.000000
# 4 0.000000 0.000000 0.000000 0.024516 0.000000 0.039085
# 5 -0.002726 0.003443 0.001133 0.000000 0.031798 0.000000
# 6 0.000000 0.000000 0.000000 0.039085 0.000000 -0.057268
#
#
# Mechanical properties :
#
#
# Convention : Reuss Voigt Hill
#
# Bulk Modulus (GPa) = 49.67845 53.94845 51.81345
# Shear Modulus (GPa) = 71.61091 21.79080 46.70085
#
# Velocity S-wave (km/s) = 5.92534 3.26859 4.78504
# Velocity P-wave (km/s) = 8.43619 6.37926 7.47878
#
# Compressibility (1/GPa) = 0.02012945
#
# Stress axis : x y z
#
# Youngs Moduli (GPa) = 81.26362 50.16538 101.43675
#
# Poissons Ratio (x) = 0.34799 0.24565
# Poissons Ratio (y) = 0.56372 0.16490
# Poissons Ratio (z) = 0.19680 0.08155
#
# Static dielectric constant tensor:
#      x y z
#    x 1.805440 0.000000 0.049780 
#    y 0.000000 1.751030 0.000000 
#    z 0.049780 0.000000 1.761310 
# 
# From -- ./inp_files/55621.got.cif
#   From: 2010.05.17/outbox.cif.g08.bks.cpg/sg15_28_cif.got.tgz:55621.got - 2010.06.03 18:47:42.
