data_PCOD9288728
_publ_section_title
;
Structure prediction by ZEFSAII (Michael W. Deem and Ramdas Pophale) SiO2 
 PCOD9288728
Probable space group: C 2/C
;
_chemical_formula_sum "Si O2"
_cell_formula_units_Z 40
_cell_length_a 16.408456
_cell_length_b 13.930826
_cell_length_c 7.412024
_cell_angle_alpha 90.000000
_cell_angle_beta 97.693696
_cell_angle_gamma 90.000000
_cell_volume 1679.013358
_symmetry_space_group_name_H-M "C 2/C"
_symmetry_group_IT_number 15
_symmetry_cell_setting 'monoclinic'
loop_
_space_group_symop_operation_xyz
x,y,z
-x,y,1/2-z
-x,-y,-z
x,-y,1/2+z
1/2+x,1/2+y,z
1/2-x,1/2+y,1/2-z
1/2-x,1/2-y,-z
1/2+x,1/2-y,1/2+z
loop_
_atom_site_type_symbol
_atom_site_label
_atom_site_fract_x
_atom_site_fract_y
_atom_site_fract_z
Si Si1 0.684105 0.109031 0.441595
Si Si2 0.594679 0.066843 0.769269
Si Si3 0.849368 0.813970 0.016571
Si Si4 0.843165 0.237187 0.087007
Si Si5 0.015793 0.888430 0.968373
O O1 0.616675 0.103300 0.578495
O O2 0.778980 0.106891 0.534851
O O3 0.672911 0.218959 0.377393
O O4 0.658242 0.020365 0.313401
O O5 0.500000 0.036592 0.750000
O O6 0.611940 0.158435 0.902462
O O7 0.840796 0.795577 0.796936
O O8 0.944027 0.839719 0.063075
O O9 0.894628 0.159297 0.986626
O O10 0.750000 0.250000 0.000000
O O11 0.000000 0.871646 0.750000
O O12 0.000000 0.000000 0.000000
#
# Coordination Sequence:
#
# PCOD9288728 Si02
#       5
#     8   8   8   8   8
#     4  10  22  39  64  89 122 165 203 264 314 386
#     4  11  23  40  64  90 125 163 212 264 331 382
#     4   9  21  43  60  87 132 162 205 259 324 376
#     4  10  22  40  65  92 125 168 210 261 320 385
#     4  10  22  42  65  88 126 169 207 261 315 379
#
# _framework density 23.823515
#
# number of rings (size 3 to 8) (size 9 to 14) (size 15 to 20)
#    0.000    2.000    0.000    3.600    5.600    1.600 
#    7.200    0.000    0.000    0.000    0.000    0.000 
#    0.000    0.000    0.000    0.000    0.000    0.000 
#
# Total GULP energy -111666.409911 kJ/mol
# GULP energy per Si atom -5583.320496 kJ/mol
# Density = 2.376929 g / cm^3
# Si number density = 23.823515 Si / 1000 Ang^3
#
#
#
# Elastic Constant Matrix: (Units=GPa)
#
#
# Indices 1 2 3 4 5 6 
#
# 1 187.9600 64.8600 19.4862 0.0000 -5.1595 0.0000
# 2 64.8600 106.1533 4.6790 0.0000 2.8640 0.0000
# 3 19.4862 4.6790 29.1366 0.0000 -1.7435 0.0000
# 4 0.0000 0.0000 0.0000 20.9236 0.0000 -3.3749
# 5 -5.1595 2.8640 -1.7435 0.0000 35.3294 0.0000
# 6 0.0000 0.0000 0.0000 -3.3749 0.0000 47.5467
#
#
#
# Elastic Compliance Matrix: (Units=1/GPa)
#
#
# Indices 1 2 3 4 5 6 
#
# 1 0.007257 -0.004286 -0.004093 0.000000 0.001205 0.000000
# 2 -0.004286 0.012044 0.000839 0.000000 -0.001561 0.000000
# 3 -0.004093 0.000839 0.036993 0.000000 0.001160 0.000000
# 4 0.000000 0.000000 0.000000 0.048346 0.000000 0.003432
# 5 0.001205 -0.001561 0.001160 0.000000 0.028665 0.000000
# 6 0.000000 0.000000 0.000000 0.003432 0.000000 0.021276
#
#
# Mechanical properties :
#
#
# Convention : Reuss Voigt Hill
#
# Bulk Modulus (GPa) = 24.26360 55.70004 39.98182
# Shear Modulus (GPa) = 27.26308 36.37492 31.81900
#
# Velocity S-wave (km/s) = 3.38653 3.91173 3.65857
# Velocity P-wave (km/s) = 5.04959 6.62067 5.88776
#
# Compressibility (1/GPa) = 0.04121401
#
# Stress axis : x y z
#
# Youngs Moduli (GPa) = 137.80500 83.02744 27.03221
#
# Poissons Ratio (x) = 0.35585 0.11064
# Poissons Ratio (y) = 0.59062 -0.02267
# Poissons Ratio (z) = 0.56400 -0.06964
#
# Static dielectric constant tensor:
#      x y z
#    x 1.963870 0.000000 0.040650 
#    y 0.000000 1.899790 0.000000 
#    z 0.040650 0.000000 1.987550 
# 
# From -- ./inp_files/37569.got.cif
#   From: 2010.05.17/outbox.cif.g08.bks.cpg/sg15_19_cif.got.tgz:37569.got - 2010.06.03 18:47:42.
