data_PCOD9288361
_publ_section_title
;
Structure prediction by ZEFSAII (Michael W. Deem and Ramdas Pophale) SiO2 
 PCOD9288361
Probable space group: C 2/C
;
_chemical_formula_sum "Si O2"
_cell_formula_units_Z 44
_cell_length_a 26.690189
_cell_length_b 10.182389
_cell_length_c 9.324449
_cell_angle_alpha 90.000000
_cell_angle_beta 117.360788
_cell_angle_gamma 90.000000
_cell_volume 2250.614510
_symmetry_space_group_name_H-M "C 2/C"
_symmetry_group_IT_number 15
_symmetry_cell_setting 'monoclinic'
loop_
_space_group_symop_operation_xyz
x,y,z
-x,y,1/2-z
-x,-y,-z
x,-y,1/2+z
1/2+x,1/2+y,z
1/2-x,1/2+y,1/2-z
1/2-x,1/2-y,-z
1/2+x,1/2-y,1/2+z
loop_
_atom_site_type_symbol
_atom_site_label
_atom_site_fract_x
_atom_site_fract_y
_atom_site_fract_z
Si Si1 0.171913 0.008529 0.124409
Si Si2 0.445216 0.067571 0.997942
Si Si3 0.114286 0.834313 0.285783
Si Si4 0.500000 0.704899 0.750000
Si Si5 0.129433 0.518094 0.343397
Si Si6 0.752157 0.902705 0.519131
O O1 0.135510 0.899479 0.164581
O O2 0.222243 0.951065 0.096134
O O3 0.202926 0.078058 0.295852
O O4 0.141397 0.100896 0.965895
O O5 0.394360 0.068278 0.818438
O O6 0.466422 0.203148 0.093182
O O7 0.416664 0.993187 0.093474
O O8 0.500000 0.000000 0.000000
O O9 0.048113 0.864140 0.221565
O O10 0.125851 0.675684 0.302423
O O11 0.192348 0.474220 0.466750
O O12 0.750000 0.750000 0.500000
#
# Coordination Sequence:
#
# PCOD9288361 Si02
#       6
#     8   8   8   4   8   8
#     4  10  25  43  61  91 127 167 219 258 308 382
#     4  11  19  38  61 101 120 159 204 259 316 381
#     4  10  23  44  66  90 127 169 209 268 317 377
#     4  10  22  38  70  90 132 162 208 258 330 374
#     4  11  24  38  68  92 131 165 205 266 328 364
#     4  11  26  40  64  95 125 169 212 258 317 382
#
# _framework density 19.550215999999999
#
# number of rings (size 3 to 8) (size 9 to 14) (size 15 to 20)
#    0.000    1.455    3.636    1.091   12.727    2.182 
#    0.000    0.000    0.000    0.000    0.000    0.000 
#    0.000    0.000    0.000    0.000    0.000    0.000 
#
# Total GULP energy -122520.534679 kJ/mol
# GULP energy per Si atom -5569.115213 kJ/mol
# Density = 1.950572 g / cm^3
# Si number density = 19.550216 Si / 1000 Ang^3
#
#
#
# Elastic Constant Matrix: (Units=GPa)
#
#
# Indices 1 2 3 4 5 6 
#
# 1 115.4907 33.9741 6.9957 0.0000 -2.4473 0.0000
# 2 33.9741 51.4647 1.7780 0.0000 0.8227 0.0000
# 3 6.9957 1.7780 63.8703 0.0000 -9.3990 0.0000
# 4 0.0000 0.0000 0.0000 8.8196 0.0000 6.5748
# 5 -2.4473 0.8227 -9.3990 0.0000 37.8290 0.0000
# 6 0.0000 0.0000 0.0000 6.5748 0.0000 30.9655
#
#
#
# Elastic Compliance Matrix: (Units=1/GPa)
#
#
# Indices 1 2 3 4 5 6 
#
# 1 0.010822 -0.007123 -0.000894 0.000000 0.000633 0.000000
# 2 -0.007123 0.024150 -0.000039 0.000000 -0.000996 0.000000
# 3 -0.000894 -0.000039 0.016345 0.000000 0.004004 0.000000
# 4 0.000000 0.000000 0.000000 0.134705 0.000000 -0.028601
# 5 0.000633 -0.000996 0.004004 0.000000 0.027492 0.000000
# 6 0.000000 0.000000 0.000000 -0.028601 0.000000 0.038367
#
#
# Mechanical properties :
#
#
# Convention : Reuss Voigt Hill
#
# Bulk Modulus (GPa) = 28.40444 35.14682 31.77563
# Shear Modulus (GPa) = 17.87452 28.06134 22.96793
#
# Velocity S-wave (km/s) = 3.02700 3.79271 3.43128
# Velocity P-wave (km/s) = 5.17470 6.09887 5.65569
#
# Compressibility (1/GPa) = 0.03520576
#
# Stress axis : x y z
#
# Youngs Moduli (GPa) = 92.40713 41.40736 61.18098
#
# Poissons Ratio (x) = 0.29495 0.05469
# Poissons Ratio (y) = 0.65822 0.00236
# Poissons Ratio (z) = 0.08260 0.00160
#
# Static dielectric constant tensor:
#      x y z
#    x 1.722830 0.000000 -0.002970 
#    y 0.000000 1.065850 0.000000 
#    z -0.002970 0.000000 1.721040 
# 
# From -- ./inp_files/60715.got.cif
#   From: 2010.05.17/outbox.cif.g08.bks.cpg/sg15_31_cif.got.tgz:60715.got - 2010.06.03 18:47:42.
