data_PCOD9288550
_publ_section_title
;
Structure prediction by ZEFSAII (Michael W. Deem and Ramdas Pophale) SiO2 
 PCOD9288550
Probable space group: C 2/C
;
_chemical_formula_sum "Si O2"
_cell_formula_units_Z 48
_cell_length_a 24.796579
_cell_length_b 4.965123
_cell_length_c 15.961784
_cell_angle_alpha 90.000000
_cell_angle_beta 76.427035
_cell_angle_gamma 90.000000
_cell_volume 1910.299992
_symmetry_space_group_name_H-M "C 2/C"
_symmetry_group_IT_number 15
_symmetry_cell_setting 'monoclinic'
loop_
_space_group_symop_operation_xyz
x,y,z
-x,y,1/2-z
-x,-y,-z
x,-y,1/2+z
1/2+x,1/2+y,z
1/2-x,1/2+y,1/2-z
1/2-x,1/2-y,-z
1/2+x,1/2-y,1/2+z
loop_
_atom_site_type_symbol
_atom_site_label
_atom_site_fract_x
_atom_site_fract_y
_atom_site_fract_z
Si Si1 0.777440 0.116823 0.781253
Si Si2 0.049029 0.425710 0.544509
Si Si3 0.803339 0.895778 0.942955
Si Si4 0.603135 0.419018 0.472316
Si Si5 0.405574 0.305655 0.207976
Si Si6 0.414720 0.198525 0.808004
O O1 0.763114 0.831190 0.745306
O O2 0.779775 0.098216 0.881103
O O3 0.839148 0.190301 0.732746
O O4 0.100201 0.597100 0.487132
O O5 0.046885 0.560319 0.636219
O O6 0.000000 0.500000 0.500000
O O7 0.061564 0.110493 0.539468
O O8 0.851838 0.730611 0.871900
O O9 0.750000 0.750000 0.000000
O O10 0.837925 0.004514 0.010394
O O11 0.582188 0.438091 0.385485
O O12 0.427842 0.503983 0.271519
O O13 0.418223 0.001116 0.227841
#
# Coordination Sequence:
#
# PCOD9288550 Si02
#       6
#     8   8   8   8   8   8
#     4  11  22  36  55  82 117 162 203 244 294 349
#     4  11  23  44  67  92 122 160 205 259 317 376
#     4  10  22  39  61  91 126 167 212 254 304 371
#     4  11  24  41  65  94 123 162 209 257 310 374
#     4  11  22  41  60  87 126 161 201 257 308 366
#     4  10  22  41  63  88 125 166 203 253 313 366
#
# _framework density 25.126946
#
# number of rings (size 3 to 8) (size 9 to 14) (size 15 to 20)
#    0.000    1.333    0.000    7.500    0.000    4.000 
#    0.000   20.000    0.000    0.000    0.000    0.000 
#    0.000    0.000    0.000    0.000    0.000    0.000 
#
# Total GULP energy -134001.701659 kJ/mol
# GULP energy per Si atom -5583.404236 kJ/mol
# Density = 2.506976 g / cm^3
# Si number density = 25.126946 Si / 1000 Ang^3
#
#
#
# Elastic Constant Matrix: (Units=GPa)
#
#
# Indices 1 2 3 4 5 6 
#
# 1 86.0891 6.5250 14.6644 0.0000 9.2082 0.0000
# 2 6.5250 96.6054 21.8818 0.0000 0.7331 0.0000
# 3 14.6644 21.8818 106.3743 0.0000 28.9231 0.0000
# 4 0.0000 0.0000 0.0000 10.2187 0.0000 -3.4999
# 5 9.2082 0.7331 28.9231 0.0000 36.9928 0.0000
# 6 0.0000 0.0000 0.0000 -3.4999 0.0000 9.3944
#
#
#
# Elastic Compliance Matrix: (Units=1/GPa)
#
#
# Indices 1 2 3 4 5 6 
#
# 1 0.012061 -0.000588 -0.000925 0.000000 -0.002267 0.000000
# 2 -0.000588 0.010997 -0.002745 0.000000 0.002075 0.000000
# 3 -0.000925 -0.002745 0.012720 0.000000 -0.009660 0.000000
# 4 0.000000 0.000000 0.000000 0.112172 0.000000 0.041790
# 5 -0.002267 0.002075 -0.009660 0.000000 0.035108 0.000000
# 6 0.000000 0.000000 0.000000 0.041790 0.000000 0.122015
#
#
# Mechanical properties :
#
#
# Convention : Reuss Voigt Hill
#
# Bulk Modulus (GPa) = 36.68308 41.69014 39.18661
# Shear Modulus (GPa) = 15.49540 27.72104 21.60822
#
# Velocity S-wave (km/s) = 2.48601 3.32511 2.93569
# Velocity P-wave (km/s) = 4.78237 5.60086 5.20772
#
# Compressibility (1/GPa) = 0.02726053
#
# Stress axis : x y z
#
# Youngs Moduli (GPa) = 82.91518 90.93247 78.61848
#
# Poissons Ratio (x) = 0.05345 0.07275
# Poissons Ratio (y) = 0.04874 0.21583
# Poissons Ratio (z) = 0.07672 0.24964
#
# Static dielectric constant tensor:
#      x y z
#    x 1.995360 0.000000 -0.053230 
#    y 0.000000 1.942260 0.000000 
#    z -0.053230 0.000000 2.159840 
# 
# From -- ./inp_files/175718.got.cif
#   From: 2010.05.17/outbox.cif.g08.bks.cpg/sg15_88_cif.got.tgz:175718.got - 2010.06.03 18:47:42.
