data_PCOD9288593
_publ_section_title
;
Structure prediction by ZEFSAII (Michael W. Deem and Ramdas Pophale) SiO2 
 PCOD9288593
Probable space group: C 2/C
;
_chemical_formula_sum "Si O2"
_cell_formula_units_Z 64
_cell_length_a 9.727781
_cell_length_b 14.881709
_cell_length_c 26.014483
_cell_angle_alpha 90.000000
_cell_angle_beta 124.532924
_cell_angle_gamma 90.000000
_cell_volume 3102.443522
_symmetry_space_group_name_H-M "C 2/C"
_symmetry_group_IT_number 15
_symmetry_cell_setting 'monoclinic'
loop_
_space_group_symop_operation_xyz
x,y,z
-x,y,1/2-z
-x,-y,-z
x,-y,1/2+z
1/2+x,1/2+y,z
1/2-x,1/2+y,1/2-z
1/2-x,1/2-y,-z
1/2+x,1/2-y,1/2+z
loop_
_atom_site_type_symbol
_atom_site_label
_atom_site_fract_x
_atom_site_fract_y
_atom_site_fract_z
Si Si1 0.612599 0.634131 0.522941
Si Si2 0.523150 0.869213 0.841801
Si Si3 0.385125 0.792200 0.912227
Si Si4 0.166616 0.495966 0.568993
Si Si5 0.988082 0.005783 0.410967
Si Si6 0.022309 0.274096 0.314365
Si Si7 0.972466 0.432505 0.116042
Si Si8 0.769995 0.128395 0.302536
O O1 0.553711 0.734244 0.525912
O O2 0.519795 0.592528 0.454285
O O3 0.571499 0.572241 0.563754
O O4 0.811070 0.616286 0.556342
O O5 0.498571 0.803823 0.885541
O O6 0.349951 0.879753 0.772823
O O7 0.656816 0.842214 0.827093
O O8 0.572664 0.966659 0.875522
O O9 0.325467 0.892144 0.912808
O O10 0.217863 0.738828 0.864145
O O11 0.334433 0.520705 0.575496
O O12 0.124107 0.556656 0.608899
O O13 0.000000 0.500000 0.500000
O O14 0.858925 0.036232 0.339723
O O15 0.976426 0.372035 0.325220
O O16 0.913273 0.200053 0.320531
O O17 0.000000 0.263185 0.250000
#
# Coordination Sequence:
#
# PCOD9288593 Si02
#       8
#     8   8   8   8   8   8   8   8
#     4  10  22  39  62  93 121 165 203 248 307 370
#     4  10  22  40  62  87 121 158 204 251 306 362
#     4  10  22  39  62  89 124 157 203 258 299 359
#     4  11  22  39  61  90 124 159 201 256 301 360
#     4  11  22  39  62  90 127 159 206 249 306 370
#     4  11  22  38  61  90 120 155 205 250 302 368
#     4  10  22  39  62  90 119 160 205 245 309 363
#     4  11  22  38  61  88 119 162 198 250 309 361
#
# _framework density 20.628902
#
# number of rings (size 3 to 8) (size 9 to 14) (size 15 to 20)
#    0.000    1.500    5.000    0.000    1.750    2.500 
#    0.000    1.250    0.000    0.000    0.000    0.000 
#    0.000    0.000    0.000    0.000    0.000    0.000 
#
# Total GULP energy -178636.550161 kJ/mol
# GULP energy per Si atom -5582.392193 kJ/mol
# Density = 2.058195 g / cm^3
# Si number density = 20.628902 Si / 1000 Ang^3
#
#
#
# Elastic Constant Matrix: (Units=GPa)
#
#
# Indices 1 2 3 4 5 6 
#
# 1 119.6561 26.0732 10.9069 0.0000 -12.4556 0.0000
# 2 26.0732 43.9858 -1.3288 0.0000 -11.8752 0.0000
# 3 10.9069 -1.3288 28.8108 0.0000 -3.5791 0.0000
# 4 0.0000 0.0000 0.0000 24.1140 0.0000 -5.2056
# 5 -12.4556 -11.8752 -3.5791 0.0000 23.5170 0.0000
# 6 0.0000 0.0000 0.0000 -5.2056 0.0000 27.5743
#
#
#
# Elastic Compliance Matrix: (Units=1/GPa)
#
#
# Indices 1 2 3 4 5 6 
#
# 1 0.010131 -0.005594 -0.003850 0.000000 0.001955 0.000000
# 2 -0.005594 0.029655 0.005073 0.000000 0.012784 0.000000
# 3 -0.003850 0.005073 0.037168 0.000000 0.006179 0.000000
# 4 0.000000 0.000000 0.000000 0.043232 0.000000 0.008161
# 5 0.001955 0.012784 0.006179 0.000000 0.050954 0.000000
# 6 0.000000 0.000000 0.000000 0.008161 0.000000 0.037806
#
#
# Mechanical properties :
#
#
# Convention : Reuss Voigt Hill
#
# Bulk Modulus (GPa) = 14.65989 29.30614 21.98302
# Shear Modulus (GPa) = 20.79655 25.49448 23.14552
#
# Velocity S-wave (km/s) = 3.17855 3.51930 3.35325
# Velocity P-wave (km/s) = 4.53793 5.54537 5.06675
#
# Compressibility (1/GPa) = 0.06821332
#
# Stress axis : x y z
#
# Youngs Moduli (GPa) = 98.71099 33.72118 26.90454
#
# Poissons Ratio (x) = 0.18862 0.10359
# Poissons Ratio (y) = 0.55214 -0.13650
# Poissons Ratio (z) = 0.38006 -0.17108
#
# Static dielectric constant tensor:
#      x y z
#    x 1.731970 0.000000 -0.032300 
#    y 0.000000 1.912550 0.000000 
#    z -0.032300 0.000000 1.714350 
# 
# From -- ./inp_files/288802.got.cif
#   From: 2010.05.17/outbox.cif.g08.bks.cpg/sg15_145_cif.got.tgz:288802.got - 2010.06.03 18:47:42.
