data_PCOD9288246
_publ_section_title
;
Structure prediction by ZEFSAII (Michael W. Deem and Ramdas Pophale) SiO2 
 PCOD9288246
Probable space group: C 2/C
;
_chemical_formula_sum "Si O2"
_cell_formula_units_Z 60
_cell_length_a 14.534007
_cell_length_b 14.009254
_cell_length_c 14.081981
_cell_angle_alpha 90.000000
_cell_angle_beta 78.302417
_cell_angle_gamma 90.000000
_cell_volume 2807.691866
_symmetry_space_group_name_H-M "C 2/C"
_symmetry_group_IT_number 15
_symmetry_cell_setting 'monoclinic'
loop_
_space_group_symop_operation_xyz
x,y,z
-x,y,1/2-z
-x,-y,-z
x,-y,1/2+z
1/2+x,1/2+y,z
1/2-x,1/2+y,1/2-z
1/2-x,1/2-y,-z
1/2+x,1/2-y,1/2+z
loop_
_atom_site_type_symbol
_atom_site_label
_atom_site_fract_x
_atom_site_fract_y
_atom_site_fract_z
Si Si1 0.895072 0.494205 0.367459
Si Si2 0.387399 0.353158 0.918177
Si Si3 0.899878 0.144009 0.644601
Si Si4 0.509602 0.160855 0.385539
Si Si5 0.500000 0.511921 0.250000
Si Si6 0.791354 0.617018 0.727517
Si Si7 0.303768 0.945788 0.586935
Si Si8 0.977112 0.324444 0.111224
O O1 0.830002 0.452212 0.301088
O O2 0.841648 0.481613 0.477789
O O3 0.934252 0.599698 0.343744
O O4 0.985174 0.425415 0.359529
O O5 0.441492 0.425175 0.837025
O O6 0.278499 0.368616 0.913826
O O7 0.440441 0.252491 0.889012
O O8 0.395857 0.371213 0.030726
O O9 0.968451 0.232519 0.648927
O O10 0.935549 0.053400 0.695856
O O11 0.798425 0.167874 0.709711
O O12 0.608089 0.104516 0.379552
O O13 0.467324 0.167670 0.500725
O O14 0.770289 0.541422 0.647890
O O15 0.875237 0.688250 0.679071
#
# Coordination Sequence:
#
# PCOD9288246 Si02
#       8
#     8   8   8   8   4   8   8   8
#     4  11  21  38  66  99 139 173 219 283 338 394
#     4  11  25  44  68  97 134 177 226 279 339 395
#     4  11  26  44  68  95 136 177 226 282 335 405
#     4  10  22  41  64  96 138 180 213 281 346 392
#     4  12  26  46  70  88 130 182 234 274 336 412
#     4  12  22  39  68 102 133 178 228 276 333 409
#     4  11  21  40  65  99 138 173 219 279 344 389
#     4  10  22  38  66 101 135 169 223 278 337 399
#
# _framework density 21.369865999999998
#
# number of rings (size 3 to 8) (size 9 to 14) (size 15 to 20)
#    0.000    1.067    5.333    1.600    3.733    2.667 
#    0.000    0.000    0.000    2.400    0.000    0.000 
#    0.000    0.000    0.000    0.000    0.000    0.000 
#
# Total GULP energy -167687.888582 kJ/mol
# GULP energy per Si atom -5589.596286 kJ/mol
# Density = 2.132123 g / cm^3
# Si number density = 21.369866 Si / 1000 Ang^3
#
#
#
# Elastic Constant Matrix: (Units=GPa)
#
#
# Indices 1 2 3 4 5 6 
#
# 1 66.0281 12.5612 20.0668 0.0000 -10.3599 0.0000
# 2 12.5612 67.2533 19.6582 0.0000 -6.0193 0.0000
# 3 20.0668 19.6582 116.6625 0.0000 -11.9820 0.0000
# 4 0.0000 0.0000 0.0000 23.3509 0.0000 -4.6342
# 5 -10.3599 -6.0193 -11.9820 0.0000 34.9460 0.0000
# 6 0.0000 0.0000 0.0000 -4.6342 0.0000 37.5210
#
#
#
# Elastic Compliance Matrix: (Units=1/GPa)
#
#
# Indices 1 2 3 4 5 6 
#
# 1 0.016814 -0.002171 -0.002128 0.000000 0.003881 0.000000
# 2 -0.002171 0.016037 -0.002188 0.000000 0.001368 0.000000
# 3 -0.002128 -0.002188 0.009539 0.000000 0.002263 0.000000
# 4 0.000000 0.000000 0.000000 0.043901 0.000000 0.005422
# 5 0.003881 0.001368 0.002263 0.000000 0.030778 0.000000
# 6 0.000000 0.000000 0.000000 0.005422 0.000000 0.027321
#
#
# Mechanical properties :
#
#
# Convention : Reuss Voigt Hill
#
# Bulk Modulus (GPa) = 33.99595 39.39068 36.69332
# Shear Modulus (GPa) = 29.90994 32.34076 31.12535
#
# Velocity S-wave (km/s) = 3.74522 3.89444 3.82056
# Velocity P-wave (km/s) = 5.88601 6.22054 6.05559
#
# Compressibility (1/GPa) = 0.02941527
#
# Stress axis : x y z
#
# Youngs Moduli (GPa) = 59.47547 62.35666 104.83438
#
# Poissons Ratio (x) = 0.13538 0.22305
# Poissons Ratio (y) = 0.12913 0.22941
# Poissons Ratio (z) = 0.12654 0.13645
#
# Static dielectric constant tensor:
#      x y z
#    x 1.773420 0.000000 0.003160 
#    y 0.000000 1.757730 0.000000 
#    z 0.003160 0.000000 1.821560 
# 
# From -- ./inp_files/153930.got.cif
#   From: 2010.05.17/outbox.cif.g08.bks.cpg/sg15_77_cif.got.tgz:153930.got - 2010.06.03 18:47:42.
