data_PCOD9288937
_publ_section_title
;
Structure prediction by ZEFSAII (Michael W. Deem and Ramdas Pophale) SiO2 
 PCOD9288937
Probable space group: C 2/C
;
_chemical_formula_sum "Si O2"
_cell_formula_units_Z 64
_cell_length_a 7.778918
_cell_length_b 32.778163
_cell_length_c 14.169706
_cell_angle_alpha 90.000000
_cell_angle_beta 52.957104
_cell_angle_gamma 90.000000
_cell_volume 2883.819366
_symmetry_space_group_name_H-M "C 2/C"
_symmetry_group_IT_number 15
_symmetry_cell_setting 'monoclinic'
loop_
_space_group_symop_operation_xyz
x,y,z
-x,y,1/2-z
-x,-y,-z
x,-y,1/2+z
1/2+x,1/2+y,z
1/2-x,1/2+y,1/2-z
1/2-x,1/2-y,-z
1/2+x,1/2-y,1/2+z
loop_
_atom_site_type_symbol
_atom_site_label
_atom_site_fract_x
_atom_site_fract_y
_atom_site_fract_z
Si Si1 0.296280 0.279174 0.245006
Si Si2 0.747979 0.386294 0.642104
Si Si3 0.765408 0.401118 0.295341
Si Si4 0.728866 0.811698 0.724470
Si Si5 0.926513 0.525362 0.118658
Si Si6 0.058295 0.836918 0.033160
Si Si7 0.899190 0.648133 0.585301
Si Si8 0.703969 0.504578 0.864033
O O1 0.500000 0.278350 0.250000
O O2 0.216412 0.233372 0.256459
O O3 0.404231 0.300766 0.120393
O O4 0.124063 0.310498 0.346135
O O5 0.500000 0.396909 0.750000
O O6 0.784533 0.347600 0.696957
O O7 0.888297 0.427173 0.610324
O O8 0.858907 0.368151 0.510531
O O9 0.573170 0.378094 0.409630
O O10 0.766816 0.387071 0.185424
O O11 0.749673 0.448037 0.328305
O O12 0.000000 0.386082 0.250000
O O13 0.500000 0.807654 0.750000
O O14 0.884722 0.826980 0.591514
O O15 0.717886 0.513108 0.252525
O O16 0.115668 0.516369 0.130229
O O17 0.000000 0.500000 0.000000
O O18 0.268114 0.841653 0.031967
O O19 0.500000 0.500000 0.000000
#
# Coordination Sequence:
#
# PCOD9288937 Si02
#       8
#     8   8   8   8   8   8   8   8
#     4   8  19  38  65  98 133 176 229 279 332 395
#     4  12  29  43  67  98 143 177 231 282 354 404
#     4  11  23  43  69  94 133 172 218 275 347 398
#     4  11  23  39  69 100 134 183 224 290 343 397
#     4  11  27  49  68  99 137 183 224 283 358 426
#     4  10  22  39  68 101 135 177 233 276 332 413
#     4  10  22  44  67  99 134 181 230 276 325 416
#     4  11  27  45  72 100 133 169 231 291 340 421
#
# _framework density 22.192792000000001
#
# number of rings (size 3 to 8) (size 9 to 14) (size 15 to 20)
#    0.000    1.500    2.500    1.875   10.500    1.500 
#    2.250    3.125    0.000    0.000    0.000    0.000 
#    0.000    0.000    0.000    0.000    0.000    0.000 
#
# Total GULP energy -178431.977077 kJ/mol
# GULP energy per Si atom -5575.999284 kJ/mol
# Density = 2.214228 g / cm^3
# Si number density = 22.192792 Si / 1000 Ang^3
#
#
#
# Elastic Constant Matrix: (Units=GPa)
#
#
# Indices 1 2 3 4 5 6 
#
# 1 45.0617 30.3184 26.1416 0.0000 -7.5791 0.0000
# 2 30.3184 157.2300 77.0918 0.0000 -7.2565 0.0000
# 3 26.1416 77.0918 170.8722 0.0000 -5.9093 0.0000
# 4 0.0000 0.0000 0.0000 61.3909 0.0000 114.6740
# 5 -7.5791 -7.2565 -5.9093 0.0000 25.5980 0.0000
# 6 0.0000 0.0000 0.0000 114.6740 0.0000 263.0159
#
#
#
# Elastic Compliance Matrix: (Units=1/GPa)
#
#
# Indices 1 2 3 4 5 6 
#
# 1 0.027143 -0.003865 -0.002186 0.000000 0.006436 0.000000
# 2 -0.003865 0.008773 -0.003347 0.000000 0.000570 0.000000
# 3 -0.002186 -0.003347 0.007703 0.000000 0.000182 0.000000
# 4 0.000000 0.000000 0.000000 0.087770 0.000000 -0.038267
# 5 0.006436 0.000570 0.000182 0.000000 0.041175 0.000000
# 6 0.000000 0.000000 0.000000 -0.038267 0.000000 0.020487
#
#
# Mechanical properties :
#
#
# Convention : Reuss Voigt Hill
#
# Bulk Modulus (GPa) = 40.28593 71.14083 55.71338
# Shear Modulus (GPa) = 22.71479 85.97509 54.34494
#
# Velocity S-wave (km/s) = 3.20272 6.23091 4.95387
# Velocity P-wave (km/s) = 5.64524 9.15920 7.60788
#
# Compressibility (1/GPa) = 0.02482256
#
# Stress axis : x y z
#
# Youngs Moduli (GPa) = 36.84184 113.98948 129.81716
#
# Poissons Ratio (x) = 0.44056 0.28382
# Poissons Ratio (y) = 0.14239 0.43449
# Poissons Ratio (z) = 0.08055 0.38152
#
# Static dielectric constant tensor:
#      x y z
#    x 1.881720 0.000000 -0.025250 
#    y 0.000000 1.812600 0.000000 
#    z -0.025250 0.000000 1.863300 
# 
# From -- ./inp_files/139785.got.cif
#   From: 2010.05.17/outbox.cif.g08.bks.cpg/sg15_70_cif.got.tgz:139785.got - 2010.06.03 18:47:42.
