data_PCOD9288820
_publ_section_title
;
Structure prediction by ZEFSAII (Michael W. Deem and Ramdas Pophale) SiO2 
 PCOD9288820
Probable space group: C 2/C
;
_chemical_formula_sum "Si O2"
_cell_formula_units_Z 56
_cell_length_a 19.625609
_cell_length_b 19.438166
_cell_length_c 14.566347
_cell_angle_alpha 90.000000
_cell_angle_beta 150.026429
_cell_angle_gamma 90.000000
_cell_volume 2776.207485
_symmetry_space_group_name_H-M "C 2/C"
_symmetry_group_IT_number 15
_symmetry_cell_setting 'monoclinic'
loop_
_space_group_symop_operation_xyz
x,y,z
-x,y,1/2-z
-x,-y,-z
x,-y,1/2+z
1/2+x,1/2+y,z
1/2-x,1/2+y,1/2-z
1/2-x,1/2-y,-z
1/2+x,1/2-y,1/2+z
loop_
_atom_site_type_symbol
_atom_site_label
_atom_site_fract_x
_atom_site_fract_y
_atom_site_fract_z
Si Si1 0.774928 0.937710 0.615759
Si Si2 0.921617 0.758105 0.520309
Si Si3 0.500000 0.145330 0.750000
Si Si4 0.553537 0.857324 0.683420
Si Si5 0.215803 0.597456 0.549558
Si Si6 0.764530 0.847909 0.776490
Si Si7 0.034489 0.200761 0.635841
Si Si8 0.000000 0.127349 0.250000
O O1 0.633638 0.901676 0.417654
O O2 0.804661 0.904656 0.749750
O O3 0.894183 0.916823 0.685236
O O4 0.759708 0.018843 0.608092
O O5 0.779483 0.720813 0.330259
O O6 0.974244 0.784461 0.483974
O O7 0.919128 0.821635 0.586769
O O8 0.006483 0.697520 0.670467
O O9 0.398276 0.882661 0.507792
O O10 0.631309 0.868827 0.678767
O O11 0.556030 0.775348 0.704550
O O12 0.638575 0.893057 0.862878
O O13 0.342331 0.649289 0.702629
O O14 0.887921 0.830880 0.988774
#
# Coordination Sequence:
#
# PCOD9288820 Si02
#       8
#     8   8   4   8   8   8   8   4
#     4  11  24  43  60  97 130 174 206 252 318 394
#     4   9  20  36  63  96 126 162 209 265 314 357
#     4   9  20  38  66  88 129 164 218 258 303 374
#     4  10  22  43  66  89 120 172 214 271 307 363
#     4  11  25  43  63  90 132 166 215 254 320 383
#     4  10  22  39  65  97 128 159 214 264 319 371
#     4  11  21  40  65  97 124 157 215 272 311 367
#     4  11  22  40  66  90 133 172 208 256 319 374
#
# _framework density 20.171403000000002
#
# number of rings (size 3 to 8) (size 9 to 14) (size 15 to 20)
#    0.000    1.714    1.429    3.000    2.000    5.714 
#    5.143    0.000    0.000    0.000    0.000    0.000 
#    0.000    0.000    0.000    0.000    0.000    0.000 
#
# Total GULP energy -156390.242539 kJ/mol
# GULP energy per Si atom -5585.365805 kJ/mol
# Density = 2.012549 g / cm^3
# Si number density = 20.171403 Si / 1000 Ang^3
#
#
#
# Elastic Constant Matrix: (Units=GPa)
#
#
# Indices 1 2 3 4 5 6 
#
# 1 87.6693 48.9152 5.2952 0.0000 18.0581 0.0000
# 2 48.9152 138.8014 17.3769 0.0000 25.4596 0.0000
# 3 5.2952 17.3769 44.1555 0.0000 18.1130 0.0000
# 4 0.0000 0.0000 0.0000 14.6267 0.0000 3.7033
# 5 18.0581 25.4596 18.1130 0.0000 26.5114 0.0000
# 6 0.0000 0.0000 0.0000 3.7033 0.0000 15.1013
#
#
#
# Elastic Compliance Matrix: (Units=1/GPa)
#
#
# Indices 1 2 3 4 5 6 
#
# 1 0.015363 -0.004241 0.003402 0.000000 -0.008715 0.000000
# 2 -0.004241 0.009916 -0.000934 0.000000 -0.005995 0.000000
# 3 0.003402 -0.000934 0.032219 0.000000 -0.023433 0.000000
# 4 0.000000 0.000000 0.000000 0.072894 0.000000 -0.017876
# 5 -0.008715 -0.005995 -0.023433 0.000000 0.065423 0.000000
# 6 0.000000 0.000000 0.000000 -0.017876 0.000000 0.070603
#
#
# Mechanical properties :
#
#
# Convention : Reuss Voigt Hill
#
# Bulk Modulus (GPa) = 18.53551 45.97785 32.25668
# Shear Modulus (GPa) = 17.36417 24.51711 20.94064
#
# Velocity S-wave (km/s) = 2.93718 3.49010 3.22551
# Velocity P-wave (km/s) = 4.55100 6.25173 5.46789
#
# Compressibility (1/GPa) = 0.05395051
#
# Stress axis : x y z
#
# Youngs Moduli (GPa) = 65.09294 100.84871 31.03730
#
# Poissons Ratio (x) = 0.42772 -0.10559
# Poissons Ratio (y) = 0.27607 0.02900
# Poissons Ratio (z) = -0.22144 0.09423
#
# Static dielectric constant tensor:
#      x y z
#    x 1.742670 0.000000 0.007930 
#    y 0.000000 1.684290 0.000000 
#    z 0.007930 0.000000 1.725060 
# 
# From -- ./inp_files/169196.got.cif
#   From: 2010.05.17/outbox.cif.g08.bks.cpg/sg15_85_cif.got.tgz:169196.got - 2010.06.03 18:47:42.
