data_PCOD9288370
_publ_section_title
;
Structure prediction by ZEFSAII (Michael W. Deem and Ramdas Pophale) SiO2 
 PCOD9288370
Probable space group: C 2/C
;
_chemical_formula_sum "Si O2"
_cell_formula_units_Z 40
_cell_length_a 16.310044
_cell_length_b 9.753693
_cell_length_c 21.733536
_cell_angle_alpha 90.000000
_cell_angle_beta 152.228018
_cell_angle_gamma 90.000000
_cell_volume 1611.007890
_symmetry_space_group_name_H-M "C 2/C"
_symmetry_group_IT_number 15
_symmetry_cell_setting 'monoclinic'
loop_
_space_group_symop_operation_xyz
x,y,z
-x,y,1/2-z
-x,-y,-z
x,-y,1/2+z
1/2+x,1/2+y,z
1/2-x,1/2+y,1/2-z
1/2-x,1/2-y,-z
1/2+x,1/2-y,1/2+z
loop_
_atom_site_type_symbol
_atom_site_label
_atom_site_fract_x
_atom_site_fract_y
_atom_site_fract_z
Si Si1 0.145024 0.860183 0.015872
Si Si2 0.708637 0.021401 0.145717
Si Si3 0.234533 0.924110 0.948069
Si Si4 0.264788 0.749848 0.272911
Si Si5 0.580332 0.953404 0.737906
O O1 0.267372 0.733145 0.075876
O O2 0.964362 0.797107 0.919889
O O3 0.116714 0.938126 0.930958
O O4 0.250094 0.956554 0.131572
O O5 0.760321 0.910373 0.231979
O O6 0.735140 0.175497 0.188136
O O7 0.500000 0.000000 0.000000
O O8 0.791878 0.996304 0.133552
O O9 0.430617 0.960835 0.102767
O O10 0.135225 0.673494 0.233376
O O11 0.500000 0.910802 0.750000
#
# Coordination Sequence:
#
# PCOD9288370 Si02
#       5
#     8   8   8   8   8
#     4  10  22  38  71 102 128 175 239 280 340 413
#     4  12  26  45  71  99 146 177 233 289 349 409
#     4  10  22  43  65  98 138 177 220 298 345 397
#     4  12  25  43  70 101 134 188 230 287 344 415
#     4  10  22  43  65  95 142 182 223 286 355 412
#
# _framework density 24.829176
#
# number of rings (size 3 to 8) (size 9 to 14) (size 15 to 20)
#    0.000    1.200    4.000    0.600    5.600    2.400 
#    3.600    2.000    0.000    0.000    0.000    0.000 
#    0.000    0.000    0.000    0.000    0.000    0.000 
#
# Total GULP energy -111910.488606 kJ/mol
# GULP energy per Si atom -5595.524430 kJ/mol
# Density = 2.477266 g / cm^3
# Si number density = 24.829176 Si / 1000 Ang^3
#
#
#
# Elastic Constant Matrix: (Units=GPa)
#
#
# Indices 1 2 3 4 5 6 
#
# 1 141.2929 33.1077 19.8477 0.0002 -26.2170 0.0001
# 2 33.1077 78.5096 12.0773 -0.0020 -13.2609 -0.0002
# 3 19.8477 12.0773 78.6472 -0.0030 -21.1516 -0.0006
# 4 0.0002 -0.0020 -0.0030 27.2962 -0.0004 -7.2962
# 5 -26.2170 -13.2609 -21.1516 -0.0004 47.5551 -0.0001
# 6 0.0001 -0.0002 -0.0006 -7.2962 -0.0001 44.3631
#
#
#
# Elastic Compliance Matrix: (Units=1/GPa)
#
#
# Indices 1 2 3 4 5 6 
#
# 1 0.008517 -0.002875 -0.000751 0.000000 0.003560 0.000000
# 2 -0.002875 0.014437 -0.000948 0.000001 0.002019 0.000000
# 3 -0.000751 -0.000948 0.014616 0.000002 0.005823 0.000000
# 4 0.000000 0.000001 0.000002 0.038320 0.000001 0.006302
# 5 0.003560 0.002019 0.005823 0.000001 0.026144 0.000000
# 6 0.000000 0.000000 0.000000 0.006302 0.000000 0.023578
#
#
# Mechanical properties :
#
#
# Convention : Reuss Voigt Hill
#
# Bulk Modulus (GPa) = 35.18400 47.61280 41.39840
# Shear Modulus (GPa) = 34.66620 39.40399 37.03509
#
# Velocity S-wave (km/s) = 3.74061 3.98804 3.86631
# Velocity P-wave (km/s) = 5.73214 6.35797 6.05315
#
# Compressibility (1/GPa) = 0.02842201
#
# Stress axis : x y z
#
# Youngs Moduli (GPa) = 117.41036 69.26849 68.41801
#
# Poissons Ratio (x) = 0.19914 0.05135
# Poissons Ratio (y) = 0.33755 0.06489
# Poissons Ratio (z) = 0.08812 0.06570
#
# Static dielectric constant tensor:
#      x y z
#    x 2.001240 0.000000 -0.026860 
#    y 0.000000 1.928480 0.000000 
#    z -0.026860 0.000000 2.023810 
# 
# From -- ./inp_files/276757.got.cif
#   From: 2010.05.17/outbox.cif.g08.bks.cpg/sg15_139_cif.got.tgz:276757.got - 2010.06.03 18:47:42.
