data_PCOD9288538
_publ_section_title
;
Structure prediction by ZEFSAII (Michael W. Deem and Ramdas Pophale) SiO2 
 PCOD9288538
Probable space group: C 2/C
;
_chemical_formula_sum "Si O2"
_cell_formula_units_Z 32
_cell_length_a 14.769102
_cell_length_b 5.017663
_cell_length_c 25.683081
_cell_angle_alpha 90.000000
_cell_angle_beta 125.704724
_cell_angle_gamma 90.000000
_cell_volume 1545.530818
_symmetry_space_group_name_H-M "C 2/C"
_symmetry_group_IT_number 15
_symmetry_cell_setting 'monoclinic'
loop_
_space_group_symop_operation_xyz
x,y,z
-x,y,1/2-z
-x,-y,-z
x,-y,1/2+z
1/2+x,1/2+y,z
1/2-x,1/2+y,1/2-z
1/2-x,1/2-y,-z
1/2+x,1/2-y,1/2+z
loop_
_atom_site_type_symbol
_atom_site_label
_atom_site_fract_x
_atom_site_fract_y
_atom_site_fract_z
Si Si1 0.865034 0.644713 0.561152
Si Si2 0.010134 0.142993 0.886658
Si Si3 0.227088 0.595545 0.208128
Si Si4 0.403779 0.362626 0.681268
O O1 0.750000 0.750000 0.500000
O O2 0.901716 0.349491 0.559794
O O3 0.858881 0.665096 0.621943
O O4 0.964286 0.853815 0.580616
O O5 0.889305 0.272958 0.848096
O O6 0.039172 0.090237 0.835356
O O7 0.214553 0.322984 0.236352
O O8 0.305429 0.541288 0.185217
O O9 0.500000 0.244296 0.750000
#
# Coordination Sequence:
#
# PCOD9288538 Si02
#       4
#     8   8   8   8
#     4  10  22  42  65  86 129 172 210 259 320 381
#     4  10  22  39  61  89 124 162 217 252 319 378
#     4  12  23  38  62  96 133 163 210 268 326 381
#     4  10  22  39  63  93 124 167 208 266 321 370
#
# _framework density 20.704858999999999
#
# number of rings (size 3 to 8) (size 9 to 14) (size 15 to 20)
#    1.500    0.000    2.500    3.750    3.500    1.000 
#    0.000    2.500    0.000    0.000    0.000    0.000 
#    0.000    0.000    0.000    0.000    0.000    0.000 
#
# Total GULP energy -89174.230530 kJ/mol
# GULP energy per Si atom -5573.389408 kJ/mol
# Density = 2.065773 g / cm^3
# Si number density = 20.704859 Si / 1000 Ang^3
#
#
#
# Elastic Constant Matrix: (Units=GPa)
#
#
# Indices 1 2 3 4 5 6 
#
# 1 80.8236 -11.3579 -0.2560 -0.0001 12.0583 0.0004
# 2 -11.3579 68.2048 0.2729 0.0002 -8.6186 -0.0013
# 3 -0.2560 0.2729 70.7862 0.0000 16.2600 -0.0001
# 4 -0.0001 0.0002 0.0000 38.0553 0.0000 -12.5041
# 5 12.0583 -8.6186 16.2600 0.0000 19.4457 -0.0001
# 6 0.0004 -0.0013 -0.0001 -12.5041 -0.0001 71.5700
#
#
#
# Elastic Compliance Matrix: (Units=1/GPa)
#
#
# Indices 1 2 3 4 5 6 
#
# 1 0.014058 0.001033 0.002406 0.000000 -0.010271 0.000000
# 2 0.001033 0.015847 -0.001886 0.000000 0.007960 0.000000
# 3 0.002406 -0.001886 0.018167 0.000000 -0.017519 0.000000
# 4 0.000000 0.000000 0.000000 0.027878 0.000000 0.004871
# 5 -0.010271 0.007960 -0.017519 0.000000 0.075971 0.000000
# 6 0.000000 0.000000 0.000000 0.004871 0.000000 0.014823
#
#
# Mechanical properties :
#
#
# Convention : Reuss Voigt Hill
#
# Bulk Modulus (GPa) = 19.53883 21.90362 20.72123
# Shear Modulus (GPa) = 27.67073 41.22458 34.44766
#
# Velocity S-wave (km/s) = 3.65970 4.46697 4.08333
# Velocity P-wave (km/s) = 5.22639 6.09976 5.67988
#
# Compressibility (1/GPa) = 0.05118014
#
# Stress axis : x y z
#
# Youngs Moduli (GPa) = 71.13461 63.10272 55.04432
#
# Poissons Ratio (x) = -0.06521 -0.13245
# Poissons Ratio (y) = -0.07352 0.10380
# Poissons Ratio (z) = -0.17117 0.11899
#
# Static dielectric constant tensor:
#      x y z
#    x 1.740730 0.000000 0.011590 
#    y 0.000000 1.749780 0.000000 
#    z 0.011590 0.000000 1.755650 
# 
# From -- ./inp_files/201828.got.cif
#   From: 2010.05.17/outbox.cif.g08.bks.cpg/sg15_101_cif.got.tgz:201828.got - 2010.06.03 18:47:42.
