data_PCOD9288340
_publ_section_title
;
Structure prediction by ZEFSAII (Michael W. Deem and Ramdas Pophale) SiO2 
 PCOD9288340
Probable space group: C 2/C
;
_chemical_formula_sum "Si O2"
_cell_formula_units_Z 64
_cell_length_a 16.323565
_cell_length_b 15.635820
_cell_length_c 17.282702
_cell_angle_alpha 90.000000
_cell_angle_beta 42.466756
_cell_angle_gamma 90.000000
_cell_volume 2978.211313
_symmetry_space_group_name_H-M "C 2/C"
_symmetry_group_IT_number 15
_symmetry_cell_setting 'monoclinic'
loop_
_space_group_symop_operation_xyz
x,y,z
-x,y,1/2-z
-x,-y,-z
x,-y,1/2+z
1/2+x,1/2+y,z
1/2-x,1/2+y,1/2-z
1/2-x,1/2-y,-z
1/2+x,1/2-y,1/2+z
loop_
_atom_site_type_symbol
_atom_site_label
_atom_site_fract_x
_atom_site_fract_y
_atom_site_fract_z
Si Si1 0.621383 0.639621 0.216621
Si Si2 0.934849 0.731872 0.367385
Si Si3 0.131501 0.336173 0.199143
Si Si4 0.203614 0.126922 0.461596
Si Si5 0.832424 0.436826 0.169914
Si Si6 0.024540 0.427612 0.577129
Si Si7 0.226255 0.537639 0.508012
Si Si8 0.884352 0.038286 0.125818
O O1 0.500000 0.635416 0.250000
O O2 0.667234 0.737261 0.183012
O O3 0.721557 0.581438 0.104569
O O4 0.589101 0.604197 0.323635
O O5 0.900080 0.803584 0.452591
O O6 0.821011 0.679023 0.410496
O O7 0.012403 0.656649 0.351577
O O8 0.000000 0.774629 0.250000
O O9 0.129208 0.377539 0.285483
O O10 0.000000 0.337571 0.250000
O O11 0.215588 0.393638 0.084423
O O12 0.197935 0.087931 0.380201
O O13 0.192981 0.042913 0.522612
O O14 0.693784 0.462275 0.280602
O O15 0.910113 0.524548 0.121559
O O16 0.876250 0.400851 0.057078
O O17 0.095022 0.495348 0.582390
O O18 0.000000 0.000000 0.000000
#
# Coordination Sequence:
#
# PCOD9288340 Si02
#       8
#     8   8   8   8   8   8   8   8
#     4  11  26  43  62  92 135 175 222 270 319 394
#     4  10  22  41  65  99 128 167 207 273 331 385
#     4  11  23  40  68  97 127 165 220 273 328 383
#     4  10  23  40  65  93 131 162 223 260 322 404
#     4  11  22  42  65  97 124 168 218 275 328 390
#     4  10  22  38  68  97 129 163 216 273 334 385
#     4  11  20  42  66  93 127 173 216 266 334 396
#     4  12  25  44  64  94 131 182 220 259 329 402
#
# _framework density 21.489408000000001
#
# number of rings (size 3 to 8) (size 9 to 14) (size 15 to 20)
#    0.000    1.250    3.750    1.875    3.500    1.500 
#    2.250    1.250    0.000    0.000    0.000    0.000 
#    0.000    0.000    0.000    0.000    0.000    0.000 
#
# Total GULP energy -178742.889630 kJ/mol
# GULP energy per Si atom -5585.715301 kJ/mol
# Density = 2.144050 g / cm^3
# Si number density = 21.489408 Si / 1000 Ang^3
#
#
#
# Elastic Constant Matrix: (Units=GPa)
#
#
# Indices 1 2 3 4 5 6 
#
# 1 44.8517 18.6536 -4.7364 0.0000 20.3077 0.0000
# 2 18.6536 103.2868 38.3139 0.0000 9.5129 0.0000
# 3 -4.7364 38.3139 81.2292 0.0000 17.7719 0.0000
# 4 0.0000 0.0000 0.0000 25.4954 0.0000 4.0886
# 5 20.3077 9.5129 17.7719 0.0000 36.1829 0.0000
# 6 0.0000 0.0000 0.0000 4.0886 0.0000 10.0584
#
#
#
# Elastic Compliance Matrix: (Units=1/GPa)
#
#
# Indices 1 2 3 4 5 6 
#
# 1 0.038900 -0.009198 0.012161 0.000000 -0.025388 0.000000
# 2 -0.009198 0.013916 -0.008323 0.000000 0.005592 0.000000
# 3 0.012161 -0.008323 0.020123 0.000000 -0.014521 0.000000
# 4 0.000000 0.000000 0.000000 0.041958 0.000000 -0.017056
# 5 -0.025388 0.005592 -0.014521 0.000000 0.047548 0.000000
# 6 0.000000 0.000000 0.000000 -0.017056 0.000000 0.106353
#
#
# Mechanical properties :
#
#
# Convention : Reuss Voigt Hill
#
# Bulk Modulus (GPa) = 16.07251 37.09222 26.58236
# Shear Modulus (GPa) = 16.65233 26.15644 21.40439
#
# Velocity S-wave (km/s) = 2.78674 3.49259 3.15944
# Velocity P-wave (km/s) = 4.22493 5.79331 5.07013
#
# Compressibility (1/GPa) = 0.06221803
#
# Stress axis : x y z
#
# Youngs Moduli (GPa) = 25.70664 71.86221 49.69450
#
# Poissons Ratio (x) = 0.66102 -0.60436
# Poissons Ratio (y) = 0.23646 0.41363
# Poissons Ratio (z) = -0.31263 0.59814
#
# Static dielectric constant tensor:
#      x y z
#    x 1.806400 0.000000 -0.032120 
#    y 0.000000 1.741860 0.000000 
#    z -0.032120 0.000000 1.790520 
# 
# From -- ./inp_files/211378.got.cif
#   From: 2010.05.17/outbox.cif.g08.bks.cpg/sg15_106_cif.got.tgz:211378.got - 2010.06.03 18:47:42.
