data_PCOD9288436
_publ_section_title
;
Structure prediction by ZEFSAII (Michael W. Deem and Ramdas Pophale) SiO2 
 PCOD9288436
Probable space group: C 2/C
;
_chemical_formula_sum "Si O2"
_cell_formula_units_Z 60
_cell_length_a 23.625367
_cell_length_b 24.348213
_cell_length_c 8.605481
_cell_angle_alpha 90.000000
_cell_angle_beta 147.883914
_cell_angle_gamma 90.000000
_cell_volume 2631.694709
_symmetry_space_group_name_H-M "C 2/C"
_symmetry_group_IT_number 15
_symmetry_cell_setting 'monoclinic'
loop_
_space_group_symop_operation_xyz
x,y,z
-x,y,1/2-z
-x,-y,-z
x,-y,1/2+z
1/2+x,1/2+y,z
1/2-x,1/2+y,1/2-z
1/2-x,1/2-y,-z
1/2+x,1/2-y,1/2+z
loop_
_atom_site_type_symbol
_atom_site_label
_atom_site_fract_x
_atom_site_fract_y
_atom_site_fract_z
Si Si1 0.827478 0.080821 0.719843
Si Si2 0.071517 0.842138 0.279172
Si Si3 0.587464 0.043050 0.641374
Si Si4 0.000000 0.363890 0.750000
Si Si5 0.228955 0.722698 0.120035
Si Si6 0.502213 0.241644 0.921952
Si Si7 0.742162 0.996078 0.750611
Si Si8 0.682884 0.819225 0.988759
O O1 0.916849 0.118125 0.843177
O O2 0.793365 0.041996 0.498737
O O3 0.741551 0.126482 0.570740
O O4 0.824004 0.038512 0.858079
O O5 0.184725 0.822005 0.617993
O O6 0.000000 0.866879 0.250000
O O7 0.013767 0.786848 0.083292
O O8 0.527416 0.098607 0.461879
O O9 0.500000 0.000000 0.500000
O O10 0.645986 0.027123 0.616158
O O11 0.683509 0.041661 0.986908
O O12 0.103005 0.329977 0.945292
O O13 0.239439 0.772259 0.269293
O O14 0.250000 0.750000 0.000000
O O15 0.105556 0.706629 0.821012
O O16 0.500000 0.270231 0.750000
O O17 0.605447 0.203823 0.177088
#
# Coordination Sequence:
#
# PCOD9288436 Si02
#       8
#     8   8   8   4   8   8   8   8
#     4  11  23  45  65  95 132 176 223 284 337 391
#     4  11  24  45  69  99 134 176 229 283 331 404
#     4  11  18  34  56  84 124 171 216 268 330 395
#     4  12  20  32  56  92 130 170 212 262 322 394
#     4  11  22  42  68 101 140 177 214 270 341 402
#     4  11  23  42  67 100 137 175 215 269 336 409
#     4  10  22  39  59  87 126 170 220 276 337 390
#     4  11  24  38  65 101 141 174 220 269 325 410
#
# _framework density 22.798998000000001
#
# number of rings (size 3 to 8) (size 9 to 14) (size 15 to 20)
#    0.000    1.067    4.000    3.200    1.867    5.333 
#    0.000    2.000    0.000    0.000    0.000    0.000 
#    0.000    0.000    0.000    0.000    0.000    0.000 
#
# Total GULP energy -167488.448098 kJ/mol
# GULP energy per Si atom -5582.948270 kJ/mol
# Density = 2.274711 g / cm^3
# Si number density = 22.798998 Si / 1000 Ang^3
#
#
#
# Elastic Constant Matrix: (Units=GPa)
#
#
# Indices 1 2 3 4 5 6 
#
# 1 120.6832 29.4445 17.4266 0.0000 -1.0697 0.0000
# 2 29.4445 85.0202 20.9732 0.0000 2.4873 0.0000
# 3 17.4266 20.9732 65.4654 0.0000 -5.0426 0.0000
# 4 0.0000 0.0000 0.0000 13.8938 0.0000 -6.8401
# 5 -1.0697 2.4873 -5.0426 0.0000 34.7494 0.0000
# 6 0.0000 0.0000 0.0000 -6.8401 0.0000 46.3471
#
#
#
# Elastic Compliance Matrix: (Units=1/GPa)
#
#
# Indices 1 2 3 4 5 6 
#
# 1 0.009196 -0.002816 -0.001525 0.000000 0.000263 0.000000
# 2 -0.002816 0.013714 -0.003768 0.000000 -0.001615 0.000000
# 3 -0.001525 -0.003768 0.017097 0.000000 0.002704 0.000000
# 4 0.000000 0.000000 0.000000 0.077614 0.000000 0.011455
# 5 0.000263 -0.001615 0.002704 0.000000 0.029294 0.000000
# 6 0.000000 0.000000 0.000000 0.011455 0.000000 0.023267
#
#
# Mechanical properties :
#
#
# Convention : Reuss Voigt Hill
#
# Bulk Modulus (GPa) = 42.03989 45.20638 43.62314
# Shear Modulus (GPa) = 25.72946 32.55302 29.14124
#
# Velocity S-wave (km/s) = 3.36301 3.78276 3.57904
# Velocity P-wave (km/s) = 5.79303 6.24102 6.02119
#
# Compressibility (1/GPa) = 0.02378693
#
# Stress axis : x y z
#
# Youngs Moduli (GPa) = 108.74472 72.91787 58.49036
#
# Poissons Ratio (x) = 0.20535 0.08922
# Poissons Ratio (y) = 0.30624 0.22041
# Poissons Ratio (z) = 0.16588 0.27478
#
# Static dielectric constant tensor:
#      x y z
#    x 1.964440 0.000000 -0.008690 
#    y 0.000000 1.851230 0.000000 
#    z -0.008690 0.000000 1.865270 
# 
# From -- ./inp_files/64129.got.cif
#   From: 2010.05.17/outbox.cif.g08.bks.cpg/sg15_33_cif.got.tgz:64129.got - 2010.06.03 18:47:42.
