data_PCOD9288217
_publ_section_title
;
Structure prediction by ZEFSAII (Michael W. Deem and Ramdas Pophale) SiO2 
 PCOD9288217
Probable space group: C 2/C
;
_chemical_formula_sum "Si O2"
_cell_formula_units_Z 52
_cell_length_a 13.979003
_cell_length_b 17.840097
_cell_length_c 15.239899
_cell_angle_alpha 90.000000
_cell_angle_beta 40.946320
_cell_angle_gamma 90.000000
_cell_volume 2490.748638
_symmetry_space_group_name_H-M "C 2/C"
_symmetry_group_IT_number 15
_symmetry_cell_setting 'monoclinic'
loop_
_space_group_symop_operation_xyz
x,y,z
-x,y,1/2-z
-x,-y,-z
x,-y,1/2+z
1/2+x,1/2+y,z
1/2-x,1/2+y,1/2-z
1/2-x,1/2-y,-z
1/2+x,1/2-y,1/2+z
loop_
_atom_site_type_symbol
_atom_site_label
_atom_site_fract_x
_atom_site_fract_y
_atom_site_fract_z
Si Si1 0.375546 0.495172 0.761322
Si Si2 0.840339 0.302882 0.164021
Si Si3 0.572303 0.937231 0.508559
Si Si4 0.552742 0.658751 0.312889
Si Si5 0.068270 0.112634 0.922281
Si Si6 0.000000 0.412017 0.750000
Si Si7 0.272912 0.303537 0.566649
O O1 0.500000 0.493990 0.750000
O O2 0.244475 0.544586 0.890129
O O3 0.327523 0.408757 0.776657
O O4 0.428033 0.535112 0.635016
O O5 0.937430 0.355544 0.032199
O O6 0.917618 0.241916 0.172008
O O7 0.727715 0.353523 0.294283
O O8 0.744069 0.249818 0.168776
O O9 0.506716 0.948979 0.650291
O O10 0.500000 0.000000 0.500000
O O11 0.500000 0.666693 0.250000
O O12 0.453502 0.620496 0.457820
O O13 0.933029 0.160196 0.972760
O O14 0.851129 0.365041 0.852379
O O15 0.250000 0.250000 0.500000
#
# Coordination Sequence:
#
# PCOD9288217 Si02
#       7
#     8   8   8   8   8   4   8
#     4  10  22  43  67  96 128 169 224 273 326 390
#     4  10  23  42  64  98 126 169 214 269 325 388
#     4  11  26  45  66  98 137 169 219 268 329 397
#     4  10  23  42  64  93 129 176 221 266 317 387
#     4  10  22  38  65  92 127 167 214 271 325 381
#     4  12  24  42  66  96 130 176 208 266 344 378
#     4  11  21  36  66  96 130 161 208 269 333 394
#
# _framework density 20.877257
#
# number of rings (size 3 to 8) (size 9 to 14) (size 15 to 20)
#    0.000    1.538    1.538    2.308    8.615    0.615 
#   12.462    0.000    0.000    0.000    0.000    0.000 
#    0.000    0.000    0.000    0.000    0.000    0.000 
#
# Total GULP energy -144838.112872 kJ/mol
# GULP energy per Si atom -5570.696649 kJ/mol
# Density = 2.082974 g / cm^3
# Si number density = 20.877257 Si / 1000 Ang^3
#
#
#
# Elastic Constant Matrix: (Units=GPa)
#
#
# Indices 1 2 3 4 5 6 
#
# 1 93.3102 37.8370 44.7911 0.0002 38.3489 0.0001
# 2 37.8370 109.5192 23.1945 0.0002 16.2689 0.0000
# 3 44.7911 23.1945 101.4336 0.0002 31.2906 0.0001
# 4 0.0002 0.0002 0.0002 -11.3537 0.0000 0.7818
# 5 38.3489 16.2689 31.2906 0.0000 40.0878 0.0000
# 6 0.0001 0.0000 0.0001 0.7818 0.0000 27.6624
#
#
#
# Elastic Compliance Matrix: (Units=1/GPa)
#
#
# Indices 1 2 3 4 5 6 
#
# 1 0.020113 -0.004013 -0.003334 0.000000 -0.015010 0.000000
# 2 -0.004013 0.010654 -0.000678 0.000000 0.000044 0.000000
# 3 -0.003334 -0.000678 0.013721 0.000000 -0.007246 0.000000
# 4 0.000000 0.000000 0.000000 -0.087906 0.000000 0.002484
# 5 -0.015010 0.000044 -0.007246 0.000000 0.044942 0.000000
# 6 0.000000 0.000000 0.000000 0.002484 0.000000 0.036080
#
#
# Mechanical properties :
#
#
# Convention : Reuss Voigt Hill
#
# Bulk Modulus (GPa) = 35.16233 57.32315 46.24274
# Shear Modulus (GPa) = 79.19711 24.50866 51.85288
#
# Velocity S-wave (km/s) = 6.16579 3.43000 4.98908
# Velocity P-wave (km/s) = 8.21999 6.57293 7.44217
#
# Compressibility (1/GPa) = 0.02843952
#
# Stress axis : x y z
#
# Youngs Moduli (GPa) = 49.71810 93.85927 72.88130
#
# Poissons Ratio (x) = 0.37666 0.24296
# Poissons Ratio (y) = 0.19952 0.04940
# Poissons Ratio (z) = 0.16574 0.06362
#
# Static dielectric constant tensor:
#      x y z
#    x 1.711740 0.000000 -0.042660 
#    y 0.000000 1.722430 0.000000 
#    z -0.042660 0.000000 1.696700 
# 
# From -- ./inp_files/155435.got.cif
#   From: 2010.05.17/outbox.cif.g08.bks.cpg/sg15_78_cif.got.tgz:155435.got - 2010.06.03 18:47:42.
