data_PCOD9288761
_publ_section_title
;
Structure prediction by ZEFSAII (Michael W. Deem and Ramdas Pophale) SiO2 
 PCOD9288761
Probable space group: C 2/C
;
_chemical_formula_sum "Si O2"
_cell_formula_units_Z 48
_cell_length_a 26.863182
_cell_length_b 11.178907
_cell_length_c 20.311620
_cell_angle_alpha 90.000000
_cell_angle_beta 18.863582
_cell_angle_gamma 90.000000
_cell_volume 1972.098342
_symmetry_space_group_name_H-M "C 2/C"
_symmetry_group_IT_number 15
_symmetry_cell_setting 'monoclinic'
loop_
_space_group_symop_operation_xyz
x,y,z
-x,y,1/2-z
-x,-y,-z
x,-y,1/2+z
1/2+x,1/2+y,z
1/2-x,1/2+y,1/2-z
1/2-x,1/2-y,-z
1/2+x,1/2-y,1/2+z
loop_
_atom_site_type_symbol
_atom_site_label
_atom_site_fract_x
_atom_site_fract_y
_atom_site_fract_z
Si Si1 0.248974 0.152667 0.864220
Si Si2 0.500000 0.189009 0.750000
Si Si3 0.976337 0.681072 0.374024
Si Si4 0.047601 0.813354 0.961945
Si Si5 0.717919 0.998267 0.051489
Si Si6 0.728181 0.534443 0.747294
Si Si7 0.000000 0.882663 0.250000
O O1 0.394298 0.240375 0.673570
O O2 0.293457 0.051503 0.860295
O O3 0.234773 0.094218 0.810401
O O4 0.098139 0.224639 0.078199
O O5 0.365859 0.104014 0.886659
O O6 0.001018 0.734875 0.415432
O O7 0.868833 0.567437 0.523898
O O8 0.127515 0.621692 0.154316
O O9 0.914988 0.789206 0.405595
O O10 0.194196 0.895259 0.797248
O O11 0.910464 0.899450 0.115578
O O12 0.897742 0.036665 0.828308
#
# Coordination Sequence:
#
# PCOD9288761 Si02
#       7
#     8   4   8   8   8   8   4
#     4  11  24  42  66  96 134 176 226 277 337 405
#     4  12  26  46  70 102 138 180 230 284 342 406
#     4  11  24  42  66  96 134 176 226 277 337 405
#     4  10  22  39  64  94 130 171 220 276 336 402
#     4  12  26  43  70  99 136 182 228 284 342 405
#     4  10  22  41  64  94 130 174 220 275 338 401
#     4  12  26  46  70 102 138 180 230 284 342 406
#
# _framework density 24.339558
#
# number of rings (size 3 to 8) (size 9 to 14) (size 15 to 20)
#    0.000    1.000    0.000    6.000    0.000   10.667 
#    0.000    0.000    0.000    0.000    0.000    0.000 
#    0.000    0.000    0.000    0.000    0.000    0.000 
#
# Total GULP energy -134105.194772 kJ/mol
# GULP energy per Si atom -5587.716449 kJ/mol
# Density = 2.428416 g / cm^3
# Si number density = 24.339558 Si / 1000 Ang^3
#
#
#
# Elastic Constant Matrix: (Units=GPa)
#
#
# Indices 1 2 3 4 5 6 
#
# 1 64.2386 8.3195 11.8786 0.0002 0.5607 -0.0001
# 2 8.3195 68.6744 4.3449 -0.0001 -3.7787 0.0000
# 3 11.8786 4.3449 45.4391 -0.0001 -3.8816 -0.0001
# 4 0.0002 -0.0001 -0.0001 27.4399 0.0000 11.3409
# 5 0.5607 -3.7787 -3.8816 0.0000 34.9463 0.0002
# 6 -0.0001 0.0000 -0.0001 11.3409 0.0002 32.8355
#
#
#
# Elastic Compliance Matrix: (Units=1/GPa)
#
#
# Indices 1 2 3 4 5 6 
#
# 1 0.016592 -0.001793 -0.004246 0.000000 -0.000932 0.000000
# 2 -0.001793 0.014916 -0.000825 0.000000 0.001550 0.000000
# 3 -0.004246 -0.000825 0.023417 0.000000 0.002580 0.000000
# 4 0.000000 0.000000 0.000000 0.042512 0.000000 -0.014683
# 5 -0.000932 0.001550 0.002580 0.000000 0.029084 0.000000
# 6 0.000000 0.000000 0.000000 -0.014683 0.000000 0.035526
#
#
# Mechanical properties :
#
#
# Convention : Reuss Voigt Hill
#
# Bulk Modulus (GPa) = 24.27309 25.27089 24.77199
# Shear Modulus (GPa) = 26.38421 29.29828 27.84125
#
# Velocity S-wave (km/s) = 3.29600 3.47325 3.38578
# Velocity P-wave (km/s) = 4.94764 5.14682 5.04821
#
# Compressibility (1/GPa) = 0.04119788
#
# Stress axis : x y z
#
# Youngs Moduli (GPa) = 60.26866 67.04151 42.70460
#
# Poissons Ratio (x) = 0.12019 0.18131
# Poissons Ratio (y) = 0.10804 0.03524
# Poissons Ratio (z) = 0.25588 0.05532
#
# Static dielectric constant tensor:
#      x y z
#    x 1.892210 0.000000 -0.054380 
#    y 0.000000 1.972400 0.000000 
#    z -0.054380 0.000000 2.041680 
# 
# From -- ./inp_files/257611.got.cif
#   From: 2010.05.17/outbox.cif.g08.bks.cpg/sg15_129_cif.got.tgz:257611.got - 2010.06.03 18:47:42.
