data_PCOD9288682
_publ_section_title
;
Structure prediction by ZEFSAII (Michael W. Deem and Ramdas Pophale) SiO2 
 PCOD9288682
Probable space group: C 2/C
;
_chemical_formula_sum "Si O2"
_cell_formula_units_Z 40
_cell_length_a 24.797615
_cell_length_b 9.563360
_cell_length_c 14.139370
_cell_angle_alpha 90.000000
_cell_angle_beta 153.190429
_cell_angle_gamma 90.000000
_cell_volume 1512.351245
_symmetry_space_group_name_H-M "C 2/C"
_symmetry_group_IT_number 15
_symmetry_cell_setting 'monoclinic'
loop_
_space_group_symop_operation_xyz
x,y,z
-x,y,1/2-z
-x,-y,-z
x,-y,1/2+z
1/2+x,1/2+y,z
1/2-x,1/2+y,1/2-z
1/2-x,1/2-y,-z
1/2+x,1/2-y,1/2+z
loop_
_atom_site_type_symbol
_atom_site_label
_atom_site_fract_x
_atom_site_fract_y
_atom_site_fract_z
Si Si1 0.167382 0.535489 0.572549
Si Si2 0.607674 0.242565 0.871930
Si Si3 0.148287 0.788913 0.416918
Si Si4 0.899358 0.923165 0.966045
Si Si5 0.138344 0.669505 0.721497
O O1 0.138989 0.379840 0.494215
O O2 0.119664 0.636356 0.415414
O O3 0.313957 0.554893 0.807470
O O4 0.114734 0.576608 0.592655
O O5 0.500000 0.327280 0.750000
O O6 0.575492 0.166894 0.723481
O O7 0.721039 0.340784 0.034106
O O8 0.250000 0.750000 0.500000
O O9 0.174034 0.865453 0.557248
O O10 0.038377 0.884051 0.205365
O O11 0.882704 0.825755 0.848585
#
# Coordination Sequence:
#
# PCOD9288682 Si02
#       5
#     8   8   8   8   8
#     4  10  22  39  64  92 126 171 212 265 333 385
#     4  10  22  39  63  93 119 169 218 257 327 398
#     4  10  22  39  63  94 128 169 220 270 320 398
#     4   9  21  41  60  92 131 165 213 270 327 386
#     4   9  21  41  60  89 134 157 210 277 315 394
#
# _framework density 26.448881
#
# number of rings (size 3 to 8) (size 9 to 14) (size 15 to 20)
#    0.000    2.400    0.000    0.000    8.400    6.400 
#    3.600    0.000    0.000    0.000    0.000    0.000 
#    0.000    0.000    0.000    0.000    0.000    0.000 
#
# Total GULP energy -111464.627352 kJ/mol
# GULP energy per Si atom -5573.231368 kJ/mol
# Density = 2.638868 g / cm^3
# Si number density = 26.448881 Si / 1000 Ang^3
#
#
#
# Elastic Constant Matrix: (Units=GPa)
#
#
# Indices 1 2 3 4 5 6 
#
# 1 214.7529 13.8875 77.0995 0.0000 -4.9788 0.0000
# 2 13.8875 52.0334 16.3430 0.0000 6.1851 0.0000
# 3 77.0995 16.3430 116.0376 0.0000 0.9351 0.0000
# 4 0.0000 0.0000 0.0000 31.2423 0.0000 3.2544
# 5 -4.9788 6.1851 0.9351 0.0000 43.1779 0.0000
# 6 0.0000 0.0000 0.0000 3.2544 0.0000 6.3353
#
#
#
# Elastic Compliance Matrix: (Units=1/GPa)
#
#
# Indices 1 2 3 4 5 6 
#
# 1 0.006154 -0.000480 -0.004028 0.000000 0.000866 0.000000
# 2 -0.000480 0.020495 -0.002544 0.000000 -0.002936 0.000000
# 3 -0.004028 -0.002544 0.011655 0.000000 -0.000353 0.000000
# 4 0.000000 0.000000 0.000000 0.033817 0.000000 -0.017372
# 5 0.000866 -0.002936 -0.000353 0.000000 0.023688 0.000000
# 6 0.000000 0.000000 0.000000 -0.017372 0.000000 0.166769
#
#
# Mechanical properties :
#
#
# Convention : Reuss Voigt Hill
#
# Bulk Modulus (GPa) = 41.32301 66.38710 53.85505
# Shear Modulus (GPa) = 17.55930 34.51737 26.03834
#
# Velocity S-wave (km/s) = 2.57941 3.61648 3.14104
# Velocity P-wave (km/s) = 4.95266 6.52635 5.79319
#
# Compressibility (1/GPa) = 0.02419960
#
# Stress axis : x y z
#
# Youngs Moduli (GPa) = 162.50127 48.79346 85.79663
#
# Poissons Ratio (x) = 0.02343 0.34560
# Poissons Ratio (y) = 0.07802 0.21825
# Poissons Ratio (z) = 0.65458 0.12412
#
# Static dielectric constant tensor:
#      x y z
#    x 2.060750 0.000000 0.156740 
#    y 0.000000 2.145310 0.000000 
#    z 0.156740 0.000000 2.354250 
# 
# From -- ./inp_files/177416.got.cif
#   From: 2010.05.17/outbox.cif.g08.bks.cpg/sg15_89_cif.got.tgz:177416.got - 2010.06.03 18:47:42.
