data_PCOD9288856
_publ_section_title
;
Structure prediction by ZEFSAII (Michael W. Deem and Ramdas Pophale) SiO2 
 PCOD9288856
Probable space group: C 2/C
;
_chemical_formula_sum "Si O2"
_cell_formula_units_Z 44
_cell_length_a 12.431316
_cell_length_b 12.926498
_cell_length_c 13.340876
_cell_angle_alpha 90.000000
_cell_angle_beta 107.843501
_cell_angle_gamma 90.000000
_cell_volume 2040.667773
_symmetry_space_group_name_H-M "C 2/C"
_symmetry_group_IT_number 15
_symmetry_cell_setting 'monoclinic'
loop_
_space_group_symop_operation_xyz
x,y,z
-x,y,1/2-z
-x,-y,-z
x,-y,1/2+z
1/2+x,1/2+y,z
1/2-x,1/2+y,1/2-z
1/2-x,1/2-y,-z
1/2+x,1/2-y,1/2+z
loop_
_atom_site_type_symbol
_atom_site_label
_atom_site_fract_x
_atom_site_fract_y
_atom_site_fract_z
Si Si1 0.969044 0.603895 0.352914
Si Si2 0.616294 0.809672 0.343799
Si Si3 0.000000 0.023764 0.750000
Si Si4 0.154128 0.495231 0.507486
Si Si5 0.890715 0.093331 0.050747
Si Si6 0.140534 0.830223 0.174432
O O1 0.882509 0.531910 0.390101
O O2 0.912524 0.716386 0.330684
O O3 0.000000 0.568902 0.250000
O O4 0.085854 0.594619 0.449163
O O5 0.500000 0.802723 0.250000
O O6 0.609531 0.899923 0.424924
O O7 0.642307 0.702241 0.407868
O O8 0.725511 0.828768 0.305542
O O9 0.104147 0.099441 0.756799
O O10 0.013925 0.952091 0.850715
O O11 0.286847 0.486901 0.528052
O O12 0.912738 0.120266 0.942142
#
# Coordination Sequence:
#
# PCOD9288856 Si02
#       6
#     8   8   4   8   8   8
#     4  11  21  38  66  96 130 163 208 266 322 366
#     4  11  21  42  68  95 125 172 219 255 311 386
#     4  12  26  42  64  94 134 168 206 266 330 376
#     4  10  22  39  66  94 129 168 214 264 306 380
#     4  11  22  43  64  91 127 176 214 254 314 390
#     4  11  23  44  65  93 135 164 211 270 316 372
#
# _framework density 21.561568000000001
#
# number of rings (size 3 to 8) (size 9 to 14) (size 15 to 20)
#    0.000    1.091    5.455    2.182    0.000    5.818 
#    0.000    0.909    0.000    0.000    0.000    0.000 
#    0.000    0.000    0.000    0.000    0.000    0.000 
#
# Total GULP energy -122901.885952 kJ/mol
# GULP energy per Si atom -5586.449361 kJ/mol
# Density = 2.151249 g / cm^3
# Si number density = 21.561568 Si / 1000 Ang^3
#
#
#
# Elastic Constant Matrix: (Units=GPa)
#
#
# Indices 1 2 3 4 5 6 
#
# 1 50.7563 24.9786 11.2629 0.0000 -12.6709 0.0000
# 2 24.9786 57.1567 14.1664 0.0000 2.1186 0.0000
# 3 11.2629 14.1664 80.6825 0.0000 -9.5511 0.0000
# 4 0.0000 0.0000 0.0000 21.7733 0.0000 5.3659
# 5 -12.6709 2.1186 -9.5511 0.0000 41.1284 0.0000
# 6 0.0000 0.0000 0.0000 5.3659 0.0000 18.9369
#
#
#
# Elastic Compliance Matrix: (Units=1/GPa)
#
#
# Indices 1 2 3 4 5 6 
#
# 1 0.028332 -0.012560 -0.000658 0.000000 0.009223 0.000000
# 2 -0.012560 0.023981 -0.003148 0.000000 -0.005836 0.000000
# 3 -0.000658 -0.003148 0.013403 0.000000 0.003072 0.000000
# 4 0.000000 0.000000 0.000000 0.049376 0.000000 -0.013991
# 5 0.009223 -0.005836 0.003072 0.000000 0.028169 0.000000
# 6 0.000000 0.000000 0.000000 -0.013991 0.000000 0.056771
#
#
# Mechanical properties :
#
#
# Convention : Reuss Voigt Hill
#
# Bulk Modulus (GPa) = 30.31875 32.15683 31.23779
# Shear Modulus (GPa) = 20.51205 25.58023 23.04614
#
# Velocity S-wave (km/s) = 3.08770 3.44812 3.27288
# Velocity P-wave (km/s) = 5.17725 5.54969 5.36670
#
# Compressibility (1/GPa) = 0.03298289
#
# Stress axis : x y z
#
# Youngs Moduli (GPa) = 35.29632 41.69885 74.61285
#
# Poissons Ratio (x) = 0.52375 0.04908
# Poissons Ratio (y) = 0.44333 0.23490
# Poissons Ratio (z) = 0.02322 0.13128
#
# Static dielectric constant tensor:
#      x y z
#    x 1.812420 0.000000 0.020960 
#    y 0.000000 1.775260 0.000000 
#    z 0.020960 0.000000 1.793700 
# 
# From -- ./inp_files/86175.got.cif
#   From: 2010.05.17/outbox.cif.g08.bks.cpg/sg15_44_cif.got.tgz:86175.got - 2010.06.03 18:47:42.
