data_PCOD9288356
_publ_section_title
;
Structure prediction by ZEFSAII (Michael W. Deem and Ramdas Pophale) SiO2 
 PCOD9288356
Probable space group: C 2/C
;
_chemical_formula_sum "Si O2"
_cell_formula_units_Z 48
_cell_length_a 6.080195
_cell_length_b 19.537612
_cell_length_c 23.703129
_cell_angle_alpha 90.000000
_cell_angle_beta 56.326239
_cell_angle_gamma 90.000000
_cell_volume 2343.293148
_symmetry_space_group_name_H-M "C 2/C"
_symmetry_group_IT_number 15
_symmetry_cell_setting 'monoclinic'
loop_
_space_group_symop_operation_xyz
x,y,z
-x,y,1/2-z
-x,-y,-z
x,-y,1/2+z
1/2+x,1/2+y,z
1/2-x,1/2+y,1/2-z
1/2-x,1/2-y,-z
1/2+x,1/2-y,1/2+z
loop_
_atom_site_type_symbol
_atom_site_label
_atom_site_fract_x
_atom_site_fract_y
_atom_site_fract_z
Si Si1 0.854106 0.947123 0.981289
Si Si2 0.840929 0.812906 0.423907
Si Si3 0.323466 0.327016 0.615882
Si Si4 0.000000 0.020342 0.250000
Si Si5 0.232906 0.454820 0.393900
Si Si6 0.500000 0.089216 0.250000
Si Si7 0.668248 0.228707 0.448864
O O1 0.042761 0.881665 0.945847
O O2 0.801805 0.985036 0.928887
O O3 0.573020 0.935536 0.051228
O O4 0.000000 0.000000 0.000000
O O5 0.785480 0.744020 0.394909
O O6 0.875486 0.883362 0.387503
O O7 0.592915 0.816277 0.503130
O O8 0.093112 0.794461 0.424564
O O9 0.112265 0.365019 0.683280
O O10 0.585877 0.307953 0.614256
O O11 0.765184 0.053844 0.241845
O O12 0.818815 0.979445 0.320392
O O13 0.750000 0.250000 0.500000
#
# Coordination Sequence:
#
# PCOD9288356 Si02
#       7
#     8   8   8   4   8   4   8
#     4  11  24  40  69 103 136 185 241 297 353 444
#     4  10  22  38  70 101 136 181 230 303 360 440
#     4  11  23  42  68 102 137 186 233 299 354 431
#     4  12  28  53  70 107 146 202 232 314 372 446
#     4  11  25  43  70 101 142 186 245 296 374 437
#     4  12  28  49  76  99 148 192 248 292 372 436
#     4   9  20  38  62 100 138 175 221 290 364 416
#
# _framework density 20.483993000000002
#
# number of rings (size 3 to 8) (size 9 to 14) (size 15 to 20)
#    0.000    1.333    3.333    1.000    9.333    0.667 
#    0.000    0.000    0.000    0.000    0.000    0.000 
#    0.000    0.000    0.000    0.000    0.000    0.000 
#
# Total GULP energy -133674.687670 kJ/mol
# GULP energy per Si atom -5569.778653 kJ/mol
# Density = 2.043737 g / cm^3
# Si number density = 20.483993 Si / 1000 Ang^3
#
#
#
# Elastic Constant Matrix: (Units=GPa)
#
#
# Indices 1 2 3 4 5 6 
#
# 1 83.1404 37.3557 22.2900 0.0000 -1.2147 0.0000
# 2 37.3557 106.9694 45.7955 0.0000 0.4091 0.0000
# 3 22.2900 45.7955 123.6486 0.0000 0.3643 0.0000
# 4 0.0000 0.0000 0.0000 19.5045 0.0000 8.1038
# 5 -1.2147 0.4091 0.3643 0.0000 20.2849 0.0000
# 6 0.0000 0.0000 0.0000 8.1038 0.0000 41.3640
#
#
#
# Elastic Compliance Matrix: (Units=1/GPa)
#
#
# Indices 1 2 3 4 5 6 
#
# 1 0.014363 -0.004647 -0.000871 0.000000 0.000969 0.000000
# 2 -0.004647 0.012614 -0.003833 0.000000 -0.000464 0.000000
# 3 -0.000871 -0.003833 0.009664 0.000000 -0.000148 0.000000
# 4 0.000000 0.000000 0.000000 0.055813 0.000000 -0.010935
# 5 0.000969 -0.000464 -0.000148 0.000000 0.049368 0.000000
# 6 0.000000 0.000000 0.000000 -0.010935 0.000000 0.026318
#
#
# Mechanical properties :
#
#
# Convention : Reuss Voigt Hill
#
# Bulk Modulus (GPa) = 55.73991 58.29342 57.01666
# Shear Modulus (GPa) = 25.93066 30.11850 28.02458
#
# Velocity S-wave (km/s) = 3.56181 3.83867 3.70282
# Velocity P-wave (km/s) = 6.64724 6.94024 6.79532
#
# Compressibility (1/GPa) = 0.01794047
#
# Stress axis : x y z
#
# Youngs Moduli (GPa) = 69.62152 79.27807 103.47216
#
# Poissons Ratio (x) = 0.36838 0.09014
# Poissons Ratio (y) = 0.32351 0.39658
# Poissons Ratio (z) = 0.06065 0.30385
#
# Static dielectric constant tensor:
#      x y z
#    x 1.851890 0.000000 -0.039810 
#    y 0.000000 1.800840 0.000000 
#    z -0.039810 0.000000 1.724760 
# 
# From -- ./inp_files/286312.got.cif
#   From: 2010.05.17/outbox.cif.g08.bks.cpg/sg15_144_cif.got.tgz:286312.got - 2010.06.03 18:47:42.
