data_PCOD9288999
_publ_section_title
;
Structure prediction by ZEFSAII (Michael W. Deem and Ramdas Pophale) SiO2 
 PCOD9288999
Probable space group: C 2/C
;
_chemical_formula_sum "Si O2"
_cell_formula_units_Z 40
_cell_length_a 28.418977
_cell_length_b 6.138455
_cell_length_c 15.170553
_cell_angle_alpha 90.000000
_cell_angle_beta 40.176078
_cell_angle_gamma 90.000000
_cell_volume 1707.347984
_symmetry_space_group_name_H-M "C 2/C"
_symmetry_group_IT_number 15
_symmetry_cell_setting 'monoclinic'
loop_
_space_group_symop_operation_xyz
x,y,z
-x,y,1/2-z
-x,-y,-z
x,-y,1/2+z
1/2+x,1/2+y,z
1/2-x,1/2+y,1/2-z
1/2-x,1/2-y,-z
1/2+x,1/2-y,1/2+z
loop_
_atom_site_type_symbol
_atom_site_label
_atom_site_fract_x
_atom_site_fract_y
_atom_site_fract_z
Si Si1 0.058840 0.319580 0.389808
Si Si2 0.321636 0.556108 0.206110
Si Si3 0.288131 0.400349 0.061381
Si Si4 0.065605 0.986298 0.721975
Si Si5 0.832865 0.323342 0.830744
O O1 0.101982 0.188202 0.403850
O O2 0.036135 0.139312 0.350411
O O3 0.122018 0.461827 0.256473
O O4 0.000000 0.500000 0.500000
O O5 0.295128 0.519517 0.145387
O O6 0.332050 0.335279 0.246358
O O7 0.261192 0.691926 0.346956
O O8 0.248234 0.564933 0.049169
O O9 0.369431 0.343185 0.914496
O O10 0.000000 0.028358 0.750000
O O11 0.112583 0.199327 0.680360
#
# Coordination Sequence:
#
# PCOD9288999 Si02
#       5
#     8   8   8   8   8
#     4  10  25  44  65  95 136 181 226 270 336 406
#     4  10  22  39  71  97 125 183 222 280 330 404
#     4  11  22  42  68 101 136 172 233 272 338 402
#     4  11  27  42  66 101 139 176 223 285 333 400
#     4  10  23  44  67  97 130 184 217 279 336 396
#
# _framework density 23.428149999999999
#
# number of rings (size 3 to 8) (size 9 to 14) (size 15 to 20)
#    0.000    1.600    2.000    0.600    5.600   11.200 
#    0.000    0.000    0.000    0.000    0.000    0.000 
#    0.000    0.000    0.000    0.000    0.000    0.000 
#
# Total GULP energy -111668.045628 kJ/mol
# GULP energy per Si atom -5583.402281 kJ/mol
# Density = 2.337483 g / cm^3
# Si number density = 23.428150 Si / 1000 Ang^3
#
#
#
# Elastic Constant Matrix: (Units=GPa)
#
#
# Indices 1 2 3 4 5 6 
#
# 1 169.1371 55.1222 45.6324 0.0028 -20.4980 0.0010
# 2 55.1222 74.5392 17.1586 0.0069 -4.9582 0.0011
# 3 45.6324 17.1586 80.3356 0.0027 -24.3711 0.0016
# 4 0.0028 0.0069 0.0027 34.8968 -0.0009 -7.2014
# 5 -20.4980 -4.9582 -24.3711 -0.0009 34.4319 -0.0008
# 6 0.0010 0.0011 0.0016 -7.2014 -0.0008 33.5572
#
#
#
# Elastic Compliance Matrix: (Units=1/GPa)
#
#
# Indices 1 2 3 4 5 6 
#
# 1 0.008893 -0.005701 -0.003154 0.000001 0.002241 0.000000
# 2 -0.005701 0.017765 -0.001031 -0.000003 -0.001566 -0.000001
# 3 -0.003154 -0.001031 0.017631 -0.000001 0.010453 -0.000001
# 4 0.000001 -0.000003 -0.000001 0.029984 0.000000 0.006435
# 5 0.002241 -0.001566 0.010453 0.000000 0.037550 0.000000
# 6 0.000000 -0.000001 -0.000001 0.006435 0.000000 0.031181
#
#
# Mechanical properties :
#
#
# Convention : Reuss Voigt Hill
#
# Bulk Modulus (GPa) = 40.78894 62.20425 51.49659
# Shear Modulus (GPa) = 29.24878 34.31708 31.78293
#
# Velocity S-wave (km/s) = 3.53717 3.83140 3.68722
# Velocity P-wave (km/s) = 5.84210 6.79570 6.33686
#
# Compressibility (1/GPa) = 0.02451645
#
# Stress axis : x y z
#
# Youngs Moduli (GPa) = 112.44933 56.29022 56.71982
#
# Poissons Ratio (x) = 0.32093 0.17889
# Poissons Ratio (y) = 0.64111 0.05847
# Poissons Ratio (z) = 0.35465 0.05803
#
# Static dielectric constant tensor:
#      x y z
#    x 1.854920 0.000000 -0.002190 
#    y 0.000000 1.879100 0.000000 
#    z -0.002190 0.000000 1.985710 
# 
# From -- ./inp_files/223532.got.cif
#   From: 2010.05.17/outbox.cif.g08.bks.cpg/sg15_112_cif.got.tgz:223532.got - 2010.06.03 18:47:42.
