data_PCOD9288334
_publ_section_title
;
Structure prediction by ZEFSAII (Michael W. Deem and Ramdas Pophale) SiO2 
 PCOD9288334
Probable space group: C 2/C
;
_chemical_formula_sum "Si O2"
_cell_formula_units_Z 64
_cell_length_a 21.912656
_cell_length_b 8.073653
_cell_length_c 18.634851
_cell_angle_alpha 90.000000
_cell_angle_beta 110.914352
_cell_angle_gamma 90.000000
_cell_volume 3079.579438
_symmetry_space_group_name_H-M "C 2/C"
_symmetry_group_IT_number 15
_symmetry_cell_setting 'monoclinic'
loop_
_space_group_symop_operation_xyz
x,y,z
-x,y,1/2-z
-x,-y,-z
x,-y,1/2+z
1/2+x,1/2+y,z
1/2-x,1/2+y,1/2-z
1/2-x,1/2-y,-z
1/2+x,1/2-y,1/2+z
loop_
_atom_site_type_symbol
_atom_site_label
_atom_site_fract_x
_atom_site_fract_y
_atom_site_fract_z
Si Si1 0.381954 0.037835 0.033708
Si Si2 0.242439 0.935870 0.929582
Si Si3 0.821906 0.274484 0.635948
Si Si4 0.767488 0.910890 0.406635
Si Si5 0.912768 0.091857 0.920258
Si Si6 0.493686 0.910488 0.166542
Si Si7 0.529953 0.761895 0.036772
Si Si8 0.051251 0.776011 0.215664
O O1 0.350826 0.184938 0.068897
O O2 0.419305 0.924116 0.107273
O O3 0.434662 0.107575 0.000016
O O4 0.320968 0.953010 0.969637
O O5 0.228351 0.762186 0.885122
O O6 0.214813 0.099834 0.881764
O O7 0.218126 0.928954 0.001849
O O8 0.773895 0.428096 0.632394
O O9 0.881766 0.263114 0.715506
O O10 0.835481 0.893519 0.394409
O O11 0.936219 0.115581 0.848695
O O12 0.933078 0.911726 0.956977
O O13 0.955231 0.225706 0.982381
O O14 0.500000 0.844855 0.250000
O O15 0.531723 0.815713 0.120144
O O16 0.519705 0.099888 0.179941
O O17 0.000000 0.853958 0.250000
#
# Coordination Sequence:
#
# PCOD9288334 Si02
#       8
#     8   8   8   8   8   8   8   8
#     4  11  19  39  70  92 125 173 218 270 327 391
#     4  10  22  38  68  96 121 172 219 267 331 390
#     4  11  21  43  66  90 133 178 215 271 332 399
#     4  10  22  41  60  96 129 161 224 274 318 401
#     4  11  23  42  61  97 132 163 217 284 328 389
#     4  11  22  40  62  96 128 169 213 264 337 403
#     4  11  23  37  67  97 124 167 217 274 330 393
#     4  11  23  44  65  89 132 177 217 268 340 395
#
# _framework density 20.782059
#
# number of rings (size 3 to 8) (size 9 to 14) (size 15 to 20)
#    0.000    1.250    3.750    4.125    1.750    1.500 
#    4.500    0.000    0.000    0.000    0.000    0.000 
#    0.000    0.000    0.000    0.000    0.000    0.000 
#
# Total GULP energy -178865.039023 kJ/mol
# GULP energy per Si atom -5589.532469 kJ/mol
# Density = 2.073476 g / cm^3
# Si number density = 20.782059 Si / 1000 Ang^3
#
#
#
# Elastic Constant Matrix: (Units=GPa)
#
#
# Indices 1 2 3 4 5 6 
#
# 1 103.5892 20.2421 40.6418 0.0000 -8.4779 0.0000
# 2 20.2421 90.0420 21.6328 0.0000 1.5691 0.0000
# 3 40.6418 21.6328 76.1562 0.0000 -7.5229 0.0000
# 4 0.0000 0.0000 0.0000 10.0378 0.0000 -9.2419
# 5 -8.4779 1.5691 -7.5229 0.0000 31.9807 0.0000
# 6 0.0000 0.0000 0.0000 -9.2419 0.0000 17.0815
#
#
#
# Elastic Compliance Matrix: (Units=1/GPa)
#
#
# Indices 1 2 3 4 5 6 
#
# 1 0.012462 -0.001378 -0.006067 0.000000 0.001944 0.000000
# 2 -0.001378 0.012134 -0.002873 0.000000 -0.001636 0.000000
# 3 -0.006067 -0.002873 0.017445 0.000000 0.002636 0.000000
# 4 0.000000 0.000000 0.000000 0.198510 0.000000 0.107403
# 5 0.001944 -0.001636 0.002636 0.000000 0.032485 0.000000
# 6 0.000000 0.000000 0.000000 0.107403 0.000000 0.116653
#
#
# Mechanical properties :
#
#
# Convention : Reuss Voigt Hill
#
# Bulk Modulus (GPa) = 46.71701 48.31341 47.51521
# Shear Modulus (GPa) = 11.97716 24.30470 18.14093
#
# Velocity S-wave (km/s) = 2.40328 3.42351 2.95772
# Velocity P-wave (km/s) = 5.49811 6.23902 5.88025
#
# Compressibility (1/GPa) = 0.02140548
#
# Stress axis : x y z
#
# Youngs Moduli (GPa) = 80.24228 82.40967 57.32185
#
# Poissons Ratio (x) = 0.11355 0.34779
# Poissons Ratio (y) = 0.11056 0.16470
# Poissons Ratio (z) = 0.48685 0.23678
#
# Static dielectric constant tensor:
#      x y z
#    x 1.752160 0.000000 -0.004210 
#    y 0.000000 1.775130 0.000000 
#    z -0.004210 0.000000 1.720250 
# 
# From -- ./inp_files/251938.got.cif
#   From: 2010.05.17/outbox.cif.g08.bks.cpg/sg15_126_cif.got.tgz:251938.got - 2010.06.03 18:47:42.
