data_PCOD9288061
_publ_section_title
;
Structure prediction by ZEFSAII (Michael W. Deem and Ramdas Pophale) SiO2 
 PCOD9288061
Probable space group: C 2/C
;
_chemical_formula_sum "Si O2"
_cell_formula_units_Z 56
_cell_length_a 13.972242
_cell_length_b 15.230725
_cell_length_c 11.066647
_cell_angle_alpha 90.000000
_cell_angle_beta 92.962048
_cell_angle_gamma 90.000000
_cell_volume 2351.917697
_symmetry_space_group_name_H-M "C 2/C"
_symmetry_group_IT_number 15
_symmetry_cell_setting 'monoclinic'
loop_
_space_group_symop_operation_xyz
x,y,z
-x,y,1/2-z
-x,-y,-z
x,-y,1/2+z
1/2+x,1/2+y,z
1/2-x,1/2+y,1/2-z
1/2-x,1/2-y,-z
1/2+x,1/2-y,1/2+z
loop_
_atom_site_type_symbol
_atom_site_label
_atom_site_fract_x
_atom_site_fract_y
_atom_site_fract_z
Si Si1 0.529636 0.630561 0.023203
Si Si2 0.096874 0.659795 0.180924
Si Si3 0.318946 0.942331 0.623881
Si Si4 0.630328 0.187914 0.585966
Si Si5 0.959018 0.582220 0.571398
Si Si6 0.364189 0.465699 0.414868
Si Si7 0.341266 0.340572 0.201953
O O1 0.416920 0.610720 0.994661
O O2 0.581457 0.633882 0.895160
O O3 0.578094 0.717702 0.080909
O O4 0.560568 0.544099 0.098064
O O5 0.181405 0.600075 0.243145
O O6 0.117934 0.759108 0.218680
O O7 0.000000 0.633199 0.250000
O O8 0.082481 0.645287 0.037384
O O9 0.357229 0.860436 0.544215
O O10 0.379819 0.031290 0.640409
O O11 0.226687 0.978419 0.546665
O O12 0.549113 0.127310 0.639335
O O13 0.736897 0.188029 0.645498
O O14 0.000000 0.500000 0.500000
O O15 0.331097 0.422557 0.289007
#
# Coordination Sequence:
#
# PCOD9288061 Si02
#       7
#     8   8   8   8   8   8   8
#     4  11  22  44  65  93 130 172 214 271 321 389
#     4  12  21  38  67  94 123 166 224 264 315 379
#     4  11  23  40  64  97 127 167 215 274 322 383
#     4  11  21  42  65  91 127 165 219 265 323 382
#     4  10  22  38  62  96 127 164 205 279 320 372
#     4  11  25  37  64  99 129 167 213 272 332 374
#     4  12  23  39  66  97 125 165 221 270 317 389
#
# _framework density 23.810355999999999
#
# number of rings (size 3 to 8) (size 9 to 14) (size 15 to 20)
#    0.000    0.857    5.714    3.429    4.000    0.000 
#    0.000    2.857    0.000    5.143    0.000    0.000 
#    0.000    0.000    0.000    0.000    0.000    0.000 
#
# Total GULP energy -156174.898130 kJ/mol
# GULP energy per Si atom -5577.674933 kJ/mol
# Density = 2.375616 g / cm^3
# Si number density = 23.810356 Si / 1000 Ang^3
#
#
#
# Elastic Constant Matrix: (Units=GPa)
#
#
# Indices 1 2 3 4 5 6 
#
# 1 85.7066 38.9360 3.5730 0.0000 29.3704 0.0000
# 2 38.9360 122.3759 30.6839 0.0000 18.0574 0.0000
# 3 3.5730 30.6839 44.6328 0.0000 17.8996 0.0000
# 4 0.0000 0.0000 0.0000 38.9078 0.0000 16.6418
# 5 29.3704 18.0574 17.8996 0.0000 28.7574 0.0000
# 6 0.0000 0.0000 0.0000 16.6418 0.0000 53.8313
#
#
#
# Elastic Compliance Matrix: (Units=1/GPa)
#
#
# Indices 1 2 3 4 5 6 
#
# 1 0.024509 -0.007134 0.014905 0.000000 -0.029830 0.000000
# 2 -0.007134 0.012102 -0.010159 0.000000 0.006010 0.000000
# 3 0.014905 -0.010159 0.042302 0.000000 -0.035174 0.000000
# 4 0.000000 0.000000 0.000000 0.029618 0.000000 -0.009156
# 5 -0.029830 0.006010 -0.035174 0.000000 0.083359 0.000000
# 6 0.000000 0.000000 0.000000 -0.009156 0.000000 0.021407
#
#
# Mechanical properties :
#
#
# Convention : Reuss Voigt Hill
#
# Bulk Modulus (GPa) = 13.48825 44.34457 28.91641
# Shear Modulus (GPa) = 20.59434 36.26746 28.43090
#
# Velocity S-wave (km/s) = 2.94416 3.90703 3.45926
# Velocity P-wave (km/s) = 4.15146 6.24641 5.30341
#
# Compressibility (1/GPa) = 0.07413861
#
# Stress axis : x y z
#
# Youngs Moduli (GPa) = 40.80062 82.63376 23.63951
#
# Poissons Ratio (x) = 0.58949 -0.35235
# Poissons Ratio (y) = 0.29106 0.24015
# Poissons Ratio (z) = -0.60814 0.83946
#
# Static dielectric constant tensor:
#      x y z
#    x 1.959170 0.000000 -0.106440 
#    y 0.000000 1.915260 0.000000 
#    z -0.106440 0.000000 1.896360 
# 
# From -- ./inp_files/97019.got.cif
#   From: 2010.05.17/outbox.cif.g08.bks.cpg/sg15_49_cif.got.tgz:97019.got - 2010.06.03 18:47:42.
