data_PCOD9288705
_publ_section_title
;
Structure prediction by ZEFSAII (Michael W. Deem and Ramdas Pophale) SiO2 
 PCOD9288705
Probable space group: C 2/C
;
_chemical_formula_sum "Si O2"
_cell_formula_units_Z 56
_cell_length_a 22.279443
_cell_length_b 8.192836
_cell_length_c 30.213565
_cell_angle_alpha 90.000000
_cell_angle_beta 150.836193
_cell_angle_gamma 90.000000
_cell_volume 2687.473781
_symmetry_space_group_name_H-M "C 2/C"
_symmetry_group_IT_number 15
_symmetry_cell_setting 'monoclinic'
loop_
_space_group_symop_operation_xyz
x,y,z
-x,y,1/2-z
-x,-y,-z
x,-y,1/2+z
1/2+x,1/2+y,z
1/2-x,1/2+y,1/2-z
1/2-x,1/2-y,-z
1/2+x,1/2-y,1/2+z
loop_
_atom_site_type_symbol
_atom_site_label
_atom_site_fract_x
_atom_site_fract_y
_atom_site_fract_z
Si Si1 0.000000 0.037180 0.250000
Si Si2 0.362055 0.214283 0.719159
Si Si3 0.141517 0.019656 0.103029
Si Si4 0.621658 0.059636 0.125726
Si Si5 0.321576 0.702617 0.591646
Si Si6 0.344499 0.717237 0.304304
Si Si7 0.840464 0.360259 0.430160
Si Si8 0.500000 0.039189 0.250000
O O1 0.106306 0.149046 0.296903
O O2 0.065621 0.928791 0.330817
O O3 0.402812 0.280885 0.793333
O O4 0.229033 0.126639 0.642371
O O5 0.446301 0.067447 0.755391
O O6 0.132859 0.064398 0.149351
O O7 0.190907 0.187763 0.112829
O O8 0.000000 0.000000 0.000000
O O9 0.618052 0.887413 0.149273
O O10 0.688312 0.006304 0.122791
O O11 0.698983 0.191833 0.202182
O O12 0.487229 0.126064 0.029706
O O13 0.250000 0.750000 0.500000
O O14 0.221797 0.636422 0.562493
O O15 0.388824 0.857658 0.657170
#
# Coordination Sequence:
#
# PCOD9288705 Si02
#       8
#     4   8   8   8   8   8   8   4
#     4  10  26  46  72 100 138 190 230 296 342 398
#     4  11  22  46  67  98 144 176 229 289 341 408
#     4  11  23  40  66 102 140 179 218 283 349 411
#     4  10  22  39  63  97 133 172 219 278 347 405
#     4  11  24  44  71  98 127 184 241 278 344 418
#     4  11  22  38  66  99 130 180 223 270 345 410
#     4  10  22  41  64  93 136 174 217 284 338 413
#     4  10  24  46  66  96 138 188 226 290 348 396
#
# _framework density 20.837412
#
# number of rings (size 3 to 8) (size 9 to 14) (size 15 to 20)
#    0.000    1.429    2.857    1.714    2.000    3.429 
#    2.571    1.429    0.000    0.000    0.000    0.000 
#    0.000    0.000    0.000    0.000    0.000    0.000 
#
# Total GULP energy -155996.302634 kJ/mol
# GULP energy per Si atom -5571.296523 kJ/mol
# Density = 2.078999 g / cm^3
# Si number density = 20.837412 Si / 1000 Ang^3
#
#
#
# Elastic Constant Matrix: (Units=GPa)
#
#
# Indices 1 2 3 4 5 6 
#
# 1 126.5578 38.1996 45.5165 -0.0001 -4.5422 0.0001
# 2 38.1996 108.3956 38.4705 0.0001 -7.6552 0.0003
# 3 45.5165 38.4705 98.8246 -0.0004 -13.9252 0.0000
# 4 -0.0001 0.0001 -0.0004 31.1692 0.0001 -0.6654
# 5 -4.5422 -7.6552 -13.9252 0.0001 34.4674 0.0001
# 6 0.0001 0.0003 0.0000 -0.6654 0.0001 31.4912
#
#
#
# Elastic Compliance Matrix: (Units=1/GPa)
#
#
# Indices 1 2 3 4 5 6 
#
# 1 0.009908 -0.002189 -0.003813 0.000000 -0.000721 0.000000
# 2 -0.002189 0.011206 -0.003228 0.000000 0.000896 0.000000
# 3 -0.003813 -0.003228 0.013742 0.000000 0.004333 0.000000
# 4 0.000000 0.000000 0.000000 0.032097 0.000000 0.000678
# 5 -0.000721 0.000896 0.004333 0.000000 0.030867 0.000000
# 6 0.000000 0.000000 0.000000 0.000678 0.000000 0.031769
#
#
# Mechanical properties :
#
#
# Convention : Reuss Voigt Hill
#
# Bulk Modulus (GPa) = 60.98902 64.23902 62.61402
# Shear Modulus (GPa) = 32.57039 33.53167 33.05103
#
# Velocity S-wave (km/s) = 3.95786 4.01584 3.98696
# Velocity P-wave (km/s) = 7.08652 7.23866 7.16300
#
# Compressibility (1/GPa) = 0.01639639
#
# Stress axis : x y z
#
# Youngs Moduli (GPa) = 100.93197 89.23956 72.77048
#
# Poissons Ratio (x) = 0.19538 0.27744
# Poissons Ratio (y) = 0.22098 0.23487
# Poissons Ratio (z) = 0.38481 0.28802
#
# Static dielectric constant tensor:
#      x y z
#    x 1.769740 0.000000 -0.034880 
#    y 0.000000 1.819470 0.000000 
#    z -0.034880 0.000000 1.777920 
# 
# From -- ./inp_files/317587.got.cif
#   From: 2010.05.17/outbox.cif.g08.bks.cpg/sg15_159_cif.got.tgz:317587.got - 2010.06.03 18:47:42.
