data_PCOD9288645
_publ_section_title
;
Structure prediction by ZEFSAII (Michael W. Deem and Ramdas Pophale) SiO2 
 PCOD9288645
Probable space group: C 2/C
;
_chemical_formula_sum "Si O2"
_cell_formula_units_Z 56
_cell_length_a 18.349878
_cell_length_b 5.984276
_cell_length_c 20.176199
_cell_angle_alpha 90.000000
_cell_angle_beta 103.181242
_cell_angle_gamma 90.000000
_cell_volume 2157.191140
_symmetry_space_group_name_H-M "C 2/C"
_symmetry_group_IT_number 15
_symmetry_cell_setting 'monoclinic'
loop_
_space_group_symop_operation_xyz
x,y,z
-x,y,1/2-z
-x,-y,-z
x,-y,1/2+z
1/2+x,1/2+y,z
1/2-x,1/2+y,1/2-z
1/2-x,1/2-y,-z
1/2+x,1/2-y,1/2+z
loop_
_atom_site_type_symbol
_atom_site_label
_atom_site_fract_x
_atom_site_fract_y
_atom_site_fract_z
Si Si1 0.450407 0.566395 0.084234
Si Si2 0.709093 0.082611 0.377586
Si Si3 0.425404 0.768563 0.735085
Si Si4 0.451540 0.810062 0.955354
Si Si5 0.921520 0.399523 0.340935
Si Si6 0.305541 0.562778 0.264646
Si Si7 0.791463 0.917678 0.610842
O O1 0.491077 0.334595 0.076458
O O2 0.517394 0.727370 0.119665
O O3 0.382114 0.566435 0.120539
O O4 0.419381 0.654515 0.006433
O O5 0.622675 0.121018 0.334876
O O6 0.754393 0.054556 0.318371
O O7 0.731616 0.324967 0.415282
O O8 0.722441 0.841381 0.416569
O O9 0.500000 0.612073 0.750000
O O10 0.362207 0.640797 0.764941
O O11 0.457795 0.948271 0.793227
O O12 0.395942 0.943315 0.896558
O O13 0.500000 0.000000 0.000000
O O14 0.855896 0.275314 0.290767
O O15 0.271500 0.585653 0.184575
#
# Coordination Sequence:
#
# PCOD9288645 Si02
#       7
#     8   8   8   8   8   8   8
#     4  10  22  39  63 100 124 172 221 294 342 393
#     4  11  25  43  62  95 140 186 220 264 339 413
#     4  11  24  37  62  95 136 172 227 277 325 397
#     4   9  21  40  63  90 134 168 224 280 352 399
#     4  11  22  36  63  93 133 173 220 276 338 404
#     4  11  25  38  61  94 139 183 219 265 342 418
#     4  11  23  39  67  90 132 174 228 268 331 399
#
# _framework density 25.959682999999998
#
# number of rings (size 3 to 8) (size 9 to 14) (size 15 to 20)
#    0.000    1.429    1.429    3.429   14.000    0.000 
#    0.000    0.000    0.000    1.714    0.000    0.000 
#    0.000    0.000    0.000    0.000    0.000    0.000 
#
# Total GULP energy -156214.907855 kJ/mol
# GULP energy per Si atom -5579.103852 kJ/mol
# Density = 2.590060 g / cm^3
# Si number density = 25.959683 Si / 1000 Ang^3
#
#
#
# Elastic Constant Matrix: (Units=GPa)
#
#
# Indices 1 2 3 4 5 6 
#
# 1 66.5643 6.0085 3.2355 0.0000 -20.0439 0.0000
# 2 6.0085 190.0589 34.8719 0.0000 2.0741 0.0000
# 3 3.2355 34.8719 52.7047 0.0000 9.4931 0.0000
# 4 0.0000 0.0000 0.0000 44.3267 0.0000 4.5219
# 5 -20.0439 2.0741 9.4931 0.0000 18.6128 0.0000
# 6 0.0000 0.0000 0.0000 4.5219 0.0000 7.6590
#
#
#
# Elastic Compliance Matrix: (Units=1/GPa)
#
#
# Indices 1 2 3 4 5 6 
#
# 1 0.024281 0.000185 -0.006958 0.000000 0.029676 0.000000
# 2 0.000185 0.006028 -0.004311 0.000000 0.001726 0.000000
# 3 -0.006958 -0.004311 0.025895 0.000000 -0.020220 0.000000
# 4 0.000000 0.000000 0.000000 0.024006 0.000000 -0.014173
# 5 0.029676 0.001726 -0.020220 0.000000 0.095805 0.000000
# 6 0.000000 0.000000 0.000000 -0.014173 0.000000 0.138934
#
#
# Mechanical properties :
#
#
# Convention : Reuss Voigt Hill
#
# Bulk Modulus (GPa) = 29.38066 44.17331 36.77698
# Shear Modulus (GPa) = 14.34885 31.80048 23.07467
#
# Velocity S-wave (km/s) = 2.35358 3.50379 2.98462
# Velocity P-wave (km/s) = 4.32761 5.78116 5.10637
#
# Compressibility (1/GPa) = 0.03403600
#
# Stress axis : x y z
#
# Youngs Moduli (GPa) = 41.18517 165.90003 38.61766
#
# Poissons Ratio (x) = -0.03073 0.26871
# Poissons Ratio (y) = -0.00763 0.16646
# Poissons Ratio (z) = 0.28658 0.71512
#
# Static dielectric constant tensor:
#      x y z
#    x 2.111120 0.000000 -0.020100 
#    y 0.000000 2.145630 0.000000 
#    z -0.020100 0.000000 2.050210 
# 
# From -- ./inp_files/278663.got.cif
#   From: 2010.05.17/outbox.cif.g08.bks.cpg/sg15_140_cif.got.tgz:278663.got - 2010.06.03 18:47:42.
