data_PCOD9288988
_publ_section_title
;
Structure prediction by ZEFSAII (Michael W. Deem and Ramdas Pophale) SiO2 
 PCOD9288988
Probable space group: C 2/C
;
_chemical_formula_sum "Si O2"
_cell_formula_units_Z 40
_cell_length_a 29.143527
_cell_length_b 8.874860
_cell_length_c 14.060145
_cell_angle_alpha 90.000000
_cell_angle_beta 157.546618
_cell_angle_gamma 90.000000
_cell_volume 1388.925704
_symmetry_space_group_name_H-M "C 2/C"
_symmetry_group_IT_number 15
_symmetry_cell_setting 'monoclinic'
loop_
_space_group_symop_operation_xyz
x,y,z
-x,y,1/2-z
-x,-y,-z
x,-y,1/2+z
1/2+x,1/2+y,z
1/2-x,1/2+y,1/2-z
1/2-x,1/2-y,-z
1/2+x,1/2-y,1/2+z
loop_
_atom_site_type_symbol
_atom_site_label
_atom_site_fract_x
_atom_site_fract_y
_atom_site_fract_z
Si Si1 0.881569 0.160940 0.088833
Si Si2 0.458261 0.687447 0.455786
Si Si3 0.942622 0.408521 0.729229
Si Si4 0.268933 0.340219 0.832633
Si Si5 0.813767 0.908474 0.194885
O O1 0.912184 0.186701 0.258667
O O2 0.000000 0.145056 0.250000
O O3 0.901392 0.134524 0.775772
O O4 0.800848 0.011904 0.913646
O O5 0.458878 0.847070 0.508264
O O6 0.387118 0.553863 0.372315
O O7 0.885464 0.265596 0.563025
O O8 0.826071 0.452990 0.569983
O O9 0.000000 0.498790 0.750000
O O10 0.185267 0.251640 0.748939
O O11 0.197257 0.298900 0.600482
#
# Coordination Sequence:
#
# PCOD9288988 Si02
#       5
#     8   8   8   8   8
#     4  12  24  45  73 109 150 201 250 312 374 452
#     4  11  21  39  75 112 146 192 265 304 370 461
#     4  10  22  39  70 106 149 199 245 314 380 441
#     4  10  24  39  71 104 149 194 248 306 379 441
#     4   9  21  35  65 108 141 188 247 310 365 437
#
# _framework density 28.799236000000001
#
# number of rings (size 3 to 8) (size 9 to 14) (size 15 to 20)
#    1.200    0.400    2.000    3.600    5.600    0.000 
#    0.000    3.000    0.000    4.800    0.000    0.000 
#    0.000    0.000    0.000    0.000    0.000    0.000 
#
# Total GULP energy -111739.486205 kJ/mol
# GULP energy per Si atom -5586.974310 kJ/mol
# Density = 2.873369 g / cm^3
# Si number density = 28.799236 Si / 1000 Ang^3
#
#
#
# Elastic Constant Matrix: (Units=GPa)
#
#
# Indices 1 2 3 4 5 6 
#
# 1 163.0927 65.6225 89.2604 0.0000 19.5940 0.0000
# 2 65.6225 127.0428 80.0866 0.0000 13.3603 0.0000
# 3 89.2604 80.0866 157.6802 0.0000 -16.3149 0.0000
# 4 0.0000 0.0000 0.0000 65.3566 0.0000 15.0218
# 5 19.5940 13.3603 -16.3149 0.0000 62.9005 0.0000
# 6 0.0000 0.0000 0.0000 15.0218 0.0000 42.5441
#
#
#
# Elastic Compliance Matrix: (Units=1/GPa)
#
#
# Indices 1 2 3 4 5 6 
#
# 1 0.010236 -0.001312 -0.005579 0.000000 -0.004357 0.000000
# 2 -0.001312 0.012873 -0.006202 0.000000 -0.003934 0.000000
# 3 -0.005579 -0.006202 0.013324 0.000000 0.006511 0.000000
# 4 0.000000 0.000000 0.000000 0.016652 0.000000 -0.005880
# 5 -0.004357 -0.003934 0.006511 0.000000 0.019780 0.000000
# 6 0.000000 0.000000 0.000000 -0.005880 0.000000 0.025581
#
#
# Mechanical properties :
#
#
# Convention : Reuss Voigt Hill
#
# Bulk Modulus (GPa) = 97.59934 101.97273 99.78604
# Shear Modulus (GPa) = 39.04773 48.35001 43.69887
#
# Velocity S-wave (km/s) = 3.68619 4.10184 3.89956
# Velocity P-wave (km/s) = 7.21668 7.61042 7.41616
#
# Compressibility (1/GPa) = 0.01024597
#
# Stress axis : x y z
#
# Youngs Moduli (GPa) = 97.69183 77.68261 75.05291
#
# Poissons Ratio (x) = 0.10195 0.41871
# Poissons Ratio (y) = 0.12821 0.46550
# Poissons Ratio (z) = 0.54501 0.48181
#
# Static dielectric constant tensor:
#      x y z
#    x 2.371180 0.000000 -0.038630 
#    y 0.000000 2.261450 0.000000 
#    z -0.038630 0.000000 2.301970 
# 
# From -- ./inp_files/122822.got.cif
#   From: 2010.05.17/outbox.cif.g08.bks.cpg/sg15_62_cif.got.tgz:122822.got - 2010.06.03 18:47:42.
