data_PCOD9288101
_publ_section_title
;
Structure prediction by ZEFSAII (Michael W. Deem and Ramdas Pophale) SiO2 
 PCOD9288101
Probable space group: C 2/C
;
_chemical_formula_sum "Si O2"
_cell_formula_units_Z 44
_cell_length_a 13.111737
_cell_length_b 19.878878
_cell_length_c 7.375800
_cell_angle_alpha 90.000000
_cell_angle_beta 97.036543
_cell_angle_gamma 90.000000
_cell_volume 1907.997669
_symmetry_space_group_name_H-M "C 2/C"
_symmetry_group_IT_number 15
_symmetry_cell_setting 'monoclinic'
loop_
_space_group_symop_operation_xyz
x,y,z
-x,y,1/2-z
-x,-y,-z
x,-y,1/2+z
1/2+x,1/2+y,z
1/2-x,1/2+y,1/2-z
1/2-x,1/2-y,-z
1/2+x,1/2-y,1/2+z
loop_
_atom_site_type_symbol
_atom_site_label
_atom_site_fract_x
_atom_site_fract_y
_atom_site_fract_z
Si Si1 0.555771 0.706616 0.598032
Si Si2 0.000000 0.888420 0.750000
Si Si3 0.793893 0.031437 0.112817
Si Si4 0.606750 0.814437 0.351034
Si Si5 0.065491 0.561617 0.096861
Si Si6 0.784244 0.890754 0.228708
O O1 0.500000 0.747042 0.750000
O O2 0.503382 0.659426 0.430648
O O3 0.631667 0.756437 0.502629
O O4 0.617603 0.655426 0.738297
O O5 0.102678 0.935577 0.780364
O O6 0.681809 0.043027 0.179109
O O7 0.797005 0.950827 0.090653
O O8 0.784123 0.068342 0.918193
O O9 0.500000 0.788757 0.250000
O O10 0.576810 0.881357 0.451271
O O11 0.687565 0.839883 0.218779
O O12 0.000000 0.586519 0.250000
O O13 0.000000 0.500000 0.000000
#
# Coordination Sequence:
#
# PCOD9288101 Si02
#       6
#     8   4   8   8   8   8
#     4  11  24  43  66  95 131 183 227 267 338 408
#     4  10  24  44  66  98 144 176 218 290 334 412
#     4  10  22  38  63  97 132 171 222 273 354 395
#     4  11  22  42  64  89 133 176 222 282 335 391
#     4  11  21  38  64  95 131 171 228 285 343 401
#     4  10  23  39  65  94 133 171 218 281 336 404
#
# _framework density 23.060824
#
# number of rings (size 3 to 8) (size 9 to 14) (size 15 to 20)
#    0.000    1.455    0.909    4.909    3.818    1.455 
#    0.000    0.909    0.000    0.000    0.000    0.000 
#    0.000    0.000    0.000    0.000    0.000    0.000 
#
# Total GULP energy -122603.119848 kJ/mol
# GULP energy per Si atom -5572.869084 kJ/mol
# Density = 2.300834 g / cm^3
# Si number density = 23.060824 Si / 1000 Ang^3
#
#
#
# Elastic Constant Matrix: (Units=GPa)
#
#
# Indices 1 2 3 4 5 6 
#
# 1 123.0123 30.5339 45.9211 0.0000 16.2416 0.0000
# 2 30.5339 99.3555 7.0872 0.0000 4.7579 0.0000
# 3 45.9211 7.0872 50.8563 0.0000 -3.3283 0.0000
# 4 0.0000 0.0000 0.0000 33.3643 0.0000 -6.5011
# 5 16.2416 4.7579 -3.3283 0.0000 25.8754 0.0000
# 6 0.0000 0.0000 0.0000 -6.5011 0.0000 12.5478
#
#
#
# Elastic Compliance Matrix: (Units=1/GPa)
#
#
# Indices 1 2 3 4 5 6 
#
# 1 0.015896 -0.003303 -0.014630 0.000000 -0.011252 0.000000
# 2 -0.003303 0.010963 0.001471 0.000000 0.000246 0.000000
# 3 -0.014630 0.001471 0.033534 0.000000 0.013226 0.000000
# 4 0.000000 0.000000 0.000000 0.033338 0.000000 0.017272
# 5 -0.011252 0.000246 0.013226 0.000000 0.047365 0.000000
# 6 0.000000 0.000000 0.000000 0.017272 0.000000 0.088644
#
#
# Mechanical properties :
#
#
# Convention : Reuss Voigt Hill
#
# Bulk Modulus (GPa) = 36.40409 48.92315 42.66362
# Shear Modulus (GPa) = 18.39452 27.00296 22.69874
#
# Velocity S-wave (km/s) = 2.82734 3.42562 3.14076
# Velocity P-wave (km/s) = 5.14576 6.07514 5.62966
#
# Compressibility (1/GPa) = 0.02746944
#
# Stress axis : x y z
#
# Youngs Moduli (GPa) = 62.90895 91.21447 29.82073
#
# Poissons Ratio (x) = 0.30126 0.43626
# Poissons Ratio (y) = 0.20777 -0.04385
# Poissons Ratio (z) = 0.92033 -0.13414
#
# Static dielectric constant tensor:
#      x y z
#    x 1.923430 0.000000 -0.054840 
#    y 0.000000 1.870950 0.000000 
#    z -0.054840 0.000000 1.845620 
# 
# From -- ./inp_files/30947.got.cif
#   From: 2010.05.17/outbox.cif.g08.bks.cpg/sg15_16_cif.got.tgz:30947.got - 2010.06.03 18:47:42.
