data_PCOD9288292
_publ_section_title
;
Structure prediction by ZEFSAII (Michael W. Deem and Ramdas Pophale) SiO2 
 PCOD9288292
Probable space group: C 2/C
;
_chemical_formula_sum "Si O2"
_cell_formula_units_Z 60
_cell_length_a 10.689713
_cell_length_b 26.957569
_cell_length_c 10.083751
_cell_angle_alpha 90.000000
_cell_angle_beta 81.459811
_cell_angle_gamma 90.000000
_cell_volume 2873.601259
_symmetry_space_group_name_H-M "C 2/C"
_symmetry_group_IT_number 15
_symmetry_cell_setting 'monoclinic'
loop_
_space_group_symop_operation_xyz
x,y,z
-x,y,1/2-z
-x,-y,-z
x,-y,1/2+z
1/2+x,1/2+y,z
1/2-x,1/2+y,1/2-z
1/2-x,1/2-y,-z
1/2+x,1/2-y,1/2+z
loop_
_atom_site_type_symbol
_atom_site_label
_atom_site_fract_x
_atom_site_fract_y
_atom_site_fract_z
Si Si1 0.383621 0.600318 0.981374
Si Si2 0.249868 0.802194 0.925861
Si Si3 0.263916 0.513273 0.154640
Si Si4 0.498874 0.862768 0.591438
Si Si5 0.000000 0.959754 0.250000
Si Si6 0.842236 0.451655 0.572965
Si Si7 0.099353 0.114916 0.116440
Si Si8 0.757773 0.705409 0.103885
O O1 0.395988 0.576172 0.835865
O O2 0.357512 0.658125 0.014058
O O3 0.288669 0.567034 0.083127
O O4 0.527182 0.591368 0.006216
O O5 0.371954 0.833844 0.953124
O O6 0.249962 0.790019 0.767196
O O7 0.250000 0.750000 0.000000
O O8 0.404547 0.495063 0.179954
O O9 0.168387 0.514964 0.294254
O O10 0.201067 0.479988 0.050763
O O11 0.500000 0.869757 0.750000
O O12 0.465858 0.917194 0.539629
O O13 0.387676 0.825267 0.564875
O O14 0.727617 0.413666 0.623766
O O15 0.139865 0.170780 0.086562
O O16 0.000000 0.112114 0.250000
O O17 0.750000 0.750000 0.000000
#
# Coordination Sequence:
#
# PCOD9288292 Si02
#       8
#     8   8   8   8   4   8   8   8
#     4  12  23  39  64  98 136 173 224 279 344 406
#     4  11  25  46  69  93 129 180 225 280 345 398
#     4  12  21  37  65 103 135 181 220 273 341 404
#     4   9  21  45  66  89 129 181 225 266 326 411
#     4  12  24  36  64 108 144 166 220 298 334 406
#     4  11  22  38  66  97 136 178 225 269 332 406
#     4  11  19  35  61  89 127 172 214 269 337 395
#     4  10  22  38  67  95 124 168 224 273 331 404
#
# _framework density 20.879722999999998
#
# number of rings (size 3 to 8) (size 9 to 14) (size 15 to 20)
#    0.000    1.067    5.333    2.800    1.867    1.067 
#    1.200    2.667    0.000    0.000    0.000    0.000 
#    0.000    0.000    0.000    0.000    0.000    0.000 
#
# Total GULP energy -167222.403286 kJ/mol
# GULP energy per Si atom -5574.080110 kJ/mol
# Density = 2.083220 g / cm^3
# Si number density = 20.879723 Si / 1000 Ang^3
#
#
#
# Elastic Constant Matrix: (Units=GPa)
#
#
# Indices 1 2 3 4 5 6 
#
# 1 71.7109 27.3885 17.6743 0.0000 11.5480 0.0000
# 2 27.3885 128.7305 66.7494 0.0000 7.7665 0.0000
# 3 17.6743 66.7494 88.3166 0.0000 2.9703 0.0000
# 4 0.0000 0.0000 0.0000 33.3249 0.0000 0.7906
# 5 11.5480 7.7665 2.9703 0.0000 21.1452 0.0000
# 6 0.0000 0.0000 0.0000 0.7906 0.0000 31.3673
#
#
#
# Elastic Compliance Matrix: (Units=1/GPa)
#
#
# Indices 1 2 3 4 5 6 
#
# 1 0.016433 -0.002386 -0.001219 0.000000 -0.007927 0.000000
# 2 -0.002386 0.013362 -0.009545 0.000000 -0.002264 0.000000
# 3 -0.001219 -0.009545 0.018729 0.000000 0.001540 0.000000
# 4 0.000000 0.000000 0.000000 0.030026 0.000000 -0.000757
# 5 -0.007927 -0.002264 0.001540 0.000000 0.052236 0.000000
# 6 0.000000 0.000000 0.000000 -0.000757 0.000000 0.031899
#
#
# Mechanical properties :
#
#
# Convention : Reuss Voigt Hill
#
# Bulk Modulus (GPa) = 44.99592 56.93138 50.96365
# Shear Modulus (GPa) = 25.45914 28.96386 27.21150
#
# Velocity S-wave (km/s) = 3.49567 3.72852 3.61397
# Velocity P-wave (km/s) = 6.15547 6.77210 6.47113
#
# Compressibility (1/GPa) = 0.02222424
#
# Stress axis : x y z
#
# Youngs Moduli (GPa) = 60.85282 74.84041 53.39272
#
# Poissons Ratio (x) = 0.17858 0.06506
# Poissons Ratio (y) = 0.14520 0.50964
# Poissons Ratio (z) = 0.07415 0.71436
#
# Static dielectric constant tensor:
#      x y z
#    x 1.808350 0.000000 0.002360 
#    y 0.000000 1.756380 0.000000 
#    z 0.002360 0.000000 1.845480 
# 
# From -- ./inp_files/34290.got.cif
#   From: 2010.05.17/outbox.cif.g08.bks.cpg/sg15_18_cif.got.tgz:34290.got - 2010.06.03 18:47:42.
