data_PCOD9288232
_publ_section_title
;
Structure prediction by ZEFSAII (Michael W. Deem and Ramdas Pophale) SiO2 
 PCOD9288232
Probable space group: C 2/C
;
_chemical_formula_sum "Si O2"
_cell_formula_units_Z 44
_cell_length_a 11.437487
_cell_length_b 14.172113
_cell_length_c 12.270725
_cell_angle_alpha 90.000000
_cell_angle_beta 62.838374
_cell_angle_gamma 90.000000
_cell_volume 1769.660377
_symmetry_space_group_name_H-M "C 2/C"
_symmetry_group_IT_number 15
_symmetry_cell_setting 'monoclinic'
loop_
_space_group_symop_operation_xyz
x,y,z
-x,y,1/2-z
-x,-y,-z
x,-y,1/2+z
1/2+x,1/2+y,z
1/2-x,1/2+y,1/2-z
1/2-x,1/2-y,-z
1/2+x,1/2-y,1/2+z
loop_
_atom_site_type_symbol
_atom_site_label
_atom_site_fract_x
_atom_site_fract_y
_atom_site_fract_z
Si Si1 0.505547 0.391980 0.617630
Si Si2 0.151721 0.726064 0.444558
Si Si3 0.074218 0.353928 0.552574
Si Si4 0.000000 0.190148 0.750000
Si Si5 0.244267 0.353989 0.267277
Si Si6 0.731171 0.489786 0.906271
O O1 0.500000 0.376132 0.750000
O O2 0.538204 0.299217 0.531474
O O3 0.369686 0.431787 0.626819
O O4 0.630829 0.460265 0.535125
O O5 0.250000 0.750000 0.500000
O O6 0.235015 0.756406 0.304177
O O7 0.072502 0.634017 0.437619
O O8 0.062369 0.261369 0.634630
O O9 0.162079 0.345048 0.408922
O O10 0.151454 0.430818 0.590550
O O11 0.106995 0.124408 0.759478
O O12 0.202982 0.429712 0.196262
#
# Coordination Sequence:
#
# PCOD9288232 Si02
#       6
#     8   8   8   4   8   8
#     4  10  22  38  65  96 140 182 231 288 345 421
#     4  10  25  43  64 103 135 177 237 291 358 427
#     4  11  24  43  73 100 137 186 238 298 354 425
#     4  10  24  40  70 106 140 178 242 290 350 430
#     4  10  23  42  68 101 142 179 225 294 355 422
#     4  10  23  40  65 105 135 181 237 282 355 421
#
# _framework density 24.863527000000001
#
# number of rings (size 3 to 8) (size 9 to 14) (size 15 to 20)
#    0.000    1.818    0.000    1.636   16.545    1.455 
#    0.000    8.182    0.000    0.000    0.000    0.000 
#    0.000    0.000    0.000    0.000    0.000    0.000 
#
# Total GULP energy -122907.448766 kJ/mol
# GULP energy per Si atom -5586.702217 kJ/mol
# Density = 2.480694 g / cm^3
# Si number density = 24.863527 Si / 1000 Ang^3
#
#
#
# Elastic Constant Matrix: (Units=GPa)
#
#
# Indices 1 2 3 4 5 6 
#
# 1 172.7386 60.0535 34.3170 0.0000 17.5956 0.0000
# 2 60.0535 78.0561 50.2580 0.0000 -5.8360 0.0000
# 3 34.3170 50.2580 195.5886 0.0000 22.4804 0.0000
# 4 0.0000 0.0000 0.0000 3.8061 0.0000 1.3564
# 5 17.5956 -5.8360 22.4804 0.0000 25.3696 0.0000
# 6 0.0000 0.0000 0.0000 1.3564 0.0000 43.6375
#
#
#
# Elastic Compliance Matrix: (Units=1/GPa)
#
#
# Indices 1 2 3 4 5 6 
#
# 1 0.009866 -0.009694 0.002007 0.000000 -0.010851 0.000000
# 2 -0.009694 0.026411 -0.007300 0.000000 0.019268 0.000000
# 3 0.002007 -0.007300 0.007782 0.000000 -0.009967 0.000000
# 4 0.000000 0.000000 0.000000 0.265679 0.000000 -0.008258
# 5 -0.010851 0.019268 -0.009967 0.000000 0.060208 0.000000
# 6 0.000000 0.000000 0.000000 -0.008258 0.000000 0.023173
#
#
# Mechanical properties :
#
#
# Convention : Reuss Voigt Hill
#
# Bulk Modulus (GPa) = 71.00084 81.73783 76.36933
# Shear Modulus (GPa) = 11.68806 34.67964 23.18385
#
# Velocity S-wave (km/s) = 2.17051 3.73875 3.05691
# Velocity P-wave (km/s) = 5.90759 7.18218 6.57584
#
# Compressibility (1/GPa) = 0.01408434
#
# Stress axis : x y z
#
# Youngs Moduli (GPa) = 101.35901 37.86368 128.50152
#
# Poissons Ratio (x) = 0.36706 -0.25793
# Poissons Ratio (y) = 0.98259 0.93807
# Poissons Ratio (z) = -0.20345 0.27641
#
# Static dielectric constant tensor:
#      x y z
#    x 2.171650 0.000000 0.000060 
#    y 0.000000 2.021470 0.000000 
#    z 0.000060 0.000000 1.929490 
# 
# From -- ./inp_files/87712.got.cif
#   From: 2010.05.17/outbox.cif.g08.bks.cpg/sg15_44_cif.got.tgz:87712.got - 2010.06.03 18:47:42.
