data_PCOD9288498
_publ_section_title
;
Structure prediction by ZEFSAII (Michael W. Deem and Ramdas Pophale) SiO2 
 PCOD9288498
Probable space group: C 2/C
;
_chemical_formula_sum "Si O2"
_cell_formula_units_Z 36
_cell_length_a 12.398147
_cell_length_b 24.377216
_cell_length_c 5.165964
_cell_angle_alpha 90.000000
_cell_angle_beta 64.786894
_cell_angle_gamma 90.000000
_cell_volume 1412.573577
_symmetry_space_group_name_H-M "C 2/C"
_symmetry_group_IT_number 15
_symmetry_cell_setting 'monoclinic'
loop_
_space_group_symop_operation_xyz
x,y,z
-x,y,1/2-z
-x,-y,-z
x,-y,1/2+z
1/2+x,1/2+y,z
1/2-x,1/2+y,1/2-z
1/2-x,1/2-y,-z
1/2+x,1/2-y,1/2+z
loop_
_atom_site_type_symbol
_atom_site_label
_atom_site_fract_x
_atom_site_fract_y
_atom_site_fract_z
Si Si1 0.000000 0.537964 0.250000
Si Si2 0.881619 0.752663 0.218721
Si Si3 0.131349 0.025217 0.903671
Si Si4 0.328025 0.137169 0.353398
Si Si5 0.314313 0.354899 0.997119
O O1 0.895632 0.580880 0.291925
O O2 0.000000 0.500000 0.500000
O O3 0.750000 0.750000 0.500000
O O4 0.900072 0.688056 0.154336
O O5 0.869774 0.795121 0.994235
O O6 0.000000 0.771624 0.250000
O O7 0.121863 0.089963 0.963388
O O8 0.192738 0.005144 0.579527
O O9 0.000000 0.000000 0.000000
O O10 0.295491 0.147285 0.687026
O O11 0.215745 0.135375 0.271440
#
# Coordination Sequence:
#
# PCOD9288498 Si02
#       5
#     4   8   8   8   8
#     4  12  26  44  72 102 140 194 250 304 362 438
#     4  10  23  47  76 110 148 191 247 307 378 445
#     4  10  22  39  60  92 141 178 229 284 353 419
#     4  11  24  47  68 106 141 184 240 311 362 434
#     4  11  24  42  73 102 141 189 237 293 379 443
#
# _framework density 25.485396000000001
#
# number of rings (size 3 to 8) (size 9 to 14) (size 15 to 20)
#    0.000    1.333    1.111    3.333    3.111    5.333 
#    4.000    6.667    0.000    0.000    0.000    0.000 
#    0.000    0.000    0.000    0.000    0.000    0.000 
#
# Total GULP energy -100480.356268 kJ/mol
# GULP energy per Si atom -5582.242015 kJ/mol
# Density = 2.542739 g / cm^3
# Si number density = 25.485396 Si / 1000 Ang^3
#
#
#
# Elastic Constant Matrix: (Units=GPa)
#
#
# Indices 1 2 3 4 5 6 
#
# 1 103.9483 45.8270 40.2531 0.0000 11.8289 0.0000
# 2 45.8270 193.2434 35.0598 0.0000 4.4678 0.0000
# 3 40.2531 35.0598 125.6554 0.0000 32.3593 0.0000
# 4 0.0000 0.0000 0.0000 24.7195 0.0000 18.2589
# 5 11.8289 4.4678 32.3593 0.0000 39.0539 0.0000
# 6 0.0000 0.0000 0.0000 18.2589 0.0000 55.6967
#
#
#
# Elastic Compliance Matrix: (Units=1/GPa)
#
#
# Indices 1 2 3 4 5 6 
#
# 1 0.011855 -0.002258 -0.002936 0.000000 -0.000900 0.000000
# 2 -0.002258 0.005901 -0.001176 0.000000 0.000984 0.000000
# 3 -0.002936 -0.001176 0.011395 0.000000 -0.008418 0.000000
# 4 0.000000 0.000000 0.000000 0.053380 0.000000 -0.017499
# 5 -0.000900 0.000984 -0.008418 0.000000 0.032740 0.000000
# 6 0.000000 0.000000 0.000000 -0.017499 0.000000 0.023691
#
#
# Mechanical properties :
#
#
# Convention : Reuss Voigt Hill
#
# Bulk Modulus (GPa) = 60.93838 73.90298 67.42068
# Shear Modulus (GPa) = 31.81219 44.00784 37.91001
#
# Velocity S-wave (km/s) = 3.53689 4.15997 3.86102
# Velocity P-wave (km/s) = 6.37515 7.22045 6.81093
#
# Compressibility (1/GPa) = 0.01641002
#
# Stress axis : x y z
#
# Youngs Moduli (GPa) = 84.35330 169.46367 87.75934
#
# Poissons Ratio (x) = 0.38263 0.25766
# Poissons Ratio (y) = 0.19046 0.10325
# Poissons Ratio (z) = 0.24766 0.19937
#
# Static dielectric constant tensor:
#      x y z
#    x 1.937160 0.000000 0.056780 
#    y 0.000000 2.056300 0.000000 
#    z 0.056780 0.000000 2.045580 
# 
# From -- ./inp_files/4278.got.cif
#   From: 2010.05.17/outbox.cif.g08.bks.cpg/sg15_3_cif.got.tgz:4278.got - 2010.06.03 18:47:42.
