data_PCOD9288207
_publ_section_title
;
Structure prediction by ZEFSAII (Michael W. Deem and Ramdas Pophale) SiO2 
 PCOD9288207
Probable space group: C 2/C
;
_chemical_formula_sum "Si O2"
_cell_formula_units_Z 44
_cell_length_a 8.819532
_cell_length_b 16.645573
_cell_length_c 19.193830
_cell_angle_alpha 90.000000
_cell_angle_beta 43.332368
_cell_angle_gamma 90.000000
_cell_volume 1933.638318
_symmetry_space_group_name_H-M "C 2/C"
_symmetry_group_IT_number 15
_symmetry_cell_setting 'monoclinic'
loop_
_space_group_symop_operation_xyz
x,y,z
-x,y,1/2-z
-x,-y,-z
x,-y,1/2+z
1/2+x,1/2+y,z
1/2-x,1/2+y,1/2-z
1/2-x,1/2-y,-z
1/2+x,1/2-y,1/2+z
loop_
_atom_site_type_symbol
_atom_site_label
_atom_site_fract_x
_atom_site_fract_y
_atom_site_fract_z
Si Si1 0.408479 0.764429 0.649495
Si Si2 0.000000 0.546078 0.750000
Si Si3 0.619186 0.900251 0.643629
Si Si4 0.519992 0.390989 0.441789
Si Si5 0.500000 0.628346 0.250000
Si Si6 0.500000 0.649365 0.750000
Si Si7 0.758820 0.983138 0.405701
O O1 0.575774 0.838879 0.596953
O O2 0.468925 0.705854 0.566352
O O3 0.176966 0.810884 0.724711
O O4 0.436954 0.704282 0.705362
O O5 0.012219 0.483911 0.811456
O O6 0.775117 0.590033 0.840859
O O7 0.500000 0.860667 0.750000
O O8 0.881830 0.912386 0.558000
O O9 0.381580 0.444351 0.431978
O O10 0.376748 0.566273 0.343239
O O11 0.696832 0.587737 0.665322
O O12 0.500000 0.000000 0.500000
#
# Coordination Sequence:
#
# PCOD9288207 Si02
#       7
#     8   4   8   8   4   4   8
#     4  11  21  40  63  91 129 167 209 261 326 382
#     4  10  22  40  62  90 126 162 214 262 318 382
#     4  10  22  38  65  88 126 164 216 254 319 386
#     4  11  22  39  65  92 126 170 211 267 322 386
#     4  11  23  40  63  97 132 162 214 273 323 378
#     4   9  21  42  63  89 128 170 214 261 319 398
#     4  10  22  40  65  92 125 170 220 264 322 384
#
# _framework density 22.755032
#
# number of rings (size 3 to 8) (size 9 to 14) (size 15 to 20)
#    0.545    1.091    0.909    3.818    0.000    4.364 
#    0.000    2.727    0.000    0.000    0.000    0.000 
#    0.000    0.000    0.000    0.000    0.000    0.000 
#
# Total GULP energy -122524.842765 kJ/mol
# GULP energy per Si atom -5569.311035 kJ/mol
# Density = 2.270324 g / cm^3
# Si number density = 22.755032 Si / 1000 Ang^3
#
#
#
# Elastic Constant Matrix: (Units=GPa)
#
#
# Indices 1 2 3 4 5 6 
#
# 1 39.4786 50.6980 31.2905 -0.0009 -21.0737 0.0011
# 2 50.6980 114.1242 58.0529 0.0000 -18.0215 0.0007
# 3 31.2905 58.0529 192.4245 -0.0006 -36.0741 0.0015
# 4 -0.0009 0.0000 -0.0006 26.9503 0.0012 -6.9103
# 5 -21.0737 -18.0215 -36.0741 0.0012 35.0497 -0.0009
# 6 0.0011 0.0007 0.0015 -6.9103 -0.0009 30.6359
#
#
#
# Elastic Compliance Matrix: (Units=1/GPa)
#
#
# Indices 1 2 3 4 5 6 
#
# 1 0.087375 -0.034486 0.003371 0.000001 0.038272 -0.000001
# 2 -0.034486 0.024159 -0.004014 -0.000001 -0.012444 0.000000
# 3 0.003371 -0.004014 0.007252 0.000000 0.007427 0.000000
# 4 0.000001 -0.000001 0.000000 0.039383 -0.000001 0.008883
# 5 0.038272 -0.012444 0.007427 -0.000001 0.052788 0.000000
# 6 -0.000001 0.000000 0.000000 0.008883 0.000000 0.034645
#
#
# Mechanical properties :
#
#
# Convention : Reuss Voigt Hill
#
# Bulk Modulus (GPa) = 20.60662 69.56779 45.08721
# Shear Modulus (GPa) = 15.05864 32.25958 23.65911
#
# Velocity S-wave (km/s) = 2.57528 3.76931 3.22798
# Velocity P-wave (km/s) = 4.23300 7.04148 5.80951
#
# Compressibility (1/GPa) = 0.04852809
#
# Stress axis : x y z
#
# Youngs Moduli (GPa) = 11.44495 41.39261 137.89498
#
# Poissons Ratio (x) = 1.42747 -0.46483
# Poissons Ratio (y) = 0.39469 0.55345
# Poissons Ratio (z) = -0.03858 0.16613
#
# Static dielectric constant tensor:
#      x y z
#    x 2.038850 0.000000 0.040960 
#    y 0.000000 1.876460 0.000000 
#    z 0.040960 0.000000 1.971460 
# 
# From -- ./inp_files/292818.got.cif
#   From: 2010.05.17/outbox.cif.g08.bks.cpg/sg15_147_cif.got.tgz:292818.got - 2010.06.03 18:47:42.
