data_PCOD9288718
_publ_section_title
;
Structure prediction by ZEFSAII (Michael W. Deem and Ramdas Pophale) SiO2 
 PCOD9288718
Probable space group: C 2/C
;
_chemical_formula_sum "Si O2"
_cell_formula_units_Z 44
_cell_length_a 19.936305
_cell_length_b 10.707711
_cell_length_c 7.893923
_cell_angle_alpha 90.000000
_cell_angle_beta 88.338996
_cell_angle_gamma 90.000000
_cell_volume 1684.424989
_symmetry_space_group_name_H-M "C 2/C"
_symmetry_group_IT_number 15
_symmetry_cell_setting 'monoclinic'
loop_
_space_group_symop_operation_xyz
x,y,z
-x,y,1/2-z
-x,-y,-z
x,-y,1/2+z
1/2+x,1/2+y,z
1/2-x,1/2+y,1/2-z
1/2-x,1/2-y,-z
1/2+x,1/2-y,1/2+z
loop_
_atom_site_type_symbol
_atom_site_label
_atom_site_fract_x
_atom_site_fract_y
_atom_site_fract_z
Si Si1 0.137954 0.086736 0.593508
Si Si2 0.405356 0.179039 0.625340
Si Si3 0.265218 0.565923 0.633430
Si Si4 0.329220 0.923047 0.640229
Si Si5 0.500000 0.415223 0.250000
Si Si6 0.953915 0.295442 0.506014
O O1 0.119259 0.198518 0.469902
O O2 0.176059 0.979419 0.492282
O O3 0.070768 0.029737 0.683817
O O4 0.194323 0.135057 0.722540
O O5 0.474791 0.136812 0.529874
O O6 0.422457 0.207899 0.820353
O O7 0.352762 0.067220 0.613947
O O8 0.226402 0.443998 0.711922
O O9 0.209594 0.628973 0.520664
O O10 0.400079 0.853079 0.641010
O O11 0.523598 0.332376 0.408113
#
# Coordination Sequence:
#
# PCOD9288718 Si02
#       6
#     8   8   8   8   4   8
#     4  10  24  46  65  99 124 177 222 278 319 385
#     4  10  22  41  68  93 140 169 224 267 322 391
#     4  10  24  40  64  91 136 170 224 252 331 390
#     4  11  21  41  61 101 134 182 206 263 335 397
#     4  10  24  44  72  96 128 168 234 268 330 368
#     4  10  22  39  64 103 131 171 217 270 324 396
#
# _framework density 26.121673000000001
#
# number of rings (size 3 to 8) (size 9 to 14) (size 15 to 20)
#    0.000    1.818    1.818    0.545    5.091    8.000 
#    0.000    3.636    0.000    0.000    0.000    0.000 
#    0.000    0.000    0.000    0.000    0.000    0.000 
#
# Total GULP energy -123026.970008 kJ/mol
# GULP energy per Si atom -5592.135000 kJ/mol
# Density = 2.606222 g / cm^3
# Si number density = 26.121673 Si / 1000 Ang^3
#
#
#
# Elastic Constant Matrix: (Units=GPa)
#
#
# Indices 1 2 3 4 5 6 
#
# 1 190.1247 19.1256 49.0360 0.0000 -25.5372 0.0000
# 2 19.1256 35.5571 4.9546 0.0000 7.6498 0.0000
# 3 49.0360 4.9546 94.7762 0.0000 20.2998 0.0000
# 4 0.0000 0.0000 0.0000 14.1700 0.0000 1.2407
# 5 -25.5372 7.6498 20.2998 0.0000 63.2634 0.0000
# 6 0.0000 0.0000 0.0000 1.2407 0.0000 45.6851
#
#
#
# Elastic Compliance Matrix: (Units=1/GPa)
#
#
# Indices 1 2 3 4 5 6 
#
# 1 0.007666 -0.004568 -0.004842 0.000000 0.005201 0.000000
# 2 -0.004568 0.031656 0.002065 0.000000 -0.006334 0.000000
# 3 -0.004842 0.002065 0.014411 0.000000 -0.006828 0.000000
# 4 0.000000 0.000000 0.000000 0.070740 0.000000 -0.001921
# 5 0.005201 -0.006334 -0.006828 0.000000 0.020863 0.000000
# 6 0.000000 0.000000 0.000000 -0.001921 0.000000 0.021941
#
#
# Mechanical properties :
#
#
# Convention : Reuss Voigt Hill
#
# Bulk Modulus (GPa) = 25.61184 51.85449 38.73317
# Shear Modulus (GPa) = 25.64357 41.11315 33.37836
#
# Velocity S-wave (km/s) = 3.13660 3.97156 3.57852
# Velocity P-wave (km/s) = 4.78997 6.39728 5.65106
#
# Compressibility (1/GPa) = 0.03904444
#
# Stress axis : x y z
#
# Youngs Moduli (GPa) = 130.43790 31.58976 69.39278
#
# Poissons Ratio (x) = 0.14430 0.33598
# Poissons Ratio (y) = 0.59583 -0.14331
# Poissons Ratio (z) = 0.63153 -0.06524
#
# Static dielectric constant tensor:
#      x y z
#    x 2.011390 0.000000 -0.019640 
#    y 0.000000 2.034220 0.000000 
#    z -0.019640 0.000000 2.110480 
# 
# From -- ./inp_files/47183.got.cif
#   From: 2010.05.17/outbox.cif.g08.bks.cpg/sg15_24_cif.got.tgz:47183.got - 2010.06.03 18:47:42.
