data_PCOD9288379
_publ_section_title
;
Structure prediction by ZEFSAII (Michael W. Deem and Ramdas Pophale) SiO2 
 PCOD9288379
Probable space group: C 2/C
;
_chemical_formula_sum "Si O2"
_cell_formula_units_Z 44
_cell_length_a 12.793163
_cell_length_b 13.145135
_cell_length_c 17.467393
_cell_angle_alpha 90.000000
_cell_angle_beta 36.174647
_cell_angle_gamma 90.000000
_cell_volume 1733.827926
_symmetry_space_group_name_H-M "C 2/C"
_symmetry_group_IT_number 15
_symmetry_cell_setting 'monoclinic'
loop_
_space_group_symop_operation_xyz
x,y,z
-x,y,1/2-z
-x,-y,-z
x,-y,1/2+z
1/2+x,1/2+y,z
1/2-x,1/2+y,1/2-z
1/2-x,1/2-y,-z
1/2+x,1/2-y,1/2+z
loop_
_atom_site_type_symbol
_atom_site_label
_atom_site_fract_x
_atom_site_fract_y
_atom_site_fract_z
Si Si1 0.067420 0.998276 0.792435
Si Si2 0.891815 0.345953 0.585115
Si Si3 0.591705 0.694677 0.047140
Si Si4 0.164320 0.633397 0.791319
Si Si5 0.408446 0.183374 0.377198
Si Si6 0.000000 0.492771 0.250000
O O1 0.228655 0.921719 0.676455
O O2 0.000000 0.033363 0.750000
O O3 0.932687 0.922116 0.916620
O O4 0.145434 0.089468 0.797180
O O5 0.870692 0.231688 0.561426
O O6 0.043360 0.390363 0.438707
O O7 0.960721 0.337616 0.630302
O O8 0.405166 0.750668 0.176405
O O9 0.750000 0.750000 0.000000
O O10 0.088965 0.573197 0.763003
O O11 0.500000 0.234683 0.250000
O O12 0.250000 0.250000 0.500000
O O13 0.362585 0.072469 0.369676
#
# Coordination Sequence:
#
# PCOD9288379 Si02
#       6
#     8   8   8   8   8   4
#     4  12  21  41  72 104 140 197 257 304 382 459
#     4  10  23  41  71  97 145 191 249 312 386 443
#     4  10  24  41  72 106 140 190 251 315 387 458
#     4  10  24  42  70 104 146 197 250 324 377 453
#     4  10  23  41  68 106 144 201 257 315 391 473
#     4  10  22  38  72  98 148 194 252 312 398 450
#
# _framework density 25.377375000000001
#
# number of rings (size 3 to 8) (size 9 to 14) (size 15 to 20)
#    1.636    0.000    3.636    0.545    6.364    0.000 
#    0.000    2.727    2.000    5.455    0.000    0.000 
#    0.000    0.000    0.000    0.000    0.000    0.000 
#
# Total GULP energy -122964.243351 kJ/mol
# GULP energy per Si atom -5589.283789 kJ/mol
# Density = 2.531962 g / cm^3
# Si number density = 25.377375 Si / 1000 Ang^3
#
#
#
# Elastic Constant Matrix: (Units=GPa)
#
#
# Indices 1 2 3 4 5 6 
#
# 1 194.3511 58.9002 43.2317 -0.0002 22.8540 0.0000
# 2 58.9002 143.9122 38.3534 -0.0004 -4.3846 0.0000
# 3 43.2317 38.3534 84.8044 -0.0015 4.8941 0.0001
# 4 -0.0002 -0.0004 -0.0015 42.9474 0.0004 -32.8095
# 5 22.8540 -4.3846 4.8941 0.0004 41.4196 0.0000
# 6 0.0000 0.0000 0.0001 -32.8095 0.0000 -23.6618
#
#
#
# Elastic Compliance Matrix: (Units=1/GPa)
#
#
# Indices 1 2 3 4 5 6 
#
# 1 0.006767 -0.002298 -0.002196 0.000000 -0.003718 0.000000
# 2 -0.002298 0.008748 -0.002932 0.000000 0.002540 0.000000
# 3 -0.002196 -0.002932 0.014283 0.000000 -0.000786 0.000000
# 4 0.000000 0.000000 0.000000 0.011307 0.000000 -0.015678
# 5 -0.003718 0.002540 -0.000786 0.000000 0.026556 0.000000
# 6 0.000000 0.000000 0.000000 -0.015678 0.000000 -0.020523
#
#
# Mechanical properties :
#
#
# Convention : Reuss Voigt Hill
#
# Bulk Modulus (GPa) = 66.90342 78.22648 72.56495
# Shear Modulus (GPa) = 74.65886 30.97987 52.81936
#
# Velocity S-wave (km/s) = 5.42985 3.49774 4.56714
# Velocity P-wave (km/s) = 8.10751 6.87055 7.51453
#
# Compressibility (1/GPa) = 0.01494692
#
# Stress axis : x y z
#
# Youngs Moduli (GPa) = 147.76799 114.31516 70.01545
#
# Poissons Ratio (x) = 0.26266 0.15376
# Poissons Ratio (y) = 0.33953 0.20525
# Poissons Ratio (z) = 0.32452 0.33511
#
# Static dielectric constant tensor:
#      x y z
#    x 1.923730 0.000000 0.011530 
#    y 0.000000 2.065170 0.000000 
#    z 0.011530 0.000000 2.154270 
# 
# From -- ./inp_files/244477.got.cif
#   From: 2010.05.17/outbox.cif.g08.bks.cpg/sg15_123_cif.got.tgz:244477.got - 2010.06.03 18:47:42.
