data_PCOD9288708
_publ_section_title
;
Structure prediction by ZEFSAII (Michael W. Deem and Ramdas Pophale) SiO2 
 PCOD9288708
Probable space group: C 2/C
;
_chemical_formula_sum "Si O2"
_cell_formula_units_Z 48
_cell_length_a 21.559505
_cell_length_b 10.745360
_cell_length_c 27.374883
_cell_angle_alpha 90.000000
_cell_angle_beta 160.829440
_cell_angle_gamma 90.000000
_cell_volume 2082.526437
_symmetry_space_group_name_H-M "C 2/C"
_symmetry_group_IT_number 15
_symmetry_cell_setting 'monoclinic'
loop_
_space_group_symop_operation_xyz
x,y,z
-x,y,1/2-z
-x,-y,-z
x,-y,1/2+z
1/2+x,1/2+y,z
1/2-x,1/2+y,1/2-z
1/2-x,1/2-y,-z
1/2+x,1/2-y,1/2+z
loop_
_atom_site_type_symbol
_atom_site_label
_atom_site_fract_x
_atom_site_fract_y
_atom_site_fract_z
Si Si1 0.892240 0.229531 0.759930
Si Si2 0.851830 0.966731 0.680554
Si Si3 0.637165 0.345952 0.950049
Si Si4 0.989851 0.853563 0.440022
Si Si5 0.910346 0.516706 0.100959
Si Si6 0.187219 0.885347 0.091844
O O1 0.906090 0.104725 0.738934
O O2 0.688405 0.286981 0.597263
O O3 0.906193 0.193537 0.827133
O O4 0.043885 0.337255 0.861303
O O5 0.662453 0.983932 0.508079
O O6 0.000000 0.924589 0.750000
O O7 0.919287 0.874614 0.774073
O O8 0.750000 0.250000 0.000000
O O9 0.757911 0.471710 0.027785
O O10 0.659885 0.305654 0.022732
O O11 0.860326 0.831084 0.390807
O O12 0.039497 0.000115 0.474344
O O13 0.103243 0.441745 0.252678
#
# Coordination Sequence:
#
# PCOD9288708 Si02
#       6
#     8   8   8   8   8   8
#     4  11  20  41  66  97 131 163 217 269 333 380
#     4  10  22  39  63  98 131 163 215 270 322 386
#     4  11  24  43  67  92 131 175 219 265 322 392
#     4  10  22  39  66  93 130 172 212 266 321 390
#     4  10  23  39  65  96 129 168 213 271 330 385
#     4  10  22  42  62  93 131 175 217 256 324 391
#
# _framework density 23.048926999999999
#
# number of rings (size 3 to 8) (size 9 to 14) (size 15 to 20)
#    0.000    1.667    3.333    0.500    0.000   10.667 
#    0.000    2.500    0.000    0.000    0.000    0.000 
#    0.000    0.000    0.000    0.000    0.000    0.000 
#
# Total GULP energy -134139.922851 kJ/mol
# GULP energy per Si atom -5589.163452 kJ/mol
# Density = 2.299647 g / cm^3
# Si number density = 23.048927 Si / 1000 Ang^3
#
#
#
# Elastic Constant Matrix: (Units=GPa)
#
#
# Indices 1 2 3 4 5 6 
#
# 1 79.8877 0.1578 17.8751 0.0016 -19.5161 0.0021
# 2 0.1578 62.1919 8.0917 0.0065 -9.5875 0.0034
# 3 17.8751 8.0917 81.1620 0.0169 -34.6264 0.0055
# 4 0.0016 0.0065 0.0169 19.8812 0.0031 -6.0445
# 5 -19.5161 -9.5875 -34.6264 0.0031 43.6795 -0.0010
# 6 0.0021 0.0034 0.0055 -6.0445 -0.0010 35.3536
#
#
#
# Elastic Compliance Matrix: (Units=1/GPa)
#
#
# Indices 1 2 3 4 5 6 
#
# 1 0.014129 0.000975 -0.000641 -0.000002 0.006019 -0.000001
# 2 0.000975 0.016711 -0.000197 -0.000007 0.003948 -0.000003
# 3 -0.000641 -0.000197 0.018648 -0.000020 0.014453 -0.000006
# 4 -0.000002 -0.000007 -0.000020 0.053057 -0.000022 0.009071
# 5 0.006019 0.003948 0.014453 -0.000022 0.037908 -0.000006
# 6 -0.000001 -0.000003 -0.000006 0.009071 -0.000006 0.029837
#
#
# Mechanical properties :
#
#
# Convention : Reuss Voigt Hill
#
# Bulk Modulus (GPa) = 20.09488 30.61009 25.35249
# Shear Modulus (GPa) = 26.79491 32.92398 29.85945
#
# Velocity S-wave (km/s) = 3.41328 3.78357 3.60318
# Velocity P-wave (km/s) = 4.92659 5.69179 5.32296
#
# Compressibility (1/GPa) = 0.04976391
#
# Stress axis : x y z
#
# Youngs Moduli (GPa) = 70.77397 59.84089 53.62439
#
# Poissons Ratio (x) = -0.05837 0.03439
# Poissons Ratio (y) = -0.06904 0.01054
# Poissons Ratio (z) = 0.04539 0.01176
#
# Static dielectric constant tensor:
#      x y z
#    x 1.853490 0.000000 -0.035350 
#    y 0.000000 1.964920 0.000000 
#    z -0.035350 0.000000 1.899070 
# 
# From -- ./inp_files/300927.got.cif
#   From: 2010.05.17/outbox.cif.g08.bks.cpg/sg15_151_cif.got.tgz:300927.got - 2010.06.03 18:47:42.
