data_PCOD9288524
_publ_section_title
;
Structure prediction by ZEFSAII (Michael W. Deem and Ramdas Pophale) SiO2 
 PCOD9288524
Probable space group: C 2/C
;
_chemical_formula_sum "Si O2"
_cell_formula_units_Z 32
_cell_length_a 11.851621
_cell_length_b 4.923997
_cell_length_c 23.648874
_cell_angle_alpha 90.000000
_cell_angle_beta 76.004450
_cell_angle_gamma 90.000000
_cell_volume 1339.117017
_symmetry_space_group_name_H-M "C 2/C"
_symmetry_group_IT_number 15
_symmetry_cell_setting 'monoclinic'
loop_
_space_group_symop_operation_xyz
x,y,z
-x,y,1/2-z
-x,-y,-z
x,-y,1/2+z
1/2+x,1/2+y,z
1/2-x,1/2+y,1/2-z
1/2-x,1/2-y,-z
1/2+x,1/2-y,1/2+z
loop_
_atom_site_type_symbol
_atom_site_label
_atom_site_fract_x
_atom_site_fract_y
_atom_site_fract_z
Si Si1 0.946073 0.381472 0.084379
Si Si2 0.115917 0.852531 0.017543
Si Si3 0.181916 0.064478 0.121492
Si Si4 0.939769 0.474013 0.817434
O O1 0.816544 0.505667 0.098516
O O2 0.036960 0.604997 0.049806
O O3 0.975013 0.378269 0.147560
O O4 0.925453 0.127057 0.043055
O O5 0.128939 0.088380 0.063826
O O6 0.250000 0.750000 0.000000
O O7 0.108892 0.815482 0.156646
O O8 0.168222 0.321964 0.163471
O O9 0.000000 0.457660 0.750000
#
# Coordination Sequence:
#
# PCOD9288524 Si02
#       4
#     8   8   8   8
#     4   9  19  37  61  87 121 157 192 245 297 345
#     4   8  16  36  61  90 120 153 195 241 296 354
#     4  10  22  39  61  88 116 153 199 243 294 352
#     4  11  24  40  59  86 118 155 200 243 290 352
#
# _framework density 23.896343999999999
#
# number of rings (size 3 to 8) (size 9 to 14) (size 15 to 20)
#    0.000    2.500    0.000    0.750    0.000    7.000 
#    0.000   42.500    0.000    0.000    0.000    0.000 
#    0.000    0.000    0.000    0.000    0.000    0.000 
#
# Total GULP energy -89261.067888 kJ/mol
# GULP energy per Si atom -5578.816743 kJ/mol
# Density = 2.384195 g / cm^3
# Si number density = 23.896344 Si / 1000 Ang^3
#
#
#
# Elastic Constant Matrix: (Units=GPa)
#
#
# Indices 1 2 3 4 5 6 
#
# 1 85.4261 -9.0362 60.5993 0.0001 -0.2231 0.0001
# 2 -9.0362 113.3639 38.0947 0.0003 -1.4337 -0.0002
# 3 60.5993 38.0947 133.1576 0.0002 1.0749 0.0001
# 4 0.0001 0.0003 0.0002 32.9027 0.0001 -8.3364
# 5 -0.2231 -1.4337 1.0749 0.0001 23.0982 0.0001
# 6 0.0001 -0.0002 0.0001 -8.3364 0.0001 1.1539
#
#
#
# Elastic Compliance Matrix: (Units=1/GPa)
#
#
# Indices 1 2 3 4 5 6 
#
# 1 0.019607 0.005063 -0.010380 0.000000 0.000987 0.000000
# 2 0.005063 0.011079 -0.005482 0.000000 0.000992 -0.000001
# 3 -0.010380 -0.005482 0.013811 0.000000 -0.001083 0.000002
# 4 0.000000 0.000000 0.000000 -0.036597 0.000001 -0.264402
# 5 0.000987 0.000992 -0.001083 0.000001 0.043415 0.000003
# 6 0.000000 -0.000001 0.000002 -0.264402 0.000003 -1.043561
#
#
# Mechanical properties :
#
#
# Convention : Reuss Voigt Hill
#
# Bulk Modulus (GPa) = 43.66663 56.80704 50.23683
# Shear Modulus (GPa) = -5.19202 27.58361 11.19579
#
# Velocity S-wave (km/s) = -1.47562 3.40119 2.16687
# Velocity P-wave (km/s) = 3.92553 6.26482 5.22770
#
# Compressibility (1/GPa) = 0.02290078
#
# Stress axis : x y z
#
# Youngs Moduli (GPa) = 51.00135 90.25708 72.40750
#
# Poissons Ratio (x) = -0.45700 0.75157
# Poissons Ratio (y) = -0.25824 0.39694
# Poissons Ratio (z) = 0.52938 0.49479
#
# Static dielectric constant tensor:
#      x y z
#    x 2.087010 0.000000 0.008050 
#    y 0.000000 2.008120 0.000000 
#    z 0.008050 0.000000 1.931530 
# 
# From -- ./inp_files/235209.got.cif
#   From: 2010.05.17/outbox.cif.g08.bks.cpg/sg15_118_cif.got.tgz:235209.got - 2010.06.03 18:47:42.
