data_PCOD9288885
_publ_section_title
;
Structure prediction by ZEFSAII (Michael W. Deem and Ramdas Pophale) SiO2 
 PCOD9288885
Probable space group: C 2/C
;
_chemical_formula_sum "Si O2"
_cell_formula_units_Z 64
_cell_length_a 24.476352
_cell_length_b 15.007452
_cell_length_c 11.107202
_cell_angle_alpha 90.000000
_cell_angle_beta 136.602241
_cell_angle_gamma 90.000000
_cell_volume 2803.189221
_symmetry_space_group_name_H-M "C 2/C"
_symmetry_group_IT_number 15
_symmetry_cell_setting 'monoclinic'
loop_
_space_group_symop_operation_xyz
x,y,z
-x,y,1/2-z
-x,-y,-z
x,-y,1/2+z
1/2+x,1/2+y,z
1/2-x,1/2+y,1/2-z
1/2-x,1/2-y,-z
1/2+x,1/2-y,1/2+z
loop_
_atom_site_type_symbol
_atom_site_label
_atom_site_fract_x
_atom_site_fract_y
_atom_site_fract_z
Si Si1 0.929625 0.430015 0.211455
Si Si2 0.169114 0.423435 0.874456
Si Si3 0.684576 0.259464 0.665631
Si Si4 0.922834 0.262690 0.705350
Si Si5 0.466175 0.250848 0.902348
Si Si6 0.479534 0.561602 0.084396
Si Si7 0.290073 0.411274 0.276397
Si Si8 0.715025 0.088166 0.199841
O O1 0.884126 0.489466 0.237855
O O2 0.961783 0.336659 0.313128
O O3 0.000000 0.475730 0.250000
O O4 0.861449 0.420624 0.003721
O O5 0.109027 0.363150 0.855503
O O6 0.188747 0.371867 0.784692
O O7 0.248855 0.432400 0.080518
O O8 0.648807 0.286451 0.476670
O O9 0.610406 0.239921 0.633159
O O10 0.748407 0.179842 0.754943
O O11 0.726875 0.347706 0.778899
O O12 0.000000 0.245841 0.750000
O O13 0.953917 0.247179 0.888620
O O14 0.469225 0.346623 0.842691
O O15 0.500000 0.521203 0.250000
O O16 0.500000 0.500000 0.000000
O O17 0.385213 0.585005 0.928657
O O18 0.256881 0.495142 0.298506
#
# Coordination Sequence:
#
# PCOD9288885 Si02
#       8
#     8   8   8   8   8   8   8   8
#     4  11  24  40  64 100 140 174 221 285 358 429
#     4  10  22  39  66  98 136 181 228 282 348 424
#     4  10  23  42  69  99 140 186 240 295 351 431
#     4   9  20  38  64  98 136 180 229 282 349 424
#     4  11  24  43  69 103 138 180 231 293 362 425
#     4  12  30  50  75 102 144 192 247 304 361 428
#     4  10  25  44  67 102 140 185 246 295 358 430
#     4  11  24  41  67  95 136 185 235 289 357 420
#
# _framework density 22.831136000000001
#
# number of rings (size 3 to 8) (size 9 to 14) (size 15 to 20)
#    0.000    1.500    0.000    3.000    8.750    7.000 
#    0.000    0.000    0.000    0.000    0.000    0.000 
#    0.000    0.000    0.000    0.000    0.000    0.000 
#
# Total GULP energy -178495.815694 kJ/mol
# GULP energy per Si atom -5577.994240 kJ/mol
# Density = 2.277917 g / cm^3
# Si number density = 22.831136 Si / 1000 Ang^3
#
#
#
# Elastic Constant Matrix: (Units=GPa)
#
#
# Indices 1 2 3 4 5 6 
#
# 1 84.0850 10.7448 37.2460 0.0000 9.1308 0.0000
# 2 10.7448 35.5414 4.7954 0.0000 6.0482 0.0000
# 3 37.2460 4.7954 74.8825 0.0000 17.4851 0.0000
# 4 0.0000 0.0000 0.0000 214.1651 0.0000 85.3546
# 5 9.1308 6.0482 17.4851 0.0000 33.6962 0.0000
# 6 0.0000 0.0000 0.0000 85.3546 0.0000 72.1063
#
#
#
# Elastic Compliance Matrix: (Units=1/GPa)
#
#
# Indices 1 2 3 4 5 6 
#
# 1 0.015734 -0.003789 -0.007677 0.000000 0.000400 0.000000
# 2 -0.003789 0.029970 0.001117 0.000000 -0.004932 0.000000
# 3 -0.007677 0.001117 0.018959 0.000000 -0.007958 0.000000
# 4 0.000000 0.000000 0.000000 0.008840 0.000000 -0.010464
# 5 0.000400 -0.004932 -0.007958 0.000000 0.034584 0.000000
# 6 0.000000 0.000000 0.000000 -0.010464 0.000000 0.026255
#
#
# Mechanical properties :
#
#
# Convention : Reuss Voigt Hill
#
# Bulk Modulus (GPa) = 22.74466 33.34236 28.04351
# Shear Modulus (GPa) = 29.46480 73.44168 51.45324
#
# Velocity S-wave (km/s) = 3.59632 5.67778 4.75241
# Velocity P-wave (km/s) = 5.21809 7.59068 6.51333
#
# Compressibility (1/GPa) = 0.04396636
#
# Stress axis : x y z
#
# Youngs Moduli (GPa) = 63.55699 33.36631 52.74441
#
# Poissons Ratio (x) = 0.12642 0.40490
# Poissons Ratio (y) = 0.24082 -0.05892
# Poissons Ratio (z) = 0.48791 -0.03727
#
# Static dielectric constant tensor:
#      x y z
#    x 1.887970 0.000000 -0.051270 
#    y 0.000000 1.913430 0.000000 
#    z -0.051270 0.000000 1.872340 
# 
# From -- ./inp_files/123534.got.cif
#   From: 2010.05.17/outbox.cif.g08.bks.cpg/sg15_62_cif.got.tgz:123534.got - 2010.06.03 18:47:42.
