data_PCOD9288610
_publ_section_title
;
Structure prediction by ZEFSAII (Michael W. Deem and Ramdas Pophale) SiO2 
 PCOD9288610
Probable space group: C 2/C
;
_chemical_formula_sum "Si O2"
_cell_formula_units_Z 64
_cell_length_a 5.048186
_cell_length_b 19.272204
_cell_length_c 29.923364
_cell_angle_alpha 90.000000
_cell_angle_beta 89.089306
_cell_angle_gamma 90.000000
_cell_volume 2910.866484
_symmetry_space_group_name_H-M "C 2/C"
_symmetry_group_IT_number 15
_symmetry_cell_setting 'monoclinic'
loop_
_space_group_symop_operation_xyz
x,y,z
-x,y,1/2-z
-x,-y,-z
x,-y,1/2+z
1/2+x,1/2+y,z
1/2-x,1/2+y,1/2-z
1/2-x,1/2-y,-z
1/2+x,1/2-y,1/2+z
loop_
_atom_site_type_symbol
_atom_site_label
_atom_site_fract_x
_atom_site_fract_y
_atom_site_fract_z
Si Si1 0.849047 0.660862 0.203715
Si Si2 0.442344 0.599370 0.104141
Si Si3 0.691852 0.235476 0.129349
Si Si4 0.682355 0.104021 0.630078
Si Si5 0.320461 0.360950 0.423592
Si Si6 0.032964 0.704710 0.700326
Si Si7 0.442503 0.041431 0.149287
Si Si8 0.254577 0.450613 0.508864
O O1 0.610558 0.714676 0.206076
O O2 0.818983 0.579666 0.192944
O O3 0.000000 0.669794 0.250000
O O4 0.990564 0.688939 0.158165
O O5 0.418029 0.682502 0.110992
O O6 0.732400 0.566077 0.111381
O O7 0.299007 0.578134 0.058522
O O8 0.242358 0.568634 0.141469
O O9 0.590324 0.282431 0.088777
O O10 0.787940 0.288731 0.167546
O O11 0.478148 0.134830 0.594501
O O12 0.727291 0.157017 0.670754
O O13 0.959842 0.092248 0.603493
O O14 0.508304 0.039636 0.648867
O O15 0.289018 0.387992 0.473675
O O16 0.000000 0.676087 0.750000
O O17 0.500000 0.500000 0.500000
O O18 0.000000 0.500000 0.500000
#
# Coordination Sequence:
#
# PCOD9288610 Si02
#       8
#     8   8   8   8   8   8   8   8
#     4  11  21  38  64  90 128 168 220 263 321 394
#     4  11  23  40  65  91 128 167 214 267 325 392
#     4  10  22  39  62  92 124 172 210 269 326 392
#     4  11  23  40  63  93 130 171 213 266 328 387
#     4  11  23  40  65  91 128 167 214 267 325 392
#     4  11  21  38  64  90 128 168 220 263 321 394
#     4  11  23  40  63  93 130 171 213 266 328 387
#     4  12  24  41  64  93 126 170 219 270 331 400
#
# _framework density 21.986581999999999
#
# number of rings (size 3 to 8) (size 9 to 14) (size 15 to 20)
#    0.000    1.000    3.750    4.500    0.000    1.000 
#    0.000    0.000    0.000    9.000    0.000    0.000 
#    0.000    0.000    0.000    0.000    0.000    0.000 
#
# Total GULP energy -178179.121500 kJ/mol
# GULP energy per Si atom -5568.097547 kJ/mol
# Density = 2.193654 g / cm^3
# Si number density = 21.986582 Si / 1000 Ang^3
#
#
#
# Elastic Constant Matrix: (Units=GPa)
#
#
# Indices 1 2 3 4 5 6 
#
# 1 112.0758 18.4514 23.2327 0.0000 4.8665 0.0000
# 2 18.4514 81.1231 18.5712 0.0000 4.2608 0.0000
# 3 23.2327 18.5712 67.0276 0.0000 11.5133 0.0000
# 4 0.0000 0.0000 0.0000 27.3084 0.0000 -0.6896
# 5 4.8665 4.2608 11.5133 0.0000 28.6545 0.0000
# 6 0.0000 0.0000 0.0000 -0.6896 0.0000 31.6872
#
#
#
# Elastic Compliance Matrix: (Units=1/GPa)
#
#
# Indices 1 2 3 4 5 6 
#
# 1 0.009794 -0.001545 -0.002922 0.000000 -0.000260 0.000000
# 2 -0.001545 0.013413 -0.003097 0.000000 -0.000488 0.000000
# 3 -0.002922 -0.003097 0.017858 0.000000 -0.006219 0.000000
# 4 0.000000 0.000000 0.000000 0.036639 0.000000 0.000797
# 5 -0.000260 -0.000488 -0.006219 0.000000 0.037514 0.000000
# 6 0.000000 0.000000 0.000000 0.000797 0.000000 0.031576
#
#
# Mechanical properties :
#
#
# Convention : Reuss Voigt Hill
#
# Bulk Modulus (GPa) = 38.55497 42.30411 40.42954
# Shear Modulus (GPa) = 29.31389 30.86142 30.08766
#
# Velocity S-wave (km/s) = 3.65535 3.75059 3.70328
# Velocity P-wave (km/s) = 5.94888 6.16754 6.05920
#
# Compressibility (1/GPa) = 0.02593699
#
# Stress axis : x y z
#
# Youngs Moduli (GPa) = 102.10443 74.55471 55.99633
#
# Poissons Ratio (x) = 0.11519 0.16362
# Poissons Ratio (y) = 0.15776 0.17342
# Poissons Ratio (z) = 0.29835 0.23090
#
# Static dielectric constant tensor:
#      x y z
#    x 1.853710 0.000000 -0.037380 
#    y 0.000000 1.981410 0.000000 
#    z -0.037380 0.000000 1.893520 
# 
# From -- ./inp_files/286410.got.cif
#   From: 2010.05.17/outbox.cif.g08.bks.cpg/sg15_144_cif.got.tgz:286410.got - 2010.06.03 18:47:42.
