data_PCOD9288134
_publ_section_title
;
Structure prediction by ZEFSAII (Michael W. Deem and Ramdas Pophale) SiO2 
 PCOD9288134
Probable space group: C 2/C
;
_chemical_formula_sum "Si O2"
_cell_formula_units_Z 52
_cell_length_a 23.190659
_cell_length_b 6.422532
_cell_length_c 27.419552
_cell_angle_alpha 90.000000
_cell_angle_beta 138.790864
_cell_angle_gamma 90.000000
_cell_volume 2690.540454
_symmetry_space_group_name_H-M "C 2/C"
_symmetry_group_IT_number 15
_symmetry_cell_setting 'monoclinic'
loop_
_space_group_symop_operation_xyz
x,y,z
-x,y,1/2-z
-x,-y,-z
x,-y,1/2+z
1/2+x,1/2+y,z
1/2-x,1/2+y,1/2-z
1/2-x,1/2-y,-z
1/2+x,1/2-y,1/2+z
loop_
_atom_site_type_symbol
_atom_site_label
_atom_site_fract_x
_atom_site_fract_y
_atom_site_fract_z
Si Si1 0.464489 0.557613 0.055808
Si Si2 0.916911 0.850441 0.775479
Si Si3 0.773651 0.256440 0.957712
Si Si4 0.137591 0.463037 0.816897
Si Si5 0.746503 0.422807 0.356576
Si Si6 0.500000 0.339323 0.250000
Si Si7 0.059451 0.700036 0.530885
O O1 0.526265 0.602279 0.141115
O O2 0.521169 0.651686 0.047951
O O3 0.371102 0.670284 0.007185
O O4 0.445714 0.322208 0.024407
O O5 0.916469 0.616532 0.753354
O O6 0.814861 0.919150 0.712887
O O7 0.959766 0.007542 0.763829
O O8 0.759125 0.473097 0.918645
O O9 0.702508 0.105237 0.888353
O O10 0.750000 0.250000 0.000000
O O11 0.195288 0.294628 0.825198
O O12 0.076677 0.321099 0.812667
O O13 0.841989 0.374619 0.397628
O O14 0.000000 0.500000 0.500000
#
# Coordination Sequence:
#
# PCOD9288134 Si02
#       7
#     8   8   8   8   8   4   8
#     4  11  25  42  67  99 127 176 227 279 330 396
#     4  10  24  41  62  99 132 170 225 271 337 403
#     4  11  24  38  66  97 134 169 223 275 338 406
#     4  10  22  41  63  89 134 175 211 274 333 398
#     4  10  22  45  62  94 129 178 216 274 339 396
#     4  10  22  38  64  90 134 174 214 260 336 404
#     4  11  23  46  69  91 133 174 226 279 333 395
#
# _framework density 19.326969999999999
#
# number of rings (size 3 to 8) (size 9 to 14) (size 15 to 20)
#    0.000    1.538    3.077    0.462    8.615    4.308 
#    5.538    0.000    0.000    0.000    0.000    0.000 
#    0.000    0.000    0.000    0.000    0.000    0.000 
#
# Total GULP energy -144822.544176 kJ/mol
# GULP energy per Si atom -5570.097853 kJ/mol
# Density = 1.928298 g / cm^3
# Si number density = 19.326970 Si / 1000 Ang^3
#
#
#
# Elastic Constant Matrix: (Units=GPa)
#
#
# Indices 1 2 3 4 5 6 
#
# 1 97.8213 36.9782 46.0567 -0.0055 23.7243 -0.0077
# 2 36.9782 113.0356 43.3278 -0.0049 6.1904 -0.0195
# 3 46.0567 43.3278 121.0577 -0.0022 3.7221 -0.0001
# 4 -0.0055 -0.0049 -0.0022 20.0239 0.0027 12.7071
# 5 23.7243 6.1904 3.7221 0.0027 36.4467 0.0031
# 6 -0.0077 -0.0195 -0.0001 12.7071 0.0031 31.2942
#
#
#
# Elastic Compliance Matrix: (Units=1/GPa)
#
#
# Indices 1 2 3 4 5 6 
#
# 1 0.015764 -0.002849 -0.004692 0.000003 -0.009298 0.000002
# 2 -0.002849 0.010837 -0.002804 -0.000003 0.000300 0.000007
# 3 -0.004692 -0.002804 0.010975 0.000001 0.002409 -0.000004
# 4 0.000003 -0.000003 0.000001 0.067276 -0.000004 -0.027318
# 5 -0.009298 0.000300 0.002409 -0.000004 0.033193 -0.000004
# 6 0.000002 0.000007 -0.000004 -0.027318 -0.000004 0.043047
#
#
# Mechanical properties :
#
#
# Convention : Reuss Voigt Hill
#
# Bulk Modulus (GPa) = 59.22048 64.96000 62.09024
# Shear Modulus (GPa) = 24.10677 31.25642 27.68159
#
# Velocity S-wave (km/s) = 3.53556 4.02586 3.78865
# Velocity P-wave (km/s) = 6.88294 7.43600 7.16481
#
# Compressibility (1/GPa) = 0.01688605
#
# Stress axis : x y z
#
# Youngs Moduli (GPa) = 63.43636 92.27443 91.11633
#
# Poissons Ratio (x) = 0.26292 0.42749
# Poissons Ratio (y) = 0.18075 0.25549
# Poissons Ratio (z) = 0.29762 0.25873
#
# Static dielectric constant tensor:
#      x y z
#    x 1.677880 0.000000 0.019560 
#    y 0.000000 1.749210 0.000000 
#    z 0.019560 0.000000 1.685120 
# 
# From -- ./inp_files/300157.got.cif
#   From: 2010.05.17/outbox.cif.g08.bks.cpg/sg15_151_cif.got.tgz:300157.got - 2010.06.03 18:47:42.
