data_PCOD9288714
_publ_section_title
;
Structure prediction by ZEFSAII (Michael W. Deem and Ramdas Pophale) SiO2 
 PCOD9288714
Probable space group: C 2/C
;
_chemical_formula_sum "Si O2"
_cell_formula_units_Z 36
_cell_length_a 8.873649
_cell_length_b 20.371030
_cell_length_c 16.177723
_cell_angle_alpha 90.000000
_cell_angle_beta 142.497765
_cell_angle_gamma 90.000000
_cell_volume 1780.335428
_symmetry_space_group_name_H-M "C 2/C"
_symmetry_group_IT_number 15
_symmetry_cell_setting 'monoclinic'
loop_
_space_group_symop_operation_xyz
x,y,z
-x,y,1/2-z
-x,-y,-z
x,-y,1/2+z
1/2+x,1/2+y,z
1/2-x,1/2+y,1/2-z
1/2-x,1/2-y,-z
1/2+x,1/2-y,1/2+z
loop_
_atom_site_type_symbol
_atom_site_label
_atom_site_fract_x
_atom_site_fract_y
_atom_site_fract_z
Si Si1 0.962305 0.556971 0.570764
Si Si2 0.480402 0.574641 0.026923
Si Si3 0.733855 0.672579 0.007522
Si Si4 0.146311 0.579528 0.161801
Si Si5 0.000000 0.102220 0.750000
O O1 0.949624 0.479939 0.586904
O O2 0.256474 0.566594 0.682460
O O3 0.806297 0.590288 0.575295
O O4 0.827929 0.576192 0.426149
O O5 0.594214 0.633304 0.020788
O O6 0.630591 0.570274 0.178554
O O7 0.500000 0.500000 0.000000
O O8 0.013245 0.645985 0.129962
O O9 0.750000 0.750000 0.000000
O O10 0.607665 0.644575 0.870499
#
# Coordination Sequence:
#
# PCOD9288714 Si02
#       5
#     8   8   8   8   4
#     4  10  22  40  68  99 135 170 223 291 350 393
#     4  12  23  39  69 107 132 175 237 289 340 412
#     4  11  25  42  67  96 137 187 219 276 347 420
#     4  10  22  39  64 100 138 174 223 283 348 410
#     4  10  24  44  64  92 136 178 218 280 352 406
#
# _framework density 20.220908000000001
#
# number of rings (size 3 to 8) (size 9 to 14) (size 15 to 20)
#    0.000    1.333    2.222    2.667    9.333    2.667 
#    0.000    4.444    9.778    0.000    0.000    0.000 
#    0.000    0.000    0.000    0.000    0.000    0.000 
#
# Total GULP energy -100212.763235 kJ/mol
# GULP energy per Si atom -5567.375735 kJ/mol
# Density = 2.017488 g / cm^3
# Si number density = 20.220908 Si / 1000 Ang^3
#
#
#
# Elastic Constant Matrix: (Units=GPa)
#
#
# Indices 1 2 3 4 5 6 
#
# 1 138.5779 66.4050 38.6300 0.0001 17.5980 -0.0001
# 2 66.4050 135.9736 21.9254 0.0004 12.7539 0.0000
# 3 38.6300 21.9254 86.5314 0.0052 9.2271 0.0015
# 4 0.0001 0.0004 0.0052 19.2369 0.0014 -0.8646
# 5 17.5980 12.7539 9.2271 0.0014 10.4192 0.0002
# 6 -0.0001 0.0000 0.0015 -0.8646 0.0002 19.4811
#
#
#
# Elastic Compliance Matrix: (Units=1/GPa)
#
#
# Indices 1 2 3 4 5 6 
#
# 1 0.011438 -0.004014 -0.002819 0.000002 -0.011908 0.000001
# 2 -0.004014 0.009818 -0.000151 0.000000 -0.005104 0.000000
# 3 -0.002819 -0.000151 0.013611 -0.000003 -0.007107 -0.000001
# 4 0.000002 0.000000 -0.000003 0.052087 -0.000007 0.002312
# 5 -0.011908 -0.005104 -0.007107 -0.000007 0.128631 -0.000002
# 6 0.000001 0.000000 -0.000001 0.002312 -0.000002 0.051435
#
#
# Mechanical properties :
#
#
# Convention : Reuss Voigt Hill
#
# Bulk Modulus (GPa) = 47.85321 68.33376 58.09348
# Shear Modulus (GPa) = 17.36382 25.43560 21.39971
#
# Velocity S-wave (km/s) = 2.93355 3.55052 3.25668
# Velocity P-wave (km/s) = 5.93219 7.11865 6.55233
#
# Compressibility (1/GPa) = 0.02089724
#
# Stress axis : x y z
#
# Youngs Moduli (GPa) = 87.42888 101.85421 73.46851
#
# Poissons Ratio (x) = 0.40888 0.20712
# Poissons Ratio (y) = 0.35097 0.01112
# Poissons Ratio (z) = 0.24648 0.01542
#
# Static dielectric constant tensor:
#      x y z
#    x 1.829940 0.000000 0.027740 
#    y 0.000000 1.806440 0.000000 
#    z 0.027740 0.000000 1.768460 
# 
# From -- ./inp_files/76583.got.cif
#   From: 2010.05.17/outbox.cif.g08.bks.cpg/sg15_39_cif.got.tgz:76583.got - 2010.06.03 18:47:42.
