data_PCOD9288787
_publ_section_title
;
Structure prediction by ZEFSAII (Michael W. Deem and Ramdas Pophale) SiO2 
 PCOD9288787
Probable space group: C 2/C
;
_chemical_formula_sum "Si O2"
_cell_formula_units_Z 60
_cell_length_a 21.786837
_cell_length_b 15.445953
_cell_length_c 9.036152
_cell_angle_alpha 90.000000
_cell_angle_beta 75.507432
_cell_angle_gamma 90.000000
_cell_volume 2944.073019
_symmetry_space_group_name_H-M "C 2/C"
_symmetry_group_IT_number 15
_symmetry_cell_setting 'monoclinic'
loop_
_space_group_symop_operation_xyz
x,y,z
-x,y,1/2-z
-x,-y,-z
x,-y,1/2+z
1/2+x,1/2+y,z
1/2-x,1/2+y,1/2-z
1/2-x,1/2-y,-z
1/2+x,1/2-y,1/2+z
loop_
_atom_site_type_symbol
_atom_site_label
_atom_site_fract_x
_atom_site_fract_y
_atom_site_fract_z
Si Si1 0.888977 0.441015 0.707699
Si Si2 0.894187 0.996776 0.514995
Si Si3 0.000000 0.566475 0.750000
Si Si4 0.811959 0.452821 0.454370
Si Si5 0.059272 0.700229 0.481724
Si Si6 0.499003 0.628663 0.068233
Si Si7 0.179598 0.070760 0.200726
Si Si8 0.679338 0.237893 0.607270
O O1 0.861668 0.452255 0.559562
O O2 0.830341 0.463396 0.849265
O O3 0.918355 0.345192 0.682614
O O4 0.944698 0.506895 0.716001
O O5 0.874569 0.022258 0.362044
O O6 0.940017 0.076138 0.529140
O O7 0.938078 0.915532 0.531030
O O8 0.828800 0.977068 0.639157
O O9 0.028393 0.627859 0.606396
O O10 0.744932 0.446117 0.576443
O O11 0.821197 0.364701 0.349525
O O12 0.122049 0.740011 0.523077
O O13 0.007591 0.774605 0.507974
O O14 0.500000 0.626242 0.250000
O O15 0.169758 0.175394 0.211331
O O16 0.750000 0.250000 0.500000
#
# Coordination Sequence:
#
# PCOD9288787 Si02
#       8
#     8   8   4   8   8   8   8   8
#     4  11  22  39  60  93 116 157 200 254 306 357
#     4  11  22  35  64  87 124 153 206 245 305 359
#     4  12  22  38  64  86 120 156 202 252 298 362
#     4  10  22  39  65  87 126 153 207 253 301 357
#     4  11  21  37  63  86 118 160 205 248 299 360
#     4  11  21  39  60  89 121 163 202 250 289 369
#     4  11  21  39  63  93 117 163 202 252 300 362
#     4   9  18  36  61  87 113 157 208 242 281 360
#
# _framework density 20.379930000000002
#
# number of rings (size 3 to 8) (size 9 to 14) (size 15 to 20)
#    0.000    1.333    6.000    1.200    0.000    0.000 
#    0.000    1.333    2.933    0.800    0.000    0.000 
#    0.000    0.000    0.000    0.000    0.000    0.000 
#
# Total GULP energy -167038.219469 kJ/mol
# GULP energy per Si atom -5567.940649 kJ/mol
# Density = 2.033354 g / cm^3
# Si number density = 20.379930 Si / 1000 Ang^3
#
#
#
# Elastic Constant Matrix: (Units=GPa)
#
#
# Indices 1 2 3 4 5 6 
#
# 1 73.1671 29.8461 1.9008 0.0000 -9.2218 0.0000
# 2 29.8461 94.4358 36.2034 0.0000 -17.3218 0.0000
# 3 1.9008 36.2034 34.9137 0.0000 -16.2204 0.0000
# 4 0.0000 0.0000 0.0000 29.0591 0.0000 -6.7163
# 5 -9.2218 -17.3218 -16.2204 0.0000 28.1051 0.0000
# 6 0.0000 0.0000 0.0000 -6.7163 0.0000 28.8280
#
#
#
# Elastic Compliance Matrix: (Units=1/GPa)
#
#
# Indices 1 2 3 4 5 6 
#
# 1 0.017787 -0.008653 0.011256 0.000000 0.006999 0.000000
# 2 -0.008653 0.021789 -0.023505 0.000000 -0.002976 0.000000
# 3 0.011256 -0.023505 0.064749 0.000000 0.026575 0.000000
# 4 0.000000 0.000000 0.000000 0.036371 0.000000 0.008474
# 5 0.006999 -0.002976 0.026575 0.000000 0.051381 0.000000
# 6 0.000000 0.000000 0.000000 0.008474 0.000000 0.036663
#
#
# Mechanical properties :
#
#
# Convention : Reuss Voigt Hill
#
# Bulk Modulus (GPa) = 15.99478 37.60190 26.79834
# Shear Modulus (GPa) = 17.15946 26.16952 21.66449
#
# Velocity S-wave (km/s) = 2.90483 3.58730 3.26395
# Velocity P-wave (km/s) = 4.37219 5.97066 5.23282
#
# Compressibility (1/GPa) = 0.06252040
#
# Stress axis : x y z
#
# Youngs Moduli (GPa) = 56.22201 45.89442 15.44418
#
# Poissons Ratio (x) = 0.39710 -0.17383
# Poissons Ratio (y) = 0.48646 0.36302
# Poissons Ratio (z) = -0.63281 1.07876
#
# Static dielectric constant tensor:
#      x y z
#    x 1.786450 0.000000 -0.026840 
#    y 0.000000 1.767670 0.000000 
#    z -0.026840 0.000000 1.749280 
# 
# From -- ./inp_files/61552.got.cif
#   From: 2010.05.17/outbox.cif.g08.bks.cpg/sg15_31_cif.got.tgz:61552.got - 2010.06.03 18:47:42.
