data_PCOD9288022
_publ_section_title
;
Structure prediction by ZEFSAII (Michael W. Deem and Ramdas Pophale) SiO2 
 PCOD9288022
Probable space group: C 2/C
;
_chemical_formula_sum "Si O2"
_cell_formula_units_Z 48
_cell_length_a 18.864039
_cell_length_b 14.410754
_cell_length_c 16.792543
_cell_angle_alpha 90.000000
_cell_angle_beta 148.817134
_cell_angle_gamma 90.000000
_cell_volume 2363.609595
_symmetry_space_group_name_H-M "C 2/C"
_symmetry_group_IT_number 15
_symmetry_cell_setting 'monoclinic'
loop_
_space_group_symop_operation_xyz
x,y,z
-x,y,1/2-z
-x,-y,-z
x,-y,1/2+z
1/2+x,1/2+y,z
1/2-x,1/2+y,1/2-z
1/2-x,1/2-y,-z
1/2+x,1/2-y,1/2+z
loop_
_atom_site_type_symbol
_atom_site_label
_atom_site_fract_x
_atom_site_fract_y
_atom_site_fract_z
Si Si1 0.608460 0.521006 0.208335
Si Si2 0.904961 0.490190 0.486772
Si Si3 0.331582 0.215304 0.872333
Si Si4 0.752938 0.166820 0.440989
Si Si5 0.500000 0.963027 0.750000
Si Si6 0.927870 0.847578 0.444677
Si Si7 0.000000 0.063229 0.750000
O O1 0.763664 0.545192 0.334863
O O2 0.573763 0.428293 0.124456
O O3 0.601405 0.495217 0.293274
O O4 0.496087 0.598542 0.083119
O O5 0.866204 0.380104 0.451971
O O6 0.000000 0.500000 0.500000
O O7 0.960218 0.514242 0.628397
O O8 0.250938 0.286555 0.852381
O O9 0.227552 0.187300 0.701991
O O10 0.469703 0.265062 0.978873
O O11 0.750000 0.250000 0.500000
O O12 0.628381 0.099537 0.343509
O O13 0.900705 0.120615 0.597180
#
# Coordination Sequence:
#
# PCOD9288022 Si02
#       7
#     8   8   8   8   4   8   4
#     4  10  22  42  59  91 127 174 213 253 328 396
#     4  11  25  40  60  96 135 172 218 270 330 394
#     4  11  22  38  60  95 124 169 209 265 329 387
#     4  12  22  33  58  94 132 160 198 257 331 405
#     4  12  23  38  60  95 130 174 214 262 335 388
#     4  10  22  38  62  87 123 164 208 254 315 386
#     4  12  21  40  62  87 132 170 200 266 325 406
#
# _framework density 20.307922000000001
#
# number of rings (size 3 to 8) (size 9 to 14) (size 15 to 20)
#    0.000    1.000    5.000    2.500    4.667    1.333 
#    0.000    0.000    0.000    2.000    0.000    0.000 
#    0.000    0.000    0.000    0.000    0.000    0.000 
#
# Total GULP energy -133883.953478 kJ/mol
# GULP energy per Si atom -5578.498062 kJ/mol
# Density = 2.026170 g / cm^3
# Si number density = 20.307922 Si / 1000 Ang^3
#
#
#
# Elastic Constant Matrix: (Units=GPa)
#
#
# Indices 1 2 3 4 5 6 
#
# 1 72.8377 0.5145 22.3156 0.0000 -0.2952 0.0000
# 2 0.5145 21.5298 22.0746 0.0000 -8.8103 0.0000
# 3 22.3156 22.0746 122.1879 0.0000 1.2580 0.0000
# 4 0.0000 0.0000 0.0000 2.0816 0.0000 4.6642
# 5 -0.2952 -8.8103 1.2580 0.0000 31.7503 0.0000
# 6 0.0000 0.0000 0.0000 4.6642 0.0000 20.5268
#
#
#
# Elastic Compliance Matrix: (Units=1/GPa)
#
#
# Indices 1 2 3 4 5 6 
#
# 1 0.014737 0.003610 -0.003357 0.000000 0.001272 0.000000
# 2 0.003610 0.067692 -0.013088 0.000003 0.019336 -0.000001
# 3 -0.003357 -0.013088 0.011204 0.000000 -0.004107 0.000000
# 4 0.000000 0.000003 0.000000 0.978702 0.000002 -0.222387
# 5 0.001272 0.019336 -0.004107 0.000002 0.037036 0.000000
# 6 0.000000 -0.000001 0.000000 -0.222387 0.000000 0.099249
#
#
# Mechanical properties :
#
#
# Convention : Reuss Voigt Hill
#
# Bulk Modulus (GPa) = 14.71358 34.04052 24.37705
# Shear Modulus (GPa) = 3.97790 22.31513 13.14652
#
# Velocity S-wave (km/s) = 1.40109 3.31847 2.54709
# Velocity P-wave (km/s) = 3.14299 5.61084 4.54752
#
# Compressibility (1/GPa) = 0.06796443
#
# Stress axis : x y z
#
# Youngs Moduli (GPa) = 67.85533 14.77270 89.25459
#
# Poissons Ratio (x) = -0.05333 0.29961
# Poissons Ratio (y) = -0.24496 1.16814
# Poissons Ratio (z) = 0.22778 0.19334
#
# Static dielectric constant tensor:
#      x y z
#    x 1.706530 0.000000 -0.018870 
#    y 0.000000 1.447200 0.000000 
#    z -0.018870 0.000000 1.747590 
# 
# From -- ./inp_files/48756.got.cif
#   From: 2010.05.17/outbox.cif.g08.bks.cpg/sg15_25_cif.got.tgz:48756.got - 2010.06.03 18:47:42.
