data_PCOD9288426
_publ_section_title
;
Structure prediction by ZEFSAII (Michael W. Deem and Ramdas Pophale) SiO2 
 PCOD9288426
Probable space group: C 2/C
;
_chemical_formula_sum "Si O2"
_cell_formula_units_Z 56
_cell_length_a 31.004804
_cell_length_b 10.744140
_cell_length_c 9.284758
_cell_angle_alpha 90.000000
_cell_angle_beta 125.471676
_cell_angle_gamma 90.000000
_cell_volume 2518.896536
_symmetry_space_group_name_H-M "C 2/C"
_symmetry_group_IT_number 15
_symmetry_cell_setting 'monoclinic'
loop_
_space_group_symop_operation_xyz
x,y,z
-x,y,1/2-z
-x,-y,-z
x,-y,1/2+z
1/2+x,1/2+y,z
1/2-x,1/2+y,1/2-z
1/2-x,1/2-y,-z
1/2+x,1/2-y,1/2+z
loop_
_atom_site_type_symbol
_atom_site_label
_atom_site_fract_x
_atom_site_fract_y
_atom_site_fract_z
Si Si1 0.866434 0.041834 0.181276
Si Si2 0.650587 0.277692 0.621102
Si Si3 0.600153 0.820353 0.729319
Si Si4 0.528923 0.394915 0.154558
Si Si5 0.321963 0.958827 0.134592
Si Si6 0.825640 0.842822 0.312639
Si Si7 0.740684 0.126024 0.271053
O O1 0.884517 0.140366 0.337698
O O2 0.914698 0.963018 0.213265
O O3 0.830380 0.946159 0.199932
O O4 0.838600 0.110976 0.996818
O O5 0.623189 0.221429 0.428537
O O6 0.671284 0.164716 0.758184
O O7 0.699015 0.364881 0.662630
O O8 0.543740 0.743635 0.619512
O O9 0.630758 0.757188 0.655154
O O10 0.621982 0.963822 0.764738
O O11 0.500000 0.380074 0.250000
O O12 0.500000 0.500000 0.000000
O O13 0.279268 0.043703 0.135423
O O14 0.296622 0.919271 0.933220
O O15 0.771421 0.769246 0.212845
#
# Coordination Sequence:
#
# PCOD9288426 Si02
#       7
#     8   8   8   8   8   8   8
#     4  11  22  37  64  94 130 168 208 279 342 393
#     4  12  24  40  64  92 137 184 227 273 324 386
#     4  10  23  43  64  94 127 174 216 278 346 399
#     4  11  22  42  69  99 126 155 209 278 349 416
#     4  11  23  43  62  90 134 188 230 273 320 391
#     4  10  22  39  58  93 131 173 220 267 325 386
#     4  11  25  41  61  93 132 187 237 271 311 380
#
# _framework density 22.231957999999999
#
# number of rings (size 3 to 8) (size 9 to 14) (size 15 to 20)
#    0.000    1.143    2.857    4.714    2.000    4.571 
#    0.000    0.000    0.000    4.286    0.000    0.000 
#    0.000    0.000    0.000    0.000    0.000    0.000 
#
# Total GULP energy -156331.097410 kJ/mol
# GULP energy per Si atom -5583.253479 kJ/mol
# Density = 2.218136 g / cm^3
# Si number density = 22.231958 Si / 1000 Ang^3
#
#
#
# Elastic Constant Matrix: (Units=GPa)
#
#
# Indices 1 2 3 4 5 6 
#
# 1 100.4692 23.3765 13.5691 0.0000 -21.3435 0.0000
# 2 23.3765 72.9944 29.4156 0.0000 -15.3034 0.0000
# 3 13.5691 29.4156 86.5061 0.0000 -22.5360 0.0000
# 4 0.0000 0.0000 0.0000 38.7083 0.0000 -4.2770
# 5 -21.3435 -15.3034 -22.5360 0.0000 30.8734 0.0000
# 6 0.0000 0.0000 0.0000 -4.2770 0.0000 43.5734
#
#
#
# Elastic Compliance Matrix: (Units=1/GPa)
#
#
# Indices 1 2 3 4 5 6 
#
# 1 0.012087 -0.002654 0.001038 0.000000 0.007798 0.000000
# 2 -0.002654 0.017069 -0.004522 0.000000 0.003325 0.000000
# 3 0.001038 -0.004522 0.015482 0.000000 0.009777 0.000000
# 4 0.000000 0.000000 0.000000 0.026118 0.000000 0.002564
# 5 0.007798 0.003325 0.009777 0.000000 0.046567 0.000000
# 6 0.000000 0.000000 0.000000 0.002564 0.000000 0.023201
#
#
# Mechanical properties :
#
#
# Convention : Reuss Voigt Hill
#
# Bulk Modulus (GPa) = 30.89992 43.63245 37.26619
# Shear Modulus (GPa) = 30.56482 35.53825 33.05154
#
# Velocity S-wave (km/s) = 3.71187 4.00249 3.85992
# Velocity P-wave (km/s) = 5.68328 6.40535 6.05509
#
# Compressibility (1/GPa) = 0.03236255
#
# Stress axis : x y z
#
# Youngs Moduli (GPa) = 82.73100 58.58574 64.59257
#
# Poissons Ratio (x) = 0.15551 -0.06706
# Poissons Ratio (y) = 0.21960 0.29206
# Poissons Ratio (z) = -0.08589 0.26490
#
# Static dielectric constant tensor:
#      x y z
#    x 1.830010 0.000000 0.042570 
#    y 0.000000 1.885630 0.000000 
#    z 0.042570 0.000000 1.835030 
# 
# From -- ./inp_files/69451.got.cif
#   From: 2010.05.17/outbox.cif.g08.bks.cpg/sg15_35_cif.got.tgz:69451.got - 2010.06.03 18:47:42.
