data_PCOD9288762
_publ_section_title
;
Structure prediction by ZEFSAII (Michael W. Deem and Ramdas Pophale) SiO2 
 PCOD9288762
Probable space group: C 2/C
;
_chemical_formula_sum "Si O2"
_cell_formula_units_Z 44
_cell_length_a 12.452610
_cell_length_b 18.073034
_cell_length_c 9.645792
_cell_angle_alpha 90.000000
_cell_angle_beta 74.436200
_cell_angle_gamma 90.000000
_cell_volume 2091.247614
_symmetry_space_group_name_H-M "C 2/C"
_symmetry_group_IT_number 15
_symmetry_cell_setting 'monoclinic'
loop_
_space_group_symop_operation_xyz
x,y,z
-x,y,1/2-z
-x,-y,-z
x,-y,1/2+z
1/2+x,1/2+y,z
1/2-x,1/2+y,1/2-z
1/2-x,1/2-y,-z
1/2+x,1/2-y,1/2+z
loop_
_atom_site_type_symbol
_atom_site_label
_atom_site_fract_x
_atom_site_fract_y
_atom_site_fract_z
Si Si1 0.197434 0.359500 0.890330
Si Si2 0.867652 0.266761 0.022873
Si Si3 0.896526 0.040059 0.395929
Si Si4 0.529026 0.617038 0.581405
Si Si5 0.871840 0.277483 0.308950
Si Si6 0.000000 0.355374 0.750000
O O1 0.283182 0.426313 0.879838
O O2 0.279933 0.288366 0.835118
O O3 0.106830 0.383340 0.805306
O O4 0.141020 0.330137 0.053671
O O5 0.923740 0.186154 0.017981
O O6 0.940682 0.308117 0.887301
O O7 0.750000 0.250000 0.000000
O O8 0.854158 0.314578 0.165943
O O9 0.000000 0.047330 0.250000
O O10 0.927851 0.084668 0.525147
O O11 0.889670 0.953372 0.433917
O O12 0.500000 0.638688 0.750000
O O13 0.000000 0.250666 0.250000
#
# Coordination Sequence:
#
# PCOD9288762 Si02
#       6
#     8   8   8   8   8   4
#     4  11  23  37  61  92 129 171 209 257 315 381
#     4  12  23  37  59  92 128 163 205 262 312 374
#     4  10  22  41  64  95 126 163 205 263 318 372
#     4  10  22  39  64  95 125 156 211 264 316 367
#     4  11  22  36  58  91 128 164 206 261 323 365
#     4  12  24  38  58  98 130 166 210 260 312 386
#
# _framework density 21.040071000000001
#
# number of rings (size 3 to 8) (size 9 to 14) (size 15 to 20)
#    0.000    1.091    4.545    2.727    5.091    0.000 
#    0.000    0.000    0.000    1.091    4.727    0.000 
#    0.000    0.000    0.000    0.000    0.000    0.000 
#
# Total GULP energy -122581.035520 kJ/mol
# GULP energy per Si atom -5571.865251 kJ/mol
# Density = 2.099218 g / cm^3
# Si number density = 21.040071 Si / 1000 Ang^3
#
#
#
# Elastic Constant Matrix: (Units=GPa)
#
#
# Indices 1 2 3 4 5 6 
#
# 1 139.2193 30.4012 41.1094 0.0000 19.3822 0.0000
# 2 30.4012 40.5598 18.1111 0.0000 9.9999 0.0000
# 3 41.1094 18.1111 134.0239 0.0000 11.2270 0.0000
# 4 0.0000 0.0000 0.0000 16.3982 0.0000 11.1501
# 5 19.3822 9.9999 11.2270 0.0000 39.3203 0.0000
# 6 0.0000 0.0000 0.0000 11.1501 0.0000 18.4815
#
#
#
# Elastic Compliance Matrix: (Units=1/GPa)
#
#
# Indices 1 2 3 4 5 6 
#
# 1 0.009307 -0.005477 -0.001892 0.000000 -0.002655 0.000000
# 2 -0.005477 0.030818 -0.002105 0.000000 -0.004537 0.000000
# 3 -0.001892 -0.002105 0.008404 0.000000 -0.000932 0.000000
# 4 0.000000 0.000000 0.000000 0.103400 0.000000 -0.062382
# 5 -0.002655 -0.004537 -0.000932 0.000000 0.028161 0.000000
# 6 0.000000 0.000000 0.000000 -0.062382 0.000000 0.091744
#
#
# Mechanical properties :
#
#
# Convention : Reuss Voigt Hill
#
# Bulk Modulus (GPa) = 33.80383 54.78293 44.29338
# Shear Modulus (GPa) = 16.63108 29.78541 23.20825
#
# Velocity S-wave (km/s) = 2.81454 3.76660 3.32482
# Velocity P-wave (km/s) = 5.16367 6.70897 5.98639
#
# Compressibility (1/GPa) = 0.02958245
#
# Stress axis : x y z
#
# Youngs Moduli (GPa) = 107.44356 32.44829 118.98739
#
# Poissons Ratio (x) = 0.17771 0.22517
# Poissons Ratio (y) = 0.58843 0.25043
# Poissons Ratio (z) = 0.20332 0.06829
#
# Static dielectric constant tensor:
#      x y z
#    x 2.969600 0.000000 -0.054750 
#    y 0.000000 1.702690 0.000000 
#    z -0.054750 0.000000 1.847540 
# 
# From -- ./inp_files/30752.got.cif
#   From: 2010.05.17/outbox.cif.g08.bks.cpg/sg15_16_cif.got.tgz:30752.got - 2010.06.03 18:47:42.
