data_PCOD9288344
_publ_section_title
;
Structure prediction by ZEFSAII (Michael W. Deem and Ramdas Pophale) SiO2 
 PCOD9288344
Probable space group: C 2/C
;
_chemical_formula_sum "Si O2"
_cell_formula_units_Z 44
_cell_length_a 14.961459
_cell_length_b 22.227244
_cell_length_c 5.304970
_cell_angle_alpha 90.000000
_cell_angle_beta 97.577441
_cell_angle_gamma 90.000000
_cell_volume 1748.772759
_symmetry_space_group_name_H-M "C 2/C"
_symmetry_group_IT_number 15
_symmetry_cell_setting 'monoclinic'
loop_
_space_group_symop_operation_xyz
x,y,z
-x,y,1/2-z
-x,-y,-z
x,-y,1/2+z
1/2+x,1/2+y,z
1/2-x,1/2+y,1/2-z
1/2-x,1/2-y,-z
1/2+x,1/2-y,1/2+z
loop_
_atom_site_type_symbol
_atom_site_label
_atom_site_fract_x
_atom_site_fract_y
_atom_site_fract_z
Si Si1 0.500000 0.653017 0.750000
Si Si2 0.655658 0.673731 0.499541
Si Si3 0.407294 0.436649 0.827716
Si Si4 0.338701 0.207522 0.778484
Si Si5 0.401334 0.147912 0.291960
Si Si6 0.287438 0.968833 0.633917
O O1 0.563377 0.691942 0.598737
O O2 0.440808 0.609675 0.552850
O O3 0.635712 0.606650 0.400722
O O4 0.671895 0.721914 0.286094
O O5 0.739897 0.678224 0.714503
O O6 0.500000 0.465579 0.750000
O O7 0.322108 0.471604 0.905014
O O8 0.393194 0.176110 0.567752
O O9 0.378020 0.195653 0.065280
O O10 0.500000 0.124430 0.250000
O O11 0.327444 0.095229 0.231203
O O12 0.318224 0.985618 0.364998
#
# Coordination Sequence:
#
# PCOD9288344 Si02
#       6
#     4   8   8   8   8   8
#     4  10  22  38  68  98 154 174 230 268 346 410
#     4  10  23  40  68 105 146 192 225 270 339 417
#     4  10  23  42  67 102 141 182 225 282 343 423
#     4  11  25  43  73 103 146 187 230 275 340 416
#     4  12  27  47  72 104 140 180 236 294 345 412
#     4  12  28  48  74  97 132 178 235 300 358 408
#
# _framework density 25.160499000000002
#
# number of rings (size 3 to 8) (size 9 to 14) (size 15 to 20)
#    0.000    1.091    1.818    2.727    8.909    5.818 
#    0.000    0.000    0.000    0.000    0.000    0.000 
#    0.000    0.000    0.000    0.000    0.000    0.000 
#
# Total GULP energy -123292.634832 kJ/mol
# GULP energy per Si atom -5604.210674 kJ/mol
# Density = 2.510323 g / cm^3
# Si number density = 25.160499 Si / 1000 Ang^3
#
#
#
# Elastic Constant Matrix: (Units=GPa)
#
#
# Indices 1 2 3 4 5 6 
#
# 1 97.8018 11.9587 19.5471 0.0000 -8.1529 0.0000
# 2 11.9587 59.0939 16.2649 0.0000 6.4234 0.0000
# 3 19.5471 16.2649 97.8643 0.0000 -0.0502 0.0000
# 4 0.0000 0.0000 0.0000 23.3178 0.0000 -1.0618
# 5 -8.1529 6.4234 -0.0502 0.0000 24.5324 0.0000
# 6 0.0000 0.0000 0.0000 -1.0618 0.0000 21.2793
#
#
#
# Elastic Compliance Matrix: (Units=1/GPa)
#
#
# Indices 1 2 3 4 5 6 
#
# 1 0.011230 -0.002226 -0.001871 0.000000 0.004311 0.000000
# 2 -0.002226 0.018721 -0.002670 0.000000 -0.005647 0.000000
# 3 -0.001871 -0.002670 0.011036 0.000000 0.000100 0.000000
# 4 0.000000 0.000000 0.000000 0.042983 0.000000 0.002145
# 5 0.004311 -0.005647 0.000100 0.000000 0.043674 0.000000
# 6 0.000000 0.000000 0.000000 0.002145 0.000000 0.047101
#
#
# Mechanical properties :
#
#
# Convention : Reuss Voigt Hill
#
# Bulk Modulus (GPa) = 36.42514 38.92237 37.67376
# Shear Modulus (GPa) = 25.32530 27.62517 26.47523
#
# Velocity S-wave (km/s) = 3.17606 3.31714 3.24737
# Velocity P-wave (km/s) = 5.28757 5.49313 5.39133
#
# Compressibility (1/GPa) = 0.02745356
#
# Stress axis : x y z
#
# Youngs Moduli (GPa) = 89.04474 53.41478 90.61537
#
# Poissons Ratio (x) = 0.11892 0.16953
# Poissons Ratio (y) = 0.19825 0.24191
# Poissons Ratio (z) = 0.16659 0.14260
#
# Static dielectric constant tensor:
#      x y z
#    x 2.020250 0.000000 -0.039500 
#    y 0.000000 1.932220 0.000000 
#    z -0.039500 0.000000 1.975480 
# 
# From -- ./inp_files/7621.got.cif
#   From: 2010.05.17/outbox.cif.g08.bks.cpg/sg15_4_cif.got.tgz:7621.got - 2010.06.03 18:47:42.
