data_PCOD9288584
_publ_section_title
;
Structure prediction by ZEFSAII (Michael W. Deem and Ramdas Pophale) SiO2 
 PCOD9288584
Probable space group: C 2/C
;
_chemical_formula_sum "Si O2"
_cell_formula_units_Z 32
_cell_length_a 25.720184
_cell_length_b 5.081432
_cell_length_c 20.312997
_cell_angle_alpha 90.000000
_cell_angle_beta 144.770903
_cell_angle_gamma 90.000000
_cell_volume 1531.422407
_symmetry_space_group_name_H-M "C 2/C"
_symmetry_group_IT_number 15
_symmetry_cell_setting 'monoclinic'
loop_
_space_group_symop_operation_xyz
x,y,z
-x,y,1/2-z
-x,-y,-z
x,-y,1/2+z
1/2+x,1/2+y,z
1/2-x,1/2+y,1/2-z
1/2-x,1/2-y,-z
1/2+x,1/2-y,1/2+z
loop_
_atom_site_type_symbol
_atom_site_label
_atom_site_fract_x
_atom_site_fract_y
_atom_site_fract_z
Si Si1 0.441243 0.916965 0.252355
Si Si2 0.359068 0.407124 0.218395
Si Si3 0.720667 0.274686 0.679265
Si Si4 0.981771 0.668853 0.045583
O O1 0.500000 0.850599 0.250000
O O2 0.371397 0.692798 0.201241
O O3 0.386708 0.191161 0.192314
O O4 0.509988 0.972529 0.383612
O O5 0.269055 0.328354 0.163164
O O6 0.437072 0.370010 0.355062
O O7 0.737121 0.046496 0.750883
O O8 0.614758 0.302219 0.558239
O O9 0.000000 0.500000 0.000000
#
# Coordination Sequence:
#
# PCOD9288584 Si02
#       4
#     8   8   8   8
#     4  10  22  42  63  84 124 167 199 245 303 357
#     4  10  22  39  62  87 123 156 205 242 300 356
#     4  12  23  36  61  93 127 154 196 253 308 356
#     4  10  22  40  63  91 123 155 204 249 307 349
#
# _framework density 20.895606000000001
#
# number of rings (size 3 to 8) (size 9 to 14) (size 15 to 20)
#    1.500    0.000    2.500    3.750    3.500    2.000 
#    0.000    2.500    0.000    0.000    0.000    0.000 
#    0.000    0.000    0.000    0.000    0.000    0.000 
#
# Total GULP energy -89291.627801 kJ/mol
# GULP energy per Si atom -5580.726738 kJ/mol
# Density = 2.084805 g / cm^3
# Si number density = 20.895606 Si / 1000 Ang^3
#
#
#
# Elastic Constant Matrix: (Units=GPa)
#
#
# Indices 1 2 3 4 5 6 
#
# 1 88.6203 -23.9361 6.9587 -0.0002 -4.6668 0.0001
# 2 -23.9361 69.2257 -5.4549 0.0018 -8.0693 0.0007
# 3 6.9587 -5.4549 28.8604 0.0007 14.8983 -0.0001
# 4 -0.0002 0.0018 0.0007 0.4289 -0.0002 -0.2621
# 5 -4.6668 -8.0693 14.8983 -0.0002 34.9230 0.0000
# 6 0.0001 0.0007 -0.0001 -0.2621 0.0000 32.3743
#
#
#
# Elastic Compliance Matrix: (Units=1/GPa)
#
#
# Indices 1 2 3 4 5 6 
#
# 1 0.013208 0.004761 -0.004827 -0.000003 0.004924 0.000000
# 2 0.004761 0.016601 -0.000409 -0.000063 0.004646 -0.000001
# 3 -0.004827 -0.000409 0.046318 -0.000080 -0.020499 0.000000
# 4 -0.000003 -0.000063 -0.000080 2.343308 0.000031 0.018972
# 5 0.004924 0.004646 -0.020499 0.000031 0.039111 0.000000
# 6 0.000000 -0.000001 0.000000 0.018972 0.000000 0.031042
#
#
# Mechanical properties :
#
#
# Convention : Reuss Voigt Hill
#
# Bulk Modulus (GPa) = 13.30182 15.76020 14.53101
# Shear Modulus (GPa) = 1.98760 27.48781 14.73770
#
# Velocity S-wave (km/s) = 0.97636 3.63089 2.65863
# Velocity P-wave (km/s) = 2.76599 5.01364 4.04890
#
# Compressibility (1/GPa) = 0.07517769
#
# Stress axis : x y z
#
# Youngs Moduli (GPa) = 75.71018 60.23739 21.58978
#
# Poissons Ratio (x) = -0.28677 0.10421
# Poissons Ratio (y) = -0.36043 0.00882
# Poissons Ratio (z) = 0.36544 0.02462
#
# Static dielectric constant tensor:
#      x y z
#    x 1.734290 0.000000 -0.014330 
#    y 0.000000 1.755460 0.000000 
#    z -0.014330 0.000000 1.748440 
# 
# From -- ./inp_files/120443.got.cif
#   From: 2010.05.17/outbox.cif.g08.bks.cpg/sg15_61_cif.got.tgz:120443.got - 2010.06.03 18:47:42.
