data_PCOD9288266
_publ_section_title
;
Structure prediction by ZEFSAII (Michael W. Deem and Ramdas Pophale) SiO2 
 PCOD9288266
Probable space group: C 2/C
;
_chemical_formula_sum "Si O2"
_cell_formula_units_Z 44
_cell_length_a 10.556741
_cell_length_b 22.098437
_cell_length_c 9.745913
_cell_angle_alpha 90.000000
_cell_angle_beta 58.547538
_cell_angle_gamma 90.000000
_cell_volume 1939.547174
_symmetry_space_group_name_H-M "C 2/C"
_symmetry_group_IT_number 15
_symmetry_cell_setting 'monoclinic'
loop_
_space_group_symop_operation_xyz
x,y,z
-x,y,1/2-z
-x,-y,-z
x,-y,1/2+z
1/2+x,1/2+y,z
1/2-x,1/2+y,1/2-z
1/2-x,1/2-y,-z
1/2+x,1/2-y,1/2+z
loop_
_atom_site_type_symbol
_atom_site_label
_atom_site_fract_x
_atom_site_fract_y
_atom_site_fract_z
Si Si1 0.608430 0.990760 0.568275
Si Si2 0.000000 0.705344 0.250000
Si Si3 0.188701 0.791852 0.282841
Si Si4 0.838211 0.371771 0.415532
Si Si5 0.643793 0.328203 0.766009
Si Si6 0.778487 0.127382 0.999822
O O1 0.500000 0.969168 0.750000
O O2 0.672989 0.055721 0.575028
O O3 0.500000 0.000000 0.500000
O O4 0.733380 0.939985 0.480906
O O5 0.046605 0.748859 0.348779
O O6 0.132767 0.663524 0.130004
O O7 0.222008 0.835118 0.389490
O O8 0.319377 0.741232 0.214474
O O9 0.176418 0.834682 0.158005
O O10 0.789106 0.351187 0.596548
O O11 0.000000 0.359902 0.250000
O O12 0.500000 0.331666 0.750000
O O13 0.624722 0.367081 0.916491
#
# Coordination Sequence:
#
# PCOD9288266 Si02
#       6
#     8   4   8   8   8   8
#     4  11  22  40  69  97 134 170 230 285 332 391
#     4  10  22  38  66  94 130 172 220 274 344 386
#     4  11  25  39  68  95 137 171 233 276 347 402
#     4  11  25  41  68 104 134 176 225 283 336 394
#     4  11  25  43  66  95 141 184 220 277 348 410
#     4  11  23  42  68  96 132 179 235 279 336 404
#
# _framework density 22.685708999999999
#
# number of rings (size 3 to 8) (size 9 to 14) (size 15 to 20)
#    0.000    1.091    0.909    6.545   12.727    0.000 
#    0.000    0.909    4.000    0.000    0.000    0.000 
#    0.000    0.000    0.000    0.000    0.000    0.000 
#
# Total GULP energy -122832.898107 kJ/mol
# GULP energy per Si atom -5583.313550 kJ/mol
# Density = 2.263408 g / cm^3
# Si number density = 22.685709 Si / 1000 Ang^3
#
#
#
# Elastic Constant Matrix: (Units=GPa)
#
#
# Indices 1 2 3 4 5 6 
#
# 1 83.4559 44.1199 -0.0693 0.0000 23.1032 0.0000
# 2 44.1199 146.8523 20.7309 0.0000 11.7879 0.0000
# 3 -0.0693 20.7309 98.7613 0.0000 5.8816 0.0000
# 4 0.0000 0.0000 0.0000 26.1112 0.0000 24.8155
# 5 23.1032 11.7879 5.8816 0.0000 43.6070 0.0000
# 6 0.0000 0.0000 0.0000 24.8155 0.0000 -23.6986
#
#
#
# Elastic Compliance Matrix: (Units=1/GPa)
#
#
# Indices 1 2 3 4 5 6 
#
# 1 0.016523 -0.004546 0.001425 0.000000 -0.007717 0.000000
# 2 -0.004546 0.008397 -0.001788 0.000000 0.000380 0.000000
# 3 0.001425 -0.001788 0.010603 0.000000 -0.001702 0.000000
# 4 0.000000 0.000000 0.000000 0.019195 0.000000 0.020100
# 5 -0.007717 0.000380 -0.001702 0.000000 0.027148 0.000000
# 6 0.000000 0.000000 0.000000 0.020100 0.000000 -0.021149
#
#
# Mechanical properties :
#
#
# Convention : Reuss Voigt Hill
#
# Bulk Modulus (GPa) = 38.90174 50.95919 44.93046
# Shear Modulus (GPa) = 63.20799 26.82313 45.01556
#
# Velocity S-wave (km/s) = 5.28422 3.44231 4.45940
# Velocity P-wave (km/s) = 7.37672 6.18960 6.80908
#
# Compressibility (1/GPa) = 0.02570579
#
# Stress axis : x y z
#
# Youngs Moduli (GPa) = 60.52080 119.08549 94.31118
#
# Poissons Ratio (x) = 0.54136 -0.13443
# Poissons Ratio (y) = 0.27512 0.16867
# Poissons Ratio (z) = -0.08627 0.21298
#
# Static dielectric constant tensor:
#      x y z
#    x 1.884370 0.000000 0.003300 
#    y 0.000000 1.806850 0.000000 
#    z 0.003300 0.000000 1.914640 
# 
# From -- ./inp_files/30734.got.cif
#   From: 2010.05.17/outbox.cif.g08.bks.cpg/sg15_16_cif.got.tgz:30734.got - 2010.06.03 18:47:42.
