data_PCOD9288793
_publ_section_title
;
Structure prediction by ZEFSAII (Michael W. Deem and Ramdas Pophale) SiO2 
 PCOD9288793
Probable space group: C 2/C
;
_chemical_formula_sum "Si O2"
_cell_formula_units_Z 48
_cell_length_a 9.731085
_cell_length_b 15.346634
_cell_length_c 16.329991
_cell_angle_alpha 90.000000
_cell_angle_beta 79.338954
_cell_angle_gamma 90.000000
_cell_volume 2396.615976
_symmetry_space_group_name_H-M "C 2/C"
_symmetry_group_IT_number 15
_symmetry_cell_setting 'monoclinic'
loop_
_space_group_symop_operation_xyz
x,y,z
-x,y,1/2-z
-x,-y,-z
x,-y,1/2+z
1/2+x,1/2+y,z
1/2-x,1/2+y,1/2-z
1/2-x,1/2-y,-z
1/2+x,1/2-y,1/2+z
loop_
_atom_site_type_symbol
_atom_site_label
_atom_site_fract_x
_atom_site_fract_y
_atom_site_fract_z
Si Si1 0.608755 0.834728 0.032495
Si Si2 0.166478 0.120150 0.732911
Si Si3 0.340157 0.515430 0.488257
Si Si4 0.743189 0.760252 0.857176
Si Si5 0.656723 0.564106 0.203564
Si Si6 0.786641 0.340154 0.042144
O O1 0.730231 0.909155 0.030988
O O2 0.643328 0.782756 0.944770
O O3 0.618696 0.769644 0.108675
O O4 0.449611 0.861947 0.039351
O O5 0.201733 0.182833 0.803005
O O6 0.216740 0.157070 0.640097
O O7 0.000000 0.110670 0.750000
O O8 0.220642 0.021213 0.739287
O O9 0.500000 0.500000 0.500000
O O10 0.349872 0.538326 0.391138
O O11 0.271404 0.420810 0.503797
O O12 0.759243 0.846849 0.802173
O O13 0.500000 0.580734 0.250000
O O14 0.750000 0.250000 0.000000
#
# Coordination Sequence:
#
# PCOD9288793 Si02
#       6
#     8   8   8   8   8   8
#     4  10  23  40  64  95 130 167 217 274 319 387
#     4  10  22  40  62  90 129 167 209 266 319 386
#     4  10  23  40  65  91 125 171 212 260 328 382
#     4  10  22  39  65  90 131 165 210 266 332 369
#     4   9  21  37  60  87 122 159 214 255 307 383
#     4  11  24  39  64  96 128 165 221 266 323 383
#
# _framework density 20.028238999999999
#
# number of rings (size 3 to 8) (size 9 to 14) (size 15 to 20)
#    0.000    2.000    0.000    1.500   16.333    0.000 
#    0.000    0.000    0.000    0.000    0.000    0.000 
#    0.000    0.000    0.000    0.000    0.000    0.000 
#
# Total GULP energy -133759.883409 kJ/mol
# GULP energy per Si atom -5573.328475 kJ/mol
# Density = 1.998265 g / cm^3
# Si number density = 20.028239 Si / 1000 Ang^3
#
#
#
# Elastic Constant Matrix: (Units=GPa)
#
#
# Indices 1 2 3 4 5 6 
#
# 1 107.9989 46.7428 13.6412 0.0000 3.8774 0.0000
# 2 46.7428 160.6517 52.0671 0.0000 8.9485 0.0000
# 3 13.6412 52.0671 52.2546 0.0000 -4.3553 0.0000
# 4 0.0000 0.0000 0.0000 23.5433 0.0000 9.1153
# 5 3.8774 8.9485 -4.3553 0.0000 17.3725 0.0000
# 6 0.0000 0.0000 0.0000 9.1153 0.0000 25.7991
#
#
#
# Elastic Compliance Matrix: (Units=1/GPa)
#
#
# Indices 1 2 3 4 5 6 
#
# 1 0.010607 -0.003152 0.000316 0.000000 -0.000665 0.000000
# 2 -0.003152 0.011100 -0.010883 0.000000 -0.007742 0.000000
# 3 0.000316 -0.010883 0.031008 0.000000 0.013309 0.000000
# 4 0.000000 0.000000 0.000000 0.049206 0.000000 -0.017385
# 5 -0.000665 -0.007742 0.013309 0.000000 0.065035 0.000000
# 6 0.000000 0.000000 0.000000 -0.017385 0.000000 0.044904
#
#
# Mechanical properties :
#
#
# Convention : Reuss Voigt Hill
#
# Bulk Modulus (GPa) = 39.56037 60.64527 50.10282
# Shear Modulus (GPa) = 20.18386 27.23993 23.71189
#
# Velocity S-wave (km/s) = 3.17798 3.69192 3.44455
# Velocity P-wave (km/s) = 5.76726 6.96558 6.39455
#
# Compressibility (1/GPa) = 0.02527782
#
# Stress axis : x y z
#
# Youngs Moduli (GPa) = 94.27402 90.09033 32.25024
#
# Poissons Ratio (x) = 0.28393 -0.01018
# Poissons Ratio (y) = 0.29711 0.35097
# Poissons Ratio (z) = -0.02977 0.98043
#
# Static dielectric constant tensor:
#      x y z
#    x 1.741170 0.000000 -0.008580 
#    y 0.000000 1.804470 0.000000 
#    z -0.008580 0.000000 1.701330 
# 
# From -- ./inp_files/189256.got.cif
#   From: 2010.05.17/outbox.cif.g08.bks.cpg/sg15_95_cif.got.tgz:189256.got - 2010.06.03 18:47:42.
