data_PCOD9288764
_publ_section_title
;
Structure prediction by ZEFSAII (Michael W. Deem and Ramdas Pophale) SiO2 
 PCOD9288764
Probable space group: C 2/C
;
_chemical_formula_sum "Si O2"
_cell_formula_units_Z 56
_cell_length_a 22.795151
_cell_length_b 5.303981
_cell_length_c 21.618184
_cell_angle_alpha 90.000000
_cell_angle_beta 112.729740
_cell_angle_gamma 90.000000
_cell_volume 2410.757808
_symmetry_space_group_name_H-M "C 2/C"
_symmetry_group_IT_number 15
_symmetry_cell_setting 'monoclinic'
loop_
_space_group_symop_operation_xyz
x,y,z
-x,y,1/2-z
-x,-y,-z
x,-y,1/2+z
1/2+x,1/2+y,z
1/2-x,1/2+y,1/2-z
1/2-x,1/2-y,-z
1/2+x,1/2-y,1/2+z
loop_
_atom_site_type_symbol
_atom_site_label
_atom_site_fract_x
_atom_site_fract_y
_atom_site_fract_z
Si Si1 0.176790 0.307225 0.270623
Si Si2 0.728773 0.853876 0.895613
Si Si3 0.846499 0.836360 0.471535
Si Si4 0.622037 0.182326 0.445910
Si Si5 0.448435 0.466324 0.783770
Si Si6 0.192031 0.539766 0.150703
Si Si7 0.504207 0.038093 0.177138
O O1 0.185872 0.530289 0.323411
O O2 0.119865 0.125292 0.268073
O O3 0.162195 0.394486 0.195539
O O4 0.245602 0.177595 0.296916
O O5 0.681843 0.744139 0.927259
O O6 0.778046 0.655817 0.886624
O O7 0.772357 0.076033 0.941835
O O8 0.862476 0.590965 0.518484
O O9 0.852178 0.737044 0.403316
O O10 0.884581 0.083973 0.509303
O O11 0.560517 0.136854 0.378805
O O12 0.500000 0.499503 0.750000
O O13 0.445486 0.739105 0.813178
O O14 0.476100 0.239608 0.836733
O O15 0.500000 0.003290 0.250000
#
# Coordination Sequence:
#
# PCOD9288764 Si02
#       7
#     8   8   8   8   8   8   8
#     4  11  24  40  68  99 143 175 222 281 339 401
#     4  11  23  39  65 100 136 174 224 269 344 403
#     4  11  25  42  62  98 136 183 221 264 338 413
#     4  12  24  40  69  93 140 173 217 288 332 396
#     4  10  22  39  64  95 130 165 218 276 338 385
#     4  11  24  41  64 102 136 182 220 265 341 416
#     4  10  22  40  61  97 124 164 219 273 344 383
#
# _framework density 23.229209000000001
#
# number of rings (size 3 to 8) (size 9 to 14) (size 15 to 20)
#    0.000    1.143    2.857    3.429   10.000    0.000 
#    0.000    0.000    0.000    5.143    0.000    0.000 
#    0.000    0.000    0.000    0.000    0.000    0.000 
#
# Total GULP energy -156498.696524 kJ/mol
# GULP energy per Si atom -5589.239162 kJ/mol
# Density = 2.317634 g / cm^3
# Si number density = 23.229209 Si / 1000 Ang^3
#
#
#
# Elastic Constant Matrix: (Units=GPa)
#
#
# Indices 1 2 3 4 5 6 
#
# 1 37.1954 4.9251 19.3263 0.0010 0.6551 -0.0015
# 2 4.9251 144.4360 35.5613 0.0034 -2.6030 -0.0050
# 3 19.3263 35.5613 102.7366 0.0012 18.5659 -0.0020
# 4 0.0010 0.0034 0.0012 23.1054 -0.0001 12.5981
# 5 0.6551 -2.6030 18.5659 -0.0001 20.8544 0.0003
# 6 -0.0015 -0.0050 -0.0020 12.5981 0.0003 7.0485
#
#
#
# Elastic Compliance Matrix: (Units=1/GPa)
#
#
# Indices 1 2 3 4 5 6 
#
# 1 0.030287 0.000767 -0.006922 -0.000143 0.005307 0.000260
# 2 0.000767 0.007865 -0.003622 -0.000135 0.004182 0.000246
# 3 -0.006922 -0.003622 0.014696 -0.000016 -0.013318 0.000029
# 4 -0.000143 -0.000135 -0.000016 1.700300 0.000060 -3.039026
# 5 0.005307 0.004182 -0.013318 0.000060 0.060164 -0.000110
# 6 0.000260 0.000246 0.000029 -3.039026 -0.000110 5.573670
#
#
# Mechanical properties :
#
#
# Convention : Reuss Voigt Hill
#
# Bulk Modulus (GPa) = 30.03608 44.88816 37.46212
# Shear Modulus (GPa) = 0.67407 25.17201 12.92304
#
# Velocity S-wave (km/s) = 0.53927 3.29543 2.36122
# Velocity P-wave (km/s) = 3.65323 5.81772 4.85757
#
# Compressibility (1/GPa) = 0.03329329
#
# Stress axis : x y z
#
# Youngs Moduli (GPa) = 33.01799 127.15257 68.04386
#
# Poissons Ratio (x) = -0.09754 0.47099
# Poissons Ratio (y) = -0.02533 0.24648
# Poissons Ratio (z) = 0.22855 0.46059
#
# Static dielectric constant tensor:
#      x y z
#    x 2.018480 0.000000 -0.245100 
#    y 0.000000 1.949660 0.000000 
#    z -0.245100 0.000000 2.263680 
# 
# From -- ./inp_files/256605.got.cif
#   From: 2010.05.17/outbox.cif.g08.bks.cpg/sg15_129_cif.got.tgz:256605.got - 2010.06.03 18:47:42.
