data_PCOD9288398
_publ_section_title
;
Structure prediction by ZEFSAII (Michael W. Deem and Ramdas Pophale) SiO2 
 PCOD9288398
Probable space group: C 2/C
;
_chemical_formula_sum "Si O2"
_cell_formula_units_Z 48
_cell_length_a 16.266543
_cell_length_b 28.182606
_cell_length_c 15.907926
_cell_angle_alpha 90.000000
_cell_angle_beta 161.599603
_cell_angle_gamma 90.000000
_cell_volume 2301.990311
_symmetry_space_group_name_H-M "C 2/C"
_symmetry_group_IT_number 15
_symmetry_cell_setting 'monoclinic'
loop_
_space_group_symop_operation_xyz
x,y,z
-x,y,1/2-z
-x,-y,-z
x,-y,1/2+z
1/2+x,1/2+y,z
1/2-x,1/2+y,1/2-z
1/2-x,1/2-y,-z
1/2+x,1/2-y,1/2+z
loop_
_atom_site_type_symbol
_atom_site_label
_atom_site_fract_x
_atom_site_fract_y
_atom_site_fract_z
Si Si1 0.200908 0.366280 0.727876
Si Si2 0.737614 0.453119 0.044010
Si Si3 0.723090 0.637883 0.641865
Si Si4 0.734694 0.021252 0.282736
Si Si5 0.026117 0.281243 0.674854
Si Si6 0.542092 0.730145 0.389195
O O1 0.214229 0.421994 0.763945
O O2 0.003077 0.362629 0.457017
O O3 0.093051 0.330085 0.692707
O O4 0.495370 0.353303 0.988310
O O5 0.676243 0.411952 0.051207
O O6 0.783698 0.500546 0.141568
O O7 0.000000 0.439614 0.250000
O O8 0.500000 0.458015 0.750000
O O9 0.675489 0.679369 0.528496
O O10 0.000000 0.000000 0.500000
O O11 0.500000 0.000000 0.000000
O O12 0.759878 0.256258 0.387378
O O13 0.000000 0.289312 0.750000
O O14 0.500000 0.741404 0.250000
O O15 0.746413 0.764621 0.633941
#
# Coordination Sequence:
#
# PCOD9288398 Si02
#       6
#     8   8   8   8   8   8
#     4  12  24  41  70  97 128 178 221 267 344 407
#     4  12  25  42  67  97 128 172 223 268 331 404
#     4  12  24  40  64  96 130 171 217 275 327 396
#     4  12  23  46  67  93 137 177 217 284 345 397
#     4  10  23  44  68  98 139 176 220 285 346 403
#     4  10  22  39  57  84 125 170 212 263 317 370
#
# _framework density 20.851521000000002
#
# number of rings (size 3 to 8) (size 9 to 14) (size 15 to 20)
#    0.000    0.667    3.333    4.500    0.000    6.667 
#    0.000    2.500    0.000    0.000    0.000    0.000 
#    0.000    0.000    0.000    0.000    0.000    0.000 
#
# Total GULP energy -134179.501479 kJ/mol
# GULP energy per Si atom -5590.812562 kJ/mol
# Density = 2.080406 g / cm^3
# Si number density = 20.851521 Si / 1000 Ang^3
#
#
#
# Elastic Constant Matrix: (Units=GPa)
#
#
# Indices 1 2 3 4 5 6 
#
# 1 59.3093 35.2635 21.5909 -0.0006 7.4960 0.0032
# 2 35.2635 127.8472 35.9773 0.0001 -0.6213 0.0019
# 3 21.5909 35.9773 136.5917 0.0058 2.6690 0.0123
# 4 -0.0006 0.0001 0.0058 31.2536 0.0004 -6.0059
# 5 7.4960 -0.6213 2.6690 0.0004 29.7631 0.0040
# 6 0.0032 0.0019 0.0123 -6.0059 0.0040 61.9281
#
#
#
# Elastic Compliance Matrix: (Units=1/GPa)
#
#
# Indices 1 2 3 4 5 6 
#
# 1 0.021432 -0.005415 -0.001857 0.000001 -0.005344 0.000000
# 2 -0.005415 0.009820 -0.001764 0.000000 0.001727 0.000000
# 3 -0.001857 -0.001764 0.008085 -0.000002 -0.000294 -0.000002
# 4 0.000001 0.000000 -0.000002 0.032604 -0.000001 0.003162
# 5 -0.005344 0.001727 -0.000294 -0.000001 0.035007 -0.000002
# 6 0.000000 0.000000 -0.000002 0.003162 -0.000002 0.016454
#
#
# Mechanical properties :
#
#
# Convention : Reuss Voigt Hill
#
# Bulk Modulus (GPa) = 47.02652 56.60128 51.81390
# Shear Modulus (GPa) = 33.65568 39.98338 36.81953
#
# Velocity S-wave (km/s) = 4.02190 4.38371 4.20670
# Velocity P-wave (km/s) = 6.64602 7.26818 6.96405
#
# Compressibility (1/GPa) = 0.02126460
#
# Stress axis : x y z
#
# Youngs Moduli (GPa) = 46.65977 101.82988 123.68409
#
# Poissons Ratio (x) = 0.55139 0.22969
# Poissons Ratio (y) = 0.25265 0.21823
# Poissons Ratio (z) = 0.08665 0.17967
#
# Static dielectric constant tensor:
#      x y z
#    x 1.783630 0.000000 0.066180 
#    y 0.000000 1.759430 0.000000 
#    z 0.066180 0.000000 1.761080 
# 
# From -- ./inp_files/157734.got.cif
#   From: 2010.05.17/outbox.cif.g08.bks.cpg/sg15_79_cif.got.tgz:157734.got - 2010.06.03 18:47:42.
