data_PCOD9288642
_publ_section_title
;
Structure prediction by ZEFSAII (Michael W. Deem and Ramdas Pophale) SiO2 
 PCOD9288642
Probable space group: C 2/C
;
_chemical_formula_sum "Si O2"
_cell_formula_units_Z 56
_cell_length_a 13.134505
_cell_length_b 15.361631
_cell_length_c 23.460722
_cell_angle_alpha 90.000000
_cell_angle_beta 33.136180
_cell_angle_gamma 90.000000
_cell_volume 2587.536835
_symmetry_space_group_name_H-M "C 2/C"
_symmetry_group_IT_number 15
_symmetry_cell_setting 'monoclinic'
loop_
_space_group_symop_operation_xyz
x,y,z
-x,y,1/2-z
-x,-y,-z
x,-y,1/2+z
1/2+x,1/2+y,z
1/2-x,1/2+y,1/2-z
1/2-x,1/2-y,-z
1/2+x,1/2-y,1/2+z
loop_
_atom_site_type_symbol
_atom_site_label
_atom_site_fract_x
_atom_site_fract_y
_atom_site_fract_z
Si Si1 0.365919 0.378247 0.965766
Si Si2 0.567511 0.231942 0.655563
Si Si3 0.293586 0.918230 0.242451
Si Si4 0.405206 0.968069 0.942372
Si Si5 0.666779 0.451490 0.891957
Si Si6 0.917475 0.124092 0.852031
Si Si7 0.615437 0.823596 0.637245
O O1 0.377798 0.317886 0.904861
O O2 0.576087 0.398883 0.882823
O O3 0.257037 0.324457 0.065205
O O4 0.241052 0.464072 0.017585
O O5 0.500000 0.251864 0.750000
O O6 0.408696 0.171126 0.699881
O O7 0.083723 0.902725 0.318018
O O8 0.409613 0.973713 0.141010
O O9 0.296713 0.976735 0.299588
O O10 0.458252 0.884799 0.878615
O O11 0.273501 0.930377 0.053469
O O12 0.720102 0.382039 0.915002
O O13 0.500000 0.500000 0.000000
O O14 0.000000 0.117791 0.750000
O O15 0.863797 0.224318 0.890131
O O16 0.500000 0.820586 0.750000
#
# Coordination Sequence:
#
# PCOD9288642 Si02
#       7
#     8   8   8   8   8   8   8
#     4  10  22  39  62  96 135 167 228 282 334 413
#     4  10  23  40  64  94 134 175 222 286 342 404
#     4  11  24  41  70  99 133 184 229 277 347 408
#     4  11  22  43  69  96 135 176 233 281 337 420
#     4  12  21  38  69 100 130 177 227 284 344 402
#     4  11  26  45  65  99 144 183 225 284 347 415
#     4  11  23  39  69 101 134 172 225 293 348 397
#
# _framework density 21.642202000000001
#
# number of rings (size 3 to 8) (size 9 to 14) (size 15 to 20)
#    0.000    1.143    4.286    1.286    6.000    1.143 
#    0.000    1.429    0.000    0.000    0.000    0.000 
#    0.000    0.000    0.000    0.000    0.000    0.000 
#
# Total GULP energy -156017.865953 kJ/mol
# GULP energy per Si atom -5572.066641 kJ/mol
# Density = 2.159294 g / cm^3
# Si number density = 21.642202 Si / 1000 Ang^3
#
#
#
# Elastic Constant Matrix: (Units=GPa)
#
#
# Indices 1 2 3 4 5 6 
#
# 1 33.9629 19.0046 7.2646 -0.0002 -4.8816 0.0000
# 2 19.0046 89.9441 29.6459 -0.0006 -6.4532 0.0000
# 3 7.2646 29.6459 115.3139 -0.0016 6.3654 0.0000
# 4 -0.0002 -0.0006 -0.0016 48.2168 0.0003 -0.4308
# 5 -4.8816 -6.4532 6.3654 0.0003 27.8201 0.0000
# 6 0.0000 0.0000 0.0000 -0.4308 0.0000 24.9940
#
#
#
# Elastic Compliance Matrix: (Units=1/GPa)
#
#
# Indices 1 2 3 4 5 6 
#
# 1 0.033953 -0.006618 -0.000690 0.000000 0.004581 0.000000
# 2 -0.006618 0.013799 -0.003285 0.000000 0.002791 0.000000
# 3 -0.000690 -0.003285 0.009732 0.000000 -0.003110 0.000000
# 4 0.000000 0.000000 0.000000 0.020743 0.000000 0.000357
# 5 0.004581 0.002791 -0.003110 0.000000 0.038108 0.000000
# 6 0.000000 0.000000 0.000000 0.000357 0.000000 0.040016
#
#
# Mechanical properties :
#
#
# Convention : Reuss Voigt Hill
#
# Bulk Modulus (GPa) = 27.54989 39.00569 33.27779
# Shear Modulus (GPa) = 26.36629 32.42658 29.39643
#
# Velocity S-wave (km/s) = 3.49418 3.87499 3.68950
# Velocity P-wave (km/s) = 5.38854 6.17113 5.79306
#
# Compressibility (1/GPa) = 0.03629779
#
# Stress axis : x y z
#
# Youngs Moduli (GPa) = 29.45233 72.46764 102.75780
#
# Poissons Ratio (x) = 0.47958 0.07095
# Poissons Ratio (y) = 0.19491 0.33754
# Poissons Ratio (z) = 0.02034 0.23804
#
# Static dielectric constant tensor:
#      x y z
#    x 1.841590 0.000000 -0.010610 
#    y 0.000000 1.903020 0.000000 
#    z -0.010610 0.000000 1.816900 
# 
# From -- ./inp_files/274455.got.cif
#   From: 2010.05.17/outbox.cif.g08.bks.cpg/sg15_138_cif.got.tgz:274455.got - 2010.06.03 18:47:42.
