data_PCOD9288830
_publ_section_title
;
Structure prediction by ZEFSAII (Michael W. Deem and Ramdas Pophale) SiO2 
 PCOD9288830
Probable space group: C 2/C
;
_chemical_formula_sum "Si O2"
_cell_formula_units_Z 52
_cell_length_a 5.697386
_cell_length_b 20.652909
_cell_length_c 22.542891
_cell_angle_alpha 90.000000
_cell_angle_beta 52.527453
_cell_angle_gamma 90.000000
_cell_volume 2105.196965
_symmetry_space_group_name_H-M "C 2/C"
_symmetry_group_IT_number 15
_symmetry_cell_setting 'monoclinic'
loop_
_space_group_symop_operation_xyz
x,y,z
-x,y,1/2-z
-x,-y,-z
x,-y,1/2+z
1/2+x,1/2+y,z
1/2-x,1/2+y,1/2-z
1/2-x,1/2-y,-z
1/2+x,1/2-y,1/2+z
loop_
_atom_site_type_symbol
_atom_site_label
_atom_site_fract_x
_atom_site_fract_y
_atom_site_fract_z
Si Si1 0.000000 0.105475 0.750000
Si Si2 0.702790 0.513432 0.823818
Si Si3 0.910546 0.056930 0.468429
Si Si4 0.500000 0.155935 0.250000
Si Si5 0.117960 0.806645 0.914740
Si Si6 0.373858 0.245276 0.090261
Si Si7 0.500000 0.673422 0.250000
Si Si8 0.406990 0.119861 0.887604
O O1 0.071933 0.058224 0.793252
O O2 0.277088 0.144881 0.683129
O O3 0.455979 0.470241 0.895087
O O4 0.823576 0.562263 0.855731
O O5 0.000000 0.481740 0.750000
O O6 0.617162 0.088680 0.542895
O O7 0.127066 0.118691 0.434552
O O8 0.000000 0.000000 0.500000
O O9 0.682359 0.197208 0.174399
O O10 0.232085 0.129567 0.250487
O O11 0.789260 0.789869 0.940957
O O12 0.292507 0.766799 0.937582
O O13 0.180014 0.217736 0.175803
O O14 0.313810 0.320697 0.087277
#
# Coordination Sequence:
#
# PCOD9288830 Si02
#       8
#     4   8   8   4   8   8   4   8
#     4  10  22  41  69 104 132 183 243 300 362 424
#     4   9  21  43  67  98 133 181 240 296 356 426
#     4  10  23  47  67  97 140 188 241 294 357 420
#     4   8  16  33  56  87 126 167 219 262 340 396
#     4  10  22  42  64 101 139 185 227 289 353 425
#     4  10  22  39  66 100 143 177 231 284 359 430
#     4   8  16  30  53  87 124 172 208 272 326 408
#     4  10  23  40  67 102 135 184 230 295 363 433
#
# _framework density 24.700776000000001
#
# number of rings (size 3 to 8) (size 9 to 14) (size 15 to 20)
#    0.000    2.462    0.000    0.000    6.462    4.308 
#   13.846    0.769    0.000    0.000    0.000    0.000 
#    0.000    0.000    0.000    0.000    0.000    0.000 
#
# Total GULP energy -144915.681012 kJ/mol
# GULP energy per Si atom -5573.680039 kJ/mol
# Density = 2.464456 g / cm^3
# Si number density = 24.700776 Si / 1000 Ang^3
#
#
#
# Elastic Constant Matrix: (Units=GPa)
#
#
# Indices 1 2 3 4 5 6 
#
# 1 156.5484 24.6108 36.4098 0.0000 -0.9423 0.0000
# 2 24.6108 89.3477 46.6976 0.0000 -5.7698 0.0000
# 3 36.4098 46.6976 146.4746 0.0000 7.9476 0.0000
# 4 0.0000 0.0000 0.0000 -19.1818 0.0000 -3.6846
# 5 -0.9423 -5.7698 7.9476 0.0000 35.8693 0.0000
# 6 0.0000 0.0000 0.0000 -3.6846 0.0000 25.7823
#
#
#
# Elastic Compliance Matrix: (Units=1/GPa)
#
#
# Indices 1 2 3 4 5 6 
#
# 1 0.006889 -0.001170 -0.001355 0.000000 0.000293 0.000000
# 2 -0.001170 0.013989 -0.004342 0.000000 0.003181 0.000000
# 3 -0.001355 -0.004342 0.008692 0.000000 -0.002660 0.000000
# 4 0.000000 0.000000 0.000000 -0.050740 0.000000 -0.007251
# 5 0.000293 0.003181 -0.002660 0.000000 0.028988 0.000000
# 6 0.000000 0.000000 0.000000 -0.007251 0.000000 0.037750
#
#
# Mechanical properties :
#
#
# Convention : Reuss Voigt Hill
#
# Bulk Modulus (GPa) = 63.14634 67.53411 65.34022
# Shear Modulus (GPa) = 77.42191 27.47080 52.44635
#
# Velocity S-wave (km/s) = 5.60464 3.33850 4.61289
# Velocity P-wave (km/s) = 8.21600 6.50085 7.40823
#
# Compressibility (1/GPa) = 0.01583623
#
# Stress axis : x y z
#
# Youngs Moduli (GPa) = 145.16469 71.48379 115.04228
#
# Poissons Ratio (x) = 0.08366 0.15590
# Poissons Ratio (y) = 0.16989 0.49947
# Poissons Ratio (z) = 0.19672 0.31035
#
# Static dielectric constant tensor:
#      x y z
#    x 1.966870 0.000000 -0.059380 
#    y 0.000000 1.935350 0.000000 
#    z -0.059380 0.000000 2.028360 
# 
# From -- ./inp_files/228081.got.cif
#   From: 2010.05.17/outbox.cif.g08.bks.cpg/sg15_115_cif.got.tgz:228081.got - 2010.06.03 18:47:42.
