data_PCOD9288889
_publ_section_title
;
Structure prediction by ZEFSAII (Michael W. Deem and Ramdas Pophale) SiO2 
 PCOD9288889
Probable space group: C 2/C
;
_chemical_formula_sum "Si O2"
_cell_formula_units_Z 44
_cell_length_a 5.311931
_cell_length_b 27.039880
_cell_length_c 13.724572
_cell_angle_alpha 90.000000
_cell_angle_beta 117.945949
_cell_angle_gamma 90.000000
_cell_volume 1741.439997
_symmetry_space_group_name_H-M "C 2/C"
_symmetry_group_IT_number 15
_symmetry_cell_setting 'monoclinic'
loop_
_space_group_symop_operation_xyz
x,y,z
-x,y,1/2-z
-x,-y,-z
x,-y,1/2+z
1/2+x,1/2+y,z
1/2-x,1/2+y,1/2-z
1/2-x,1/2-y,-z
1/2+x,1/2-y,1/2+z
loop_
_atom_site_type_symbol
_atom_site_label
_atom_site_fract_x
_atom_site_fract_y
_atom_site_fract_z
Si Si1 0.500000 0.416288 0.250000
Si Si2 0.993211 0.779057 0.906261
Si Si3 0.000000 0.295592 0.250000
Si Si4 0.000000 0.853404 0.750000
Si Si5 0.840620 0.493534 0.870144
Si Si6 0.500440 0.355124 0.059504
Si Si7 0.667649 0.429221 0.635548
O O1 0.237215 0.455775 0.200422
O O2 0.412416 0.380655 0.144738
O O3 0.128775 0.819379 0.857087
O O4 0.848838 0.740692 0.803447
O O5 0.250000 0.750000 0.000000
O O6 0.850654 0.810556 0.968836
O O7 0.206527 0.329858 0.351274
O O8 0.208333 0.887344 0.725774
O O9 0.936354 0.458782 0.644888
O O10 0.551439 0.467181 0.854975
O O11 0.000000 0.500000 0.000000
O O12 0.489029 0.400629 0.981663
#
# Coordination Sequence:
#
# PCOD9288889 Si02
#       7
#     4   8   4   4   8   8   8
#     4  12  27  42  69 102 144 204 251 310 375 448
#     4   8  16  37  66 101 144 189 239 307 376 442
#     4   9  18  34  71 104 136 194 243 306 376 457
#     4   9  19  38  68 104 142 190 248 294 369 445
#     4  12  27  48  70 100 149 192 250 305 373 430
#     4  10  22  39  67 102 142 190 251 301 371 450
#     4  11  25  47  70 105 145 197 242 310 363 437
#
# _framework density 25.266445000000001
#
# number of rings (size 3 to 8) (size 9 to 14) (size 15 to 20)
#    0.000    1.818    1.818    1.091    2.545    2.909 
#    0.000    0.909    0.000   43.636    0.000    0.000 
#    0.000    0.000    0.000    0.000    0.000    0.000 
#
# Total GULP energy -122561.143105 kJ/mol
# GULP energy per Si atom -5570.961050 kJ/mol
# Density = 2.520894 g / cm^3
# Si number density = 25.266445 Si / 1000 Ang^3
#
#
#
# Elastic Constant Matrix: (Units=GPa)
#
#
# Indices 1 2 3 4 5 6 
#
# 1 124.3195 75.5179 38.8314 0.0000 -10.9327 0.0000
# 2 75.5179 152.6905 71.0591 0.0000 -17.9808 0.0000
# 3 38.8314 71.0591 163.2327 0.0000 -31.4347 0.0000
# 4 0.0000 0.0000 0.0000 93.9117 0.0000 -21.8883
# 5 -10.9327 -17.9808 -31.4347 0.0000 26.5424 0.0000
# 6 0.0000 0.0000 0.0000 -21.8883 0.0000 20.8851
#
#
#
# Elastic Compliance Matrix: (Units=1/GPa)
#
#
# Indices 1 2 3 4 5 6 
#
# 1 0.011525 -0.005520 -0.000187 0.000000 0.000786 0.000000
# 2 -0.005520 0.010918 -0.003178 0.000000 0.001359 0.000000
# 3 -0.000187 -0.003178 0.009230 0.000000 0.008701 0.000000
# 4 0.000000 0.000000 0.000000 0.014090 0.000000 0.014767
# 5 0.000786 0.001359 0.008701 0.000000 0.049225 0.000000
# 6 0.000000 0.000000 0.000000 0.014767 0.000000 0.063357
#
#
# Mechanical properties :
#
#
# Convention : Reuss Voigt Hill
#
# Bulk Modulus (GPa) = 71.93338 90.11772 81.02555
# Shear Modulus (GPa) = 27.66255 45.25679 36.45967
#
# Velocity S-wave (km/s) = 3.31242 4.23683 3.80281
# Velocity P-wave (km/s) = 6.56972 7.72520 7.17077
#
# Compressibility (1/GPa) = 0.01390175
#
# Stress axis : x y z
#
# Youngs Moduli (GPa) = 86.77086 91.58791 108.34327
#
# Poissons Ratio (x) = 0.50558 0.02028
# Poissons Ratio (y) = 0.47899 0.34434
# Poissons Ratio (z) = 0.01624 0.29108
#
# Static dielectric constant tensor:
#      x y z
#    x 1.999850 0.000000 -0.020280 
#    y 0.000000 2.057960 0.000000 
#    z -0.020280 0.000000 2.333430 
# 
# From -- ./inp_files/138121.got.cif
#   From: 2010.05.17/outbox.cif.g08.bks.cpg/sg15_70_cif.got.tgz:138121.got - 2010.06.03 18:47:42.
