data_PCOD9288186
_publ_section_title
;
Structure prediction by ZEFSAII (Michael W. Deem and Ramdas Pophale) SiO2 
 PCOD9288186
Probable space group: C 2/C
;
_chemical_formula_sum "Si O2"
_cell_formula_units_Z 48
_cell_length_a 10.327571
_cell_length_b 22.141847
_cell_length_c 9.225935
_cell_angle_alpha 90.000000
_cell_angle_beta 114.111455
_cell_angle_gamma 90.000000
_cell_volume 1925.641634
_symmetry_space_group_name_H-M "C 2/C"
_symmetry_group_IT_number 15
_symmetry_cell_setting 'monoclinic'
loop_
_space_group_symop_operation_xyz
x,y,z
-x,y,1/2-z
-x,-y,-z
x,-y,1/2+z
1/2+x,1/2+y,z
1/2-x,1/2+y,1/2-z
1/2-x,1/2-y,-z
1/2+x,1/2-y,1/2+z
loop_
_atom_site_type_symbol
_atom_site_label
_atom_site_fract_x
_atom_site_fract_y
_atom_site_fract_z
Si Si1 0.115940 0.673612 0.000505
Si Si2 0.907971 0.853367 0.483232
Si Si3 0.205045 0.976652 0.205129
Si Si4 0.500000 0.071918 0.750000
Si Si5 0.786444 0.921822 0.985129
Si Si6 0.500000 0.719236 0.250000
Si Si7 0.000000 0.833928 0.250000
Si Si8 0.000000 0.358667 0.750000
O O1 0.276813 0.656415 0.033659
O O2 0.026373 0.617202 0.895343
O O3 0.084855 0.731925 0.887166
O O4 0.068680 0.677421 0.145850
O O5 0.879314 0.920265 0.404202
O O6 0.038003 0.828087 0.638544
O O7 0.900691 0.811263 0.334744
O O8 0.364396 0.967796 0.221225
O O9 0.209373 0.969321 0.379297
O O10 0.156779 0.041270 0.126987
O O11 0.631908 0.896562 0.875579
O O12 0.887422 0.870120 0.097497
#
# Coordination Sequence:
#
# PCOD9288186 Si02
#       8
#     8   8   8   4   8   4   4   4
#     4  10  23  43  67 101 138 176 233 298 346 410
#     4  10  24  45  67  96 138 183 229 292 349 420
#     4  10  22  38  64  97 140 179 232 283 344 415
#     4   9  17  38  60  91 135 172 218 295 333 394
#     4  11  25  41  67 105 138 189 235 279 351 421
#     4  11  24  43  73 102 132 185 241 284 369 410
#     4  10  26  48  66  97 143 188 230 282 350 424
#     4  12  25  43  73 106 144 181 237 293 346 412
#
# _framework density 24.926756999999998
#
# number of rings (size 3 to 8) (size 9 to 14) (size 15 to 20)
#    0.000    1.667    1.667    1.000    9.333    5.333 
#    0.000    1.667    0.000    0.000    0.000    0.000 
#    0.000    0.000    0.000    0.000    0.000    0.000 
#
# Total GULP energy -133703.990666 kJ/mol
# GULP energy per Si atom -5570.999611 kJ/mol
# Density = 2.487002 g / cm^3
# Si number density = 24.926757 Si / 1000 Ang^3
#
#
#
# Elastic Constant Matrix: (Units=GPa)
#
#
# Indices 1 2 3 4 5 6 
#
# 1 94.6119 7.9915 46.3005 0.0000 0.8839 0.0000
# 2 7.9915 74.8011 35.8675 0.0000 14.5960 0.0000
# 3 46.3005 35.8675 167.0025 0.0000 -6.4508 0.0000
# 4 0.0000 0.0000 0.0000 42.8803 0.0000 5.4280
# 5 0.8839 14.5960 -6.4508 0.0000 52.1210 0.0000
# 6 0.0000 0.0000 0.0000 5.4280 0.0000 -55.7492
#
#
#
# Elastic Compliance Matrix: (Units=1/GPa)
#
#
# Indices 1 2 3 4 5 6 
#
# 1 0.012268 0.000548 -0.003550 0.000000 -0.000801 0.000000
# 2 0.000548 0.016108 -0.003804 0.000000 -0.004991 0.000000
# 3 -0.003550 -0.003804 0.007870 0.000000 0.002100 0.000000
# 4 0.000000 0.000000 0.000000 0.023037 0.000000 0.002243
# 5 -0.000801 -0.004991 0.002100 0.000000 0.020857 0.000000
# 6 0.000000 0.000000 0.000000 0.002243 0.000000 -0.017719
#
#
# Mechanical properties :
#
#
# Convention : Reuss Voigt Hill
#
# Bulk Modulus (GPa) = 44.18164 57.41494 50.79829
# Shear Modulus (GPa) = 59.82388 24.26749 42.04569
#
# Velocity S-wave (km/s) = 4.90428 3.12356 4.11149
# Velocity P-wave (km/s) = 7.05920 6.00769 6.55457
#
# Compressibility (1/GPa) = 0.02263384
#
# Stress axis : x y z
#
# Youngs Moduli (GPa) = 81.51375 62.07963 127.06099
#
# Poissons Ratio (x) = -0.03400 0.45104
# Poissons Ratio (y) = -0.04465 0.48337
# Poissons Ratio (z) = 0.28935 0.23617
#
# Static dielectric constant tensor:
#      x y z
#    x 2.243820 0.000000 0.000960 
#    y 0.000000 2.012460 0.000000 
#    z 0.000960 0.000000 2.124770 
# 
# From -- ./inp_files/32705.got.cif
#   From: 2010.05.17/outbox.cif.g08.bks.cpg/sg15_17_cif.got.tgz:32705.got - 2010.06.03 18:47:42.
