data_PCOD9288810
_publ_section_title
;
Structure prediction by ZEFSAII (Michael W. Deem and Ramdas Pophale) SiO2 
 PCOD9288810
Probable space group: C 2/C
;
_chemical_formula_sum "Si O2"
_cell_formula_units_Z 52
_cell_length_a 19.858925
_cell_length_b 14.706449
_cell_length_c 9.759510
_cell_angle_alpha 90.000000
_cell_angle_beta 137.618511
_cell_angle_gamma 90.000000
_cell_volume 1921.288387
_symmetry_space_group_name_H-M "C 2/C"
_symmetry_group_IT_number 15
_symmetry_cell_setting 'monoclinic'
loop_
_space_group_symop_operation_xyz
x,y,z
-x,y,1/2-z
-x,-y,-z
x,-y,1/2+z
1/2+x,1/2+y,z
1/2-x,1/2+y,1/2-z
1/2-x,1/2-y,-z
1/2+x,1/2-y,1/2+z
loop_
_atom_site_type_symbol
_atom_site_label
_atom_site_fract_x
_atom_site_fract_y
_atom_site_fract_z
Si Si1 0.573677 0.902165 0.036075
Si Si2 0.000000 0.929251 0.250000
Si Si3 0.912254 0.212068 0.417499
Si Si4 0.743011 0.637455 0.498521
Si Si5 0.638847 0.088529 0.143961
Si Si6 0.813282 0.051160 0.617697
Si Si7 0.879186 0.798460 0.425928
O O1 0.585995 0.803696 0.988388
O O2 0.645738 0.884344 0.277076
O O3 0.611688 0.994144 0.024627
O O4 0.458634 0.909386 0.903049
O O5 0.068961 0.867513 0.449058
O O6 0.076384 0.977983 0.267085
O O7 0.808571 0.210943 0.179530
O O8 0.003646 0.204495 0.444486
O O9 0.722905 0.545284 0.379193
O O10 0.667161 0.647289 0.514887
O O11 0.736583 0.073015 0.381078
O O12 0.641371 0.190156 0.086769
O O13 0.827497 0.142795 0.726486
#
# Coordination Sequence:
#
# PCOD9288810 Si02
#       7
#     8   4   8   8   8   8   8
#     4   9  20  41  65  95 124 172 213 265 318 378
#     4  10  24  38  66  92 126 174 212 254 330 380
#     4  10  22  41  64  93 133 163 213 267 318 388
#     4  11  23  38  66  97 132 167 213 265 326 381
#     4   9  19  42  67  88 132 168 222 262 314 375
#     4  10  23  39  63  95 130 174 211 266 314 386
#     4  10  22  39  65  95 128 174 213 263 326 376
#
# _framework density 27.065169999999998
#
# number of rings (size 3 to 8) (size 9 to 14) (size 15 to 20)
#    0.000    2.154    0.000    1.385    6.462    1.231 
#    0.000    1.538    6.769    0.000    0.000    0.000 
#    0.000    0.000    0.000    0.000    0.000    0.000 
#
# Total GULP energy -145091.234995 kJ/mol
# GULP energy per Si atom -5580.432115 kJ/mol
# Density = 2.700357 g / cm^3
# Si number density = 27.065170 Si / 1000 Ang^3
#
#
#
# Elastic Constant Matrix: (Units=GPa)
#
#
# Indices 1 2 3 4 5 6 
#
# 1 121.6852 11.2899 16.8816 0.0000 22.0260 0.0000
# 2 11.2899 89.0253 7.4265 0.0000 10.3938 0.0000
# 3 16.8816 7.4265 125.8152 0.0000 11.0317 0.0000
# 4 0.0000 0.0000 0.0000 29.8056 0.0000 -13.3242
# 5 22.0260 10.3938 11.0317 0.0000 26.5387 0.0000
# 6 0.0000 0.0000 0.0000 -13.3242 0.0000 -19.0950
#
#
#
# Elastic Compliance Matrix: (Units=1/GPa)
#
#
# Indices 1 2 3 4 5 6 
#
# 1 0.009724 -0.000282 -0.000612 0.000000 -0.007705 0.000000
# 2 -0.000282 0.011790 -0.000284 0.000000 -0.004265 0.000000
# 3 -0.000612 -0.000284 0.008295 0.000000 -0.002829 0.000000
# 4 0.000000 0.000000 0.000000 0.025573 0.000000 -0.017845
# 5 -0.007705 -0.004265 -0.002829 0.000000 0.046922 0.000000
# 6 0.000000 0.000000 0.000000 -0.017845 0.000000 -0.039918
#
#
# Mechanical properties :
#
#
# Convention : Reuss Voigt Hill
#
# Bulk Modulus (GPa) = 36.42831 45.30242 40.86537
# Shear Modulus (GPa) = 67.66363 27.51172 47.58768
#
# Velocity S-wave (km/s) = 5.00545 3.19172 4.19771
# Velocity P-wave (km/s) = 6.84797 5.50975 6.21499
#
# Compressibility (1/GPa) = 0.02745118
#
# Stress axis : x y z
#
# Youngs Moduli (GPa) = 102.84061 84.81593 120.55272
#
# Poissons Ratio (x) = 0.02396 0.07383
# Poissons Ratio (y) = 0.02905 0.03425
# Poissons Ratio (z) = 0.06298 0.02409
#
# Static dielectric constant tensor:
#      x y z
#    x 2.142120 0.000000 -0.034020 
#    y 0.000000 2.226020 0.000000 
#    z -0.034020 0.000000 2.059920 
# 
# From -- ./inp_files/118830.got.cif
#   From: 2010.05.17/outbox.cif.g08.bks.cpg/sg15_60_cif.got.tgz:118830.got - 2010.06.03 18:47:42.
