data_PCOD9288235
_publ_section_title
;
Structure prediction by ZEFSAII (Michael W. Deem and Ramdas Pophale) SiO2 
 PCOD9288235
Probable space group: C 2/C
;
_chemical_formula_sum "Si O2"
_cell_formula_units_Z 48
_cell_length_a 11.173808
_cell_length_b 25.398194
_cell_length_c 14.249674
_cell_angle_alpha 90.000000
_cell_angle_beta 147.787818
_cell_angle_gamma 90.000000
_cell_volume 2155.668377
_symmetry_space_group_name_H-M "C 2/C"
_symmetry_group_IT_number 15
_symmetry_cell_setting 'monoclinic'
loop_
_space_group_symop_operation_xyz
x,y,z
-x,y,1/2-z
-x,-y,-z
x,-y,1/2+z
1/2+x,1/2+y,z
1/2-x,1/2+y,1/2-z
1/2-x,1/2-y,-z
1/2+x,1/2-y,1/2+z
loop_
_atom_site_type_symbol
_atom_site_label
_atom_site_fract_x
_atom_site_fract_y
_atom_site_fract_z
Si Si1 0.030031 0.182909 0.973663
Si Si2 0.200616 0.951442 0.814042
Si Si3 0.854625 0.293906 0.428895
Si Si4 0.034390 0.493638 0.665891
Si Si5 0.858736 0.826773 0.744632
Si Si6 0.212207 0.107143 0.954910
O O1 0.186236 0.234589 0.063100
O O2 0.009168 0.181652 0.071175
O O3 0.134186 0.128187 0.004682
O O4 0.805223 0.192916 0.764958
O O5 0.233362 0.979413 0.734268
O O6 0.180571 0.889377 0.787772
O O7 0.000000 0.969100 0.750000
O O8 0.420610 0.964595 0.020841
O O9 0.803184 0.339326 0.469071
O O10 0.117962 0.298973 0.583748
O O11 0.000000 0.512743 0.750000
O O12 0.891491 0.439163 0.571582
O O13 0.000000 0.808761 0.750000
O O14 0.000000 0.091505 0.750000
#
# Coordination Sequence:
#
# PCOD9288235 Si02
#       6
#     8   8   8   8   8   8
#     4  11  23  40  65  96 128 170 211 267 334 378
#     4  10  23  44  63  92 134 171 214 276 326 391
#     4  11  22  41  63  97 131 165 214 268 325 394
#     4  11  22  40  69  97 126 171 218 270 334 390
#     4  11  24  44  63  88 132 175 223 267 315 389
#     4  10  22  38  65  97 129 163 209 267 330 397
#
# _framework density 22.266874999999999
#
# number of rings (size 3 to 8) (size 9 to 14) (size 15 to 20)
#    0.000    1.333    3.333    2.000    0.000    2.000 
#    6.000    0.000    0.000    0.000    0.000    0.000 
#    0.000    0.000    0.000    0.000    0.000    0.000 
#
# Total GULP energy -134070.100466 kJ/mol
# GULP energy per Si atom -5586.254186 kJ/mol
# Density = 2.221619 g / cm^3
# Si number density = 22.266875 Si / 1000 Ang^3
#
#
#
# Elastic Constant Matrix: (Units=GPa)
#
#
# Indices 1 2 3 4 5 6 
#
# 1 124.4980 -22.6626 36.5615 -0.0001 -18.1217 0.0005
# 2 -22.6626 17.3919 -2.6727 -0.0003 -5.8882 0.0007
# 3 36.5615 -2.6727 67.6473 -0.0001 -17.4375 0.0008
# 4 -0.0001 -0.0003 -0.0001 11.8340 0.0000 6.4206
# 5 -18.1217 -5.8882 -17.4375 0.0000 41.8931 0.0005
# 6 0.0005 0.0007 0.0008 6.4206 0.0005 -65.8375
#
#
#
# Elastic Compliance Matrix: (Units=1/GPa)
#
#
# Indices 1 2 3 4 5 6 
#
# 1 0.014158 0.019966 -0.005109 0.000000 0.006804 0.000000
# 2 0.019966 0.090156 -0.001945 0.000002 0.020499 0.000001
# 3 -0.005109 -0.001945 0.018849 0.000000 0.005362 0.000000
# 4 0.000000 0.000002 0.000000 0.080256 0.000000 0.007827
# 5 0.006804 0.020499 0.005362 0.000000 0.031927 0.000001
# 6 0.000000 0.000001 0.000000 0.007827 0.000001 -0.014426
#
#
# Mechanical properties :
#
#
# Convention : Reuss Voigt Hill
#
# Bulk Modulus (GPa) = 6.71198 25.77661 16.24430
# Shear Modulus (GPa) = 20.42835 10.79867 15.61351
#
# Velocity S-wave (km/s) = 3.03220 2.20458 2.65089
# Velocity P-wave (km/s) = 3.90895 4.25225 4.08420
#
# Compressibility (1/GPa) = 0.14898734
#
# Stress axis : x y z
#
# Youngs Moduli (GPa) = 70.63388 11.09184 53.05248
#
# Poissons Ratio (x) = -0.22146 0.27105
# Poissons Ratio (y) = -1.41030 0.10320
# Poissons Ratio (z) = 0.36087 0.02158
#
# Static dielectric constant tensor:
#      x y z
#    x 1.888690 0.000000 0.018340 
#    y 0.000000 1.799040 0.000000 
#    z 0.018340 0.000000 1.813450 
# 
# From -- ./inp_files/148818.got.cif
#   From: 2010.05.17/outbox.cif.g08.bks.cpg/sg15_75_cif.got.tgz:148818.got - 2010.06.03 18:47:42.
