data_PCOD9288811
_publ_section_title
;
Structure prediction by ZEFSAII (Michael W. Deem and Ramdas Pophale) SiO2 
 PCOD9288811
Probable space group: C 2/C
;
_chemical_formula_sum "Si O2"
_cell_formula_units_Z 48
_cell_length_a 18.836468
_cell_length_b 16.252343
_cell_length_c 13.727767
_cell_angle_alpha 90.000000
_cell_angle_beta 149.577403
_cell_angle_gamma 90.000000
_cell_volume 2128.073668
_symmetry_space_group_name_H-M "C 2/C"
_symmetry_group_IT_number 15
_symmetry_cell_setting 'monoclinic'
loop_
_space_group_symop_operation_xyz
x,y,z
-x,y,1/2-z
-x,-y,-z
x,-y,1/2+z
1/2+x,1/2+y,z
1/2-x,1/2+y,1/2-z
1/2-x,1/2-y,-z
1/2+x,1/2-y,1/2+z
loop_
_atom_site_type_symbol
_atom_site_label
_atom_site_fract_x
_atom_site_fract_y
_atom_site_fract_z
Si Si1 0.848305 0.298828 0.037502
Si Si2 0.850828 0.970748 0.029816
Si Si3 0.351900 0.367419 0.437404
Si Si4 0.836240 0.665311 0.113649
Si Si5 0.874404 0.124967 0.362492
Si Si6 0.584517 0.190464 0.514157
O O1 0.892266 0.224140 0.018004
O O2 0.748167 0.362000 0.861873
O O3 0.750000 0.250000 0.000000
O O4 0.000000 0.333374 0.250000
O O5 0.000000 0.946554 0.250000
O O6 0.742253 0.920355 0.964898
O O7 0.840671 0.939934 0.906411
O O8 0.841498 0.068825 0.013801
O O9 0.477052 0.394135 0.513568
O O10 0.196394 0.359429 0.208784
O O11 0.893951 0.664075 0.071818
O O12 0.918400 0.675740 0.314756
O O13 0.750000 0.750000 0.000000
O O14 0.891993 0.213851 0.435838
#
# Coordination Sequence:
#
# PCOD9288811 Si02
#       6
#     8   8   8   8   8   8
#     4  11  23  44  70  97 130 180 231 280 332 409
#     4  12  25  40  67  97 138 175 218 280 346 411
#     4  11  24  42  65  97 135 171 224 278 345 403
#     4  11  21  39  65  95 132 177 227 274 340 404
#     4  11  23  39  70 100 132 173 230 279 331 411
#     4  10  22  39  65  95 131 174 225 280 332 409
#
# _framework density 22.555610000000001
#
# number of rings (size 3 to 8) (size 9 to 14) (size 15 to 20)
#    0.000    1.000    3.333    4.000    2.333    0.667 
#    0.000    0.000    0.000    0.000    0.000    0.000 
#    0.000    0.000    0.000    0.000    0.000    0.000 
#
# Total GULP energy -133880.422164 kJ/mol
# GULP energy per Si atom -5578.350923 kJ/mol
# Density = 2.250427 g / cm^3
# Si number density = 22.555610 Si / 1000 Ang^3
#
#
#
# Elastic Constant Matrix: (Units=GPa)
#
#
# Indices 1 2 3 4 5 6 
#
# 1 41.8963 1.9323 -9.7555 0.0000 -13.8875 0.0000
# 2 1.9323 54.1113 13.1653 0.0000 -3.4005 0.0000
# 3 -9.7555 13.1653 156.9800 0.0000 -7.3261 0.0000
# 4 0.0000 0.0000 0.0000 62.8678 0.0000 6.1262
# 5 -13.8875 -3.4005 -7.3261 0.0000 18.0298 0.0000
# 6 0.0000 0.0000 0.0000 6.1262 0.0000 21.1232
#
#
#
# Elastic Compliance Matrix: (Units=1/GPa)
#
#
# Indices 1 2 3 4 5 6 
#
# 1 0.033721 -0.000315 0.003396 0.000000 0.027294 0.000000
# 2 -0.000315 0.019026 -0.001487 0.000000 0.002741 0.000000
# 3 0.003396 -0.001487 0.006947 0.000000 0.005158 0.000000
# 4 0.000000 0.000000 0.000000 0.016369 0.000000 -0.004747
# 5 0.027294 0.002741 0.005158 0.000000 0.079100 0.000000
# 6 0.000000 0.000000 0.000000 -0.004747 0.000000 0.048718
#
#
# Mechanical properties :
#
#
# Convention : Reuss Voigt Hill
#
# Bulk Modulus (GPa) = 15.90327 29.29687 22.60007
# Shear Modulus (GPa) = 22.55773 36.91386 29.73579
#
# Velocity S-wave (km/s) = 3.16586 4.04984 3.63482
# Velocity P-wave (km/s) = 4.51990 5.90637 5.25903
#
# Compressibility (1/GPa) = 0.06288016
#
# Stress axis : x y z
#
# Youngs Moduli (GPa) = 29.65523 52.56025 143.95312
#
# Poissons Ratio (x) = 0.01656 -0.48883
# Poissons Ratio (y) = 0.00934 0.21410
# Poissons Ratio (z) = -0.10070 0.07817
#
# Static dielectric constant tensor:
#      x y z
#    x 1.579040 0.000000 -0.360270 
#    y 0.000000 1.766430 0.000000 
#    z -0.360270 0.000000 1.365220 
# 
# From -- ./inp_files/168907.got.cif
#   From: 2010.05.17/outbox.cif.g08.bks.cpg/sg15_85_cif.got.tgz:168907.got - 2010.06.03 18:47:42.
