data_PCOD9288327
_publ_section_title
;
Structure prediction by ZEFSAII (Michael W. Deem and Ramdas Pophale) SiO2 
 PCOD9288327
Probable space group: C 2/C
;
_chemical_formula_sum "Si O2"
_cell_formula_units_Z 44
_cell_length_a 9.337886
_cell_length_b 17.012486
_cell_length_c 15.555999
_cell_angle_alpha 90.000000
_cell_angle_beta 62.357208
_cell_angle_gamma 90.000000
_cell_volume 2189.162652
_symmetry_space_group_name_H-M "C 2/C"
_symmetry_group_IT_number 15
_symmetry_cell_setting 'monoclinic'
loop_
_space_group_symop_operation_xyz
x,y,z
-x,y,1/2-z
-x,-y,-z
x,-y,1/2+z
1/2+x,1/2+y,z
1/2-x,1/2+y,1/2-z
1/2-x,1/2-y,-z
1/2+x,1/2-y,1/2+z
loop_
_atom_site_type_symbol
_atom_site_label
_atom_site_fract_x
_atom_site_fract_y
_atom_site_fract_z
Si Si1 0.193296 0.761422 0.888861
Si Si2 0.000000 0.981777 0.750000
Si Si3 0.898151 0.360591 0.957910
Si Si4 0.236297 0.152136 0.204201
Si Si5 0.141764 0.824370 0.548509
Si Si6 0.645494 0.497921 0.028746
O O1 0.332847 0.794311 0.910614
O O2 0.242757 0.783962 0.778127
O O3 0.030042 0.812308 0.948485
O O4 0.141807 0.675103 0.936256
O O5 0.856864 0.928468 0.746933
O O6 0.922400 0.021530 0.855962
O O7 0.086718 0.367813 0.883112
O O8 0.791240 0.437906 0.970890
O O9 0.129764 0.181280 0.154209
O O10 0.250000 0.750000 0.500000
O O11 0.205706 0.911469 0.512763
O O12 0.500000 0.500000 0.000000
#
# Coordination Sequence:
#
# PCOD9288327 Si02
#       6
#     8   4   8   8   8   8
#     4  11  21  41  62  97 126 173 218 264 330 390
#     4  10  22  38  68  94 122 180 220 256 344 386
#     4  11  24  38  66  98 131 169 219 275 328 379
#     4  11  20  40  68  89 130 174 220 265 324 398
#     4  11  21  40  68  91 128 178 212 259 335 389
#     4  11  22  44  65  92 138 171 219 275 328 389
#
# _framework density 20.099008000000001
#
# number of rings (size 3 to 8) (size 9 to 14) (size 15 to 20)
#    0.000    1.091    7.273    0.545    0.000    2.909 
#    9.818    0.000    0.000    2.182    0.000    0.000 
#    0.000    0.000    0.000    0.000    0.000    0.000 
#
# Total GULP energy -122501.490579 kJ/mol
# GULP energy per Si atom -5568.249572 kJ/mol
# Density = 2.005326 g / cm^3
# Si number density = 20.099008 Si / 1000 Ang^3
#
#
#
# Elastic Constant Matrix: (Units=GPa)
#
#
# Indices 1 2 3 4 5 6 
#
# 1 94.4054 20.6686 25.8609 0.0000 -15.9023 0.0000
# 2 20.6686 88.4562 34.6226 0.0000 -13.4076 0.0000
# 3 25.8609 34.6226 71.7090 0.0000 -10.0724 0.0000
# 4 0.0000 0.0000 0.0000 31.0128 0.0000 0.4960
# 5 -15.9023 -13.4076 -10.0724 0.0000 42.7528 0.0000
# 6 0.0000 0.0000 0.0000 0.4960 0.0000 30.4481
#
#
#
# Elastic Compliance Matrix: (Units=1/GPa)
#
#
# Indices 1 2 3 4 5 6 
#
# 1 0.012348 -0.000996 -0.003486 0.000000 0.003459 0.000000
# 2 -0.000996 0.014372 -0.006204 0.000000 0.002675 0.000000
# 3 -0.003486 -0.006204 0.018350 0.000000 0.001081 0.000000
# 4 0.000000 0.000000 0.000000 0.032253 0.000000 -0.000525
# 5 0.003459 0.002675 0.001081 0.000000 0.025770 0.000000
# 6 0.000000 0.000000 0.000000 -0.000525 0.000000 0.032851
#
#
# Mechanical properties :
#
#
# Convention : Reuss Voigt Hill
#
# Bulk Modulus (GPa) = 42.20019 46.31941 44.25980
# Shear Modulus (GPa) = 30.26330 32.40397 31.33364
#
# Velocity S-wave (km/s) = 3.88456 4.01960 3.95266
# Velocity P-wave (km/s) = 6.41572 6.68121 6.54981
#
# Compressibility (1/GPa) = 0.02369658
#
# Stress axis : x y z
#
# Youngs Moduli (GPa) = 80.98150 69.58216 54.49681
#
# Poissons Ratio (x) = 0.06933 0.18999
# Poissons Ratio (y) = 0.08069 0.33809
# Poissons Ratio (z) = 0.28233 0.43167
#
# Static dielectric constant tensor:
#      x y z
#    x 1.816840 0.000000 -0.496610 
#    y 0.000000 1.799490 0.000000 
#    z -0.496610 0.000000 4.228990 
# 
# From -- ./inp_files/134369.got.cif
#   From: 2010.05.17/outbox.cif.g08.bks.cpg/sg15_68_cif.got.tgz:134369.got - 2010.06.03 18:47:42.
