data_PCOD9288014
_publ_section_title
;
Structure prediction by ZEFSAII (Michael W. Deem and Ramdas Pophale) SiO2 
 PCOD9288014
Probable space group: C 2/C
;
_chemical_formula_sum "Si O2"
_cell_formula_units_Z 52
_cell_length_a 11.813183
_cell_length_b 8.969895
_cell_length_c 27.847794
_cell_angle_alpha 90.000000
_cell_angle_beta 48.609036
_cell_angle_gamma 90.000000
_cell_volume 2213.762555
_symmetry_space_group_name_H-M "C 2/C"
_symmetry_group_IT_number 15
_symmetry_cell_setting 'monoclinic'
loop_
_space_group_symop_operation_xyz
x,y,z
-x,y,1/2-z
-x,-y,-z
x,-y,1/2+z
1/2+x,1/2+y,z
1/2-x,1/2+y,1/2-z
1/2-x,1/2-y,-z
1/2+x,1/2-y,1/2+z
loop_
_atom_site_type_symbol
_atom_site_label
_atom_site_fract_x
_atom_site_fract_y
_atom_site_fract_z
Si Si1 0.575934 0.254167 0.851079
Si Si2 0.834587 0.783572 0.779803
Si Si3 0.796327 0.009506 0.642299
Si Si4 0.000000 0.322836 0.750000
Si Si5 0.685328 0.419039 0.156782
Si Si6 0.158633 0.433899 0.974062
Si Si7 0.741692 0.897009 0.055832
O O1 0.669540 0.261317 0.775675
O O2 0.565133 0.421189 0.874050
O O3 0.421600 0.171195 0.884331
O O4 0.668194 0.170740 0.866506
O O5 0.713017 0.681336 0.840175
O O6 0.828494 0.953296 0.798704
O O7 0.000000 0.732389 0.750000
O O8 0.646676 0.929676 0.707506
O O9 0.792930 0.002057 0.585727
O O10 0.951120 0.201041 0.804660
O O11 0.721587 0.504926 0.098107
O O12 0.156403 0.252366 0.976435
O O13 0.211148 0.474032 0.013346
O O14 0.000000 0.500000 0.000000
#
# Coordination Sequence:
#
# PCOD9288014 Si02
#       7
#     8   8   8   4   8   8   8
#     4  11  23  39  66 103 140 172 232 292 344 418
#     4  12  20  38  66  94 137 187 221 279 359 410
#     4  11  22  41  68 103 140 181 231 286 357 417
#     4  10  22  38  62 102 144 168 226 296 342 418
#     4  11  22  40  67  98 139 181 232 286 349 418
#     4  11  23  45  74  99 135 192 240 284 345 417
#     4  11  23  45  76  94 139 189 229 292 344 410
#
# _framework density 23.489419999999999
#
# number of rings (size 3 to 8) (size 9 to 14) (size 15 to 20)
#    0.000    0.923    6.154    0.923    0.000    1.231 
#    0.000    6.154    0.000    0.000    0.000    0.000 
#    0.000    0.000    0.000    0.000    0.000    0.000 
#
# Total GULP energy -145223.875506 kJ/mol
# GULP energy per Si atom -5585.533673 kJ/mol
# Density = 2.343596 g / cm^3
# Si number density = 23.489420 Si / 1000 Ang^3
#
#
#
# Elastic Constant Matrix: (Units=GPa)
#
#
# Indices 1 2 3 4 5 6 
#
# 1 85.2891 16.5312 30.1173 0.0000 21.9133 0.0000
# 2 16.5312 67.2218 -5.9902 0.0000 -4.4187 0.0000
# 3 30.1173 -5.9902 77.4909 0.0000 21.2549 0.0000
# 4 0.0000 0.0000 0.0000 23.6516 0.0000 -2.1798
# 5 21.9133 -4.4187 21.2549 0.0000 36.9662 0.0000
# 6 0.0000 0.0000 0.0000 -2.1798 0.0000 33.5536
#
#
#
# Elastic Compliance Matrix: (Units=1/GPa)
#
#
# Indices 1 2 3 4 5 6 
#
# 1 0.016250 -0.004905 -0.004621 0.000000 -0.007563 0.000000
# 2 -0.004905 0.016516 0.002189 0.000000 0.003623 0.000000
# 3 -0.004621 0.002189 0.016677 0.000000 -0.006588 0.000000
# 4 0.000000 0.000000 0.000000 0.042535 0.000000 0.002763
# 5 -0.007563 0.003623 -0.006588 0.000000 0.035756 0.000000
# 6 0.000000 0.000000 0.000000 0.002763 0.000000 0.029983
#
#
# Mechanical properties :
#
#
# Convention : Reuss Voigt Hill
#
# Bulk Modulus (GPa) = 28.76046 34.59094 31.67570
# Shear Modulus (GPa) = 27.17700 31.45718 29.31709
#
# Velocity S-wave (km/s) = 3.40514 3.66349 3.53668
# Velocity P-wave (km/s) = 5.26599 5.71428 5.49471
#
# Compressibility (1/GPa) = 0.03476995
#
# Stress axis : x y z
#
# Youngs Moduli (GPa) = 61.53743 60.54864 59.96341
#
# Poissons Ratio (x) = 0.29700 0.27707
# Poissons Ratio (y) = 0.30185 -0.13128
# Poissons Ratio (z) = 0.28434 -0.13256
#
# Static dielectric constant tensor:
#      x y z
#    x 1.890700 0.000000 -0.042910 
#    y 0.000000 1.900070 0.000000 
#    z -0.042910 0.000000 1.953740 
# 
# From -- ./inp_files/291477.got.cif
#   From: 2010.05.17/outbox.cif.g08.bks.cpg/sg15_146_cif.got.tgz:291477.got - 2010.06.03 18:47:42.
