data_PCOD9288330
_publ_section_title
;
Structure prediction by ZEFSAII (Michael W. Deem and Ramdas Pophale) SiO2 
 PCOD9288330
Probable space group: C 2/C
;
_chemical_formula_sum "Si O2"
_cell_formula_units_Z 36
_cell_length_a 8.888090
_cell_length_b 29.796549
_cell_length_c 8.619915
_cell_angle_alpha 90.000000
_cell_angle_beta 52.101208
_cell_angle_gamma 90.000000
_cell_volume 1801.390245
_symmetry_space_group_name_H-M "C 2/C"
_symmetry_group_IT_number 15
_symmetry_cell_setting 'monoclinic'
loop_
_space_group_symop_operation_xyz
x,y,z
-x,y,1/2-z
-x,-y,-z
x,-y,1/2+z
1/2+x,1/2+y,z
1/2-x,1/2+y,1/2-z
1/2-x,1/2-y,-z
1/2+x,1/2-y,1/2+z
loop_
_atom_site_type_symbol
_atom_site_label
_atom_site_fract_x
_atom_site_fract_y
_atom_site_fract_z
Si Si1 0.704257 0.697670 0.541280
Si Si2 0.649886 0.633977 0.293587
Si Si3 0.860588 0.935447 0.099086
Si Si4 0.500000 0.507332 0.250000
Si Si5 0.546298 0.137365 0.888349
O O1 0.500000 0.691837 0.750000
O O2 0.750000 0.750000 0.500000
O O3 0.691539 0.675473 0.379992
O O4 0.852908 0.670941 0.555448
O O5 0.500000 0.643994 0.250000
O O6 0.549244 0.595782 0.462033
O O7 0.849957 0.621149 0.089585
O O8 0.688567 0.903318 0.255791
O O9 0.857148 0.960982 0.936710
O O10 0.889929 0.974585 0.204083
O O11 0.500000 0.159350 0.750000
#
# Coordination Sequence:
#
# PCOD9288330 Si02
#       5
#     8   8   8   4   8
#     4  12  25  44  66 103 135 169 223 276 322 393
#     4  12  23  44  70  94 133 182 219 267 334 395
#     4  11  21  43  63  95 134 168 226 266 341 372
#     4  10  22  38  68  94 130 172 216 292 306 406
#     4  12  23  43  70  96 131 184 218 264 339 392
#
# _framework density 19.984565
#
# number of rings (size 3 to 8) (size 9 to 14) (size 15 to 20)
#    0.000    0.444    5.556    3.333    0.000    0.889 
#    0.000   16.667    0.000    0.000    0.000    0.000 
#    0.000    0.000    0.000    0.000    0.000    0.000 
#
# Total GULP energy -100608.978152 kJ/mol
# GULP energy per Si atom -5589.387675 kJ/mol
# Density = 1.993908 g / cm^3
# Si number density = 19.984565 Si / 1000 Ang^3
#
#
#
# Elastic Constant Matrix: (Units=GPa)
#
#
# Indices 1 2 3 4 5 6 
#
# 1 117.2046 76.7907 58.9996 0.0000 -5.7573 0.0000
# 2 76.7907 151.4668 70.8603 0.0000 8.5276 0.0000
# 3 58.9996 70.8603 162.9550 0.0000 -25.9353 0.0000
# 4 0.0000 0.0000 0.0000 45.1513 0.0000 2.0749
# 5 -5.7573 8.5276 -25.9353 0.0000 42.1954 0.0000
# 6 0.0000 0.0000 0.0000 2.0749 0.0000 7.9925
#
#
#
# Elastic Compliance Matrix: (Units=1/GPa)
#
#
# Indices 1 2 3 4 5 6 
#
# 1 0.013602 -0.006070 -0.001989 0.000000 0.001860 0.000000
# 2 -0.006070 0.011771 -0.003803 0.000000 -0.005545 0.000000
# 3 -0.001989 -0.003803 0.009521 0.000000 0.006349 0.000000
# 4 0.000000 0.000000 0.000000 0.022415 0.000000 -0.005819
# 5 0.001860 -0.005545 0.006349 0.000000 0.028976 0.000000
# 6 0.000000 0.000000 0.000000 -0.005819 0.000000 0.126628
#
#
# Mechanical properties :
#
#
# Convention : Reuss Voigt Hill
#
# Bulk Modulus (GPa) = 89.53290 93.88084 91.70687
# Shear Modulus (GPa) = 20.80201 34.06623 27.43412
#
# Velocity S-wave (km/s) = 3.22980 4.13319 3.70910
# Velocity P-wave (km/s) = 7.66858 8.35801 8.02071
#
# Compressibility (1/GPa) = 0.01116908
#
# Stress axis : x y z
#
# Youngs Moduli (GPa) = 73.52030 84.95512 105.02798
#
# Poissons Ratio (x) = 0.51567 0.20891
# Poissons Ratio (y) = 0.44626 0.39946
# Poissons Ratio (z) = 0.14624 0.32311
#
# Static dielectric constant tensor:
#      x y z
#    x 1.729070 0.000000 0.024860 
#    y 0.000000 1.693460 0.000000 
#    z 0.024860 0.000000 1.717730 
# 
# From -- ./inp_files/25258.got.cif
#   From: 2010.05.17/outbox.cif.g08.bks.cpg/sg15_13_cif.got.tgz:25258.got - 2010.06.03 18:47:42.
