data_PCOD9288178
_publ_section_title
;
Structure prediction by ZEFSAII (Michael W. Deem and Ramdas Pophale) SiO2 
 PCOD9288178
Probable space group: C 2/C
;
_chemical_formula_sum "Si O2"
_cell_formula_units_Z 44
_cell_length_a 5.218735
_cell_length_b 15.105372
_cell_length_c 26.246481
_cell_angle_alpha 90.000000
_cell_angle_beta 117.284640
_cell_angle_gamma 90.000000
_cell_volume 1838.834134
_symmetry_space_group_name_H-M "C 2/C"
_symmetry_group_IT_number 15
_symmetry_cell_setting 'monoclinic'
loop_
_space_group_symop_operation_xyz
x,y,z
-x,y,1/2-z
-x,-y,-z
x,-y,1/2+z
1/2+x,1/2+y,z
1/2-x,1/2+y,1/2-z
1/2-x,1/2-y,-z
1/2+x,1/2-y,1/2+z
loop_
_atom_site_type_symbol
_atom_site_label
_atom_site_fract_x
_atom_site_fract_y
_atom_site_fract_z
Si Si1 0.123963 0.752613 0.905960
Si Si2 0.999427 0.141822 0.009730
Si Si3 0.822618 0.324401 0.282400
Si Si4 0.170160 0.462854 0.716996
Si Si5 0.078713 0.570772 0.095894
Si Si6 0.500000 0.000000 0.500000
O O1 0.954968 0.787154 0.940670
O O2 0.232868 0.842494 0.890047
O O3 0.951849 0.700236 0.848408
O O4 0.391927 0.695539 0.951445
O O5 0.741638 0.078109 0.003546
O O6 0.299859 0.087200 0.031732
O O7 0.500000 0.290223 0.250000
O O8 0.817915 0.430811 0.278158
O O9 0.000000 0.290823 0.250000
O O10 0.500000 0.431045 0.750000
O O11 0.000000 0.427906 0.750000
O O12 0.019058 0.444323 0.649084
O O13 0.190468 0.488999 0.073308
#
# Coordination Sequence:
#
# PCOD9288178 Si02
#       6
#     8   8   8   8   8   4
#     4  10  23  41  62  97 131 172 221 283 344 422
#     4  10  22  42  63  96 133 173 218 282 349 408
#     4  10  23  45  67  95 130 179 231 275 343 410
#     4  10  24  45  69  97 135 182 233 293 339 418
#     4  11  23  41  65  99 132 176 228 280 359 407
#     4  10  22  38  64  96 126 170 226 274 332 422
#
# _framework density 23.928204999999998
#
# number of rings (size 3 to 8) (size 9 to 14) (size 15 to 20)
#    0.000    1.818    0.000    2.182    7.636    0.727 
#    9.818    0.000    0.000    0.000    0.000    0.000 
#    0.000    0.000    0.000    0.000    0.000    0.000 
#
# Total GULP energy -122640.742073 kJ/mol
# GULP energy per Si atom -5574.579185 kJ/mol
# Density = 2.387374 g / cm^3
# Si number density = 23.928205 Si / 1000 Ang^3
#
#
#
# Elastic Constant Matrix: (Units=GPa)
#
#
# Indices 1 2 3 4 5 6 
#
# 1 116.5746 16.0568 47.0785 0.0000 -3.6602 0.0000
# 2 16.0568 31.4920 8.3463 0.0000 -1.1628 0.0000
# 3 47.0785 8.3463 171.4700 0.0000 -24.5432 0.0000
# 4 0.0000 0.0000 0.0000 33.3894 0.0000 -5.6855
# 5 -3.6602 -1.1628 -24.5432 0.0000 30.2919 0.0000
# 6 0.0000 0.0000 0.0000 -5.6855 0.0000 11.5151
#
#
#
# Elastic Compliance Matrix: (Units=1/GPa)
#
#
# Indices 1 2 3 4 5 6 
#
# 1 0.010288 -0.004554 -0.002771 0.000000 -0.001177 0.000000
# 2 -0.004554 0.034185 -0.000344 0.000000 0.000483 0.000000
# 3 -0.002771 -0.000344 0.007420 0.000000 0.005664 0.000000
# 4 0.000000 0.000000 0.000000 0.032699 0.000000 0.016145
# 5 -0.001177 0.000483 0.005664 0.000000 0.037478 0.000000
# 6 0.000000 0.000000 0.000000 0.016145 0.000000 0.094814
#
#
# Mechanical properties :
#
#
# Convention : Reuss Voigt Hill
#
# Bulk Modulus (GPa) = 27.35754 51.38888 39.37321
# Shear Modulus (GPa) = 20.45756 31.57628 26.01692
#
# Velocity S-wave (km/s) = 2.92714 3.63661 3.30099
# Velocity P-wave (km/s) = 4.78353 6.25748 5.56948
#
# Compressibility (1/GPa) = 0.03655299
#
# Stress axis : x y z
#
# Youngs Moduli (GPa) = 97.20267 29.25231 134.76519
#
# Poissons Ratio (x) = 0.13323 0.37349
# Poissons Ratio (y) = 0.44270 0.04642
# Poissons Ratio (z) = 0.26939 0.01008
#
# Static dielectric constant tensor:
#      x y z
#    x 0.225090 0.000000 0.850620 
#    y 0.000000 -1.757380 0.000000 
#    z 0.850620 0.000000 1.466550 
# 
# From -- ./inp_files/260431.got.cif
#   From: 2010.05.17/outbox.cif.g08.bks.cpg/sg15_131_cif.got.tgz:260431.got - 2010.06.03 18:47:42.
