data_PCOD9288516
_publ_section_title
;
Structure prediction by ZEFSAII (Michael W. Deem and Ramdas Pophale) SiO2 
 PCOD9288516
Probable space group: C 2/C
;
_chemical_formula_sum "Si O2"
_cell_formula_units_Z 52
_cell_length_a 15.310982
_cell_length_b 13.524851
_cell_length_c 19.707764
_cell_angle_alpha 90.000000
_cell_angle_beta 32.323576
_cell_angle_gamma 90.000000
_cell_volume 2182.142776
_symmetry_space_group_name_H-M "C 2/C"
_symmetry_group_IT_number 15
_symmetry_cell_setting 'monoclinic'
loop_
_space_group_symop_operation_xyz
x,y,z
-x,y,1/2-z
-x,-y,-z
x,-y,1/2+z
1/2+x,1/2+y,z
1/2-x,1/2+y,1/2-z
1/2-x,1/2-y,-z
1/2+x,1/2-y,1/2+z
loop_
_atom_site_type_symbol
_atom_site_label
_atom_site_fract_x
_atom_site_fract_y
_atom_site_fract_z
Si Si1 0.495106 0.665055 0.444146
Si Si2 0.000000 0.367778 0.750000
Si Si3 0.279860 0.709463 0.312985
Si Si4 0.254363 0.473629 0.906941
Si Si5 0.660230 0.721942 0.469179
Si Si6 0.990762 0.964809 0.368578
Si Si7 0.031521 0.586711 0.379218
O O1 0.552612 0.722805 0.338164
O O2 0.326961 0.699133 0.590509
O O3 0.629782 0.697876 0.410584
O O4 0.497689 0.549517 0.421846
O O5 0.155650 0.300492 0.632196
O O6 0.946351 0.424392 0.716484
O O7 0.301757 0.639528 0.363167
O O8 0.171979 0.637382 0.332704
O O9 0.349658 0.529330 0.783405
O O10 0.336710 0.507363 0.922643
O O11 0.059787 0.488899 0.034822
O O12 0.539705 0.644197 0.584405
O O13 0.610644 0.832152 0.517465
#
# Coordination Sequence:
#
# PCOD9288516 Si02
#       7
#     8   4   8   8   8   8   8
#     4  10  22  42  61  85 116 153 196 241 290 342
#     4  12  22  36  54  88 124 144 192 234 284 346
#     4  10  22  42  61  85 116 153 196 241 290 342
#     4  10  22  39  61  85 115 152 194 237 288 344
#     4  11  23  37  59  85 119 154 188 235 289 347
#     4  10  22  39  61  85 115 152 194 237 288 344
#     4  11  23  37  59  85 119 154 188 235 289 347
#
# _framework density 23.829788000000001
#
# number of rings (size 3 to 8) (size 9 to 14) (size 15 to 20)
#    0.000    1.538    3.077    1.385    2.154    1.846 
#    2.769    0.000    0.000    0.000    0.000    0.000 
#    0.000    0.000    0.000    0.000    0.000    0.000 
#
# Total GULP energy -145190.195809 kJ/mol
# GULP energy per Si atom -5584.238300 kJ/mol
# Density = 2.377555 g / cm^3
# Si number density = 23.829788 Si / 1000 Ang^3
#
#
#
# Elastic Constant Matrix: (Units=GPa)
#
#
# Indices 1 2 3 4 5 6 
#
# 1 56.1356 14.3829 4.3501 0.0001 20.5678 0.0000
# 2 14.3829 32.7837 -0.0383 0.0015 10.9108 -0.0004
# 3 4.3501 -0.0383 46.6779 0.0016 0.0538 -0.0004
# 4 0.0001 0.0015 0.0016 7.5675 0.0001 6.8545
# 5 20.5678 10.9108 0.0538 0.0001 31.8844 -0.0001
# 6 0.0000 -0.0004 -0.0004 6.8545 -0.0001 24.4781
#
#
#
# Elastic Compliance Matrix: (Units=1/GPa)
#
#
# Indices 1 2 3 4 5 6 
#
# 1 0.024625 -0.006230 -0.002284 0.000003 -0.013749 -0.000001
# 2 -0.006230 0.036000 0.000620 -0.000010 -0.008301 0.000004
# 3 -0.002284 0.000620 0.021635 -0.000007 0.001225 0.000002
# 4 0.000003 -0.000010 -0.000007 0.177052 0.000001 -0.049579
# 5 -0.013749 -0.008301 0.001225 0.000001 0.043071 0.000000
# 6 -0.000001 0.000004 0.000002 -0.049579 0.000000 0.054736
#
#
# Mechanical properties :
#
#
# Convention : Reuss Voigt Hill
#
# Bulk Modulus (GPa) = 15.04424 19.22074 17.13249
# Shear Modulus (GPa) = 12.65611 20.57950 16.61780
#
# Velocity S-wave (km/s) = 2.30707 2.94190 2.64361
# Velocity P-wave (km/s) = 3.66383 4.42979 4.06490
#
# Compressibility (1/GPa) = 0.06647063
#
# Stress axis : x y z
#
# Youngs Moduli (GPa) = 40.60933 27.77799 46.22060
#
# Poissons Ratio (x) = 0.17306 0.10558
# Poissons Ratio (y) = 0.25301 -0.02864
# Poissons Ratio (z) = 0.09276 -0.01722
#
# Static dielectric constant tensor:
#      x y z
#    x 1.966750 0.000000 0.007620 
#    y 0.000000 1.864790 0.000000 
#    z 0.007620 0.000000 1.969550 
# 
# From -- ./inp_files/123127.got.cif
#   From: 2010.05.17/outbox.cif.g08.bks.cpg/sg15_62_cif.got.tgz:123127.got - 2010.06.03 18:47:42.
