data_PCOD9288779
_publ_section_title
;
Structure prediction by ZEFSAII (Michael W. Deem and Ramdas Pophale) SiO2 
 PCOD9288779
Probable space group: C 2/C
;
_chemical_formula_sum "Si O2"
_cell_formula_units_Z 56
_cell_length_a 8.092275
_cell_length_b 16.823276
_cell_length_c 18.795099
_cell_angle_alpha 90.000000
_cell_angle_beta 60.485469
_cell_angle_gamma 90.000000
_cell_volume 2226.692581
_symmetry_space_group_name_H-M "C 2/C"
_symmetry_group_IT_number 15
_symmetry_cell_setting 'monoclinic'
loop_
_space_group_symop_operation_xyz
x,y,z
-x,y,1/2-z
-x,-y,-z
x,-y,1/2+z
1/2+x,1/2+y,z
1/2-x,1/2+y,1/2-z
1/2-x,1/2-y,-z
1/2+x,1/2-y,1/2+z
loop_
_atom_site_type_symbol
_atom_site_label
_atom_site_fract_x
_atom_site_fract_y
_atom_site_fract_z
Si Si1 0.136302 0.460630 0.583151
Si Si2 0.170967 0.778622 0.160466
Si Si3 0.188598 0.310112 0.170726
Si Si4 0.716747 0.140258 0.375600
Si Si5 0.088701 0.124745 0.383712
Si Si6 0.434963 0.646391 0.949938
Si Si7 0.962005 0.638852 0.935661
O O1 0.268860 0.446538 0.624163
O O2 0.266684 0.417965 0.494052
O O3 0.930418 0.418540 0.632606
O O4 0.105966 0.550431 0.567228
O O5 0.274591 0.698465 0.161668
O O6 0.317801 0.851099 0.130305
O O7 0.000000 0.792477 0.250000
O O8 0.128781 0.777842 0.084252
O O9 0.242126 0.219613 0.178133
O O10 0.368334 0.368594 0.133980
O O11 0.000000 0.337659 0.250000
O O12 0.132270 0.302246 0.100443
O O13 0.597525 0.159620 0.472418
O O14 0.920631 0.109810 0.363359
O O15 0.009114 0.151824 0.478714
#
# Coordination Sequence:
#
# PCOD9288779 Si02
#       7
#     8   8   8   8   8   8   8
#     4  10  25  42  70 100 138 169 236 287 343 400
#     4  12  23  39  68 101 137 181 234 285 353 412
#     4  12  25  41  68 103 139 179 232 290 348 413
#     4  12  22  42  73  99 134 175 235 284 338 409
#     4  10  22  43  69 100 132 182 227 289 341 407
#     4  10  22  39  64  98 138 173 230 290 336 406
#     4  12  22  44  70 102 132 181 233 288 330 416
#
# _framework density 25.149408999999999
#
# number of rings (size 3 to 8) (size 9 to 14) (size 15 to 20)
#    0.857    0.000    4.286    3.857    0.000    2.286 
#    0.000    1.429    3.143    0.000    0.000    0.000 
#    0.000    0.000    0.000    0.000    0.000    0.000 
#
# Total GULP energy -156229.002337 kJ/mol
# GULP energy per Si atom -5579.607226 kJ/mol
# Density = 2.509217 g / cm^3
# Si number density = 25.149409 Si / 1000 Ang^3
#
#
#
# Elastic Constant Matrix: (Units=GPa)
#
#
# Indices 1 2 3 4 5 6 
#
# 1 135.7130 39.1913 37.4855 0.0000 -28.3970 0.0000
# 2 39.1913 91.3242 23.9645 0.0000 -13.9660 0.0000
# 3 37.4855 23.9645 94.5376 0.0000 -20.6284 0.0000
# 4 0.0000 0.0000 0.0000 3.6994 0.0000 -5.7308
# 5 -28.3970 -13.9660 -20.6284 0.0000 47.7009 0.0000
# 6 0.0000 0.0000 0.0000 -5.7308 0.0000 32.4241
#
#
#
# Elastic Compliance Matrix: (Units=1/GPa)
#
#
# Indices 1 2 3 4 5 6 
#
# 1 0.009658 -0.002962 -0.002223 0.000000 0.003921 0.000000
# 2 -0.002962 0.012887 -0.001826 0.000000 0.001220 0.000000
# 3 -0.002223 -0.001826 0.012717 0.000000 0.003641 0.000000
# 4 0.000000 0.000000 0.000000 0.372228 0.000000 0.065790
# 5 0.003921 0.001220 0.003641 0.000000 0.025230 0.000000
# 6 0.000000 0.000000 0.000000 0.065790 0.000000 0.042469
#
#
# Mechanical properties :
#
#
# Convention : Reuss Voigt Hill
#
# Bulk Modulus (GPa) = 47.08170 58.09527 52.58849
# Shear Modulus (GPa) = 10.07471 31.49379 20.78425
#
# Velocity S-wave (km/s) = 2.00366 3.54258 2.87789
# Velocity P-wave (km/s) = 4.91063 6.31533 5.65675
#
# Compressibility (1/GPa) = 0.02123967
#
# Stress axis : x y z
#
# Youngs Moduli (GPa) = 103.53723 77.59872 78.63628
#
# Poissons Ratio (x) = 0.22983 0.17483
# Poissons Ratio (y) = 0.30665 0.14360
# Poissons Ratio (z) = 0.23019 0.14170
#
# Static dielectric constant tensor:
#      x y z
#    x 2.192300 0.000000 -0.000710 
#    y 0.000000 1.939920 0.000000 
#    z -0.000710 0.000000 1.967870 
# 
# From -- ./inp_files/233749.got.cif
#   From: 2010.05.17/outbox.cif.g08.bks.cpg/sg15_117_cif.got.tgz:233749.got - 2010.06.03 18:47:42.
