data_PCOD9288873
_publ_section_title
;
Structure prediction by ZEFSAII (Michael W. Deem and Ramdas Pophale) SiO2 
 PCOD9288873
Probable space group: C 2/C
;
_chemical_formula_sum "Si O2"
_cell_formula_units_Z 52
_cell_length_a 14.240814
_cell_length_b 32.277413
_cell_length_c 9.001513
_cell_angle_alpha 90.000000
_cell_angle_beta 37.261733
_cell_angle_gamma 90.000000
_cell_volume 2505.141935
_symmetry_space_group_name_H-M "C 2/C"
_symmetry_group_IT_number 15
_symmetry_cell_setting 'monoclinic'
loop_
_space_group_symop_operation_xyz
x,y,z
-x,y,1/2-z
-x,-y,-z
x,-y,1/2+z
1/2+x,1/2+y,z
1/2-x,1/2+y,1/2-z
1/2-x,1/2-y,-z
1/2+x,1/2-y,1/2+z
loop_
_atom_site_type_symbol
_atom_site_label
_atom_site_fract_x
_atom_site_fract_y
_atom_site_fract_z
Si Si1 0.835042 0.514333 0.140172
Si Si2 0.500000 0.921416 0.250000
Si Si3 0.475511 0.143619 0.527146
Si Si4 0.627295 0.722163 0.749306
Si Si5 0.842779 0.269750 0.244707
Si Si6 0.740630 0.635897 0.544031
Si Si7 0.346366 0.456256 0.354870
O O1 0.721310 0.480466 0.204923
O O2 0.773123 0.536997 0.362540
O O3 0.865432 0.548106 0.974429
O O4 0.000000 0.500000 0.000000
O O5 0.549653 0.892394 0.322716
O O6 0.442399 0.188311 0.643829
O O7 0.358370 0.139037 0.536094
O O8 0.647254 0.139191 0.241092
O O9 0.750000 0.750000 0.500000
O O10 0.702942 0.718316 0.814666
O O11 0.633202 0.676079 0.679224
O O12 0.459895 0.741575 0.996872
O O13 0.750000 0.250000 0.500000
O O14 0.649787 0.592932 0.676622
O O15 0.500000 0.471039 0.250000
#
# Coordination Sequence:
#
# PCOD9288873 Si02
#       7
#     8   4   8   8   8   8   8
#     4  12  24  44  72 101 129 181 231 275 342 424
#     4  12  22  38  70 100 120 168 240 272 326 392
#     4  10  22  39  66  97 126 174 231 284 323 404
#     4  11  22  41  66  95 127 178 229 271 334 412
#     4  11  24  41  65  95 136 177 219 283 346 399
#     4  10  22  42  65  92 133 175 226 279 338 400
#     4  12  26  44  68 101 140 177 222 292 354 405
#
# _framework density 20.757306
#
# number of rings (size 3 to 8) (size 9 to 14) (size 15 to 20)
#    0.000    0.923    4.615    2.308    4.308    1.231 
#    2.769    0.000    0.000    0.000    0.000    0.000 
#    0.000    0.000    0.000    0.000    0.000    0.000 
#
# Total GULP energy -144918.032598 kJ/mol
# GULP energy per Si atom -5573.770485 kJ/mol
# Density = 2.071006 g / cm^3
# Si number density = 20.757306 Si / 1000 Ang^3
#
#
#
# Elastic Constant Matrix: (Units=GPa)
#
#
# Indices 1 2 3 4 5 6 
#
# 1 99.4098 29.9495 6.7614 0.0000 -1.6669 0.0000
# 2 29.9495 139.2548 21.9371 0.0000 9.0082 0.0000
# 3 6.7614 21.9371 72.4564 0.0000 12.4428 0.0000
# 4 0.0000 0.0000 0.0000 34.0680 0.0000 9.0250
# 5 -1.6669 9.0082 12.4428 0.0000 34.3016 0.0000
# 6 0.0000 0.0000 0.0000 9.0250 0.0000 28.5434
#
#
#
# Elastic Compliance Matrix: (Units=1/GPa)
#
#
# Indices 1 2 3 4 5 6 
#
# 1 0.010820 -0.002329 -0.000533 0.000000 0.001331 0.000000
# 2 -0.002329 0.008091 -0.001971 0.000000 -0.001523 0.000000
# 3 -0.000533 -0.001971 0.015318 0.000000 -0.005065 0.000000
# 4 0.000000 0.000000 0.000000 0.032036 0.000000 -0.010129
# 5 0.001331 -0.001523 -0.005065 0.000000 0.031455 0.000000
# 6 0.000000 0.000000 0.000000 -0.010129 0.000000 0.038237
#
#
# Mechanical properties :
#
#
# Convention : Reuss Voigt Hill
#
# Bulk Modulus (GPa) = 40.71251 47.60188 44.15720
# Shear Modulus (GPa) = 32.50764 36.21414 34.36089
#
# Velocity S-wave (km/s) = 3.96167 4.18143 4.07303
# Velocity P-wave (km/s) = 6.37045 6.80403 6.59080
#
# Compressibility (1/GPa) = 0.02456247
#
# Stress axis : x y z
#
# Youngs Moduli (GPa) = 92.42455 123.59442 65.28447
#
# Poissons Ratio (x) = 0.28786 0.03480
# Poissons Ratio (y) = 0.21527 0.12866
# Poissons Ratio (z) = 0.04926 0.24357
#
# Static dielectric constant tensor:
#      x y z
#    x 1.693350 0.000000 0.081980 
#    y 0.000000 1.788990 0.000000 
#    z 0.081980 0.000000 1.496870 
# 
# From -- ./inp_files/44776.got.cif
#   From: 2010.05.17/outbox.cif.g08.bks.cpg/sg15_23_cif.got.tgz:44776.got - 2010.06.03 18:47:42.
