data_PCOD9288160
_publ_section_title
;
Structure prediction by ZEFSAII (Michael W. Deem and Ramdas Pophale) SiO2 
 PCOD9288160
Probable space group: C 2/C
;
_chemical_formula_sum "Si O2"
_cell_formula_units_Z 48
_cell_length_a 16.649568
_cell_length_b 9.243609
_cell_length_c 29.865563
_cell_angle_alpha 90.000000
_cell_angle_beta 30.635848
_cell_angle_gamma 90.000000
_cell_volume 2342.218955
_symmetry_space_group_name_H-M "C 2/C"
_symmetry_group_IT_number 15
_symmetry_cell_setting 'monoclinic'
loop_
_space_group_symop_operation_xyz
x,y,z
-x,y,1/2-z
-x,-y,-z
x,-y,1/2+z
1/2+x,1/2+y,z
1/2-x,1/2+y,1/2-z
1/2-x,1/2-y,-z
1/2+x,1/2-y,1/2+z
loop_
_atom_site_type_symbol
_atom_site_label
_atom_site_fract_x
_atom_site_fract_y
_atom_site_fract_z
Si Si1 0.805146 0.394397 0.997477
Si Si2 0.165588 0.479015 0.842485
Si Si3 0.175342 0.672468 0.751298
Si Si4 0.305866 0.150874 0.931683
Si Si5 0.184678 0.840615 0.149938
Si Si6 0.806842 0.498522 0.843352
O O1 0.704690 0.404097 0.090706
O O2 0.750000 0.250000 0.000000
O O3 0.784410 0.500459 0.966354
O O4 0.983612 0.428277 0.927720
O O5 0.200356 0.596996 0.787105
O O6 0.255743 0.330884 0.788507
O O7 0.218418 0.557655 0.862609
O O8 0.238827 0.562328 0.682967
O O9 0.987631 0.687999 0.836572
O O10 0.244998 0.112737 0.910700
O O11 0.250000 0.250000 0.000000
O O12 0.237630 0.670346 0.127223
O O13 0.000000 0.843619 0.250000
O O14 0.000000 0.498306 0.750000
#
# Coordination Sequence:
#
# PCOD9288160 Si02
#       6
#     8   8   8   8   8   8
#     4  11  24  44  67  94 132 179 219 278 334 405
#     4  11  25  42  66  98 134 172 226 283 331 405
#     4  10  23  40  64  89 132 169 218 273 340 389
#     4  10  22  38  64  94 131 166 222 276 333 397
#     4  11  24  41  71  95 132 175 226 270 343 402
#     4   9  19  40  62  93 127 172 214 270 328 402
#
# _framework density 20.493386999999998
#
# number of rings (size 3 to 8) (size 9 to 14) (size 15 to 20)
#    0.000    1.667    1.667    1.500    9.333    0.667 
#    0.000    0.833    0.000    0.000    0.000    0.000 
#    0.000    0.000    0.000    0.000    0.000    0.000 
#
# Total GULP energy -133656.689212 kJ/mol
# GULP energy per Si atom -5569.028717 kJ/mol
# Density = 2.044674 g / cm^3
# Si number density = 20.493387 Si / 1000 Ang^3
#
#
#
# Elastic Constant Matrix: (Units=GPa)
#
#
# Indices 1 2 3 4 5 6 
#
# 1 70.0077 -42.1251 60.4024 0.0001 -56.2524 0.0000
# 2 -42.1251 -186.1274 331.8570 0.0006 -653.7563 0.0012
# 3 60.4024 331.8570 -367.4549 -0.0007 902.8666 -0.0026
# 4 0.0001 0.0006 -0.0007 36.0925 0.0016 12.3237
# 5 -56.2524 -653.7563 902.8666 0.0016-1685.4599 0.0052
# 6 0.0000 0.0012 -0.0026 12.3237 0.0052 25.5778
#
#
#
# Elastic Compliance Matrix: (Units=1/GPa)
#
#
# Indices 1 2 3 4 5 6 
#
# 1 0.016593 0.003991 -0.003693 0.000000 -0.004080 0.000000
# 2 0.003991 0.016451 0.001558 0.000000 -0.005680 0.000001
# 3 -0.003693 0.001558 0.009814 0.000000 0.004776 0.000000
# 4 0.000000 0.000000 0.000000 0.033162 0.000000 -0.015978
# 5 -0.004080 -0.005680 0.004776 0.000000 0.004304 0.000000
# 6 0.000000 0.000001 0.000000 -0.015978 0.000000 0.046795
#
#
# Mechanical properties :
#
#
# Convention : Reuss Voigt Hill
#
# Bulk Modulus (GPa) = 21.47265 24.07711 22.77488
# Shear Modulus (GPa) = 35.98922 -380.33852 -172.17465
#
# Velocity S-wave (km/s) = 4.19518 -13.63795 -9.17590
# Velocity P-wave (km/s) = 5.82809 15.36937 10.05611
#
# Compressibility (1/GPa) = 0.04657088
#
# Stress axis : x y z
#
# Youngs Moduli (GPa) = 60.26543 60.78793 101.89160
#
# Poissons Ratio (x) = -0.24260 0.37624
# Poissons Ratio (y) = -0.24051 -0.15874
# Poissons Ratio (z) = 0.22253 -0.09470
#
# Static dielectric constant tensor:
#      x y z
#    x 1.711880 0.000000 0.008650 
#    y 0.000000 1.689050 0.000000 
#    z 0.008650 0.000000 1.761060 
# 
# From -- ./inp_files/177009.got.cif
#   From: 2010.05.17/outbox.cif.g08.bks.cpg/sg15_89_cif.got.tgz:177009.got - 2010.06.03 18:47:42.
