data_PCOD9288453
_publ_section_title
;
Structure prediction by ZEFSAII (Michael W. Deem and Ramdas Pophale) SiO2 
 PCOD9288453
Probable space group: C 2/C
;
_chemical_formula_sum "Si O2"
_cell_formula_units_Z 48
_cell_length_a 4.920728
_cell_length_b 16.137780
_cell_length_c 30.930409
_cell_angle_alpha 90.000000
_cell_angle_beta 63.791309
_cell_angle_gamma 90.000000
_cell_volume 2203.656554
_symmetry_space_group_name_H-M "C 2/C"
_symmetry_group_IT_number 15
_symmetry_cell_setting 'monoclinic'
loop_
_space_group_symop_operation_xyz
x,y,z
-x,y,1/2-z
-x,-y,-z
x,-y,1/2+z
1/2+x,1/2+y,z
1/2-x,1/2+y,1/2-z
1/2-x,1/2-y,-z
1/2+x,1/2-y,1/2+z
loop_
_atom_site_type_symbol
_atom_site_label
_atom_site_fract_x
_atom_site_fract_y
_atom_site_fract_z
Si Si1 0.993805 0.385078 0.104525
Si Si2 0.326888 0.844095 0.717367
Si Si3 0.673843 0.428003 0.042774
Si Si4 0.773374 0.447341 0.644429
Si Si5 0.110040 0.798411 0.872235
Si Si6 0.897337 0.099428 0.051011
O O1 0.915876 0.390265 0.058583
O O2 0.756944 0.454300 0.138547
O O3 0.980778 0.295923 0.127578
O O4 0.342327 0.409621 0.084967
O O5 0.500000 0.852661 0.750000
O O6 0.277220 0.929468 0.695066
O O7 0.541495 0.798475 0.667803
O O8 0.000000 0.805744 0.750000
O O9 0.655815 0.528741 0.039517
O O10 0.676374 0.393545 0.994031
O O11 0.541152 0.378214 0.641482
O O12 0.090060 0.428143 0.597605
O O13 0.033532 0.817739 0.927664
#
# Coordination Sequence:
#
# PCOD9288453 Si02
#       6
#     8   8   8   8   8   8
#     4  11  25  39  63  95 130 168 212 260 315 370
#     4  11  23  43  72  91 118 159 202 256 326 389
#     4  10  22  39  59  92 132 172 221 260 297 376
#     4  10  22  43  66  92 126 166 209 262 319 386
#     4  11  23  41  68  92 127 168 208 264 324 383
#     4   9  21  37  63  89 129 177 215 259 313 358
#
# _framework density 21.781977999999999
#
# number of rings (size 3 to 8) (size 9 to 14) (size 15 to 20)
#    0.000    1.667    3.333    0.000    7.000    3.333 
#    0.000    0.833    7.333    0.000    0.000    0.000 
#    0.000    0.000    0.000    0.000    0.000    0.000 
#
# Total GULP energy -133723.753144 kJ/mol
# GULP energy per Si atom -5571.823048 kJ/mol
# Density = 2.173240 g / cm^3
# Si number density = 21.781978 Si / 1000 Ang^3
#
#
#
# Elastic Constant Matrix: (Units=GPa)
#
#
# Indices 1 2 3 4 5 6 
#
# 1 78.6151 10.7364 0.4771 0.0000 2.1454 0.0000
# 2 10.7364 103.8498 8.5017 0.0000 -8.1118 0.0000
# 3 0.4771 8.5017 49.7613 0.0000 -5.0540 0.0000
# 4 0.0000 0.0000 0.0000 4.9919 0.0000 -4.7885
# 5 2.1454 -8.1118 -5.0540 0.0000 34.7324 0.0000
# 6 0.0000 0.0000 0.0000 -4.7885 0.0000 14.7126
#
#
#
# Elastic Compliance Matrix: (Units=1/GPa)
#
#
# Indices 1 2 3 4 5 6 
#
# 1 0.012946 -0.001427 0.000005 0.000000 -0.001132 0.000000
# 2 -0.001427 0.010072 -0.001481 0.000000 0.002225 0.000000
# 3 0.000005 -0.001481 0.020619 0.000000 0.002654 0.000000
# 4 0.000000 0.000000 0.000000 0.291263 0.000000 0.094798
# 5 -0.001132 0.002225 0.002654 0.000000 0.029767 0.000000
# 6 0.000000 0.000000 0.000000 0.094798 0.000000 0.098823
#
#
# Mechanical properties :
#
#
# Convention : Reuss Voigt Hill
#
# Bulk Modulus (GPa) = 26.43466 30.18405 28.30936
# Shear Modulus (GPa) = 10.37546 25.05477 17.71511
#
# Velocity S-wave (km/s) = 2.18487 3.39522 2.85492
# Velocity P-wave (km/s) = 4.30433 5.40901 4.88798
#
# Compressibility (1/GPa) = 0.03782912
#
# Stress axis : x y z
#
# Youngs Moduli (GPa) = 77.24398 99.28627 48.50013
#
# Poissons Ratio (x) = 0.14170 -0.00023
# Poissons Ratio (y) = 0.11025 0.07183
# Poissons Ratio (z) = -0.00037 0.14706
#
# Static dielectric constant tensor:
#      x y z
#    x 1.885780 0.000000 0.019500 
#    y 0.000000 1.878890 0.000000 
#    z 0.019500 0.000000 1.809460 
# 
# From -- ./inp_files/305307.got.cif
#   From: 2010.05.17/outbox.cif.g08.bks.cpg/sg15_153_cif.got.tgz:305307.got - 2010.06.03 18:47:42.
