data_PCOD9288546
_publ_section_title
;
Structure prediction by ZEFSAII (Michael W. Deem and Ramdas Pophale) SiO2 
 PCOD9288546
Probable space group: C 2/C
;
_chemical_formula_sum "Si O2"
_cell_formula_units_Z 64
_cell_length_a 28.133471
_cell_length_b 5.184854
_cell_length_c 19.055341
_cell_angle_alpha 90.000000
_cell_angle_beta 101.993332
_cell_angle_gamma 90.000000
_cell_volume 2718.890440
_symmetry_space_group_name_H-M "C 2/C"
_symmetry_group_IT_number 15
_symmetry_cell_setting 'monoclinic'
loop_
_space_group_symop_operation_xyz
x,y,z
-x,y,1/2-z
-x,-y,-z
x,-y,1/2+z
1/2+x,1/2+y,z
1/2-x,1/2+y,1/2-z
1/2-x,1/2-y,-z
1/2+x,1/2-y,1/2+z
loop_
_atom_site_type_symbol
_atom_site_label
_atom_site_fract_x
_atom_site_fract_y
_atom_site_fract_z
Si Si1 0.319104 0.787421 0.737015
Si Si2 0.167492 0.321664 0.358153
Si Si3 0.761785 0.523355 0.349133
Si Si4 0.952506 0.498558 0.583240
Si Si5 0.077504 0.996860 0.836573
Si Si6 0.097732 0.975884 0.682204
Si Si7 0.932924 0.476427 0.914538
Si Si8 0.283705 0.002385 0.000780
O O1 0.275004 0.711071 0.672650
O O2 0.347042 0.541848 0.776792
O O3 0.353775 0.984437 0.706346
O O4 0.293168 0.930156 0.791694
O O5 0.172976 0.473696 0.432178
O O6 0.221714 0.244874 0.350787
O O7 0.135061 0.071264 0.359848
O O8 0.797957 0.495011 0.424530
O O9 0.937046 0.254700 0.626660
O O10 0.944783 0.755138 0.627639
O O11 0.009487 0.482325 0.583275
O O12 0.927248 0.508005 0.497816
O O13 0.068864 0.990395 0.748873
O O14 0.085001 0.210821 0.626080
O O15 0.089962 0.714947 0.636317
O O16 0.250000 0.250000 0.000000
O O17 0.250000 0.750000 0.000000
#
# Coordination Sequence:
#
# PCOD9288546 Si02
#       8
#     8   8   8   8   8   8   8   8
#     4  12  23  41  67  99 138 192 245 296 362 422
#     4  11  23  42  64  96 143 186 240 304 354 412
#     4  11  23  40  65  92 133 189 244 292 347 415
#     4  11  26  48  76 104 142 189 237 284 370 447
#     4  12  25  43  73 110 144 190 234 294 366 438
#     4  12  26  44  72 108 148 182 238 303 364 427
#     4  11  26  50  74 105 145 185 231 300 359 446
#     4  10  22  39  61  90 124 177 237 293 343 406
#
# _framework density 23.539014000000002
#
# number of rings (size 3 to 8) (size 9 to 14) (size 15 to 20)
#    0.000    0.750    3.750    3.750    0.000    7.000 
#    0.000    1.250    0.000    0.000    0.000    0.000 
#    0.000    0.000    0.000    0.000    0.000    0.000 
#
# Total GULP energy -178886.400472 kJ/mol
# GULP energy per Si atom -5590.200015 kJ/mol
# Density = 2.348544 g / cm^3
# Si number density = 23.539014 Si / 1000 Ang^3
#
#
#
# Elastic Constant Matrix: (Units=GPa)
#
#
# Indices 1 2 3 4 5 6 
#
# 1 52.0475 10.2530 1.2623 0.0000 -5.6646 0.0000
# 2 10.2530 161.9679 44.9149 0.0000 -3.6560 0.0000
# 3 1.2623 44.9149 129.1297 0.0000 -0.4025 0.0000
# 4 0.0000 0.0000 0.0000 34.4068 0.0000 0.3367
# 5 -5.6646 -3.6560 -0.4025 0.0000 34.4037 0.0000
# 6 0.0000 0.0000 0.0000 0.3367 0.0000 28.5358
#
#
#
# Elastic Compliance Matrix: (Units=1/GPa)
#
#
# Indices 1 2 3 4 5 6 
#
# 1 0.019794 -0.001252 0.000252 0.000000 0.003129 0.000000
# 2 -0.001252 0.006929 -0.002396 0.000000 0.000502 0.000000
# 3 0.000252 -0.002396 0.008575 0.000000 -0.000113 0.000000
# 4 0.000000 0.000000 0.000000 0.029067 0.000000 -0.000343
# 5 0.003129 0.000502 -0.000113 0.000000 0.029634 0.000000
# 6 0.000000 0.000000 0.000000 -0.000343 0.000000 0.035048
#
#
# Mechanical properties :
#
#
# Convention : Reuss Voigt Hill
#
# Bulk Modulus (GPa) = 35.08177 50.66727 42.87452
# Shear Modulus (GPa) = 34.40148 38.58358 36.49253
#
# Velocity S-wave (km/s) = 3.82706 4.05301 3.94166
# Velocity P-wave (km/s) = 5.87065 6.59349 6.24254
#
# Compressibility (1/GPa) = 0.02850483
#
# Stress axis : x y z
#
# Youngs Moduli (GPa) = 50.51951 144.31690 116.61996
#
# Poissons Ratio (x) = 0.18072 -0.02937
# Poissons Ratio (y) = 0.06326 0.27946
# Poissons Ratio (z) = -0.01272 0.34584
#
# Static dielectric constant tensor:
#      x y z
#    x 1.902620 0.000000 0.018670 
#    y 0.000000 1.947270 0.000000 
#    z 0.018670 0.000000 1.936460 
# 
# From -- ./inp_files/223910.got.cif
#   From: 2010.05.17/outbox.cif.g08.bks.cpg/sg15_112_cif.got.tgz:223910.got - 2010.06.03 18:47:42.
