data_PCOD9288923
_publ_section_title
;
Structure prediction by ZEFSAII (Michael W. Deem and Ramdas Pophale) SiO2 
 PCOD9288923
Probable space group: C 2/C
;
_chemical_formula_sum "Si O2"
_cell_formula_units_Z 64
_cell_length_a 14.596659
_cell_length_b 16.706845
_cell_length_c 15.461925
_cell_angle_alpha 90.000000
_cell_angle_beta 61.900479
_cell_angle_gamma 90.000000
_cell_volume 3326.170105
_symmetry_space_group_name_H-M "C 2/C"
_symmetry_group_IT_number 15
_symmetry_cell_setting 'monoclinic'
loop_
_space_group_symop_operation_xyz
x,y,z
-x,y,1/2-z
-x,-y,-z
x,-y,1/2+z
1/2+x,1/2+y,z
1/2-x,1/2+y,1/2-z
1/2-x,1/2-y,-z
1/2+x,1/2-y,1/2+z
loop_
_atom_site_type_symbol
_atom_site_label
_atom_site_fract_x
_atom_site_fract_y
_atom_site_fract_z
Si Si1 0.104225 0.816307 0.821217
Si Si2 0.444738 0.080636 0.557195
Si Si3 0.411319 0.204172 0.928659
Si Si4 0.743924 0.736664 0.863505
Si Si5 0.271814 0.598260 0.769509
Si Si6 0.961248 0.995360 0.615708
Si Si7 0.352952 0.241415 0.515162
Si Si8 0.918223 0.865996 0.355398
O O1 0.189146 0.808746 0.707914
O O2 0.058284 0.904074 0.851883
O O3 0.003720 0.760294 0.853301
O O4 0.157062 0.781581 0.885613
O O5 0.532627 0.122209 0.575500
O O6 0.342426 0.064604 0.660579
O O7 0.405267 0.153282 0.508485
O O8 0.500000 0.000000 0.500000
O O9 0.319206 0.197820 0.901530
O O10 0.359577 0.238127 0.039948
O O11 0.729545 0.674057 0.793101
O O12 0.353089 0.538873 0.688072
O O13 0.314663 0.624542 0.844884
O O14 0.000000 0.000000 0.500000
O O15 0.046350 0.045707 0.631210
O O16 0.250000 0.250000 0.500000
O O17 0.423723 0.305306 0.432225
O O18 0.000000 0.834626 0.250000
#
# Coordination Sequence:
#
# PCOD9288923 Si02
#       8
#     8   8   8   8   8   8   8   8
#     4  11  22  40  69  95 128 167 221 273 326 397
#     4  11  25  44  64  94 137 174 222 274 334 406
#     4  10  24  42  68  93 127 173 220 273 326 405
#     4  11  22  42  67  95 123 176 221 261 333 395
#     4  11  23  42  65  93 136 175 212 274 337 394
#     4  11  23  40  63 102 134 162 219 280 333 383
#     4  11  20  43  68  93 128 176 222 271 328 402
#     4  10  22  39  67  96 131 170 217 279 336 386
#
# _framework density 19.241350000000001
#
# number of rings (size 3 to 8) (size 9 to 14) (size 15 to 20)
#    0.000    1.250    5.000    1.125    7.000    3.000 
#    6.750    0.000    0.000    0.000    0.000    0.000 
#    0.000    0.000    0.000    0.000    0.000    0.000 
#
# Total GULP energy -178341.528622 kJ/mol
# GULP energy per Si atom -5573.172769 kJ/mol
# Density = 1.919756 g / cm^3
# Si number density = 19.241350 Si / 1000 Ang^3
#
#
#
# Elastic Constant Matrix: (Units=GPa)
#
#
# Indices 1 2 3 4 5 6 
#
# 1 91.1355 22.4344 25.3094 0.0000 4.2226 0.0000
# 2 22.4344 120.4613 25.1922 0.0000 8.4183 0.0000
# 3 25.3094 25.1922 105.2874 0.0000 1.6354 0.0000
# 4 0.0000 0.0000 0.0000 31.2765 0.0000 -0.1132
# 5 4.2226 8.4183 1.6354 0.0000 25.3894 0.0000
# 6 0.0000 0.0000 0.0000 -0.1132 0.0000 12.4396
#
#
#
# Elastic Compliance Matrix: (Units=1/GPa)
#
#
# Indices 1 2 3 4 5 6 
#
# 1 0.012133 -0.001645 -0.002503 0.000000 -0.001311 0.000000
# 2 -0.001645 0.009160 -0.001755 0.000000 -0.002651 0.000000
# 3 -0.002503 -0.001755 0.010514 0.000000 0.000321 0.000000
# 4 0.000000 0.000000 0.000000 0.031974 0.000000 0.000291
# 5 -0.001311 -0.002651 0.000321 0.000000 0.040463 0.000000
# 6 0.000000 0.000000 0.000000 0.000291 0.000000 0.080391
#
#
# Mechanical properties :
#
#
# Convention : Reuss Voigt Hill
#
# Bulk Modulus (GPa) = 49.99362 51.41734 50.70548
# Shear Modulus (GPa) = 24.61738 30.08430 27.35084
#
# Velocity S-wave (km/s) = 3.58075 3.95843 3.77432
# Velocity P-wave (km/s) = 6.56769 6.90453 6.73821
#
# Compressibility (1/GPa) = 0.02000255
#
# Stress axis : x y z
#
# Youngs Moduli (GPa) = 82.41758 109.17008 95.10747
#
# Poissons Ratio (x) = 0.17954 0.23803
# Poissons Ratio (y) = 0.13555 0.16693
# Poissons Ratio (z) = 0.20627 0.19162
#
# Static dielectric constant tensor:
#      x y z
#    x 1.748960 0.000000 -0.008720 
#    y 0.000000 1.710580 0.000000 
#    z -0.008720 0.000000 1.710970 
# 
# From -- ./inp_files/155190.got.cif
#   From: 2010.05.17/outbox.cif.g08.bks.cpg/sg15_78_cif.got.tgz:155190.got - 2010.06.03 18:47:42.
