data_PCOD9288099
_publ_section_title
;
Structure prediction by ZEFSAII (Michael W. Deem and Ramdas Pophale) SiO2 
 PCOD9288099
Probable space group: C 2/C
;
_chemical_formula_sum "Si O2"
_cell_formula_units_Z 48
_cell_length_a 11.988447
_cell_length_b 10.660054
_cell_length_c 24.661777
_cell_angle_alpha 90.000000
_cell_angle_beta 47.814354
_cell_angle_gamma 90.000000
_cell_volume 2335.333973
_symmetry_space_group_name_H-M "C 2/C"
_symmetry_group_IT_number 15
_symmetry_cell_setting 'monoclinic'
loop_
_space_group_symop_operation_xyz
x,y,z
-x,y,1/2-z
-x,-y,-z
x,-y,1/2+z
1/2+x,1/2+y,z
1/2-x,1/2+y,1/2-z
1/2-x,1/2-y,-z
1/2+x,1/2-y,1/2+z
loop_
_atom_site_type_symbol
_atom_site_label
_atom_site_fract_x
_atom_site_fract_y
_atom_site_fract_z
Si Si1 0.139816 0.698104 0.581353
Si Si2 0.294908 0.691924 0.699902
Si Si3 0.862862 0.125832 0.322382
Si Si4 0.832551 0.662499 0.292523
Si Si5 0.365093 0.541577 0.583064
Si Si6 0.818623 0.588229 0.657909
O O1 0.250000 0.750000 0.500000
O O2 0.100614 0.819603 0.631058
O O3 0.236858 0.603978 0.587071
O O4 0.990679 0.633732 0.605972
O O5 0.163449 0.753505 0.707316
O O6 0.337832 0.802778 0.726987
O O7 0.407319 0.639895 0.617549
O O8 0.236801 0.586184 0.760813
O O9 0.000000 0.052271 0.250000
O O10 0.718258 0.036868 0.363069
O O11 0.711641 0.569378 0.357515
O O12 0.783538 0.798539 0.332729
O O13 0.000000 0.618936 0.250000
O O14 0.500000 0.500000 0.500000
#
# Coordination Sequence:
#
# PCOD9288099 Si02
#       6
#     8   8   8   8   8   8
#     4  11  25  42  64  91 130 173 217 273 339 403
#     4   9  22  38  64  92 127 166 223 259 329 397
#     4  11  20  39  66  93 126 170 219 275 331 397
#     4  10  22  38  63  97 129 165 223 272 324 403
#     4  11  24  42  66  95 134 173 214 274 348 390
#     4  10  22  38  64  95 122 168 225 270 325 397
#
# _framework density 20.553806000000002
#
# number of rings (size 3 to 8) (size 9 to 14) (size 15 to 20)
#    1.000    0.667    1.667    2.500    4.667    2.000 
#    0.000    0.833    0.000    0.000    0.000    0.000 
#    0.000    0.000    0.000    0.000    0.000    0.000 
#
# Total GULP energy -133607.205246 kJ/mol
# GULP energy per Si atom -5566.966885 kJ/mol
# Density = 2.050702 g / cm^3
# Si number density = 20.553806 Si / 1000 Ang^3
#
#
#
# Elastic Constant Matrix: (Units=GPa)
#
#
# Indices 1 2 3 4 5 6 
#
# 1 60.0645 24.2061 42.1323 0.0000 -14.7453 0.0000
# 2 24.2061 86.0100 41.4105 0.0000 -0.4710 0.0000
# 3 42.1323 41.4105 145.7277 0.0000 -6.1912 0.0000
# 4 0.0000 0.0000 0.0000 35.0986 0.0000 0.4245
# 5 -14.7453 -0.4710 -6.1912 0.0000 23.6207 0.0000
# 6 0.0000 0.0000 0.0000 0.4245 0.0000 28.8957
#
#
#
# Elastic Compliance Matrix: (Units=1/GPa)
#
#
# Indices 1 2 3 4 5 6 
#
# 1 0.026016 -0.004542 -0.005607 0.000000 0.014680 0.000000
# 2 -0.004542 0.014275 -0.002884 0.000000 -0.003306 0.000000
# 3 -0.005607 -0.002884 0.009255 0.000000 -0.001132 0.000000
# 4 0.000000 0.000000 0.000000 0.028496 0.000000 -0.000419
# 5 0.014680 -0.003306 -0.001132 0.000000 0.051137 0.000000
# 6 0.000000 0.000000 0.000000 -0.000419 0.000000 0.034613
#
#
# Mechanical properties :
#
#
# Convention : Reuss Voigt Hill
#
# Bulk Modulus (GPa) = 42.58922 56.36665 49.47794
# Shear Modulus (GPa) = 25.29264 29.79322 27.54293
#
# Velocity S-wave (km/s) = 3.51174 3.81139 3.66463
# Velocity P-wave (km/s) = 6.09991 6.84488 6.48310
#
# Compressibility (1/GPa) = 0.02348012
#
# Stress axis : x y z
#
# Youngs Moduli (GPa) = 38.43730 70.05208 108.05304
#
# Poissons Ratio (x) = 0.31816 0.60591
# Poissons Ratio (y) = 0.17457 0.31161
# Poissons Ratio (z) = 0.21554 0.20202
#
# Static dielectric constant tensor:
#      x y z
#    x 1.771550 0.000000 0.024890 
#    y 0.000000 1.819360 0.000000 
#    z 0.024890 0.000000 1.771790 
# 
# From -- ./inp_files/237401.got.cif
#   From: 2010.05.17/outbox.cif.g08.bks.cpg/sg15_119_cif.got.tgz:237401.got - 2010.06.03 18:47:42.
