data_PCOD9288386
_publ_section_title
;
Structure prediction by ZEFSAII (Michael W. Deem and Ramdas Pophale) SiO2 
 PCOD9288386
Probable space group: C 2/C
;
_chemical_formula_sum "Si O2"
_cell_formula_units_Z 28
_cell_length_a 10.851425
_cell_length_b 12.580292
_cell_length_c 8.499482
_cell_angle_alpha 90.000000
_cell_angle_beta 106.840734
_cell_angle_gamma 90.000000
_cell_volume 1110.538241
_symmetry_space_group_name_H-M "C 2/C"
_symmetry_group_IT_number 15
_symmetry_cell_setting 'monoclinic'
loop_
_space_group_symop_operation_xyz
x,y,z
-x,y,1/2-z
-x,-y,-z
x,-y,1/2+z
1/2+x,1/2+y,z
1/2-x,1/2+y,1/2-z
1/2-x,1/2-y,-z
1/2+x,1/2-y,1/2+z
loop_
_atom_site_type_symbol
_atom_site_label
_atom_site_fract_x
_atom_site_fract_y
_atom_site_fract_z
Si Si1 0.347533 0.785526 0.177129
Si Si2 0.849073 0.120672 0.417373
Si Si3 0.095770 0.523030 0.395630
Si Si4 0.500000 0.461111 0.250000
O O1 0.500000 0.751161 0.250000
O O2 0.302187 0.728366 0.318306
O O3 0.360947 0.911632 0.167252
O O4 0.250000 0.750000 0.000000
O O5 0.960800 0.112538 0.587841
O O6 0.728103 0.078918 0.470205
O O7 0.893162 0.040513 0.290656
O O8 0.000000 0.589280 0.250000
O O9 0.000000 0.500000 0.500000
#
# Coordination Sequence:
#
# PCOD9288386 Si02
#       4
#     8   8   8   4
#     4  11  24  44  74 106 148 197 253 320 380 457
#     4  11  22  45  76 106 151 198 257 313 380 456
#     4  11  24  44  72 103 147 197 243 309 391 457
#     4  10  22  38  76 110 144 198 252 316 378 432
#
# _framework density 25.212997999999999
#
# number of rings (size 3 to 8) (size 9 to 14) (size 15 to 20)
#    0.000    1.143    1.429    5.143    4.000    0.000 
#    0.000   12.857   15.714    0.000    0.000    0.000 
#    0.000    0.000    0.000    0.000    0.000    0.000 
#
# Total GULP energy -78038.987376 kJ/mol
# GULP energy per Si atom -5574.213384 kJ/mol
# Density = 2.515561 g / cm^3
# Si number density = 25.212998 Si / 1000 Ang^3
#
#
#
# Elastic Constant Matrix: (Units=GPa)
#
#
# Indices 1 2 3 4 5 6 
#
# 1 111.3112 26.5664 23.9862 0.0000 -11.6523 0.0000
# 2 26.5664 114.7703 57.1095 0.0000 -0.1381 0.0000
# 3 23.9862 57.1095 153.6836 0.0000 0.6090 0.0000
# 4 0.0000 0.0000 0.0000 33.9891 0.0000 -5.8747
# 5 -11.6523 -0.1381 0.6090 0.0000 50.7485 0.0000
# 6 0.0000 0.0000 0.0000 -5.8747 0.0000 9.7561
#
#
#
# Elastic Compliance Matrix: (Units=1/GPa)
#
#
# Indices 1 2 3 4 5 6 
#
# 1 0.009848 -0.001849 -0.000859 0.000000 0.002266 0.000000
# 2 -0.001849 0.011037 -0.003811 0.000000 -0.000349 0.000000
# 3 -0.000859 -0.003811 0.008058 0.000000 -0.000304 0.000000
# 4 0.000000 0.000000 0.000000 0.032839 0.000000 0.019774
# 5 0.002266 -0.000349 -0.000304 0.000000 0.020228 0.000000
# 6 0.000000 0.000000 0.000000 0.019774 0.000000 0.114407
#
#
# Mechanical properties :
#
#
# Convention : Reuss Voigt Hill
#
# Bulk Modulus (GPa) = 62.87691 66.12105 64.49898
# Shear Modulus (GPa) = 23.28201 37.03894 30.16047
#
# Velocity S-wave (km/s) = 3.04207 3.83697 3.46240
# Velocity P-wave (km/s) = 6.10994 6.77581 6.45147
#
# Compressibility (1/GPa) = 0.01590409
#
# Stress axis : x y z
#
# Youngs Moduli (GPa) = 101.54860 90.60163 124.09317
#
# Poissons Ratio (x) = 0.16756 0.10655
# Poissons Ratio (y) = 0.18781 0.47298
# Poissons Ratio (z) = 0.08720 0.34533
#
# Static dielectric constant tensor:
#      x y z
#    x 2.075520 0.000000 -0.027610 
#    y 0.000000 2.062710 0.000000 
#    z -0.027610 0.000000 2.255880 
# 
# From -- ./inp_files/27511.got.cif
#   From: 2010.05.17/outbox.cif.g08.bks.cpg/sg15_14_cif.got.tgz:27511.got - 2010.06.03 18:47:42.
