data_PCOD9288568
_publ_section_title
;
Structure prediction by ZEFSAII (Michael W. Deem and Ramdas Pophale) SiO2 
 PCOD9288568
Probable space group: C 2/C
;
_chemical_formula_sum "Si O2"
_cell_formula_units_Z 40
_cell_length_a 8.914980
_cell_length_b 18.143688
_cell_length_c 9.425902
_cell_angle_alpha 90.000000
_cell_angle_beta 82.229173
_cell_angle_gamma 90.000000
_cell_volume 1510.644348
_symmetry_space_group_name_H-M "C 2/C"
_symmetry_group_IT_number 15
_symmetry_cell_setting 'monoclinic'
loop_
_space_group_symop_operation_xyz
x,y,z
-x,y,1/2-z
-x,-y,-z
x,-y,1/2+z
1/2+x,1/2+y,z
1/2-x,1/2+y,1/2-z
1/2-x,1/2-y,-z
1/2+x,1/2-y,1/2+z
loop_
_atom_site_type_symbol
_atom_site_label
_atom_site_fract_x
_atom_site_fract_y
_atom_site_fract_z
Si Si1 0.725145 0.701107 0.645702
Si Si2 0.787744 0.532481 0.980642
Si Si3 0.930288 0.833707 0.064875
Si Si4 0.500000 0.118730 0.750000
Si Si5 0.679183 0.904460 0.725103
Si Si6 0.000000 0.820257 0.750000
O O1 0.750000 0.750000 0.500000
O O2 0.650251 0.720442 0.810581
O O3 0.592775 0.647804 0.609395
O O4 0.877770 0.666620 0.682107
O O5 0.651748 0.588474 0.954757
O O6 0.789275 0.450881 0.919973
O O7 0.923627 0.570894 0.880377
O O8 0.809574 0.539209 0.144548
O O9 0.949773 0.792847 0.912196
O O10 0.500000 0.876985 0.750000
O O11 0.834119 0.856601 0.727754
#
# Coordination Sequence:
#
# PCOD9288568 Si02
#       6
#     8   8   8   4   8   4
#     4  10  22  43  70  94 121 167 223 285 349 423
#     4  10  22  39  61  96 133 182 220 269 328 395
#     4   9  22  44  65  95 130 176 221 276 353 406
#     4  10  22  39  66  94 130 166 214 281 340 398
#     4  11  23  37  61 100 140 186 237 272 318 401
#     4  10  24  41  64 100 144 188 224 283 328 408
#
# _framework density 26.478767999999999
#
# number of rings (size 3 to 8) (size 9 to 14) (size 15 to 20)
#    0.000    2.000    1.000    0.600    2.800   10.400 
#    0.000   22.000    0.000    0.000    0.000    0.000 
#    0.000    0.000    0.000    0.000    0.000    0.000 
#
# Total GULP energy -111485.852335 kJ/mol
# GULP energy per Si atom -5574.292617 kJ/mol
# Density = 2.641850 g / cm^3
# Si number density = 26.478768 Si / 1000 Ang^3
#
#
#
# Elastic Constant Matrix: (Units=GPa)
#
#
# Indices 1 2 3 4 5 6 
#
# 1 211.1066 63.0880 50.5205 0.0000 19.0947 0.0000
# 2 63.0880 45.9073 31.1465 0.0000 -7.1989 0.0000
# 3 50.5205 31.1465 233.7757 0.0000 -22.1057 0.0000
# 4 0.0000 0.0000 0.0000 35.8761 0.0000 10.2711
# 5 19.0947 -7.1989 -22.1057 0.0000 58.2760 0.0000
# 6 0.0000 0.0000 0.0000 10.2711 0.0000 42.2512
#
#
#
# Elastic Compliance Matrix: (Units=1/GPa)
#
#
# Indices 1 2 3 4 5 6 
#
# 1 0.009225 -0.012950 -0.000732 0.000000 -0.004900 0.000000
# 2 -0.012950 0.042312 -0.002016 0.000000 0.008705 0.000000
# 3 -0.000732 -0.002016 0.004878 0.000000 0.001841 0.000000
# 4 0.000000 0.000000 0.000000 0.029959 0.000000 -0.007283
# 5 -0.004900 0.008705 0.001841 0.000000 0.020539 0.000000
# 6 0.000000 0.000000 0.000000 -0.007283 0.000000 0.025438
#
#
# Mechanical properties :
#
#
# Convention : Reuss Voigt Hill
#
# Bulk Modulus (GPa) = 39.96574 86.69994 63.33284
# Shear Modulus (GPa) = 29.05530 50.34965 39.70247
#
# Velocity S-wave (km/s) = 3.31615 4.36536 3.87642
# Velocity P-wave (km/s) = 5.45791 7.63039 6.63369
#
# Compressibility (1/GPa) = 0.02502143
#
# Stress axis : x y z
#
# Youngs Moduli (GPa) = 108.39914 23.63412 204.98650
#
# Poissons Ratio (x) = 0.30605 0.14998
# Poissons Ratio (y) = 1.40373 0.41317
# Poissons Ratio (z) = 0.07931 0.04764
#
# Static dielectric constant tensor:
#      x y z
#    x 2.094820 0.000000 -0.041270 
#    y 0.000000 2.178880 0.000000 
#    z -0.041270 0.000000 2.052570 
# 
# From -- ./inp_files/23673.got.cif
#   From: 2010.05.17/outbox.cif.g08.bks.cpg/sg15_12_cif.got.tgz:23673.got - 2010.06.03 18:47:42.
