data_PCOD9288697
_publ_section_title
;
Structure prediction by ZEFSAII (Michael W. Deem and Ramdas Pophale) SiO2 
 PCOD9288697
Probable space group: C 2/C
;
_chemical_formula_sum "Si O2"
_cell_formula_units_Z 48
_cell_length_a 11.109537
_cell_length_b 21.029739
_cell_length_c 9.904309
_cell_angle_alpha 90.000000
_cell_angle_beta 74.721154
_cell_angle_gamma 90.000000
_cell_volume 2232.163193
_symmetry_space_group_name_H-M "C 2/C"
_symmetry_group_IT_number 15
_symmetry_cell_setting 'monoclinic'
loop_
_space_group_symop_operation_xyz
x,y,z
-x,y,1/2-z
-x,-y,-z
x,-y,1/2+z
1/2+x,1/2+y,z
1/2-x,1/2+y,1/2-z
1/2-x,1/2-y,-z
1/2+x,1/2-y,1/2+z
loop_
_atom_site_type_symbol
_atom_site_label
_atom_site_fract_x
_atom_site_fract_y
_atom_site_fract_z
Si Si1 0.830591 0.169218 0.608588
Si Si2 0.189303 0.649296 0.158565
Si Si3 0.500000 0.951172 0.750000
Si Si4 0.636185 0.471085 0.283606
Si Si5 0.774974 0.530265 0.480805
Si Si6 0.642123 0.284019 0.697331
Si Si7 0.000000 0.757687 0.250000
O O1 0.828049 0.098590 0.668954
O O2 0.720698 0.218871 0.676975
O O3 0.836730 0.175864 0.445839
O O4 0.950860 0.200547 0.642560
O O5 0.214384 0.607149 0.020328
O O6 0.312262 0.670755 0.196680
O O7 0.107650 0.711535 0.163210
O O8 0.103642 0.599989 0.273105
O O9 0.588748 0.989446 0.620076
O O10 0.500000 0.472067 0.250000
O O11 0.666131 0.514821 0.404431
O O12 0.733598 0.491700 0.138563
O O13 0.500000 0.267100 0.750000
#
# Coordination Sequence:
#
# PCOD9288697 Si02
#       7
#     8   8   4   8   8   8   4
#     4  10  23  40  60  97 130 169 214 269 328 394
#     4   8  18  38  67  90 119 167 211 266 324 388
#     4   7  18  42  62  94 114 162 223 256 328 383
#     4  12  26  43  64  96 135 173 225 267 327 395
#     4  10  24  43  65  97 124 176 218 271 325 380
#     4  10  22  39  63  95 130 169 211 273 338 384
#     4   9  16  40  68  86 128 162 213 274 316 407
#
# _framework density 21.503805
#
# number of rings (size 3 to 8) (size 9 to 14) (size 15 to 20)
#    1.000    1.333    0.833    0.500    4.667    2.667 
#    4.500    3.333    0.000    0.000    0.000    0.000 
#    0.000    0.000    0.000    0.000    0.000    0.000 
#
# Total GULP energy -133617.504314 kJ/mol
# GULP energy per Si atom -5567.396013 kJ/mol
# Density = 2.145486 g / cm^3
# Si number density = 21.503805 Si / 1000 Ang^3
#
#
#
# Elastic Constant Matrix: (Units=GPa)
#
#
# Indices 1 2 3 4 5 6 
#
# 1 83.7821 7.3105 2.7781 0.0000 -2.3745 0.0000
# 2 7.3105 32.8085 -2.7795 0.0000 -4.1592 0.0000
# 3 2.7781 -2.7795 26.3000 0.0000 -14.6282 0.0000
# 4 0.0000 0.0000 0.0000 19.7238 0.0000 16.3211
# 5 -2.3745 -4.1592 -14.6282 0.0000 19.1622 0.0000
# 6 0.0000 0.0000 0.0000 16.3211 0.0000 27.0568
#
#
#
# Elastic Compliance Matrix: (Units=1/GPa)
#
#
# Indices 1 2 3 4 5 6 
#
# 1 0.012242 -0.002971 -0.001950 0.000000 -0.000617 0.000000
# 2 -0.002971 0.034548 0.013783 0.000000 0.017653 0.000000
# 3 -0.001950 0.013783 0.071628 0.000000 0.057430 0.000000
# 4 0.000000 0.000000 0.000000 0.101229 0.000000 -0.061063
# 5 -0.000617 0.017653 0.057430 0.000000 0.099782 0.000000
# 6 0.000000 0.000000 0.000000 -0.061063 0.000000 0.073793
#
#
# Mechanical properties :
#
#
# Convention : Reuss Voigt Hill
#
# Bulk Modulus (GPa) = 7.34526 17.50097 12.42312
# Shear Modulus (GPa) = 11.87989 22.22733 17.05361
#
# Velocity S-wave (km/s) = 2.35299 3.21853 2.81917
# Velocity P-wave (km/s) = 3.28714 4.68701 4.04805
#
# Compressibility (1/GPa) = 0.13614216
#
# Stress axis : x y z
#
# Youngs Moduli (GPa) = 81.68481 28.94558 13.96098
#
# Poissons Ratio (x) = 0.08600 0.02723
# Poissons Ratio (y) = 0.24270 -0.19243
# Poissons Ratio (z) = 0.15929 -0.39897
#
# Static dielectric constant tensor:
#      x y z
#    x 1.802420 0.000000 -0.040920 
#    y 0.000000 1.757080 0.000000 
#    z -0.040920 0.000000 1.762060 
# 
# From -- ./inp_files/31961.got.cif
#   From: 2010.05.17/outbox.cif.g08.bks.cpg/sg15_16_cif.got.tgz:31961.got - 2010.06.03 18:47:42.
