data_PCOD9288526
_publ_section_title
;
Structure prediction by ZEFSAII (Michael W. Deem and Ramdas Pophale) SiO2 
 PCOD9288526
Probable space group: C 2/C
;
_chemical_formula_sum "Si O2"
_cell_formula_units_Z 32
_cell_length_a 17.785781
_cell_length_b 9.001557
_cell_length_c 11.020236
_cell_angle_alpha 90.000000
_cell_angle_beta 59.040619
_cell_angle_gamma 90.000000
_cell_volume 1512.975569
_symmetry_space_group_name_H-M "C 2/C"
_symmetry_group_IT_number 15
_symmetry_cell_setting 'monoclinic'
loop_
_space_group_symop_operation_xyz
x,y,z
-x,y,1/2-z
-x,-y,-z
x,-y,1/2+z
1/2+x,1/2+y,z
1/2-x,1/2+y,1/2-z
1/2-x,1/2-y,-z
1/2+x,1/2-y,1/2+z
loop_
_atom_site_type_symbol
_atom_site_label
_atom_site_fract_x
_atom_site_fract_y
_atom_site_fract_z
Si Si1 0.417315 0.494084 0.405459
Si Si2 0.239729 0.535785 0.403067
Si Si3 0.902996 0.667972 0.351510
Si Si4 0.335094 0.318103 0.160793
O O1 0.500000 0.522575 0.250000
O O2 0.412481 0.591677 0.530330
O O3 0.411851 0.315938 0.427829
O O4 0.328327 0.537149 0.407908
O O5 0.164728 0.447271 0.537007
O O6 0.264825 0.439452 0.263447
O O7 0.207165 0.696297 0.391000
O O8 0.868178 0.732973 0.253023
O O9 0.000000 0.604757 0.250000
#
# Coordination Sequence:
#
# PCOD9288526 Si02
#       4
#     8   8   8   8
#     4  10  22  39  61  88 117 152 198 239 286 350
#     4  11  22  39  61  88 119 153 196 238 288 350
#     4  10  23  40  59  88 120 152 196 240 286 349
#     4  11  22  38  62  85 118 159 189 240 296 334
#
# _framework density 21.150376000000001
#
# number of rings (size 3 to 8) (size 9 to 14) (size 15 to 20)
#    0.000    1.500    0.000    6.750    0.000   13.000 
#    0.000    0.000    0.000    0.000    0.000    0.000 
#    0.000    0.000    0.000    0.000    0.000    0.000 
#
# Total GULP energy -89505.549652 kJ/mol
# GULP energy per Si atom -5594.096853 kJ/mol
# Density = 2.110224 g / cm^3
# Si number density = 21.150376 Si / 1000 Ang^3
#
#
#
# Elastic Constant Matrix: (Units=GPa)
#
#
# Indices 1 2 3 4 5 6 
#
# 1 54.3000 33.4419 28.3909 0.0000 -26.3538 0.0000
# 2 33.4419 91.5692 71.9356 0.0000 -13.0513 0.0000
# 3 28.3909 71.9356 126.9352 0.0000 -25.5741 0.0000
# 4 0.0000 0.0000 0.0000 42.4961 0.0000 8.8429
# 5 -26.3538 -13.0513 -25.5741 0.0000 36.4180 0.0000
# 6 0.0000 0.0000 0.0000 8.8429 0.0000 22.3686
#
#
#
# Elastic Compliance Matrix: (Units=1/GPa)
#
#
# Indices 1 2 3 4 5 6 
#
# 1 0.036063 -0.013011 0.004223 0.000000 0.024400 0.000000
# 2 -0.013011 0.024404 -0.012876 0.000000 -0.009712 0.000000
# 3 0.004223 -0.012876 0.016210 0.000000 0.009825 0.000000
# 4 0.000000 0.000000 0.000000 0.025641 0.000000 -0.010136
# 5 0.024400 -0.009712 0.009825 0.000000 0.048535 0.000000
# 6 0.000000 0.000000 0.000000 -0.010136 0.000000 0.048713
#
#
# Mechanical properties :
#
#
# Convention : Reuss Voigt Hill
#
# Bulk Modulus (GPa) = 29.98563 60.03792 45.01178
# Shear Modulus (GPa) = 19.68427 29.52560 24.60494
#
# Velocity S-wave (km/s) = 3.05402 3.74034 3.41447
# Velocity P-wave (km/s) = 5.16180 6.86304 6.07230
#
# Compressibility (1/GPa) = 0.03334930
#
# Stress axis : x y z
#
# Youngs Moduli (GPa) = 27.72901 40.97745 61.68968
#
# Poissons Ratio (x) = 0.53314 -0.26052
# Poissons Ratio (y) = 0.36077 0.79435
# Poissons Ratio (z) = -0.11710 0.52765
#
# Static dielectric constant tensor:
#      x y z
#    x 1.812240 0.000000 0.057510 
#    y 0.000000 1.724350 0.000000 
#    z 0.057510 0.000000 1.782060 
# 
# From -- ./inp_files/93965.got.cif
#   From: 2010.05.17/outbox.cif.g08.bks.cpg/sg15_47_cif.got.tgz:93965.got - 2010.06.03 18:47:42.
