data_PCOD9288401
_publ_section_title
;
Structure prediction by ZEFSAII (Michael W. Deem and Ramdas Pophale) SiO2 
 PCOD9288401
Probable space group: C 2/C
;
_chemical_formula_sum "Si O2"
_cell_formula_units_Z 52
_cell_length_a 17.350385
_cell_length_b 19.968815
_cell_length_c 14.488049
_cell_angle_alpha 90.000000
_cell_angle_beta 146.807068
_cell_angle_gamma 90.000000
_cell_volume 2748.044150
_symmetry_space_group_name_H-M "C 2/C"
_symmetry_group_IT_number 15
_symmetry_cell_setting 'monoclinic'
loop_
_space_group_symop_operation_xyz
x,y,z
-x,y,1/2-z
-x,-y,-z
x,-y,1/2+z
1/2+x,1/2+y,z
1/2-x,1/2+y,1/2-z
1/2-x,1/2-y,-z
1/2+x,1/2-y,1/2+z
loop_
_atom_site_type_symbol
_atom_site_label
_atom_site_fract_x
_atom_site_fract_y
_atom_site_fract_z
Si Si1 0.530995 0.427305 0.985949
Si Si2 0.468617 0.001226 0.325154
Si Si3 0.219403 0.917889 0.500418
Si Si4 0.643962 0.086963 0.639184
Si Si5 0.543351 0.674943 0.944996
Si Si6 0.284870 0.806656 0.415908
Si Si7 0.000000 0.973738 0.750000
O O1 0.518411 0.433170 0.863280
O O2 0.500000 0.500000 0.000000
O O3 0.691909 0.417373 0.176632
O O4 0.448663 0.363706 0.948236
O O5 0.500000 0.989636 0.250000
O O6 0.335807 0.052386 0.187139
O O7 0.590835 0.035842 0.507142
O O8 0.431953 0.934407 0.343687
O O9 0.090747 0.884674 0.425802
O O10 0.288785 0.861229 0.503733
O O11 0.141289 0.981219 0.376119
O O12 0.626927 0.159496 0.578635
O O13 0.382370 0.698083 0.770294
O O14 0.645650 0.734039 0.011949
#
# Coordination Sequence:
#
# PCOD9288401 Si02
#       7
#     8   8   8   8   8   8   4
#     4  11  21  40  66  91 123 163 216 269 309 372
#     4  11  22  36  61  91 125 161 205 256 321 363
#     4  12  21  37  60  95 124 160 205 264 316 379
#     4  10  22  39  57  86 126 163 205 256 307 373
#     4  11  24  39  62  88 128 171 205 254 316 378
#     4  11  23  40  58  88 129 169 206 251 313 385
#     4  12  20  38  68  94 118 158 214 268 318 362
#
# _framework density 18.922549
#
# number of rings (size 3 to 8) (size 9 to 14) (size 15 to 20)
#    0.000    0.923    6.154    1.385    2.154    0.000 
#    0.000    0.000    1.692    1.846    0.000    0.000 
#    0.000    0.000    0.000    0.000    0.000    0.000 
#
# Total GULP energy -144846.525182 kJ/mol
# GULP energy per Si atom -5571.020199 kJ/mol
# Density = 1.887948 g / cm^3
# Si number density = 18.922549 Si / 1000 Ang^3
#
#
#
# Elastic Constant Matrix: (Units=GPa)
#
#
# Indices 1 2 3 4 5 6 
#
# 1 84.0254 13.8415 26.3949 0.0000 -12.9682 0.0000
# 2 13.8415 34.4234 9.5034 0.0000 -3.1109 0.0000
# 3 26.3949 9.5034 64.3672 0.0000 -15.3597 0.0000
# 4 0.0000 0.0000 0.0000 19.5155 0.0000 6.6244
# 5 -12.9682 -3.1109 -15.3597 0.0000 30.4520 0.0000
# 6 0.0000 0.0000 0.0000 6.6244 0.0000 49.8918
#
#
#
# Elastic Compliance Matrix: (Units=1/GPa)
#
#
# Indices 1 2 3 4 5 6 
#
# 1 0.014563 -0.004297 -0.004504 0.000000 0.003491 0.000000
# 2 -0.004297 0.031576 -0.002918 0.000000 -0.000076 0.000000
# 3 -0.004504 -0.002918 0.019650 0.000000 0.007695 0.000000
# 4 0.000000 0.000000 0.000000 0.053660 0.000000 -0.007125
# 5 0.003491 -0.000076 0.007695 0.000000 0.038199 0.000000
# 6 0.000000 0.000000 0.000000 -0.007125 0.000000 0.020989
#
#
# Mechanical properties :
#
#
# Convention : Reuss Voigt Hill
#
# Bulk Modulus (GPa) = 23.61235 31.36618 27.48926
# Shear Modulus (GPa) = 23.12760 28.84362 25.98561
#
# Velocity S-wave (km/s) = 3.49983 3.90846 3.70977
# Velocity P-wave (km/s) = 5.37003 6.08113 5.73661
#
# Compressibility (1/GPa) = 0.04235072
#
# Stress axis : x y z
#
# Youngs Moduli (GPa) = 68.66892 31.66920 50.89060
#
# Poissons Ratio (x) = 0.13607 0.22923
# Poissons Ratio (y) = 0.29504 0.14851
# Poissons Ratio (z) = 0.30931 0.09242
#
# Static dielectric constant tensor:
#      x y z
#    x 1.700730 0.000000 -0.005300 
#    y 0.000000 1.687760 0.000000 
#    z -0.005300 0.000000 1.679390 
# 
# From -- ./inp_files/163658.got.cif
#   From: 2010.05.17/outbox.cif.g08.bks.cpg/sg15_82_cif.got.tgz:163658.got - 2010.06.03 18:47:42.
