data_PCOD9288587
_publ_section_title
;
Structure prediction by ZEFSAII (Michael W. Deem and Ramdas Pophale) SiO2 
 PCOD9288587
Probable space group: C 2/C
;
_chemical_formula_sum "Si O2"
_cell_formula_units_Z 48
_cell_length_a 9.541234
_cell_length_b 32.454661
_cell_length_c 8.001733
_cell_angle_alpha 90.000000
_cell_angle_beta 53.313396
_cell_angle_gamma 90.000000
_cell_volume 1986.983252
_symmetry_space_group_name_H-M "C 2/C"
_symmetry_group_IT_number 15
_symmetry_cell_setting 'monoclinic'
loop_
_space_group_symop_operation_xyz
x,y,z
-x,y,1/2-z
-x,-y,-z
x,-y,1/2+z
1/2+x,1/2+y,z
1/2-x,1/2+y,1/2-z
1/2-x,1/2-y,-z
1/2+x,1/2-y,1/2+z
loop_
_atom_site_type_symbol
_atom_site_label
_atom_site_fract_x
_atom_site_fract_y
_atom_site_fract_z
Si Si1 0.700219 0.454075 0.407674
Si Si2 0.500000 0.893000 0.750000
Si Si3 0.000000 0.183823 0.750000
Si Si4 0.717536 0.546810 0.289859
Si Si5 0.228451 0.697735 0.560356
Si Si6 0.302545 0.129494 0.693720
Si Si7 0.877246 0.227674 0.143748
O O1 0.755940 0.499651 0.313352
O O2 0.490870 0.448534 0.529830
O O3 0.740385 0.448371 0.574699
O O4 0.788275 0.418790 0.236835
O O5 0.558304 0.865921 0.551393
O O6 0.662000 0.921612 0.694705
O O7 0.128174 0.152362 0.753111
O O8 0.121156 0.214007 0.549958
O O9 0.179600 0.651928 0.641424
O O10 0.134975 0.726348 0.768765
O O11 0.226733 0.706350 0.363629
O O12 0.430836 0.709660 0.449611
#
# Coordination Sequence:
#
# PCOD9288587 Si02
#       7
#     8   4   4   8   8   8   8
#     4  10  22  44  67  90 124 173 214 250 315 398
#     4  12  26  41  62  98 132 160 210 278 322 363
#     4  10  22  39  62  88 122 170 210 258 320 391
#     4  10  23  42  68  93 125 170 214 256 315 390
#     4   9  20  38  58  85 118 162 209 260 317 382
#     4  11  24  38  59  90 126 160 209 268 324 373
#     4   9  19  37  60  83 118 163 210 255 314 386
#
# _framework density 24.157222999999998
#
# number of rings (size 3 to 8) (size 9 to 14) (size 15 to 20)
#    0.000    2.000    0.000    2.000    0.000   17.333 
#    0.000    5.000    0.000    0.000    0.000    0.000 
#    0.000    0.000    0.000    0.000    0.000    0.000 
#
# Total GULP energy -133962.066644 kJ/mol
# GULP energy per Si atom -5581.752777 kJ/mol
# Density = 2.410224 g / cm^3
# Si number density = 24.157223 Si / 1000 Ang^3
#
#
#
# Elastic Constant Matrix: (Units=GPa)
#
#
# Indices 1 2 3 4 5 6 
#
# 1 60.7537 -3.1339 -3.5267 0.0000 -7.9611 0.0000
# 2 -3.1339 59.5732 32.0930 0.0000 0.2155 0.0000
# 3 -3.5267 32.0930 142.9241 0.0000 1.1625 0.0000
# 4 0.0000 0.0000 0.0000 46.0214 0.0000 2.0285
# 5 -7.9611 0.2155 1.1625 0.0000 29.7358 0.0000
# 6 0.0000 0.0000 0.0000 2.0285 0.0000 21.1646
#
#
#
# Elastic Compliance Matrix: (Units=1/GPa)
#
#
# Indices 1 2 3 4 5 6 
#
# 1 0.017110 0.000769 0.000212 0.000000 0.004567 0.000000
# 2 0.000769 0.019131 -0.004279 0.000000 0.000235 0.000000
# 3 0.000212 -0.004279 0.007965 0.000000 -0.000224 0.000000
# 4 0.000000 0.000000 0.000000 0.021821 0.000000 -0.002091
# 5 0.004567 0.000235 -0.000224 0.000000 0.034859 0.000000
# 6 0.000000 0.000000 0.000000 -0.002091 0.000000 0.047449
#
#
# Mechanical properties :
#
#
# Convention : Reuss Voigt Hill
#
# Bulk Modulus (GPa) = 26.58773 34.90176 30.74475
# Shear Modulus (GPa) = 29.85670 35.23892 32.54781
#
# Velocity S-wave (km/s) = 3.51940 3.82348 3.67458
# Velocity P-wave (km/s) = 5.24832 5.82847 5.54599
#
# Compressibility (1/GPa) = 0.03761133
#
# Stress axis : x y z
#
# Youngs Moduli (GPa) = 58.44415 52.27214 125.55682
#
# Poissons Ratio (x) = -0.04021 -0.02666
# Poissons Ratio (y) = -0.04496 0.53721
# Poissons Ratio (z) = -0.01241 0.22365
#
# Static dielectric constant tensor:
#      x y z
#    x 2.156550 0.000000 0.129050 
#    y 0.000000 1.905070 0.000000 
#    z 0.129050 0.000000 2.017330 
# 
# From -- ./inp_files/44450.got.cif
#   From: 2010.05.17/outbox.cif.g08.bks.cpg/sg15_23_cif.got.tgz:44450.got - 2010.06.03 18:47:42.
