data_PCOD9288438
_publ_section_title
;
Structure prediction by ZEFSAII (Michael W. Deem and Ramdas Pophale) SiO2 
 PCOD9288438
Probable space group: C 2/C
;
_chemical_formula_sum "Si O2"
_cell_formula_units_Z 60
_cell_length_a 13.673424
_cell_length_b 24.938160
_cell_length_c 18.049822
_cell_angle_alpha 90.000000
_cell_angle_beta 149.380008
_cell_angle_gamma 90.000000
_cell_volume 3134.901230
_symmetry_space_group_name_H-M "C 2/C"
_symmetry_group_IT_number 15
_symmetry_cell_setting 'monoclinic'
loop_
_space_group_symop_operation_xyz
x,y,z
-x,y,1/2-z
-x,-y,-z
x,-y,1/2+z
1/2+x,1/2+y,z
1/2-x,1/2+y,1/2-z
1/2-x,1/2-y,-z
1/2+x,1/2-y,1/2+z
loop_
_atom_site_type_symbol
_atom_site_label
_atom_site_fract_x
_atom_site_fract_y
_atom_site_fract_z
Si Si1 0.650288 0.035639 0.728153
Si Si2 0.669908 0.867993 0.131104
Si Si3 0.710857 0.687841 0.542395
Si Si4 0.500000 0.584793 0.750000
Si Si5 0.762306 0.982833 0.547825
Si Si6 0.447231 0.779061 0.336917
Si Si7 0.314502 0.931477 0.844463
Si Si8 0.937721 0.928181 0.529910
O O1 0.662093 0.092809 0.696770
O O2 0.441912 0.024388 0.626690
O O3 0.645120 0.990826 0.660898
O O4 0.835965 0.036034 0.901066
O O5 0.627102 0.809921 0.138685
O O6 0.875034 0.878862 0.225130
O O7 0.494205 0.891022 0.966801
O O8 0.515009 0.718511 0.395354
O O9 0.859064 0.693468 0.570636
O O10 0.681913 0.626222 0.542282
O O11 0.799443 0.716289 0.672654
O O12 0.337116 0.542615 0.614350
O O13 0.744829 0.944844 0.608936
O O14 0.915686 0.960654 0.591091
O O15 0.160060 0.911897 0.682382
#
# Coordination Sequence:
#
# PCOD9288438 Si02
#       8
#     8   8   8   4   8   8   8   8
#     4  11  20  36  54  83 122 159 197 243 290 351
#     4  11  21  38  61  82 119 163 207 248 295 359
#     4  10  22  39  59  88 117 149 190 245 320 360
#     4  12  20  38  60  84 118 168 216 230 286 366
#     4  11  20  35  53  85 122 162 197 235 285 374
#     4  10  22  40  60  88 115 148 195 254 304 368
#     4  11  21  34  54  84 121 159 199 236 289 361
#     4  12  22  33  57  86 120 159 190 247 307 352
#
# _framework density 19.13936
#
# number of rings (size 3 to 8) (size 9 to 14) (size 15 to 20)
#    0.000    1.067    5.333    3.200    3.733    0.000 
#    2.400    0.000    0.000    0.800    0.000    0.000 
#    0.000    0.000    0.000    0.000    0.000    0.000 
#
# Total GULP energy -167037.846253 kJ/mol
# GULP energy per Si atom -5567.928208 kJ/mol
# Density = 1.909580 g / cm^3
# Si number density = 19.139360 Si / 1000 Ang^3
#
#
#
# Elastic Constant Matrix: (Units=GPa)
#
#
# Indices 1 2 3 4 5 6 
#
# 1 48.4788 10.6425 25.4738 0.0004 6.2639 0.0001
# 2 10.6425 26.6884 -3.5221 0.0000 -4.0138 -0.0001
# 3 25.4738 -3.5221 109.2928 0.0019 3.8371 0.0006
# 4 0.0004 0.0000 0.0019 18.3169 0.0008 -3.3984
# 5 6.2639 -4.0138 3.8371 0.0008 19.9291 0.0003
# 6 0.0001 -0.0001 0.0006 -3.3984 0.0003 27.1202
#
#
#
# Elastic Compliance Matrix: (Units=1/GPa)
#
#
# Indices 1 2 3 4 5 6 
#
# 1 0.028561 -0.013853 -0.006736 0.000001 -0.010470 0.000000
# 2 -0.013853 0.045463 0.004248 -0.000001 0.012693 0.000000
# 3 -0.006736 0.004248 0.010825 -0.000001 0.000888 0.000000
# 4 0.000001 -0.000001 -0.000001 0.055894 -0.000003 0.007004
# 5 -0.010470 0.012693 0.000888 -0.000003 0.055854 -0.000001
# 6 0.000000 0.000000 0.000000 0.007004 -0.000001 0.037750
#
#
# Mechanical properties :
#
#
# Convention : Reuss Voigt Hill
#
# Bulk Modulus (GPa) = 19.16852 27.73871 23.45361
# Shear Modulus (GPa) = 17.57976 23.19761 20.38869
#
# Velocity S-wave (km/s) = 3.03399 3.48521 3.26740
# Velocity P-wave (km/s) = 4.72339 5.54257 5.14929
#
# Compressibility (1/GPa) = 0.05216888
#
# Stress axis : x y z
#
# Youngs Moduli (GPa) = 35.01292 21.99588 92.37527
#
# Poissons Ratio (x) = 0.30470 0.62222
# Poissons Ratio (y) = 0.48502 -0.39243
# Poissons Ratio (z) = 0.23584 -0.09344
#
# Static dielectric constant tensor:
#      x y z
#    x 1.871140 0.000000 0.082440 
#    y 0.000000 1.656470 0.000000 
#    z 0.082440 0.000000 1.788880 
# 
# From -- ./inp_files/207245.got.cif
#   From: 2010.05.17/outbox.cif.g08.bks.cpg/sg15_104_cif.got.tgz:207245.got - 2010.06.03 18:47:42.
