data_PCOD9288185
_publ_section_title
;
Structure prediction by ZEFSAII (Michael W. Deem and Ramdas Pophale) SiO2 
 PCOD9288185
Probable space group: C 2/C
;
_chemical_formula_sum "Si O2"
_cell_formula_units_Z 64
_cell_length_a 16.542263
_cell_length_b 20.729455
_cell_length_c 20.616921
_cell_angle_alpha 90.000000
_cell_angle_beta 159.195753
_cell_angle_gamma 90.000000
_cell_volume 2511.022102
_symmetry_space_group_name_H-M "C 2/C"
_symmetry_group_IT_number 15
_symmetry_cell_setting 'monoclinic'
loop_
_space_group_symop_operation_xyz
x,y,z
-x,y,1/2-z
-x,-y,-z
x,-y,1/2+z
1/2+x,1/2+y,z
1/2-x,1/2+y,1/2-z
1/2-x,1/2-y,-z
1/2+x,1/2-y,1/2+z
loop_
_atom_site_type_symbol
_atom_site_label
_atom_site_fract_x
_atom_site_fract_y
_atom_site_fract_z
Si Si1 0.131558 0.182011 0.743922
Si Si2 0.254681 0.417755 0.912410
Si Si3 0.948529 0.642708 0.875078
Si Si4 0.721042 0.002381 0.261612
Si Si5 0.162999 0.878932 0.728845
Si Si6 0.742398 0.510528 0.954025
Si Si7 0.198355 0.374519 0.445760
Si Si8 0.018795 0.676285 0.140314
O O1 0.286715 0.187953 0.795536
O O2 0.017205 0.251269 0.665267
O O3 0.951620 0.127777 0.589346
O O4 0.293197 0.166416 0.926870
O O5 0.201156 0.462826 0.933021
O O6 0.320307 0.466441 0.902352
O O7 0.075152 0.369770 0.742802
O O8 0.059846 0.669944 0.892682
O O9 0.807371 0.575191 0.758531
O O10 0.156829 0.628701 0.079069
O O11 0.828225 0.045037 0.284524
O O12 0.451122 0.023080 0.062146
O O13 0.267006 0.839805 0.746345
O O14 0.916892 0.855674 0.568023
O O15 0.500000 0.535564 0.750000
O O16 0.725529 0.434213 0.952905
O O17 0.000000 0.398013 0.250000
#
# Coordination Sequence:
#
# PCOD9288185 Si02
#       8
#     8   8   8   8   8   8   8   8
#     4  11  23  42  70 101 130 184 216 289 330 397
#     4  11  24  40  70  94 135 177 223 274 335 388
#     4  10  22  38  64  97 134 172 223 268 341 398
#     4  10  22  41  62  99 137 169 223 268 332 409
#     4  10  22  39  67  92 134 179 219 275 330 401
#     4  11  24  41  64  95 143 179 214 275 336 403
#     4  11  23  39  60  97 141 177 217 272 334 403
#     4  10  23  44  67 100 135 169 236 275 337 389
#
# _framework density 25.487629999999999
#
# number of rings (size 3 to 8) (size 9 to 14) (size 15 to 20)
#    0.000    1.500    1.250    4.125   10.500    0.500 
#    0.000    0.625    0.000   10.500    0.000    0.000 
#    0.000    0.000    0.000    0.000    0.000    0.000 
#
# Total GULP energy -178986.482589 kJ/mol
# GULP energy per Si atom -5593.327581 kJ/mol
# Density = 2.542962 g / cm^3
# Si number density = 25.487630 Si / 1000 Ang^3
#
#
#
# Elastic Constant Matrix: (Units=GPa)
#
#
# Indices 1 2 3 4 5 6 
#
# 1 85.9372 -9.1769 2.1944 -0.1494 -7.3404 -0.0295
# 2 -9.1769 55.9811 7.4696 -0.3733 -9.6052 -0.1427
# 3 2.1944 7.4696 112.2802 -0.1398 -6.5443 -0.1512
# 4 -0.1494 -0.3733 -0.1398 26.7842 -0.1472 -6.5989
# 5 -7.3404 -9.6052 -6.5443 -0.1472 30.7671 -0.0232
# 6 -0.0295 -0.1427 -0.1512 -6.5989 -0.0232 15.0251
#
#
#
# Elastic Compliance Matrix: (Units=1/GPa)
#
#
# Indices 1 2 3 4 5 6 
#
# 1 0.012244 0.002672 -0.000200 0.000155 0.003714 0.000121
# 2 0.002672 0.019556 -0.000971 0.000410 0.006539 0.000371
# 3 -0.000200 -0.000971 0.009067 0.000070 0.001578 0.000115
# 4 0.000155 0.000410 0.000070 0.041877 0.000394 0.018397
# 5 0.003714 0.006539 0.001578 0.000394 0.035767 0.000314
# 6 0.000121 0.000371 0.000115 0.018397 0.000314 0.074641
#
#
# Mechanical properties :
#
#
# Convention : Reuss Voigt Hill
#
# Bulk Modulus (GPa) = 22.79461 28.35253 25.57357
# Shear Modulus (GPa) = 24.41714 31.42937 27.92325
#
# Velocity S-wave (km/s) = 3.09851 3.51539 3.31352
# Velocity P-wave (km/s) = 4.66518 5.25600 4.96938
#
# Compressibility (1/GPa) = 0.04387003
#
# Stress axis : x y z
#
# Youngs Moduli (GPa) = 81.66976 51.13410 110.28976
#
# Poissons Ratio (x) = -0.13666 0.02209
# Poissons Ratio (y) = -0.21826 0.10711
# Poissons Ratio (z) = 0.01636 0.04966
#
# Static dielectric constant tensor:
#      x y z
#    x 2.112010 -0.000130 0.114680 
#    y -0.000130 1.994950 -0.000180 
#    z 0.114680 -0.000180 2.047040 
# 
# From -- ./inp_files/250295.got.cif
#   From: 2010.05.17/outbox.cif.g08.bks.cpg/sg15_126_cif.got.tgz:250295.got - 2010.06.03 18:47:42.
