data_PCOD9288090
_publ_section_title
;
Structure prediction by ZEFSAII (Michael W. Deem and Ramdas Pophale) SiO2 
 PCOD9288090
Probable space group: C 2/C
;
_chemical_formula_sum "Si O2"
_cell_formula_units_Z 64
_cell_length_a 21.866096
_cell_length_b 8.491323
_cell_length_c 18.482427
_cell_angle_alpha 90.000000
_cell_angle_beta 59.541192
_cell_angle_gamma 90.000000
_cell_volume 2958.078985
_symmetry_space_group_name_H-M "C 2/C"
_symmetry_group_IT_number 15
_symmetry_cell_setting 'monoclinic'
loop_
_space_group_symop_operation_xyz
x,y,z
-x,y,1/2-z
-x,-y,-z
x,-y,1/2+z
1/2+x,1/2+y,z
1/2-x,1/2+y,1/2-z
1/2-x,1/2-y,-z
1/2+x,1/2-y,1/2+z
loop_
_atom_site_type_symbol
_atom_site_label
_atom_site_fract_x
_atom_site_fract_y
_atom_site_fract_z
Si Si1 0.681701 0.134369 0.755939
Si Si2 0.978410 0.354369 0.961754
Si Si3 0.448821 0.034906 0.229161
Si Si4 0.078532 0.117532 0.727500
Si Si5 0.265627 0.651929 0.917663
Si Si6 0.284931 0.890745 0.647342
Si Si7 0.347877 0.316458 0.590497
Si Si8 0.901878 0.861394 0.111512
O O1 0.728021 0.252999 0.682423
O O2 0.639247 0.238798 0.839469
O O3 0.623747 0.046511 0.745337
O O4 0.726464 0.012579 0.778836
O O5 0.008206 0.411585 0.867261
O O6 0.020843 0.196305 0.958727
O O7 0.898271 0.289613 0.008977
O O8 0.000000 0.500000 0.000000
O O9 0.500000 0.936417 0.250000
O O10 0.428769 0.195976 0.280624
O O11 0.153534 0.089665 0.641446
O O12 0.093075 0.096780 0.805465
O O13 0.000000 0.052137 0.750000
O O14 0.220656 0.495589 0.921386
O O15 0.234307 0.780040 0.878683
O O16 0.250000 0.750000 0.000000
O O17 0.356319 0.797681 0.624789
O O18 0.369182 0.497190 0.584719
#
# Coordination Sequence:
#
# PCOD9288090 Si02
#       8
#     8   8   8   8   8   8   8   8
#     4  11  20  39  65  96 125 167 224 277 339 391
#     4  11  20  41  63  96 136 173 228 276 345 407
#     4  10  22  38  63  94 128 177 217 272 337 415
#     4  10  22  41  67  94 134 178 221 272 336 419
#     4  11  26  44  66  99 132 181 225 278 354 411
#     4  11  22  39  67  99 129 172 228 289 331 414
#     4  11  23  38  67  97 132 170 227 287 333 413
#     4  11  22  41  66 101 130 174 229 279 342 400
#
# _framework density 21.635663999999998
#
# number of rings (size 3 to 8) (size 9 to 14) (size 15 to 20)
#    0.000    1.250    3.750    4.125    7.000    0.000 
#    0.000    4.375    0.000    0.000    0.000    0.000 
#    0.000    0.000    0.000    0.000    0.000    0.000 
#
# Total GULP energy -178266.258453 kJ/mol
# GULP energy per Si atom -5570.820577 kJ/mol
# Density = 2.158642 g / cm^3
# Si number density = 21.635664 Si / 1000 Ang^3
#
#
#
# Elastic Constant Matrix: (Units=GPa)
#
#
# Indices 1 2 3 4 5 6 
#
# 1 122.3456 38.9245 26.4970 0.0000 -7.2184 0.0003
# 2 38.9245 79.3218 17.4413 -0.0001 -0.2370 0.0005
# 3 26.4970 17.4413 39.3457 0.0000 -16.7583 -0.0001
# 4 0.0000 -0.0001 0.0000 28.9182 0.0000 -7.2018
# 5 -7.2184 -0.2370 -16.7583 0.0000 30.9550 0.0000
# 6 0.0003 0.0005 -0.0001 -7.2018 0.0000 15.6596
#
#
#
# Elastic Compliance Matrix: (Units=1/GPa)
#
#
# Indices 1 2 3 4 5 6 
#
# 1 0.010626 -0.003972 -0.005657 0.000000 -0.000615 0.000000
# 2 -0.003972 0.015890 -0.006123 0.000000 -0.004120 -0.000001
# 3 -0.005657 -0.006123 0.040756 0.000000 0.020698 0.000001
# 4 0.000000 0.000000 0.000000 0.039053 0.000000 0.017961
# 5 -0.000615 -0.004120 0.020698 0.000000 0.043335 0.000000
# 6 0.000000 -0.000001 0.000001 0.017961 0.000000 0.072119
#
#
# Mechanical properties :
#
#
# Convention : Reuss Voigt Hill
#
# Bulk Modulus (GPa) = 27.95942 45.19323 36.57632
# Shear Modulus (GPa) = 18.85309 25.64989 22.25149
#
# Velocity S-wave (km/s) = 2.95513 3.44690 3.21045
# Velocity P-wave (km/s) = 4.95930 6.06425 5.53939
#
# Compressibility (1/GPa) = 0.03576612
#
# Stress axis : x y z
#
# Youngs Moduli (GPa) = 94.10571 62.93140 24.53635
#
# Poissons Ratio (x) = 0.24999 0.13881
# Poissons Ratio (y) = 0.37383 0.15025
# Poissons Ratio (z) = 0.53239 0.38536
#
# Static dielectric constant tensor:
#      x y z
#    x 1.967040 0.000000 -0.105880 
#    y 0.000000 1.799900 0.000000 
#    z -0.105880 0.000000 1.911080 
# 
# From -- ./inp_files/251900.got.cif
#   From: 2010.05.17/outbox.cif.g08.bks.cpg/sg15_126_cif.got.tgz:251900.got - 2010.06.03 18:47:42.
