data_PCOD9288750
_publ_section_title
;
Structure prediction by ZEFSAII (Michael W. Deem and Ramdas Pophale) SiO2 
 PCOD9288750
Probable space group: C 2/C
;
_chemical_formula_sum "Si O2"
_cell_formula_units_Z 52
_cell_length_a 11.089040
_cell_length_b 27.138342
_cell_length_c 9.021970
_cell_angle_alpha 90.000000
_cell_angle_beta 83.498898
_cell_angle_gamma 90.000000
_cell_volume 2697.596373
_symmetry_space_group_name_H-M "C 2/C"
_symmetry_group_IT_number 15
_symmetry_cell_setting 'monoclinic'
loop_
_space_group_symop_operation_xyz
x,y,z
-x,y,1/2-z
-x,-y,-z
x,-y,1/2+z
1/2+x,1/2+y,z
1/2-x,1/2+y,1/2-z
1/2-x,1/2-y,-z
1/2+x,1/2-y,1/2+z
loop_
_atom_site_type_symbol
_atom_site_label
_atom_site_fract_x
_atom_site_fract_y
_atom_site_fract_z
Si Si1 0.366321 0.439804 0.455317
Si Si2 0.646989 0.543634 0.888158
Si Si3 0.000000 0.631482 0.250000
Si Si4 0.643327 0.803732 0.207219
Si Si5 0.356952 0.696081 0.253725
Si Si6 0.699669 0.882083 0.945491
Si Si7 0.778381 0.660654 0.482456
O O1 0.348946 0.486910 0.562781
O O2 0.331880 0.452301 0.290194
O O3 0.512769 0.433049 0.435441
O O4 0.286288 0.392976 0.511678
O O5 0.741214 0.573115 0.975570
O O6 0.087637 0.603907 0.354198
O O7 0.096107 0.660324 0.130606
O O8 0.500000 0.799543 0.250000
O O9 0.686776 0.747918 0.172218
O O10 0.699597 0.824125 0.351864
O O11 0.662491 0.841973 0.073359
O O12 0.500000 0.691744 0.250000
O O13 0.295955 0.648162 0.333703
O O14 0.314437 0.696449 0.089190
#
# Coordination Sequence:
#
# PCOD9288750 Si02
#       7
#     8   8   4   8   8   8   8
#     4  10  22  39  64  93 119 153 195 247 306 358
#     4  10  22  39  64  93 119 153 195 247 306 358
#     4  10  24  36  62  88 112 170 198 234 300 358
#     4  11  21  39  62  85 121 160 205 243 296 351
#     4  10  23  37  60  90 119 156 201 246 300 350
#     4  11  21  41  62  86 124 157 200 248 297 355
#     4  11  21  41  62  86 124 157 200 248 297 355
#
# _framework density 19.276420000000002
#
# number of rings (size 3 to 8) (size 9 to 14) (size 15 to 20)
#    0.000    1.538    3.077    1.846    4.308    0.000 
#    0.000    0.769    6.769    0.000    0.000    0.000 
#    0.000    0.000    0.000    0.000    0.000    0.000 
#
# Total GULP energy -145041.490976 kJ/mol
# GULP energy per Si atom -5578.518884 kJ/mol
# Density = 1.923255 g / cm^3
# Si number density = 19.276420 Si / 1000 Ang^3
#
#
#
# Elastic Constant Matrix: (Units=GPa)
#
#
# Indices 1 2 3 4 5 6 
#
# 1 100.1231 27.2237 40.9629 0.0000 29.2954 0.0000
# 2 27.2237 59.2322 13.5610 0.0000 1.3367 0.0000
# 3 40.9629 13.5610 101.4370 0.0000 20.5402 0.0000
# 4 0.0000 0.0000 0.0000 45.4127 0.0000 20.2992
# 5 29.2954 1.3367 20.5402 0.0000 40.7426 0.0000
# 6 0.0000 0.0000 0.0000 20.2992 0.0000 33.5901
#
#
#
# Elastic Compliance Matrix: (Units=1/GPa)
#
#
# Indices 1 2 3 4 5 6 
#
# 1 0.015960 -0.006276 -0.003702 0.000000 -0.009404 0.000000
# 2 -0.006276 0.019900 -0.001011 0.000000 0.004369 0.000000
# 3 -0.003702 -0.001011 0.012187 0.000000 -0.003449 0.000000
# 4 0.000000 0.000000 0.000000 0.030170 0.000000 -0.018232
# 5 -0.009404 0.004369 -0.003449 0.000000 0.032901 0.000000
# 6 0.000000 0.000000 0.000000 -0.018232 0.000000 0.040789
#
#
# Mechanical properties :
#
#
# Convention : Reuss Voigt Hill
#
# Bulk Modulus (GPa) = 38.35840 47.14304 42.75072
# Shear Modulus (GPa) = 27.38622 35.88540 31.63581
#
# Velocity S-wave (km/s) = 3.77332 4.31933 4.05553
# Velocity P-wave (km/s) = 6.23909 7.02744 6.64497
#
# Compressibility (1/GPa) = 0.02606991
#
# Stress axis : x y z
#
# Youngs Moduli (GPa) = 62.65643 50.25157 82.05598
#
# Poissons Ratio (x) = 0.31536 0.30377
# Poissons Ratio (y) = 0.39321 0.08295
# Poissons Ratio (z) = 0.23195 0.05080
#
# Static dielectric constant tensor:
#      x y z
#    x 1.670820 0.000000 -0.000770 
#    y 0.000000 1.651100 0.000000 
#    z -0.000770 0.000000 1.707780 
# 
# From -- ./inp_files/33560.got.cif
#   From: 2010.05.17/outbox.cif.g08.bks.cpg/sg15_17_cif.got.tgz:33560.got - 2010.06.03 18:47:42.
