data_PCOD9288404
_publ_section_title
;
Structure prediction by ZEFSAII (Michael W. Deem and Ramdas Pophale) SiO2 
 PCOD9288404
Probable space group: C 2/C
;
_chemical_formula_sum "Si O2"
_cell_formula_units_Z 32
_cell_length_a 7.694185
_cell_length_b 20.242985
_cell_length_c 8.566041
_cell_angle_alpha 90.000000
_cell_angle_beta 86.604830
_cell_angle_gamma 90.000000
_cell_volume 1331.847173
_symmetry_space_group_name_H-M "C 2/C"
_symmetry_group_IT_number 15
_symmetry_cell_setting 'monoclinic'
loop_
_space_group_symop_operation_xyz
x,y,z
-x,y,1/2-z
-x,-y,-z
x,-y,1/2+z
1/2+x,1/2+y,z
1/2-x,1/2+y,1/2-z
1/2-x,1/2-y,-z
1/2+x,1/2-y,1/2+z
loop_
_atom_site_type_symbol
_atom_site_label
_atom_site_fract_x
_atom_site_fract_y
_atom_site_fract_z
Si Si1 0.904951 0.598956 0.563284
Si Si2 0.234158 0.037877 0.984799
Si Si3 0.311102 0.764309 0.179776
Si Si4 0.000000 0.032302 0.250000
Si Si5 0.000000 0.679189 0.250000
O O1 0.799685 0.531651 0.552694
O O2 0.818310 0.656339 0.669381
O O3 0.100273 0.575258 0.589618
O O4 0.933505 0.632144 0.391275
O O5 0.105763 0.015245 0.857898
O O6 0.129604 0.072893 0.131061
O O7 0.500000 0.746332 0.250000
O O8 0.160162 0.727759 0.284890
O O9 0.250000 0.750000 0.000000
#
# Coordination Sequence:
#
# PCOD9288404 Si02
#       5
#     8   8   8   4   4
#     4  10  22  41  68  92 134 181 213 285 334 413
#     4  10  22  41  65  99 136 169 223 273 358 400
#     4  10  24  45  67 100 131 184 234 279 336 399
#     4  10  22  39  58 102 132 169 220 272 334 426
#     4  10  22  47  66  98 138 185 228 274 348 400
#
# _framework density 24.026779999999999
#
# number of rings (size 3 to 8) (size 9 to 14) (size 15 to 20)
#    0.000    2.000    0.000    1.500    3.500    7.000 
#   33.750    0.000    0.000    0.000    0.000    0.000 
#    0.000    0.000    0.000    0.000    0.000    0.000 
#
# Total GULP energy -89248.577190 kJ/mol
# GULP energy per Si atom -5578.036074 kJ/mol
# Density = 2.397209 g / cm^3
# Si number density = 24.026780 Si / 1000 Ang^3
#
#
#
# Elastic Constant Matrix: (Units=GPa)
#
#
# Indices 1 2 3 4 5 6 
#
# 1 106.3184 10.3183 22.6142 0.0000 24.0848 0.0000
# 2 10.3183 88.7438 6.0975 0.0000 0.1733 0.0000
# 3 22.6142 6.0975 78.8230 0.0000 13.1405 0.0000
# 4 0.0000 0.0000 0.0000 2.9814 0.0000 45.8149
# 5 24.0848 0.1733 13.1405 0.0000 49.2966 0.0000
# 6 0.0000 0.0000 0.0000 45.8149 0.0000 -44.0782
#
#
#
# Elastic Compliance Matrix: (Units=1/GPa)
#
#
# Indices 1 2 3 4 5 6 
#
# 1 0.011091 -0.001123 -0.002294 0.000000 -0.004803 0.000000
# 2 -0.001123 0.011444 -0.000678 0.000000 0.000689 0.000000
# 3 -0.002294 -0.000678 0.013824 0.000000 -0.002562 0.000000
# 4 0.000000 0.000000 0.000000 0.019762 0.000000 0.020541
# 5 -0.004803 0.000689 -0.002562 0.000000 0.023312 0.000000
# 6 0.000000 0.000000 0.000000 0.020541 0.000000 -0.001337
#
#
# Mechanical properties :
#
#
# Convention : Reuss Voigt Hill
#
# Bulk Modulus (GPa) = 35.49955 39.10503 37.30229
# Shear Modulus (GPa) = 52.25912 17.29696 34.77804
#
# Velocity S-wave (km/s) = 4.66879 2.68601 3.80869
# Velocity P-wave (km/s) = 6.62348 5.09220 5.90766
#
# Compressibility (1/GPa) = 0.02816937
#
# Stress axis : x y z
#
# Youngs Moduli (GPa) = 90.16543 87.38085 72.33578
#
# Poissons Ratio (x) = 0.09809 0.16596
# Poissons Ratio (y) = 0.10121 0.04905
# Poissons Ratio (z) = 0.20687 0.05925
#
# Static dielectric constant tensor:
#      x y z
#    x 2.009970 0.000000 0.061210 
#    y 0.000000 1.860680 0.000000 
#    z 0.061210 0.000000 2.102010 
# 
# From -- ./inp_files/22296.got.cif
#   From: 2010.05.17/outbox.cif.g08.bks.cpg/sg15_12_cif.got.tgz:22296.got - 2010.06.03 18:47:42.
