data_PCOD9288121
_publ_section_title
;
Structure prediction by ZEFSAII (Michael W. Deem and Ramdas Pophale) SiO2 
 PCOD9288121
Probable space group: C 2/C
;
_chemical_formula_sum "Si O2"
_cell_formula_units_Z 36
_cell_length_a 5.416332
_cell_length_b 23.387514
_cell_length_c 17.835706
_cell_angle_alpha 90.000000
_cell_angle_beta 49.808526
_cell_angle_gamma 90.000000
_cell_volume 1725.884162
_symmetry_space_group_name_H-M "C 2/C"
_symmetry_group_IT_number 15
_symmetry_cell_setting 'monoclinic'
loop_
_space_group_symop_operation_xyz
x,y,z
-x,y,1/2-z
-x,-y,-z
x,-y,1/2+z
1/2+x,1/2+y,z
1/2-x,1/2+y,1/2-z
1/2-x,1/2-y,-z
1/2+x,1/2-y,1/2+z
loop_
_atom_site_type_symbol
_atom_site_label
_atom_site_fract_x
_atom_site_fract_y
_atom_site_fract_z
Si Si1 0.791771 0.892247 0.865747
Si Si2 0.174606 0.759985 0.601511
Si Si3 0.072812 0.934053 0.970248
Si Si4 0.500000 0.301235 0.250000
Si Si5 0.347584 0.351158 0.142279
O O1 0.757725 0.824306 0.887344
O O2 0.446438 0.919882 0.914391
O O3 0.000000 0.900443 0.750000
O O4 0.958174 0.917260 0.908706
O O5 0.250000 0.750000 0.500000
O O6 0.382142 0.712560 0.603097
O O7 0.808562 0.740532 0.694245
O O8 0.892837 0.895704 0.067975
O O9 0.000000 0.000000 0.000000
O O10 0.584977 0.345427 0.166112
O O11 0.000000 0.358775 0.250000
#
# Coordination Sequence:
#
# PCOD9288121 Si02
#       5
#     8   8   8   4   8
#     4  12  27  46  75 106 142 183 237 295 359 420
#     4  11  22  39  68 103 141 183 222 288 362 427
#     4  12  28  50  71 101 141 190 245 291 346 414
#     4  10  22  38  64 106 142 176 236 280 364 438
#     4  10  23  41  68 101 139 185 234 291 352 423
#
# _framework density 20.858872000000002
#
# number of rings (size 3 to 8) (size 9 to 14) (size 15 to 20)
#    0.000    0.889    2.222    4.667    9.333    3.556 
#    2.000    0.000    0.000    0.000    0.000    0.000 
#    0.000    0.000    0.000    0.000    0.000    0.000 
#
# Total GULP energy -100518.772739 kJ/mol
# GULP energy per Si atom -5584.376263 kJ/mol
# Density = 2.081140 g / cm^3
# Si number density = 20.858872 Si / 1000 Ang^3
#
#
#
# Elastic Constant Matrix: (Units=GPa)
#
#
# Indices 1 2 3 4 5 6 
#
# 1 134.5336 78.0388 69.9701 0.0000 24.7583 0.0000
# 2 78.0388 179.7836 78.6876 0.0000 20.8994 0.0000
# 3 69.9701 78.6876 161.9776 0.0000 32.5379 0.0000
# 4 0.0000 0.0000 0.0000 137.2686 0.0000 13.0095
# 5 24.7583 20.8994 32.5379 0.0000 45.3705 0.0000
# 6 0.0000 0.0000 0.0000 13.0095 0.0000 25.8449
#
#
#
# Elastic Compliance Matrix: (Units=1/GPa)
#
#
# Indices 1 2 3 4 5 6 
#
# 1 0.011306 -0.003422 -0.002686 0.000000 -0.002667 0.000000
# 2 -0.003422 0.008133 -0.002448 0.000000 -0.000124 0.000000
# 3 -0.002686 -0.002448 0.009349 0.000000 -0.004111 0.000000
# 4 0.000000 0.000000 0.000000 0.007650 0.000000 -0.003851
# 5 -0.002667 -0.000124 -0.004111 0.000000 0.026502 0.000000
# 6 0.000000 0.000000 0.000000 -0.003851 0.000000 0.040631
#
#
# Mechanical properties :
#
#
# Convention : Reuss Voigt Hill
#
# Bulk Modulus (GPa) = 85.64100 103.29865 94.46982
# Shear Modulus (GPa) = 40.13674 58.33671 49.23672
#
# Velocity S-wave (km/s) = 4.39133 5.29415 4.86374
# Velocity P-wave (km/s) = 8.17669 9.32743 8.77095
#
# Compressibility (1/GPa) = 0.01167665
#
# Stress axis : x y z
#
# Youngs Moduli (GPa) = 88.45119 122.94837 106.96304
#
# Poissons Ratio (x) = 0.42073 0.28726
# Poissons Ratio (y) = 0.30268 0.26186
# Poissons Ratio (z) = 0.23755 0.30100
#
# Static dielectric constant tensor:
#      x y z
#    x 1.214720 0.000000 -0.343940 
#    y 0.000000 1.717900 0.000000 
#    z -0.343940 0.000000 1.588250 
# 
# From -- ./inp_files/72609.got.cif
#   From: 2010.05.17/outbox.cif.g08.bks.cpg/sg15_37_cif.got.tgz:72609.got - 2010.06.03 18:47:42.
