data_PCOD9288918
_publ_section_title
;
Structure prediction by ZEFSAII (Michael W. Deem and Ramdas Pophale) SiO2 
 PCOD9288918
Probable space group: C 2/C
;
_chemical_formula_sum "Si O2"
_cell_formula_units_Z 52
_cell_length_a 7.939422
_cell_length_b 14.639224
_cell_length_c 30.108627
_cell_angle_alpha 90.000000
_cell_angle_beta 137.764334
_cell_angle_gamma 90.000000
_cell_volume 2352.255623
_symmetry_space_group_name_H-M "C 2/C"
_symmetry_group_IT_number 15
_symmetry_cell_setting 'monoclinic'
loop_
_space_group_symop_operation_xyz
x,y,z
-x,y,1/2-z
-x,-y,-z
x,-y,1/2+z
1/2+x,1/2+y,z
1/2-x,1/2+y,1/2-z
1/2-x,1/2-y,-z
1/2+x,1/2-y,1/2+z
loop_
_atom_site_type_symbol
_atom_site_label
_atom_site_fract_x
_atom_site_fract_y
_atom_site_fract_z
Si Si1 0.818078 0.007151 0.891154
Si Si2 0.533407 0.981451 0.598538
Si Si3 0.090295 0.829099 0.912010
Si Si4 0.026442 0.877303 0.704589
Si Si5 0.206393 0.853219 0.476516
Si Si6 0.500000 0.970985 0.750000
Si Si7 0.926573 0.325544 0.434664
O O1 0.956131 0.092633 0.940586
O O2 0.639616 0.961860 0.892943
O O3 0.651423 0.028586 0.815730
O O4 0.016593 0.932004 0.911935
O O5 0.427259 0.917660 0.538599
O O6 0.822509 0.959515 0.664336
O O7 0.502919 0.086201 0.579481
O O8 0.895209 0.761357 0.897715
O O9 0.073332 0.815831 0.855942
O O10 0.353548 0.805960 0.986412
O O11 0.297677 0.911131 0.739229
O O12 0.000000 0.840986 0.750000
O O13 0.250000 0.750000 0.500000
O O14 0.198563 0.851630 0.421668
#
# Coordination Sequence:
#
# PCOD9288918 Si02
#       7
#     8   8   8   8   8   4   8
#     4  11  23  41  66 100 134 181 224 282 346 415
#     4  12  23  40  71  98 133 179 226 285 350 408
#     4  10  22  39  67  95 137 171 222 279 343 409
#     4  11  22  43  70  98 132 186 235 279 348 419
#     4  12  25  40  66 102 138 175 228 292 350 405
#     4  10  22  42  70  96 136 180 236 276 340 424
#     4  11  22  39  63 100 132 172 220 284 346 403
#
# _framework density 22.106441
#
# number of rings (size 3 to 8) (size 9 to 14) (size 15 to 20)
#    0.000    0.923    4.615    3.692    4.308    0.000 
#    0.000    0.000   13.538    0.000    0.000    0.000 
#    0.000    0.000    0.000    0.000    0.000    0.000 
#
# Total GULP energy -145120.152849 kJ/mol
# GULP energy per Si atom -5581.544340 kJ/mol
# Density = 2.205613 g / cm^3
# Si number density = 22.106441 Si / 1000 Ang^3
#
#
#
# Elastic Constant Matrix: (Units=GPa)
#
#
# Indices 1 2 3 4 5 6 
#
# 1 126.7540 4.5600 22.8995 0.0000 -15.0898 0.0000
# 2 4.5600 87.9642 20.8174 0.0000 -7.5748 0.0000
# 3 22.8995 20.8174 89.8557 0.0000 -14.7858 0.0000
# 4 0.0000 0.0000 0.0000 11.6260 0.0000 -9.7615
# 5 -15.0898 -7.5748 -14.7858 0.0000 43.3988 0.0000
# 6 0.0000 0.0000 0.0000 -9.7615 0.0000 26.9552
#
#
#
# Elastic Compliance Matrix: (Units=1/GPa)
#
#
# Indices 1 2 3 4 5 6 
#
# 1 0.008493 0.000194 -0.001820 0.000000 0.002367 0.000000
# 2 0.000194 0.012093 -0.002641 0.000000 0.001279 0.000000
# 3 -0.001820 -0.002641 0.012739 0.000000 0.003246 0.000000
# 4 0.000000 0.000000 0.000000 0.123595 0.000000 0.044758
# 5 0.002367 0.001279 0.003246 0.000000 0.025194 0.000000
# 6 0.000000 0.000000 0.000000 0.044758 0.000000 0.053307
#
#
# Mechanical properties :
#
#
# Convention : Reuss Voigt Hill
#
# Bulk Modulus (GPa) = 40.33577 44.56973 42.45275
# Shear Modulus (GPa) = 19.82411 33.48248 26.65330
#
# Velocity S-wave (km/s) = 2.99784 3.89601 3.47606
# Velocity P-wave (km/s) = 5.50168 6.35954 5.94610
#
# Compressibility (1/GPa) = 0.02479189
#
# Stress axis : x y z
#
# Youngs Moduli (GPa) = 117.74592 82.69068 78.50057
#
# Poissons Ratio (x) = -0.01606 0.14286
# Poissons Ratio (y) = -0.02287 0.20731
# Poissons Ratio (z) = 0.21429 0.21837
#
# Static dielectric constant tensor:
#      x y z
#    x 1.911670 0.000000 0.023110 
#    y 0.000000 1.776500 0.000000 
#    z 0.023110 0.000000 1.844810 
# 
# From -- ./inp_files/308323.got.cif
#   From: 2010.05.17/outbox.cif.g08.bks.cpg/sg15_155_cif.got.tgz:308323.got - 2010.06.03 18:47:42.
