data_PCOD9288176
_publ_section_title
;
Structure prediction by ZEFSAII (Michael W. Deem and Ramdas Pophale) SiO2 
 PCOD9288176
Probable space group: C 2/C
;
_chemical_formula_sum "Si O2"
_cell_formula_units_Z 52
_cell_length_a 23.476560
_cell_length_b 22.418206
_cell_length_c 5.206901
_cell_angle_alpha 90.000000
_cell_angle_beta 62.365738
_cell_angle_gamma 90.000000
_cell_volume 2427.796431
_symmetry_space_group_name_H-M "C 2/C"
_symmetry_group_IT_number 15
_symmetry_cell_setting 'monoclinic'
loop_
_space_group_symop_operation_xyz
x,y,z
-x,y,1/2-z
-x,-y,-z
x,-y,1/2+z
1/2+x,1/2+y,z
1/2-x,1/2+y,1/2-z
1/2-x,1/2-y,-z
1/2+x,1/2-y,1/2+z
loop_
_atom_site_type_symbol
_atom_site_label
_atom_site_fract_x
_atom_site_fract_y
_atom_site_fract_z
Si Si1 0.938199 0.753114 0.263826
Si Si2 0.843577 0.847624 0.259846
Si Si3 0.576682 0.961702 0.625322
Si Si4 0.238989 0.820872 0.562556
Si Si5 0.576855 0.536879 0.078415
Si Si6 0.379950 0.149653 0.699285
Si Si7 0.500000 0.160303 0.750000
O O1 0.894181 0.793168 0.176481
O O2 0.896885 0.716109 0.559030
O O3 0.000000 0.788003 0.250000
O O4 0.972045 0.701871 0.029420
O O5 0.806681 0.841485 0.608865
O O6 0.792773 0.840581 0.138043
O O7 0.884309 0.906300 0.106069
O O8 0.500000 0.949705 0.750000
O O9 0.614654 0.899690 0.532443
O O10 0.591968 0.003852 0.352988
O O11 0.250000 0.750000 0.500000
O O12 0.309447 0.848201 0.460047
O O13 0.500000 0.548790 0.250000
O O14 0.591548 0.514650 0.336493
O O15 0.437546 0.128943 0.767271
#
# Coordination Sequence:
#
# PCOD9288176 Si02
#       7
#     8   8   8   8   8   8   4
#     4  10  23  38  64 100 130 169 222 288 350 403
#     4  12  26  44  70 102 139 187 228 284 341 426
#     4  10  23  40  63  92 124 165 216 273 333 385
#     4  12  26  45  67 100 141 191 227 271 347 429
#     4  10  23  46  74 105 139 183 233 294 357 411
#     4  11  24  42  65  93 133 175 229 276 347 397
#     4  10  22  38  64  96 126 170 218 296 348 392
#
# _framework density 21.418602
#
# number of rings (size 3 to 8) (size 9 to 14) (size 15 to 20)
#    0.000    1.231    1.538    3.692   10.769    1.846 
#    0.000    4.615    0.000    0.000    0.000    0.000 
#    0.000    0.000    0.000    0.000    0.000    0.000 
#
# Total GULP energy -145245.967328 kJ/mol
# GULP energy per Si atom -5586.383359 kJ/mol
# Density = 2.136985 g / cm^3
# Si number density = 21.418602 Si / 1000 Ang^3
#
#
#
# Elastic Constant Matrix: (Units=GPa)
#
#
# Indices 1 2 3 4 5 6 
#
# 1 81.7902 23.4597 29.4394 0.0000 -4.4894 0.0000
# 2 23.4597 82.3354 28.3543 0.0000 -16.5025 0.0000
# 3 29.4394 28.3543 113.8558 0.0000 -2.6043 0.0000
# 4 0.0000 0.0000 0.0000 21.1194 0.0000 3.9975
# 5 -4.4894 -16.5025 -2.6043 0.0000 34.9328 0.0000
# 6 0.0000 0.0000 0.0000 3.9975 0.0000 3.2174
#
#
#
# Elastic Compliance Matrix: (Units=1/GPa)
#
#
# Indices 1 2 3 4 5 6 
#
# 1 0.014141 -0.002990 -0.002907 0.000000 0.000188 0.000000
# 2 -0.002990 0.015324 -0.002891 0.000000 0.006639 0.000000
# 3 -0.002907 -0.002891 0.010232 0.000000 -0.000977 0.000000
# 4 0.000000 0.000000 0.000000 0.061909 0.000000 -0.076918
# 5 0.000188 0.006639 -0.000977 0.000000 0.031714 0.000000
# 6 0.000000 0.000000 0.000000 -0.076918 0.000000 0.406375
#
#
# Mechanical properties :
#
#
# Convention : Reuss Voigt Hill
#
# Bulk Modulus (GPa) = 45.20879 48.94311 47.07595
# Shear Modulus (GPa) = 8.85512 24.96913 16.91213
#
# Velocity S-wave (km/s) = 2.03551 3.41804 2.81303
# Velocity P-wave (km/s) = 5.16502 6.20304 5.70768
#
# Compressibility (1/GPa) = 0.02211959
#
# Stress axis : x y z
#
# Youngs Moduli (GPa) = 70.71691 65.25802 97.72829
#
# Poissons Ratio (x) = 0.19514 0.28413
# Poissons Ratio (y) = 0.21146 0.28255
# Poissons Ratio (z) = 0.20560 0.18867
#
# Static dielectric constant tensor:
#      x y z
#    x 1.808470 0.000000 0.007000 
#    y 0.000000 1.809240 0.000000 
#    z 0.007000 0.000000 1.814250 
# 
# From -- ./inp_files/15803.got.cif
#   From: 2010.05.17/outbox.cif.g08.bks.cpg/sg15_8_cif.got.tgz:15803.got - 2010.06.03 18:47:42.
