data_PCOD9288162
_publ_section_title
;
Structure prediction by ZEFSAII (Michael W. Deem and Ramdas Pophale) SiO2 
 PCOD9288162
Probable space group: C 2/C
;
_chemical_formula_sum "Si O2"
_cell_formula_units_Z 60
_cell_length_a 19.294775
_cell_length_b 11.539478
_cell_length_c 11.665918
_cell_angle_alpha 90.000000
_cell_angle_beta 99.704091
_cell_angle_gamma 90.000000
_cell_volume 2560.270103
_symmetry_space_group_name_H-M "C 2/C"
_symmetry_group_IT_number 15
_symmetry_cell_setting 'monoclinic'
loop_
_space_group_symop_operation_xyz
x,y,z
-x,y,1/2-z
-x,-y,-z
x,-y,1/2+z
1/2+x,1/2+y,z
1/2-x,1/2+y,1/2-z
1/2-x,1/2-y,-z
1/2+x,1/2-y,1/2+z
loop_
_atom_site_type_symbol
_atom_site_label
_atom_site_fract_x
_atom_site_fract_y
_atom_site_fract_z
Si Si1 0.320632 0.578898 0.189152
Si Si2 0.238189 0.385188 0.877484
Si Si3 0.074733 0.783153 0.933973
Si Si4 0.665877 0.659860 0.883634
Si Si5 0.500000 0.875189 0.250000
Si Si6 0.685396 0.074867 0.989230
Si Si7 0.555606 0.949992 0.925209
Si Si8 0.515673 0.685202 0.884192
O O1 0.298216 0.635297 0.301354
O O2 0.388246 0.631844 0.145674
O O3 0.330984 0.441539 0.207880
O O4 0.251746 0.595725 0.089012
O O5 0.176977 0.290163 0.840830
O O6 0.214394 0.519651 0.877942
O O7 0.271605 0.363850 0.010851
O O8 0.135961 0.687893 0.974975
O O9 0.008641 0.714981 0.857428
O O10 0.044214 0.840272 0.040111
O O11 0.593665 0.641095 0.931982
O O12 0.443017 0.969625 0.189361
O O13 0.631074 0.970012 0.005926
O O14 0.528249 0.823792 0.888644
O O15 0.500000 0.000000 0.000000
O O16 0.500000 0.648538 0.750000
#
# Coordination Sequence:
#
# PCOD9288162 Si02
#       8
#     8   8   8   8   4   8   8   8
#     4  11  26  44  69  94 138 185 227 278 339 424
#     4  10  23  43  71  97 134 179 225 288 344 404
#     4  11  26  43  65 103 133 182 227 285 347 404
#     4  10  25  46  63 103 133 179 233 277 343 416
#     4  10  22  38  64  94 134 174 220 286 340 400
#     4  10  22  40  66 101 134 165 226 289 338 404
#     4  11  20  37  62 103 137 166 223 288 346 402
#     4  12  25  41  70  98 138 178 224 286 341 415
#
# _framework density 23.435027000000002
#
# number of rings (size 3 to 8) (size 9 to 14) (size 15 to 20)
#    0.000    1.333    4.667    0.400    5.600    4.800 
#    1.200    0.000    0.000    0.000    0.000    0.000 
#    0.000    0.000    0.000    0.000    0.000    0.000 
#
# Total GULP energy -167085.550257 kJ/mol
# GULP energy per Si atom -5569.518342 kJ/mol
# Density = 2.338169 g / cm^3
# Si number density = 23.435027 Si / 1000 Ang^3
#
#
#
# Elastic Constant Matrix: (Units=GPa)
#
#
# Indices 1 2 3 4 5 6 
#
# 1 100.2690 -0.7225 20.1625 0.0000 -18.8057 0.0000
# 2 -0.7225 24.8557 -1.9947 0.0000 -5.7428 0.0000
# 3 20.1625 -1.9947 51.7790 0.0000 -16.8318 0.0000
# 4 0.0000 0.0000 0.0000 19.0545 0.0000 -10.1556
# 5 -18.8057 -5.7428 -16.8318 0.0000 44.9654 0.0000
# 6 0.0000 0.0000 0.0000 -10.1556 0.0000 30.5441
#
#
#
# Elastic Compliance Matrix: (Units=1/GPa)
#
#
# Indices 1 2 3 4 5 6 
#
# 1 0.011304 0.000918 -0.003178 0.000000 0.003655 0.000000
# 2 0.000918 0.042189 0.003580 0.000000 0.007112 0.000000
# 3 -0.003178 0.003580 0.023232 0.000000 0.007824 0.000000
# 4 0.000000 0.000000 0.000000 0.063784 0.000000 0.021208
# 5 0.003655 0.007112 0.007824 0.000000 0.027605 0.000000
# 6 0.000000 0.000000 0.000000 0.021208 0.000000 0.039791
#
#
# Mechanical properties :
#
#
# Convention : Reuss Voigt Hill
#
# Bulk Modulus (GPa) = 12.60002 23.53269 18.06635
# Shear Modulus (GPa) = 21.57756 29.54335 25.56045
#
# Velocity S-wave (km/s) = 3.03766 3.55441 3.30615
# Velocity P-wave (km/s) = 4.20612 5.18735 4.72229
#
# Compressibility (1/GPa) = 0.07936495
#
# Stress axis : x y z
#
# Youngs Moduli (GPa) = 88.46065 23.70262 43.04440
#
# Poissons Ratio (x) = -0.02176 0.13681
# Poissons Ratio (y) = -0.08122 -0.15409
# Poissons Ratio (z) = 0.28115 -0.08485
#
# Static dielectric constant tensor:
#      x y z
#    x 1.929340 0.000000 0.021310 
#    y 0.000000 1.976680 0.000000 
#    z 0.021310 0.000000 1.904960 
# 
# From -- ./inp_files/111659.got.cif
#   From: 2010.05.17/outbox.cif.g08.bks.cpg/sg15_56_cif.got.tgz:111659.got - 2010.06.03 18:47:42.
