data_PCOD9288712
_publ_section_title
;
Structure prediction by ZEFSAII (Michael W. Deem and Ramdas Pophale) SiO2 
 PCOD9288712
Probable space group: C 2/C
;
_chemical_formula_sum "Si O2"
_cell_formula_units_Z 44
_cell_length_a 5.901131
_cell_length_b 15.627953
_cell_length_c 21.351679
_cell_angle_alpha 90.000000
_cell_angle_beta 69.269630
_cell_angle_gamma 90.000000
_cell_volume 1841.620483
_symmetry_space_group_name_H-M "C 2/C"
_symmetry_group_IT_number 15
_symmetry_cell_setting 'monoclinic'
loop_
_space_group_symop_operation_xyz
x,y,z
-x,y,1/2-z
-x,-y,-z
x,-y,1/2+z
1/2+x,1/2+y,z
1/2-x,1/2+y,1/2-z
1/2-x,1/2-y,-z
1/2+x,1/2-y,1/2+z
loop_
_atom_site_type_symbol
_atom_site_label
_atom_site_fract_x
_atom_site_fract_y
_atom_site_fract_z
Si Si1 0.857324 0.921116 0.045462
Si Si2 0.118547 0.333232 0.962874
Si Si3 0.284427 0.828936 0.819834
Si Si4 0.500000 0.429439 0.750000
Si Si5 0.440896 0.971702 0.629924
Si Si6 0.866744 0.196285 0.910713
O O1 0.994319 0.892841 0.095340
O O2 0.589164 0.947245 0.092499
O O3 0.824260 0.844786 0.996461
O O4 0.000000 0.000000 0.000000
O O5 0.141044 0.422666 0.924360
O O6 0.081714 0.261953 0.912464
O O7 0.859067 0.320976 0.021413
O O8 0.500000 0.814238 0.750000
O O9 0.068369 0.866643 0.800320
O O10 0.367636 0.905739 0.857252
O O11 0.255514 0.742353 0.861499
O O12 0.728107 0.482347 0.701510
#
# Coordination Sequence:
#
# PCOD9288712 Si02
#       6
#     8   8   8   4   8   8
#     4  12  24  38  67 102 141 168 204 272 341 395
#     4  10  22  39  64 100 132 174 211 265 326 391
#     4   9  21  42  68  93 122 175 231 272 319 387
#     4  10  22  40  70  92 122 174 234 278 308 400
#     4  10  22  39  66 100 127 173 220 267 332 385
#     4  10  22  40  66 102 133 167 225 265 326 399
#
# _framework density 23.892001
#
# number of rings (size 3 to 8) (size 9 to 14) (size 15 to 20)
#    0.000    1.818    1.818    1.091    2.545    4.364 
#    0.000    0.000   16.000    0.000   14.182    0.000 
#    0.000    0.000    0.000    0.000    0.000    0.000 
#
# Total GULP energy -122759.742990 kJ/mol
# GULP energy per Si atom -5579.988318 kJ/mol
# Density = 2.383762 g / cm^3
# Si number density = 23.892001 Si / 1000 Ang^3
#
#
#
# Elastic Constant Matrix: (Units=GPa)
#
#
# Indices 1 2 3 4 5 6 
#
# 1 81.3165 18.2011 25.9645 0.0000 2.1279 0.0000
# 2 18.2011 61.4891 25.9063 0.0000 -8.6799 0.0000
# 3 25.9645 25.9063 78.4257 0.0000 -7.8294 0.0000
# 4 0.0000 0.0000 0.0000 23.3205 0.0000 4.1024
# 5 2.1279 -8.6799 -7.8294 0.0000 51.4348 0.0000
# 6 0.0000 0.0000 0.0000 4.1024 0.0000 36.8933
#
#
#
# Elastic Compliance Matrix: (Units=1/GPa)
#
#
# Indices 1 2 3 4 5 6 
#
# 1 0.014227 -0.002778 -0.003958 0.000000 -0.001660 0.000000
# 2 -0.002778 0.019700 -0.005325 0.000000 0.002629 0.000000
# 3 -0.003958 -0.005325 0.015990 0.000000 0.001699 0.000000
# 4 0.000000 0.000000 0.000000 0.043736 0.000000 -0.004863
# 5 -0.001660 0.002629 0.001699 0.000000 0.020213 0.000000
# 6 0.000000 0.000000 0.000000 -0.004863 0.000000 0.027646
#
#
# Mechanical properties :
#
#
# Convention : Reuss Voigt Hill
#
# Bulk Modulus (GPa) = 38.76865 40.15279 39.46072
# Shear Modulus (GPa) = 28.69725 32.40704 30.55214
#
# Velocity S-wave (km/s) = 3.46948 3.68692 3.57986
# Velocity P-wave (km/s) = 5.68433 5.91329 5.79994
#
# Compressibility (1/GPa) = 0.02579404
#
# Stress axis : x y z
#
# Youngs Moduli (GPa) = 70.29057 50.76134 62.53875
#
# Poissons Ratio (x) = 0.14101 0.24754
# Poissons Ratio (y) = 0.19526 0.33304
# Poissons Ratio (z) = 0.27822 0.27032
#
# Static dielectric constant tensor:
#      x y z
#    x 1.983860 0.000000 0.059880 
#    y 0.000000 2.000740 0.000000 
#    z 0.059880 0.000000 1.919210 
# 
# From -- ./inp_files/226933.got.cif
#   From: 2010.05.17/outbox.cif.g08.bks.cpg/sg15_114_cif.got.tgz:226933.got - 2010.06.03 18:47:42.
