data_PCOD9288026
_publ_section_title
;
Structure prediction by ZEFSAII (Michael W. Deem and Ramdas Pophale) SiO2 
 PCOD9288026
Probable space group: C 2/C
;
_chemical_formula_sum "Si O2"
_cell_formula_units_Z 52
_cell_length_a 9.298076
_cell_length_b 23.549346
_cell_length_c 15.475026
_cell_angle_alpha 90.000000
_cell_angle_beta 48.709619
_cell_angle_gamma 90.000000
_cell_volume 2546.009548
_symmetry_space_group_name_H-M "C 2/C"
_symmetry_group_IT_number 15
_symmetry_cell_setting 'monoclinic'
loop_
_space_group_symop_operation_xyz
x,y,z
-x,y,1/2-z
-x,-y,-z
x,-y,1/2+z
1/2+x,1/2+y,z
1/2-x,1/2+y,1/2-z
1/2-x,1/2-y,-z
1/2+x,1/2-y,1/2+z
loop_
_atom_site_type_symbol
_atom_site_label
_atom_site_fract_x
_atom_site_fract_y
_atom_site_fract_z
Si Si1 0.231243 0.408767 0.313755
Si Si2 0.536516 0.248275 0.129985
Si Si3 0.444114 0.872190 0.942316
Si Si4 0.844249 0.042070 0.525936
Si Si5 0.774123 0.038314 0.354361
Si Si6 0.000000 0.567486 0.750000
Si Si7 0.980920 0.868706 0.433404
O O1 0.160013 0.371133 0.422047
O O2 0.227213 0.474694 0.342094
O O3 0.435124 0.400848 0.184800
O O4 0.076957 0.397286 0.299602
O O5 0.500000 0.252546 0.250000
O O6 0.465490 0.186907 0.126077
O O7 0.458263 0.304758 0.114792
O O8 0.750000 0.250000 0.000000
O O9 0.611647 0.919245 0.881540
O O10 0.246843 0.879594 0.965096
O O11 0.771521 0.037876 0.458769
O O12 0.667672 0.027598 0.655401
O O13 0.913318 0.104852 0.526084
O O14 0.000000 0.000000 0.500000
O O15 0.000000 0.052334 0.250000
#
# Coordination Sequence:
#
# PCOD9288026 Si02
#       7
#     8   8   8   8   8   4   8
#     4  11  21  40  66  91 128 172 223 261 331 398
#     4  10  22  42  68 101 129 167 227 279 324 391
#     4  11  22  39  67  94 131 165 217 281 332 372
#     4  11  23  40  60  92 129 161 219 264 320 384
#     4  12  25  40  59  93 140 174 210 263 336 403
#     4  10  22  38  62  88 122 170 220 258 308 402
#     4  10  22  41  69  94 121 174 226 267 319 402
#
# _framework density 20.424118
#
# number of rings (size 3 to 8) (size 9 to 14) (size 15 to 20)
#    0.000    1.231    1.538    6.462    2.154    2.462 
#    1.385    0.769    6.769    0.000    0.000    0.000 
#    0.000    0.000    0.000    0.000    0.000    0.000 
#
# Total GULP energy -144736.614908 kJ/mol
# GULP energy per Si atom -5566.792881 kJ/mol
# Density = 2.037763 g / cm^3
# Si number density = 20.424118 Si / 1000 Ang^3
#
#
#
# Elastic Constant Matrix: (Units=GPa)
#
#
# Indices 1 2 3 4 5 6 
#
# 1 87.7245 46.6100 22.1685 0.0000 -7.0399 0.0000
# 2 46.6100 139.3953 22.2472 0.0000 7.3302 0.0000
# 3 22.1685 22.2472 67.8772 0.0000 -10.3459 0.0000
# 4 0.0000 0.0000 0.0000 26.9423 0.0000 0.5307
# 5 -7.0399 7.3302 -10.3459 0.0000 37.7072 0.0000
# 6 0.0000 0.0000 0.0000 0.5307 0.0000 24.7862
#
#
#
# Elastic Compliance Matrix: (Units=1/GPa)
#
#
# Indices 1 2 3 4 5 6 
#
# 1 0.014829 -0.004651 -0.002880 0.000000 0.002883 0.000000
# 2 -0.004651 0.009215 -0.001990 0.000000 -0.003206 0.000000
# 3 -0.002880 -0.001990 0.017014 0.000000 0.004517 0.000000
# 4 0.000000 0.000000 0.000000 0.037132 0.000000 -0.000795
# 5 0.002883 -0.003206 0.004517 0.000000 0.028921 0.000000
# 6 0.000000 0.000000 0.000000 -0.000795 0.000000 0.040362
#
#
# Mechanical properties :
#
#
# Convention : Reuss Voigt Hill
#
# Bulk Modulus (GPa) = 45.41792 53.00536 49.21164
# Shear Modulus (GPa) = 28.76000 31.48523 30.12262
#
# Velocity S-wave (km/s) = 3.75659 3.93054 3.84455
# Velocity P-wave (km/s) = 6.41105 6.82697 6.62228
#
# Compressibility (1/GPa) = 0.02201774
#
# Stress axis : x y z
#
# Youngs Moduli (GPa) = 67.43426 108.51844 58.77597
#
# Poissons Ratio (x) = 0.50467 0.16925
# Poissons Ratio (y) = 0.31360 0.11697
# Poissons Ratio (z) = 0.19418 0.21596
#
# Static dielectric constant tensor:
#      x y z
#    x 1.825350 0.000000 0.038240 
#    y 0.000000 1.855900 0.000000 
#    z 0.038240 0.000000 1.890720 
# 
# From -- ./inp_files/138450.got.cif
#   From: 2010.05.17/outbox.cif.g08.bks.cpg/sg15_70_cif.got.tgz:138450.got - 2010.06.03 18:47:42.
