data_PCOD9288339
_publ_section_title
;
Structure prediction by ZEFSAII (Michael W. Deem and Ramdas Pophale) SiO2 
 PCOD9288339
Probable space group: C 2/C
;
_chemical_formula_sum "Si O2"
_cell_formula_units_Z 56
_cell_length_a 19.959274
_cell_length_b 8.044031
_cell_length_c 16.125289
_cell_angle_alpha 90.000000
_cell_angle_beta 96.482684
_cell_angle_gamma 90.000000
_cell_volume 2572.410052
_symmetry_space_group_name_H-M "C 2/C"
_symmetry_group_IT_number 15
_symmetry_cell_setting 'monoclinic'
loop_
_space_group_symop_operation_xyz
x,y,z
-x,y,1/2-z
-x,-y,-z
x,-y,1/2+z
1/2+x,1/2+y,z
1/2-x,1/2+y,1/2-z
1/2-x,1/2-y,-z
1/2+x,1/2-y,1/2+z
loop_
_atom_site_type_symbol
_atom_site_label
_atom_site_fract_x
_atom_site_fract_y
_atom_site_fract_z
Si Si1 0.709178 0.487695 0.348782
Si Si2 0.500000 0.138182 0.750000
Si Si3 0.591926 0.885130 0.691346
Si Si4 0.286096 0.066322 0.017367
Si Si5 0.926897 0.411692 0.997303
Si Si6 0.568008 0.376377 0.870608
Si Si7 0.772690 0.396377 0.698078
Si Si8 0.000000 0.884429 0.250000
O O1 0.758648 0.529105 0.432446
O O2 0.636706 0.524802 0.376378
O O3 0.718253 0.582850 0.262960
O O4 0.720010 0.296644 0.324604
O O5 0.559865 0.247713 0.793736
O O6 0.532616 0.020942 0.686760
O O7 0.599578 0.852928 0.596113
O O8 0.658588 0.948560 0.745854
O O9 0.563886 0.730505 0.739800
O O10 0.264470 0.013877 0.107854
O O11 0.250000 0.250000 0.000000
O O12 0.367778 0.035915 0.024990
O O13 0.936282 0.243931 0.052052
O O14 0.000000 0.500000 0.000000
O O15 0.511179 0.508070 0.834944
#
# Coordination Sequence:
#
# PCOD9288339 Si02
#       8
#     8   4   8   8   8   8   8   4
#     4  11  25  44  69 101 136 188 234 288 354 421
#     4  10  22  38  68  96 134 184 224 284 338 428
#     4  11  22  43  72  97 135 185 234 276 359 419
#     4  10  25  46  68 102 145 183 235 293 359 424
#     4  12  25  43  71 108 138 187 238 295 354 432
#     4  11  24  43  67 100 145 174 235 292 352 417
#     4  11  24  44  70  98 137 183 233 293 347 426
#     4  10  24  46  64 104 138 188 226 294 352 418
#
# _framework density 21.769466999999999
#
# number of rings (size 3 to 8) (size 9 to 14) (size 15 to 20)
#    0.000    1.143    4.286    0.857    6.000    2.286 
#    0.000    0.000    0.000    0.000    0.000    0.000 
#    0.000    0.000    0.000    0.000    0.000    0.000 
#
# Total GULP energy -155975.958400 kJ/mol
# GULP energy per Si atom -5570.569943 kJ/mol
# Density = 2.171992 g / cm^3
# Si number density = 21.769467 Si / 1000 Ang^3
#
#
#
# Elastic Constant Matrix: (Units=GPa)
#
#
# Indices 1 2 3 4 5 6 
#
# 1 28.9768 -22.9906 -15.9932 0.0000 12.1095 0.0000
# 2 -22.9906 33.2066 -8.5628 0.0000 -0.5252 0.0000
# 3 -15.9932 -8.5628 133.6076 0.0000 10.6980 0.0000
# 4 0.0000 0.0000 0.0000 24.8253 0.0000 -2.5285
# 5 12.1095 -0.5252 10.6980 0.0000 25.9413 0.0000
# 6 0.0000 0.0000 0.0000 -2.5285 0.0000 21.6618
#
#
#
# Elastic Compliance Matrix: (Units=1/GPa)
#
#
# Indices 1 2 3 4 5 6 
#
# 1 0.469988 0.346858 0.098754 0.000000 -0.253095 0.000000
# 2 0.346858 0.286608 0.074860 0.000000 -0.186984 0.000000
# 3 0.098754 0.074860 0.028618 0.000000 -0.056385 0.000000
# 4 0.000000 0.000000 0.000000 0.040766 0.000000 0.004758
# 5 -0.253095 -0.186984 -0.056385 0.000000 0.176162 0.000000
# 6 0.000000 0.000000 0.000000 0.004758 0.000000 0.046720
#
#
# Mechanical properties :
#
#
# Convention : Reuss Voigt Hill
#
# Bulk Modulus (GPa) = 0.54760 11.18864 5.86812
# Shear Modulus (GPa) = 8.10851 30.70815 19.40833
#
# Velocity S-wave (km/s) = 1.93205 3.75988 2.98910
# Velocity P-wave (km/s) = 2.28674 4.89895 3.82288
#
# Compressibility (1/GPa) = 1.82615836
#
# Stress axis : x y z
#
# Youngs Moduli (GPa) = 2.12772 3.48909 34.94266
#
# Poissons Ratio (x) = -1.21022 -3.45074
# Poissons Ratio (y) = -0.73801 -2.61582
# Poissons Ratio (z) = -0.21012 -0.26119
#
# Static dielectric constant tensor:
#      x y z
#    x 1.810680 0.000000 0.008410 
#    y 0.000000 1.845670 0.000000 
#    z 0.008410 0.000000 1.910450 
# 
# From -- ./inp_files/166700.got.cif
#   From: 2010.05.17/outbox.cif.g08.bks.cpg/sg15_84_cif.got.tgz:166700.got - 2010.06.03 18:47:42.
