data_PCOD9288683
_publ_section_title
;
Structure prediction by ZEFSAII (Michael W. Deem and Ramdas Pophale) SiO2 
 PCOD9288683
Probable space group: C 2/C
;
_chemical_formula_sum "Si O2"
_cell_formula_units_Z 40
_cell_length_a 14.429041
_cell_length_b 15.705881
_cell_length_c 16.609107
_cell_angle_alpha 90.000000
_cell_angle_beta 152.804034
_cell_angle_gamma 90.000000
_cell_volume 1720.266780
_symmetry_space_group_name_H-M "C 2/C"
_symmetry_group_IT_number 15
_symmetry_cell_setting 'monoclinic'
loop_
_space_group_symop_operation_xyz
x,y,z
-x,y,1/2-z
-x,-y,-z
x,-y,1/2+z
1/2+x,1/2+y,z
1/2-x,1/2+y,1/2-z
1/2-x,1/2-y,-z
1/2+x,1/2-y,1/2+z
loop_
_atom_site_type_symbol
_atom_site_label
_atom_site_fract_x
_atom_site_fract_y
_atom_site_fract_z
Si Si1 0.829083 0.036907 0.925579
Si Si2 0.993641 0.588397 0.544332
Si Si3 0.788700 0.350030 0.036736
Si Si4 0.756785 0.684361 0.881028
Si Si5 0.302304 0.364017 0.985019
O O1 0.679986 0.082334 0.749371
O O2 0.874682 0.101949 0.033285
O O3 0.740859 0.953321 0.900556
O O4 0.000000 0.000000 0.000000
O O5 0.051927 0.661631 0.526171
O O6 0.000000 0.500000 0.500000
O O7 0.812197 0.608997 0.465920
O O8 0.000000 0.361290 0.250000
O O9 0.750000 0.250000 0.000000
O O10 0.780496 0.646093 0.988710
O O11 0.547287 0.646072 0.683837
O O12 0.732954 0.784795 0.877274
#
# Coordination Sequence:
#
# PCOD9288683 Si02
#       5
#     8   8   8   8   8
#     4  11  23  43  65  91 129 175 213 269 325 391
#     4  11  24  41  64  96 127 171 222 267 328 391
#     4  10  25  45  65  96 135 171 218 269 328 393
#     4  10  22  39  63  93 122 164 214 270 321 397
#     4  10  22  41  62  92 128 161 215 268 330 378
#
# _framework density 23.252208
#
# number of rings (size 3 to 8) (size 9 to 14) (size 15 to 20)
#    0.000    1.600    2.000    1.200    5.600    1.600 
#   10.800    0.000    0.000    0.000    0.000    0.000 
#    0.000    0.000    0.000    0.000    0.000    0.000 
#
# Total GULP energy -111779.939062 kJ/mol
# GULP energy per Si atom -5588.996953 kJ/mol
# Density = 2.319929 g / cm^3
# Si number density = 23.252208 Si / 1000 Ang^3
#
#
#
# Elastic Constant Matrix: (Units=GPa)
#
#
# Indices 1 2 3 4 5 6 
#
# 1 194.3726 79.6766 26.0798 -0.0009 -11.7391 0.0019
# 2 79.6766 105.7691 -15.4760 0.0243 -15.3905 0.0048
# 3 26.0798 -15.4760 35.5965 0.0147 -1.3839 0.0051
# 4 -0.0009 0.0243 0.0147 27.8909 0.0055 -9.1479
# 5 -11.7391 -15.3905 -1.3839 0.0055 17.5535 0.0003
# 6 0.0019 0.0048 0.0051 -9.1479 0.0003 43.2052
#
#
#
# Elastic Compliance Matrix: (Units=1/GPa)
#
#
# Indices 1 2 3 4 5 6 
#
# 1 0.011041 -0.010621 -0.012822 0.000019 -0.002939 0.000006
# 2 -0.010621 0.022062 0.017904 -0.000036 0.013652 -0.000012
# 3 -0.012822 0.017904 0.045687 -0.000048 0.010725 -0.000017
# 4 0.000019 -0.000036 -0.000048 0.038530 -0.000034 0.008158
# 5 -0.002939 0.013652 0.010725 -0.000034 0.067818 -0.000010
# 6 0.000006 -0.000012 -0.000017 0.008158 -0.000010 0.024873
#
#
# Mechanical properties :
#
#
# Convention : Reuss Voigt Hill
#
# Bulk Modulus (GPa) = 14.76815 57.36655 36.06735
# Shear Modulus (GPa) = 20.52041 34.09377 27.30709
#
# Velocity S-wave (km/s) = 2.97394 3.83333 3.43065
# Velocity P-wave (km/s) = 4.26116 6.65714 5.58905
#
# Compressibility (1/GPa) = 0.06771328
#
# Stress axis : x y z
#
# Youngs Moduli (GPa) = 90.56821 45.32711 21.88788
#
# Poissons Ratio (x) = 0.48143 0.28064
# Poissons Ratio (y) = 0.96195 -0.39188
# Poissons Ratio (z) = 1.16122 -0.81154
#
# Static dielectric constant tensor:
#      x y z
#    x 1.908940 -0.000020 0.061680 
#    y -0.000020 1.835240 -0.000010 
#    z 0.061680 -0.000010 1.916980 
# 
# From -- ./inp_files/29233.got.cif
#   From: 2010.05.17/outbox.cif.g08.bks.cpg/sg15_15_cif.got.tgz:29233.got - 2010.06.03 18:47:42.
