data_PCOD9288284
_publ_section_title
;
Structure prediction by ZEFSAII (Michael W. Deem and Ramdas Pophale) SiO2 
 PCOD9288284
Probable space group: C 2/C
;
_chemical_formula_sum "Si O2"
_cell_formula_units_Z 56
_cell_length_a 15.206454
_cell_length_b 14.055387
_cell_length_c 11.222369
_cell_angle_alpha 90.000000
_cell_angle_beta 110.897737
_cell_angle_gamma 90.000000
_cell_volume 2240.803622
_symmetry_space_group_name_H-M "C 2/C"
_symmetry_group_IT_number 15
_symmetry_cell_setting 'monoclinic'
loop_
_space_group_symop_operation_xyz
x,y,z
-x,y,1/2-z
-x,-y,-z
x,-y,1/2+z
1/2+x,1/2+y,z
1/2-x,1/2+y,1/2-z
1/2-x,1/2-y,-z
1/2+x,1/2-y,1/2+z
loop_
_atom_site_type_symbol
_atom_site_label
_atom_site_fract_x
_atom_site_fract_y
_atom_site_fract_z
Si Si1 0.249248 0.677395 0.677335
Si Si2 0.897909 0.259330 0.583961
Si Si3 0.207612 0.315345 0.613480
Si Si4 0.154356 0.558281 0.318887
Si Si5 0.201615 0.001028 0.918205
Si Si6 0.479603 0.267093 0.560224
Si Si7 0.000000 0.063929 0.250000
Si Si8 0.500000 0.896051 0.250000
O O1 0.177887 0.733953 0.558818
O O2 0.350947 0.700207 0.666325
O O3 0.240776 0.727702 0.798349
O O4 0.244709 0.564843 0.656523
O O5 0.905289 0.367004 0.630290
O O6 0.988807 0.222858 0.561264
O O7 0.167420 0.383001 0.702288
O O8 0.268271 0.391658 0.573014
O O9 0.128326 0.264562 0.498289
O O10 0.254735 0.542241 0.436880
O O11 0.091663 0.463756 0.295399
O O12 0.091389 0.996982 0.831368
O O13 0.510435 0.361417 0.645133
O O14 0.518716 0.174422 0.647880
#
# Coordination Sequence:
#
# PCOD9288284 Si02
#       8
#     8   8   8   8   8   8   4   4
#     4   9  21  40  66  95 128 177 223 275 323 392
#     4   9  19  40  63  91 131 169 221 273 329 390
#     4  11  23  42  67 102 132 176 223 278 346 398
#     4  10  22  38  67 102 133 167 220 277 339 408
#     4  11  24  46  68  97 135 180 226 280 330 404
#     4  11  24  41  64  94 135 177 218 280 338 396
#     4  11  28  46  63  94 136 188 233 268 327 408
#     4  11  22  38  59 104 134 168 211 274 351 404
#
# _framework density 24.991033999999999
#
# number of rings (size 3 to 8) (size 9 to 14) (size 15 to 20)
#    0.000    1.714    1.429    2.571    4.000    5.714 
#    0.000    2.143    0.000    0.000    0.000    0.000 
#    0.000    0.000    0.000    0.000    0.000    0.000 
#
# Total GULP energy -156412.070106 kJ/mol
# GULP energy per Si atom -5586.145361 kJ/mol
# Density = 2.493415 g / cm^3
# Si number density = 24.991034 Si / 1000 Ang^3
#
#
#
# Elastic Constant Matrix: (Units=GPa)
#
#
# Indices 1 2 3 4 5 6 
#
# 1 66.2880 19.8302 23.6853 0.0000 9.3938 0.0000
# 2 19.8302 129.3466 29.9038 0.0000 7.2484 0.0000
# 3 23.6853 29.9038 95.0860 0.0000 22.9026 0.0000
# 4 0.0000 0.0000 0.0000 34.8602 0.0000 4.4916
# 5 9.3938 7.2484 22.9026 0.0000 44.0392 0.0000
# 6 0.0000 0.0000 0.0000 4.4916 0.0000 25.8745
#
#
#
# Elastic Compliance Matrix: (Units=1/GPa)
#
#
# Indices 1 2 3 4 5 6 
#
# 1 0.017019 -0.001756 -0.003295 0.000000 -0.001628 0.000000
# 2 -0.001756 0.008519 -0.002280 0.000000 0.000158 0.000000
# 3 -0.003295 -0.002280 0.013484 0.000000 -0.005934 0.000000
# 4 0.000000 0.000000 0.000000 0.029342 0.000000 -0.005094
# 5 -0.001628 0.000158 -0.005934 0.000000 0.026114 0.000000
# 6 0.000000 0.000000 0.000000 -0.005094 0.000000 0.039532
#
#
# Mechanical properties :
#
#
# Convention : Reuss Voigt Hill
#
# Bulk Modulus (GPa) = 41.05129 48.61767 44.83448
# Shear Modulus (GPa) = 31.88942 35.44155 33.66549
#
# Velocity S-wave (km/s) = 3.57604 3.76995 3.67427
# Velocity P-wave (km/s) = 5.78902 6.20051 5.99829
#
# Compressibility (1/GPa) = 0.02435977
#
# Stress axis : x y z
#
# Youngs Moduli (GPa) = 58.75768 117.39035 74.16307
#
# Poissons Ratio (x) = 0.20616 0.24437
# Poissons Ratio (y) = 0.10319 0.16906
# Poissons Ratio (z) = 0.19361 0.26761
#
# Static dielectric constant tensor:
#      x y z
#    x 2.094450 0.000000 0.013540 
#    y 0.000000 1.942250 0.000000 
#    z 0.013540 0.000000 1.996000 
# 
# From -- ./inp_files/105830.got.cif
#   From: 2010.05.17/outbox.cif.g08.bks.cpg/sg15_53_cif.got.tgz:105830.got - 2010.06.03 18:47:42.
