data_PCOD9288931
_publ_section_title
;
Structure prediction by ZEFSAII (Michael W. Deem and Ramdas Pophale) SiO2 
 PCOD9288931
Probable space group: C 2/C
;
_chemical_formula_sum "Si O2"
_cell_formula_units_Z 32
_cell_length_a 11.228578
_cell_length_b 15.751612
_cell_length_c 7.022695
_cell_angle_alpha 90.000000
_cell_angle_beta 106.708825
_cell_angle_gamma 90.000000
_cell_volume 1189.648143
_symmetry_space_group_name_H-M "C 2/C"
_symmetry_group_IT_number 15
_symmetry_cell_setting 'monoclinic'
loop_
_space_group_symop_operation_xyz
x,y,z
-x,y,1/2-z
-x,-y,-z
x,-y,1/2+z
1/2+x,1/2+y,z
1/2-x,1/2+y,1/2-z
1/2-x,1/2-y,-z
1/2+x,1/2-y,1/2+z
loop_
_atom_site_type_symbol
_atom_site_label
_atom_site_fract_x
_atom_site_fract_y
_atom_site_fract_z
Si Si1 0.500000 0.575836 0.750000
Si Si2 0.751370 0.286355 0.786558
Si Si3 0.000000 0.632145 0.250000
Si Si4 0.616210 0.122005 0.670774
Si Si5 0.157515 0.075372 0.481505
O O1 0.567111 0.618160 0.600245
O O2 0.398057 0.513927 0.607277
O O3 0.684242 0.210698 0.643851
O O4 0.673700 0.371613 0.794459
O O5 0.888438 0.312729 0.787785
O O6 0.750000 0.250000 0.000000
O O7 0.064105 0.582503 0.452928
O O8 0.500000 0.143363 0.750000
O O9 0.713406 0.070651 0.843736
#
# Coordination Sequence:
#
# PCOD9288931 Si02
#       5
#     4   8   4   8   8
#     4  10  24  45  76  94 130 189 242 286 344 392
#     4  10  22  39  67  98 144 175 223 283 340 413
#     4  12  22  39  66 100 146 187 214 268 360 414
#     4  11  23  43  67 106 144 178 223 283 353 417
#     4  10  23  45  68 102 135 176 238 292 336 409
#
# _framework density 26.898709
#
# number of rings (size 3 to 8) (size 9 to 14) (size 15 to 20)
#    0.000    1.500    5.000    0.750    1.750    8.000 
#    0.000    1.250    2.750    0.000    0.000    0.000 
#    0.000    0.000    0.000    0.000    0.000    0.000 
#
# Total GULP energy -89529.677399 kJ/mol
# GULP energy per Si atom -5595.604837 kJ/mol
# Density = 2.683749 g / cm^3
# Si number density = 26.898709 Si / 1000 Ang^3
#
#
#
# Elastic Constant Matrix: (Units=GPa)
#
#
# Indices 1 2 3 4 5 6 
#
# 1 208.6466 52.6635 21.9923 0.0000 -10.0297 0.0000
# 2 52.6635 79.4954 33.3209 0.0000 1.3637 0.0000
# 3 21.9923 33.3209 188.3299 0.0000 40.4706 0.0000
# 4 0.0000 0.0000 0.0000 -1.7621 0.0000 10.7070
# 5 -10.0297 1.3637 40.4706 0.0000 46.3192 0.0000
# 6 0.0000 0.0000 0.0000 10.7070 0.0000 35.8998
#
#
#
# Elastic Compliance Matrix: (Units=1/GPa)
#
#
# Indices 1 2 3 4 5 6 
#
# 1 0.005863 -0.003750 -0.000391 0.000000 0.001722 0.000000
# 2 -0.003750 0.016152 -0.002639 0.000000 0.001018 0.000000
# 3 -0.000391 -0.002639 0.007170 0.000000 -0.006272 0.000000
# 4 0.000000 0.000000 0.000000 -0.201796 0.000000 0.060185
# 5 0.001722 0.001018 -0.006272 0.000000 0.027412 0.000000
# 6 0.000000 0.000000 0.000000 0.060185 0.000000 0.009905
#
#
# Mechanical properties :
#
#
# Convention : Reuss Voigt Hill
#
# Bulk Modulus (GPa) = 63.99554 76.93613 70.46583
# Shear Modulus (GPa) = -42.90896 40.65772 -1.12562
#
# Velocity S-wave (km/s) = -3.99833 3.89203 -0.64759
# Velocity P-wave (km/s) = 1.58977 6.99010 5.06897
#
# Compressibility (1/GPa) = 0.01562609
#
# Stress axis : x y z
#
# Youngs Moduli (GPa) = 170.55332 61.91183 139.46763
#
# Poissons Ratio (x) = 0.23216 0.05457
# Poissons Ratio (y) = 0.63954 0.36800
# Poissons Ratio (z) = 0.06673 0.16336
#
# Static dielectric constant tensor:
#      x y z
#    x 2.112500 0.000000 -0.032530 
#    y 0.000000 2.274270 0.000000 
#    z -0.032530 0.000000 2.106180 
# 
# From -- ./inp_files/22955.got.cif
#   From: 2010.05.17/outbox.cif.g08.bks.cpg/sg15_12_cif.got.tgz:22955.got - 2010.06.03 18:47:42.
