data_PCOD9288556
_publ_section_title
;
Structure prediction by ZEFSAII (Michael W. Deem and Ramdas Pophale) SiO2 
 PCOD9288556
Probable space group: C 2/C
;
_chemical_formula_sum "Si O2"
_cell_formula_units_Z 56
_cell_length_a 18.694469
_cell_length_b 9.416373
_cell_length_c 18.652554
_cell_angle_alpha 90.000000
_cell_angle_beta 52.207523
_cell_angle_gamma 90.000000
_cell_volume 2594.726686
_symmetry_space_group_name_H-M "C 2/C"
_symmetry_group_IT_number 15
_symmetry_cell_setting 'monoclinic'
loop_
_space_group_symop_operation_xyz
x,y,z
-x,y,1/2-z
-x,-y,-z
x,-y,1/2+z
1/2+x,1/2+y,z
1/2-x,1/2+y,1/2-z
1/2-x,1/2-y,-z
1/2+x,1/2-y,1/2+z
loop_
_atom_site_type_symbol
_atom_site_label
_atom_site_fract_x
_atom_site_fract_y
_atom_site_fract_z
Si Si1 0.817834 0.615479 0.960929
Si Si2 0.489406 0.786117 0.175825
Si Si3 0.994094 0.993658 0.897246
Si Si4 0.855290 0.086887 0.085784
Si Si5 0.754175 0.664524 0.572762
Si Si6 0.076114 0.757757 0.262017
Si Si7 0.171009 0.533862 0.713741
O O1 0.920813 0.658151 0.918816
O O2 0.821360 0.553853 0.877383
O O3 0.750000 0.750000 0.000000
O O4 0.785801 0.492651 0.034004
O O5 0.500000 0.841651 0.250000
O O6 0.500493 0.617601 0.169721
O O7 0.389325 0.839947 0.216452
O O8 0.034102 0.143819 0.849054
O O9 0.058044 0.917211 0.916449
O O10 0.894126 0.013643 0.989795
O O11 0.818035 0.240034 0.085039
O O12 0.774672 0.995811 0.171069
O O13 0.750000 0.750000 0.500000
O O14 0.657165 0.663519 0.670680
O O15 0.116099 0.609392 0.264119
O O16 0.000000 0.726504 0.250000
#
# Coordination Sequence:
#
# PCOD9288556 Si02
#       7
#     8   8   8   8   8   8   8
#     4  11  22  37  63  97 130 159 204 267 329 384
#     4  10  23  38  61  92 126 159 204 264 325 374
#     4  11  24  40  64  88 125 170 215 267 310 394
#     4  10  23  43  63  87 126 168 217 259 322 380
#     4  11  22  39  67  94 124 164 209 267 321 390
#     4  11  22  35  65  94 121 162 216 262 320 376
#     4  10  22  39  61  93 126 165 201 270 321 383
#
# _framework density 21.582236000000002
#
# number of rings (size 3 to 8) (size 9 to 14) (size 15 to 20)
#    0.000    1.429    2.857    3.429    8.000    2.286 
#    0.000    0.714    3.143    0.000    0.000    0.000 
#    0.000    0.000    0.000    0.000    0.000    0.000 
#
# Total GULP energy -156312.165581 kJ/mol
# GULP energy per Si atom -5582.577342 kJ/mol
# Density = 2.153311 g / cm^3
# Si number density = 21.582236 Si / 1000 Ang^3
#
#
#
# Elastic Constant Matrix: (Units=GPa)
#
#
# Indices 1 2 3 4 5 6 
#
# 1 56.2286 1.1743 15.0947 0.0000 -26.6166 0.0000
# 2 1.1743 92.6644 38.0176 0.0000 -26.4561 0.0000
# 3 15.0947 38.0176 82.8885 0.0000 -36.4341 0.0000
# 4 0.0000 0.0000 0.0000 40.9128 0.0000 -12.3462
# 5 -26.6166 -26.4561 -36.4341 0.0000 40.5973 0.0000
# 6 0.0000 0.0000 0.0000 -12.3462 0.0000 0.0617
#
#
#
# Elastic Compliance Matrix: (Units=1/GPa)
#
#
# Indices 1 2 3 4 5 6 
#
# 1 0.028886 0.005533 0.003486 0.000000 0.025673 0.000000
# 2 0.005533 0.015073 -0.003317 0.000000 0.010473 0.000000
# 3 0.003486 -0.003317 0.021478 0.000000 0.019400 0.000000
# 4 0.000000 0.000000 0.000000 -0.000412 0.000000 -0.082362
# 5 0.025673 0.010473 0.019400 0.000000 0.065699 0.000000
# 6 0.000000 0.000000 0.000000 -0.082362 0.000000 -0.272931
#
#
# Mechanical properties :
#
#
# Convention : Reuss Voigt Hill
#
# Bulk Modulus (GPa) = 13.01381 37.81719 25.41550
# Shear Modulus (GPa) = -39.06318 28.14737 -5.45790
#
# Velocity S-wave (km/s) = -4.25899 3.61528 -1.59197
# Velocity P-wave (km/s) = 4.25938 5.91501 2.90216
#
# Compressibility (1/GPa) = 0.07684142
#
# Stress axis : x y z
#
# Youngs Moduli (GPa) = 34.61916 66.34542 46.55873
#
# Poissons Ratio (x) = -0.36711 -0.16233
# Poissons Ratio (y) = -0.19156 0.15445
# Poissons Ratio (z) = -0.12070 0.22009
#
# Static dielectric constant tensor:
#      x y z
#    x 1.823370 0.000000 -0.005230 
#    y 0.000000 1.776510 0.000000 
#    z -0.005230 0.000000 1.800020 
# 
# From -- ./inp_files/251821.got.cif
#   From: 2010.05.17/outbox.cif.g08.bks.cpg/sg15_126_cif.got.tgz:251821.got - 2010.06.03 18:47:42.
