data_PCOD9288365
_publ_section_title
;
Structure prediction by ZEFSAII (Michael W. Deem and Ramdas Pophale) SiO2 
 PCOD9288365
Probable space group: C 2/C
;
_chemical_formula_sum "Si O2"
_cell_formula_units_Z 60
_cell_length_a 29.443441
_cell_length_b 16.060947
_cell_length_c 12.587850
_cell_angle_alpha 90.000000
_cell_angle_beta 153.486154
_cell_angle_gamma 90.000000
_cell_volume 2657.352358
_symmetry_space_group_name_H-M "C 2/C"
_symmetry_group_IT_number 15
_symmetry_cell_setting 'monoclinic'
loop_
_space_group_symop_operation_xyz
x,y,z
-x,y,1/2-z
-x,-y,-z
x,-y,1/2+z
1/2+x,1/2+y,z
1/2-x,1/2+y,1/2-z
1/2-x,1/2-y,-z
1/2+x,1/2-y,1/2+z
loop_
_atom_site_type_symbol
_atom_site_label
_atom_site_fract_x
_atom_site_fract_y
_atom_site_fract_z
Si Si1 0.415710 0.596057 0.751641
Si Si2 0.779796 0.679603 0.721601
Si Si3 0.580635 0.978867 0.012387
Si Si4 0.189061 0.986615 0.268462
Si Si5 0.000000 0.024692 0.250000
Si Si6 0.901105 0.586702 0.266256
Si Si7 0.130046 0.167659 0.211219
Si Si8 0.699257 0.245995 0.510712
O O1 0.353155 0.547783 0.708719
O O2 0.462164 0.531113 0.767963
O O3 0.342575 0.664005 0.547935
O O4 0.514180 0.646202 0.998105
O O5 0.855772 0.750627 0.832054
O O6 0.691176 0.676983 0.448884
O O7 0.833719 0.588748 0.837055
O O8 0.748728 0.709540 0.774600
O O9 0.500000 0.993431 0.750000
O O10 0.513350 0.936124 0.963601
O O11 0.614366 0.063819 0.141774
O O12 0.307872 0.963185 0.514107
O O13 0.174889 0.086462 0.242807
O O14 0.109567 0.942397 0.020588
O O15 0.888287 0.680024 0.199594
O O16 0.750000 0.250000 0.500000
#
# Coordination Sequence:
#
# PCOD9288365 Si02
#       8
#     8   8   8   8   4   8   8   8
#     4  11  23  41  64  92 133 167 218 264 327 396
#     4  11  23  43  71  95 131 171 223 278 328 392
#     4  11  23  44  69  96 125 178 225 274 335 394
#     4  11  22  42  61  97 136 165 209 275 326 398
#     4  10  22  38  70  96 120 176 222 266 330 394
#     4  11  24  41  66  96 134 170 223 276 329 399
#     4  10  22  41  68 101 124 168 225 274 327 389
#     4  12  24  43  64  97 136 177 215 268 341 400
#
# _framework density 22.578866000000001
#
# number of rings (size 3 to 8) (size 9 to 14) (size 15 to 20)
#    0.000    1.067    4.000    4.000    0.000    3.200 
#    2.400    0.000    0.000    0.000    0.000    0.000 
#    0.000    0.000    0.000    0.000    0.000    0.000 
#
# Total GULP energy -167345.056435 kJ/mol
# GULP energy per Si atom -5578.168548 kJ/mol
# Density = 2.252748 g / cm^3
# Si number density = 22.578866 Si / 1000 Ang^3
#
#
#
# Elastic Constant Matrix: (Units=GPa)
#
#
# Indices 1 2 3 4 5 6 
#
# 1 80.8013 5.1187 28.4190 0.0000 -14.5014 0.0000
# 2 5.1187 51.6296 -5.8272 0.0000 -10.7823 0.0000
# 3 28.4190 -5.8272 69.9764 0.0000 -14.8740 0.0000
# 4 0.0000 0.0000 0.0000 30.7754 0.0000 -1.5081
# 5 -14.5014 -10.7823 -14.8740 0.0000 43.7697 0.0000
# 6 0.0000 0.0000 0.0000 -1.5081 0.0000 84.7465
#
#
#
# Elastic Compliance Matrix: (Units=1/GPa)
#
#
# Indices 1 2 3 4 5 6 
#
# 1 0.014931 -0.001563 -0.005631 0.000000 0.002648 0.000000
# 2 -0.001563 0.021178 0.003662 0.000000 0.005944 0.000000
# 3 -0.005631 0.003662 0.017976 0.000000 0.005145 0.000000
# 4 0.000000 0.000000 0.000000 0.032522 0.000000 0.000579
# 5 0.002648 0.005944 0.005145 0.000000 0.026937 0.000000
# 6 0.000000 0.000000 0.000000 0.000579 0.000000 0.011810
#
#
# Mechanical properties :
#
#
# Convention : Reuss Voigt Hill
#
# Bulk Modulus (GPa) = 21.26720 28.64759 24.95740
# Shear Modulus (GPa) = 33.76287 43.50478 38.63382
#
# Velocity S-wave (km/s) = 3.87115 4.39429 4.14099
# Velocity P-wave (km/s) = 5.42407 6.20175 5.82590
#
# Compressibility (1/GPa) = 0.04702075
#
# Stress axis : x y z
#
# Youngs Moduli (GPa) = 66.97558 47.21836 55.62986
#
# Poissons Ratio (x) = 0.07379 0.31325
# Poissons Ratio (y) = 0.10467 -0.20370
# Poissons Ratio (z) = 0.37714 -0.17290
#
# Static dielectric constant tensor:
#      x y z
#    x 1.853780 0.000000 -0.023680 
#    y 0.000000 1.934880 0.000000 
#    z -0.023680 0.000000 1.902880 
# 
# From -- ./inp_files/124007.got.cif
#   From: 2010.05.17/outbox.cif.g08.bks.cpg/sg15_63_cif.got.tgz:124007.got - 2010.06.03 18:47:42.
