data_PCOD9288399
_publ_section_title
;
Structure prediction by ZEFSAII (Michael W. Deem and Ramdas Pophale) SiO2 
 PCOD9288399
Probable space group: C 2/C
;
_chemical_formula_sum "Si O2"
_cell_formula_units_Z 64
_cell_length_a 13.921362
_cell_length_b 13.907678
_cell_length_c 22.661745
_cell_angle_alpha 90.000000
_cell_angle_beta 43.274092
_cell_angle_gamma 90.000000
_cell_volume 3007.670928
_symmetry_space_group_name_H-M "C 2/C"
_symmetry_group_IT_number 15
_symmetry_cell_setting 'monoclinic'
loop_
_space_group_symop_operation_xyz
x,y,z
-x,y,1/2-z
-x,-y,-z
x,-y,1/2+z
1/2+x,1/2+y,z
1/2-x,1/2+y,1/2-z
1/2-x,1/2-y,-z
1/2+x,1/2-y,1/2+z
loop_
_atom_site_type_symbol
_atom_site_label
_atom_site_fract_x
_atom_site_fract_y
_atom_site_fract_z
Si Si1 0.069518 0.526153 0.031230
Si Si2 0.131995 0.018659 0.571093
Si Si3 0.166524 0.326103 0.852987
Si Si4 0.338309 0.470686 0.067558
Si Si5 0.451187 0.158266 0.636534
Si Si6 0.335029 0.743526 0.523367
Si Si7 0.164336 0.108507 0.809444
Si Si8 0.530730 0.654876 0.304016
O O1 0.972974 0.613675 0.095840
O O2 0.048776 0.434162 0.083595
O O3 0.234324 0.543538 0.949279
O O4 0.000000 0.500000 0.000000
O O5 0.197005 0.030634 0.475675
O O6 0.071266 0.911146 0.611166
O O7 0.989053 0.077829 0.643454
O O8 0.146745 0.216676 0.841679
O O9 0.304795 0.368263 0.759642
O O10 0.203101 0.316418 0.906691
O O11 0.289009 0.463533 0.157681
O O12 0.500000 0.500000 0.000000
O O13 0.317179 0.361979 0.055979
O O14 0.502375 0.230578 0.562436
O O15 0.293873 0.119332 0.706933
O O16 0.476647 0.229478 0.680799
O O17 0.250000 0.750000 0.500000
O O18 0.500000 0.633964 0.250000
#
# Coordination Sequence:
#
# PCOD9288399 Si02
#       8
#     8   8   8   8   8   8   8   8
#     4  12  24  37  59  92 123 168 208 255 309 379
#     4  11  22  39  63  88 124 166 206 250 320 376
#     4  10  22  39  57  85 127 155 206 257 305 363
#     4   9  19  37  60  88 117 158 204 250 314 377
#     4  11  22  36  60  88 126 156 200 259 323 363
#     4  11  19  34  61  88 119 158 198 254 317 369
#     4   9  22  41  61  90 116 164 207 258 308 375
#     4  11  22  37  62  95 123 156 202 269 318 367
#
# _framework density 21.278922000000001
#
# number of rings (size 3 to 8) (size 9 to 14) (size 15 to 20)
#    0.000    1.500    2.500    3.000    0.000    2.500 
#    0.000    0.000    0.000    0.000    0.000    0.000 
#    0.000    0.000    0.000    0.000    0.000    0.000 
#
# Total GULP energy -178199.938268 kJ/mol
# GULP energy per Si atom -5568.748071 kJ/mol
# Density = 2.123049 g / cm^3
# Si number density = 21.278922 Si / 1000 Ang^3
#
#
#
# Elastic Constant Matrix: (Units=GPa)
#
#
# Indices 1 2 3 4 5 6 
#
# 1 97.8822 20.1980 36.1522 0.0000 -25.1458 0.0000
# 2 20.1980 50.3770 12.3859 0.0000 -14.1809 0.0000
# 3 36.1522 12.3859 103.3551 0.0000 -29.3870 0.0000
# 4 0.0000 0.0000 0.0000 33.7420 0.0000 -9.3607
# 5 -25.1458 -14.1809 -29.3870 0.0000 34.8579 0.0000
# 6 0.0000 0.0000 0.0000 -9.3607 0.0000 26.6120
#
#
#
# Elastic Compliance Matrix: (Units=1/GPa)
#
#
# Indices 1 2 3 4 5 6 
#
# 1 0.013386 -0.002967 -0.002531 0.000000 0.006316 0.000000
# 2 -0.002967 0.023076 0.000438 0.000000 0.007617 0.000000
# 3 -0.002531 0.000438 0.013205 0.000000 0.009485 0.000000
# 4 0.000000 0.000000 0.000000 0.032841 0.000000 0.011552
# 5 0.006316 0.007617 0.009485 0.000000 0.044339 0.000000
# 6 0.000000 0.000000 0.000000 0.011552 0.000000 0.041640
#
#
# Mechanical properties :
#
#
# Convention : Reuss Voigt Hill
#
# Bulk Modulus (GPa) = 25.28583 43.23182 34.25883
# Shear Modulus (GPa) = 26.07021 31.23425 28.65223
#
# Velocity S-wave (km/s) = 3.50403 3.83541 3.67346
# Velocity P-wave (km/s) = 5.31788 6.32255 5.84185
#
# Compressibility (1/GPa) = 0.03954784
#
# Stress axis : x y z
#
# Youngs Moduli (GPa) = 74.70597 43.33449 75.72874
#
# Poissons Ratio (x) = 0.12856 0.19166
# Poissons Ratio (y) = 0.22164 -0.03317
# Poissons Ratio (z) = 0.18908 -0.01898
#
# Static dielectric constant tensor:
#      x y z
#    x 1.837980 0.000000 0.031210 
#    y 0.000000 1.808120 0.000000 
#    z 0.031210 0.000000 1.878250 
# 
# From -- ./inp_files/274320.got.cif
#   From: 2010.05.17/outbox.cif.g08.bks.cpg/sg15_138_cif.got.tgz:274320.got - 2010.06.03 18:47:42.
