data_PCOD9288490
_publ_section_title
;
Structure prediction by ZEFSAII (Michael W. Deem and Ramdas Pophale) SiO2 
 PCOD9288490
Probable space group: C 2/C
;
_chemical_formula_sum "Si O2"
_cell_formula_units_Z 64
_cell_length_a 18.233569
_cell_length_b 9.302334
_cell_length_c 16.216363
_cell_angle_alpha 90.000000
_cell_angle_beta 67.357815
_cell_angle_gamma 90.000000
_cell_volume 2538.542467
_symmetry_space_group_name_H-M "C 2/C"
_symmetry_group_IT_number 15
_symmetry_cell_setting 'monoclinic'
loop_
_space_group_symop_operation_xyz
x,y,z
-x,y,1/2-z
-x,-y,-z
x,-y,1/2+z
1/2+x,1/2+y,z
1/2-x,1/2+y,1/2-z
1/2-x,1/2-y,-z
1/2+x,1/2-y,1/2+z
loop_
_atom_site_type_symbol
_atom_site_label
_atom_site_fract_x
_atom_site_fract_y
_atom_site_fract_z
Si Si1 0.083968 0.819093 0.908240
Si Si2 0.441606 0.504051 0.935505
Si Si3 0.904231 0.848330 0.299409
Si Si4 0.310063 0.195440 0.877842
Si Si5 0.809882 0.377210 0.942390
Si Si6 0.364850 0.020401 0.602319
Si Si7 0.697683 0.562128 0.251122
Si Si8 0.129674 0.260396 0.982431
O O1 0.082848 0.651294 0.888668
O O2 0.172503 0.875503 0.850727
O O3 0.023032 0.919734 0.884139
O O4 0.057919 0.848524 0.013734
O O5 0.392261 0.532390 0.876109
O O6 0.398770 0.399115 0.017955
O O7 0.869096 0.704573 0.353969
O O8 0.000000 0.837954 0.250000
O O9 0.852750 0.917147 0.248265
O O10 0.328948 0.295562 0.790737
O O11 0.379463 0.216083 0.915756
O O12 0.291816 0.025448 0.899577
O O13 0.224120 0.267142 0.932641
O O14 0.750000 0.250000 0.000000
O O15 0.839060 0.433268 0.020173
O O16 0.288058 0.984457 0.692060
O O17 0.407988 0.870694 0.564704
#
# Coordination Sequence:
#
# PCOD9288490 Si02
#       8
#     8   8   8   8   8   8   8   8
#     4  11  25  40  58  92 128 172 207 251 326 392
#     4  11  22  40  64  86 126 172 209 254 324 398
#     4  12  22  39  66  96 123 167 218 278 320 379
#     4   9  19  34  60  93 116 147 208 263 313 366
#     4  11  20  37  65  93 122 160 212 270 319 371
#     4  10  22  39  60  90 126 161 214 261 308 384
#     4  11  22  40  63  93 125 163 218 267 319 379
#     4   9  18  35  62  90 114 153 205 261 308 370
#
# _framework density 25.211316
#
# number of rings (size 3 to 8) (size 9 to 14) (size 15 to 20)
#    0.000    1.500    5.000    1.500    0.000    2.500 
#    0.000    4.375    0.000    0.000    0.000    0.000 
#    0.000    0.000    0.000    0.000    0.000    0.000 
#
# Total GULP energy -178204.399614 kJ/mol
# GULP energy per Si atom -5568.887488 kJ/mol
# Density = 2.515393 g / cm^3
# Si number density = 25.211316 Si / 1000 Ang^3
#
#
#
# Elastic Constant Matrix: (Units=GPa)
#
#
# Indices 1 2 3 4 5 6 
#
# 1 27.7164 15.5090 6.5262 0.0000 -8.5684 0.0000
# 2 15.5090 157.1483 40.7480 0.0000 -11.9527 0.0000
# 3 6.5262 40.7480 71.4079 0.0000 -19.4824 0.0000
# 4 0.0000 0.0000 0.0000 36.3709 0.0000 -1.2135
# 5 -8.5684 -11.9527 -19.4824 0.0000 22.0440 0.0000
# 6 0.0000 0.0000 0.0000 -1.2135 0.0000 41.1106
#
#
#
# Elastic Compliance Matrix: (Units=1/GPa)
#
#
# Indices 1 2 3 4 5 6 
#
# 1 0.042759 -0.003656 0.002862 0.000000 0.017168 0.000000
# 2 -0.003656 0.007783 -0.004406 0.000000 -0.001095 0.000000
# 3 0.002862 -0.004406 0.020963 0.000000 0.017251 0.000000
# 4 0.000000 0.000000 0.000000 0.027522 0.000000 0.000812
# 5 0.017168 -0.001095 0.017251 0.000000 0.066690 0.000000
# 6 0.000000 0.000000 0.000000 0.000812 0.000000 0.024349
#
#
# Mechanical properties :
#
#
# Convention : Reuss Voigt Hill
#
# Bulk Modulus (GPa) = 16.36507 42.42655 29.39581
# Shear Modulus (GPa) = 22.64143 32.80439 27.72291
#
# Velocity S-wave (km/s) = 3.00003 3.61110 3.31965
# Velocity P-wave (km/s) = 4.30180 5.85249 5.13600
#
# Compressibility (1/GPa) = 0.06110577
#
# Stress axis : x y z
#
# Youngs Moduli (GPa) = 23.38694 128.47738 47.70223
#
# Poissons Ratio (x) = 0.46976 -0.13655
# Poissons Ratio (y) = 0.08551 0.21018
# Poissons Ratio (z) = -0.06694 0.56609
#
# Static dielectric constant tensor:
#      x y z
#    x 2.054710 0.000000 0.008480 
#    y 0.000000 2.051050 0.000000 
#    z 0.008480 0.000000 2.098520 
# 
# From -- ./inp_files/255034.got.cif
#   From: 2010.05.17/outbox.cif.g08.bks.cpg/sg15_128_cif.got.tgz:255034.got - 2010.06.03 18:47:42.
