data_PCOD9288572
_publ_section_title
;
Structure prediction by ZEFSAII (Michael W. Deem and Ramdas Pophale) SiO2 
 PCOD9288572
Probable space group: C 2/C
;
_chemical_formula_sum "Si O2"
_cell_formula_units_Z 64
_cell_length_a 17.508260
_cell_length_b 21.359862
_cell_length_c 15.210829
_cell_angle_alpha 90.000000
_cell_angle_beta 28.588428
_cell_angle_gamma 90.000000
_cell_volume 2722.008246
_symmetry_space_group_name_H-M "C 2/C"
_symmetry_group_IT_number 15
_symmetry_cell_setting 'monoclinic'
loop_
_space_group_symop_operation_xyz
x,y,z
-x,y,1/2-z
-x,-y,-z
x,-y,1/2+z
1/2+x,1/2+y,z
1/2-x,1/2+y,1/2-z
1/2-x,1/2-y,-z
1/2+x,1/2-y,1/2+z
loop_
_atom_site_type_symbol
_atom_site_label
_atom_site_fract_x
_atom_site_fract_y
_atom_site_fract_z
Si Si1 0.820045 0.530147 0.910981
Si Si2 0.656116 0.538558 0.266566
Si Si3 0.092067 0.868904 0.565691
Si Si4 0.625611 0.928423 0.786257
Si Si5 0.746668 0.090480 0.830695
Si Si6 0.648387 0.699271 0.658020
Si Si7 0.865783 0.707263 0.173137
Si Si8 0.818516 0.700030 0.736301
O O1 0.820612 0.467070 0.852960
O O2 0.000000 0.548633 0.750000
O O3 0.734690 0.529123 0.090725
O O4 0.729067 0.579912 0.944139
O O5 0.534074 0.595672 0.371373
O O6 0.776547 0.553836 0.224649
O O7 0.620389 0.463738 0.316949
O O8 0.195435 0.806718 0.440096
O O9 0.000000 0.858442 0.750000
O O10 0.653447 0.854544 0.750413
O O11 0.433662 0.937388 0.988922
O O12 0.765048 0.136306 0.896076
O O13 0.748868 0.141187 0.751156
O O14 0.500000 0.679771 0.750000
O O15 0.750000 0.750000 0.500000
O O16 0.588675 0.738156 0.804099
O O17 0.713130 0.734140 0.278659
O O18 0.993358 0.692364 0.967019
#
# Coordination Sequence:
#
# PCOD9288572 Si02
#       8
#     8   8   8   8   8   8   8   8
#     4  11  24  40  69 100 138 181 229 285 349 429
#     4  11  24  43  68 103 139 184 236 290 366 425
#     4  10  25  47  68 101 141 174 235 308 360 419
#     4  11  23  41  70 101 141 183 239 287 349 433
#     4  10  22  39  62 101 137 181 232 286 344 424
#     4  11  23  42  68 100 150 192 237 291 350 416
#     4  10  24  41  66 102 134 186 238 285 346 428
#     4  10  22  44  67  91 137 173 234 292 346 415
#
# _framework density 23.512052000000001
#
# number of rings (size 3 to 8) (size 9 to 14) (size 15 to 20)
#    0.000    1.500    1.250    3.375    7.000    4.000 
#    2.250    0.625    0.000    0.000    0.000    0.000 
#    0.000    0.000    0.000    0.000    0.000    0.000 
#
# Total GULP energy -178467.136762 kJ/mol
# GULP energy per Si atom -5577.098024 kJ/mol
# Density = 2.345854 g / cm^3
# Si number density = 23.512052 Si / 1000 Ang^3
#
#
#
# Elastic Constant Matrix: (Units=GPa)
#
#
# Indices 1 2 3 4 5 6 
#
# 1 108.0891 16.6361 32.6412 -0.0045 -12.2621 0.0049
# 2 16.6361 58.8713 27.6130 0.0121 -8.5078 0.0017
# 3 32.6412 27.6130 93.7011 -0.0058 12.9860 0.0075
# 4 -0.0045 0.0121 -0.0058 38.2938 0.0092 2.3702
# 5 -12.2621 -8.5078 12.9860 0.0092 20.3264 -0.0033
# 6 0.0049 0.0017 0.0075 2.3702 -0.0033 26.1925
#
#
#
# Elastic Compliance Matrix: (Units=1/GPa)
#
#
# Indices 1 2 3 4 5 6 
#
# 1 0.012330 0.001206 -0.006310 -0.000003 0.011974 0.000001
# 2 0.001206 0.023635 -0.009718 -0.000013 0.016829 0.000004
# 3 -0.006310 -0.009718 0.018460 0.000010 -0.019668 -0.000007
# 4 -0.000003 -0.000013 0.000010 0.026261 -0.000026 -0.002376
# 5 0.011974 0.016829 -0.019668 -0.000026 0.076030 0.000014
# 6 0.000001 0.000004 -0.000007 -0.002376 0.000014 0.038394
#
#
# Mechanical properties :
#
#
# Convention : Reuss Voigt Hill
#
# Bulk Modulus (GPa) = 40.35235 46.04913 43.20074
# Shear Modulus (GPa) = 21.45796 29.21394 25.33595
#
# Velocity S-wave (km/s) = 3.02427 3.52875 3.28620
# Velocity P-wave (km/s) = 5.42168 6.01919 5.72823
#
# Compressibility (1/GPa) = 0.02478171
#
# Stress axis : x y z
#
# Youngs Moduli (GPa) = 81.10314 42.30946 54.17177
#
# Poissons Ratio (x) = -0.05102 0.34183
# Poissons Ratio (y) = -0.09780 0.52642
# Poissons Ratio (z) = 0.51177 0.41114
#
# Static dielectric constant tensor:
#      x y z
#    x 1.905620 0.000000 0.074420 
#    y 0.000000 1.940780 0.000020 
#    z 0.074420 0.000020 2.024370 
# 
# From -- ./inp_files/164225.got.cif
#   From: 2010.05.17/outbox.cif.g08.bks.cpg/sg15_83_cif.got.tgz:164225.got - 2010.06.03 18:47:42.
