data_PCOD9288503
_publ_section_title
;
Structure prediction by ZEFSAII (Michael W. Deem and Ramdas Pophale) SiO2 
 PCOD9288503
Probable space group: C 2/C
;
_chemical_formula_sum "Si O2"
_cell_formula_units_Z 56
_cell_length_a 12.540552
_cell_length_b 22.659833
_cell_length_c 12.048800
_cell_angle_alpha 90.000000
_cell_angle_beta 123.552625
_cell_angle_gamma 90.000000
_cell_volume 2853.378997
_symmetry_space_group_name_H-M "C 2/C"
_symmetry_group_IT_number 15
_symmetry_cell_setting 'monoclinic'
loop_
_space_group_symop_operation_xyz
x,y,z
-x,y,1/2-z
-x,-y,-z
x,-y,1/2+z
1/2+x,1/2+y,z
1/2-x,1/2+y,1/2-z
1/2-x,1/2-y,-z
1/2+x,1/2-y,1/2+z
loop_
_atom_site_type_symbol
_atom_site_label
_atom_site_fract_x
_atom_site_fract_y
_atom_site_fract_z
Si Si1 0.788593 0.498165 0.890890
Si Si2 0.215792 0.190253 0.045455
Si Si3 0.360401 0.388987 0.617067
Si Si4 0.915556 0.188879 0.933522
Si Si5 0.845990 0.320418 0.856587
Si Si6 0.983272 0.571856 0.370072
Si Si7 0.350500 0.385445 0.191542
O O1 0.711918 0.452005 0.923767
O O2 0.851666 0.462203 0.825815
O O3 0.699953 0.551363 0.800250
O O4 0.904069 0.530083 0.021711
O O5 0.223072 0.137394 0.960187
O O6 0.068102 0.189438 0.000082
O O7 0.250000 0.250000 0.000000
O O8 0.304470 0.184877 0.203973
O O9 0.500000 0.397394 0.750000
O O10 0.379385 0.354386 0.513040
O O11 0.271468 0.348453 0.643956
O O12 0.877060 0.256882 0.924680
O O13 0.844749 0.163344 0.784098
O O14 0.965061 0.366090 0.924218
O O15 0.000000 0.581507 0.250000
O O16 0.500000 0.390866 0.250000
#
# Coordination Sequence:
#
# PCOD9288503 Si02
#       7
#     8   8   8   8   8   8   8
#     4  10  23  42  62  90 127 164 213 263 311 384
#     4  11  22  39  62  95 129 162 207 261 316 377
#     4  11  23  45  64  91 128 170 218 258 323 387
#     4  11  24  39  66  94 128 168 212 263 319 381
#     4  11  23  40  66  93 129 170 209 268 322 387
#     4  10  23  39  64  93 122 166 214 257 322 375
#     4  10  22  39  60  95 123 157 210 259 316 371
#
# _framework density 19.625854
#
# number of rings (size 3 to 8) (size 9 to 14) (size 15 to 20)
#    0.000    1.429    2.857    1.714    6.000    0.000 
#    0.000    2.143    0.000    0.000    0.000    0.000 
#    0.000    0.000    0.000    0.000    0.000    0.000 
#
# Total GULP energy -156368.494309 kJ/mol
# GULP energy per Si atom -5584.589082 kJ/mol
# Density = 1.958119 g / cm^3
# Si number density = 19.625854 Si / 1000 Ang^3
#
#
#
# Elastic Constant Matrix: (Units=GPa)
#
#
# Indices 1 2 3 4 5 6 
#
# 1 110.4870 59.2364 23.1347 0.0000 -9.8997 0.0000
# 2 59.2364 137.0205 6.3885 0.0000 4.1777 0.0000
# 3 23.1347 6.3885 42.6981 0.0000 -0.3725 0.0000
# 4 0.0000 0.0000 0.0000 23.6847 0.0000 2.3945
# 5 -9.8997 4.1777 -0.3725 0.0000 21.1191 0.0000
# 6 0.0000 0.0000 0.0000 2.3945 0.0000 39.9593
#
#
#
# Elastic Compliance Matrix: (Units=1/GPa)
#
#
# Indices 1 2 3 4 5 6 
#
# 1 0.014522 -0.006199 -0.006872 0.000000 0.007912 0.000000
# 2 -0.006199 0.010042 0.001814 0.000000 -0.004860 0.000000
# 3 -0.006872 0.001814 0.026845 0.000000 -0.003107 0.000000
# 4 0.000000 0.000000 0.000000 0.042479 0.000000 -0.002545
# 5 0.007912 -0.004860 -0.003107 0.000000 0.051966 0.000000
# 6 0.000000 0.000000 0.000000 -0.002545 0.000000 0.025178
#
#
# Mechanical properties :
#
#
# Convention : Reuss Voigt Hill
#
# Bulk Modulus (GPa) = 34.60805 51.96941 43.28873
# Shear Modulus (GPa) = 24.60899 30.38235 27.49567
#
# Velocity S-wave (km/s) = 3.54490 3.93883 3.74704
# Velocity P-wave (km/s) = 5.86747 6.87193 6.38947
#
# Compressibility (1/GPa) = 0.02889501
#
# Stress axis : x y z
#
# Youngs Moduli (GPa) = 68.85981 99.58408 37.25072
#
# Poissons Ratio (x) = 0.61733 0.25598
# Poissons Ratio (y) = 0.42687 -0.06757
# Poissons Ratio (z) = 0.47320 -0.18064
#
# Static dielectric constant tensor:
#      x y z
#    x 1.689660 0.000000 0.013690 
#    y 0.000000 1.691420 0.000000 
#    z 0.013690 0.000000 1.667150 
# 
# From -- ./inp_files/89652.got.cif
#   From: 2010.05.17/outbox.cif.g08.bks.cpg/sg15_45_cif.got.tgz:89652.got - 2010.06.03 18:47:42.
