data_PCOD9288929
_publ_section_title
;
Structure prediction by ZEFSAII (Michael W. Deem and Ramdas Pophale) SiO2 
 PCOD9288929
Probable space group: C 2/C
;
_chemical_formula_sum "Si O2"
_cell_formula_units_Z 32
_cell_length_a 5.893414
_cell_length_b 12.420898
_cell_length_c 26.069104
_cell_angle_alpha 90.000000
_cell_angle_beta 43.594839
_cell_angle_gamma 90.000000
_cell_volume 1315.874673
_symmetry_space_group_name_H-M "C 2/C"
_symmetry_group_IT_number 15
_symmetry_cell_setting 'monoclinic'
loop_
_space_group_symop_operation_xyz
x,y,z
-x,y,1/2-z
-x,-y,-z
x,-y,1/2+z
1/2+x,1/2+y,z
1/2-x,1/2+y,1/2-z
1/2-x,1/2-y,-z
1/2+x,1/2-y,1/2+z
loop_
_atom_site_type_symbol
_atom_site_label
_atom_site_fract_x
_atom_site_fract_y
_atom_site_fract_z
Si Si1 0.656566 0.223420 0.435143
Si Si2 0.890636 0.509955 0.423812
Si Si3 0.345361 0.677879 0.898906
Si Si4 0.395074 0.857823 0.824186
O O1 0.602062 0.323960 0.405348
O O2 0.449636 0.237156 0.520877
O O3 0.026925 0.188588 0.382015
O O4 0.509148 0.115317 0.434755
O O5 0.500000 0.500000 0.500000
O O6 0.933257 0.544389 0.357418
O O7 0.142532 0.417912 0.404239
O O8 0.547688 0.751261 0.825613
O O9 0.500000 0.884766 0.750000
#
# Coordination Sequence:
#
# PCOD9288929 Si02
#       4
#     8   8   8   8
#     4  10  22  39  69  96 133 171 230 292 345 416
#     4  11  23  39  68 100 131 174 232 287 345 425
#     4  10  22  39  67  98 126 176 226 281 349 420
#     4  11  25  44  63  95 143 179 229 295 351 421
#
# _framework density 24.318427
#
# number of rings (size 3 to 8) (size 9 to 14) (size 15 to 20)
#    0.000    1.500    2.500    1.500    7.000    4.000 
#    4.500    0.000    0.000    0.000    0.000    0.000 
#    0.000    0.000    0.000    0.000    0.000    0.000 
#
# Total GULP energy -89107.395530 kJ/mol
# GULP energy per Si atom -5569.212221 kJ/mol
# Density = 2.426308 g / cm^3
# Si number density = 24.318427 Si / 1000 Ang^3
#
#
#
# Elastic Constant Matrix: (Units=GPa)
#
#
# Indices 1 2 3 4 5 6 
#
# 1 119.0367 58.6570 46.3673 -0.0059 31.7431 0.0038
# 2 58.6570 165.3884 44.8463 -0.0032 32.7584 0.0023
# 3 46.3673 44.8463 117.8638 -0.0063 59.4004 0.0042
# 4 -0.0059 -0.0032 -0.0063 19.3185 0.0052 10.0469
# 5 31.7431 32.7584 59.4004 0.0052 44.7389 -0.0025
# 6 0.0038 0.0023 0.0042 10.0469 -0.0025 72.3714
#
#
#
# Elastic Compliance Matrix: (Units=1/GPa)
#
#
# Indices 1 2 3 4 5 6 
#
# 1 0.011460 -0.002859 -0.001141 0.000005 -0.004522 -0.000001
# 2 -0.002859 0.007788 0.000039 0.000002 -0.003726 0.000000
# 3 -0.001141 0.000039 0.025765 0.000020 -0.033428 -0.000005
# 4 0.000005 0.000002 0.000020 0.055792 -0.000038 -0.007745
# 5 -0.004522 -0.003726 -0.033428 -0.000038 0.072671 0.000010
# 6 -0.000001 0.000000 -0.000005 -0.007745 0.000010 0.014893
#
#
# Mechanical properties :
#
#
# Convention : Reuss Voigt Hill
#
# Bulk Modulus (GPa) = 26.96111 78.00335 52.48223
# Shear Modulus (GPa) = 23.96301 44.11364 34.03833
#
# Velocity S-wave (km/s) = 3.14249 4.26373 3.74531
# Velocity P-wave (km/s) = 4.92725 7.50897 6.35068
#
# Compressibility (1/GPa) = 0.03709046
#
# Stress axis : x y z
#
# Youngs Moduli (GPa) = 87.25801 128.40661 38.81225
#
# Poissons Ratio (x) = 0.36715 0.04430
# Poissons Ratio (y) = 0.24950 -0.00153
# Poissons Ratio (z) = 0.09960 -0.00506
#
# Static dielectric constant tensor:
#      x y z
#    x 2.234340 0.000010 0.070560 
#    y 0.000010 2.031170 -0.000030 
#    z 0.070560 -0.000030 1.899090 
# 
# From -- ./inp_files/183870.got.cif
#   From: 2010.05.17/outbox.cif.g08.bks.cpg/sg15_92_cif.got.tgz:183870.got - 2010.06.03 18:47:42.
