data_PCOD9288072
_publ_section_title
;
Structure prediction by ZEFSAII (Michael W. Deem and Ramdas Pophale) SiO2 
 PCOD9288072
Probable space group: C 2/C
;
_chemical_formula_sum "Si O2"
_cell_formula_units_Z 48
_cell_length_a 9.084092
_cell_length_b 16.225666
_cell_length_c 20.978547
_cell_angle_alpha 90.000000
_cell_angle_beta 123.750430
_cell_angle_gamma 90.000000
_cell_volume 2571.009402
_symmetry_space_group_name_H-M "C 2/C"
_symmetry_group_IT_number 15
_symmetry_cell_setting 'monoclinic'
loop_
_space_group_symop_operation_xyz
x,y,z
-x,y,1/2-z
-x,-y,-z
x,-y,1/2+z
1/2+x,1/2+y,z
1/2-x,1/2+y,1/2-z
1/2-x,1/2-y,-z
1/2+x,1/2-y,1/2+z
loop_
_atom_site_type_symbol
_atom_site_label
_atom_site_fract_x
_atom_site_fract_y
_atom_site_fract_z
Si Si1 0.985797 0.498941 0.600575
Si Si2 0.176763 0.738191 0.052861
Si Si3 0.510512 0.418055 0.328433
Si Si4 0.839034 0.913286 0.666798
Si Si5 0.360649 0.127064 0.966606
Si Si6 0.174203 0.611208 0.830264
O O1 0.877646 0.432273 0.532556
O O2 0.886048 0.538305 0.636367
O O3 0.169185 0.452134 0.662312
O O4 0.042531 0.573949 0.566664
O O5 0.271284 0.659660 0.107303
O O6 0.233261 0.817371 0.106509
O O7 0.250000 0.750000 0.000000
O O8 0.971308 0.710655 0.002362
O O9 0.500000 0.403480 0.250000
O O10 0.586614 0.510152 0.355570
O O11 0.658816 0.360981 0.396595
O O12 0.320337 0.413599 0.313950
O O13 0.000000 0.886501 0.750000
O O14 0.000000 0.639767 0.750000
#
# Coordination Sequence:
#
# PCOD9288072 Si02
#       6
#     8   8   8   8   8   8
#     4   9  18  34  61  84 111 151 195 241 277 342
#     4  11  22  35  59  87 118 157 192 238 288 351
#     4  10  22  38  63  83 116 156 195 245 299 340
#     4   9  18  38  59  80 114 158 191 233 296 344
#     4   9  18  38  57  81 120 154 190 232 294 344
#     4  12  23  36  60  93 116 147 202 246 288 351
#
# _framework density 18.669709000000001
#
# number of rings (size 3 to 8) (size 9 to 14) (size 15 to 20)
#    0.000    2.000    1.667    4.500    0.000    1.333 
#    0.000    0.000    0.000    4.000    0.000    0.000 
#    0.000    0.000    0.000    0.000    0.000    0.000 
#
# Total GULP energy -133902.463969 kJ/mol
# GULP energy per Si atom -5579.269332 kJ/mol
# Density = 1.862722 g / cm^3
# Si number density = 18.669709 Si / 1000 Ang^3
#
#
#
# Elastic Constant Matrix: (Units=GPa)
#
#
# Indices 1 2 3 4 5 6 
#
# 1 138.1012 49.4912 59.3693 0.0000 -0.7130 0.0000
# 2 49.4912 62.8853 33.5773 0.0000 -1.1639 0.0000
# 3 59.3693 33.5773 89.3434 0.0000 5.3861 0.0000
# 4 0.0000 0.0000 0.0000 15.6172 0.0000 -10.7609
# 5 -0.7130 -1.1639 5.3861 0.0000 35.6044 0.0000
# 6 0.0000 0.0000 0.0000 -10.7609 0.0000 14.8197
#
#
#
# Elastic Compliance Matrix: (Units=1/GPa)
#
#
# Indices 1 2 3 4 5 6 
#
# 1 0.011938 -0.006399 -0.005581 0.000000 0.000874 0.000000
# 2 -0.006399 0.023439 -0.004637 0.000000 0.001340 0.000000
# 3 -0.005581 -0.004637 0.016813 0.000000 -0.002807 0.000000
# 4 0.000000 0.000000 0.000000 0.128147 0.000000 0.093050
# 5 0.000874 0.001340 -0.002807 0.000000 0.028572 0.000000
# 6 0.000000 0.000000 0.000000 0.093050 0.000000 0.135043
#
#
# Mechanical properties :
#
#
# Convention : Reuss Voigt Hill
#
# Bulk Modulus (GPa) = 52.75426 63.91171 58.33298
# Shear Modulus (GPa) = 13.03760 23.06774 18.05267
#
# Velocity S-wave (km/s) = 2.64546 3.51888 3.11295
# Velocity P-wave (km/s) = 6.13590 7.12862 6.65080
#
# Compressibility (1/GPa) = 0.01895581
#
# Stress axis : x y z
#
# Youngs Moduli (GPa) = 83.76624 42.66354 59.47749
#
# Poissons Ratio (x) = 0.27302 0.33192
# Poissons Ratio (y) = 0.53605 0.27581
# Poissons Ratio (z) = 0.46746 0.19784
#
# Static dielectric constant tensor:
#      x y z
#    x 1.645100 0.000000 0.031300 
#    y 0.000000 1.645030 0.000000 
#    z 0.031300 0.000000 1.694770 
# 
# From -- ./inp_files/232314.got.cif
#   From: 2010.05.17/outbox.cif.g08.bks.cpg/sg15_117_cif.got.tgz:232314.got - 2010.06.03 18:47:42.
