data_PCOD9288709
_publ_section_title
;
Structure prediction by ZEFSAII (Michael W. Deem and Ramdas Pophale) SiO2 
 PCOD9288709
Probable space group: C 2/C
;
_chemical_formula_sum "Si O2"
_cell_formula_units_Z 64
_cell_length_a 28.133293
_cell_length_b 14.602584
_cell_length_c 9.005813
_cell_angle_alpha 90.000000
_cell_angle_beta 128.275050
_cell_angle_gamma 90.000000
_cell_volume 2904.480163
_symmetry_space_group_name_H-M "C 2/C"
_symmetry_group_IT_number 15
_symmetry_cell_setting 'monoclinic'
loop_
_space_group_symop_operation_xyz
x,y,z
-x,y,1/2-z
-x,-y,-z
x,-y,1/2+z
1/2+x,1/2+y,z
1/2-x,1/2+y,1/2-z
1/2-x,1/2-y,-z
1/2+x,1/2-y,1/2+z
loop_
_atom_site_type_symbol
_atom_site_label
_atom_site_fract_x
_atom_site_fract_y
_atom_site_fract_z
Si Si1 0.352440 0.036080 0.448170
Si Si2 0.758459 0.314691 0.251744
Si Si3 0.826978 0.308263 0.082662
Si Si4 0.577104 0.331663 0.767869
Si Si5 0.555912 0.297135 0.069647
Si Si6 0.210718 0.005362 0.207910
Si Si7 0.132648 0.367808 0.841469
Si Si8 0.125778 0.023131 0.802677
O O1 0.370819 0.117064 0.595416
O O2 0.281469 0.024245 0.356146
O O3 0.357137 0.071589 0.288799
O O4 0.382803 0.941087 0.557902
O O5 0.722077 0.223801 0.136550
O O6 0.710205 0.394996 0.186778
O O7 0.806368 0.317531 0.478753
O O8 0.793359 0.340235 0.165999
O O9 0.866102 0.219086 0.195441
O O10 0.516281 0.306786 0.562550
O O11 0.586278 0.440998 0.794678
O O12 0.571573 0.293850 0.924703
O O13 0.584170 0.209819 0.207390
O O14 0.585711 0.390823 0.184612
O O15 0.163510 0.023960 0.244672
O O16 0.181107 0.055028 0.012424
#
# Coordination Sequence:
#
# PCOD9288709 Si02
#       8
#     8   8   8   8   8   8   8   8
#     4  11  23  39  66  99 143 173 227 287 350 409
#     4  10  22  39  63  98 144 174 223 276 349 413
#     4  11  21  40  68 100 135 183 223 283 343 417
#     4  11  24  46  69  99 139 185 230 294 348 409
#     4  11  25  46  70  97 140 183 243 286 350 407
#     4  11  22  38  61 101 141 175 216 271 345 423
#     4  11  24  45  68 103 135 187 231 291 348 414
#     4  12  22  41  65 101 138 181 225 271 346 424
#
# _framework density 22.034924
#
# number of rings (size 3 to 8) (size 9 to 14) (size 15 to 20)
#    0.000    1.000    3.750    4.125    3.500    0.500 
#    0.000    2.500    0.000    0.000    0.000    0.000 
#    0.000    0.000    0.000    0.000    0.000    0.000 
#
# Total GULP energy -178703.719991 kJ/mol
# GULP energy per Si atom -5584.491250 kJ/mol
# Density = 2.198477 g / cm^3
# Si number density = 22.034924 Si / 1000 Ang^3
#
#
#
# Elastic Constant Matrix: (Units=GPa)
#
#
# Indices 1 2 3 4 5 6 
#
# 1 39.9560 8.7657 22.4733 0.0000 -1.9468 0.0000
# 2 8.7657 113.0685 55.0107 0.0000 13.8172 0.0000
# 3 22.4733 55.0107 114.6806 0.0000 15.5079 0.0000
# 4 0.0000 0.0000 0.0000 40.7948 0.0000 -9.8887
# 5 -1.9468 13.8172 15.5079 0.0000 27.3747 0.0000
# 6 0.0000 0.0000 0.0000 -9.8887 0.0000 25.1821
#
#
#
# Elastic Compliance Matrix: (Units=1/GPa)
#
#
# Indices 1 2 3 4 5 6 
#
# 1 0.028934 0.000257 -0.006556 0.000000 0.005642 0.000000
# 2 0.000257 0.011757 -0.005296 0.000000 -0.002916 0.000000
# 3 -0.006556 -0.005296 0.013263 0.000000 -0.005307 0.000000
# 4 0.000000 0.000000 0.000000 0.027092 0.000000 0.010639
# 5 0.005642 -0.002916 -0.005307 0.000000 0.041409 0.000000
# 6 0.000000 0.000000 0.000000 0.010639 0.000000 0.043888
#
#
# Mechanical properties :
#
#
# Convention : Reuss Voigt Hill
#
# Bulk Modulus (GPa) = 32.50599 48.91161 40.70880
# Shear Modulus (GPa) = 25.02665 30.76733 27.89699
#
# Velocity S-wave (km/s) = 3.37378 3.74076 3.56200
# Velocity P-wave (km/s) = 5.47362 6.39556 5.95247
#
# Compressibility (1/GPa) = 0.03076356
#
# Stress axis : x y z
#
# Youngs Moduli (GPa) = 34.56191 85.05470 75.40006
#
# Poissons Ratio (x) = -0.02188 0.49434
# Poissons Ratio (y) = -0.00889 0.39931
# Poissons Ratio (z) = 0.22660 0.45044
#
# Static dielectric constant tensor:
#      x y z
#    x 1.755930 0.000000 -0.009090 
#    y 0.000000 1.852910 0.000000 
#    z -0.009090 0.000000 1.819420 
# 
# From -- ./inp_files/70172.got.cif
#   From: 2010.05.17/outbox.cif.g08.bks.cpg/sg15_36_cif.got.tgz:70172.got - 2010.06.03 18:47:42.
