data_PCOD9288600
_publ_section_title
;
Structure prediction by ZEFSAII (Michael W. Deem and Ramdas Pophale) SiO2 
 PCOD9288600
Probable space group: C 2/C
;
_chemical_formula_sum "Si O2"
_cell_formula_units_Z 52
_cell_length_a 11.145162
_cell_length_b 24.425098
_cell_length_c 14.335460
_cell_angle_alpha 90.000000
_cell_angle_beta 36.221063
_cell_angle_gamma 90.000000
_cell_volume 2305.950606
_symmetry_space_group_name_H-M "C 2/C"
_symmetry_group_IT_number 15
_symmetry_cell_setting 'monoclinic'
loop_
_space_group_symop_operation_xyz
x,y,z
-x,y,1/2-z
-x,-y,-z
x,-y,1/2+z
1/2+x,1/2+y,z
1/2-x,1/2+y,1/2-z
1/2-x,1/2-y,-z
1/2+x,1/2-y,1/2+z
loop_
_atom_site_type_symbol
_atom_site_label
_atom_site_fract_x
_atom_site_fract_y
_atom_site_fract_z
Si Si1 0.000000 0.509278 0.250000
Si Si2 0.433262 0.461962 0.959043
Si Si3 0.411650 0.346808 0.908465
Si Si4 0.000000 0.969033 0.250000
Si Si5 0.481282 0.830600 0.451229
Si Si6 0.591244 0.094920 0.046876
Si Si7 0.258727 0.738659 0.245065
Si Si8 0.000000 0.312820 0.750000
O O1 0.960819 0.549999 0.186393
O O2 0.807982 0.473028 0.397985
O O3 0.462856 0.397408 0.943079
O O4 0.551355 0.489308 0.799851
O O5 0.500000 0.500000 0.000000
O O6 0.500000 0.360557 0.750000
O O7 0.174980 0.338622 0.035225
O O8 0.531861 0.293968 0.867149
O O9 0.810914 0.931692 0.396063
O O10 0.510879 0.884106 0.497339
O O11 0.688239 0.802689 0.285980
O O12 0.384675 0.786588 0.584913
O O13 0.600184 0.147300 0.109942
O O14 0.160395 0.722796 0.207627
#
# Coordination Sequence:
#
# PCOD9288600 Si02
#       8
#     4   8   8   4   8   8   8   4
#     4   9  22  40  58  93 129 156 212 266 327 372
#     4  11  24  40  65  94 125 171 216 262 321 387
#     4  10  22  41  63  87 128 167 210 255 319 372
#     4  10  22  39  62  97 125 162 217 264 310 394
#     4  10  22  40  63  87 125 166 207 257 314 374
#     4   9  20  37  63  89 128 165 201 266 324 372
#     4  10  22  39  62  91 121 169 206 260 310 381
#     4   9  20  37  64  88 130 162 205 254 331 364
#
# _framework density 22.550352
#
# number of rings (size 3 to 8) (size 9 to 14) (size 15 to 20)
#    0.000    2.154    0.769    0.462   10.769    5.538 
#    2.769    3.077    0.000    0.000    0.000    0.000 
#    0.000    0.000    0.000    0.000    0.000    0.000 
#
# Total GULP energy -145218.415184 kJ/mol
# GULP energy per Si atom -5585.323661 kJ/mol
# Density = 2.249903 g / cm^3
# Si number density = 22.550352 Si / 1000 Ang^3
#
#
#
# Elastic Constant Matrix: (Units=GPa)
#
#
# Indices 1 2 3 4 5 6 
#
# 1 73.7654 -1.1139 -11.6744 -0.0004 10.3944 0.0000
# 2 -1.1139 55.0219 11.1569 -0.0003 4.2182 0.0000
# 3 -11.6744 11.1569 31.2802 -0.0002 -1.9594 0.0002
# 4 -0.0004 -0.0003 -0.0002 0.3577 0.0002 -6.0705
# 5 10.3944 4.2182 -1.9594 0.0002 25.5671 -0.0001
# 6 0.0000 0.0000 0.0002 -6.0705 -0.0001 27.9752
#
#
#
# Elastic Compliance Matrix: (Units=1/GPa)
#
#
# Indices 1 2 3 4 5 6 
#
# 1 0.015218 -0.000359 0.005450 -0.000009 -0.005710 -0.000002
# 2 -0.000359 0.019972 -0.007491 -0.000005 -0.003723 -0.000001
# 3 0.005450 -0.007491 0.036790 -0.000007 0.001840 -0.000002
# 4 -0.000009 -0.000005 -0.000007 -1.042190 0.000012 -0.226150
# 5 -0.005710 -0.003723 0.001840 0.000012 0.042190 0.000003
# 6 -0.000002 -0.000001 -0.000002 -0.226150 0.000003 -0.013327
#
#
# Mechanical properties :
#
#
# Convention : Reuss Voigt Hill
#
# Bulk Modulus (GPa) = 14.88526 17.42274 16.15400
# Shear Modulus (GPa) = -5.46954 21.55994 8.04520
#
# Velocity S-wave (km/s) = -1.55908 3.09541 1.89087
# Velocity P-wave (km/s) = 1.83691 4.52972 3.45634
#
# Compressibility (1/GPa) = 0.06718055
#
# Stress axis : x y z
#
# Youngs Moduli (GPa) = 65.71049 50.07100 27.18110
#
# Poissons Ratio (x) = 0.01799 -0.14814
# Poissons Ratio (y) = 0.02361 0.20361
# Poissons Ratio (z) = -0.35814 0.37507
#
# Static dielectric constant tensor:
#      x y z
#    x 1.829810 0.000000 -0.027510 
#    y 0.000000 1.812850 0.000000 
#    z -0.027510 0.000000 1.914250 
# 
# From -- ./inp_files/52252.got.cif
#   From: 2010.05.17/outbox.cif.g08.bks.cpg/sg15_27_cif.got.tgz:52252.got - 2010.06.03 18:47:42.
