data_PCOD9288051
_publ_section_title
;
Structure prediction by ZEFSAII (Michael W. Deem and Ramdas Pophale) SiO2 
 PCOD9288051
Probable space group: C 2/C
;
_chemical_formula_sum "Si O2"
_cell_formula_units_Z 56
_cell_length_a 22.627776
_cell_length_b 22.373104
_cell_length_c 5.623876
_cell_angle_alpha 90.000000
_cell_angle_beta 122.695911
_cell_angle_gamma 90.000000
_cell_volume 2395.981331
_symmetry_space_group_name_H-M "C 2/C"
_symmetry_group_IT_number 15
_symmetry_cell_setting 'monoclinic'
loop_
_space_group_symop_operation_xyz
x,y,z
-x,y,1/2-z
-x,-y,-z
x,-y,1/2+z
1/2+x,1/2+y,z
1/2-x,1/2+y,1/2-z
1/2-x,1/2-y,-z
1/2+x,1/2-y,1/2+z
loop_
_atom_site_type_symbol
_atom_site_label
_atom_site_fract_x
_atom_site_fract_y
_atom_site_fract_z
Si Si1 0.311705 0.137657 0.239951
Si Si2 0.463300 0.132193 0.422575
Si Si3 0.737039 0.030900 0.074951
Si Si4 0.068734 0.239284 0.790485
Si Si5 0.341065 0.353392 0.310762
Si Si6 0.604581 0.487264 0.082755
Si Si7 0.329452 0.248855 0.592192
O O1 0.381322 0.113732 0.262331
O O2 0.291303 0.096249 0.421109
O O3 0.329950 0.203667 0.373324
O O4 0.241263 0.141389 0.931543
O O5 0.500000 0.114836 0.250000
O O6 0.462598 0.205027 0.423916
O O7 0.500000 0.112114 0.750000
O O8 0.715795 0.993048 0.267636
O O9 0.822240 0.026204 0.258006
O O10 0.117569 0.189828 0.778762
O O11 0.000000 0.208634 0.750000
O O12 0.117229 0.271581 0.092043
O O13 0.372588 0.418479 0.377809
O O14 0.349206 0.316544 0.570365
O O15 0.569224 0.498394 0.257395
O O16 0.250000 0.250000 0.500000
#
# Coordination Sequence:
#
# PCOD9288051 Si02
#       7
#     8   8   8   8   8   8   8
#     4  12  22  42  67  99 137 170 233 285 338 407
#     4  11  25  45  65  94 138 187 220 266 344 422
#     4  10  22  38  62  94 127 178 220 276 336 394
#     4  11  25  43  63  95 145 185 218 268 349 425
#     4  12  24  39  67 102 132 173 229 284 342 402
#     4  10  22  41  62  95 132 174 223 277 337 398
#     4  12  25  37  65 104 141 172 223 293 347 396
#
# _framework density 23.37247
#
# number of rings (size 3 to 8) (size 9 to 14) (size 15 to 20)
#    0.000    0.857    5.714    3.000    6.000    2.286 
#    0.000    0.000    0.000    3.429    0.000    0.000 
#    0.000    0.000    0.000    0.000    0.000    0.000 
#
# Total GULP energy -156498.281411 kJ/mol
# GULP energy per Si atom -5589.224336 kJ/mol
# Density = 2.331927 g / cm^3
# Si number density = 23.372470 Si / 1000 Ang^3
#
#
#
# Elastic Constant Matrix: (Units=GPa)
#
#
# Indices 1 2 3 4 5 6 
#
# 1 124.0595 7.5888 35.6162 0.0000 -7.8401 0.0000
# 2 7.5888 61.6008 15.1312 0.0000 -7.0059 0.0000
# 3 35.6162 15.1312 116.0005 0.0000 -18.6830 0.0000
# 4 0.0000 0.0000 0.0000 -14.8223 0.0000 -20.4102
# 5 -7.8401 -7.0059 -18.6830 0.0000 40.7729 0.0000
# 6 0.0000 0.0000 0.0000 -20.4102 0.0000 7.4005
#
#
#
# Elastic Compliance Matrix: (Units=1/GPa)
#
#
# Indices 1 2 3 4 5 6 
#
# 1 0.008859 -0.000403 -0.002596 0.000000 0.000445 0.000000
# 2 -0.000403 0.016946 -0.001760 0.000000 0.002028 0.000000
# 3 -0.002596 -0.001760 0.010277 0.000000 0.003907 0.000000
# 4 0.000000 0.000000 0.000000 -0.014062 0.000000 -0.038783
# 5 0.000445 0.002028 0.003907 0.000000 0.026750 0.000000
# 6 0.000000 0.000000 0.000000 -0.038783 0.000000 0.028165
#
#
# Mechanical properties :
#
#
# Convention : Reuss Voigt Hill
#
# Bulk Modulus (GPa) = 37.64573 46.48146 42.06359
# Shear Modulus (GPa) = 52.46214 22.89187 37.67700
#
# Velocity S-wave (km/s) = 4.74287 3.13299 4.01936
# Velocity P-wave (km/s) = 6.79227 5.74613 6.29098
#
# Compressibility (1/GPa) = 0.02656344
#
# Stress axis : x y z
#
# Youngs Moduli (GPa) = 112.88458 59.01032 97.30921
#
# Poissons Ratio (x) = 0.02379 0.25258
# Poissons Ratio (y) = 0.04551 0.17127
# Poissons Ratio (z) = 0.29301 0.10386
#
# Static dielectric constant tensor:
#      x y z
#    x 1.995800 0.000000 -0.102520 
#    y 0.000000 1.904270 0.000000 
#    z -0.102520 0.000000 1.918260 
# 
# From -- ./inp_files/16183.got.cif
#   From: 2010.05.17/outbox.cif.g08.bks.cpg/sg15_9_cif.got.tgz:16183.got - 2010.06.03 18:47:42.
