data_PCOD9288857
_publ_section_title
;
Structure prediction by ZEFSAII (Michael W. Deem and Ramdas Pophale) SiO2 
 PCOD9288857
Probable space group: C 2/C
;
_chemical_formula_sum "Si O2"
_cell_formula_units_Z 48
_cell_length_a 25.735556
_cell_length_b 15.363329
_cell_length_c 11.598198
_cell_angle_alpha 90.000000
_cell_angle_beta 28.538845
_cell_angle_gamma 90.000000
_cell_volume 2190.857645
_symmetry_space_group_name_H-M "C 2/C"
_symmetry_group_IT_number 15
_symmetry_cell_setting 'monoclinic'
loop_
_space_group_symop_operation_xyz
x,y,z
-x,y,1/2-z
-x,-y,-z
x,-y,1/2+z
1/2+x,1/2+y,z
1/2-x,1/2+y,1/2-z
1/2-x,1/2-y,-z
1/2+x,1/2-y,1/2+z
loop_
_atom_site_type_symbol
_atom_site_label
_atom_site_fract_x
_atom_site_fract_y
_atom_site_fract_z
Si Si1 0.866607 0.273133 0.321135
Si Si2 0.400651 0.944954 0.141412
Si Si3 0.378760 0.847640 0.967443
Si Si4 0.256475 0.418069 0.482668
Si Si5 0.202493 0.294444 0.801352
Si Si6 0.959644 0.143218 0.455236
O O1 0.750000 0.250000 0.500000
O O2 0.920822 0.346080 0.137918
O O3 0.854751 0.321243 0.468445
O O4 0.933482 0.183743 0.196613
O O5 0.289955 0.986118 0.405367
O O6 0.380983 0.934498 0.042843
O O7 0.500000 0.000000 0.000000
O O8 0.500000 0.813877 0.750000
O O9 0.328886 0.874966 0.941417
O O10 0.298422 0.769555 0.156120
O O11 0.244302 0.363466 0.625924
O O12 0.377113 0.415111 0.191451
O O13 0.114246 0.229845 0.917307
O O14 0.000000 0.110168 0.250000
#
# Coordination Sequence:
#
# PCOD9288857 Si02
#       6
#     8   8   8   8   8   8
#     4  11  23  43  68  96 135 179 236 283 341 423
#     4  12  25  40  64 105 140 169 220 299 355 407
#     4  11  22  39  65 100 136 175 226 283 343 420
#     4  11  24  40  66  98 141 178 225 290 359 411
#     4  10  22  39  66  94 131 182 230 276 342 426
#     4   9  20  40  65  91 129 183 232 273 344 421
#
# _framework density 21.909229
#
# number of rings (size 3 to 8) (size 9 to 14) (size 15 to 20)
#    0.000    1.333    3.333    3.000    4.667    0.000 
#    0.000    0.833    0.000    1.000    0.000    0.000 
#    0.000    0.000    0.000    0.000    0.000    0.000 
#
# Total GULP energy -133758.653661 kJ/mol
# GULP energy per Si atom -5573.277236 kJ/mol
# Density = 2.185936 g / cm^3
# Si number density = 21.909229 Si / 1000 Ang^3
#
#
#
# Elastic Constant Matrix: (Units=GPa)
#
#
# Indices 1 2 3 4 5 6 
#
# 1 94.4496 20.5057 42.8523 0.0000 -7.2038 0.0000
# 2 20.5057 33.5095 17.3917 0.0000 3.8913 0.0000
# 3 42.8523 17.3917 133.5290 0.0000 -6.2375 0.0000
# 4 0.0000 0.0000 0.0000 40.3416 0.0000 6.9851
# 5 -7.2038 3.8913 -6.2375 0.0000 51.7538 0.0000
# 6 0.0000 0.0000 0.0000 6.9851 0.0000 28.4122
#
#
#
# Elastic Compliance Matrix: (Units=1/GPa)
#
#
# Indices 1 2 3 4 5 6 
#
# 1 0.013798 -0.006896 -0.003435 0.000000 0.002025 0.000000
# 2 -0.006896 0.035899 -0.002649 0.000000 -0.003978 0.000000
# 3 -0.003435 -0.002649 0.008974 0.000000 0.000803 0.000000
# 4 0.000000 0.000000 0.000000 0.025890 0.000000 -0.006365
# 5 0.002025 -0.003978 0.000803 0.000000 0.020000 0.000000
# 6 0.000000 0.000000 0.000000 -0.006365 0.000000 0.036761
#
#
# Mechanical properties :
#
#
# Convention : Reuss Voigt Hill
#
# Bulk Modulus (GPa) = 30.57039 46.99863 38.78451
# Shear Modulus (GPa) = 28.06082 36.15074 32.10578
#
# Velocity S-wave (km/s) = 3.58268 4.06645 3.83221
# Velocity P-wave (km/s) = 5.57652 6.59895 6.10916
#
# Compressibility (1/GPa) = 0.03271139
#
# Stress axis : x y z
#
# Youngs Moduli (GPa) = 72.47527 27.85628 111.43402
#
# Poissons Ratio (x) = 0.19209 0.38281
# Poissons Ratio (y) = 0.49976 0.29514
# Poissons Ratio (z) = 0.24897 0.07378
#
# Static dielectric constant tensor:
#      x y z
#    x 1.959500 0.000000 0.096820 
#    y 0.000000 1.795680 0.000000 
#    z 0.096820 0.000000 1.901430 
# 
# From -- ./inp_files/119356.got.cif
#   From: 2010.05.17/outbox.cif.g08.bks.cpg/sg15_60_cif.got.tgz:119356.got - 2010.06.03 18:47:42.
