data_PCOD9288632
_publ_section_title
;
Structure prediction by ZEFSAII (Michael W. Deem and Ramdas Pophale) SiO2 
 PCOD9288632
Probable space group: C 2/C
;
_chemical_formula_sum "Si O2"
_cell_formula_units_Z 40
_cell_length_a 29.792395
_cell_length_b 6.692804
_cell_length_c 7.989944
_cell_angle_alpha 90.000000
_cell_angle_beta 74.552667
_cell_angle_gamma 90.000000
_cell_volume 1535.600656
_symmetry_space_group_name_H-M "C 2/C"
_symmetry_group_IT_number 15
_symmetry_cell_setting 'monoclinic'
loop_
_space_group_symop_operation_xyz
x,y,z
-x,y,1/2-z
-x,-y,-z
x,-y,1/2+z
1/2+x,1/2+y,z
1/2-x,1/2+y,1/2-z
1/2-x,1/2-y,-z
1/2+x,1/2-y,1/2+z
loop_
_atom_site_type_symbol
_atom_site_label
_atom_site_fract_x
_atom_site_fract_y
_atom_site_fract_z
Si Si1 0.467321 0.848051 0.432239
Si Si2 0.099182 0.065803 0.826583
Si Si3 0.207770 0.280334 0.293895
Si Si4 0.388285 0.171682 0.516115
Si Si5 0.307159 0.630873 0.567792
O O1 0.500000 0.778977 0.250000
O O2 0.422955 0.991896 0.442018
O O3 0.500000 0.000000 0.500000
O O4 0.447338 0.659889 0.551124
O O5 0.106062 0.170709 0.641363
O O6 0.143993 0.139987 0.887380
O O7 0.099407 0.823780 0.841394
O O8 0.163933 0.414337 0.396231
O O9 0.262644 0.313970 0.225866
O O10 0.201886 0.105660 0.434082
O O11 0.195884 0.222854 0.113062
#
# Coordination Sequence:
#
# PCOD9288632 Si02
#       5
#     8   8   8   8   8
#     4  12  28  48  68 103 133 176 230 278 339 398
#     4  11  25  44  70  98 136 176 221 280 333 400
#     4  10  22  39  62  95 130 172 218 263 330 395
#     4  11  25  44  70  99 134 178 221 277 338 395
#     4  10  22  39  62  95 130 173 215 267 327 395
#
# _framework density 26.048439999999999
#
# number of rings (size 3 to 8) (size 9 to 14) (size 15 to 20)
#    0.000    1.200    2.000    4.800    8.400    4.800 
#    0.000    0.000    0.000    0.000    0.000    0.000 
#    0.000    0.000    0.000    0.000    0.000    0.000 
#
# Total GULP energy -111802.055668 kJ/mol
# GULP energy per Si atom -5590.102783 kJ/mol
# Density = 2.598915 g / cm^3
# Si number density = 26.048440 Si / 1000 Ang^3
#
#
#
# Elastic Constant Matrix: (Units=GPa)
#
#
# Indices 1 2 3 4 5 6 
#
# 1 103.1761 5.6500 55.5512 0.0000 -30.4469 0.0000
# 2 5.6500 52.2283 19.4917 0.0000 -9.0601 0.0000
# 3 55.5512 19.4917 157.7938 0.0000 -53.9064 0.0000
# 4 0.0000 0.0000 0.0000 33.9794 0.0000 -21.8701
# 5 -30.4469 -9.0601 -53.9064 0.0000 64.4498 0.0000
# 6 0.0000 0.0000 0.0000 -21.8701 0.0000 40.7880
#
#
#
# Elastic Compliance Matrix: (Units=1/GPa)
#
#
# Indices 1 2 3 4 5 6 
#
# 1 0.012392 0.000451 -0.003356 0.000000 0.003111 0.000000
# 2 0.000451 0.020139 -0.002249 0.000000 0.001163 0.000000
# 3 -0.003356 -0.002249 0.010006 0.000000 0.006468 0.000000
# 4 0.000000 0.000000 0.000000 0.044938 0.000000 0.024095
# 5 0.003111 0.001163 0.006468 0.000000 0.022559 0.000000
# 6 0.000000 0.000000 0.000000 0.024095 0.000000 0.037437
#
#
# Mechanical properties :
#
#
# Convention : Reuss Voigt Hill
#
# Bulk Modulus (GPa) = 31.02664 52.73156 41.87910
# Shear Modulus (GPa) = 29.66979 43.34377 36.50678
#
# Velocity S-wave (km/s) = 3.37860 4.08360 3.74772
# Velocity P-wave (km/s) = 5.21123 6.52089 5.90250
#
# Compressibility (1/GPa) = 0.03223036
#
# Stress axis : x y z
#
# Youngs Moduli (GPa) = 80.69586 49.65474 99.93865
#
# Poissons Ratio (x) = -0.02242 0.33536
# Poissons Ratio (y) = -0.03643 0.22479
# Poissons Ratio (z) = 0.27079 0.11169
#
# Static dielectric constant tensor:
#      x y z
#    x 2.151670 0.000000 -0.008600 
#    y 0.000000 2.136310 0.000000 
#    z -0.008600 0.000000 2.094610 
# 
# From -- ./inp_files/68259.got.cif
#   From: 2010.05.17/outbox.cif.g08.bks.cpg/sg15_35_cif.got.tgz:68259.got - 2010.06.03 18:47:42.
