data_PCOD9288631
_publ_section_title
;
Structure prediction by ZEFSAII (Michael W. Deem and Ramdas Pophale) SiO2 
 PCOD9288631
Probable space group: C 2/C
;
_chemical_formula_sum "Si O2"
_cell_formula_units_Z 48
_cell_length_a 16.098778
_cell_length_b 15.753218
_cell_length_c 17.473157
_cell_angle_alpha 90.000000
_cell_angle_beta 29.931120
_cell_angle_gamma 90.000000
_cell_volume 2211.047206
_symmetry_space_group_name_H-M "C 2/C"
_symmetry_group_IT_number 15
_symmetry_cell_setting 'monoclinic'
loop_
_space_group_symop_operation_xyz
x,y,z
-x,y,1/2-z
-x,-y,-z
x,-y,1/2+z
1/2+x,1/2+y,z
1/2-x,1/2+y,1/2-z
1/2-x,1/2-y,-z
1/2+x,1/2-y,1/2+z
loop_
_atom_site_type_symbol
_atom_site_label
_atom_site_fract_x
_atom_site_fract_y
_atom_site_fract_z
Si Si1 0.196753 0.185606 0.607174
Si Si2 0.807506 0.339111 0.424376
Si Si3 0.276210 0.657433 0.677715
Si Si4 0.311898 0.477786 0.624931
Si Si5 0.853345 0.209185 0.118059
Si Si6 0.682553 0.509528 0.565888
O O1 0.250000 0.250000 0.500000
O O2 0.258139 0.229375 0.635136
O O3 0.000000 0.176808 0.750000
O O4 0.266155 0.091088 0.538711
O O5 0.750000 0.250000 0.500000
O O6 0.704508 0.348611 0.428584
O O7 0.771193 0.419756 0.506054
O O8 0.000000 0.339604 0.250000
O O9 0.220372 0.559586 0.736445
O O10 0.152148 0.732186 0.802007
O O11 0.459942 0.686429 0.558872
O O12 0.500000 0.500000 0.500000
O O13 0.268609 0.383779 0.690067
O O14 0.311159 0.473345 0.531848
O O15 0.500000 0.500791 0.750000
#
# Coordination Sequence:
#
# PCOD9288631 Si02
#       6
#     8   8   8   8   8   8
#     4  11  22  37  62  94 131 166 212 258 327 385
#     4  11  23  43  67  94 127 168 222 271 320 375
#     4  10  23  41  62  90 124 166 214 257 325 382
#     4   9  20  38  61  85 124 168 207 254 316 382
#     4  11  21  41  62  90 127 169 209 262 316 385
#     4  10  22  39  62  95 129 167 215 263 322 393
#
# _framework density 21.70917
#
# number of rings (size 3 to 8) (size 9 to 14) (size 15 to 20)
#    0.000    1.667    1.667    2.500    7.000    3.333 
#    6.000    0.833    0.000    0.000    0.000    0.000 
#    0.000    0.000    0.000    0.000    0.000    0.000 
#
# Total GULP energy -133718.495717 kJ/mol
# GULP energy per Si atom -5571.603988 kJ/mol
# Density = 2.165976 g / cm^3
# Si number density = 21.709170 Si / 1000 Ang^3
#
#
#
# Elastic Constant Matrix: (Units=GPa)
#
#
# Indices 1 2 3 4 5 6 
#
# 1 39.0019 21.1588 -12.1665 -0.0061 -9.3328 -0.0003
# 2 21.1588 269.1417 57.7530 -0.0092 11.4325 -0.0012
# 3 -12.1665 57.7530 63.7171 -0.0179 2.0074 -0.0010
# 4 -0.0061 -0.0092 -0.0179 12.2838 0.0029 3.5860
# 5 -9.3328 11.4325 2.0074 0.0029 22.4824 0.0003
# 6 -0.0003 -0.0012 -0.0010 3.5860 0.0003 32.7171
#
#
#
# Elastic Compliance Matrix: (Units=1/GPa)
#
#
# Indices 1 2 3 4 5 6 
#
# 1 0.037031 -0.006273 0.012206 0.000028 0.017472 -0.000003
# 2 -0.006273 0.005765 -0.006266 -0.000007 -0.004976 0.000001
# 3 0.012206 -0.006266 0.023511 0.000035 0.006154 -0.000003
# 4 0.000028 -0.000007 0.000035 0.084099 0.000001 -0.009218
# 5 0.017472 -0.004976 0.006154 0.000001 0.053713 0.000000
# 6 -0.000003 0.000001 -0.000003 -0.009218 0.000000 0.031575
#
#
# Mechanical properties :
#
#
# Convention : Reuss Voigt Hill
#
# Bulk Modulus (GPa) = 15.23430 56.15014 35.69222
# Shear Modulus (GPa) = 19.36189 33.83768 26.59978
#
# Velocity S-wave (km/s) = 2.98967 3.95230 3.50420
# Velocity P-wave (km/s) = 4.35318 6.83728 5.73143
#
# Compressibility (1/GPa) = 0.06564135
#
# Stress axis : x y z
#
# Youngs Moduli (GPa) = 27.00418 173.47372 42.53395
#
# Poissons Ratio (x) = 1.08813 -0.51917
# Poissons Ratio (y) = 0.16939 0.26652
# Poissons Ratio (z) = -0.32961 1.08698
#
# Static dielectric constant tensor:
#      x y z
#    x 1.900250 0.000040 0.036790 
#    y 0.000040 1.702890 0.000000 
#    z 0.036790 0.000000 1.820180 
# 
# From -- ./inp_files/248939.got.cif
#   From: 2010.05.17/outbox.cif.g08.bks.cpg/sg15_125_cif.got.tgz:248939.got - 2010.06.03 18:47:42.
