data_PCOD9288190
_publ_section_title
;
Structure prediction by ZEFSAII (Michael W. Deem and Ramdas Pophale) SiO2 
 PCOD9288190
Probable space group: C 2/C
;
_chemical_formula_sum "Si O2"
_cell_formula_units_Z 48
_cell_length_a 7.922560
_cell_length_b 28.506379
_cell_length_c 8.806843
_cell_angle_alpha 90.000000
_cell_angle_beta 99.173349
_cell_angle_gamma 90.000000
_cell_volume 1963.530373
_symmetry_space_group_name_H-M "C 2/C"
_symmetry_group_IT_number 15
_symmetry_cell_setting 'monoclinic'
loop_
_space_group_symop_operation_xyz
x,y,z
-x,y,1/2-z
-x,-y,-z
x,-y,1/2+z
1/2+x,1/2+y,z
1/2-x,1/2+y,1/2-z
1/2-x,1/2-y,-z
1/2+x,1/2-y,1/2+z
loop_
_atom_site_type_symbol
_atom_site_label
_atom_site_fract_x
_atom_site_fract_y
_atom_site_fract_z
Si Si1 0.247222 0.618326 0.533703
Si Si2 0.304830 0.222300 0.662325
Si Si3 0.318210 0.311362 0.810891
Si Si4 0.701641 0.938223 0.308455
Si Si5 0.116332 0.031064 0.130720
Si Si6 0.841436 0.366407 0.978505
O O1 0.334083 0.665069 0.477749
O O2 0.293877 0.595778 0.701827
O O3 0.289307 0.574494 0.431484
O O4 0.046727 0.631227 0.510570
O O5 0.500000 0.217225 0.750000
O O6 0.250000 0.250000 0.500000
O O7 0.238365 0.259025 0.782180
O O8 0.272253 0.169897 0.597035
O O9 0.500000 0.309856 0.750000
O O10 0.209786 0.346853 0.691722
O O11 0.500000 0.934537 0.250000
O O12 0.728802 0.916788 0.479618
O O13 0.754265 0.991356 0.292452
O O14 0.000000 0.048525 0.250000
O O15 0.000000 0.000000 0.000000
#
# Coordination Sequence:
#
# PCOD9288190 Si02
#       6
#     8   8   8   8   8   8
#     4  11  23  41  64  96 129 177 224 274 336 408
#     4   9  18  38  63  93 132 173 220 281 342 406
#     4  10  22  38  64  98 129 171 226 279 345 400
#     4  10  24  42  63  92 129 177 226 270 339 406
#     4  12  26  45  66  95 136 174 224 283 344 406
#     4  10  22  41  67  92 133 178 224 280 338 413
#
# _framework density 24.445761999999998
#
# number of rings (size 3 to 8) (size 9 to 14) (size 15 to 20)
#    0.000    1.667    1.667    2.500    4.667    4.000 
#    0.000    7.500    0.000   10.000    0.000    0.000 
#    0.000    0.000    0.000    0.000    0.000    0.000 
#
# Total GULP energy -133853.793229 kJ/mol
# GULP energy per Si atom -5577.241385 kJ/mol
# Density = 2.439012 g / cm^3
# Si number density = 24.445762 Si / 1000 Ang^3
#
#
#
# Elastic Constant Matrix: (Units=GPa)
#
#
# Indices 1 2 3 4 5 6 
#
# 1 65.3591 26.4782 23.0248 0.0000 -3.3487 0.0000
# 2 26.4782 133.5604 36.9497 0.0000 -24.6599 0.0000
# 3 23.0248 36.9497 60.2561 0.0000 -7.9413 0.0000
# 4 0.0000 0.0000 0.0000 39.9308 0.0000 -10.2995
# 5 -3.3487 -24.6599 -7.9413 0.0000 42.3036 0.0000
# 6 0.0000 0.0000 0.0000 -10.2995 0.0000 19.2345
#
#
#
# Elastic Compliance Matrix: (Units=1/GPa)
#
#
# Indices 1 2 3 4 5 6 
#
# 1 0.018153 -0.002185 -0.005716 0.000000 -0.000910 0.000000
# 2 -0.002185 0.010124 -0.004735 0.000000 0.004840 0.000000
# 3 -0.005716 -0.004735 0.021800 0.000000 0.000879 0.000000
# 4 0.000000 0.000000 0.000000 0.029057 0.000000 0.015559
# 5 -0.000910 0.004840 0.000879 0.000000 0.026553 0.000000
# 6 0.000000 0.000000 0.000000 0.015559 0.000000 0.060321
#
#
# Mechanical properties :
#
#
# Convention : Reuss Voigt Hill
#
# Bulk Modulus (GPa) = 40.31836 48.00900 44.16368
# Shear Modulus (GPa) = 25.05658 31.80863 28.43261
#
# Velocity S-wave (km/s) = 3.20501 3.61112 3.41411
# Velocity P-wave (km/s) = 5.49772 6.08839 5.80058
#
# Compressibility (1/GPa) = 0.02480259
#
# Stress axis : x y z
#
# Youngs Moduli (GPa) = 55.08881 98.77430 45.87212
#
# Poissons Ratio (x) = 0.21585 0.26222
# Poissons Ratio (y) = 0.12039 0.21722
# Poissons Ratio (z) = 0.31490 0.46773
#
# Static dielectric constant tensor:
#      x y z
#    x 1.992690 0.000000 0.021370 
#    y 0.000000 2.012550 0.000000 
#    z 0.021370 0.000000 2.016030 
# 
# From -- ./inp_files/26065.got.cif
#   From: 2010.05.17/outbox.cif.g08.bks.cpg/sg15_14_cif.got.tgz:26065.got - 2010.06.03 18:47:42.
