data_PCOD9288075
_publ_section_title
;
Structure prediction by ZEFSAII (Michael W. Deem and Ramdas Pophale) SiO2 
 PCOD9288075
Probable space group: C 2/C
;
_chemical_formula_sum "Si O2"
_cell_formula_units_Z 56
_cell_length_a 27.030237
_cell_length_b 12.200176
_cell_length_c 12.509829
_cell_angle_alpha 90.000000
_cell_angle_beta 138.863960
_cell_angle_gamma 90.000000
_cell_volume 2713.898622
_symmetry_space_group_name_H-M "C 2/C"
_symmetry_group_IT_number 15
_symmetry_cell_setting 'monoclinic'
loop_
_space_group_symop_operation_xyz
x,y,z
-x,y,1/2-z
-x,-y,-z
x,-y,1/2+z
1/2+x,1/2+y,z
1/2-x,1/2+y,1/2-z
1/2-x,1/2-y,-z
1/2+x,1/2-y,1/2+z
loop_
_atom_site_type_symbol
_atom_site_label
_atom_site_fract_x
_atom_site_fract_y
_atom_site_fract_z
Si Si1 0.000000 0.306585 0.250000
Si Si2 0.911908 0.891440 0.689596
Si Si3 0.294561 0.833433 0.655007
Si Si4 0.739162 0.088773 0.950696
Si Si5 0.500000 0.429047 0.250000
Si Si6 0.030912 0.620123 0.026126
Si Si7 0.554499 0.674072 0.037997
Si Si8 0.773021 0.796040 0.716205
O O1 0.933466 0.223813 0.174458
O O2 0.029276 0.374306 0.395816
O O3 0.828015 0.900295 0.587222
O O4 0.958264 0.896235 0.875367
O O5 0.931054 0.987171 0.639929
O O6 0.250000 0.750000 0.500000
O O7 0.386674 0.835306 0.802955
O O8 0.264783 0.804589 0.727655
O O9 0.279287 0.961837 0.600333
O O10 0.715338 0.175086 0.819215
O O11 0.725216 0.135493 0.048372
O O12 0.500105 0.359085 0.355073
O O13 0.000000 0.500000 0.000000
O O14 0.967719 0.703705 0.965503
O O15 0.640454 0.662308 0.138507
#
# Coordination Sequence:
#
# PCOD9288075 Si02
#       8
#     4   8   8   8   4   8   8   8
#     4   9  20  43  68  94 128 177 232 275 340 414
#     4   9  19  37  62  93 117 165 210 267 329 410
#     4  12  28  43  68 108 146 181 241 307 358 425
#     4  10  22  43  69  92 135 180 229 278 361 424
#     4  11  20  33  58  90 126 151 192 273 338 378
#     4  11  25  45  67  97 135 185 234 283 344 424
#     4  10  22  38  63  90 125 162 219 263 328 405
#     4  10  23  45  69  96 132 186 228 284 354 440
#
# _framework density 20.634520999999999
#
# number of rings (size 3 to 8) (size 9 to 14) (size 15 to 20)
#    0.000    1.714    0.000    3.000    6.000    4.000 
#    5.143    0.000    0.000    0.000    0.000    0.000 
#    0.000    0.000    0.000    0.000    0.000    0.000 
#
# Total GULP energy -155932.047067 kJ/mol
# GULP energy per Si atom -5569.001681 kJ/mol
# Density = 2.058756 g / cm^3
# Si number density = 20.634521 Si / 1000 Ang^3
#
#
#
# Elastic Constant Matrix: (Units=GPa)
#
#
# Indices 1 2 3 4 5 6 
#
# 1 94.7124 23.7901 39.0644 0.0000 -18.5298 0.0000
# 2 23.7901 111.5182 51.9551 0.0000 -22.9046 0.0000
# 3 39.0644 51.9551 92.9120 0.0000 -20.1677 0.0000
# 4 0.0000 0.0000 0.0000 49.5611 0.0000 15.4059
# 5 -18.5298 -22.9046 -20.1677 0.0000 36.3587 0.0000
# 6 0.0000 0.0000 0.0000 15.4059 0.0000 31.8489
#
#
#
# Elastic Compliance Matrix: (Units=1/GPa)
#
#
# Indices 1 2 3 4 5 6 
#
# 1 0.013317 0.000291 -0.004830 0.000000 0.004291 0.000000
# 2 0.000291 0.012788 -0.006244 0.000000 0.004741 0.000000
# 3 -0.004830 -0.006244 0.016936 0.000000 0.002999 0.000000
# 4 0.000000 0.000000 0.000000 0.023748 0.000000 -0.011487
# 5 0.004291 0.004741 0.002999 0.000000 0.034340 0.000000
# 6 0.000000 0.000000 0.000000 -0.011487 0.000000 0.036955
#
#
# Mechanical properties :
#
#
# Convention : Reuss Voigt Hill
#
# Bulk Modulus (GPa) = 46.56799 58.75129 52.65964
# Shear Modulus (GPa) = 29.97435 35.84261 32.90848
#
# Velocity S-wave (km/s) = 3.81548 4.17228 3.99786
# Velocity P-wave (km/s) = 6.48286 7.19338 6.84734
#
# Compressibility (1/GPa) = 0.02147398
#
# Stress axis : x y z
#
# Youngs Moduli (GPa) = 75.09219 78.19967 59.04482
#
# Poissons Ratio (x) = -0.02274 0.28520
# Poissons Ratio (y) = -0.02183 0.36868
# Poissons Ratio (z) = 0.36272 0.48828
#
# Static dielectric constant tensor:
#      x y z
#    x 1.774340 0.000000 -0.008150 
#    y 0.000000 1.766530 0.000000 
#    z -0.008150 0.000000 1.819200 
# 
# From -- ./inp_files/122726.got.cif
#   From: 2010.05.17/outbox.cif.g08.bks.cpg/sg15_62_cif.got.tgz:122726.got - 2010.06.03 18:47:42.
