data_PCOD9288527
_publ_section_title
;
Structure prediction by ZEFSAII (Michael W. Deem and Ramdas Pophale) SiO2 
 PCOD9288527
Probable space group: C 2/C
;
_chemical_formula_sum "Si O2"
_cell_formula_units_Z 40
_cell_length_a 31.081872
_cell_length_b 4.671023
_cell_length_c 12.588280
_cell_angle_alpha 90.000000
_cell_angle_beta 127.785372
_cell_angle_gamma 90.000000
_cell_volume 1444.387930
_symmetry_space_group_name_H-M "C 2/C"
_symmetry_group_IT_number 15
_symmetry_cell_setting 'monoclinic'
loop_
_space_group_symop_operation_xyz
x,y,z
-x,y,1/2-z
-x,-y,-z
x,-y,1/2+z
1/2+x,1/2+y,z
1/2-x,1/2+y,1/2-z
1/2-x,1/2-y,-z
1/2+x,1/2-y,1/2+z
loop_
_atom_site_type_symbol
_atom_site_label
_atom_site_fract_x
_atom_site_fract_y
_atom_site_fract_z
Si Si1 0.182395 0.387452 0.096191
Si Si2 0.521956 0.198783 0.439934
Si Si3 0.205715 0.066599 0.498365
Si Si4 0.078519 0.630277 0.323105
Si Si5 0.624172 0.295289 0.712432
O O1 0.185821 0.705626 0.057878
O O2 0.130848 0.239309 0.958364
O O3 0.227610 0.195590 0.104576
O O4 0.165371 0.353696 0.191350
O O5 0.548854 0.012890 0.385115
O O6 0.467758 0.325618 0.302232
O O7 0.570821 0.386240 0.563398
O O8 0.500000 0.000000 0.500000
O O9 0.250000 0.250000 0.500000
O O10 0.162429 0.996443 0.337830
O O11 0.100068 0.415499 0.266396
#
# Coordination Sequence:
#
# PCOD9288527 Si02
#       5
#     8   8   8   8   8
#     4  10  22  39  61  88 118 154 197 246 301 358
#     4   8  13  27  55  88 122 162 200 241 294 352
#     4  11  24  41  61  87 117 152 199 250 300 359
#     4   8  15  30  55  88 123 157 199 244 292 355
#     4   9  19  35  58  86 120 159 199 247 299 353
#
# _framework density 27.693394000000001
#
# number of rings (size 3 to 8) (size 9 to 14) (size 15 to 20)
#    0.000    2.800    0.000    0.600    0.000    4.800 
#    0.000    1.000    0.000   84.000    0.000    0.000 
#    0.000    0.000    0.000    0.000    0.000    0.000 
#
# Total GULP energy -111427.383588 kJ/mol
# GULP energy per Si atom -5571.369179 kJ/mol
# Density = 2.763036 g / cm^3
# Si number density = 27.693394 Si / 1000 Ang^3
#
#
#
# Elastic Constant Matrix: (Units=GPa)
#
#
# Indices 1 2 3 4 5 6 
#
# 1 98.2159 27.7450 54.4498 0.0000 -39.0278 0.0000
# 2 27.7450 93.7810 18.3945 0.0000 -27.0320 0.0001
# 3 54.4498 18.3945 142.3439 0.0000 -22.8688 0.0000
# 4 0.0000 0.0000 0.0000 30.6505 0.0000 -18.1728
# 5 -39.0278 -27.0320 -22.8688 0.0000 73.1592 0.0000
# 6 0.0000 0.0001 0.0000 -18.1728 0.0000 12.8266
#
#
#
# Elastic Compliance Matrix: (Units=1/GPa)
#
#
# Indices 1 2 3 4 5 6 
#
# 1 0.015889 -0.001954 -0.004822 0.000000 0.006247 0.000000
# 2 -0.001954 0.012280 -0.000292 0.000000 0.003403 0.000000
# 3 -0.004822 -0.000292 0.008925 0.000000 0.000110 0.000000
# 4 0.000000 0.000000 0.000000 0.203944 0.000000 0.288947
# 5 0.006247 0.003403 0.000110 0.000000 0.018293 0.000000
# 6 0.000000 0.000000 0.000000 0.288947 0.000000 0.487343
#
#
# Mechanical properties :
#
#
# Convention : Reuss Voigt Hill
#
# Bulk Modulus (GPa) = 43.56036 59.50215 51.53126
# Shear Modulus (GPa) = 6.50649 38.91070 22.70860
#
# Velocity S-wave (km/s) = 1.53446 3.75247 2.86667
# Velocity P-wave (km/s) = 4.34777 6.34881 5.44107
#
# Compressibility (1/GPa) = 0.02295665
#
# Stress axis : x y z
#
# Youngs Moduli (GPa) = 62.93570 81.43526 112.04363
#
# Poissons Ratio (x) = 0.15916 0.54025
# Poissons Ratio (y) = 0.12300 0.03277
# Poissons Ratio (z) = 0.30346 0.02382
#
# Static dielectric constant tensor:
#      x y z
#    x 2.634870 0.000000 0.089720 
#    y 0.000000 2.475060 0.000000 
#    z 0.089720 0.000000 2.197790 
# 
# From -- ./inp_files/125108.got.cif
#   From: 2010.05.17/outbox.cif.g08.bks.cpg/sg15_63_cif.got.tgz:125108.got - 2010.06.03 18:47:42.
