data_PCOD9288352
_publ_section_title
;
Structure prediction by ZEFSAII (Michael W. Deem and Ramdas Pophale) SiO2 
 PCOD9288352
Probable space group: C 2/C
;
_chemical_formula_sum "Si O2"
_cell_formula_units_Z 44
_cell_length_a 25.030446
_cell_length_b 7.267947
_cell_length_c 13.703795
_cell_angle_alpha 90.000000
_cell_angle_beta 39.781760
_cell_angle_gamma 90.000000
_cell_volume 1595.179671
_symmetry_space_group_name_H-M "C 2/C"
_symmetry_group_IT_number 15
_symmetry_cell_setting 'monoclinic'
loop_
_space_group_symop_operation_xyz
x,y,z
-x,y,1/2-z
-x,-y,-z
x,-y,1/2+z
1/2+x,1/2+y,z
1/2-x,1/2+y,1/2-z
1/2-x,1/2-y,-z
1/2+x,1/2-y,1/2+z
loop_
_atom_site_type_symbol
_atom_site_label
_atom_site_fract_x
_atom_site_fract_y
_atom_site_fract_z
Si Si1 0.219884 0.472533 0.421996
Si Si2 0.590579 0.997291 0.740141
Si Si3 0.867654 0.037175 0.578147
Si Si4 0.500000 0.500000 0.000000
Si Si5 0.629476 0.425604 0.654287
Si Si6 0.087383 0.592210 0.461912
O O1 0.148888 0.375815 0.587725
O O2 0.284674 0.398267 0.250341
O O3 0.282140 0.551337 0.415569
O O4 0.162339 0.594310 0.432001
O O5 0.607047 0.208797 0.687225
O O6 0.615371 0.969257 0.817196
O O7 0.490600 0.985990 0.883854
O O8 0.863400 0.020098 0.469767
O O9 0.938931 0.190360 0.513749
O O10 0.915760 0.879223 0.568247
O O11 0.559447 0.533030 0.813827
#
# Coordination Sequence:
#
# PCOD9288352 Si02
#       6
#     8   8   8   4   8   8
#     4  11  24  38  67 101 128 176 227 279 333 403
#     4  11  23  42  67  95 134 179 228 271 342 403
#     4  11  23  42  67  98 137 174 224 281 337 400
#     4  10  22  38  70 100 124 172 230 270 334 398
#     4  11  22  42  71  95 132 180 224 275 337 405
#     4  11  24  40  69  97 134 179 225 282 334 409
#
# _framework density 27.583099000000001
#
# number of rings (size 3 to 8) (size 9 to 14) (size 15 to 20)
#    0.000    1.091    3.636    2.727    2.545    0.727 
#    0.000    0.000    4.000    0.000    0.000    0.000 
#    0.000    0.000    0.000    0.000    0.000    0.000 
#
# Total GULP energy -122641.249259 kJ/mol
# GULP energy per Si atom -5574.602239 kJ/mol
# Density = 2.752032 g / cm^3
# Si number density = 27.583099 Si / 1000 Ang^3
#
#
#
# Elastic Constant Matrix: (Units=GPa)
#
#
# Indices 1 2 3 4 5 6 
#
# 1 190.4912 27.5375 107.8789 0.0002 38.4764 -0.0001
# 2 27.5375 58.6265 45.6651 -0.0020 4.3770 0.0011
# 3 107.8789 45.6651 313.9976 -0.0012 30.6645 0.0006
# 4 0.0002 -0.0020 -0.0012 25.4531 0.0006 7.5837
# 5 38.4764 4.3770 30.6645 0.0006 53.2874 -0.0002
# 6 -0.0001 0.0011 0.0006 7.5837 -0.0002 18.1077
#
#
#
# Elastic Compliance Matrix: (Units=1/GPa)
#
#
# Indices 1 2 3 4 5 6 
#
# 1 0.007397 -0.001693 -0.001894 0.000000 -0.004113 0.000000
# 2 -0.001693 0.019623 -0.002367 0.000002 0.000973 -0.000002
# 3 -0.001894 -0.002367 0.004267 0.000000 -0.000894 0.000000
# 4 0.000000 0.000002 0.000000 0.044889 -0.000001 -0.018800
# 5 -0.004113 0.000973 -0.000894 -0.000001 0.022170 0.000000
# 6 0.000000 -0.000002 0.000000 -0.018800 0.000000 0.063099
#
#
# Mechanical properties :
#
#
# Convention : Reuss Voigt Hill
#
# Bulk Modulus (GPa) = 51.59811 102.80872 77.20341
# Shear Modulus (GPa) = 27.80657 44.83856 36.32256
#
# Velocity S-wave (km/s) = 3.17851 4.03622 3.63277
# Velocity P-wave (km/s) = 5.67605 7.68601 6.75619
#
# Compressibility (1/GPa) = 0.01938055
#
# Stress axis : x y z
#
# Youngs Moduli (GPa) = 135.18305 50.95937 234.36164
#
# Poissons Ratio (x) = 0.08625 0.44381
# Poissons Ratio (y) = 0.22880 0.55482
# Poissons Ratio (z) = 0.25600 0.12064
#
# Static dielectric constant tensor:
#      x y z
#    x 2.383040 0.000000 -0.053910 
#    y 0.000000 2.653600 0.000000 
#    z -0.053910 0.000000 2.150940 
# 
# From -- ./inp_files/104335.got.cif
#   From: 2010.05.17/outbox.cif.g08.bks.cpg/sg15_53_cif.got.tgz:104335.got - 2010.06.03 18:47:42.
