data_PCOD9288319
_publ_section_title
;
Structure prediction by ZEFSAII (Michael W. Deem and Ramdas Pophale) SiO2 
 PCOD9288319
Probable space group: C 2/C
;
_chemical_formula_sum "Si O2"
_cell_formula_units_Z 44
_cell_length_a 17.079575
_cell_length_b 7.900676
_cell_length_c 22.426926
_cell_angle_alpha 90.000000
_cell_angle_beta 43.245740
_cell_angle_gamma 90.000000
_cell_volume 2073.401015
_symmetry_space_group_name_H-M "C 2/C"
_symmetry_group_IT_number 15
_symmetry_cell_setting 'monoclinic'
loop_
_space_group_symop_operation_xyz
x,y,z
-x,y,1/2-z
-x,-y,-z
x,-y,1/2+z
1/2+x,1/2+y,z
1/2-x,1/2+y,1/2-z
1/2-x,1/2-y,-z
1/2+x,1/2-y,1/2+z
loop_
_atom_site_type_symbol
_atom_site_label
_atom_site_fract_x
_atom_site_fract_y
_atom_site_fract_z
Si Si1 0.000000 0.972900 0.750000
Si Si2 0.468288 0.600103 0.459284
Si Si3 0.851739 0.781515 0.734298
Si Si4 0.323681 0.584765 0.942999
Si Si5 0.880334 0.542863 0.148381
Si Si6 0.381143 0.019505 0.016645
O O1 0.088767 0.853765 0.738531
O O2 0.072582 0.086140 0.662847
O O3 0.500000 0.500000 0.500000
O O4 0.577948 0.621761 0.356089
O O5 0.373424 0.501325 0.474064
O O6 0.424550 0.788313 0.497926
O O7 0.869160 0.584083 0.709907
O O8 0.718000 0.818330 0.798825
O O9 0.250000 0.750000 0.000000
O O10 0.228124 0.473003 0.963576
O O11 0.014354 0.587728 0.069580
O O12 0.857105 0.452935 0.096582
#
# Coordination Sequence:
#
# PCOD9288319 Si02
#       6
#     4   8   8   8   8   8
#     4  10  22  44  64  94 134 170 218 276 322 394
#     4  10  24  40  67  96 126 173 217 261 329 393
#     4  10  22  39  64  92 125 168 218 262 329 376
#     4  11  24  41  70  97 132 175 219 272 330 383
#     4  10  22  38  68  90 124 168 213 264 320 380
#     4  10  22  43  63  90 135 166 212 265 326 384
#
# _framework density 21.221173
#
# number of rings (size 3 to 8) (size 9 to 14) (size 15 to 20)
#    0.000    1.818    1.818    0.545   10.182    1.455 
#    0.000    0.000    0.000    0.000    0.000    0.000 
#    0.000    0.000    0.000    0.000    0.000    0.000 
#
# Total GULP energy -122718.526009 kJ/mol
# GULP energy per Si atom -5578.114819 kJ/mol
# Density = 2.117287 g / cm^3
# Si number density = 21.221173 Si / 1000 Ang^3
#
#
#
# Elastic Constant Matrix: (Units=GPa)
#
#
# Indices 1 2 3 4 5 6 
#
# 1 132.9275 24.2174 33.5250 0.0000 5.7298 0.0000
# 2 24.2174 54.7712 26.8934 0.0000 6.9200 0.0001
# 3 33.5250 26.8934 62.0366 0.0000 3.5644 0.0000
# 4 0.0000 0.0000 0.0000 25.2492 0.0000 -2.9075
# 5 5.7298 6.9200 3.5644 0.0000 37.8946 0.0000
# 6 0.0000 0.0001 0.0000 -2.9075 0.0000 29.5780
#
#
#
# Elastic Compliance Matrix: (Units=1/GPa)
#
#
# Indices 1 2 3 4 5 6 
#
# 1 0.008893 -0.001920 -0.003938 0.000000 -0.000624 0.000000
# 2 -0.001920 0.024029 -0.009194 0.000000 -0.003233 0.000000
# 3 -0.003938 -0.009194 0.022222 0.000000 0.000184 0.000000
# 4 0.000000 0.000000 0.000000 0.040059 0.000000 0.003938
# 5 -0.000624 -0.003233 0.000184 0.000000 0.027056 0.000000
# 6 0.000000 0.000000 0.000000 0.003938 0.000000 0.034196
#
#
# Mechanical properties :
#
#
# Convention : Reuss Voigt Hill
#
# Bulk Modulus (GPa) = 39.93250 46.55633 43.24441
# Shear Modulus (GPa) = 25.65358 29.55099 27.60228
#
# Velocity S-wave (km/s) = 3.48065 3.73570 3.61043
# Velocity P-wave (km/s) = 5.91704 6.37131 6.14837
#
# Compressibility (1/GPa) = 0.02504226
#
# Stress axis : x y z
#
# Youngs Moduli (GPa) = 112.45302 41.61594 44.99973
#
# Poissons Ratio (x) = 0.07989 0.17719
# Poissons Ratio (y) = 0.21588 0.41371
# Poissons Ratio (z) = 0.44279 0.38260
#
# Static dielectric constant tensor:
#      x y z
#    x 1.775940 0.000000 -0.027680 
#    y 0.000000 1.791590 0.000000 
#    z -0.027680 0.000000 1.829440 
# 
# From -- ./inp_files/246808.got.cif
#   From: 2010.05.17/outbox.cif.g08.bks.cpg/sg15_124_cif.got.tgz:246808.got - 2010.06.03 18:47:42.
