data_PCOD9288129
_publ_section_title
;
Structure prediction by ZEFSAII (Michael W. Deem and Ramdas Pophale) SiO2 
 PCOD9288129
Probable space group: C 2/C
;
_chemical_formula_sum "Si O2"
_cell_formula_units_Z 40
_cell_length_a 8.680137
_cell_length_b 10.936789
_cell_length_c 29.551487
_cell_angle_alpha 90.000000
_cell_angle_beta 140.782271
_cell_angle_gamma 90.000000
_cell_volume 1773.771549
_symmetry_space_group_name_H-M "C 2/C"
_symmetry_group_IT_number 15
_symmetry_cell_setting 'monoclinic'
loop_
_space_group_symop_operation_xyz
x,y,z
-x,y,1/2-z
-x,-y,-z
x,-y,1/2+z
1/2+x,1/2+y,z
1/2-x,1/2+y,1/2-z
1/2-x,1/2-y,-z
1/2+x,1/2-y,1/2+z
loop_
_atom_site_type_symbol
_atom_site_label
_atom_site_fract_x
_atom_site_fract_y
_atom_site_fract_z
Si Si1 0.323926 0.843531 0.281237
Si Si2 0.235406 0.244799 0.852175
Si Si3 0.120941 0.995846 0.662491
Si Si4 0.843568 0.119988 0.173744
Si Si5 0.620845 0.263883 0.423008
O O1 0.356260 0.847772 0.342942
O O2 0.310076 0.959201 0.244708
O O3 0.514641 0.746497 0.305297
O O4 0.054286 0.783587 0.214510
O O5 0.292683 0.379000 0.845699
O O6 0.295830 0.235803 0.918907
O O7 0.036600 0.111147 0.614271
O O8 0.883467 0.957563 0.637904
O O9 0.572585 0.153423 0.125594
O O10 0.000000 0.062337 0.250000
O O11 0.750000 0.250000 0.500000
#
# Coordination Sequence:
#
# PCOD9288129 Si02
#       5
#     8   8   8   8   8
#     4   9  19  37  58  93 127 147 196 264 312 351
#     4   9  19  37  60  90 119 156 205 240 307 370
#     4  10  22  38  64  87 126 158 196 261 316 349
#     4  11  21  38  62  95 117 153 214 248 303 371
#     4  11  25  44  59  87 133 166 204 251 300 367
#
# _framework density 22.550818
#
# number of rings (size 3 to 8) (size 9 to 14) (size 15 to 20)
#    0.000    2.000    4.000    0.000    5.600    8.000 
#    0.000    4.000    0.000    0.000    0.000    0.000 
#    0.000    0.000    0.000    0.000    0.000    0.000 
#
# Total GULP energy -111709.557485 kJ/mol
# GULP energy per Si atom -5585.477874 kJ/mol
# Density = 2.249949 g / cm^3
# Si number density = 22.550818 Si / 1000 Ang^3
#
#
#
# Elastic Constant Matrix: (Units=GPa)
#
#
# Indices 1 2 3 4 5 6 
#
# 1 109.8067 24.5437 32.3126 0.0000 -37.6066 0.0000
# 2 24.5437 101.9531 20.3625 0.0000 -10.0249 0.0000
# 3 32.3126 20.3625 82.2382 0.0000 -40.2891 0.0000
# 4 0.0000 0.0000 0.0000 5.8177 0.0000 -3.1435
# 5 -37.6066 -10.0249 -40.2891 0.0000 37.4436 0.0000
# 6 0.0000 0.0000 0.0000 -3.1435 0.0000 43.2045
#
#
#
# Elastic Compliance Matrix: (Units=1/GPa)
#
#
# Indices 1 2 3 4 5 6 
#
# 1 0.014810 -0.002519 0.003725 0.000000 0.018207 0.000000
# 2 -0.002519 0.010747 -0.003174 0.000000 -0.003068 0.000000
# 3 0.003725 -0.003174 0.027278 0.000000 0.032242 0.000000
# 4 0.000000 0.000000 0.000000 0.178923 0.000000 0.013018
# 5 0.018207 -0.003068 0.032242 0.000000 0.078864 0.000000
# 6 0.000000 0.000000 0.000000 0.013018 0.000000 0.024093
#
#
# Mechanical properties :
#
#
# Convention : Reuss Voigt Hill
#
# Bulk Modulus (GPa) = 20.45093 49.82615 35.13854
# Shear Modulus (GPa) = 14.08648 31.74511 22.91580
#
# Velocity S-wave (km/s) = 2.50202 3.75602 3.19122
# Velocity P-wave (km/s) = 4.17556 6.39948 5.40318
#
# Compressibility (1/GPa) = 0.04889754
#
# Stress axis : x y z
#
# Youngs Moduli (GPa) = 67.52411 93.04817 36.65988
#
# Poissons Ratio (x) = 0.23437 -0.13655
# Poissons Ratio (y) = 0.17008 0.11637
# Poissons Ratio (z) = -0.25151 0.29537
#
# Static dielectric constant tensor:
#      x y z
#    x 1.902990 0.000000 -0.054580 
#    y 0.000000 1.894600 0.000000 
#    z -0.054580 0.000000 1.834450 
# 
# From -- ./inp_files/262743.got.cif
#   From: 2010.05.17/outbox.cif.g08.bks.cpg/sg15_132_cif.got.tgz:262743.got - 2010.06.03 18:47:42.
