data_PCOD9288822
_publ_section_title
;
Structure prediction by ZEFSAII (Michael W. Deem and Ramdas Pophale) SiO2 
 PCOD9288822
Probable space group: C 2/C
;
_chemical_formula_sum "Si O2"
_cell_formula_units_Z 60
_cell_length_a 17.944601
_cell_length_b 27.193006
_cell_length_c 11.382350
_cell_angle_alpha 90.000000
_cell_angle_beta 32.307551
_cell_angle_gamma 90.000000
_cell_volume 2968.528400
_symmetry_space_group_name_H-M "C 2/C"
_symmetry_group_IT_number 15
_symmetry_cell_setting 'monoclinic'
loop_
_space_group_symop_operation_xyz
x,y,z
-x,y,1/2-z
-x,-y,-z
x,-y,1/2+z
1/2+x,1/2+y,z
1/2-x,1/2+y,1/2-z
1/2-x,1/2-y,-z
1/2+x,1/2-y,1/2+z
loop_
_atom_site_type_symbol
_atom_site_label
_atom_site_fract_x
_atom_site_fract_y
_atom_site_fract_z
Si Si1 0.607088 0.235501 0.342438
Si Si2 0.500000 0.098501 0.750000
Si Si3 0.662915 0.729284 0.008106
Si Si4 0.124793 0.346108 0.307363
Si Si5 0.366001 0.975622 0.612373
Si Si6 0.647618 0.074851 0.984177
Si Si7 0.656609 0.583686 0.558269
Si Si8 0.864922 0.805826 0.374998
O O1 0.681658 0.237044 0.368609
O O2 0.472148 0.201268 0.533547
O O3 0.601933 0.292417 0.305067
O O4 0.709551 0.211327 0.111822
O O5 0.422136 0.131433 0.755546
O O6 0.591771 0.062345 0.546254
O O7 0.500000 0.729554 0.250000
O O8 0.750000 0.750000 0.000000
O O9 0.720829 0.675177 0.907623
O O10 0.117824 0.385900 0.420792
O O11 0.500000 0.000000 0.500000
O O12 0.302371 0.023699 0.638057
O O13 0.264651 0.946846 0.835416
O O14 0.769432 0.087997 0.913080
O O15 0.500000 0.068085 0.250000
O O16 0.500000 0.562681 0.750000
O O17 0.638719 0.641450 0.555750
O O18 0.000000 0.778459 0.250000
#
# Coordination Sequence:
#
# PCOD9288822 Si02
#       8
#     8   4   8   8   8   8   8   8
#     4  11  22  42  65  96 136 179 230 276 335 390
#     4  12  22  42  68 108 138 176 236 288 342 402
#     4  12  25  45  65  91 135 185 227 277 333 410
#     4  12  25  40  68 104 134 183 234 283 337 411
#     4  12  22  45  74 100 133 182 230 288 346 418
#     4  12  23  43  73 101 134 176 237 285 339 414
#     4  11  25  45  66 104 141 175 224 286 357 411
#     4  10  22  39  65  97 133 175 220 279 333 401
#
# _framework density 20.212035
#
# number of rings (size 3 to 8) (size 9 to 14) (size 15 to 20)
#    0.000    0.533    4.667    4.000    0.000    3.200 
#    4.800    0.667    0.000    0.000    0.000    0.000 
#    0.000    0.000    0.000    0.000    0.000    0.000 
#
# Total GULP energy -167145.216215 kJ/mol
# GULP energy per Si atom -5571.507207 kJ/mol
# Density = 2.016603 g / cm^3
# Si number density = 20.212035 Si / 1000 Ang^3
#
#
#
# Elastic Constant Matrix: (Units=GPa)
#
#
# Indices 1 2 3 4 5 6 
#
# 1 108.4854 12.0264 51.7162 0.0000 2.1861 0.0000
# 2 12.0264 83.6202 52.2278 0.0000 10.6282 0.0000
# 3 51.7162 52.2278 99.5479 -0.0002 -2.3572 0.0003
# 4 0.0000 0.0000 -0.0002 25.8991 0.0001 9.6283
# 5 2.1861 10.6282 -2.3572 0.0001 31.9415 -0.0001
# 6 0.0000 0.0000 0.0003 9.6283 -0.0001 28.6229
#
#
#
# Elastic Compliance Matrix: (Units=1/GPa)
#
#
# Indices 1 2 3 4 5 6 
#
# 1 0.013145 0.004155 -0.009079 0.000000 -0.002952 0.000000
# 2 0.004155 0.020617 -0.013168 0.000000 -0.008116 0.000000
# 3 -0.009079 -0.013168 0.021827 0.000000 0.006613 0.000000
# 4 0.000000 0.000000 0.000000 0.044130 0.000000 -0.014845
# 5 -0.002952 -0.008116 0.006613 0.000000 0.034698 0.000000
# 6 0.000000 0.000000 0.000000 -0.014845 0.000000 0.039931
#
#
# Mechanical properties :
#
#
# Convention : Reuss Voigt Hill
#
# Bulk Modulus (GPa) = 51.52962 58.17713 54.85337
# Shear Modulus (GPa) = 23.04173 29.00491 26.02332
#
# Velocity S-wave (km/s) = 3.38005 3.79229 3.59209
# Velocity P-wave (km/s) = 6.38615 6.92973 6.66349
#
# Compressibility (1/GPa) = 0.01940632
#
# Stress axis : x y z
#
# Youngs Moduli (GPa) = 76.07703 48.50361 45.81526
#
# Poissons Ratio (x) = -0.20154 0.41594
# Poissons Ratio (y) = -0.31611 0.60327
# Poissons Ratio (z) = 0.69067 0.63867
#
# Static dielectric constant tensor:
#      x y z
#    x 1.813120 0.000000 -0.130120 
#    y 0.000000 1.824430 0.000000 
#    z -0.130120 0.000000 1.329940 
# 
# From -- ./inp_files/108396.got.cif
#   From: 2010.05.17/outbox.cif.g08.bks.cpg/sg15_55_cif.got.tgz:108396.got - 2010.06.03 18:47:42.
