data_PCOD9288248
_publ_section_title
;
Structure prediction by ZEFSAII (Michael W. Deem and Ramdas Pophale) SiO2 
 PCOD9288248
Probable space group: C 2/C
;
_chemical_formula_sum "Si O2"
_cell_formula_units_Z 48
_cell_length_a 18.393151
_cell_length_b 8.113529
_cell_length_c 19.050059
_cell_angle_alpha 90.000000
_cell_angle_beta 51.926053
_cell_angle_gamma 90.000000
_cell_volume 2237.978439
_symmetry_space_group_name_H-M "C 2/C"
_symmetry_group_IT_number 15
_symmetry_cell_setting 'monoclinic'
loop_
_space_group_symop_operation_xyz
x,y,z
-x,y,1/2-z
-x,-y,-z
x,-y,1/2+z
1/2+x,1/2+y,z
1/2-x,1/2+y,1/2-z
1/2-x,1/2-y,-z
1/2+x,1/2-y,1/2+z
loop_
_atom_site_type_symbol
_atom_site_label
_atom_site_fract_x
_atom_site_fract_y
_atom_site_fract_z
Si Si1 0.136942 0.520314 0.030382
Si Si2 0.432108 0.476733 0.403583
Si Si3 0.333626 0.988810 0.327121
Si Si4 0.500000 0.264195 0.750000
Si Si5 0.147684 0.202430 0.940113
Si Si6 0.750000 0.750000 0.500000
Si Si7 0.058768 0.669738 0.353189
O O1 0.172825 0.568564 0.089654
O O2 0.191045 0.671709 0.964641
O O3 0.027237 0.540787 0.091940
O O4 0.166448 0.341819 0.988326
O O5 0.466292 0.619191 0.331894
O O6 0.418057 0.566228 0.486490
O O7 0.336341 0.392353 0.437618
O O8 0.509188 0.336624 0.359362
O O9 0.414796 0.855368 0.284431
O O10 0.240497 0.893879 0.365865
O O11 0.367457 0.113986 0.248358
O O12 0.104335 0.299584 0.901069
#
# Coordination Sequence:
#
# PCOD9288248 Si02
#       7
#     8   8   8   4   8   4   8
#     4  11  21  44  70  96 131 181 233 276 338 408
#     4  11  24  41  68 100 133 175 233 281 345 404
#     4  12  23  44  67  98 137 179 231 285 338 413
#     4  12  24  38  70 102 130 174 234 290 328 406
#     4  12  24  45  69 100 140 180 226 287 348 415
#     4  10  22  38  66 102 122 172 228 288 318 402
#     4  11  26  42  67  99 142 179 221 288 355 407
#
# _framework density 21.447928999999998
#
# number of rings (size 3 to 8) (size 9 to 14) (size 15 to 20)
#    0.000    0.667    5.000    2.500    4.667    1.333 
#    3.000    1.667    0.000    0.000    0.000    0.000 
#    0.000    0.000    0.000    0.000    0.000    0.000 
#
# Total GULP energy -133790.998516 kJ/mol
# GULP energy per Si atom -5574.624938 kJ/mol
# Density = 2.139911 g / cm^3
# Si number density = 21.447929 Si / 1000 Ang^3
#
#
#
# Elastic Constant Matrix: (Units=GPa)
#
#
# Indices 1 2 3 4 5 6 
#
# 1 69.4250 11.6688 48.5380 0.0000 -3.9958 0.0001
# 2 11.6688 105.4717 56.9405 0.0001 -4.8203 0.0001
# 3 48.5380 56.9405 129.3165 0.0000 -9.3303 0.0000
# 4 0.0000 0.0001 0.0000 31.1986 0.0000 -3.1105
# 5 -3.9958 -4.8203 -9.3303 0.0000 26.1218 0.0000
# 6 0.0001 0.0001 0.0000 -3.1105 0.0000 27.4499
#
#
#
# Elastic Compliance Matrix: (Units=1/GPa)
#
#
# Indices 1 2 3 4 5 6 
#
# 1 0.019991 0.002417 -0.008535 0.000000 0.000455 0.000000
# 2 0.002417 0.012733 -0.006485 0.000000 0.000403 0.000000
# 3 -0.008535 -0.006485 0.013971 0.000000 0.002488 0.000000
# 4 0.000000 0.000000 0.000000 0.032419 0.000000 0.003674
# 5 0.000455 0.000403 0.002488 0.000000 0.039315 0.000000
# 6 0.000000 0.000000 0.000000 0.003674 0.000000 0.036846
#
#
# Mechanical properties :
#
#
# Convention : Reuss Voigt Hill
#
# Bulk Modulus (GPa) = 46.53312 59.83423 53.18368
# Shear Modulus (GPa) = 26.64613 29.42511 28.03562
#
# Velocity S-wave (km/s) = 3.52854 3.70798 3.61937
# Velocity P-wave (km/s) = 6.19223 6.80369 6.50515
#
# Compressibility (1/GPa) = 0.02149007
#
# Stress axis : x y z
#
# Youngs Moduli (GPa) = 50.02232 78.53548 71.57543
#
# Poissons Ratio (x) = -0.18980 0.61088
# Poissons Ratio (y) = -0.12089 0.46414
# Poissons Ratio (z) = 0.42693 0.50928
#
# Static dielectric constant tensor:
#      x y z
#    x 1.867490 0.000000 -0.352010 
#    y 0.000000 3.124100 0.000000 
#    z -0.352010 0.000000 3.651960 
# 
# From -- ./inp_files/247317.got.cif
#   From: 2010.05.17/outbox.cif.g08.bks.cpg/sg15_124_cif.got.tgz:247317.got - 2010.06.03 18:47:42.
