data_PCOD9288532
_publ_section_title
;
Structure prediction by ZEFSAII (Michael W. Deem and Ramdas Pophale) SiO2 
 PCOD9288532
Probable space group: C 2/C
;
_chemical_formula_sum "Si O2"
_cell_formula_units_Z 56
_cell_length_a 11.934973
_cell_length_b 8.226644
_cell_length_c 23.520503
_cell_angle_alpha 90.000000
_cell_angle_beta 94.943779
_cell_angle_gamma 90.000000
_cell_volume 2300.763868
_symmetry_space_group_name_H-M "C 2/C"
_symmetry_group_IT_number 15
_symmetry_cell_setting 'monoclinic'
loop_
_space_group_symop_operation_xyz
x,y,z
-x,y,1/2-z
-x,-y,-z
x,-y,1/2+z
1/2+x,1/2+y,z
1/2-x,1/2+y,1/2-z
1/2-x,1/2-y,-z
1/2+x,1/2-y,1/2+z
loop_
_atom_site_type_symbol
_atom_site_label
_atom_site_fract_x
_atom_site_fract_y
_atom_site_fract_z
Si Si1 0.639553 0.542694 0.052327
Si Si2 0.403129 0.652288 0.059905
Si Si3 0.115064 0.501427 0.427212
Si Si4 0.893727 0.796733 0.204984
Si Si5 0.447681 0.225836 0.390719
Si Si6 0.771530 0.110654 0.172121
Si Si7 0.890912 0.431213 0.205723
O O1 0.539181 0.657477 0.068744
O O2 0.766852 0.596149 0.067329
O O3 0.619268 0.376493 0.086623
O O4 0.622452 0.488908 0.986460
O O5 0.364982 0.832418 0.039658
O O6 0.340713 0.613684 0.115581
O O7 0.085475 0.445577 0.361233
O O8 0.011907 0.615175 0.439389
O O9 0.806575 0.943035 0.202777
O O10 0.848636 0.615229 0.216465
O O11 0.000000 0.831118 0.250000
O O12 0.953053 0.787991 0.145782
O O13 0.358347 0.125204 0.350099
O O14 0.811424 0.274446 0.205743
O O15 0.000000 0.406322 0.250000
#
# Coordination Sequence:
#
# PCOD9288532 Si02
#       7
#     8   8   8   8   8   8   8
#     4  11  21  42  63  89 131 168 207 268 319 376
#     4  10  22  39  64  93 123 171 213 254 330 380
#     4  10  22  39  61  88 127 163 210 266 313 379
#     4  10  22  43  62  93 131 162 218 265 318 393
#     4  11  23  40  63  92 125 166 216 260 318 388
#     4  11  21  41  66  95 129 169 213 267 322 384
#     4   9  19  38  64  87 125 163 208 265 314 375
#
# _framework density 24.339742999999999
#
# number of rings (size 3 to 8) (size 9 to 14) (size 15 to 20)
#    0.000    1.714    4.286    0.857    0.000    2.857 
#    7.714    1.429    0.000    0.000    0.000    0.000 
#    0.000    0.000    0.000    0.000    0.000    0.000 
#
# Total GULP energy -156591.522810 kJ/mol
# GULP energy per Si atom -5592.554386 kJ/mol
# Density = 2.428434 g / cm^3
# Si number density = 24.339743 Si / 1000 Ang^3
#
#
#
# Elastic Constant Matrix: (Units=GPa)
#
#
# Indices 1 2 3 4 5 6 
#
# 1 130.6284 60.7916 28.7764 0.0000 23.4013 0.0000
# 2 60.7916 115.5683 7.4526 0.0000 11.4397 0.0000
# 3 28.7764 7.4526 67.4859 0.0000 -6.1344 0.0000
# 4 0.0000 0.0000 0.0000 29.5173 0.0000 5.9159
# 5 23.4013 11.4397 -6.1344 0.0000 45.3107 0.0000
# 6 0.0000 0.0000 0.0000 5.9159 0.0000 41.8148
#
#
#
# Elastic Compliance Matrix: (Units=1/GPa)
#
#
# Indices 1 2 3 4 5 6 
#
# 1 0.012455 -0.005651 -0.005206 0.000000 -0.005711 0.000000
# 2 -0.005651 0.011535 0.001150 0.000000 0.000162 0.000000
# 3 -0.005206 0.001150 0.017342 0.000000 0.004746 0.000000
# 4 0.000000 0.000000 0.000000 0.034867 0.000000 -0.004933
# 5 -0.005711 0.000162 0.004746 0.000000 0.025621 0.000000
# 6 0.000000 0.000000 0.000000 -0.004933 0.000000 0.024613
#
#
# Mechanical properties :
#
#
# Convention : Reuss Voigt Hill
#
# Bulk Modulus (GPa) = 45.62113 56.41374 51.01744
# Shear Modulus (GPa) = 32.64740 37.77268 35.21004
#
# Velocity S-wave (km/s) = 3.66638 3.94368 3.80755
# Velocity P-wave (km/s) = 6.05865 6.63059 6.35106
#
# Compressibility (1/GPa) = 0.02191967
#
# Stress axis : x y z
#
# Youngs Moduli (GPa) = 80.29059 86.69266 57.66307
#
# Poissons Ratio (x) = 0.48986 0.30019
# Poissons Ratio (y) = 0.45368 -0.06633
# Poissons Ratio (z) = 0.41798 -0.09972
#
# Static dielectric constant tensor:
#      x y z
#    x 1.904260 0.000000 -0.036410 
#    y 0.000000 1.970560 0.000000 
#    z -0.036410 0.000000 1.997010 
# 
# From -- ./inp_files/310053.got.cif
#   From: 2010.05.17/outbox.cif.g08.bks.cpg/sg15_156_cif.got.tgz:310053.got - 2010.06.03 18:47:42.
