data_PCOD9288409
_publ_section_title
;
Structure prediction by ZEFSAII (Michael W. Deem and Ramdas Pophale) SiO2 
 PCOD9288409
Probable space group: C 2/C
;
_chemical_formula_sum "Si O2"
_cell_formula_units_Z 40
_cell_length_a 5.017164
_cell_length_b 23.451482
_cell_length_c 16.581790
_cell_angle_alpha 90.000000
_cell_angle_beta 106.738211
_cell_angle_gamma 90.000000
_cell_volume 1868.349128
_symmetry_space_group_name_H-M "C 2/C"
_symmetry_group_IT_number 15
_symmetry_cell_setting 'monoclinic'
loop_
_space_group_symop_operation_xyz
x,y,z
-x,y,1/2-z
-x,-y,-z
x,-y,1/2+z
1/2+x,1/2+y,z
1/2-x,1/2+y,1/2-z
1/2-x,1/2-y,-z
1/2+x,1/2-y,1/2+z
loop_
_atom_site_type_symbol
_atom_site_label
_atom_site_fract_x
_atom_site_fract_y
_atom_site_fract_z
Si Si1 0.139814 0.390943 0.937534
Si Si2 0.099549 0.031188 0.925894
Si Si3 0.563392 0.417666 0.846571
Si Si4 0.978600 0.788900 0.475494
Si Si5 0.691624 0.634238 0.687704
O O1 0.272098 0.418889 0.869328
O O2 0.818497 0.376988 0.896199
O O3 0.151789 0.429487 0.019051
O O4 0.378680 0.344043 0.971423
O O5 0.886338 0.075455 0.866122
O O6 0.179557 0.981697 0.871172
O O7 0.000000 0.000000 0.000000
O O8 0.500000 0.404801 0.750000
O O9 0.750000 0.750000 0.500000
O O10 0.862974 0.814198 0.380745
O O11 0.250000 0.750000 0.500000
O O12 0.500000 0.639730 0.750000
O O13 0.000000 0.633527 0.750000
#
# Coordination Sequence:
#
# PCOD9288409 Si02
#       5
#     8   8   8   8   8
#     4  10  22  39  58  85 118 156 202 249 301 370
#     4   9  21  37  61  89 125 170 208 246 308 389
#     4  11  21  36  57  87 123 158 195 241 298 365
#     4  11  23  44  69  89 118 165 215 264 329 395
#     4  11  24  42  65  98 132 165 218 286 332 377
#
# _framework density 21.409276999999999
#
# number of rings (size 3 to 8) (size 9 to 14) (size 15 to 20)
#    0.000    1.600    0.000    4.200    0.000   14.400 
#    0.000   10.000    0.000    0.000    0.000    0.000 
#    0.000    0.000    0.000    0.000    0.000    0.000 
#
# Total GULP energy -111434.686705 kJ/mol
# GULP energy per Si atom -5571.734335 kJ/mol
# Density = 2.136055 g / cm^3
# Si number density = 21.409277 Si / 1000 Ang^3
#
#
#
# Elastic Constant Matrix: (Units=GPa)
#
#
# Indices 1 2 3 4 5 6 
#
# 1 153.0677 24.9226 59.5900 0.0000 14.2230 0.0000
# 2 24.9226 61.9769 39.3839 0.0000 -0.4472 0.0000
# 3 59.5900 39.3839 127.6369 0.0000 26.4595 0.0000
# 4 0.0000 0.0000 0.0000 -751.8410 0.0000 -0.5489
# 5 14.2230 -0.4472 26.4595 0.0000 37.4677 0.0000
# 6 0.0000 0.0000 0.0000 -0.5489 0.0000 25.1712
#
#
#
# Elastic Compliance Matrix: (Units=1/GPa)
#
#
# Indices 1 2 3 4 5 6 
#
# 1 0.008058 -0.001194 -0.003229 0.000000 -0.000793 0.000000
# 2 -0.001194 0.021227 -0.007192 0.000000 0.005785 0.000000
# 3 -0.003229 -0.007192 0.013268 0.000000 -0.008229 0.000000
# 4 0.000000 0.000000 0.000000 -0.001330 0.000000 -0.000029
# 5 -0.000793 0.005785 -0.008229 0.000000 0.032871 0.000000
# 6 0.000000 0.000000 0.000000 -0.000029 0.000000 0.039727
#
#
# Mechanical properties :
#
#
# Convention : Reuss Voigt Hill
#
# Bulk Modulus (GPa) = 51.75316 65.60830 58.68073
# Shear Modulus (GPa) = 34.84502 -123.25476 -44.20487
#
# Velocity S-wave (km/s) = 4.03869 -7.59577 -4.54888
# Velocity P-wave (km/s) = 6.78039 6.79826 0.34826
#
# Compressibility (1/GPa) = 0.01932249
#
# Stress axis : x y z
#
# Youngs Moduli (GPa) = 124.09450 47.10978 75.37186
#
# Poissons Ratio (x) = 0.05625 0.24341
# Poissons Ratio (y) = 0.14817 0.54205
# Poissons Ratio (z) = 0.40076 0.33880
#
# Static dielectric constant tensor:
#      x y z
#    x 3.209320 0.000000 -0.346500 
#    y 0.000000 1.552780 0.000000 
#    z -0.346500 0.000000 1.808740 
# 
# From -- ./inp_files/129542.got.cif
#   From: 2010.05.17/outbox.cif.g08.bks.cpg/sg15_65_cif.got.tgz:129542.got - 2010.06.03 18:47:42.
