data_PCOD9288913
_publ_section_title
;
Structure prediction by ZEFSAII (Michael W. Deem and Ramdas Pophale) SiO2 
 PCOD9288913
Probable space group: C 2/C
;
_chemical_formula_sum "Si O2"
_cell_formula_units_Z 52
_cell_length_a 14.460803
_cell_length_b 6.961016
_cell_length_c 24.366186
_cell_angle_alpha 90.000000
_cell_angle_beta 67.142698
_cell_angle_gamma 90.000000
_cell_volume 2260.144554
_symmetry_space_group_name_H-M "C 2/C"
_symmetry_group_IT_number 15
_symmetry_cell_setting 'monoclinic'
loop_
_space_group_symop_operation_xyz
x,y,z
-x,y,1/2-z
-x,-y,-z
x,-y,1/2+z
1/2+x,1/2+y,z
1/2-x,1/2+y,1/2-z
1/2-x,1/2-y,-z
1/2+x,1/2-y,1/2+z
loop_
_atom_site_type_symbol
_atom_site_label
_atom_site_fract_x
_atom_site_fract_y
_atom_site_fract_z
Si Si1 0.314909 0.061209 0.417378
Si Si2 0.376020 0.038333 0.193103
Si Si3 0.897160 0.848391 0.865952
Si Si4 0.568478 0.421583 0.376328
Si Si5 0.627798 0.593847 0.529183
Si Si6 0.500000 0.789021 0.250000
Si Si7 0.250488 0.806992 0.822392
O O1 0.358027 0.184162 0.457876
O O2 0.198955 0.036046 0.463265
O O3 0.321471 0.183448 0.359330
O O4 0.369884 0.861528 0.394972
O O5 0.454947 0.922001 0.212305
O O6 0.312478 0.887429 0.171473
O O7 0.424976 0.203110 0.144802
O O8 0.306947 0.147988 0.253225
O O9 0.903998 0.823806 0.798443
O O10 0.836922 0.979744 0.923442
O O11 0.007244 0.943305 0.848201
O O12 0.491619 0.438448 0.444796
O O13 0.676718 0.514874 0.352220
#
# Coordination Sequence:
#
# PCOD9288913 Si02
#       7
#     8   8   8   8   8   4   8
#     4  11  22  43  68  96 124 169 224 270 326 380
#     4  12  24  43  58  99 135 168 215 271 329 400
#     4  10  22  39  67  94 122 170 214 268 317 388
#     4  10  24  41  61  91 130 170 212 263 331 387
#     4   9  23  42  67  94 126 169 222 270 319 395
#     4  12  22  40  70  92 130 170 224 262 330 400
#     4  12  25  39  64  94 134 169 206 275 332 392
#
# _framework density 23.007379
#
# number of rings (size 3 to 8) (size 9 to 14) (size 15 to 20)
#    0.923    0.308    4.615    1.385    0.000    4.923 
#    0.000    0.769    0.000    0.000    0.000    0.000 
#    0.000    0.000    0.000    0.000    0.000    0.000 
#
# Total GULP energy -144821.025919 kJ/mol
# GULP energy per Si atom -5570.039458 kJ/mol
# Density = 2.295501 g / cm^3
# Si number density = 23.007379 Si / 1000 Ang^3
#
#
#
# Elastic Constant Matrix: (Units=GPa)
#
#
# Indices 1 2 3 4 5 6 
#
# 1 30.2985 12.7600 -4.4299 0.0003 -7.2380 0.0001
# 2 12.7600 86.7384 48.0063 0.0003 10.5404 0.0001
# 3 -4.4299 48.0063 116.8906 0.0002 -27.0265 0.0000
# 4 0.0003 0.0003 0.0002 -104.3333 0.0002 -33.2325
# 5 -7.2380 10.5404 -27.0265 0.0002 36.7860 0.0000
# 6 0.0001 0.0001 0.0000 -33.2325 0.0000 26.2262
#
#
#
# Elastic Compliance Matrix: (Units=1/GPa)
#
#
# Indices 1 2 3 4 5 6 
#
# 1 0.050463 -0.019950 0.016532 0.000000 0.027791 0.000000
# 2 -0.019950 0.027234 -0.017651 0.000000 -0.024698 0.000000
# 3 0.016532 -0.017651 0.022108 0.000000 0.024553 0.000000
# 4 0.000000 0.000000 0.000000 -0.006829 0.000000 -0.008653
# 5 0.027791 -0.024698 0.024553 0.000000 0.057768 0.000000
# 6 0.000000 0.000000 0.000000 -0.008653 0.000000 0.027165
#
#
# Mechanical properties :
#
#
# Convention : Reuss Voigt Hill
#
# Bulk Modulus (GPa) = 17.34155 38.51113 27.92634
# Shear Modulus (GPa) = 20.89667 3.57519 12.23593
#
# Velocity S-wave (km/s) = 3.01700 1.24792 2.30864
# Velocity P-wave (km/s) = 4.43736 4.34181 4.38985
#
# Compressibility (1/GPa) = 0.05766498
#
# Stress axis : x y z
#
# Youngs Moduli (GPa) = 19.81645 36.71820 45.23279
#
# Poissons Ratio (x) = 0.73254 -0.74777
# Poissons Ratio (y) = 0.39535 0.79843
# Poissons Ratio (z) = -0.32760 0.64813
#
# Static dielectric constant tensor:
#      x y z
#    x 1.976550 0.000000 0.003570 
#    y 0.000000 1.860740 0.000000 
#    z 0.003570 0.000000 1.867180 
# 
# From -- ./inp_files/278886.got.cif
#   From: 2010.05.17/outbox.cif.g08.bks.cpg/sg15_140_cif.got.tgz:278886.got - 2010.06.03 18:47:42.
