data_PCOD9288580
_publ_section_title
;
Structure prediction by ZEFSAII (Michael W. Deem and Ramdas Pophale) SiO2 
 PCOD9288580
Probable space group: C 2/C
;
_chemical_formula_sum "Si O2"
_cell_formula_units_Z 48
_cell_length_a 16.878448
_cell_length_b 28.457562
_cell_length_c 16.360693
_cell_angle_alpha 90.000000
_cell_angle_beta 162.407514
_cell_angle_gamma 90.000000
_cell_volume 2375.148965
_symmetry_space_group_name_H-M "C 2/C"
_symmetry_group_IT_number 15
_symmetry_cell_setting 'monoclinic'
loop_
_space_group_symop_operation_xyz
x,y,z
-x,y,1/2-z
-x,-y,-z
x,-y,1/2+z
1/2+x,1/2+y,z
1/2-x,1/2+y,1/2-z
1/2-x,1/2-y,-z
1/2+x,1/2-y,1/2+z
loop_
_atom_site_type_symbol
_atom_site_label
_atom_site_fract_x
_atom_site_fract_y
_atom_site_fract_z
Si Si1 0.698264 0.840898 0.516821
Si Si2 0.497345 0.716469 0.423757
Si Si3 0.189694 0.633380 0.732253
Si Si4 0.278018 0.527928 0.475904
Si Si5 0.526527 0.429579 0.667336
Si Si6 0.110217 0.551637 0.131869
O O1 0.500000 0.826862 0.250000
O O2 0.946021 0.807773 0.783802
O O3 0.549208 0.840225 0.458324
O O4 0.792403 0.895108 0.600611
O O5 0.745592 0.750208 0.682771
O O6 0.581390 0.670774 0.561182
O O7 0.094682 0.594979 0.574019
O O8 0.287671 0.601753 0.903507
O O9 0.410478 0.477679 0.585674
O O10 0.227019 0.550004 0.337180
O O11 0.000000 0.523155 0.250000
O O12 0.500000 0.552510 0.750000
O O13 0.684659 0.439125 0.739009
O O14 0.000000 0.500000 0.000000
#
# Coordination Sequence:
#
# PCOD9288580 Si02
#       6
#     8   8   8   8   8   8
#     4  10  23  38  57  87 117 164 210 264 312 366
#     4  11  22  42  60  85 120 156 206 267 318 369
#     4  10  22  39  62  87 113 165 214 254 303 374
#     4  12  27  39  59  94 127 165 211 269 313 362
#     4  10  23  37  61  82 121 170 219 257 299 368
#     4  11  22  42  63  87 125 175 216 255 310 378
#
# _framework density 20.209258999999999
#
# number of rings (size 3 to 8) (size 9 to 14) (size 15 to 20)
#    0.000    1.333    3.333    1.500    7.000    2.667 
#    0.000    0.000    0.000    0.000    0.000    0.000 
#    0.000    4.000    0.000    0.000    0.000    0.000 
#
# Total GULP energy -133751.612968 kJ/mol
# GULP energy per Si atom -5572.983874 kJ/mol
# Density = 2.016326 g / cm^3
# Si number density = 20.209259 Si / 1000 Ang^3
#
#
#
# Elastic Constant Matrix: (Units=GPa)
#
#
# Indices 1 2 3 4 5 6 
#
# 1 76.5984 24.0901 46.7100 0.0004 -9.9058 -0.0007
# 2 24.0901 102.1881 57.9304 0.0016 -25.2762 0.0001
# 3 46.7100 57.9304 154.3989 0.0072 -18.0078 -0.0037
# 4 0.0004 0.0016 0.0072 43.4098 0.0035 -0.2202
# 5 -9.9058 -25.2762 -18.0078 0.0035 41.6693 -0.0019
# 6 -0.0007 0.0001 -0.0037 -0.2202 -0.0019 3.2493
#
#
#
# Elastic Compliance Matrix: (Units=1/GPa)
#
#
# Indices 1 2 3 4 5 6 
#
# 1 0.016211 -0.001011 -0.004367 0.000001 0.001353 -0.000001
# 2 -0.001011 0.013994 -0.004194 0.000000 0.006436 -0.000002
# 3 -0.004367 -0.004194 0.009429 -0.000001 0.000493 0.000010
# 4 0.000001 0.000000 -0.000001 0.023044 -0.000003 0.001561
# 5 0.001353 0.006436 0.000493 -0.000003 0.028437 0.000017
# 6 -0.000001 -0.000002 0.000010 0.001561 0.000017 0.307861
#
#
# Mechanical properties :
#
#
# Convention : Reuss Voigt Hill
#
# Bulk Modulus (GPa) = 48.80613 65.62738 57.21676
# Shear Modulus (GPa) = 11.76609 31.29600 21.53104
#
# Velocity S-wave (km/s) = 2.41553 3.93949 3.26760
# Velocity P-wave (km/s) = 5.65531 7.29638 6.52762
#
# Compressibility (1/GPa) = 0.02048923
#
# Stress axis : x y z
#
# Youngs Moduli (GPa) = 61.68569 71.46116 106.05685
#
# Poissons Ratio (x) = 0.07227 0.46316
# Poissons Ratio (y) = 0.06238 0.44479
# Poissons Ratio (z) = 0.26939 0.29970
#
# Static dielectric constant tensor:
#      x y z
#    x 1.806320 -0.000010 0.093640 
#    y -0.000010 1.855420 -0.000020 
#    z 0.093640 -0.000020 1.946210 
# 
# From -- ./inp_files/157711.got.cif
#   From: 2010.05.17/outbox.cif.g08.bks.cpg/sg15_79_cif.got.tgz:157711.got - 2010.06.03 18:47:42.
