data_PCOD9288766
_publ_section_title
;
Structure prediction by ZEFSAII (Michael W. Deem and Ramdas Pophale) SiO2 
 PCOD9288766
Probable space group: C 2/C
;
_chemical_formula_sum "Si O2"
_cell_formula_units_Z 40
_cell_length_a 19.271114
_cell_length_b 12.454158
_cell_length_c 16.964321
_cell_angle_alpha 90.000000
_cell_angle_beta 26.642861
_cell_angle_gamma 90.000000
_cell_volume 1825.787581
_symmetry_space_group_name_H-M "C 2/C"
_symmetry_group_IT_number 15
_symmetry_cell_setting 'monoclinic'
loop_
_space_group_symop_operation_xyz
x,y,z
-x,y,1/2-z
-x,-y,-z
x,-y,1/2+z
1/2+x,1/2+y,z
1/2-x,1/2+y,1/2-z
1/2-x,1/2-y,-z
1/2+x,1/2-y,1/2+z
loop_
_atom_site_type_symbol
_atom_site_label
_atom_site_fract_x
_atom_site_fract_y
_atom_site_fract_z
Si Si1 0.063007 0.631832 0.853355
Si Si2 0.822292 0.639985 0.457421
Si Si3 0.770677 0.088061 0.504682
Si Si4 0.779733 0.468859 0.163620
Si Si5 0.934007 0.132892 0.187328
O O1 0.117033 0.615689 0.708666
O O2 0.193571 0.586194 0.779749
O O3 0.045761 0.758665 0.882037
O O4 0.911285 0.561612 0.023304
O O5 0.750000 0.750000 0.500000
O O6 0.735049 0.538236 0.508260
O O7 0.808891 0.617691 0.564627
O O8 0.000000 0.635619 0.250000
O O9 0.800041 0.145492 0.391204
O O10 0.913704 0.112376 0.416395
O O11 0.621398 0.531627 0.307321
#
# Coordination Sequence:
#
# PCOD9288766 Si02
#       5
#     8   8   8   8   8
#     4  11  21  41  63  91 130 168 200 261 320 361
#     4  11  24  43  65  88 124 167 208 257 312 374
#     4  10  22  40  65  92 124 160 213 262 305 371
#     4  10  24  41  62  95 131 161 213 257 312 381
#     4  10  22  39  64  96 123 163 213 254 311 376
#
# _framework density 21.908353000000002
#
# number of rings (size 3 to 8) (size 9 to 14) (size 15 to 20)
#    0.000    1.600    2.000    1.800    5.600    7.200 
#    3.600    0.000    0.000    0.000    0.000    0.000 
#    0.000    0.000    0.000    0.000    0.000    0.000 
#
# Total GULP energy -111849.310943 kJ/mol
# GULP energy per Si atom -5592.465547 kJ/mol
# Density = 2.185849 g / cm^3
# Si number density = 21.908353 Si / 1000 Ang^3
#
#
#
# Elastic Constant Matrix: (Units=GPa)
#
#
# Indices 1 2 3 4 5 6 
#
# 1 107.0166 38.7649 6.4157 0.0001 1.0958 -0.0001
# 2 38.7649 127.4215 10.4313 0.0003 7.9031 -0.0001
# 3 6.4157 10.4313 56.5869 0.0004 15.9410 -0.0002
# 4 0.0001 0.0003 0.0004 13.0777 -0.0003 -11.7300
# 5 1.0958 7.9031 15.9410 -0.0003 25.2188 0.0001
# 6 -0.0001 -0.0001 -0.0002 -11.7300 0.0001 28.8752
#
#
#
# Elastic Compliance Matrix: (Units=1/GPa)
#
#
# Indices 1 2 3 4 5 6 
#
# 1 0.010549 -0.003204 -0.000924 0.000000 0.001129 0.000000
# 2 -0.003204 0.009017 -0.000660 0.000000 -0.002270 0.000000
# 3 -0.000924 -0.000660 0.021691 -0.000001 -0.013464 0.000000
# 4 0.000000 0.000000 -0.000001 0.120299 0.000002 0.048869
# 5 0.001129 -0.002270 -0.013464 0.000002 0.048826 0.000001
# 6 0.000000 0.000000 0.000000 0.048869 0.000001 0.054484
#
#
# Mechanical properties :
#
#
# Convention : Reuss Voigt Hill
#
# Bulk Modulus (GPa) = 31.56213 44.69432 38.12823
# Shear Modulus (GPa) = 17.54376 29.12854 23.33615
#
# Velocity S-wave (km/s) = 2.83287 3.65027 3.26724
# Velocity P-wave (km/s) = 5.01378 6.18149 5.62800
#
# Compressibility (1/GPa) = 0.03168354
#
# Stress axis : x y z
#
# Youngs Moduli (GPa) = 94.79937 110.89721 46.10148
#
# Poissons Ratio (x) = 0.35527 0.04258
# Poissons Ratio (y) = 0.30370 0.03041
# Poissons Ratio (z) = 0.08756 0.07315
#
# Static dielectric constant tensor:
#      x y z
#    x 1.780230 0.000000 0.005400 
#    y 0.000000 1.787630 0.000000 
#    z 0.005400 0.000000 1.838100 
# 
# From -- ./inp_files/54058.got.cif
#   From: 2010.05.17/outbox.cif.g08.bks.cpg/sg15_28_cif.got.tgz:54058.got - 2010.06.03 18:47:42.
