data_PCOD9288318
_publ_section_title
;
Structure prediction by ZEFSAII (Michael W. Deem and Ramdas Pophale) SiO2 
 PCOD9288318
Probable space group: C 2/C
;
_chemical_formula_sum "Si O2"
_cell_formula_units_Z 52
_cell_length_a 23.998149
_cell_length_b 11.149543
_cell_length_c 17.596726
_cell_angle_alpha 90.000000
_cell_angle_beta 145.090855
_cell_angle_gamma 90.000000
_cell_volume 2694.466583
_symmetry_space_group_name_H-M "C 2/C"
_symmetry_group_IT_number 15
_symmetry_cell_setting 'monoclinic'
loop_
_space_group_symop_operation_xyz
x,y,z
-x,y,1/2-z
-x,-y,-z
x,-y,1/2+z
1/2+x,1/2+y,z
1/2-x,1/2+y,1/2-z
1/2-x,1/2-y,-z
1/2+x,1/2-y,1/2+z
loop_
_atom_site_type_symbol
_atom_site_label
_atom_site_fract_x
_atom_site_fract_y
_atom_site_fract_z
Si Si1 0.255686 0.086188 0.471003
Si Si2 0.147356 0.936317 0.997410
Si Si3 0.545442 0.975971 0.226065
Si Si4 0.869562 0.682860 0.466676
Si Si5 0.683386 0.319478 0.366277
Si Si6 0.000000 0.895208 0.250000
Si Si7 0.672845 0.106197 0.248978
O O1 0.178158 0.119174 0.449108
O O2 0.356498 0.081832 0.630590
O O3 0.278003 0.159067 0.420354
O O4 0.224234 0.953675 0.408465
O O5 0.120173 0.826753 0.021788
O O6 0.059649 0.023099 0.876268
O O7 0.235774 0.019018 0.128407
O O8 0.500000 0.040280 0.250000
O O9 0.582252 0.056511 0.197545
O O10 0.465855 0.880085 0.109075
O O11 0.849197 0.619375 0.364015
O O12 0.750000 0.250000 0.500000
O O13 0.577354 0.323912 0.285952
O O14 0.690063 0.240997 0.298481
#
# Coordination Sequence:
#
# PCOD9288318 Si02
#       7
#     8   8   8   8   8   4   8
#     4   9  20  39  63  88 116 161 210 243 302 369
#     4  10  22  42  61  90 118 162 208 248 303 372
#     4   9  19  37  60  91 115 158 209 246 293 368
#     4  11  23  37  64  88 130 159 194 263 312 364
#     4  11  20  41  64  92 121 161 207 258 300 364
#     4  10  22  38  68  90 118 160 216 252 292 366
#     4  11  23  40  60  94 127 156 202 255 317 366
#
# _framework density 19.29881
#
# number of rings (size 3 to 8) (size 9 to 14) (size 15 to 20)
#    0.000    1.846    4.615    0.923    6.462    0.000 
#    2.769    3.846    0.000    0.000    0.000    0.000 
#    0.000    0.000    0.000    0.000    0.000    0.000 
#
# Total GULP energy -144907.407314 kJ/mol
# GULP energy per Si atom -5573.361820 kJ/mol
# Density = 1.925488 g / cm^3
# Si number density = 19.298810 Si / 1000 Ang^3
#
#
#
# Elastic Constant Matrix: (Units=GPa)
#
#
# Indices 1 2 3 4 5 6 
#
# 1 83.4427 30.5730 42.0009 0.0000 -10.0787 0.0000
# 2 30.5730 94.3388 23.6866 0.0000 0.0858 0.0000
# 3 42.0009 23.6866 74.5537 0.0000 8.0875 0.0000
# 4 0.0000 0.0000 0.0000 15.7823 0.0000 -8.4396
# 5 -10.0787 0.0858 8.0875 0.0000 28.4895 0.0000
# 6 0.0000 0.0000 0.0000 -8.4396 0.0000 25.8220
#
#
#
# Elastic Compliance Matrix: (Units=1/GPa)
#
#
# Indices 1 2 3 4 5 6 
#
# 1 0.020367 -0.003743 -0.011419 0.000000 0.010458 0.000000
# 2 -0.003743 0.012236 -0.001683 0.000000 -0.000883 0.000000
# 3 -0.011419 -0.001683 0.021480 0.000000 -0.010132 0.000000
# 4 0.000000 0.000000 0.000000 0.076782 0.000000 0.025095
# 5 0.010458 -0.000883 -0.010132 0.000000 0.041679 0.000000
# 6 0.000000 0.000000 0.000000 0.025095 0.000000 0.046929
#
#
# Mechanical properties :
#
#
# Convention : Reuss Voigt Hill
#
# Bulk Modulus (GPa) = 49.03685 49.42849 49.23267
# Shear Modulus (GPa) = 19.23365 24.42375 21.82870
#
# Velocity S-wave (km/s) = 3.16036 3.56133 3.36682
# Velocity P-wave (km/s) = 6.22749 6.52522 6.37809
#
# Compressibility (1/GPa) = 0.02039283
#
# Stress axis : x y z
#
# Youngs Moduli (GPa) = 49.10000 81.72281 46.55426
#
# Poissons Ratio (x) = 0.30587 0.53161
# Poissons Ratio (y) = 0.18377 0.07837
# Poissons Ratio (z) = 0.56068 0.13757
#
# Static dielectric constant tensor:
#      x y z
#    x 1.716510 0.000000 -0.001780 
#    y 0.000000 1.485230 0.000000 
#    z -0.001780 0.000000 1.662880 
# 
# From -- ./inp_files/167191.got.cif
#   From: 2010.05.17/outbox.cif.g08.bks.cpg/sg15_84_cif.got.tgz:167191.got - 2010.06.03 18:47:42.
