data_PCOD9288745
_publ_section_title
;
Structure prediction by ZEFSAII (Michael W. Deem and Ramdas Pophale) SiO2 
 PCOD9288745
Probable space group: C 2/C
;
_chemical_formula_sum "Si O2"
_cell_formula_units_Z 64
_cell_length_a 11.793943
_cell_length_b 8.502643
_cell_length_c 29.940099
_cell_angle_alpha 90.000000
_cell_angle_beta 75.901290
_cell_angle_gamma 90.000000
_cell_volume 2911.944449
_symmetry_space_group_name_H-M "C 2/C"
_symmetry_group_IT_number 15
_symmetry_cell_setting 'monoclinic'
loop_
_space_group_symop_operation_xyz
x,y,z
-x,y,1/2-z
-x,-y,-z
x,-y,1/2+z
1/2+x,1/2+y,z
1/2-x,1/2+y,1/2-z
1/2-x,1/2-y,-z
1/2+x,1/2-y,1/2+z
loop_
_atom_site_type_symbol
_atom_site_label
_atom_site_fract_x
_atom_site_fract_y
_atom_site_fract_z
Si Si1 0.520069 0.072703 0.046259
Si Si2 0.515400 0.831024 0.196072
Si Si3 0.854669 0.522713 0.146376
Si Si4 0.281805 0.628147 0.664070
Si Si5 0.262579 0.636918 0.042022
Si Si6 0.029714 0.036546 0.797602
Si Si7 0.546063 0.436461 0.434234
Si Si8 0.140444 0.113774 0.615381
O O1 0.441903 0.022926 0.095559
O O2 0.653095 0.022889 0.045014
O O3 0.487632 0.260091 0.046538
O O4 0.500000 0.000000 0.000000
O O5 0.500000 0.862262 0.250000
O O6 0.644562 0.888614 0.170469
O O7 0.510805 0.642549 0.190431
O O8 0.414324 0.912989 0.177258
O O9 0.820254 0.692318 0.168445
O O10 0.733902 0.471726 0.136185
O O11 0.334500 0.538815 0.701768
O O12 0.352645 0.575961 0.613256
O O13 0.387750 0.554185 0.037880
O O14 0.213942 0.744043 0.087065
O O15 0.250000 0.750000 0.000000
O O16 0.962309 0.148721 0.839385
O O17 0.000000 0.079798 0.750000
O O18 0.427194 0.479956 0.418131
#
# Coordination Sequence:
#
# PCOD9288745 Si02
#       8
#     8   8   8   8   8   8   8   8
#     4  10  22  42  62  97 132 171 223 276 341 408
#     4  11  25  41  64  98 130 173 222 274 336 399
#     4  11  23  42  65  95 133 170 224 274 333 409
#     4  10  22  42  62  92 131 169 217 269 333 393
#     4  11  23  41  64  96 129 172 230 276 337 415
#     4  10  23  44  64  94 133 174 222 278 333 399
#     4   9  22  42  64  92 132 174 216 279 339 393
#     4  10  22  39  64  92 127 170 222 270 335 402
#
# _framework density 21.978441
#
# number of rings (size 3 to 8) (size 9 to 14) (size 15 to 20)
#    0.000    1.750    1.250    2.250    5.250    3.000 
#    2.250    0.000    0.000    0.000    0.000    0.000 
#    0.000    0.000    0.000    0.000    0.000    0.000 
#
# Total GULP energy -178438.637828 kJ/mol
# GULP energy per Si atom -5576.207432 kJ/mol
# Density = 2.192842 g / cm^3
# Si number density = 21.978441 Si / 1000 Ang^3
#
#
#
# Elastic Constant Matrix: (Units=GPa)
#
#
# Indices 1 2 3 4 5 6 
#
# 1 164.0123 38.3768 28.6987 0.0000 33.7271 0.0000
# 2 38.3768 37.4346 42.6613 0.0000 19.2048 0.0000
# 3 28.6987 42.6613 88.6806 0.0000 28.8315 0.0000
# 4 0.0000 0.0000 0.0000 34.5130 0.0000 7.8651
# 5 33.7271 19.2048 28.8315 0.0000 36.6559 0.0000
# 6 0.0000 0.0000 0.0000 7.8651 0.0000 37.8717
#
#
#
# Elastic Compliance Matrix: (Units=1/GPa)
#
#
# Indices 1 2 3 4 5 6 
#
# 1 0.009242 -0.011532 0.004510 0.000000 -0.006009 0.000000
# 2 -0.011532 0.077407 -0.031938 0.000000 -0.004825 0.000000
# 3 0.004510 -0.031938 0.028336 0.000000 -0.009705 0.000000
# 4 0.000000 0.000000 0.000000 0.030414 0.000000 -0.006316
# 5 -0.006009 -0.004825 -0.009705 0.000000 0.042971 0.000000
# 6 0.000000 0.000000 0.000000 -0.006316 0.000000 0.027717
#
#
# Mechanical properties :
#
#
# Convention : Reuss Voigt Hill
#
# Bulk Modulus (GPa) = 26.97787 56.62234 41.80011
# Shear Modulus (GPa) = 16.32061 33.83417 25.07739
#
# Velocity S-wave (km/s) = 2.72798 3.92781 3.38153
# Velocity P-wave (km/s) = 4.71421 6.81093 5.85716
#
# Compressibility (1/GPa) = 0.03706742
#
# Stress axis : x y z
#
# Youngs Moduli (GPa) = 108.20242 12.91865 35.29065
#
# Poissons Ratio (x) = 0.14898 -0.15918
# Poissons Ratio (y) = 1.24778 1.12710
# Poissons Ratio (z) = -0.48805 0.41259
#
# Static dielectric constant tensor:
#      x y z
#    x 1.760280 0.000000 0.113540 
#    y 0.000000 1.865240 0.000000 
#    z 0.113540 0.000000 1.780880 
# 
# From -- ./inp_files/310327.got.cif
#   From: 2010.05.17/outbox.cif.g08.bks.cpg/sg15_156_cif.got.tgz:310327.got - 2010.06.03 18:47:42.
