data_PCOD9288800
_publ_section_title
;
Structure prediction by ZEFSAII (Michael W. Deem and Ramdas Pophale) SiO2 
 PCOD9288800
Probable space group: C 2/C
;
_chemical_formula_sum "Si O2"
_cell_formula_units_Z 60
_cell_length_a 19.340498
_cell_length_b 18.433680
_cell_length_c 10.889036
_cell_angle_alpha 90.000000
_cell_angle_beta 133.460698
_cell_angle_gamma 90.000000
_cell_volume 2817.823868
_symmetry_space_group_name_H-M "C 2/C"
_symmetry_group_IT_number 15
_symmetry_cell_setting 'monoclinic'
loop_
_space_group_symop_operation_xyz
x,y,z
-x,y,1/2-z
-x,-y,-z
x,-y,1/2+z
1/2+x,1/2+y,z
1/2-x,1/2+y,1/2-z
1/2-x,1/2-y,-z
1/2+x,1/2-y,1/2+z
loop_
_atom_site_type_symbol
_atom_site_label
_atom_site_fract_x
_atom_site_fract_y
_atom_site_fract_z
Si Si1 0.500000 0.949447 0.250000
Si Si2 0.281158 0.615020 0.615539
Si Si3 0.634531 0.862848 0.268087
Si Si4 0.983214 0.759403 0.586385
Si Si5 0.264850 0.263652 0.306040
Si Si6 0.850387 0.489579 0.410623
Si Si7 0.705603 0.386551 0.650695
Si Si8 0.496520 0.377141 0.387809
O O1 0.591421 0.899512 0.335109
O O2 0.542111 0.995303 0.413125
O O3 0.259450 0.682573 0.680419
O O4 0.207659 0.550817 0.552372
O O5 0.273749 0.635577 0.464713
O O6 0.390856 0.588669 0.769435
O O7 0.550455 0.807178 0.130718
O O8 0.728327 0.813922 0.373434
O O9 0.647901 0.930086 0.194270
O O10 0.996088 0.820151 0.498500
O O11 0.000000 0.780739 0.750000
O O12 0.872817 0.739523 0.448872
O O13 0.206699 0.189586 0.223830
O O14 0.786330 0.557597 0.291271
O O15 0.597611 0.418572 0.523942
O O16 0.500000 0.347432 0.250000
#
# Coordination Sequence:
#
# PCOD9288800 Si02
#       8
#     4   8   8   8   8   8   8   8
#     4  12  24  42  60  86 130 174 210 264 314 396
#     4   9  21  41  62  93 127 161 216 277 314 381
#     4  11  23  42  60  89 128 163 211 267 318 380
#     4  11  22  39  62  96 132 169 208 267 333 382
#     4  10  22  39  65  93 124 165 217 269 319 384
#     4  11  25  40  61  90 128 174 215 256 322 388
#     4  11  20  39  65  91 122 173 218 262 329 379
#     4   9  20  40  67  96 128 162 220 275 322 380
#
# _framework density 21.293026999999999
#
# number of rings (size 3 to 8) (size 9 to 14) (size 15 to 20)
#    0.000    1.600    2.000    2.400    0.000    3.200 
#    1.200    1.333    0.000    3.200    0.000    0.000 
#    0.000    0.000    0.000    0.000    0.000    0.000 
#
# Total GULP energy -167194.600662 kJ/mol
# GULP energy per Si atom -5573.153355 kJ/mol
# Density = 2.124456 g / cm^3
# Si number density = 21.293027 Si / 1000 Ang^3
#
#
#
# Elastic Constant Matrix: (Units=GPa)
#
#
# Indices 1 2 3 4 5 6 
#
# 1 79.6655 19.2166 7.5890 0.0000 10.5324 0.0000
# 2 19.2166 60.7646 32.1297 0.0000 -3.9877 0.0000
# 3 7.5890 32.1297 81.7890 0.0000 8.9679 0.0000
# 4 0.0000 0.0000 0.0000 12.8838 0.0000 -1.2325
# 5 10.5324 -3.9877 8.9679 0.0000 36.1243 0.0000
# 6 0.0000 0.0000 0.0000 -1.2325 0.0000 29.0032
#
#
#
# Elastic Compliance Matrix: (Units=1/GPa)
#
#
# Indices 1 2 3 4 5 6 
#
# 1 0.014476 -0.005695 0.001466 0.000000 -0.005213 0.000000
# 2 -0.005695 0.023729 -0.009521 0.000000 0.006644 0.000000
# 3 0.001466 -0.009521 0.016441 0.000000 -0.005560 0.000000
# 4 0.000000 0.000000 0.000000 0.077934 0.000000 0.003312
# 5 -0.005213 0.006644 -0.005560 0.000000 0.031316 0.000000
# 6 0.000000 0.000000 0.000000 0.003312 0.000000 0.034620
#
#
# Mechanical properties :
#
#
# Convention : Reuss Voigt Hill
#
# Bulk Modulus (GPa) = 36.84155 37.78774 37.31464
# Shear Modulus (GPa) = 21.27085 26.48784 23.87934
#
# Velocity S-wave (km/s) = 3.16406 3.53082 3.35246
# Velocity P-wave (km/s) = 5.53968 5.86577 5.70506
#
# Compressibility (1/GPa) = 0.02714327
#
# Stress axis : x y z
#
# Youngs Moduli (GPa) = 69.08071 42.14335 60.82506
#
# Poissons Ratio (x) = 0.24001 -0.08915
# Poissons Ratio (y) = 0.39342 0.57914
# Poissons Ratio (z) = -0.10125 0.40127
#
# Static dielectric constant tensor:
#      x y z
#    x 1.817950 0.000000 -0.002070 
#    y 0.000000 1.764490 0.000000 
#    z -0.002070 0.000000 1.823340 
# 
# From -- ./inp_files/113831.got.cif
#   From: 2010.05.17/outbox.cif.g08.bks.cpg/sg15_57_cif.got.tgz:113831.got - 2010.06.03 18:47:42.
