data_PCOD9288276
_publ_section_title
;
Structure prediction by ZEFSAII (Michael W. Deem and Ramdas Pophale) SiO2 
 PCOD9288276
Probable space group: C 2/C
;
_chemical_formula_sum "Si O2"
_cell_formula_units_Z 60
_cell_length_a 16.596654
_cell_length_b 13.898443
_cell_length_c 11.206093
_cell_angle_alpha 90.000000
_cell_angle_beta 108.664795
_cell_angle_gamma 90.000000
_cell_volume 2448.936627
_symmetry_space_group_name_H-M "C 2/C"
_symmetry_group_IT_number 15
_symmetry_cell_setting 'monoclinic'
loop_
_space_group_symop_operation_xyz
x,y,z
-x,y,1/2-z
-x,-y,-z
x,-y,1/2+z
1/2+x,1/2+y,z
1/2-x,1/2+y,1/2-z
1/2-x,1/2-y,-z
1/2+x,1/2-y,1/2+z
loop_
_atom_site_type_symbol
_atom_site_label
_atom_site_fract_x
_atom_site_fract_y
_atom_site_fract_z
Si Si1 0.500000 0.641103 0.250000
Si Si2 0.231421 0.506389 0.694762
Si Si3 0.857906 0.111970 0.368076
Si Si4 0.100841 0.594949 0.300296
Si Si5 0.065302 0.203587 0.876739
Si Si6 0.170045 0.423176 0.458297
Si Si7 0.077118 0.742608 0.003339
Si Si8 0.245610 0.296750 0.281045
O O1 0.436126 0.592639 0.314656
O O2 0.557463 0.701199 0.371660
O O3 0.298659 0.479763 0.828556
O O4 0.145014 0.460279 0.709825
O O5 0.246187 0.439106 0.587384
O O6 0.243956 0.619111 0.680727
O O7 0.882075 0.131838 0.516217
O O8 0.805106 0.205029 0.294087
O O9 0.114831 0.708528 0.334621
O O10 0.139666 0.531072 0.422913
O O11 0.000000 0.584435 0.250000
O O12 0.000000 0.158721 0.750000
O O13 0.002592 0.249118 0.946861
O O14 0.090805 0.366694 0.474436
O O15 0.195900 0.354842 0.361854
O O16 0.163506 0.772945 0.114473
#
# Coordination Sequence:
#
# PCOD9288276 Si02
#       8
#     4   8   8   8   8   8   8   8
#     4  10  22  38  66  98 116 166 212 270 320 360
#     4  11  24  40  62  94 126 169 209 262 317 371
#     4  11  22  42  69  91 127 164 213 266 317 375
#     4  10  23  37  56  95 132 162 208 250 320 392
#     4  10  23  41  58  89 127 174 210 250 313 379
#     4  11  20  36  62  93 127 160 205 261 320 374
#     4  11  21  38  65  89 129 163 213 261 316 371
#     4  11  23  40  64  99 124 164 214 263 318 377
#
# _framework density 24.500430000000001
#
# number of rings (size 3 to 8) (size 9 to 14) (size 15 to 20)
#    0.000    1.333    2.667    3.600    0.933    3.733 
#    4.800    2.667    2.933    0.000    0.000    0.000 
#    0.000    0.000    0.000    0.000    0.000    0.000 
#
# Total GULP energy -167412.904465 kJ/mol
# GULP energy per Si atom -5580.430149 kJ/mol
# Density = 2.444467 g / cm^3
# Si number density = 24.500430 Si / 1000 Ang^3
#
#
#
# Elastic Constant Matrix: (Units=GPa)
#
#
# Indices 1 2 3 4 5 6 
#
# 1 67.6289 6.0968 1.1325 0.0000 -0.2016 0.0000
# 2 6.0968 41.6053 -3.6057 0.0000 -3.6880 0.0000
# 3 1.1325 -3.6057 90.8557 0.0000 -0.6926 0.0000
# 4 0.0000 0.0000 0.0000 17.4906 0.0000 -3.4508
# 5 -0.2016 -3.6880 -0.6926 0.0000 26.6831 0.0000
# 6 0.0000 0.0000 0.0000 -3.4508 0.0000 8.4950
#
#
#
# Elastic Compliance Matrix: (Units=1/GPa)
#
#
# Indices 1 2 3 4 5 6 
#
# 1 0.014992 -0.002239 -0.000277 0.000000 -0.000203 0.000000
# 2 -0.002239 0.024758 0.001037 0.000000 0.003432 0.000000
# 3 -0.000277 0.001037 0.011054 0.000000 0.000428 0.000000
# 4 0.000000 0.000000 0.000000 0.062155 0.000000 0.025248
# 5 -0.000203 0.003432 0.000428 0.000000 0.037961 0.000000
# 6 0.000000 0.000000 0.000000 0.025248 0.000000 0.127973
#
#
# Mechanical properties :
#
#
# Convention : Reuss Voigt Hill
#
# Bulk Modulus (GPa) = 20.90088 23.03745 21.96916
# Shear Modulus (GPa) = 16.78977 23.63148 20.21062
#
# Velocity S-wave (km/s) = 2.62063 3.10906 2.87524
# Velocity P-wave (km/s) = 4.20789 4.72352 4.47314
#
# Compressibility (1/GPa) = 0.04784489
#
# Stress axis : x y z
#
# Youngs Moduli (GPa) = 66.70019 40.39168 90.46232
#
# Poissons Ratio (x) = 0.09044 0.02508
# Poissons Ratio (y) = 0.14934 -0.09377
# Poissons Ratio (z) = 0.01850 -0.04187
#
# Static dielectric constant tensor:
#      x y z
#    x 1.984970 0.000000 -0.055720 
#    y 0.000000 1.916460 0.000000 
#    z -0.055720 0.000000 2.108750 
# 
# From -- ./inp_files/105759.got.cif
#   From: 2010.05.17/outbox.cif.g08.bks.cpg/sg15_53_cif.got.tgz:105759.got - 2010.06.03 18:47:42.
