data_PCOD9288461
_publ_section_title
;
Structure prediction by ZEFSAII (Michael W. Deem and Ramdas Pophale) SiO2 
 PCOD9288461
Probable space group: C 2/C
;
_chemical_formula_sum "Si O2"
_cell_formula_units_Z 24
_cell_length_a 18.395258
_cell_length_b 8.583004
_cell_length_c 5.044027
_cell_angle_alpha 90.000000
_cell_angle_beta 94.135499
_cell_angle_gamma 90.000000
_cell_volume 794.310587
_symmetry_space_group_name_H-M "C 2/C"
_symmetry_group_IT_number 15
_symmetry_cell_setting 'monoclinic'
loop_
_space_group_symop_operation_xyz
x,y,z
-x,y,1/2-z
-x,-y,-z
x,-y,1/2+z
1/2+x,1/2+y,z
1/2-x,1/2+y,1/2-z
1/2-x,1/2-y,-z
1/2+x,1/2-y,1/2+z
loop_
_atom_site_type_symbol
_atom_site_label
_atom_site_fract_x
_atom_site_fract_y
_atom_site_fract_z
Si Si1 0.449790 0.153862 0.513774
Si Si2 0.421851 0.569135 0.595118
Si Si3 0.785087 0.592732 0.617733
O O1 0.500000 0.236698 0.750000
O O2 0.500000 0.500000 0.500000
O O3 0.570786 0.264137 0.249354
O O4 0.500000 0.000000 0.500000
O O5 0.383360 0.543955 0.301556
O O6 0.372629 0.109369 0.615125
O O7 0.767048 0.451076 0.413060
O O8 0.750000 0.750000 0.500000
#
# Coordination Sequence:
#
# PCOD9288461 Si02
#       3
#     8   8   8
#     4  12  24  44  82 116 156 198 267 332 395 459
#     4  10  22  39  60 101 155 192 235 308 392 452
#     4  12  29  54  83 116 162 219 270 328 408 493
#
# _framework density 30.214884000000001
#
# number of rings (size 3 to 8) (size 9 to 14) (size 15 to 20)
#    0.000    0.667    3.333    5.000    0.000    5.333 
#    0.000    0.000    0.000    0.000    0.000    0.000 
#    0.000    0.000    0.000    0.000    0.000    0.000 
#
# Total GULP energy -67052.107253 kJ/mol
# GULP energy per Si atom -5587.675604 kJ/mol
# Density = 3.014611 g / cm^3
# Si number density = 30.214884 Si / 1000 Ang^3
#
#
#
# Elastic Constant Matrix: (Units=GPa)
#
#
# Indices 1 2 3 4 5 6 
#
# 1 175.5266 21.5053 14.3032 0.0000 13.4746 0.0000
# 2 21.5053 226.5541 62.2714 0.0000 7.1302 0.0000
# 3 14.3032 62.2714 269.9818 0.0000 -19.1745 0.0000
# 4 0.0000 0.0000 0.0000 84.6722 0.0000 -4.1816
# 5 13.4746 7.1302 -19.1745 0.0000 46.1270 0.0000
# 6 0.0000 0.0000 0.0000 -4.1816 0.0000 32.3409
#
#
#
# Elastic Compliance Matrix: (Units=1/GPa)
#
#
# Indices 1 2 3 4 5 6 
#
# 1 0.005914 -0.000409 -0.000347 0.000000 -0.001809 0.000000
# 2 -0.000409 0.004808 -0.001166 0.000000 -0.001108 0.000000
# 3 -0.000347 -0.001166 0.004133 0.000000 0.002000 0.000000
# 4 0.000000 0.000000 0.000000 0.011886 0.000000 0.001537
# 5 -0.001809 -0.001108 0.002000 0.000000 0.023210 0.000000
# 6 0.000000 0.000000 0.000000 0.001537 0.000000 0.031119
#
#
# Mechanical properties :
#
#
# Convention : Reuss Voigt Hill
#
# Bulk Modulus (GPa) = 90.81896 96.46913 93.64405
# Shear Modulus (GPa) = 56.44157 70.89353 63.66755
#
# Velocity S-wave (km/s) = 4.32673 4.84913 4.59536
# Velocity P-wave (km/s) = 7.42184 7.95921 7.69522
#
# Compressibility (1/GPa) = 0.01101092
#
# Stress axis : x y z
#
# Youngs Moduli (GPa) = 169.07791 207.97913 241.93415
#
# Poissons Ratio (x) = 0.08506 0.08407
# Poissons Ratio (y) = 0.06915 0.28211
# Poissons Ratio (z) = 0.05875 0.24252
#
# Static dielectric constant tensor:
#      x y z
#    x 3.295380 0.000000 1.248060 
#    y 0.000000 2.600240 0.000000 
#    z 1.248060 0.000000 4.720460 
# 
# From -- ./inp_files/17864.got.cif
#   From: 2010.05.17/outbox.cif.g08.bks.cpg/sg15_9_cif.got.tgz:17864.got - 2010.06.03 18:47:42.
