data_PCOD9288827
_publ_section_title
;
Structure prediction by ZEFSAII (Michael W. Deem and Ramdas Pophale) SiO2 
 PCOD9288827
Probable space group: C 2/C
;
_chemical_formula_sum "Si O2"
_cell_formula_units_Z 48
_cell_length_a 28.046987
_cell_length_b 8.087636
_cell_length_c 14.306955
_cell_angle_alpha 90.000000
_cell_angle_beta 41.462404
_cell_angle_gamma 90.000000
_cell_volume 2148.806340
_symmetry_space_group_name_H-M "C 2/C"
_symmetry_group_IT_number 15
_symmetry_cell_setting 'monoclinic'
loop_
_space_group_symop_operation_xyz
x,y,z
-x,y,1/2-z
-x,-y,-z
x,-y,1/2+z
1/2+x,1/2+y,z
1/2-x,1/2+y,1/2-z
1/2-x,1/2-y,-z
1/2+x,1/2-y,1/2+z
loop_
_atom_site_type_symbol
_atom_site_label
_atom_site_fract_x
_atom_site_fract_y
_atom_site_fract_z
Si Si1 0.165871 0.303219 0.114290
Si Si2 0.697896 0.972889 0.324668
Si Si3 0.177818 0.876238 0.771458
Si Si4 0.067991 0.635426 0.591651
Si Si5 0.814898 0.671192 0.342365
Si Si6 0.933742 0.889049 0.064497
O O1 0.137533 0.181486 0.236839
O O2 0.124070 0.273998 0.079690
O O3 0.158212 0.498076 0.150198
O O4 0.250000 0.250000 0.000000
O O5 0.751118 0.010550 0.331975
O O6 0.616015 0.992688 0.476562
O O7 0.711710 0.101239 0.219538
O O8 0.705451 0.792580 0.273730
O O9 0.120421 0.985924 0.909624
O O10 0.043465 0.750938 0.543023
O O11 0.000000 0.578942 0.750000
O O12 0.750000 0.750000 0.500000
O O13 0.881061 0.796878 0.218930
O O14 0.000000 0.000000 0.000000
#
# Coordination Sequence:
#
# PCOD9288827 Si02
#       6
#     8   8   8   8   8   8
#     4  11  22  39  68 100 136 179 231 298 353 412
#     4  10  22  39  66 100 132 174 223 291 337 420
#     4  11  22  41  66  95 134 175 232 278 351 406
#     4  11  24  43  66 100 140 180 232 285 351 423
#     4  10  23  40  69 101 133 175 237 290 352 420
#     4  11  25  47  69  97 144 186 230 291 356 427
#
# _framework density 22.337983999999999
#
# number of rings (size 3 to 8) (size 9 to 14) (size 15 to 20)
#    0.000    1.333    1.667    4.000    4.667    1.333 
#    0.000    5.833    0.000    0.000    0.000    0.000 
#    0.000    0.000    0.000    0.000    0.000    0.000 
#
# Total GULP energy -133834.932974 kJ/mol
# GULP energy per Si atom -5576.455541 kJ/mol
# Density = 2.228714 g / cm^3
# Si number density = 22.337984 Si / 1000 Ang^3
#
#
#
# Elastic Constant Matrix: (Units=GPa)
#
#
# Indices 1 2 3 4 5 6 
#
# 1 79.5703 19.0016 27.4537 0.0000 -7.2613 0.0000
# 2 19.0016 96.9622 31.7588 -0.0004 -4.3435 0.0002
# 3 27.4537 31.7588 128.0057 -0.0001 -1.3248 0.0001
# 4 0.0000 -0.0004 -0.0001 28.3308 0.0000 -7.9207
# 5 -7.2613 -4.3435 -1.3248 0.0000 35.0171 0.0000
# 6 0.0000 0.0002 0.0001 -7.9207 0.0000 28.8957
#
#
#
# Elastic Compliance Matrix: (Units=1/GPa)
#
#
# Indices 1 2 3 4 5 6 
#
# 1 0.014119 -0.001815 -0.002551 0.000000 0.002606 0.000000
# 2 -0.001815 0.011517 -0.002458 0.000000 0.000959 0.000000
# 3 -0.002551 -0.002458 0.008964 0.000000 -0.000495 0.000000
# 4 0.000000 0.000000 0.000000 0.038227 0.000000 0.010478
# 5 0.002606 0.000959 -0.000495 0.000000 0.029198 0.000000
# 6 0.000000 0.000000 0.000000 0.010478 0.000000 0.037480
#
#
# Mechanical properties :
#
#
# Convention : Reuss Voigt Hill
#
# Bulk Modulus (GPa) = 47.72759 51.21851 49.47305
# Shear Modulus (GPa) = 31.22343 33.53700 32.38022
#
# Velocity S-wave (km/s) = 3.74274 3.87892 3.81144
# Velocity P-wave (km/s) = 6.33166 6.56049 6.44709
#
# Compressibility (1/GPa) = 0.02095224
#
# Stress axis : x y z
#
# Youngs Moduli (GPa) = 70.82761 86.82770 111.55669
#
# Poissons Ratio (x) = 0.15756 0.28457
# Poissons Ratio (y) = 0.12852 0.27424
# Poissons Ratio (z) = 0.18068 0.21345
#
# Static dielectric constant tensor:
#      x y z
#    x 1.846660 0.000000 0.052870 
#    y 0.000000 1.823640 0.000000 
#    z 0.052870 0.000000 1.940330 
# 
# From -- ./inp_files/176885.got.cif
#   From: 2010.05.17/outbox.cif.g08.bks.cpg/sg15_89_cif.got.tgz:176885.got - 2010.06.03 18:47:42.
