data_PCOD9288963
_publ_section_title
;
Structure prediction by ZEFSAII (Michael W. Deem and Ramdas Pophale) SiO2 
 PCOD9288963
Probable space group: C 2/C
;
_chemical_formula_sum "Si O2"
_cell_formula_units_Z 48
_cell_length_a 18.956105
_cell_length_b 17.926504
_cell_length_c 8.487567
_cell_angle_alpha 90.000000
_cell_angle_beta 145.152033
_cell_angle_gamma 90.000000
_cell_volume 1648.043923
_symmetry_space_group_name_H-M "C 2/C"
_symmetry_group_IT_number 15
_symmetry_cell_setting 'monoclinic'
loop_
_space_group_symop_operation_xyz
x,y,z
-x,y,1/2-z
-x,-y,-z
x,-y,1/2+z
1/2+x,1/2+y,z
1/2-x,1/2+y,1/2-z
1/2-x,1/2-y,-z
1/2+x,1/2-y,1/2+z
loop_
_atom_site_type_symbol
_atom_site_label
_atom_site_fract_x
_atom_site_fract_y
_atom_site_fract_z
Si Si1 0.570443 0.708987 0.214383
Si Si2 0.359841 0.276067 0.090629
Si Si3 0.592069 0.465422 0.039646
Si Si4 0.845549 0.392820 0.550933
Si Si5 0.781934 0.584915 0.272748
Si Si6 0.166838 0.372991 0.306376
O O1 0.500000 0.718254 0.250000
O O2 0.476654 0.690518 0.897636
O O3 0.689104 0.654545 0.448481
O O4 0.606299 0.793852 0.235390
O O5 0.381994 0.191964 0.075584
O O6 0.290724 0.335566 0.856332
O O7 0.250000 0.250000 0.000000
O O8 0.500000 0.427424 0.750000
O O9 0.500000 0.500000 0.000000
O O10 0.698691 0.411179 0.295897
O O11 0.670011 0.526022 0.082258
O O12 0.871053 0.411690 0.782056
O O13 0.875063 0.420640 0.425490
O O14 0.845523 0.577354 0.559438
#
# Coordination Sequence:
#
# PCOD9288963 Si02
#       6
#     8   8   8   8   8   8
#     4  11  22  41  67 106 150 184 243 300 369 438
#     4  10  22  39  69 102 141 194 234 304 368 424
#     4  12  25  42  68 105 144 198 236 294 378 445
#     4  11  24  44  63 100 145 184 246 293 367 441
#     4  11  24  42  66 100 146 187 237 297 369 427
#     4  11  25  40  68 106 141 195 239 297 363 441
#
# _framework density 29.125437000000002
#
# number of rings (size 3 to 8) (size 9 to 14) (size 15 to 20)
#    0.000    1.000    1.667    7.000    2.333    6.667 
#    0.000    0.000    0.000    1.000    8.667    0.000 
#    0.000    0.000    0.000    0.000    0.000    0.000 
#
# Total GULP energy -134099.140032 kJ/mol
# GULP energy per Si atom -5587.464168 kJ/mol
# Density = 2.905915 g / cm^3
# Si number density = 29.125437 Si / 1000 Ang^3
#
#
#
# Elastic Constant Matrix: (Units=GPa)
#
#
# Indices 1 2 3 4 5 6 
#
# 1 228.1000 49.8808 43.1641 0.0000 -42.3152 0.0000
# 2 49.8808 96.2143 1.9089 0.0000 9.0744 0.0000
# 3 43.1641 1.9089 120.2559 0.0000 -32.9740 0.0000
# 4 0.0000 0.0000 0.0000 41.3709 0.0000 10.4925
# 5 -42.3152 9.0744 -32.9740 0.0000 62.3508 0.0000
# 6 0.0000 0.0000 0.0000 10.4925 0.0000 51.3479
#
#
#
# Elastic Compliance Matrix: (Units=1/GPa)
#
#
# Indices 1 2 3 4 5 6 
#
# 1 0.006115 -0.003540 -0.001005 0.000000 0.004134 0.000000
# 2 -0.003540 0.012637 -0.000109 0.000000 -0.004299 0.000000
# 3 -0.001005 -0.000109 0.009936 0.000000 0.004588 0.000000
# 4 0.000000 0.000000 0.000000 0.025493 0.000000 -0.005209
# 5 0.004134 -0.004299 0.004588 0.000000 0.021896 0.000000
# 6 0.000000 0.000000 0.000000 -0.005209 0.000000 0.020539
#
#
# Mechanical properties :
#
#
# Convention : Reuss Voigt Hill
#
# Bulk Modulus (GPa) = 51.60103 70.49753 61.04928
# Shear Modulus (GPa) = 44.48993 54.32168 49.40580
#
# Velocity S-wave (km/s) = 3.91260 4.32336 4.12310
# Velocity P-wave (km/s) = 6.17791 7.01279 6.60855
#
# Compressibility (1/GPa) = 0.01937946
#
# Stress axis : x y z
#
# Youngs Moduli (GPa) = 163.52247 79.13553 100.64134
#
# Poissons Ratio (x) = 0.28017 0.10118
# Poissons Ratio (y) = 0.57893 0.01094
# Poissons Ratio (z) = 0.16439 0.00860
#
# Static dielectric constant tensor:
#      x y z
#    x 2.458760 0.000000 -0.072760 
#    y 0.000000 0.969510 0.000000 
#    z -0.072760 0.000000 3.317380 
# 
# From -- ./inp_files/50405.got.cif
#   From: 2010.05.17/outbox.cif.g08.bks.cpg/sg15_26_cif.got.tgz:50405.got - 2010.06.03 18:47:42.
