data_PCOD9288729
_publ_section_title
;
Structure prediction by ZEFSAII (Michael W. Deem and Ramdas Pophale) SiO2 
 PCOD9288729
Probable space group: C 2/C
;
_chemical_formula_sum "Si O2"
_cell_formula_units_Z 48
_cell_length_a 14.491805
_cell_length_b 14.094469
_cell_length_c 19.405682
_cell_angle_alpha 90.000000
_cell_angle_beta 150.370454
_cell_angle_gamma 90.000000
_cell_volume 1959.611342
_symmetry_space_group_name_H-M "C 2/C"
_symmetry_group_IT_number 15
_symmetry_cell_setting 'monoclinic'
loop_
_space_group_symop_operation_xyz
x,y,z
-x,y,1/2-z
-x,-y,-z
x,-y,1/2+z
1/2+x,1/2+y,z
1/2-x,1/2+y,1/2-z
1/2-x,1/2-y,-z
1/2+x,1/2-y,1/2+z
loop_
_atom_site_type_symbol
_atom_site_label
_atom_site_fract_x
_atom_site_fract_y
_atom_site_fract_z
Si Si1 0.000000 0.806609 0.750000
Si Si2 0.317886 0.279489 0.895775
Si Si3 0.682529 0.993374 0.824115
Si Si4 0.845187 0.526492 0.345980
Si Si5 0.773827 0.747268 0.310440
Si Si6 0.422611 0.476098 0.605621
Si Si7 0.500000 0.640253 0.750000
O O1 0.855972 0.750215 0.705719
O O2 0.889960 0.880242 0.627973
O O3 0.223725 0.382071 0.842227
O O4 0.345835 0.239538 0.836340
O O5 0.164470 0.207462 0.827250
O O6 0.527400 0.298910 0.059629
O O7 0.500000 0.009348 0.750000
O O8 0.647001 0.024726 0.722912
O O9 0.845134 0.033439 0.978331
O O10 0.848128 0.640082 0.346433
O O11 0.642186 0.508229 0.243238
O O12 0.000000 0.500000 0.500000
O O13 0.378434 0.571495 0.619437
#
# Coordination Sequence:
#
# PCOD9288729 Si02
#       7
#     4   8   8   8   8   8   4
#     4   9  22  44  66  88 122 163 222 262 314 367
#     4  11  23  39  60  93 128 166 207 253 320 378
#     4  11  24  37  62  96 132 164 208 261 311 378
#     4  10  22  41  63  90 126 169 212 255 315 378
#     4  10  23  40  63  87 123 166 211 262 309 376
#     4  10  22  39  64  89 126 166 206 265 317 364
#     4  11  22  36  64  94 130 165 208 256 318 383
#
# _framework density 24.494653
#
# number of rings (size 3 to 8) (size 9 to 14) (size 15 to 20)
#    0.000    1.667    0.833    2.500   11.667    2.000 
#    0.000    0.000    0.000    0.000    0.000    0.000 
#    0.000    0.000    0.000    0.000    0.000    0.000 
#
# Total GULP energy -134076.734413 kJ/mol
# GULP energy per Si atom -5586.530601 kJ/mol
# Density = 2.443890 g / cm^3
# Si number density = 24.494653 Si / 1000 Ang^3
#
#
#
# Elastic Constant Matrix: (Units=GPa)
#
#
# Indices 1 2 3 4 5 6 
#
# 1 85.3207 -14.4269 22.6494 -0.0050 -9.8094 -0.0031
# 2 -14.4269 34.9802 -10.0159 -0.0101 -3.8334 -0.0066
# 3 22.6494 -10.0159 124.5551 -0.0139 -15.0456 -0.0111
# 4 -0.0050 -0.0101 -0.0139 17.4571 -0.0041 -17.3573
# 5 -9.8094 -3.8334 -15.0456 -0.0041 42.2995 -0.0028
# 6 -0.0031 -0.0066 -0.0111 -17.3573 -0.0028 35.9430
#
#
#
# Elastic Compliance Matrix: (Units=1/GPa)
#
#
# Indices 1 2 3 4 5 6 
#
# 1 0.013415 0.005393 -0.001641 0.000016 0.003016 0.000009
# 2 0.005393 0.031978 0.002186 0.000058 0.004926 0.000036
# 3 -0.001641 0.002186 0.008862 0.000023 0.002969 0.000014
# 4 0.000016 0.000058 0.000023 0.110192 0.000031 0.053213
# 5 0.003016 0.004926 0.002969 0.000031 0.025843 0.000019
# 6 0.000009 0.000036 0.000014 0.053213 0.000019 0.053519
#
#
# Mechanical properties :
#
#
# Convention : Reuss Voigt Hill
#
# Bulk Modulus (GPa) = 15.12187 26.80769 20.96478
# Shear Modulus (GPa) = 19.68691 35.58322 27.63506
#
# Velocity S-wave (km/s) = 2.83808 3.81556 3.36252
# Velocity P-wave (km/s) = 4.11418 5.51175 4.86343
#
# Compressibility (1/GPa) = 0.06612938
#
# Stress axis : x y z
#
# Youngs Moduli (GPa) = 74.54399 31.27179 112.84757
#
# Poissons Ratio (x) = -0.16866 0.18523
# Poissons Ratio (y) = -0.40203 -0.24666
# Poissons Ratio (z) = 0.12236 -0.06835
#
# Static dielectric constant tensor:
#      x y z
#    x 1.936360 0.000000 -0.128980 
#    y 0.000000 2.366730 0.000000 
#    z -0.128980 0.000000 2.038900 
# 
# From -- ./inp_files/155304.got.cif
#   From: 2010.05.17/outbox.cif.g08.bks.cpg/sg15_78_cif.got.tgz:155304.got - 2010.06.03 18:47:42.
