data_PCOD9288311
_publ_section_title
;
Structure prediction by ZEFSAII (Michael W. Deem and Ramdas Pophale) SiO2 
 PCOD9288311
Probable space group: C 2/C
;
_chemical_formula_sum "Si O2"
_cell_formula_units_Z 40
_cell_length_a 8.563842
_cell_length_b 17.555845
_cell_length_c 10.646770
_cell_angle_alpha 90.000000
_cell_angle_beta 91.700654
_cell_angle_gamma 90.000000
_cell_volume 1599.988704
_symmetry_space_group_name_H-M "C 2/C"
_symmetry_group_IT_number 15
_symmetry_cell_setting 'monoclinic'
loop_
_space_group_symop_operation_xyz
x,y,z
-x,y,1/2-z
-x,-y,-z
x,-y,1/2+z
1/2+x,1/2+y,z
1/2-x,1/2+y,1/2-z
1/2-x,1/2-y,-z
1/2+x,1/2-y,1/2+z
loop_
_atom_site_type_symbol
_atom_site_label
_atom_site_fract_x
_atom_site_fract_y
_atom_site_fract_z
Si Si1 0.931280 0.950349 0.881837
Si Si2 0.904495 0.508545 0.626302
Si Si3 0.774694 0.673696 0.607764
Si Si4 0.004453 0.271433 0.928552
Si Si5 0.829468 0.782908 0.831740
O O1 0.929998 0.858393 0.865447
O O2 0.000000 0.979697 0.750000
O O3 0.748104 0.959670 0.891633
O O4 0.000000 0.000000 0.000000
O O5 0.832423 0.592029 0.653039
O O6 0.000000 0.484255 0.750000
O O7 0.000000 0.500000 0.500000
O O8 0.588662 0.691782 0.600691
O O9 0.844343 0.737505 0.702127
O O10 0.854809 0.679722 0.471541
O O11 0.139107 0.293520 0.833766
O O12 0.113172 0.272287 0.055828
#
# Coordination Sequence:
#
# PCOD9288311 Si02
#       5
#     8   8   8   8   8
#     4  12  27  47  73 108 154 205 258 321 394 470
#     4  12  27  47  73 108 154 205 258 321 394 470
#     4  11  23  43  68 100 138 186 245 310 376 451
#     4  10  22  38  68 102 136 176 240 310 376 438
#     4  11  23  43  68 100 138 186 245 310 376 451
#
# _framework density 25.000177000000001
#
# number of rings (size 3 to 8) (size 9 to 14) (size 15 to 20)
#    0.000    0.800    0.000    7.200    0.000   12.800 
#    0.000    0.000    0.000    0.000    0.000    0.000 
#    0.000    0.000    0.000    0.000    0.000    0.000 
#
# Total GULP energy -111468.339367 kJ/mol
# GULP energy per Si atom -5573.416968 kJ/mol
# Density = 2.494328 g / cm^3
# Si number density = 25.000177 Si / 1000 Ang^3
#
#
#
# Elastic Constant Matrix: (Units=GPa)
#
#
# Indices 1 2 3 4 5 6 
#
# 1 119.7866 4.2160 42.4014 0.0000 -4.2628 0.0000
# 2 4.2160 102.7628 18.2893 0.0000 4.7072 0.0000
# 3 42.4014 18.2893 127.5958 0.0000 -12.9496 0.0000
# 4 0.0000 0.0000 0.0000 19.5551 0.0000 3.5008
# 5 -4.2628 4.7072 -12.9496 0.0000 63.3580 0.0000
# 6 0.0000 0.0000 0.0000 3.5008 0.0000 34.8961
#
#
#
# Elastic Compliance Matrix: (Units=1/GPa)
#
#
# Indices 1 2 3 4 5 6 
#
# 1 0.009464 0.000178 -0.003173 0.000000 -0.000025 0.000000
# 2 0.000178 0.010059 -0.001609 0.000000 -0.001064 0.000000
# 3 -0.003173 -0.001609 0.009306 0.000000 0.001808 0.000000
# 4 0.000000 0.000000 0.000000 0.052073 0.000000 -0.005224
# 5 -0.000025 -0.001064 0.001808 0.000000 0.016230 0.000000
# 6 0.000000 0.000000 0.000000 -0.005224 0.000000 0.029181
#
#
# Mechanical properties :
#
#
# Convention : Reuss Voigt Hill
#
# Bulk Modulus (GPa) = 50.96752 53.32873 52.14812
# Shear Modulus (GPa) = 35.19607 42.57773 38.88690
#
# Velocity S-wave (km/s) = 3.75618 4.13134 3.94822
# Velocity P-wave (km/s) = 6.26442 6.64341 6.45670
#
# Compressibility (1/GPa) = 0.01962034
#
# Stress axis : x y z
#
# Youngs Moduli (GPa) = 105.66113 99.41403 107.45999
#
# Poissons Ratio (x) = -0.01765 0.34098
# Poissons Ratio (y) = -0.01876 0.17289
# Poissons Ratio (z) = 0.33527 0.15994
#
# Static dielectric constant tensor:
#      x y z
#    x 2.158640 0.000000 -0.167380 
#    y 0.000000 2.206300 0.000000 
#    z -0.167380 0.000000 2.135710 
# 
# From -- ./inp_files/76805.got.cif
#   From: 2010.05.17/outbox.cif.g08.bks.cpg/sg15_39_cif.got.tgz:76805.got - 2010.06.03 18:47:42.
