data_PCOD9288974
_publ_section_title
;
Structure prediction by ZEFSAII (Michael W. Deem and Ramdas Pophale) SiO2 
 PCOD9288974
Probable space group: C 2/C
;
_chemical_formula_sum "Si O2"
_cell_formula_units_Z 52
_cell_length_a 12.465257
_cell_length_b 13.152959
_cell_length_c 20.198418
_cell_angle_alpha 90.000000
_cell_angle_beta 50.936366
_cell_angle_gamma 90.000000
_cell_volume 2571.305155
_symmetry_space_group_name_H-M "C 2/C"
_symmetry_group_IT_number 15
_symmetry_cell_setting 'monoclinic'
loop_
_space_group_symop_operation_xyz
x,y,z
-x,y,1/2-z
-x,-y,-z
x,-y,1/2+z
1/2+x,1/2+y,z
1/2-x,1/2+y,1/2-z
1/2-x,1/2-y,-z
1/2+x,1/2-y,1/2+z
loop_
_atom_site_type_symbol
_atom_site_label
_atom_site_fract_x
_atom_site_fract_y
_atom_site_fract_z
Si Si1 0.154014 0.973234 0.869367
Si Si2 0.738217 0.673206 0.090081
Si Si3 0.500000 0.786761 0.250000
Si Si4 0.371370 0.375235 0.002677
Si Si5 0.096010 0.658954 0.274587
Si Si6 0.764646 0.361119 0.244987
Si Si7 0.908585 0.478972 0.601284
O O1 0.148471 0.060119 0.815702
O O2 0.294158 0.916842 0.800187
O O3 0.159879 0.033182 0.935882
O O4 0.026794 0.896171 0.919042
O O5 0.730701 0.626788 0.019918
O O6 0.781367 0.589659 0.125519
O O7 0.000000 0.500000 0.000000
O O8 0.846369 0.766736 0.047195
O O9 0.589177 0.719478 0.164832
O O10 0.382709 0.846880 0.255394
O O11 0.185641 0.755920 0.263412
O O12 0.032455 0.592394 0.361039
O O13 0.000000 0.689240 0.250000
O O14 0.848278 0.415688 0.153371
#
# Coordination Sequence:
#
# PCOD9288974 Si02
#       7
#     8   8   4   8   8   8   8
#     4  10  22  41  66  97 131 177 220 269 339 406
#     4  11  24  40  69 100 131 172 226 287 333 392
#     4  12  22  44  72  94 132 172 236 274 340 396
#     4  10  22  39  69  98 132 167 227 278 335 391
#     4  11  25  45  67  95 136 181 221 268 346 403
#     4  11  25  44  67  98 132 182 219 281 333 407
#     4  11  27  43  68  99 134 173 228 279 336 398
#
# _framework density 20.223192999999998
#
# number of rings (size 3 to 8) (size 9 to 14) (size 15 to 20)
#    0.000    1.231    3.077    0.923   15.077    1.231 
#    0.000    0.769    0.000    0.000    0.000    0.000 
#    0.000    0.000    0.000    0.000    0.000    0.000 
#
# Total GULP energy -145062.588098 kJ/mol
# GULP energy per Si atom -5579.330311 kJ/mol
# Density = 2.017716 g / cm^3
# Si number density = 20.223193 Si / 1000 Ang^3
#
#
#
# Elastic Constant Matrix: (Units=GPa)
#
#
# Indices 1 2 3 4 5 6 
#
# 1 70.8146 42.3083 25.9982 0.0000 7.8988 0.0000
# 2 42.3083 89.7271 34.9661 0.0000 2.7044 0.0000
# 3 25.9982 34.9661 116.7664 0.0000 0.3466 0.0000
# 4 0.0000 0.0000 0.0000 17.5669 0.0000 18.9287
# 5 7.8988 2.7044 0.3466 0.0000 25.2857 0.0000
# 6 0.0000 0.0000 0.0000 18.9287 0.0000 10.4438
#
#
#
# Elastic Compliance Matrix: (Units=1/GPa)
#
#
# Indices 1 2 3 4 5 6 
#
# 1 0.020741 -0.008854 -0.001950 0.000000 -0.005506 0.000000
# 2 -0.008854 0.016440 -0.002955 0.000000 0.001048 0.000000
# 3 -0.001950 -0.002955 0.009881 0.000000 0.000790 0.000000
# 4 0.000000 0.000000 0.000000 -0.059737 0.000000 0.108269
# 5 -0.005506 0.001048 0.000790 0.000000 0.041145 0.000000
# 6 0.000000 0.000000 0.000000 0.108269 0.000000 -0.100479
#
#
# Mechanical properties :
#
#
# Convention : Reuss Voigt Hill
#
# Bulk Modulus (GPa) = 51.16750 53.76149 52.46450
# Shear Modulus (GPa) = -131.65882 22.26166 -54.69858
#
# Velocity S-wave (km/s) = -8.07739 3.32143 -5.20636
# Velocity P-wave (km/s) = 7.85086 6.43047 3.18473
#
# Compressibility (1/GPa) = 0.01954366
#
# Stress axis : x y z
#
# Youngs Moduli (GPa) = 48.21280 60.82877 101.20643
#
# Poissons Ratio (x) = 0.53858 0.19739
# Poissons Ratio (y) = 0.42688 0.29903
# Poissons Ratio (z) = 0.09403 0.17973
#
# Static dielectric constant tensor:
#      x y z
#    x 1.715650 0.000000 0.032800 
#    y 0.000000 1.729900 0.000000 
#    z 0.032800 0.000000 1.772430 
# 
# From -- ./inp_files/197703.got.cif
#   From: 2010.05.17/outbox.cif.g08.bks.cpg/sg15_99_cif.got.tgz:197703.got - 2010.06.03 18:47:42.
