data_PCOD9288079
_publ_section_title
;
Structure prediction by ZEFSAII (Michael W. Deem and Ramdas Pophale) SiO2 
 PCOD9288079
Probable space group: C 2/C
;
_chemical_formula_sum "Si O2"
_cell_formula_units_Z 48
_cell_length_a 20.065606
_cell_length_b 20.577352
_cell_length_c 12.189481
_cell_angle_alpha 90.000000
_cell_angle_beta 29.476627
_cell_angle_gamma 90.000000
_cell_volume 2476.580903
_symmetry_space_group_name_H-M "C 2/C"
_symmetry_group_IT_number 15
_symmetry_cell_setting 'monoclinic'
loop_
_space_group_symop_operation_xyz
x,y,z
-x,y,1/2-z
-x,-y,-z
x,-y,1/2+z
1/2+x,1/2+y,z
1/2-x,1/2+y,1/2-z
1/2-x,1/2-y,-z
1/2+x,1/2-y,1/2+z
loop_
_atom_site_type_symbol
_atom_site_label
_atom_site_fract_x
_atom_site_fract_y
_atom_site_fract_z
Si Si1 0.930866 0.891364 0.011818
Si Si2 0.274993 0.459384 0.432335
Si Si3 0.639599 0.904904 0.105130
Si Si4 0.180366 0.794662 0.693833
Si Si5 0.000000 0.603355 0.250000
Si Si6 0.653529 0.838658 0.322775
Si Si7 0.500000 0.505317 0.750000
O O1 0.866941 0.918596 0.215858
O O2 0.810515 0.856271 0.118118
O O3 0.971018 0.956759 0.891186
O O4 0.053626 0.840288 0.844344
O O5 0.245710 0.535901 0.453227
O O6 0.362814 0.456182 0.417988
O O7 0.123114 0.432923 0.636056
O O8 0.500000 0.925728 0.250000
O O9 0.617844 0.877043 0.260466
O O10 0.702697 0.845780 0.944409
O O11 0.250000 0.750000 0.500000
O O12 0.135468 0.738658 0.839987
O O13 0.927434 0.639304 0.454454
#
# Coordination Sequence:
#
# PCOD9288079 Si02
#       7
#     8   8   8   8   4   8   4
#     4  11  22  40  63  91 128 167 209 265 323 380
#     4  11  23  39  63  95 128 161 213 258 329 384
#     4  11  22  37  64  99 124 160 214 276 320 377
#     4  10  22  38  63  92 121 165 212 266 317 374
#     4  10  24  46  63  89 128 184 212 258 322 390
#     4  10  23  42  65  87 129 172 215 267 315 384
#     4  12  20  38  59  93 132 162 196 268 330 382
#
# _framework density 19.381558999999999
#
# number of rings (size 3 to 8) (size 9 to 14) (size 15 to 20)
#    0.000    1.333    4.167    1.500    4.667    2.000 
#    0.000    4.167    0.000    0.000    0.000    0.000 
#    0.000    0.000    0.000    0.000    0.000    0.000 
#
# Total GULP energy -133657.127112 kJ/mol
# GULP energy per Si atom -5569.046963 kJ/mol
# Density = 1.933745 g / cm^3
# Si number density = 19.381559 Si / 1000 Ang^3
#
#
#
# Elastic Constant Matrix: (Units=GPa)
#
#
# Indices 1 2 3 4 5 6 
#
# 1 118.0874 39.3341 45.6754 -0.0004 -31.4953 0.0002
# 2 39.3341 80.4499 38.1705 -0.0006 -0.9593 0.0001
# 3 45.6754 38.1705 88.2790 -0.0010 -21.5975 0.0001
# 4 -0.0004 -0.0006 -0.0010 19.8307 0.0003 -4.5388
# 5 -31.4953 -0.9593 -21.5975 0.0003 27.9986 -0.0001
# 6 0.0002 0.0001 0.0001 -4.5388 -0.0001 29.8153
#
#
#
# Elastic Compliance Matrix: (Units=1/GPa)
#
#
# Indices 1 2 3 4 5 6 
#
# 1 0.015570 -0.006929 -0.001027 0.000000 0.016485 0.000000
# 2 -0.006929 0.019516 -0.008131 0.000000 -0.013398 0.000000
# 3 -0.001027 -0.008131 0.018519 0.000001 0.012851 0.000000
# 4 0.000000 0.000000 0.000001 0.052247 0.000000 0.007954
# 5 0.016485 -0.013398 0.012851 0.000000 0.063715 0.000000
# 6 0.000000 0.000000 0.000000 0.007954 0.000000 0.034751
#
#
# Mechanical properties :
#
#
# Convention : Reuss Voigt Hill
#
# Bulk Modulus (GPa) = 46.66105 59.24179 52.95142
# Shear Modulus (GPa) = 20.52243 26.43800 23.48021
#
# Velocity S-wave (km/s) = 3.25755 3.69735 3.48440
# Velocity P-wave (km/s) = 6.18677 6.98997 6.60059
#
# Compressibility (1/GPa) = 0.02143115
#
# Stress axis : x y z
#
# Youngs Moduli (GPa) = 64.22466 51.23982 53.99862
#
# Poissons Ratio (x) = 0.35504 0.05545
# Poissons Ratio (y) = 0.44501 0.43908
# Poissons Ratio (z) = 0.06596 0.41664
#
# Static dielectric constant tensor:
#      x y z
#    x 1.680100 0.000000 -0.018970 
#    y 0.000000 1.696680 0.000000 
#    z -0.018970 0.000000 1.705370 
# 
# From -- ./inp_files/89825.got.cif
#   From: 2010.05.17/outbox.cif.g08.bks.cpg/sg15_45_cif.got.tgz:89825.got - 2010.06.03 18:47:42.
