data_PCOD9288010
_publ_section_title
;
Structure prediction by ZEFSAII (Michael W. Deem and Ramdas Pophale) SiO2 
 PCOD9288010
Probable space group: C 2/C
;
_chemical_formula_sum "Si O2"
_cell_formula_units_Z 36
_cell_length_a 27.091230
_cell_length_b 5.978378
_cell_length_c 10.675780
_cell_angle_alpha 90.000000
_cell_angle_beta 65.379375
_cell_angle_gamma 90.000000
_cell_volume 1571.870542
_symmetry_space_group_name_H-M "C 2/C"
_symmetry_group_IT_number 15
_symmetry_cell_setting 'monoclinic'
loop_
_space_group_symop_operation_xyz
x,y,z
-x,y,1/2-z
-x,-y,-z
x,-y,1/2+z
1/2+x,1/2+y,z
1/2-x,1/2+y,1/2-z
1/2-x,1/2-y,-z
1/2+x,1/2-y,1/2+z
loop_
_atom_site_type_symbol
_atom_site_label
_atom_site_fract_x
_atom_site_fract_y
_atom_site_fract_z
Si Si1 0.191693 0.135396 0.568494
Si Si2 0.404734 0.852144 0.914038
Si Si3 0.500000 0.477574 0.250000
Si Si4 0.964004 0.299914 0.476063
Si Si5 0.862234 0.012720 0.128004
O O1 0.250000 0.250000 0.500000
O O2 0.149515 0.342987 0.606627
O O3 0.176428 0.005471 0.711359
O O4 0.173342 0.992279 0.464284
O O5 0.447231 0.673136 0.818293
O O6 0.435001 0.081839 0.888909
O O7 0.388544 0.756519 0.069479
O O8 0.502811 0.618310 0.373417
O O9 0.911412 0.167936 0.587056
O O10 0.000000 0.500000 0.500000
#
# Coordination Sequence:
#
# PCOD9288010 Si02
#       5
#     8   8   4   8   8
#     4  10  23  48  72  94 137 182 231 295 349 399
#     4   9  23  41  66 100 141 177 235 276 360 409
#     4  10  22  38  62 100 144 176 222 290 342 420
#     4  11  24  36  69 101 140 188 230 277 356 425
#     4   9  24  44  69 102 137 179 235 291 345 422
#
# _framework density 22.902650000000001
#
# number of rings (size 3 to 8) (size 9 to 14) (size 15 to 20)
#    1.333    0.889    0.000    0.667    9.333    3.556 
#    0.000    2.222    0.000    0.000    0.000    0.000 
#    0.000    0.000    0.000    0.000    0.000    0.000 
#
# Total GULP energy -100206.089899 kJ/mol
# GULP energy per Si atom -5567.004994 kJ/mol
# Density = 2.285052 g / cm^3
# Si number density = 22.902650 Si / 1000 Ang^3
#
#
#
# Elastic Constant Matrix: (Units=GPa)
#
#
# Indices 1 2 3 4 5 6 
#
# 1 138.1510 25.4094 65.7669 0.0000 -15.7396 0.0000
# 2 25.4094 37.1175 26.4144 0.0000 -3.5522 0.0000
# 3 65.7669 26.4144 162.0141 0.0000 3.4907 0.0000
# 4 0.0000 0.0000 0.0000 14.9610 0.0000 -2.1309
# 5 -15.7396 -3.5522 3.4907 0.0000 41.4371 0.0000
# 6 0.0000 0.0000 0.0000 -2.1309 0.0000 25.7802
#
#
#
# Elastic Compliance Matrix: (Units=1/GPa)
#
#
# Indices 1 2 3 4 5 6 
#
# 1 0.010087 -0.004040 -0.003517 0.000000 0.003781 0.000000
# 2 -0.004040 0.032482 -0.003689 0.000000 0.001561 0.000000
# 3 -0.003517 -0.003689 0.008252 0.000000 -0.002347 0.000000
# 4 0.000000 0.000000 0.000000 0.067637 0.000000 0.005590
# 5 0.003781 0.001561 -0.002347 0.000000 0.025901 0.000000
# 6 0.000000 0.000000 0.000000 0.005590 0.000000 0.039251
#
#
# Mechanical properties :
#
#
# Convention : Reuss Voigt Hill
#
# Bulk Modulus (GPa) = 35.30154 63.60710 49.45432
# Shear Modulus (GPa) = 23.19686 31.08179 27.13932
#
# Velocity S-wave (km/s) = 3.18598 3.68792 3.44610
# Velocity P-wave (km/s) = 5.38341 6.77993 6.12162
#
# Compressibility (1/GPa) = 0.02832737
#
# Stress axis : x y z
#
# Youngs Moduli (GPa) = 99.13979 30.78615 121.17972
#
# Poissons Ratio (x) = 0.12438 0.42623
# Poissons Ratio (y) = 0.40053 0.44709
# Poissons Ratio (z) = 0.34871 0.11358
#
# Static dielectric constant tensor:
#      x y z
#    x 1.916900 0.000000 0.007160 
#    y 0.000000 1.907900 0.000000 
#    z 0.007160 0.000000 1.970740 
# 
# From -- ./inp_files/124714.got.cif
#   From: 2010.05.17/outbox.cif.g08.bks.cpg/sg15_63_cif.got.tgz:124714.got - 2010.06.03 18:47:42.
