data_PCOD9288773
_publ_section_title
;
Structure prediction by ZEFSAII (Michael W. Deem and Ramdas Pophale) SiO2 
 PCOD9288773
Probable space group: C 2/C
;
_chemical_formula_sum "Si O2"
_cell_formula_units_Z 60
_cell_length_a 24.970342
_cell_length_b 14.194113
_cell_length_c 15.525431
_cell_angle_alpha 90.000000
_cell_angle_beta 148.356625
_cell_angle_gamma 90.000000
_cell_volume 2886.888338
_symmetry_space_group_name_H-M "C 2/C"
_symmetry_group_IT_number 15
_symmetry_cell_setting 'monoclinic'
loop_
_space_group_symop_operation_xyz
x,y,z
-x,y,1/2-z
-x,-y,-z
x,-y,1/2+z
1/2+x,1/2+y,z
1/2-x,1/2+y,1/2-z
1/2-x,1/2-y,-z
1/2+x,1/2-y,1/2+z
loop_
_atom_site_type_symbol
_atom_site_label
_atom_site_fract_x
_atom_site_fract_y
_atom_site_fract_z
Si Si1 0.289172 0.695836 0.271534
Si Si2 0.003292 0.704859 0.480819
Si Si3 0.039115 0.447937 0.897407
Si Si4 0.500000 0.579311 0.750000
Si Si5 0.237529 0.130932 0.804681
Si Si6 0.153919 0.182435 0.853553
Si Si7 0.437864 0.830182 0.082220
Si Si8 0.419605 0.504800 0.468263
O O1 0.379379 0.761186 0.357398
O O2 0.255588 0.758552 0.309065
O O3 0.343599 0.595003 0.357772
O O4 0.184407 0.681084 0.075648
O O5 0.990964 0.604920 0.413943
O O6 0.937012 0.771972 0.327694
O O7 0.966135 0.709904 0.527342
O O8 0.030595 0.559801 0.884725
O O9 0.000000 0.411480 0.750000
O O10 0.157125 0.421257 0.065039
O O11 0.598319 0.642962 0.861247
O O12 0.479707 0.518486 0.638507
O O13 0.201631 0.108004 0.852485
O O14 0.150262 0.087567 0.625838
O O15 0.250000 0.250000 0.000000
O O16 0.500000 0.792969 0.250000
O O17 0.500000 0.500000 0.500000
#
# Coordination Sequence:
#
# PCOD9288773 Si02
#       8
#     8   8   8   4   8   8   8   8
#     4  11  23  45  71  97 137 181 234 287 346 417
#     4  11  23  41  67  97 138 175 220 294 352 398
#     4  10  22  39  64  97 131 171 224 280 341 410
#     4  12  26  42  68 106 134 182 230 286 352 426
#     4  11  22  43  68  99 135 183 217 285 350 399
#     4  12  24  38  67 105 136 172 231 285 356 412
#     4  11  24  44  66  95 133 185 236 278 340 420
#     4  12  24  47  69 100 145 181 233 289 353 416
#
# _framework density 20.783622999999999
#
# number of rings (size 3 to 8) (size 9 to 14) (size 15 to 20)
#    0.000    0.800    5.333    2.000    2.800    0.533 
#    1.200    5.333    0.000    0.000    0.000    0.000 
#    0.000    0.000    0.000    0.000    0.000    0.000 
#
# Total GULP energy -167380.214474 kJ/mol
# GULP energy per Si atom -5579.340482 kJ/mol
# Density = 2.073632 g / cm^3
# Si number density = 20.783623 Si / 1000 Ang^3
#
#
#
# Elastic Constant Matrix: (Units=GPa)
#
#
# Indices 1 2 3 4 5 6 
#
# 1 119.8436 21.5761 53.6348 0.0000 -5.9824 0.0000
# 2 21.5761 57.7562 14.7003 0.0000 -6.5956 0.0000
# 3 53.6348 14.7003 135.6922 0.0000 -9.6566 0.0000
# 4 0.0000 0.0000 0.0000 21.4071 0.0000 -7.4055
# 5 -5.9824 -6.5956 -9.6566 0.0000 32.7869 0.0000
# 6 0.0000 0.0000 0.0000 -7.4055 0.0000 18.5770
#
#
#
# Elastic Compliance Matrix: (Units=1/GPa)
#
#
# Indices 1 2 3 4 5 6 
#
# 1 0.010615 -0.002960 -0.003861 0.000000 0.000204 0.000000
# 2 -0.002960 0.018940 -0.000663 0.000000 0.003075 0.000000
# 3 -0.003861 -0.000663 0.009099 0.000000 0.001842 0.000000
# 4 0.000000 0.000000 0.000000 0.054186 0.000000 0.021601
# 5 0.000204 0.003075 0.001842 0.000000 0.031698 0.000000
# 6 0.000000 0.000000 0.000000 0.021601 0.000000 0.062441
#
#
# Mechanical properties :
#
#
# Convention : Reuss Voigt Hill
#
# Bulk Modulus (GPa) = 42.21809 54.79047 48.50428
# Shear Modulus (GPa) = 23.82763 29.44627 26.63695
#
# Velocity S-wave (km/s) = 3.38962 3.76813 3.58387
# Velocity P-wave (km/s) = 5.97299 6.73433 6.36505
#
# Compressibility (1/GPa) = 0.02368653
#
# Stress axis : x y z
#
# Youngs Moduli (GPa) = 94.20632 52.79921 109.90798
#
# Poissons Ratio (x) = 0.15626 0.42431
# Poissons Ratio (y) = 0.27880 0.07289
# Poissons Ratio (z) = 0.36369 0.03502
#
# Static dielectric constant tensor:
#      x y z
#    x 1.760370 0.000000 0.006090 
#    y 0.000000 1.794980 0.000000 
#    z 0.006090 0.000000 1.743240 
# 
# From -- ./inp_files/178572.got.cif
#   From: 2010.05.17/outbox.cif.g08.bks.cpg/sg15_90_cif.got.tgz:178572.got - 2010.06.03 18:47:42.
