data_PCOD9288210
_publ_section_title
;
Structure prediction by ZEFSAII (Michael W. Deem and Ramdas Pophale) SiO2 
 PCOD9288210
Probable space group: C 2/C
;
_chemical_formula_sum "Si O2"
_cell_formula_units_Z 40
_cell_length_a 14.331665
_cell_length_b 21.969209
_cell_length_c 8.379407
_cell_angle_alpha 90.000000
_cell_angle_beta 131.771789
_cell_angle_gamma 90.000000
_cell_volume 1967.655738
_symmetry_space_group_name_H-M "C 2/C"
_symmetry_group_IT_number 15
_symmetry_cell_setting 'monoclinic'
loop_
_space_group_symop_operation_xyz
x,y,z
-x,y,1/2-z
-x,-y,-z
x,-y,1/2+z
1/2+x,1/2+y,z
1/2-x,1/2+y,1/2-z
1/2-x,1/2-y,-z
1/2+x,1/2-y,1/2+z
loop_
_atom_site_type_symbol
_atom_site_label
_atom_site_fract_x
_atom_site_fract_y
_atom_site_fract_z
Si Si1 0.112566 0.196694 0.248411
Si Si2 0.568230 0.578492 0.056096
Si Si3 0.333112 0.518653 0.641868
Si Si4 0.623803 0.165854 0.780460
Si Si5 0.425042 0.946970 0.508875
O O1 0.082397 0.149815 0.074473
O O2 0.245815 0.173985 0.473180
O O3 0.115912 0.266472 0.195536
O O4 0.000000 0.192063 0.250000
O O5 0.614373 0.549136 0.274084
O O6 0.427911 0.558835 0.856562
O O7 0.651311 0.545808 0.015471
O O8 0.196015 0.522300 0.551829
O O9 0.500000 0.159485 0.750000
O O10 0.616723 0.108524 0.653389
O O11 0.500000 0.000000 0.500000
O O12 0.500000 0.923797 0.750000
#
# Coordination Sequence:
#
# PCOD9288210 Si02
#       5
#     8   8   8   8   8
#     4  10  22  42  70  89 124 169 216 264 314 386
#     4  10  22  38  65  90 124 160 206 273 308 374
#     4  10  23  39  58  96 122 159 212 249 326 368
#     4  10  24  43  65  95 123 169 219 256 321 386
#     4  12  26  41  63  94 132 174 205 265 322 394
#
# _framework density 20.328759000000002
#
# number of rings (size 3 to 8) (size 9 to 14) (size 15 to 20)
#    0.000    1.600    0.000    3.000   16.800    0.000 
#    3.600    1.000    0.000    0.000    0.000    0.000 
#    0.000    0.000    0.000    0.000    0.000    0.000 
#
# Total GULP energy -111615.341300 kJ/mol
# GULP energy per Si atom -5580.767065 kJ/mol
# Density = 2.028249 g / cm^3
# Si number density = 20.328759 Si / 1000 Ang^3
#
#
#
# Elastic Constant Matrix: (Units=GPa)
#
#
# Indices 1 2 3 4 5 6 
#
# 1 116.8604 4.9660 15.6626 0.0000 18.2220 0.0000
# 2 4.9660 103.2476 21.4098 0.0000 -11.3058 0.0000
# 3 15.6626 21.4098 44.9204 0.0000 11.3104 0.0000
# 4 0.0000 0.0000 0.0000 35.5850 0.0000 -0.4717
# 5 18.2220 -11.3058 11.3104 0.0000 36.6902 0.0000
# 6 0.0000 0.0000 0.0000 -0.4717 0.0000 12.4394
#
#
#
# Elastic Compliance Matrix: (Units=1/GPa)
#
#
# Indices 1 2 3 4 5 6 
#
# 1 0.009512 -0.000510 -0.002000 0.000000 -0.004265 0.000000
# 2 -0.000510 0.011819 -0.006978 0.000000 0.006046 0.000000
# 3 -0.002000 -0.006978 0.028812 0.000000 -0.010039 0.000000
# 4 0.000000 0.000000 0.000000 0.028116 0.000000 0.001066
# 5 -0.004265 0.006046 -0.010039 0.000000 0.034331 0.000000
# 6 0.000000 0.000000 0.000000 0.001066 0.000000 0.080430
#
#
# Mechanical properties :
#
#
# Convention : Reuss Voigt Hill
#
# Bulk Modulus (GPa) = 32.08365 38.78946 35.43655
# Shear Modulus (GPa) = 22.48365 31.80892 27.14629
#
# Velocity S-wave (km/s) = 3.32927 3.95995 3.65823
# Velocity P-wave (km/s) = 5.53131 6.32699 5.94248
#
# Compressibility (1/GPa) = 0.03116852
#
# Stress axis : x y z
#
# Youngs Moduli (GPa) = 105.13147 84.60991 34.70753
#
# Poissons Ratio (x) = 0.04314 0.06941
# Poissons Ratio (y) = 0.05360 0.24218
# Poissons Ratio (z) = 0.21024 0.59038
#
# Static dielectric constant tensor:
#      x y z
#    x 1.739690 0.000000 0.007260 
#    y 0.000000 1.718940 0.000000 
#    z 0.007260 0.000000 1.794220 
# 
# From -- ./inp_files/41069.got.cif
#   From: 2010.05.17/outbox.cif.g08.bks.cpg/sg15_21_cif.got.tgz:41069.got - 2010.06.03 18:47:42.
