data_PCOD9288794
_publ_section_title
;
Structure prediction by ZEFSAII (Michael W. Deem and Ramdas Pophale) SiO2 
 PCOD9288794
Probable space group: C 2/C
;
_chemical_formula_sum "Si O2"
_cell_formula_units_Z 44
_cell_length_a 10.944571
_cell_length_b 18.712112
_cell_length_c 10.545238
_cell_angle_alpha 90.000000
_cell_angle_beta 82.498246
_cell_angle_gamma 90.000000
_cell_volume 2141.138461
_symmetry_space_group_name_H-M "C 2/C"
_symmetry_group_IT_number 15
_symmetry_cell_setting 'monoclinic'
loop_
_space_group_symop_operation_xyz
x,y,z
-x,y,1/2-z
-x,-y,-z
x,-y,1/2+z
1/2+x,1/2+y,z
1/2-x,1/2+y,1/2-z
1/2-x,1/2-y,-z
1/2+x,1/2-y,1/2+z
loop_
_atom_site_type_symbol
_atom_site_label
_atom_site_fract_x
_atom_site_fract_y
_atom_site_fract_z
Si Si1 0.067466 0.963972 0.373227
Si Si2 0.880304 0.798366 0.181455
Si Si3 0.614408 0.167786 0.823946
Si Si4 0.500000 0.924903 0.750000
Si Si5 0.840915 0.542554 0.853998
Si Si6 0.084092 0.338642 0.956462
O O1 0.085194 0.877556 0.374113
O O2 0.206978 0.990241 0.359371
O O3 0.000000 0.980081 0.250000
O O4 0.000000 0.000000 0.500000
O O5 0.749989 0.801252 0.275911
O O6 0.866117 0.740570 0.072311
O O7 0.000000 0.777971 0.250000
O O8 0.500000 0.195933 0.750000
O O9 0.629615 0.084978 0.780258
O O10 0.555562 0.170938 0.970824
O O11 0.588707 0.876127 0.819924
O O12 0.432384 0.977199 0.857266
O O13 0.851890 0.606120 0.955231
#
# Coordination Sequence:
#
# PCOD9288794 Si02
#       6
#     8   8   8   4   8   8
#     4  10  24  44  67  93 133 175 216 268 336 398
#     4  10  22  43  63  96 135 169 217 275 328 395
#     4   9  20  39  61  88 123 169 213 264 326 375
#     4  12  22  36  64  98 120 166 218 270 324 380
#     4  10  22  39  65  91 127 167 217 270 315 387
#     4  11  22  40  65  95 129 170 218 271 328 378
#
# _framework density 20.549814000000001
#
# number of rings (size 3 to 8) (size 9 to 14) (size 15 to 20)
#    0.000    1.818    3.636    0.545    2.545   10.182 
#    3.273    2.727    0.000    0.000    0.000    0.000 
#    0.000    0.000    0.000    0.000    0.000    0.000 
#
# Total GULP energy -122533.731797 kJ/mol
# GULP energy per Si atom -5569.715082 kJ/mol
# Density = 2.050304 g / cm^3
# Si number density = 20.549814 Si / 1000 Ang^3
#
#
#
# Elastic Constant Matrix: (Units=GPa)
#
#
# Indices 1 2 3 4 5 6 
#
# 1 135.1598 27.8786 36.8871 0.0000 -15.7301 0.0000
# 2 27.8786 55.4052 31.7215 0.0000 -0.9398 0.0000
# 3 36.8871 31.7215 88.8587 0.0000 -5.3172 0.0000
# 4 0.0000 0.0000 0.0000 13.8327 0.0000 -18.6440
# 5 -15.7301 -0.9398 -5.3172 0.0000 31.8738 0.0000
# 6 0.0000 0.0000 0.0000 -18.6440 0.0000 0.8980
#
#
#
# Elastic Compliance Matrix: (Units=1/GPa)
#
#
# Indices 1 2 3 4 5 6 
#
# 1 0.009186 -0.003153 -0.002446 0.000000 0.004032 0.000000
# 2 -0.003153 0.023783 -0.007305 0.000000 -0.002074 0.000000
# 3 -0.002446 -0.007305 0.014941 0.000000 0.001070 0.000000
# 4 0.000000 0.000000 0.000000 -0.002679 0.000000 -0.055624
# 5 0.004032 -0.002074 0.001070 0.000000 0.033481 0.000000
# 6 0.000000 0.000000 0.000000 -0.055624 0.000000 -0.041270
#
#
# Mechanical properties :
#
#
# Convention : Reuss Voigt Hill
#
# Bulk Modulus (GPa) = 45.24802 52.48868 48.86835
# Shear Modulus (GPa) = 70.80290 21.51666 46.15978
#
# Velocity S-wave (km/s) = 5.87614 3.23932 4.74459
# Velocity P-wave (km/s) = 8.25259 6.29195 7.33805
#
# Compressibility (1/GPa) = 0.02210041
#
# Stress axis : x y z
#
# Youngs Moduli (GPa) = 108.86169 42.04718 66.92864
#
# Poissons Ratio (x) = 0.13258 0.16373
# Poissons Ratio (y) = 0.34326 0.48893
# Poissons Ratio (z) = 0.26632 0.30717
#
# Static dielectric constant tensor:
#      x y z
#    x 1.936290 0.000000 -0.155400 
#    y 0.000000 1.728360 0.000000 
#    z -0.155400 0.000000 1.940820 
# 
# From -- ./inp_files/87146.got.cif
#   From: 2010.05.17/outbox.cif.g08.bks.cpg/sg15_44_cif.got.tgz:87146.got - 2010.06.03 18:47:42.
