data_PCOD9288286
_publ_section_title
;
Structure prediction by ZEFSAII (Michael W. Deem and Ramdas Pophale) SiO2 
 PCOD9288286
Probable space group: C 2/C
;
_chemical_formula_sum "Si O2"
_cell_formula_units_Z 48
_cell_length_a 12.734148
_cell_length_b 29.649356
_cell_length_c 5.655433
_cell_angle_alpha 90.000000
_cell_angle_beta 74.393348
_cell_angle_gamma 90.000000
_cell_volume 2056.537030
_symmetry_space_group_name_H-M "C 2/C"
_symmetry_group_IT_number 15
_symmetry_cell_setting 'monoclinic'
loop_
_space_group_symop_operation_xyz
x,y,z
-x,y,1/2-z
-x,-y,-z
x,-y,1/2+z
1/2+x,1/2+y,z
1/2-x,1/2+y,1/2-z
1/2-x,1/2-y,-z
1/2+x,1/2-y,1/2+z
loop_
_atom_site_type_symbol
_atom_site_label
_atom_site_fract_x
_atom_site_fract_y
_atom_site_fract_z
Si Si1 0.888956 0.851408 0.413303
Si Si2 0.338007 0.263810 0.648318
Si Si3 0.458533 0.948375 0.528908
Si Si4 0.374751 0.482763 0.067906
Si Si5 0.238148 0.908275 0.622586
Si Si6 0.214089 0.320822 0.126740
O O1 0.919611 0.802359 0.510326
O O2 0.832296 0.885528 0.629050
O O3 0.800473 0.837041 0.272010
O O4 0.000000 0.871576 0.250000
O O5 0.250000 0.250000 0.500000
O O6 0.373307 0.214452 0.716949
O O7 0.276385 0.291268 0.891731
O O8 0.500000 0.926883 0.750000
O O9 0.328657 0.945033 0.628633
O O10 0.500000 0.000000 0.500000
O O11 0.500000 0.930162 0.250000
O O12 0.345832 0.568105 0.507228
O O13 0.332723 0.510135 0.860675
O O14 0.500000 0.500000 0.000000
O O15 0.313248 0.867654 0.478115
#
# Coordination Sequence:
#
# PCOD9288286 Si02
#       6
#     8   8   8   8   8   8
#     4  10  22  38  67 105 149 192 236 282 363 456
#     4   8  16  36  63  93 131 187 230 283 343 426
#     4  10  25  46  76 103 131 181 254 318 382 437
#     4  10  25  44  65  97 143 194 238 291 369 453
#     4  11  25  41  74 101 146 191 243 317 370 435
#     4   9  19  37  67  94 141 183 235 290 360 422
#
# _framework density 23.340206999999999
#
# number of rings (size 3 to 8) (size 9 to 14) (size 15 to 20)
#    0.000    2.333    0.000    0.000    9.333    5.333 
#    0.000    0.000   22.000    0.000    0.000    0.000 
#    0.000    0.000    0.000    0.000    0.000    0.000 
#
# Total GULP energy -133622.416570 kJ/mol
# GULP energy per Si atom -5567.600690 kJ/mol
# Density = 2.328708 g / cm^3
# Si number density = 23.340207 Si / 1000 Ang^3
#
#
#
# Elastic Constant Matrix: (Units=GPa)
#
#
# Indices 1 2 3 4 5 6 
#
# 1 95.2524 49.0239 48.1789 0.0000 -2.0890 0.0000
# 2 49.0239 126.8656 49.3285 0.0000 -5.2561 0.0000
# 3 48.1789 49.3285 149.9267 0.0000 20.2727 0.0000
# 4 0.0000 0.0000 0.0000 34.5159 0.0000 11.8975
# 5 -2.0890 -5.2561 20.2727 0.0000 39.9471 0.0000
# 6 0.0000 0.0000 0.0000 11.8975 0.0000 23.6145
#
#
#
# Elastic Compliance Matrix: (Units=1/GPa)
#
#
# Indices 1 2 3 4 5 6 
#
# 1 0.014468 -0.004120 -0.003568 0.000000 0.002025 0.000000
# 2 -0.004120 0.010535 -0.002470 0.000000 0.002424 0.000000
# 3 -0.003568 -0.002470 0.009339 0.000000 -0.005251 0.000000
# 4 0.000000 0.000000 0.000000 0.035061 0.000000 -0.017664
# 5 0.002025 0.002424 -0.005251 0.000000 0.028123 0.000000
# 6 0.000000 0.000000 0.000000 -0.017664 0.000000 0.051247
#
#
# Mechanical properties :
#
#
# Convention : Reuss Voigt Hill
#
# Bulk Modulus (GPa) = 71.29030 73.90081 72.59556
# Shear Modulus (GPa) = 28.77486 34.64973 31.71229
#
# Velocity S-wave (km/s) = 3.51500 3.85717 3.69005
# Velocity P-wave (km/s) = 6.86177 7.18110 7.02325
#
# Compressibility (1/GPa) = 0.01402715
#
# Stress axis : x y z
#
# Youngs Moduli (GPa) = 69.12033 94.91989 107.07598
#
# Poissons Ratio (x) = 0.39103 0.38200
# Poissons Ratio (y) = 0.28474 0.26451
# Poissons Ratio (z) = 0.24659 0.23448
#
# Static dielectric constant tensor:
#      x y z
#    x 1.774220 0.000000 0.096840 
#    y 0.000000 1.977120 0.000000 
#    z 0.096840 0.000000 1.958530 
# 
# From -- ./inp_files/8949.got.cif
#   From: 2010.05.17/outbox.cif.g08.bks.cpg/sg15_5_cif.got.tgz:8949.got - 2010.06.03 18:47:42.
