data_PCOD9288104
_publ_section_title
;
Structure prediction by ZEFSAII (Michael W. Deem and Ramdas Pophale) SiO2 
 PCOD9288104
Probable space group: C 2/C
;
_chemical_formula_sum "Si O2"
_cell_formula_units_Z 52
_cell_length_a 5.213253
_cell_length_b 22.557611
_cell_length_c 22.109712
_cell_angle_alpha 90.000000
_cell_angle_beta 111.936626
_cell_angle_gamma 90.000000
_cell_volume 2411.818503
_symmetry_space_group_name_H-M "C 2/C"
_symmetry_group_IT_number 15
_symmetry_cell_setting 'monoclinic'
loop_
_space_group_symop_operation_xyz
x,y,z
-x,y,1/2-z
-x,-y,-z
x,-y,1/2+z
1/2+x,1/2+y,z
1/2-x,1/2+y,1/2-z
1/2-x,1/2-y,-z
1/2+x,1/2-y,1/2+z
loop_
_atom_site_type_symbol
_atom_site_label
_atom_site_fract_x
_atom_site_fract_y
_atom_site_fract_z
Si Si1 0.500000 0.597363 0.750000
Si Si2 0.642036 0.799215 0.826537
Si Si3 0.565706 0.408493 0.583785
Si Si4 0.462943 0.112921 0.872679
Si Si5 0.357859 0.219565 0.672979
Si Si6 0.300088 0.990933 0.184422
Si Si7 0.446321 0.070446 0.004365
O O1 0.702277 0.634056 0.809879
O O2 0.350176 0.555461 0.785113
O O3 0.500000 0.816543 0.750000
O O4 0.749601 0.855493 0.873287
O O5 0.416275 0.757783 0.839347
O O6 0.916947 0.761922 0.837683
O O7 0.610848 0.464257 0.632079
O O8 0.236104 0.400591 0.551909
O O9 0.696623 0.422476 0.529606
O O10 0.685916 0.162349 0.873723
O O11 0.543882 0.049362 0.851194
O O12 0.391809 0.101551 0.935319
O O13 0.500000 0.202219 0.750000
O O14 0.500000 0.023552 0.250000
O O15 0.500000 0.000000 0.000000
#
# Coordination Sequence:
#
# PCOD9288104 Si02
#       7
#     4   8   8   8   8   8   8
#     4  10  22  38  64 100 134 160 220 286 356 386
#     4  10  23  44  68  97 131 176 221 277 330 390
#     4  12  25  45  67  94 136 180 226 263 331 403
#     4  11  24  40  66  99 130 173 219 281 336 395
#     4  10  22  41  67  97 130 166 221 279 338 385
#     4  10  22  38  63  99 129 165 220 281 341 390
#     4  12  26  44  67  97 138 183 221 265 336 405
#
# _framework density 21.560493000000001
#
# number of rings (size 3 to 8) (size 9 to 14) (size 15 to 20)
#    0.000    1.231    1.538    4.154    9.692    0.000 
#    4.154    4.615    0.000    0.000    0.000    0.000 
#    0.000    0.000    0.000    0.000    0.000    0.000 
#
# Total GULP energy -145324.004272 kJ/mol
# GULP energy per Si atom -5589.384780 kJ/mol
# Density = 2.151142 g / cm^3
# Si number density = 21.560493 Si / 1000 Ang^3
#
#
#
# Elastic Constant Matrix: (Units=GPa)
#
#
# Indices 1 2 3 4 5 6 
#
# 1 84.4531 -3.7294 15.8737 0.0000 -1.3476 0.0000
# 2 -3.7294 65.7848 27.1398 0.0000 -2.6220 0.0000
# 3 15.8737 27.1398 80.3334 0.0000 -3.8910 0.0000
# 4 0.0000 0.0000 0.0000 15.9419 0.0000 -5.1680
# 5 -1.3476 -2.6220 -3.8910 0.0000 32.8417 0.0000
# 6 0.0000 0.0000 0.0000 -5.1680 0.0000 19.1613
#
#
#
# Elastic Compliance Matrix: (Units=1/GPa)
#
#
# Indices 1 2 3 4 5 6 
#
# 1 0.012525 0.002019 -0.003142 0.000000 0.000303 0.000000
# 2 0.002019 0.018005 -0.006445 0.000000 0.000757 0.000000
# 3 -0.003142 -0.006445 0.015303 0.000000 0.001170 0.000000
# 4 0.000000 0.000000 0.000000 0.068738 0.000000 0.018539
# 5 0.000303 0.000757 0.001170 0.000000 0.030660 0.000000
# 6 0.000000 0.000000 0.000000 0.018539 0.000000 0.057189
#
#
# Mechanical properties :
#
#
# Convention : Reuss Voigt Hill
#
# Bulk Modulus (GPa) = 32.57775 34.34883 33.46329
# Shear Modulus (GPa) = 21.95011 26.34146 24.14578
#
# Velocity S-wave (km/s) = 3.19418 3.49914 3.35013
# Velocity P-wave (km/s) = 5.36157 5.68254 5.52439
#
# Compressibility (1/GPa) = 0.03069580
#
# Stress axis : x y z
#
# Youngs Moduli (GPa) = 79.83724 55.54163 65.34671
#
# Poissons Ratio (x) = -0.11211 0.20534
# Poissons Ratio (y) = -0.16115 0.42115
# Poissons Ratio (z) = 0.25087 0.35796
#
# Static dielectric constant tensor:
#      x y z
#    x 1.851100 0.000000 0.042640 
#    y 0.000000 1.779620 0.000000 
#    z 0.042640 0.000000 1.782230 
# 
# From -- ./inp_files/227957.got.cif
#   From: 2010.05.17/outbox.cif.g08.bks.cpg/sg15_114_cif.got.tgz:227957.got - 2010.06.03 18:47:42.
