data_PCOD9288620
_publ_section_title
;
Structure prediction by ZEFSAII (Michael W. Deem and Ramdas Pophale) SiO2 
 PCOD9288620
Probable space group: C 2/C
;
_chemical_formula_sum "Si O2"
_cell_formula_units_Z 52
_cell_length_a 17.955414
_cell_length_b 7.864465
_cell_length_c 18.791734
_cell_angle_alpha 90.000000
_cell_angle_beta 54.998242
_cell_angle_gamma 90.000000
_cell_volume 2173.635168
_symmetry_space_group_name_H-M "C 2/C"
_symmetry_group_IT_number 15
_symmetry_cell_setting 'monoclinic'
loop_
_space_group_symop_operation_xyz
x,y,z
-x,y,1/2-z
-x,-y,-z
x,-y,1/2+z
1/2+x,1/2+y,z
1/2-x,1/2+y,1/2-z
1/2-x,1/2-y,-z
1/2+x,1/2-y,1/2+z
loop_
_atom_site_type_symbol
_atom_site_label
_atom_site_fract_x
_atom_site_fract_y
_atom_site_fract_z
Si Si1 0.318823 0.919191 0.127663
Si Si2 0.317024 0.373747 0.419353
Si Si3 0.012328 0.285083 0.000833
Si Si4 0.500000 0.377339 0.250000
Si Si5 0.253146 0.465940 0.693375
Si Si6 0.693744 0.660740 0.969191
Si Si7 0.552397 0.531591 0.867763
O O1 0.246549 0.967152 0.105179
O O2 0.426511 0.913786 0.049942
O O3 0.282571 0.725412 0.159796
O O4 0.317389 0.016680 0.203992
O O5 0.250000 0.250000 0.500000
O O6 0.405915 0.292802 0.331306
O O7 0.351079 0.504450 0.461637
O O8 0.116086 0.275801 0.974718
O O9 0.013669 0.206145 0.921092
O O10 0.974013 0.128713 0.070558
O O11 0.467818 0.491261 0.202810
O O12 0.243443 0.574158 0.626254
O O13 0.340564 0.549339 0.682122
O O14 0.750000 0.750000 0.000000
#
# Coordination Sequence:
#
# PCOD9288620 Si02
#       7
#     8   8   8   4   8   8   8
#     4  11  22  40  67  94 128 172 225 276 338 407
#     4  12  24  43  66 101 134 174 227 285 338 397
#     4   9  19  39  61  88 124 177 214 269 330 407
#     4  12  20  34  66 102 122 174 228 272 324 408
#     4  10  22  39  62  93 128 168 216 278 339 402
#     4  11  24  42  65  93 135 176 221 282 346 406
#     4   9  17  33  59  87 120 156 224 263 309 393
#
# _framework density 23.923058000000001
#
# number of rings (size 3 to 8) (size 9 to 14) (size 15 to 20)
#    0.000    1.538    4.615    1.846    2.154    0.000 
#    0.000    2.308    0.000    0.000    0.000    0.000 
#    0.000    0.000    0.000    0.000    0.000    0.000 
#
# Total GULP energy -144963.199230 kJ/mol
# GULP energy per Si atom -5575.507663 kJ/mol
# Density = 2.386861 g / cm^3
# Si number density = 23.923058 Si / 1000 Ang^3
#
#
#
# Elastic Constant Matrix: (Units=GPa)
#
#
# Indices 1 2 3 4 5 6 
#
# 1 125.3820 28.8663 45.5076 0.0000 11.5585 0.0004
# 2 28.8663 24.3928 7.0843 0.0000 1.0997 0.0009
# 3 45.5076 7.0843 110.2434 0.0000 2.0264 0.0000
# 4 0.0000 0.0000 0.0000 35.3620 0.0000 -4.0097
# 5 11.5585 1.0997 2.0264 0.0000 65.0070 0.0000
# 6 0.0004 0.0009 0.0000 -4.0097 0.0000 46.0559
#
#
#
# Elastic Compliance Matrix: (Units=1/GPa)
#
#
# Indices 1 2 3 4 5 6 
#
# 1 0.012980 -0.013988 -0.004424 0.000000 -0.001933 0.000000
# 2 -0.013988 0.056876 0.002093 0.000000 0.001460 -0.000001
# 3 -0.004424 0.002093 0.010755 0.000000 0.000416 0.000000
# 4 0.000000 0.000000 0.000000 0.028561 0.000000 0.002487
# 5 -0.001933 0.001460 0.000416 0.000000 0.015689 0.000000
# 6 0.000000 -0.000001 0.000000 0.002487 0.000000 0.021929
#
#
# Mechanical properties :
#
#
# Convention : Reuss Voigt Hill
#
# Bulk Modulus (GPa) = 20.84559 46.99272 33.91915
# Shear Modulus (GPa) = 25.58604 41.18898 33.38751
#
# Velocity S-wave (km/s) = 3.27389 4.15387 3.73985
# Velocity P-wave (km/s) = 4.79830 6.53392 5.73218
#
# Compressibility (1/GPa) = 0.04797178
#
# Stress axis : x y z
#
# Youngs Moduli (GPa) = 77.04217 17.58215 92.98227
#
# Poissons Ratio (x) = 0.24595 0.41131
# Poissons Ratio (y) = 1.07770 -0.19458
# Poissons Ratio (z) = 0.34080 -0.03679
#
# Static dielectric constant tensor:
#      x y z
#    x 1.941520 0.000000 -0.062380 
#    y 0.000000 2.021900 0.000000 
#    z -0.062380 0.000000 2.014840 
# 
# From -- ./inp_files/209458.got.cif
#   From: 2010.05.17/outbox.cif.g08.bks.cpg/sg15_105_cif.got.tgz:209458.got - 2010.06.03 18:47:42.
