data_PCOD9288671
_publ_section_title
;
Structure prediction by ZEFSAII (Michael W. Deem and Ramdas Pophale) SiO2 
 PCOD9288671
Probable space group: C 2/C
;
_chemical_formula_sum "Si O2"
_cell_formula_units_Z 48
_cell_length_a 8.585483
_cell_length_b 25.311787
_cell_length_c 11.727026
_cell_angle_alpha 90.000000
_cell_angle_beta 64.510212
_cell_angle_gamma 90.000000
_cell_volume 2300.385326
_symmetry_space_group_name_H-M "C 2/C"
_symmetry_group_IT_number 15
_symmetry_cell_setting 'monoclinic'
loop_
_space_group_symop_operation_xyz
x,y,z
-x,y,1/2-z
-x,-y,-z
x,-y,1/2+z
1/2+x,1/2+y,z
1/2-x,1/2+y,1/2-z
1/2-x,1/2-y,-z
1/2+x,1/2-y,1/2+z
loop_
_atom_site_type_symbol
_atom_site_label
_atom_site_fract_x
_atom_site_fract_y
_atom_site_fract_z
Si Si1 0.925930 0.865216 0.567636
Si Si2 0.591425 0.480238 0.849112
Si Si3 0.203299 0.725479 0.184296
Si Si4 0.432484 0.824293 0.144810
Si Si5 0.764179 0.804576 0.924446
Si Si6 0.845474 0.909672 0.209229
O O1 0.855419 0.920195 0.640740
O O2 0.773019 0.823977 0.588216
O O3 0.058435 0.833754 0.606573
O O4 0.055876 0.881420 0.425737
O O5 0.500000 0.476178 0.750000
O O6 0.716551 0.530536 0.794650
O O7 0.500000 0.500000 0.000000
O O8 0.323474 0.776192 0.125657
O O9 0.239558 0.708103 0.301769
O O10 0.000000 0.737665 0.250000
O O11 0.500000 0.808529 0.250000
O O12 0.306709 0.873217 0.200161
O O13 0.600487 0.837741 0.019276
O O14 0.750000 0.750000 0.000000
O O15 0.000000 0.914177 0.250000
#
# Coordination Sequence:
#
# PCOD9288671 Si02
#       6
#     8   8   8   8   8   8
#     4  11  21  41  66  86 122 165 206 246 303 375
#     4   9  19  37  64  89 118 161 208 252 309 367
#     4  12  26  38  57  90 124 158 199 252 308 358
#     4  12  22  39  61  88 122 159 206 249 301 372
#     4  12  22  39  62  88 120 162 204 246 300 371
#     4  10  22  39  63  92 120 158 202 257 309 355
#
# _framework density 20.866070000000001
#
# number of rings (size 3 to 8) (size 9 to 14) (size 15 to 20)
#    0.000    1.000    5.000    2.000    2.333    0.667 
#    0.000    0.833    0.000    3.000    0.000    0.000 
#    0.000    0.000    0.000    0.000    0.000    0.000 
#
# Total GULP energy -133796.111366 kJ/mol
# GULP energy per Si atom -5574.837974 kJ/mol
# Density = 2.081858 g / cm^3
# Si number density = 20.866070 Si / 1000 Ang^3
#
#
#
# Elastic Constant Matrix: (Units=GPa)
#
#
# Indices 1 2 3 4 5 6 
#
# 1 82.2800 31.2078 10.5857 0.0000 -15.0745 0.0000
# 2 31.2078 147.1845 9.3835 0.0000 -17.2241 0.0000
# 3 10.5857 9.3835 76.3171 0.0000 -1.3171 0.0000
# 4 0.0000 0.0000 0.0000 43.4108 0.0000 -4.3669
# 5 -15.0745 -17.2241 -1.3171 0.0000 40.4439 0.0000
# 6 0.0000 0.0000 0.0000 -4.3669 0.0000 24.7460
#
#
#
# Elastic Compliance Matrix: (Units=1/GPa)
#
#
# Indices 1 2 3 4 5 6 
#
# 1 0.014024 -0.002386 -0.001580 0.000000 0.004159 0.000000
# 2 -0.002386 0.007609 -0.000564 0.000000 0.002333 0.000000
# 3 -0.001580 -0.000564 0.013385 0.000000 -0.000393 0.000000
# 4 0.000000 0.000000 0.000000 0.023452 0.000000 0.004139
# 5 0.004159 0.002333 -0.000393 0.000000 0.027257 0.000000
# 6 0.000000 0.000000 0.000000 0.004139 0.000000 0.041141
#
#
# Mechanical properties :
#
#
# Convention : Reuss Voigt Hill
#
# Bulk Modulus (GPa) = 38.52506 45.34841 41.93674
# Shear Modulus (GPa) = 34.58272 38.69379 36.63826
#
# Velocity S-wave (km/s) = 4.07549 4.31093 4.19486
# Velocity P-wave (km/s) = 6.37568 6.82342 6.60335
#
# Compressibility (1/GPa) = 0.02595713
#
# Stress axis : x y z
#
# Youngs Moduli (GPa) = 71.30658 131.42197 74.71060
#
# Poissons Ratio (x) = 0.31358 0.11805
# Poissons Ratio (y) = 0.17014 0.04216
# Poissons Ratio (z) = 0.11267 0.07417
#
# Static dielectric constant tensor:
#      x y z
#    x 1.723760 0.000000 -0.066500 
#    y 0.000000 1.797630 0.000000 
#    z -0.066500 0.000000 1.610700 
# 
# From -- ./inp_files/79125.got.cif
#   From: 2010.05.17/outbox.cif.g08.bks.cpg/sg15_40_cif.got.tgz:79125.got - 2010.06.03 18:47:42.
