data_PCOD9288405
_publ_section_title
;
Structure prediction by ZEFSAII (Michael W. Deem and Ramdas Pophale) SiO2 
 PCOD9288405
Probable space group: C 2/C
;
_chemical_formula_sum "Si O2"
_cell_formula_units_Z 56
_cell_length_a 12.189388
_cell_length_b 23.949051
_cell_length_c 9.530312
_cell_angle_alpha 90.000000
_cell_angle_beta 64.480957
_cell_angle_gamma 90.000000
_cell_volume 2510.710851
_symmetry_space_group_name_H-M "C 2/C"
_symmetry_group_IT_number 15
_symmetry_cell_setting 'monoclinic'
loop_
_space_group_symop_operation_xyz
x,y,z
-x,y,1/2-z
-x,-y,-z
x,-y,1/2+z
1/2+x,1/2+y,z
1/2-x,1/2+y,1/2-z
1/2-x,1/2-y,-z
1/2+x,1/2-y,1/2+z
loop_
_atom_site_type_symbol
_atom_site_label
_atom_site_fract_x
_atom_site_fract_y
_atom_site_fract_z
Si Si1 0.746233 0.951206 0.443897
Si Si2 0.590250 0.256304 0.980979
Si Si3 0.488372 0.059043 0.587196
Si Si4 0.117801 0.102886 0.852038
Si Si5 0.739028 0.915694 0.960649
Si Si6 0.657361 0.272966 0.257280
Si Si7 0.366795 0.385976 0.614014
O O1 0.637749 0.923313 0.412862
O O2 0.857564 0.943321 0.277065
O O3 0.767252 0.917054 0.573394
O O4 0.735381 0.016865 0.477892
O O5 0.693742 0.228294 0.822561
O O6 0.616993 0.321191 0.931166
O O7 0.627182 0.245353 0.123058
O O8 0.440918 0.249275 0.072005
O O9 0.500000 0.051568 0.750000
O O10 0.601878 0.098394 0.490160
O O11 0.500000 0.000000 0.500000
O O12 0.118113 0.162175 0.773909
O O13 0.220588 0.107664 0.913727
O O14 0.995742 0.088611 0.001065
O O15 0.831093 0.895613 0.792781
#
# Coordination Sequence:
#
# PCOD9288405 Si02
#       7
#     8   8   8   8   8   8   8
#     4  11  22  38  61  85 122 164 209 249 293 360
#     4   9  18  37  59  89 119 153 200 257 310 368
#     4  10  22  39  58  79 116 165 207 252 302 344
#     4  11  21  39  60  87 124 162 194 253 312 357
#     4  11  24  38  57  86 125 163 204 246 298 366
#     4   9  18  36  62  85 120 153 198 257 314 364
#     4  11  23  37  59  92 122 157 203 250 307 362
#
# _framework density 22.30444
#
# number of rings (size 3 to 8) (size 9 to 14) (size 15 to 20)
#    0.000    1.714    2.857    1.714    6.000    3.429 
#    2.571    2.143    0.000    0.000    0.000    0.000 
#    0.000    0.000    0.000    0.000    0.000    0.000 
#
# Total GULP energy -155950.216015 kJ/mol
# GULP energy per Si atom -5569.650572 kJ/mol
# Density = 2.225367 g / cm^3
# Si number density = 22.304440 Si / 1000 Ang^3
#
#
#
# Elastic Constant Matrix: (Units=GPa)
#
#
# Indices 1 2 3 4 5 6 
#
# 1 78.2193 7.7488 18.8728 0.0000 -15.0006 0.0000
# 2 7.7488 31.8939 17.7972 0.0000 -5.6190 0.0000
# 3 18.8728 17.7972 96.6623 0.0000 -23.9845 0.0000
# 4 0.0000 0.0000 0.0000 495.3149 0.0000 779.7202
# 5 -15.0006 -5.6190 -23.9845 0.0000 46.0407 0.0000
# 6 0.0000 0.0000 0.0000 779.7202 0.0000 1212.7274
#
#
#
# Elastic Compliance Matrix: (Units=1/GPa)
#
#
# Indices 1 2 3 4 5 6 
#
# 1 0.014020 -0.001945 -0.001498 0.000000 0.003550 0.000000
# 2 -0.001945 0.035258 -0.005974 0.000000 0.000558 0.000000
# 3 -0.001498 -0.005974 0.013133 0.000000 0.005624 0.000000
# 4 0.000000 0.000000 0.000000 -0.166545 0.000000 0.107080
# 5 0.003550 0.000558 0.005624 0.000000 0.025874 0.000000
# 6 0.000000 0.000000 0.000000 0.107080 0.000000 -0.068022
#
#
# Mechanical properties :
#
#
# Convention : Reuss Voigt Hill
#
# Bulk Modulus (GPa) = 22.94761 32.84592 27.89676
# Shear Modulus (GPa) = -44.27811 361.64038 158.68114
#
# Velocity S-wave (km/s) = -4.46036 12.74717 8.44380
# Velocity P-wave (km/s) = 4.02687 15.21223 10.37295
#
# Compressibility (1/GPa) = 0.04357752
#
# Stress axis : x y z
#
# Youngs Moduli (GPa) = 71.32917 28.36241 76.14262
#
# Poissons Ratio (x) = 0.05515 0.11409
# Poissons Ratio (y) = 0.13871 0.45484
# Poissons Ratio (z) = 0.10688 0.16942
#
# Static dielectric constant tensor:
#      x y z
#    x 2.012360 0.000000 -0.072710 
#    y 0.000000 1.854300 0.000000 
#    z -0.072710 0.000000 1.867930 
# 
# From -- ./inp_files/35586.got.cif
#   From: 2010.05.17/outbox.cif.g08.bks.cpg/sg15_18_cif.got.tgz:35586.got - 2010.06.03 18:47:42.
