data_PCOD9288096
_publ_section_title
;
Structure prediction by ZEFSAII (Michael W. Deem and Ramdas Pophale) SiO2 
 PCOD9288096
Probable space group: C 2/C
;
_chemical_formula_sum "Si O2"
_cell_formula_units_Z 48
_cell_length_a 7.620528
_cell_length_b 27.013274
_cell_length_c 11.373051
_cell_angle_alpha 90.000000
_cell_angle_beta 113.228109
_cell_angle_gamma 90.000000
_cell_volume 2151.430679
_symmetry_space_group_name_H-M "C 2/C"
_symmetry_group_IT_number 15
_symmetry_cell_setting 'monoclinic'
loop_
_space_group_symop_operation_xyz
x,y,z
-x,y,1/2-z
-x,-y,-z
x,-y,1/2+z
1/2+x,1/2+y,z
1/2-x,1/2+y,1/2-z
1/2-x,1/2-y,-z
1/2+x,1/2-y,1/2+z
loop_
_atom_site_type_symbol
_atom_site_label
_atom_site_fract_x
_atom_site_fract_y
_atom_site_fract_z
Si Si1 0.784989 0.614698 0.726747
Si Si2 0.000000 0.057276 0.250000
Si Si3 0.384918 0.805223 0.607595
Si Si4 0.508280 0.360125 0.943311
Si Si5 0.221823 0.708712 0.649518
Si Si6 0.384280 0.994015 0.343870
Si Si7 0.500000 0.719039 0.250000
O O1 0.654337 0.619003 0.577505
O O2 0.704452 0.657066 0.788121
O O3 0.812622 0.562106 0.797706
O O4 0.000000 0.630391 0.750000
O O5 0.035356 0.093058 0.149301
O O6 0.192562 0.025626 0.310919
O O7 0.500000 0.824837 0.750000
O O8 0.185019 0.835253 0.557702
O O9 0.363624 0.746227 0.622499
O O10 0.445139 0.806073 0.487821
O O11 0.579790 0.316910 0.872986
O O12 0.152977 0.744314 0.734965
O O13 0.500000 0.006875 0.250000
O O14 0.500000 0.000000 0.500000
#
# Coordination Sequence:
#
# PCOD9288096 Si02
#       7
#     8   4   8   8   8   8   4
#     4  11  24  42  68 100 135 184 241 300 364 443
#     4  11  24  48  74 104 150 192 242 321 378 450
#     4  10  24  41  61  98 144 188 242 296 358 437
#     4  10  24  43  67 101 141 188 245 288 372 448
#     4  10  22  38  63  95 136 185 238 294 357 428
#     4  11  27  49  77 112 148 193 254 316 390 452
#     4   9  20  42  62  98 134 186 230 295 348 432
#
# _framework density 22.310737
#
# number of rings (size 3 to 8) (size 9 to 14) (size 15 to 20)
#    0.000    1.667    0.833    2.000    7.000   12.000 
#    0.000    0.000    0.000    0.000    0.000    0.000 
#    0.000    0.000    0.000    0.000    0.000    0.000 
#
# Total GULP energy -133750.243856 kJ/mol
# GULP energy per Si atom -5572.926827 kJ/mol
# Density = 2.225996 g / cm^3
# Si number density = 22.310737 Si / 1000 Ang^3
#
#
#
# Elastic Constant Matrix: (Units=GPa)
#
#
# Indices 1 2 3 4 5 6 
#
# 1 84.2262 54.4512 45.3767 0.0000 13.0339 0.0000
# 2 54.4512 145.0461 70.6454 0.0000 6.7007 0.0000
# 3 45.3767 70.6454 189.8208 0.0000 17.2434 0.0000
# 4 0.0000 0.0000 0.0000 -73.1012 0.0000 16.4227
# 5 13.0339 6.7007 17.2434 0.0000 36.6866 0.0000
# 6 0.0000 0.0000 0.0000 16.4227 0.0000 9.1394
#
#
#
# Elastic Compliance Matrix: (Units=1/GPa)
#
#
# Indices 1 2 3 4 5 6 
#
# 1 0.016869 -0.005326 -0.001665 0.000000 -0.004238 0.000000
# 2 -0.005326 0.010102 -0.002602 0.000000 0.001270 0.000000
# 3 -0.001665 -0.002602 0.006829 0.000000 -0.002143 0.000000
# 4 0.000000 0.000000 0.000000 -0.009746 0.000000 0.017512
# 5 -0.004238 0.001270 -0.002143 0.000000 0.029539 0.000000
# 6 0.000000 0.000000 0.000000 0.017512 0.000000 0.077949
#
#
# Mechanical properties :
#
#
# Convention : Reuss Voigt Hill
#
# Bulk Modulus (GPa) = 68.42736 84.44886 76.43811
# Shear Modulus (GPa) = 32.13360 11.11962 21.62661
#
# Velocity S-wave (km/s) = 3.79921 2.23490 3.11679
# Velocity P-wave (km/s) = 7.06980 6.67781 6.87660
#
# Compressibility (1/GPa) = 0.01461404
#
# Stress axis : x y z
#
# Youngs Moduli (GPa) = 59.28087 98.98710 146.42748
#
# Poissons Ratio (x) = 0.52718 0.24387
# Poissons Ratio (y) = 0.31571 0.38101
# Poissons Ratio (z) = 0.09873 0.25757
#
# Static dielectric constant tensor:
#      x y z
#    x 1.970010 0.000000 -0.053260 
#    y 0.000000 1.786010 0.000000 
#    z -0.053260 0.000000 2.034200 
# 
# From -- ./inp_files/80962.got.cif
#   From: 2010.05.17/outbox.cif.g08.bks.cpg/sg15_41_cif.got.tgz:80962.got - 2010.06.03 18:47:42.
