data_PCOD9288939
_publ_section_title
;
Structure prediction by ZEFSAII (Michael W. Deem and Ramdas Pophale) SiO2 
 PCOD9288939
Probable space group: C 2/C
;
_chemical_formula_sum "Si O2"
_cell_formula_units_Z 56
_cell_length_a 14.296610
_cell_length_b 20.057694
_cell_length_c 14.276423
_cell_angle_alpha 90.000000
_cell_angle_beta 38.402520
_cell_angle_gamma 90.000000
_cell_volume 2543.036041
_symmetry_space_group_name_H-M "C 2/C"
_symmetry_group_IT_number 15
_symmetry_cell_setting 'monoclinic'
loop_
_space_group_symop_operation_xyz
x,y,z
-x,y,1/2-z
-x,-y,-z
x,-y,1/2+z
1/2+x,1/2+y,z
1/2-x,1/2+y,1/2-z
1/2-x,1/2-y,-z
1/2+x,1/2-y,1/2+z
loop_
_atom_site_type_symbol
_atom_site_label
_atom_site_fract_x
_atom_site_fract_y
_atom_site_fract_z
Si Si1 0.283903 0.301524 0.274733
Si Si2 0.454348 0.762324 0.480625
Si Si3 0.248372 0.617097 0.385186
Si Si4 0.320167 0.976711 0.394088
Si Si5 0.500000 0.775241 0.750000
Si Si6 0.134174 0.528857 0.329000
Si Si7 0.638527 0.108347 0.029478
Si Si8 0.500000 0.712130 0.250000
O O1 0.401844 0.267479 0.253846
O O2 0.230317 0.371020 0.364159
O O3 0.125655 0.263122 0.381977
O O4 0.363852 0.292782 0.111062
O O5 0.389501 0.837129 0.542605
O O6 0.430445 0.753840 0.388403
O O7 0.235616 0.582477 0.496438
O O8 0.255752 0.559817 0.302361
O O9 0.385763 0.666194 0.283966
O O10 0.500000 0.967763 0.250000
O O11 0.287241 0.982479 0.309903
O O12 0.287248 0.047094 0.472238
O O13 0.383279 0.823602 0.895868
O O14 0.000000 0.500000 0.500000
O O15 0.033539 0.583181 0.351772
#
# Coordination Sequence:
#
# PCOD9288939 Si02
#       8
#     8   8   8   8   4   8   8   4
#     4  12  25  43  70 105 138 190 227 288 353 414
#     4  12  27  45  71 100 141 186 239 280 351 419
#     4  12  24  45  70  95 141 175 230 295 342 413
#     4  10  22  39  68 104 126 175 230 289 338 402
#     4  12  22  42  66 102 146 182 226 292 344 412
#     4  11  20  38  68 100 125 174 236 282 334 412
#     4  11  21  39  66  98 140 170 232 280 342 408
#     4  12  30  46  64 102 140 188 232 292 352 412
#
# _framework density 22.020921999999999
#
# number of rings (size 3 to 8) (size 9 to 14) (size 15 to 20)
#    0.000    0.571    9.286    0.857    1.000    1.143 
#    0.000    1.429    0.000    0.000    0.000    0.000 
#    0.000    0.000    0.000    0.000    0.000    0.000 
#
# Total GULP energy -156175.414772 kJ/mol
# GULP energy per Si atom -5577.693385 kJ/mol
# Density = 2.197080 g / cm^3
# Si number density = 22.020922 Si / 1000 Ang^3
#
#
#
# Elastic Constant Matrix: (Units=GPa)
#
#
# Indices 1 2 3 4 5 6 
#
# 1 77.4215 -4.1858 1.5027 0.0034 7.6873 -0.0002
# 2 -4.1858 32.0615 0.2199 -0.0109 5.1009 -0.0022
# 3 1.5027 0.2199 56.1612 -0.0063 19.6025 -0.0085
# 4 0.0034 -0.0109 -0.0063 -44.9417 -0.0032 2.1133
# 5 7.6873 5.1009 19.6025 -0.0032 41.6081 0.0072
# 6 -0.0002 -0.0022 -0.0085 2.1133 0.0072 28.3240
#
#
#
# Elastic Compliance Matrix: (Units=1/GPa)
#
#
# Indices 1 2 3 4 5 6 
#
# 1 0.013327 0.002223 0.000705 0.000001 -0.003067 0.000001
# 2 0.002223 0.032284 0.001602 -0.000007 -0.005124 0.000005
# 3 0.000705 0.001602 0.021417 -0.000002 -0.010417 0.000009
# 4 0.000001 -0.000007 -0.000002 -0.022173 0.000000 0.001654
# 5 -0.003067 -0.005124 -0.010417 0.000000 0.030136 -0.000011
# 6 0.000001 0.000005 0.000009 0.001654 -0.000011 0.035182
#
#
# Mechanical properties :
#
#
# Convention : Reuss Voigt Hill
#
# Bulk Modulus (GPa) = 13.14236 17.85754 15.49995
# Shear Modulus (GPa) = 39.53344 16.20525 27.86934
#
# Velocity S-wave (km/s) = 4.24166 2.71569 3.56137
# Velocity P-wave (km/s) = 5.47448 4.23796 4.89542
#
# Compressibility (1/GPa) = 0.07608983
#
# Stress axis : x y z
#
# Youngs Moduli (GPa) = 75.03371 30.97464 46.69294
#
# Poissons Ratio (x) = -0.06886 -0.03293
# Poissons Ratio (y) = -0.16681 -0.07482
# Poissons Ratio (z) = -0.05292 -0.04963
#
# Static dielectric constant tensor:
#      x y z
#    x 1.948380 0.000000 0.092210 
#    y 0.000000 1.818020 0.000000 
#    z 0.092210 0.000000 1.868740 
# 
# From -- ./inp_files/156189.got.cif
#   From: 2010.05.17/outbox.cif.g08.bks.cpg/sg15_79_cif.got.tgz:156189.got - 2010.06.03 18:47:42.
