data_PCOD9288741
_publ_section_title
;
Structure prediction by ZEFSAII (Michael W. Deem and Ramdas Pophale) SiO2 
 PCOD9288741
Probable space group: C 2/C
;
_chemical_formula_sum "Si O2"
_cell_formula_units_Z 40
_cell_length_a 8.196900
_cell_length_b 22.286052
_cell_length_c 9.334777
_cell_angle_alpha 90.000000
_cell_angle_beta 88.331522
_cell_angle_gamma 90.000000
_cell_volume 1704.521788
_symmetry_space_group_name_H-M "C 2/C"
_symmetry_group_IT_number 15
_symmetry_cell_setting 'monoclinic'
loop_
_space_group_symop_operation_xyz
x,y,z
-x,y,1/2-z
-x,-y,-z
x,-y,1/2+z
1/2+x,1/2+y,z
1/2-x,1/2+y,1/2-z
1/2-x,1/2-y,-z
1/2+x,1/2-y,1/2+z
loop_
_atom_site_type_symbol
_atom_site_label
_atom_site_fract_x
_atom_site_fract_y
_atom_site_fract_z
Si Si1 0.553540 0.440528 0.583574
Si Si2 0.526025 0.807570 0.917870
Si Si3 0.169662 0.629827 0.833040
Si Si4 0.879675 0.507017 0.131139
Si Si5 0.874589 0.825825 0.067956
O O1 0.500000 0.439752 0.750000
O O2 0.500000 0.500000 0.500000
O O3 0.746750 0.446095 0.590400
O O4 0.518070 0.380721 0.495919
O O5 0.500000 0.820121 0.750000
O O6 0.524923 0.735573 0.940649
O O7 0.385823 0.841000 0.014777
O O8 0.709788 0.821287 0.973287
O O9 0.200151 0.557974 0.836558
O O10 0.305421 0.660565 0.729224
O O11 0.000000 0.635216 0.750000
O O12 0.000000 0.527992 0.250000
O O13 0.000000 0.500000 0.000000
#
# Coordination Sequence:
#
# PCOD9288741 Si02
#       5
#     8   8   8   8   8
#     4  12  26  43  66  99 138 175 215 270 335 396
#     4  10  22  39  64  92 119 164 225 277 321 379
#     4   9  19  38  61  87 124 163 210 272 327 383
#     4  11  22  40  65  93 127 172 221 264 315 388
#     4  10  23  42  60  89 131 169 209 265 334 399
#
# _framework density 23.466992999999999
#
# number of rings (size 3 to 8) (size 9 to 14) (size 15 to 20)
#    0.000    1.600    0.000    6.000    0.000   12.000 
#    0.000    0.000    0.000    0.000    0.000    0.000 
#    0.000    0.000    0.000    0.000    0.000    0.000 
#
# Total GULP energy -111859.861319 kJ/mol
# GULP energy per Si atom -5592.993066 kJ/mol
# Density = 2.341358 g / cm^3
# Si number density = 23.466993 Si / 1000 Ang^3
#
#
#
# Elastic Constant Matrix: (Units=GPa)
#
#
# Indices 1 2 3 4 5 6 
#
# 1 40.3511 1.9416 9.3231 0.0000 9.0500 0.0000
# 2 1.9416 155.7491 29.1278 0.0000 1.9306 0.0000
# 3 9.3231 29.1278 156.7761 0.0000 5.4267 0.0000
# 4 0.0000 0.0000 0.0000 35.4681 0.0000 -3.1417
# 5 9.0500 1.9306 5.4267 0.0000 36.2680 0.0000
# 6 0.0000 0.0000 0.0000 -3.1417 0.0000 32.2961
#
#
#
# Elastic Compliance Matrix: (Units=1/GPa)
#
#
# Indices 1 2 3 4 5 6 
#
# 1 0.026535 0.000002 -0.001356 0.000000 -0.006419 0.000000
# 2 0.000002 0.006653 -0.001230 0.000000 -0.000171 0.000000
# 3 -0.001356 -0.001230 0.006709 0.000000 -0.000600 0.000000
# 4 0.000000 0.000000 0.000000 0.028439 0.000000 0.002767
# 5 -0.006419 -0.000171 -0.000600 0.000000 0.029273 0.000000
# 6 0.000000 0.000000 0.000000 0.002767 0.000000 0.031233
#
#
# Mechanical properties :
#
#
# Convention : Reuss Voigt Hill
#
# Bulk Modulus (GPa) = 28.79492 48.18459 38.48976
# Shear Modulus (GPa) = 34.34396 41.63868 37.99132
#
# Velocity S-wave (km/s) = 3.82972 4.21687 4.02795
# Velocity P-wave (km/s) = 5.64382 6.65484 6.17007
#
# Compressibility (1/GPa) = 0.03472835
#
# Stress axis : x y z
#
# Youngs Moduli (GPa) = 37.68562 150.31380 149.06426
#
# Poissons Ratio (x) = -0.00036 0.20217
# Poissons Ratio (y) = -0.00009 0.18339
# Poissons Ratio (z) = 0.05111 0.18493
#
# Static dielectric constant tensor:
#      x y z
#    x 1.911540 0.000000 0.051910 
#    y 0.000000 3.311640 0.000000 
#    z 0.051910 0.000000 1.553400 
# 
# From -- ./inp_files/23615.got.cif
#   From: 2010.05.17/outbox.cif.g08.bks.cpg/sg15_12_cif.got.tgz:23615.got - 2010.06.03 18:47:42.
