data_PCOD9288466
_publ_section_title
;
Structure prediction by ZEFSAII (Michael W. Deem and Ramdas Pophale) SiO2 
 PCOD9288466
Probable space group: C 2/C
;
_chemical_formula_sum "Si O2"
_cell_formula_units_Z 64
_cell_length_a 24.276331
_cell_length_b 22.489663
_cell_length_c 18.234799
_cell_angle_alpha 90.000000
_cell_angle_beta 19.290129
_cell_angle_gamma 90.000000
_cell_volume 3288.846778
_symmetry_space_group_name_H-M "C 2/C"
_symmetry_group_IT_number 15
_symmetry_cell_setting 'monoclinic'
loop_
_space_group_symop_operation_xyz
x,y,z
-x,y,1/2-z
-x,-y,-z
x,-y,1/2+z
1/2+x,1/2+y,z
1/2-x,1/2+y,1/2-z
1/2-x,1/2-y,-z
1/2+x,1/2-y,1/2+z
loop_
_atom_site_type_symbol
_atom_site_label
_atom_site_fract_x
_atom_site_fract_y
_atom_site_fract_z
Si Si1 0.518627 0.341450 0.067785
Si Si2 0.682312 0.502425 0.057765
Si Si3 0.191585 0.433998 0.798025
Si Si4 0.687930 0.629477 0.545715
Si Si5 0.309027 0.935762 0.270207
Si Si6 0.786533 0.125646 0.745412
Si Si7 0.817469 0.998736 0.767873
Si Si8 0.503185 0.788376 0.835353
O O1 0.358766 0.368887 0.310168
O O2 0.462195 0.349618 0.055021
O O3 0.523406 0.275224 0.092900
O O4 0.678673 0.382028 0.884484
O O5 0.500000 0.500727 0.250000
O O6 0.756534 0.436693 0.946221
O O7 0.673084 0.508812 0.156887
O O8 0.774216 0.555202 0.899697
O O9 0.229210 0.497847 0.713278
O O10 0.214727 0.448019 0.855145
O O11 0.002455 0.420406 0.015998
O O12 0.500000 0.637498 0.750000
O O13 0.820067 0.681114 0.364820
O O14 0.208442 0.889359 0.347325
O O15 0.743031 0.062074 0.837238
O O16 0.643071 0.170621 0.949686
O O17 0.000000 0.000000 0.500000
O O18 0.500000 0.784282 0.750000
#
# Coordination Sequence:
#
# PCOD9288466 Si02
#       8
#     8   8   8   8   8   8   8   8
#     4  12  23  40  60  83 122 181 209 258 324 383
#     4  11  21  35  62  95 125 169 211 258 317 385
#     4  10  22  39  60  84 121 168 209 266 316 369
#     4  11  23  37  58  86 128 168 218 262 318 379
#     4  10  24  39  59  89 122 163 217 266 315 373
#     4  11  24  41  57  85 128 173 209 263 323 373
#     4  11  19  39  64  89 129 164 204 253 326 390
#     4  12  26  41  58  91 127 170 227 269 312 394
#
# _framework density 19.459707999999999
#
# number of rings (size 3 to 8) (size 9 to 14) (size 15 to 20)
#    0.000    1.000    3.750    3.750    8.750    0.500 
#    0.000    0.000    0.000    0.000    0.000    0.875 
#    3.750    0.000    0.000    0.000    0.000    0.000 
#
# Total GULP energy -178620.959144 kJ/mol
# GULP energy per Si atom -5581.904973 kJ/mol
# Density = 1.941542 g / cm^3
# Si number density = 19.459708 Si / 1000 Ang^3
#
#
#
# Elastic Constant Matrix: (Units=GPa)
#
#
# Indices 1 2 3 4 5 6 
#
# 1 119.7547 43.9882 27.7004 -0.0030 9.9412 -0.0014
# 2 43.9882 107.5667 50.4196 0.0071 3.4423 -0.0164
# 3 27.7004 50.4196 74.0915 -0.0018 -6.5201 -0.0130
# 4 -0.0030 0.0071 -0.0018 36.0738 -0.0024 4.8994
# 5 9.9412 3.4423 -6.5201 -0.0024 31.4089 0.0040
# 6 -0.0014 -0.0164 -0.0130 4.8994 0.0040 26.8377
#
#
#
# Elastic Compliance Matrix: (Units=1/GPa)
#
#
# Indices 1 2 3 4 5 6 
#
# 1 0.010241 -0.003159 -0.001970 0.000001 -0.003304 -0.000002
# 2 -0.003159 0.015011 -0.009260 -0.000005 -0.002568 0.000006
# 3 -0.001970 -0.009260 0.021064 0.000003 0.006011 0.000003
# 4 0.000001 -0.000005 0.000003 0.028426 0.000003 -0.005189
# 5 -0.003304 -0.002568 0.006011 0.000003 0.034413 -0.000005
# 6 -0.000002 0.000006 0.000003 -0.005189 -0.000005 0.038208
#
#
# Mechanical properties :
#
#
# Convention : Reuss Voigt Hill
#
# Bulk Modulus (GPa) = 57.01882 60.62548 58.82215
# Shear Modulus (GPa) = 27.47475 30.81773 29.14624
#
# Velocity S-wave (km/s) = 3.76157 3.98385 3.87431
# Velocity P-wave (km/s) = 6.94482 7.23764 7.09274
#
# Compressibility (1/GPa) = 0.01753807
#
# Stress axis : x y z
#
# Youngs Moduli (GPa) = 97.65079 66.61850 47.47511
#
# Poissons Ratio (x) = 0.21043 0.09352
# Poissons Ratio (y) = 0.30845 0.43962
# Poissons Ratio (z) = 0.19236 0.61688
#
# Static dielectric constant tensor:
#      x y z
#    x 1.833230 -0.000020 0.012500 
#    y -0.000020 1.696640 0.000010 
#    z 0.012500 0.000010 1.709250 
# 
# From -- ./inp_files/220261.got.cif
#   From: 2010.05.17/outbox.cif.g08.bks.cpg/sg15_111_cif.got.tgz:220261.got - 2010.06.03 18:47:42.
