data_PCOD9288094
_publ_section_title
;
Structure prediction by ZEFSAII (Michael W. Deem and Ramdas Pophale) SiO2 
 PCOD9288094
Probable space group: C 2/C
;
_chemical_formula_sum "Si O2"
_cell_formula_units_Z 48
_cell_length_a 27.633219
_cell_length_b 5.158194
_cell_length_c 30.264783
_cell_angle_alpha 90.000000
_cell_angle_beta 148.444567
_cell_angle_gamma 90.000000
_cell_volume 2257.546666
_symmetry_space_group_name_H-M "C 2/C"
_symmetry_group_IT_number 15
_symmetry_cell_setting 'monoclinic'
loop_
_space_group_symop_operation_xyz
x,y,z
-x,y,1/2-z
-x,-y,-z
x,-y,1/2+z
1/2+x,1/2+y,z
1/2-x,1/2+y,1/2-z
1/2-x,1/2-y,-z
1/2+x,1/2-y,1/2+z
loop_
_atom_site_type_symbol
_atom_site_label
_atom_site_fract_x
_atom_site_fract_y
_atom_site_fract_z
Si Si1 0.804634 0.482197 0.410181
Si Si2 0.542082 0.249829 0.008876
Si Si3 0.101826 0.856552 0.240759
Si Si4 0.484527 0.877997 0.288271
Si Si5 0.673190 0.773383 0.477990
Si Si6 0.055853 0.082885 0.941713
O O1 0.848236 0.690162 0.410158
O O2 0.710621 0.364048 0.319180
O O3 0.788466 0.604140 0.446579
O O4 0.883616 0.267446 0.480203
O O5 0.500000 0.500000 0.000000
O O6 0.525093 0.323043 0.944078
O O7 0.500000 0.000000 0.000000
O O8 0.074895 0.639000 0.255284
O O9 0.037329 0.790140 0.148749
O O10 0.068118 0.141742 0.229077
O O11 0.500000 0.801094 0.250000
O O12 0.584248 0.921354 0.388784
O O13 0.750000 0.750000 0.500000
O O14 0.625570 0.504762 0.456977
#
# Coordination Sequence:
#
# PCOD9288094 Si02
#       6
#     8   8   8   8   8   8
#     4  11  23  42  69  96 130 183 221 270 346 396
#     4  11  23  43  74  97 128 165 213 275 337 402
#     4  11  25  41  63  92 137 173 223 279 332 399
#     4  11  23  40  58  93 132 179 228 284 329 380
#     4  10  22  38  63  95 134 180 232 272 329 397
#     4  10  23  44  65  98 133 177 220 280 335 394
#
# _framework density 21.262018999999999
#
# number of rings (size 3 to 8) (size 9 to 14) (size 15 to 20)
#    0.000    1.333    3.333    1.500    7.000    2.000 
#    0.000    1.667    0.000    0.000    0.000    0.000 
#    0.000    0.000    0.000    0.000    0.000    0.000 
#
# Total GULP energy -133853.163489 kJ/mol
# GULP energy per Si atom -5577.215145 kJ/mol
# Density = 2.121363 g / cm^3
# Si number density = 21.262019 Si / 1000 Ang^3
#
#
#
# Elastic Constant Matrix: (Units=GPa)
#
#
# Indices 1 2 3 4 5 6 
#
# 1 131.3015 43.2525 32.7059 0.0136 27.6569 0.0007
# 2 43.2525 99.3353 32.7004 0.1133 12.2028 0.0340
# 3 32.7059 32.7004 128.1626 -0.0137 28.4241 0.0167
# 4 0.0136 0.1133 -0.0137 22.6952 0.0212 -1.1789
# 5 27.6569 12.2028 28.4241 0.0212 18.3884 0.0112
# 6 0.0007 0.0340 0.0167 -1.1789 0.0112 29.6824
#
#
#
# Elastic Compliance Matrix: (Units=1/GPa)
#
#
# Indices 1 2 3 4 5 6 
#
# 1 0.012410 -0.003703 0.002088 0.000031 -0.019435 0.000011
# 2 -0.003703 0.012346 -0.002470 -0.000063 0.001195 -0.000016
# 3 0.002088 -0.002470 0.012528 0.000038 -0.020867 0.000005
# 4 0.000031 -0.000063 0.000038 0.044154 -0.000116 0.001754
# 5 -0.019435 0.001195 -0.020867 -0.000116 0.115076 -0.000037
# 6 0.000011 -0.000016 0.000005 0.001754 -0.000037 0.033760
#
#
# Mechanical properties :
#
#
# Convention : Reuss Voigt Hill
#
# Bulk Modulus (GPa) = 34.34874 64.01300 49.18087
# Shear Modulus (GPa) = 20.14939 30.82924 25.48932
#
# Velocity S-wave (km/s) = 3.08177 3.81198 3.46615
# Velocity P-wave (km/s) = 5.37151 7.03896 6.26099
#
# Compressibility (1/GPa) = 0.02911315
#
# Stress axis : x y z
#
# Youngs Moduli (GPa) = 80.58322 80.99930 79.82261
#
# Poissons Ratio (x) = 0.29997 -0.16671
# Poissons Ratio (y) = 0.29843 0.19717
# Poissons Ratio (z) = -0.16830 0.20007
#
# Static dielectric constant tensor:
#      x y z
#    x 1.799030 -0.000130 -0.014560 
#    y -0.000130 1.870690 -0.000110 
#    z -0.014560 -0.000110 1.794240 
# 
# From -- ./inp_files/220664.got.cif
#   From: 2010.05.17/outbox.cif.g08.bks.cpg/sg15_111_cif.got.tgz:220664.got - 2010.06.03 18:47:42.
