data_PCOD9288943
_publ_section_title
;
Structure prediction by ZEFSAII (Michael W. Deem and Ramdas Pophale) SiO2 
 PCOD9288943
Probable space group: C 2/C
;
_chemical_formula_sum "Si O2"
_cell_formula_units_Z 56
_cell_length_a 14.667592
_cell_length_b 9.053776
_cell_length_c 20.708380
_cell_angle_alpha 90.000000
_cell_angle_beta 90.403855
_cell_angle_gamma 90.000000
_cell_volume 2749.944339
_symmetry_space_group_name_H-M "C 2/C"
_symmetry_group_IT_number 15
_symmetry_cell_setting 'monoclinic'
loop_
_space_group_symop_operation_xyz
x,y,z
-x,y,1/2-z
-x,-y,-z
x,-y,1/2+z
1/2+x,1/2+y,z
1/2-x,1/2+y,1/2-z
1/2-x,1/2-y,-z
1/2+x,1/2-y,1/2+z
loop_
_atom_site_type_symbol
_atom_site_label
_atom_site_fract_x
_atom_site_fract_y
_atom_site_fract_z
Si Si1 0.817138 0.610057 0.875456
Si Si2 0.084637 0.117701 0.070233
Si Si3 0.278782 0.979480 0.522828
Si Si4 0.442601 0.842868 0.001711
Si Si5 0.548288 0.312959 0.130557
Si Si6 0.156656 0.290369 0.855861
Si Si7 0.896826 0.395101 0.770754
O O1 0.870275 0.764159 0.881801
O O2 0.718496 0.647992 0.847763
O O3 0.867248 0.503300 0.827157
O O4 0.804274 0.560118 0.949551
O O5 0.169077 0.042274 0.029945
O O6 0.008684 0.214954 0.031764
O O7 0.045853 0.981895 0.110160
O O8 0.316436 0.865278 0.576421
O O9 0.344561 0.122651 0.535141
O O10 0.418980 0.782063 0.930809
O O11 0.500000 0.000000 0.000000
O O12 0.446940 0.256536 0.141510
O O13 0.602815 0.266320 0.194850
O O14 0.164428 0.395103 0.793561
O O15 0.000000 0.431387 0.750000
#
# Coordination Sequence:
#
# PCOD9288943 Si02
#       7
#     8   8   8   8   8   8   8
#     4  11  21  43  66  92 125 166 220 263 317 398
#     4  11  24  37  62 100 134 163 216 284 334 382
#     4  11  22  40  67  97 127 172 216 272 327 399
#     4  12  20  36  67  91 129 170 217 258 331 394
#     4  11  21  41  59  91 133 164 208 268 329 387
#     4  10  22  39  68  89 126 169 213 269 331 385
#     4  10  23  42  65  85 121 178 216 256 329 402
#
# _framework density 20.364048
#
# number of rings (size 3 to 8) (size 9 to 14) (size 15 to 20)
#    0.000    1.143    4.286    3.000    2.000    2.857 
#    2.571    3.571    0.000    0.000    0.000    0.000 
#    0.000    0.000    0.000    0.000    0.000    0.000 
#
# Total GULP energy -156040.500689 kJ/mol
# GULP energy per Si atom -5572.875025 kJ/mol
# Density = 2.031770 g / cm^3
# Si number density = 20.364048 Si / 1000 Ang^3
#
#
#
# Elastic Constant Matrix: (Units=GPa)
#
#
# Indices 1 2 3 4 5 6 
#
# 1 77.8458 28.9116 34.7767 0.0000 -5.6839 0.0000
# 2 28.9116 72.4366 44.5296 0.0000 -16.5356 0.0000
# 3 34.7767 44.5296 107.3500 0.0000 -12.4145 0.0000
# 4 0.0000 0.0000 0.0000 23.2902 0.0000 -2.3852
# 5 -5.6839 -16.5356 -12.4145 0.0000 18.5064 0.0000
# 6 0.0000 0.0000 0.0000 -2.3852 0.0000 29.6840
#
#
#
# Elastic Compliance Matrix: (Units=1/GPa)
#
#
# Indices 1 2 3 4 5 6 
#
# 1 0.015985 -0.004611 -0.003441 0.000000 -0.001519 0.000000
# 2 -0.004611 0.022895 -0.006289 0.000000 0.014822 0.000000
# 3 -0.003441 -0.006289 0.013299 0.000000 0.002245 0.000000
# 4 0.000000 0.000000 0.000000 0.043293 0.000000 0.003479
# 5 -0.001519 0.014822 0.002245 0.000000 0.068318 0.000000
# 6 0.000000 0.000000 0.000000 0.003479 0.000000 0.033968
#
#
# Mechanical properties :
#
#
# Convention : Reuss Voigt Hill
#
# Bulk Modulus (GPa) = 42.56194 52.67425 47.61810
# Shear Modulus (GPa) = 21.34259 24.25708 22.79984
#
# Velocity S-wave (km/s) = 3.24088 3.45508 3.34969
# Velocity P-wave (km/s) = 5.91188 6.46832 6.19635
#
# Compressibility (1/GPa) = 0.02349517
#
# Stress axis : x y z
#
# Youngs Moduli (GPa) = 62.55866 43.67672 75.19628
#
# Poissons Ratio (x) = 0.20141 0.25877
# Poissons Ratio (y) = 0.28848 0.47293
# Poissons Ratio (z) = 0.21528 0.27469
#
# Static dielectric constant tensor:
#      x y z
#    x 1.807320 0.000000 0.010350 
#    y 0.000000 1.759300 0.000000 
#    z 0.010350 0.000000 1.759420 
# 
# From -- ./inp_files/242804.got.cif
#   From: 2010.05.17/outbox.cif.g08.bks.cpg/sg15_122_cif.got.tgz:242804.got - 2010.06.03 18:47:42.
