data_PCOD9288540
_publ_section_title
;
Structure prediction by ZEFSAII (Michael W. Deem and Ramdas Pophale) SiO2 
 PCOD9288540
Probable space group: C 2/C
;
_chemical_formula_sum "Si O2"
_cell_formula_units_Z 56
_cell_length_a 17.021930
_cell_length_b 16.365355
_cell_length_c 18.899188
_cell_angle_alpha 90.000000
_cell_angle_beta 146.540550
_cell_angle_gamma 90.000000
_cell_volume 2902.699913
_symmetry_space_group_name_H-M "C 2/C"
_symmetry_group_IT_number 15
_symmetry_cell_setting 'monoclinic'
loop_
_space_group_symop_operation_xyz
x,y,z
-x,y,1/2-z
-x,-y,-z
x,-y,1/2+z
1/2+x,1/2+y,z
1/2-x,1/2+y,1/2-z
1/2-x,1/2-y,-z
1/2+x,1/2-y,1/2+z
loop_
_atom_site_type_symbol
_atom_site_label
_atom_site_fract_x
_atom_site_fract_y
_atom_site_fract_z
Si Si1 0.906017 0.759999 0.880233
Si Si2 0.270303 0.778029 0.892051
Si Si3 0.519528 0.413097 0.474124
Si Si4 0.626377 0.506210 0.436335
Si Si5 0.639039 0.887644 0.312322
Si Si6 0.298437 0.535640 0.159628
Si Si7 0.196675 0.593057 0.692162
O O1 0.783559 0.771229 0.729640
O O2 0.873011 0.673883 0.894017
O O3 0.912701 0.842763 0.928731
O O4 0.067122 0.748012 0.972414
O O5 0.168341 0.708745 0.848164
O O6 0.251077 0.872782 0.895367
O O7 0.500000 0.500000 0.500000
O O8 0.612859 0.427535 0.475005
O O9 0.361908 0.388547 0.332133
O O10 0.724433 0.568305 0.552518
O O11 0.463785 0.539668 0.309053
O O12 0.689323 0.490501 0.406374
O O13 0.500000 0.913391 0.250000
O O14 0.630043 0.910684 0.221777
O O15 0.204714 0.486414 0.147211
#
# Coordination Sequence:
#
# PCOD9288540 Si02
#       7
#     8   8   8   8   8   8   8
#     4  11  21  39  61  97 120 165 218 252 315 374
#     4  11  23  37  60  90 131 168 199 258 319 379
#     4  11  18  40  68  85 122 170 220 246 312 395
#     4  10  22  39  61  90 118 170 209 256 313 383
#     4  11  23  38  58  90 130 162 203 257 314 386
#     4  10  23  39  62  92 123 158 216 258 317 375
#     4  10  22  41  61  92 124 167 206 266 309 375
#
# _framework density 19.292383999999998
#
# number of rings (size 3 to 8) (size 9 to 14) (size 15 to 20)
#    0.000    1.429    4.286    2.571    6.000    1.143 
#    0.000    0.714    0.000    0.000    0.000    0.000 
#    0.000    0.000    0.000    0.000    0.000    0.000 
#
# Total GULP energy -156125.746972 kJ/mol
# GULP energy per Si atom -5575.919535 kJ/mol
# Density = 1.924847 g / cm^3
# Si number density = 19.292384 Si / 1000 Ang^3
#
#
#
# Elastic Constant Matrix: (Units=GPa)
#
#
# Indices 1 2 3 4 5 6 
#
# 1 113.0363 51.0623 15.4717 -0.0001 -4.6726 0.0000
# 2 51.0623 68.8509 20.7366 0.0000 5.3327 0.0000
# 3 15.4717 20.7366 33.7044 0.0002 -2.5504 0.0001
# 4 -0.0001 0.0000 0.0002 35.7067 0.0000 0.3760
# 5 -4.6726 5.3327 -2.5504 0.0000 19.5761 0.0001
# 6 0.0000 0.0000 0.0001 0.3760 0.0001 28.8482
#
#
#
# Elastic Compliance Matrix: (Units=1/GPa)
#
#
# Indices 1 2 3 4 5 6 
#
# 1 0.014052 -0.011211 0.000941 0.000000 0.006531 0.000000
# 2 -0.011211 0.027589 -0.012724 0.000000 -0.011849 0.000000
# 3 0.000941 -0.012724 0.037717 0.000000 0.008605 0.000000
# 4 0.000000 0.000000 0.000000 0.028010 0.000000 -0.000365
# 5 0.006531 -0.011849 0.008605 0.000000 0.056990 0.000000
# 6 0.000000 0.000000 0.000000 -0.000365 0.000000 0.034669
#
#
# Mechanical properties :
#
#
# Convention : Reuss Voigt Hill
#
# Bulk Modulus (GPa) = 29.96681 43.34807 36.65744
# Shear Modulus (GPa) = 19.52067 25.38093 22.45080
#
# Velocity S-wave (km/s) = 3.18438 3.63105 3.41502
# Velocity P-wave (km/s) = 5.39324 6.33223 5.88150
#
# Compressibility (1/GPa) = 0.03337026
#
# Stress axis : x y z
#
# Youngs Moduli (GPa) = 71.16329 36.24688 26.51294
#
# Poissons Ratio (x) = 0.40636 -0.02495
# Poissons Ratio (y) = 0.79780 0.33736
# Poissons Ratio (z) = -0.06697 0.46121
#
# Static dielectric constant tensor:
#      x y z
#    x 1.711990 0.000000 -0.030570 
#    y 0.000000 1.709440 0.000000 
#    z -0.030570 0.000000 1.698900 
# 
# From -- ./inp_files/206279.got.cif
#   From: 2010.05.17/outbox.cif.g08.bks.cpg/sg15_104_cif.got.tgz:206279.got - 2010.06.03 18:47:42.
