data_PCOD9288439
_publ_section_title
;
Structure prediction by ZEFSAII (Michael W. Deem and Ramdas Pophale) SiO2 
 PCOD9288439
Probable space group: C 2/C
;
_chemical_formula_sum "Si O2"
_cell_formula_units_Z 56
_cell_length_a 28.136924
_cell_length_b 9.519174
_cell_length_c 13.212944
_cell_angle_alpha 90.000000
_cell_angle_beta 129.368747
_cell_angle_gamma 90.000000
_cell_volume 2735.896963
_symmetry_space_group_name_H-M "C 2/C"
_symmetry_group_IT_number 15
_symmetry_cell_setting 'monoclinic'
loop_
_space_group_symop_operation_xyz
x,y,z
-x,y,1/2-z
-x,-y,-z
x,-y,1/2+z
1/2+x,1/2+y,z
1/2-x,1/2+y,1/2-z
1/2-x,1/2-y,-z
1/2+x,1/2-y,1/2+z
loop_
_atom_site_type_symbol
_atom_site_label
_atom_site_fract_x
_atom_site_fract_y
_atom_site_fract_z
Si Si1 0.151855 0.145905 0.195694
Si Si2 0.311995 0.551078 0.454751
Si Si3 0.719638 0.249098 0.068316
Si Si4 0.030738 0.352918 0.681702
Si Si5 0.820913 0.586671 0.319184
Si Si6 0.926045 0.392302 0.372687
Si Si7 0.353355 0.662615 0.714311
O O1 0.141197 0.117990 0.062387
O O2 0.217151 0.228034 0.282569
O O3 0.105677 0.245203 0.192537
O O4 0.149843 0.992975 0.242897
O O5 0.323206 0.385936 0.487099
O O6 0.244266 0.537164 0.313449
O O7 0.313499 0.642528 0.558237
O O8 0.682439 0.119424 0.065884
O O9 0.750000 0.250000 0.000000
O O10 0.059671 0.508812 0.703573
O O11 0.081552 0.231456 0.731581
O O12 0.000000 0.339261 0.750000
O O13 0.982461 0.355622 0.523047
O O14 0.875936 0.482759 0.367768
O O15 0.830709 0.731838 0.270798
#
# Coordination Sequence:
#
# PCOD9288439 Si02
#       7
#     8   8   8   8   8   8   8
#     4  11  22  37  60  90 124 157 201 250 309 365
#     4  11  21  37  59  92 126 161 199 244 303 377
#     4  11  21  35  57  91 132 157 199 244 305 378
#     4  10  23  44  63  87 115 156 216 257 304 360
#     4  10  22  39  59  88 125 166 199 242 308 374
#     4  10  22  42  64  86 118 161 204 257 304 360
#     4  11  22  39  62  86 121 160 203 255 306 364
#
# _framework density 20.468606999999999
#
# number of rings (size 3 to 8) (size 9 to 14) (size 15 to 20)
#    0.000    1.429    4.286    1.286    0.000    1.714 
#    2.571    0.714    0.000    0.000    0.000    0.000 
#    0.000    0.000    0.000    0.000    0.000    0.000 
#
# Total GULP energy -155877.377587 kJ/mol
# GULP energy per Si atom -5567.049200 kJ/mol
# Density = 2.042202 g / cm^3
# Si number density = 20.468607 Si / 1000 Ang^3
#
#
#
# Elastic Constant Matrix: (Units=GPa)
#
#
# Indices 1 2 3 4 5 6 
#
# 1 75.3931 15.6120 4.3049 0.0000 -14.5176 0.0000
# 2 15.6120 96.6837 10.8642 0.0000 2.2295 0.0000
# 3 4.3049 10.8642 43.8120 0.0000 -5.4715 0.0000
# 4 0.0000 0.0000 0.0000 17.6842 0.0000 4.0334
# 5 -14.5176 2.2295 -5.4715 0.0000 33.5535 0.0000
# 6 0.0000 0.0000 0.0000 4.0334 0.0000 27.2949
#
#
#
# Elastic Compliance Matrix: (Units=1/GPa)
#
#
# Indices 1 2 3 4 5 6 
#
# 1 0.015091 -0.002591 -0.000003 0.000000 0.006701 0.000000
# 2 -0.002591 0.011129 -0.002794 0.000000 -0.002316 0.000000
# 3 -0.000003 -0.002794 0.024030 0.000000 0.004103 0.000000
# 4 0.000000 0.000000 0.000000 0.058520 0.000000 -0.008648
# 5 0.006701 -0.002316 0.004103 0.000000 0.033525 0.000000
# 6 0.000000 0.000000 0.000000 -0.008648 0.000000 0.037915
#
#
# Mechanical properties :
#
#
# Convention : Reuss Voigt Hill
#
# Bulk Modulus (GPa) = 25.33401 30.82791 28.08096
# Shear Modulus (GPa) = 24.49239 28.04705 26.26972
#
# Velocity S-wave (km/s) = 3.46292 3.70570 3.58636
# Velocity P-wave (km/s) = 5.32850 5.77957 5.55861
#
# Compressibility (1/GPa) = 0.03947263
#
# Stress axis : x y z
#
# Youngs Moduli (GPa) = 66.26526 89.85709 41.61393
#
# Poissons Ratio (x) = 0.23281 0.00014
# Poissons Ratio (y) = 0.17169 0.11628
# Poissons Ratio (z) = 0.00023 0.25109
#
# Static dielectric constant tensor:
#      x y z
#    x 1.776790 0.000000 -0.002790 
#    y 0.000000 1.868010 0.000000 
#    z -0.002790 0.000000 1.781170 
# 
# From -- ./inp_files/180860.got.cif
#   From: 2010.05.17/outbox.cif.g08.bks.cpg/sg15_91_cif.got.tgz:180860.got - 2010.06.03 18:47:42.
