data_PCOD9288895
_publ_section_title
;
Structure prediction by ZEFSAII (Michael W. Deem and Ramdas Pophale) SiO2 
 PCOD9288895
Probable space group: C 2/C
;
_chemical_formula_sum "Si O2"
_cell_formula_units_Z 52
_cell_length_a 13.483818
_cell_length_b 11.799287
_cell_length_c 14.873309
_cell_angle_alpha 90.000000
_cell_angle_beta 96.845876
_cell_angle_gamma 90.000000
_cell_volume 2349.464052
_symmetry_space_group_name_H-M "C 2/C"
_symmetry_group_IT_number 15
_symmetry_cell_setting 'monoclinic'
loop_
_space_group_symop_operation_xyz
x,y,z
-x,y,1/2-z
-x,-y,-z
x,-y,1/2+z
1/2+x,1/2+y,z
1/2-x,1/2+y,1/2-z
1/2-x,1/2-y,-z
1/2+x,1/2-y,1/2+z
loop_
_atom_site_type_symbol
_atom_site_label
_atom_site_fract_x
_atom_site_fract_y
_atom_site_fract_z
Si Si1 0.693926 0.594310 0.744418
Si Si2 0.500000 0.538967 0.250000
Si Si3 0.227417 0.962163 0.929509
Si Si4 0.115970 0.156939 0.012040
Si Si5 0.189954 0.687687 0.359240
Si Si6 0.923232 0.789021 0.593467
Si Si7 0.853728 0.550736 0.612836
O O1 0.585411 0.540348 0.718310
O O2 0.740544 0.517814 0.832178
O O3 0.685152 0.722160 0.779339
O O4 0.760063 0.590193 0.663212
O O5 0.546164 0.624597 0.325545
O O6 0.189402 0.833478 0.932403
O O7 0.320864 0.973511 0.006329
O O8 0.139949 0.038546 0.966062
O O9 0.192902 0.162153 0.105092
O O10 0.003139 0.183163 0.025343
O O11 0.150284 0.249783 0.943689
O O12 0.126971 0.572760 0.342650
O O13 0.927680 0.657012 0.619699
#
# Coordination Sequence:
#
# PCOD9288895 Si02
#       7
#     8   4   8   8   8   8   8
#     4  10  22  39  67  85 126 166 217 261 307 383
#     4  10  22  40  60  90 116 166 216 256 310 376
#     4   9  20  40  61  93 121 170 213 254 311 370
#     4   9  18  36  63  82 118 161 211 256 302 381
#     4   9  20  38  58  85 116 167 207 249 325 370
#     4  11  22  35  62  93 126 160 210 266 316 365
#     4  11  23  37  61  96 128 166 206 267 320 374
#
# _framework density 22.132708000000001
#
# number of rings (size 3 to 8) (size 9 to 14) (size 15 to 20)
#    0.000    2.154    0.000    3.692    6.462    3.077 
#    0.000    0.769    0.000    0.000    0.000    0.000 
#    0.000    0.000    0.000    0.000    0.000    0.000 
#
# Total GULP energy -145080.958783 kJ/mol
# GULP energy per Si atom -5580.036876 kJ/mol
# Density = 2.208233 g / cm^3
# Si number density = 22.132708 Si / 1000 Ang^3
#
#
#
# Elastic Constant Matrix: (Units=GPa)
#
#
# Indices 1 2 3 4 5 6 
#
# 1 12.2589 1.5841 2.5363 0.0000 -4.2098 0.0000
# 2 1.5841 143.0998 9.3122 0.0000 9.5539 0.0000
# 3 2.5363 9.3122 19.1563 0.0000 0.9732 0.0000
# 4 0.0000 0.0000 0.0000 20.8018 0.0000 4.1782
# 5 -4.2098 9.5539 0.9732 0.0000 21.4755 0.0000
# 6 0.0000 0.0000 0.0000 4.1782 0.0000 26.2505
#
#
#
# Elastic Compliance Matrix: (Units=1/GPa)
#
#
# Indices 1 2 3 4 5 6 
#
# 1 0.090835 -0.001477 -0.012275 0.000000 0.019019 0.000000
# 2 -0.001477 0.007447 -0.003249 0.000000 -0.003455 0.000000
# 3 -0.012275 -0.003249 0.055583 0.000000 -0.003480 0.000000
# 4 0.000000 0.000000 0.000000 0.049660 0.000000 -0.007904
# 5 0.019019 -0.003455 -0.003480 0.000000 0.051988 0.000000
# 6 0.000000 0.000000 0.000000 -0.007904 0.000000 0.039353
#
#
# Mechanical properties :
#
#
# Convention : Reuss Voigt Hill
#
# Bulk Modulus (GPa) = 8.34278 22.37559 15.35918
# Shear Modulus (GPa) = 13.55671 24.44439 19.00055
#
# Velocity S-wave (km/s) = 2.47760 3.32693 2.93317
# Velocity P-wave (km/s) = 3.45865 4.98895 4.29254
#
# Compressibility (1/GPa) = 0.11986419
#
# Stress axis : x y z
#
# Youngs Moduli (GPa) = 11.00898 134.29007 17.99098
#
# Poissons Ratio (x) = 0.19829 0.22084
# Poissons Ratio (y) = 0.01626 0.05845
# Poissons Ratio (z) = 0.13513 0.43629
#
# Static dielectric constant tensor:
#      x y z
#    x 1.893510 0.000000 0.094440 
#    y 0.000000 1.869310 0.000000 
#    z 0.094440 0.000000 1.869470 
# 
# From -- ./inp_files/203570.got.cif
#   From: 2010.05.17/outbox.cif.g08.bks.cpg/sg15_102_cif.got.tgz:203570.got - 2010.06.03 18:47:42.
