data_PCOD9288882
_publ_section_title
;
Structure prediction by ZEFSAII (Michael W. Deem and Ramdas Pophale) SiO2 
 PCOD9288882
Probable space group: C 2/C
;
_chemical_formula_sum "Si O2"
_cell_formula_units_Z 44
_cell_length_a 11.182859
_cell_length_b 25.330852
_cell_length_c 7.954925
_cell_angle_alpha 90.000000
_cell_angle_beta 69.327683
_cell_angle_gamma 90.000000
_cell_volume 2108.316345
_symmetry_space_group_name_H-M "C 2/C"
_symmetry_group_IT_number 15
_symmetry_cell_setting 'monoclinic'
loop_
_space_group_symop_operation_xyz
x,y,z
-x,y,1/2-z
-x,-y,-z
x,-y,1/2+z
1/2+x,1/2+y,z
1/2-x,1/2+y,1/2-z
1/2-x,1/2-y,-z
1/2+x,1/2-y,1/2+z
loop_
_atom_site_type_symbol
_atom_site_label
_atom_site_fract_x
_atom_site_fract_y
_atom_site_fract_z
Si Si1 0.923631 0.619487 0.110403
Si Si2 0.321883 0.082919 0.668804
Si Si3 0.264064 0.773537 0.676973
Si Si4 0.500000 0.312959 0.750000
Si Si5 0.607461 0.332029 0.334314
Si Si6 0.653417 0.023020 0.184333
O O1 0.840081 0.671552 0.130758
O O2 0.836384 0.567246 0.175128
O O3 0.000000 0.626246 0.250000
O O4 0.033971 0.605866 0.921636
O O5 0.228018 0.130597 0.745384
O O6 0.299187 0.052545 0.503857
O O7 0.297785 0.035267 0.808967
O O8 0.250000 0.750000 0.500000
O O9 0.114856 0.782411 0.791249
O O10 0.344596 0.727988 0.727729
O O11 0.564779 0.339289 0.552131
O O12 0.500000 0.345330 0.250000
O O13 0.500000 0.015116 0.250000
#
# Coordination Sequence:
#
# PCOD9288882 Si02
#       6
#     8   8   8   4   8   8
#     4   9  19  37  67  99 127 170 219 276 331 388
#     4  10  22  39  66  98 127 166 225 266 339 385
#     4  10  23  41  63  98 133 174 218 271 330 395
#     4  10  26  44  62  96 140 168 226 266 330 392
#     4  11  26  44  68  96 135 181 221 269 328 404
#     4   9  19  38  63  99 127 159 217 280 325 386
#
# _framework density 20.869734000000001
#
# number of rings (size 3 to 8) (size 9 to 14) (size 15 to 20)
#    0.000    2.545    0.000    2.727   10.182    6.545 
#    0.000    0.909    2.000    0.000    0.000    0.000 
#    0.000    0.000    0.000    0.000    0.000    0.000 
#
# Total GULP energy -122533.778963 kJ/mol
# GULP energy per Si atom -5569.717226 kJ/mol
# Density = 2.082223 g / cm^3
# Si number density = 20.869734 Si / 1000 Ang^3
#
#
#
# Elastic Constant Matrix: (Units=GPa)
#
#
# Indices 1 2 3 4 5 6 
#
# 1 45.2586 36.0252 21.2827 0.0000 3.5736 0.0000
# 2 36.0252 135.0898 10.9701 0.0000 -5.6317 0.0000
# 3 21.2827 10.9701 94.3588 0.0000 4.2784 0.0000
# 4 0.0000 0.0000 0.0000 47.7556 0.0000 -0.5583
# 5 3.5736 -5.6317 4.2784 0.0000 24.5917 0.0000
# 6 0.0000 0.0000 0.0000 -0.5583 0.0000 29.1613
#
#
#
# Elastic Compliance Matrix: (Units=1/GPa)
#
#
# Indices 1 2 3 4 5 6 
#
# 1 0.031915 -0.008253 -0.005990 0.000000 -0.005486 0.000000
# 2 -0.008253 0.009694 0.000584 0.000000 0.003318 0.000000
# 3 -0.005990 0.000584 0.011930 0.000000 -0.001071 0.000000
# 4 0.000000 0.000000 0.000000 0.020945 0.000000 0.000401
# 5 -0.005486 0.003318 -0.001071 0.000000 0.042407 0.000000
# 6 0.000000 0.000000 0.000000 0.000401 0.000000 0.034300
#
#
# Mechanical properties :
#
#
# Convention : Reuss Voigt Hill
#
# Bulk Modulus (GPa) = 38.13880 45.69590 41.91735
# Shear Modulus (GPa) = 26.70246 34.06367 30.38306
#
# Velocity S-wave (km/s) = 3.58087 4.04444 3.81969
# Velocity P-wave (km/s) = 5.95073 6.61463 6.29144
#
# Compressibility (1/GPa) = 0.02622002
#
# Stress axis : x y z
#
# Youngs Moduli (GPa) = 31.33366 103.15370 83.82508
#
# Poissons Ratio (x) = 0.85134 0.50212
# Poissons Ratio (y) = 0.25860 -0.04895
# Poissons Ratio (z) = 0.18769 -0.06024
#
# Static dielectric constant tensor:
#      x y z
#    x 1.821390 0.000000 0.065240 
#    y 0.000000 1.788660 0.000000 
#    z 0.065240 0.000000 1.673460 
# 
# From -- ./inp_files/32428.got.cif
#   From: 2010.05.17/outbox.cif.g08.bks.cpg/sg15_17_cif.got.tgz:32428.got - 2010.06.03 18:47:42.
