data_PCOD9288513
_publ_section_title
;
Structure prediction by ZEFSAII (Michael W. Deem and Ramdas Pophale) SiO2 
 PCOD9288513
Probable space group: C 2/C
;
_chemical_formula_sum "Si O2"
_cell_formula_units_Z 52
_cell_length_a 8.469801
_cell_length_b 11.731529
_cell_length_c 25.049555
_cell_angle_alpha 90.000000
_cell_angle_beta 69.697501
_cell_angle_gamma 90.000000
_cell_volume 2334.383715
_symmetry_space_group_name_H-M "C 2/C"
_symmetry_group_IT_number 15
_symmetry_cell_setting 'monoclinic'
loop_
_space_group_symop_operation_xyz
x,y,z
-x,y,1/2-z
-x,-y,-z
x,-y,1/2+z
1/2+x,1/2+y,z
1/2-x,1/2+y,1/2-z
1/2-x,1/2-y,-z
1/2+x,1/2-y,1/2+z
loop_
_atom_site_type_symbol
_atom_site_label
_atom_site_fract_x
_atom_site_fract_y
_atom_site_fract_z
Si Si1 0.094226 0.392416 0.821154
Si Si2 0.500000 0.068629 0.750000
Si Si3 0.901769 0.096840 0.581574
Si Si4 0.837320 0.195304 0.875157
Si Si5 0.297332 0.762525 0.220200
Si Si6 0.448803 0.346391 0.550455
Si Si7 0.153135 0.805076 0.627722
O O1 0.006084 0.500187 0.804552
O O2 0.185914 0.335312 0.759090
O O3 0.233178 0.393823 0.851787
O O4 0.954462 0.306862 0.858707
O O5 0.661994 0.148685 0.737926
O O6 0.047127 0.103327 0.609593
O O7 0.988102 0.142463 0.517022
O O8 0.754743 0.185887 0.612171
O O9 0.855758 0.965330 0.576619
O O10 0.788984 0.174987 0.819381
O O11 0.670504 0.237285 0.925574
O O12 0.473797 0.712471 0.178246
O O13 0.604482 0.338781 0.573311
#
# Coordination Sequence:
#
# PCOD9288513 Si02
#       7
#     8   4   8   8   8   8   8
#     4  11  22  40  57  90 119 154 199 237 284 351
#     4  12  24  36  66  78 126 160 188 244 294 326
#     4  10  22  40  62  88 116 152 197 244 296 347
#     4  10  22  39  61  84 123 152 194 243 290 345
#     4  11  22  40  57  90 119 154 199 237 284 351
#     4  10  22  40  62  88 116 152 197 244 296 347
#     4  10  22  39  61  84 123 152 194 243 290 345
#
# _framework density 22.275687999999999
#
# number of rings (size 3 to 8) (size 9 to 14) (size 15 to 20)
#    0.000    1.538    3.077    0.923    4.308    0.000 
#    0.000    1.538    0.000    9.231    0.000    0.000 
#    0.000    0.000    0.000    0.000    0.000    0.000 
#
# Total GULP energy -145244.068767 kJ/mol
# GULP energy per Si atom -5586.310337 kJ/mol
# Density = 2.222499 g / cm^3
# Si number density = 22.275688 Si / 1000 Ang^3
#
#
#
# Elastic Constant Matrix: (Units=GPa)
#
#
# Indices 1 2 3 4 5 6 
#
# 1 110.6474 -0.9586 31.7156 0.0000 20.9905 0.0000
# 2 -0.9586 26.0002 -6.9961 0.0000 -6.1059 0.0000
# 3 31.7156 -6.9961 72.9221 0.0000 10.1874 0.0000
# 4 0.0000 0.0000 0.0000 25.9812 0.0000 9.9459
# 5 20.9905 -6.1059 10.1874 0.0000 32.1086 0.0000
# 6 0.0000 0.0000 0.0000 9.9459 0.0000 14.6326
#
#
#
# Elastic Compliance Matrix: (Units=1/GPa)
#
#
# Indices 1 2 3 4 5 6 
#
# 1 0.011500 -0.002280 -0.004300 0.000000 -0.006587 0.000000
# 2 -0.002280 0.041315 0.003819 0.000000 0.008136 0.000000
# 3 -0.004300 0.003819 0.016173 0.000000 -0.001594 0.000000
# 4 0.000000 0.000000 0.000000 0.052027 0.000000 -0.035363
# 5 -0.006587 0.008136 -0.001594 0.000000 0.037503 0.000000
# 6 0.000000 0.000000 0.000000 -0.035363 0.000000 0.092378
#
#
# Mechanical properties :
#
#
# Convention : Reuss Voigt Hill
#
# Bulk Modulus (GPa) = 15.75665 28.56572 22.16119
# Shear Modulus (GPa) = 18.01322 26.93173 22.47248
#
# Velocity S-wave (km/s) = 2.84676 3.48087 3.17966
# Velocity P-wave (km/s) = 4.23016 5.38580 4.84257
#
# Compressibility (1/GPa) = 0.06346526
#
# Stress axis : x y z
#
# Youngs Moduli (GPa) = 86.95487 24.20410 61.83310
#
# Poissons Ratio (x) = 0.05519 0.26590
# Poissons Ratio (y) = 0.19826 -0.23613
# Poissons Ratio (z) = 0.37392 -0.09243
#
# Static dielectric constant tensor:
#      x y z
#    x 1.837930 0.000000 0.028980 
#    y 0.000000 1.852950 0.000000 
#    z 0.028980 0.000000 1.790320 
# 
# From -- ./inp_files/68994.got.cif
#   From: 2010.05.17/outbox.cif.g08.bks.cpg/sg15_35_cif.got.tgz:68994.got - 2010.06.03 18:47:42.
