data_PCOD9288222
_publ_section_title
;
Structure prediction by ZEFSAII (Michael W. Deem and Ramdas Pophale) SiO2 
 PCOD9288222
Probable space group: C 2/C
;
_chemical_formula_sum "Si O2"
_cell_formula_units_Z 48
_cell_length_a 21.477290
_cell_length_b 8.740210
_cell_length_c 21.797278
_cell_angle_alpha 90.000000
_cell_angle_beta 147.128140
_cell_angle_gamma 90.000000
_cell_volume 2220.818466
_symmetry_space_group_name_H-M "C 2/C"
_symmetry_group_IT_number 15
_symmetry_cell_setting 'monoclinic'
loop_
_space_group_symop_operation_xyz
x,y,z
-x,y,1/2-z
-x,-y,-z
x,-y,1/2+z
1/2+x,1/2+y,z
1/2-x,1/2+y,1/2-z
1/2-x,1/2-y,-z
1/2+x,1/2-y,1/2+z
loop_
_atom_site_type_symbol
_atom_site_label
_atom_site_fract_x
_atom_site_fract_y
_atom_site_fract_z
Si Si1 0.833128 0.238141 0.510978
Si Si2 0.516025 0.019994 0.191135
Si Si3 0.783570 0.033130 0.896628
Si Si4 0.090324 0.673187 0.003515
Si Si5 0.866067 0.142205 0.347085
Si Si6 0.266618 0.913674 0.332370
O O1 0.750000 0.250000 0.500000
O O2 0.840175 0.061247 0.498904
O O3 0.775921 0.326183 0.404996
O O4 0.954149 0.319047 0.624524
O O5 0.500000 0.991104 0.250000
O O6 0.649517 0.009655 0.284726
O O7 0.450384 0.899222 0.094083
O O8 0.846309 0.964627 0.889292
O O9 0.803914 0.212430 0.918860
O O10 0.987855 0.777013 0.943833
O O11 0.127418 0.533952 0.078127
O O12 0.781364 0.286360 0.291536
O O13 0.837969 0.028065 0.267991
#
# Coordination Sequence:
#
# PCOD9288222 Si02
#       6
#     8   8   8   8   8   8
#     4  10  22  44  66  92 122 170 217 266 324 385
#     4  11  23  43  66  90 132 172 219 271 327 385
#     4  11  24  41  67  96 130 170 218 273 323 393
#     4  11  23  40  60  97 131 171 213 266 332 389
#     4  11  22  40  63  94 131 169 216 265 331 390
#     4  10  22  38  65  93 130 169 216 265 324 391
#
# _framework density 21.613652999999999
#
# number of rings (size 3 to 8) (size 9 to 14) (size 15 to 20)
#    0.000    1.333    1.667    4.000    0.000    6.000 
#    3.000    0.000    0.000    0.000    0.000    0.000 
#    0.000    0.000    0.000    0.000    0.000    0.000 
#
# Total GULP energy -134064.485177 kJ/mol
# GULP energy per Si atom -5586.020216 kJ/mol
# Density = 2.156446 g / cm^3
# Si number density = 21.613653 Si / 1000 Ang^3
#
#
#
# Elastic Constant Matrix: (Units=GPa)
#
#
# Indices 1 2 3 4 5 6 
#
# 1 42.4430 7.5654 10.6648 0.0000 -13.7873 0.0000
# 2 7.5654 116.9671 28.6966 0.0000 -2.5390 0.0000
# 3 10.6648 28.6966 54.1037 0.0000 -2.4819 0.0000
# 4 0.0000 0.0000 0.0000 46.2885 0.0000 -5.4561
# 5 -13.7873 -2.5390 -2.4819 0.0000 19.5612 0.0000
# 6 0.0000 0.0000 0.0000 -5.4561 0.0000 9.9223
#
#
#
# Elastic Compliance Matrix: (Units=1/GPa)
#
#
# Indices 1 2 3 4 5 6 
#
# 1 0.032014 -0.000338 -0.005128 0.000000 0.021870 0.000000
# 2 -0.000338 0.009839 -0.005134 0.000000 0.000388 0.000000
# 3 -0.005128 -0.005134 0.022150 0.000000 -0.001471 0.000000
# 4 0.000000 0.000000 0.000000 0.023101 0.000000 0.012703
# 5 0.021870 0.000388 -0.001471 0.000000 0.066400 0.000000
# 6 0.000000 0.000000 0.000000 0.012703 0.000000 0.107768
#
#
# Mechanical properties :
#
#
# Convention : Reuss Voigt Hill
#
# Bulk Modulus (GPa) = 23.36313 34.15190 28.75752
# Shear Modulus (GPa) = 16.84975 26.26020 21.55497
#
# Velocity S-wave (km/s) = 2.79514 3.48944 3.16141
# Velocity P-wave (km/s) = 4.60977 5.66307 5.16335
#
# Compressibility (1/GPa) = 0.04280248
#
# Stress axis : x y z
#
# Youngs Moduli (GPa) = 31.23623 101.63273 45.14734
#
# Poissons Ratio (x) = 0.03433 0.23152
# Poissons Ratio (y) = 0.01055 0.23181
# Poissons Ratio (z) = 0.16018 0.52183
#
# Static dielectric constant tensor:
#      x y z
#    x 1.763610 0.000000 -0.016660 
#    y 0.000000 1.804230 0.000000 
#    z -0.016660 0.000000 1.869030 
# 
# From -- ./inp_files/116267.got.cif
#   From: 2010.05.17/outbox.cif.g08.bks.cpg/sg15_59_cif.got.tgz:116267.got - 2010.06.03 18:47:42.
