data_PCOD9288958
_publ_section_title
;
Structure prediction by ZEFSAII (Michael W. Deem and Ramdas Pophale) SiO2 
 PCOD9288958
Probable space group: C 2/C
;
_chemical_formula_sum "Si O2"
_cell_formula_units_Z 56
_cell_length_a 8.813806
_cell_length_b 22.557503
_cell_length_c 13.887244
_cell_angle_alpha 90.000000
_cell_angle_beta 79.415528
_cell_angle_gamma 90.000000
_cell_volume 2714.048107
_symmetry_space_group_name_H-M "C 2/C"
_symmetry_group_IT_number 15
_symmetry_cell_setting 'monoclinic'
loop_
_space_group_symop_operation_xyz
x,y,z
-x,y,1/2-z
-x,-y,-z
x,-y,1/2+z
1/2+x,1/2+y,z
1/2-x,1/2+y,1/2-z
1/2-x,1/2-y,-z
1/2+x,1/2-y,1/2+z
loop_
_atom_site_type_symbol
_atom_site_label
_atom_site_fract_x
_atom_site_fract_y
_atom_site_fract_z
Si Si1 0.173690 0.748656 0.613251
Si Si2 0.357784 0.648560 0.706672
Si Si3 0.491072 0.429177 0.021376
Si Si4 0.840800 0.571481 0.524299
Si Si5 0.923071 0.471445 0.658348
Si Si6 0.936416 0.346871 0.154509
Si Si7 0.645004 0.383820 0.664074
O O1 0.250000 0.750000 0.500000
O O2 0.274844 0.700315 0.657716
O O3 0.172200 0.813232 0.659281
O O4 0.002408 0.719080 0.634032
O O5 0.500000 0.671907 0.750000
O O6 0.404020 0.595136 0.628478
O O7 0.240331 0.637099 0.807428
O O8 0.670061 0.409245 0.011512
O O9 0.500000 0.500000 0.000000
O O10 0.404473 0.401758 0.939042
O O11 0.833632 0.521975 0.608898
O O12 0.964276 0.618896 0.552873
O O13 0.929325 0.544673 0.423419
O O14 0.798137 0.418597 0.680078
O O15 0.000000 0.489519 0.750000
O O16 0.000000 0.368591 0.250000
O O17 0.500000 0.398148 0.750000
#
# Coordination Sequence:
#
# PCOD9288958 Si02
#       7
#     8   8   8   8   8   8   8
#     4  11  23  45  72 100 138 183 230 285 349 413
#     4  11  23  43  68 101 139 180 240 281 344 423
#     4  12  25  43  68 104 139 187 231 291 352 416
#     4  11  23  43  66  97 134 175 236 275 345 414
#     4  11  25  43  65  98 138 181 219 287 351 411
#     4  10  22  39  68  98 131 180 230 277 339 411
#     4  12  25  45  70 101 141 178 228 286 354 414
#
# _framework density 20.633385000000001
#
# number of rings (size 3 to 8) (size 9 to 14) (size 15 to 20)
#    0.000    0.857    4.286    3.429    2.000    3.429 
#    0.000    5.714    0.000    0.000    0.000    0.000 
#    0.000    0.000    0.000    0.000    0.000    0.000 
#
# Total GULP energy -156060.831909 kJ/mol
# GULP energy per Si atom -5573.601140 kJ/mol
# Density = 2.058642 g / cm^3
# Si number density = 20.633385 Si / 1000 Ang^3
#
#
#
# Elastic Constant Matrix: (Units=GPa)
#
#
# Indices 1 2 3 4 5 6 
#
# 1 80.5790 9.8845 10.1315 0.0000 -8.5751 0.0000
# 2 9.8845 110.7392 12.5933 0.0000 -11.2229 0.0000
# 3 10.1315 12.5933 91.3560 0.0000 -0.8050 0.0000
# 4 0.0000 0.0000 0.0000 32.0210 0.0000 -3.8792
# 5 -8.5751 -11.2229 -0.8050 0.0000 32.5569 0.0000
# 6 0.0000 0.0000 0.0000 -3.8792 0.0000 29.5470
#
#
#
# Elastic Compliance Matrix: (Units=1/GPa)
#
#
# Indices 1 2 3 4 5 6 
#
# 1 0.012996 -0.000691 -0.001318 0.000000 0.003152 0.000000
# 2 -0.000691 0.009542 -0.001212 0.000000 0.003077 0.000000
# 3 -0.001318 -0.001212 0.011255 0.000000 -0.000487 0.000000
# 4 0.000000 0.000000 0.000000 0.031734 0.000000 0.004166
# 5 0.003152 0.003077 -0.000487 0.000000 0.032595 0.000000
# 6 0.000000 0.000000 0.000000 0.004166 0.000000 0.034391
#
#
# Mechanical properties :
#
#
# Convention : Reuss Voigt Hill
#
# Bulk Modulus (GPa) = 36.56076 38.65476 37.60776
# Shear Modulus (GPa) = 33.76753 35.49596 34.63174
#
# Velocity S-wave (km/s) = 4.04982 4.15217 4.10131
# Velocity P-wave (km/s) = 6.29490 6.46236 6.37918
#
# Compressibility (1/GPa) = 0.02735173
#
# Stress axis : x y z
#
# Youngs Moduli (GPa) = 76.94601 104.80506 88.84850
#
# Poissons Ratio (x) = 0.07238 0.11713
# Poissons Ratio (y) = 0.05314 0.10765
# Poissons Ratio (z) = 0.10144 0.12698
#
# Static dielectric constant tensor:
#      x y z
#    x -2.418590 0.000000 5.488050 
#    y 0.000000 1.790230 0.000000 
#    z 5.488050 0.000000 -5.228260 
# 
# From -- ./inp_files/137255.got.cif
#   From: 2010.05.17/outbox.cif.g08.bks.cpg/sg15_69_cif.got.tgz:137255.got - 2010.06.03 18:47:42.
