data_PCOD9288579
_publ_section_title
;
Structure prediction by ZEFSAII (Michael W. Deem and Ramdas Pophale) SiO2 
 PCOD9288579
Probable space group: C 2/C
;
_chemical_formula_sum "Si O2"
_cell_formula_units_Z 48
_cell_length_a 16.266223
_cell_length_b 30.409443
_cell_length_c 8.402348
_cell_angle_alpha 90.000000
_cell_angle_beta 143.449371
_cell_angle_gamma 90.000000
_cell_volume 2475.150403
_symmetry_space_group_name_H-M "C 2/C"
_symmetry_group_IT_number 15
_symmetry_cell_setting 'monoclinic'
loop_
_space_group_symop_operation_xyz
x,y,z
-x,y,1/2-z
-x,-y,-z
x,-y,1/2+z
1/2+x,1/2+y,z
1/2-x,1/2+y,1/2-z
1/2-x,1/2-y,-z
1/2+x,1/2-y,1/2+z
loop_
_atom_site_type_symbol
_atom_site_label
_atom_site_fract_x
_atom_site_fract_y
_atom_site_fract_z
Si Si1 0.156867 0.053387 0.051471
Si Si2 0.344783 0.459160 0.574545
Si Si3 0.355823 0.128724 0.237705
Si Si4 0.082903 0.277980 0.548243
Si Si5 0.326262 0.876910 0.312836
Si Si6 0.705217 0.778613 0.278665
O O1 0.154396 0.046502 0.235801
O O2 0.255908 0.093127 0.158887
O O3 0.000000 0.061553 0.750000
O O4 0.207698 0.007797 0.051489
O O5 0.500000 0.457346 0.750000
O O6 0.260618 0.419413 0.366665
O O7 0.341783 0.176485 0.295079
O O8 0.517615 0.116842 0.506018
O O9 0.329083 0.130083 0.007148
O O10 0.196122 0.239748 0.706545
O O11 0.960521 0.272320 0.487803
O O12 0.000000 0.281742 0.250000
O O13 0.271777 0.830522 0.159530
O O14 0.750000 0.750000 0.500000
#
# Coordination Sequence:
#
# PCOD9288579 Si02
#       6
#     8   8   8   8   8   8
#     4  11  23  41  63  91 121 159 199 254 303 366
#     4  11  23  40  66  87 126 156 202 248 309 364
#     4  10  22  39  62  86 129 156 209 251 300 365
#     4   9  19  36  59  85 121 160 203 252 307 357
#     4  10  22  40  61  90 121 169 197 253 306 358
#     4   9  19  35  57  84 121 157 207 247 302 360
#
# _framework density 19.392761
#
# number of rings (size 3 to 8) (size 9 to 14) (size 15 to 20)
#    0.000    2.000    0.000    4.000    7.000    3.333 
#    3.000    0.000    0.000    0.000    0.000    0.000 
#    0.000    0.000    0.000    0.000    0.000    0.000 
#
# Total GULP energy -133999.736356 kJ/mol
# GULP energy per Si atom -5583.322348 kJ/mol
# Density = 1.934862 g / cm^3
# Si number density = 19.392761 Si / 1000 Ang^3
#
#
#
# Elastic Constant Matrix: (Units=GPa)
#
#
# Indices 1 2 3 4 5 6 
#
# 1 74.0298 47.1159 22.8601 0.0000 8.8993 0.0000
# 2 47.1159 154.8811 68.0224 0.0000 30.5959 0.0000
# 3 22.8601 68.0224 61.4362 0.0000 1.1775 0.0000
# 4 0.0000 0.0000 0.0000 39.4605 0.0000 4.1828
# 5 8.8993 30.5959 1.1775 0.0000 25.7582 0.0000
# 6 0.0000 0.0000 0.0000 4.1828 0.0000 43.1158
#
#
#
# Elastic Compliance Matrix: (Units=1/GPa)
#
#
# Indices 1 2 3 4 5 6 
#
# 1 0.016797 -0.004424 -0.001343 0.000000 -0.000487 0.000000
# 2 -0.004424 0.022798 -0.023126 0.000000 -0.024494 0.000000
# 3 -0.001343 -0.023126 0.041883 0.000000 0.026019 0.000000
# 4 0.000000 0.000000 0.000000 0.025605 0.000000 -0.002484
# 5 -0.000487 -0.024494 0.026019 0.000000 0.066896 0.000000
# 6 0.000000 0.000000 0.000000 -0.002484 0.000000 0.023434
#
#
# Mechanical properties :
#
#
# Convention : Reuss Voigt Hill
#
# Bulk Modulus (GPa) = 42.20724 62.92710 52.56717
# Shear Modulus (GPa) = 19.00449 31.82347 25.41398
#
# Velocity S-wave (km/s) = 3.13386 4.05532 3.62399
# Velocity P-wave (km/s) = 5.90817 7.37880 6.68405
#
# Compressibility (1/GPa) = 0.02369262
#
# Stress axis : x y z
#
# Youngs Moduli (GPa) = 59.53542 43.86393 23.87584
#
# Poissons Ratio (x) = 0.19405 0.03206
# Poissons Ratio (y) = 0.26337 0.55216
# Poissons Ratio (z) = 0.07993 1.01441
#
# Static dielectric constant tensor:
#      x y z
#    x 1.712010 0.000000 -0.009590 
#    y 0.000000 1.658320 0.000000 
#    z -0.009590 0.000000 1.676450 
# 
# From -- ./inp_files/52877.got.cif
#   From: 2010.05.17/outbox.cif.g08.bks.cpg/sg15_27_cif.got.tgz:52877.got - 2010.06.03 18:47:42.
