data_PCOD9288006
_publ_section_title
;
Structure prediction by ZEFSAII (Michael W. Deem and Ramdas Pophale) SiO2 
 PCOD9288006
Probable space group: C 2/C
;
_chemical_formula_sum "Si O2"
_cell_formula_units_Z 52
_cell_length_a 26.641703
_cell_length_b 5.446963
_cell_length_c 17.495354
_cell_angle_alpha 90.000000
_cell_angle_beta 66.061351
_cell_angle_gamma 90.000000
_cell_volume 2320.470503
_symmetry_space_group_name_H-M "C 2/C"
_symmetry_group_IT_number 15
_symmetry_cell_setting 'monoclinic'
loop_
_space_group_symop_operation_xyz
x,y,z
-x,y,1/2-z
-x,-y,-z
x,-y,1/2+z
1/2+x,1/2+y,z
1/2-x,1/2+y,1/2-z
1/2-x,1/2-y,-z
1/2+x,1/2-y,1/2+z
loop_
_atom_site_type_symbol
_atom_site_label
_atom_site_fract_x
_atom_site_fract_y
_atom_site_fract_z
Si Si1 0.341882 0.847005 0.530187
Si Si2 0.992977 0.306857 0.900639
Si Si3 0.896721 0.150519 0.058812
Si Si4 0.091693 0.620397 0.649918
Si Si5 0.222711 0.687434 0.295348
Si Si6 0.607358 0.015353 0.812167
Si Si7 0.500000 0.509555 0.250000
O O1 0.375360 0.610290 0.542198
O O2 0.353582 0.834683 0.432666
O O3 0.283581 0.818347 0.608403
O O4 0.363228 0.118800 0.542130
O O5 0.050748 0.425717 0.886729
O O6 0.950926 0.487606 0.881815
O O7 0.009465 0.127947 0.822635
O O8 0.958413 0.183262 0.989024
O O9 0.888850 0.209744 0.153562
O O10 0.102376 0.493379 0.724270
O O11 0.056094 0.850015 0.698035
O O12 0.257140 0.452640 0.245025
O O13 0.161387 0.630263 0.302962
#
# Coordination Sequence:
#
# PCOD9288006 Si02
#       7
#     8   8   8   8   8   8   4
#     4  10  22  43  66  92 129 174 209 270 335 380
#     4  11  21  38  56  97 142 174 206 255 317 407
#     4  10  22  38  61  98 134 172 213 254 314 404
#     4  11  22  39  60 100 137 169 208 255 324 407
#     4  11  25  48  68  91 124 169 230 292 328 366
#     4  11  22  41  65  96 128 176 222 265 326 386
#     4  12  18  34  62  88 146 178 200 242 314 390
#
# _framework density 22.40925
#
# number of rings (size 3 to 8) (size 9 to 14) (size 15 to 20)
#    0.000    1.231    4.615    2.308    0.000    3.692 
#    0.000    6.923    0.000    0.000    0.000    0.000 
#    0.000    0.000    0.000    0.000    0.000    0.000 
#
# Total GULP energy -144996.537982 kJ/mol
# GULP energy per Si atom -5576.789922 kJ/mol
# Density = 2.235825 g / cm^3
# Si number density = 22.409250 Si / 1000 Ang^3
#
#
#
# Elastic Constant Matrix: (Units=GPa)
#
#
# Indices 1 2 3 4 5 6 
#
# 1 49.5146 10.6745 -4.6669 -0.0011 -17.4250 -0.0004
# 2 10.6745 90.0828 30.3231 -0.0058 -0.6387 -0.0037
# 3 -4.6669 30.3231 158.7165 0.0000 -12.8970 -0.0003
# 4 -0.0011 -0.0058 0.0000 48.7966 0.0010 -4.2470
# 5 -17.4250 -0.6387 -12.8970 0.0010 50.4901 0.0004
# 6 -0.0004 -0.0037 -0.0003 -4.2470 0.0004 29.2075
#
#
#
# Elastic Compliance Matrix: (Units=1/GPa)
#
#
# Indices 1 2 3 4 5 6 
#
# 1 0.024277 -0.003523 0.002108 0.000000 0.008872 0.000000
# 2 -0.003523 0.012385 -0.002610 0.000002 -0.001726 0.000002
# 3 0.002108 -0.002610 0.007064 0.000000 0.002499 0.000000
# 4 0.000000 0.000002 0.000000 0.020756 -0.000001 0.003018
# 5 0.008872 -0.001726 0.002499 -0.000001 0.023484 0.000000
# 6 0.000000 0.000002 0.000000 0.003018 0.000000 0.034677
#
#
# Mechanical properties :
#
#
# Convention : Reuss Voigt Hill
#
# Bulk Modulus (GPa) = 28.03110 41.21947 34.62529
# Shear Modulus (GPa) = 35.06691 43.16440 39.11566
#
# Velocity S-wave (km/s) = 3.96010 4.39360 4.18247
# Velocity P-wave (km/s) = 5.78323 6.64621 6.22968
#
# Compressibility (1/GPa) = 0.03567466
#
# Stress axis : x y z
#
# Youngs Moduli (GPa) = 41.19206 80.74469 141.55842
#
# Poissons Ratio (x) = 0.28449 -0.29839
# Poissons Ratio (y) = 0.14513 0.36946
# Poissons Ratio (z) = -0.08683 0.21074
#
# Static dielectric constant tensor:
#      x y z
#    x 1.925010 0.000000 0.021840 
#    y 0.000000 1.908480 0.000000 
#    z 0.021840 0.000000 1.894020 
# 
# From -- ./inp_files/221172.got.cif
#   From: 2010.05.17/outbox.cif.g08.bks.cpg/sg15_111_cif.got.tgz:221172.got - 2010.06.03 18:47:42.
