data_PCOD9288305
_publ_section_title
;
Structure prediction by ZEFSAII (Michael W. Deem and Ramdas Pophale) SiO2 
 PCOD9288305
Probable space group: C 2/C
;
_chemical_formula_sum "Si O2"
_cell_formula_units_Z 32
_cell_length_a 12.473303
_cell_length_b 5.600167
_cell_length_c 21.124524
_cell_angle_alpha 90.000000
_cell_angle_beta 99.986676
_cell_angle_gamma 90.000000
_cell_volume 1453.244329
_symmetry_space_group_name_H-M "C 2/C"
_symmetry_group_IT_number 15
_symmetry_cell_setting 'monoclinic'
loop_
_space_group_symop_operation_xyz
x,y,z
-x,y,1/2-z
-x,-y,-z
x,-y,1/2+z
1/2+x,1/2+y,z
1/2-x,1/2+y,1/2-z
1/2-x,1/2-y,-z
1/2+x,1/2-y,1/2+z
loop_
_atom_site_type_symbol
_atom_site_label
_atom_site_fract_x
_atom_site_fract_y
_atom_site_fract_z
Si Si1 0.355875 0.090211 0.014368
Si Si2 0.316913 0.240593 0.253219
Si Si3 0.482012 0.691277 0.053805
Si Si4 0.972223 0.187946 0.648622
O O1 0.421147 0.181534 0.083009
O O2 0.365179 0.809563 0.028751
O O3 0.250000 0.250000 0.000000
O O4 0.420810 0.130214 0.955294
O O5 0.246651 0.485704 0.256317
O O6 0.410174 0.223734 0.316693
O O7 0.386283 0.285698 0.196274
O O8 0.487535 0.580828 0.123511
O O9 0.500000 0.500000 0.000000
#
# Coordination Sequence:
#
# PCOD9288305 Si02
#       4
#     8   8   8   8
#     4  10  22  38  68 100 138 181 223 283 359 420
#     4  11  28  46  71  99 134 186 233 291 351 402
#     4   9  21  40  62  98 137 171 223 283 341 422
#     4  10  25  42  68  99 135 176 236 286 337 430
#
# _framework density 22.019698999999999
#
# number of rings (size 3 to 8) (size 9 to 14) (size 15 to 20)
#    0.000    2.000    0.000    0.000   10.500   10.000 
#    0.000    0.000    0.000    0.000    0.000    0.000 
#    0.000    0.000    0.000    0.000    0.000    0.000 
#
# Total GULP energy -89114.565398 kJ/mol
# GULP energy per Si atom -5569.660337 kJ/mol
# Density = 2.196958 g / cm^3
# Si number density = 22.019699 Si / 1000 Ang^3
#
#
#
# Elastic Constant Matrix: (Units=GPa)
#
#
# Indices 1 2 3 4 5 6 
#
# 1 134.0828 50.3842 68.3102 0.0000 24.3057 0.0000
# 2 50.3842 92.9549 40.7968 0.0000 15.8694 0.0000
# 3 68.3102 40.7968 117.5857 0.0000 13.7801 0.0000
# 4 0.0000 0.0000 0.0000 43.1008 0.0000 2.4586
# 5 24.3057 15.8694 13.7801 0.0000 31.5525 0.0000
# 6 0.0000 0.0000 0.0000 2.4586 0.0000 34.8421
#
#
#
# Elastic Compliance Matrix: (Units=1/GPa)
#
#
# Indices 1 2 3 4 5 6 
#
# 1 0.012529 -0.003463 -0.005428 0.000000 -0.005539 0.000000
# 2 -0.003463 0.014345 -0.002564 0.000000 -0.003428 0.000000
# 3 -0.005428 -0.002564 0.012548 0.000000 -0.000010 0.000000
# 4 0.000000 0.000000 0.000000 0.023295 0.000000 -0.001644
# 5 -0.005539 -0.003428 -0.000010 0.000000 0.037688 0.000000
# 6 0.000000 0.000000 0.000000 -0.001644 0.000000 0.028817
#
#
# Mechanical properties :
#
#
# Convention : Reuss Voigt Hill
#
# Bulk Modulus (GPa) = 60.55731 73.73397 67.14564
# Shear Modulus (GPa) = 31.71864 34.24122 32.97993
#
# Velocity S-wave (km/s) = 3.79947 3.94766 3.87427
# Velocity P-wave (km/s) = 6.84171 7.37135 7.11147
#
# Compressibility (1/GPa) = 0.01651328
#
# Stress axis : x y z
#
# Youngs Moduli (GPa) = 79.81651 69.70911 79.69248
#
# Poissons Ratio (x) = 0.24141 0.43255
# Poissons Ratio (y) = 0.27642 0.20430
# Poissons Ratio (z) = 0.43323 0.17871
#
# Static dielectric constant tensor:
#      x y z
#    x 1.883060 0.000000 0.027840 
#    y 0.000000 2.265520 0.000000 
#    z 0.027840 0.000000 1.770540 
# 
# From -- ./inp_files/267134.got.cif
#   From: 2010.05.17/outbox.cif.g08.bks.cpg/sg15_134_cif.got.tgz:267134.got - 2010.06.03 18:47:42.
