data_PCOD9288280
_publ_section_title
;
Structure prediction by ZEFSAII (Michael W. Deem and Ramdas Pophale) SiO2 
 PCOD9288280
Probable space group: C 2/C
;
_chemical_formula_sum "Si O2"
_cell_formula_units_Z 40
_cell_length_a 5.742457
_cell_length_b 18.967089
_cell_length_c 20.191109
_cell_angle_alpha 90.000000
_cell_angle_beta 131.924462
_cell_angle_gamma 90.000000
_cell_volume 1636.239698
_symmetry_space_group_name_H-M "C 2/C"
_symmetry_group_IT_number 15
_symmetry_cell_setting 'monoclinic'
loop_
_space_group_symop_operation_xyz
x,y,z
-x,y,1/2-z
-x,-y,-z
x,-y,1/2+z
1/2+x,1/2+y,z
1/2-x,1/2+y,1/2-z
1/2-x,1/2-y,-z
1/2+x,1/2-y,1/2+z
loop_
_atom_site_type_symbol
_atom_site_label
_atom_site_fract_x
_atom_site_fract_y
_atom_site_fract_z
Si Si1 0.119607 0.236752 0.575622
Si Si2 0.926332 0.819151 0.161953
Si Si3 0.957594 0.824641 0.913052
Si Si4 0.771020 0.467872 0.400726
Si Si5 0.242976 0.019251 0.105940
O O1 0.157051 0.187788 0.518270
O O2 0.302139 0.309873 0.601169
O O3 0.750000 0.250000 0.500000
O O4 0.186151 0.196026 0.655397
O O5 0.768816 0.742392 0.138769
O O6 0.727431 0.883605 0.095510
O O7 0.000000 0.841865 0.250000
O O8 0.777206 0.897016 0.885355
O O9 0.419330 0.487867 0.358411
O O10 0.000000 0.500000 0.500000
O O11 0.923176 0.493845 0.360069
O O12 0.000000 0.000000 0.000000
#
# Coordination Sequence:
#
# PCOD9288280 Si02
#       5
#     8   8   8   8   8
#     4   9  20  35  65  96 131 165 233 289 337 411
#     4  11  25  43  65  99 139 188 232 295 363 429
#     4  10  22  38  68  99 129 179 234 291 347 420
#     4  10  23  40  65  96 135 178 232 286 350 423
#     4  10  22  38  66  99 132 170 222 289 345 407
#
# _framework density 24.446296
#
# number of rings (size 3 to 8) (size 9 to 14) (size 15 to 20)
#    0.000    2.000    0.000    2.400   25.200    0.800 
#    0.000    2.000    0.000    0.000    0.000    0.000 
#    0.000    0.000    0.000    0.000    0.000    0.000 
#
# Total GULP energy -111510.090084 kJ/mol
# GULP energy per Si atom -5575.504504 kJ/mol
# Density = 2.439066 g / cm^3
# Si number density = 24.446296 Si / 1000 Ang^3
#
#
#
# Elastic Constant Matrix: (Units=GPa)
#
#
# Indices 1 2 3 4 5 6 
#
# 1 186.4134 67.1529 18.8149 0.0000 -40.7916 0.0000
# 2 67.1529 185.8266 8.2546 0.0000 -1.5318 0.0000
# 3 18.8149 8.2546 70.0611 0.0000 -20.7826 0.0000
# 4 0.0000 0.0000 0.0000 11.8438 0.0000 -9.8808
# 5 -40.7916 -1.5318 -20.7826 0.0000 24.6709 0.0000
# 6 0.0000 0.0000 0.0000 -9.8808 0.0000 41.6324
#
#
#
# Elastic Compliance Matrix: (Units=1/GPa)
#
#
# Indices 1 2 3 4 5 6 
#
# 1 0.011073 -0.003995 0.003805 0.000000 0.021266 0.000000
# 2 -0.003995 0.006853 -0.002090 0.000000 -0.007941 0.000000
# 3 0.003805 -0.002090 0.020431 0.000000 0.023373 0.000000
# 4 0.000000 0.000000 0.000000 0.105277 0.000000 0.024986
# 5 0.021266 -0.007941 0.023373 0.000000 0.094892 0.000000
# 6 0.000000 0.000000 0.000000 0.024986 0.000000 0.029950
#
#
# Mechanical properties :
#
#
# Convention : Reuss Voigt Hill
#
# Bulk Modulus (GPa) = 29.58884 70.08288 49.83586
# Shear Modulus (GPa) = 17.58700 38.83465 28.21082
#
# Velocity S-wave (km/s) = 2.68510 3.99001 3.40073
# Velocity P-wave (km/s) = 4.66293 7.06804 5.98749
#
# Compressibility (1/GPa) = 0.03379653
#
# Stress axis : x y z
#
# Youngs Moduli (GPa) = 90.30864 145.93141 48.94569
#
# Poissons Ratio (x) = 0.58304 -0.18626
# Poissons Ratio (y) = 0.36081 0.10230
# Poissons Ratio (z) = -0.34366 0.30500
#
# Static dielectric constant tensor:
#      x y z
#    x 2.093580 0.000000 -0.054970 
#    y 0.000000 1.402990 0.000000 
#    z -0.054970 0.000000 1.994660 
# 
# From -- ./inp_files/184247.got.cif
#   From: 2010.05.17/outbox.cif.g08.bks.cpg/sg15_93_cif.got.tgz:184247.got - 2010.06.03 18:47:42.
