data_PCOD9288707
_publ_section_title
;
Structure prediction by ZEFSAII (Michael W. Deem and Ramdas Pophale) SiO2 
 PCOD9288707
Probable space group: C 2/C
;
_chemical_formula_sum "Si O2"
_cell_formula_units_Z 52
_cell_length_a 18.422863
_cell_length_b 13.332814
_cell_length_c 23.038062
_cell_angle_alpha 90.000000
_cell_angle_beta 155.150474
_cell_angle_gamma 90.000000
_cell_volume 2378.037840
_symmetry_space_group_name_H-M "C 2/C"
_symmetry_group_IT_number 15
_symmetry_cell_setting 'monoclinic'
loop_
_space_group_symop_operation_xyz
x,y,z
-x,y,1/2-z
-x,-y,-z
x,-y,1/2+z
1/2+x,1/2+y,z
1/2-x,1/2+y,1/2-z
1/2-x,1/2-y,-z
1/2+x,1/2-y,1/2+z
loop_
_atom_site_type_symbol
_atom_site_label
_atom_site_fract_x
_atom_site_fract_y
_atom_site_fract_z
Si Si1 0.533965 0.316640 0.404961
Si Si2 0.684242 0.501397 0.203020
Si Si3 0.188410 0.797543 0.636307
Si Si4 0.309687 0.547083 0.166936
Si Si5 0.500000 0.629300 0.750000
Si Si6 0.946701 0.778519 0.650167
Si Si7 0.028832 0.652644 0.607066
O O1 0.459812 0.423581 0.376444
O O2 0.378013 0.236177 0.295116
O O3 0.676365 0.293523 0.557493
O O4 0.568685 0.322589 0.360681
O O5 0.638133 0.594670 0.128106
O O6 0.760959 0.540139 0.319314
O O7 0.832602 0.434109 0.282675
O O8 0.064330 0.712291 0.573387
O O9 0.347259 0.441874 0.164161
O O10 0.492186 0.606140 0.304039
O O11 0.164104 0.610215 0.029028
O O12 0.750000 0.750000 0.500000
O O13 0.053847 0.732632 0.675700
O O14 0.000000 0.732944 0.750000
#
# Coordination Sequence:
#
# PCOD9288707 Si02
#       7
#     8   8   8   8   4   8   8
#     4  10  24  40  66  93 124 171 210 264 322 387
#     4  10  22  39  63  98 126 165 211 275 324 373
#     4  11  22  42  65  98 128 162 218 268 324 376
#     4  11  20  41  64  90 128 172 213 264 319 394
#     4  10  22  42  60  88 126 172 216 254 320 388
#     4  12  23  39  61  92 127 172 209 256 325 386
#     4  11  23  39  66  95 130 167 214 270 325 382
#
# _framework density 21.866766999999999
#
# number of rings (size 3 to 8) (size 9 to 14) (size 15 to 20)
#    0.000    1.231    3.846    1.846    2.154    3.077 
#    8.308    0.000    0.000    0.000    0.000    0.000 
#    0.000    0.000    0.000    0.000    0.000    0.000 
#
# Total GULP energy -144977.025788 kJ/mol
# GULP energy per Si atom -5576.039453 kJ/mol
# Density = 2.181700 g / cm^3
# Si number density = 21.866767 Si / 1000 Ang^3
#
#
#
# Elastic Constant Matrix: (Units=GPa)
#
#
# Indices 1 2 3 4 5 6 
#
# 1 90.3928 6.8835 12.7711 -0.0013 -29.9516 -0.0005
# 2 6.8835 58.4159 8.9755 -0.0018 -0.8384 -0.0009
# 3 12.7711 8.9755 71.1121 -0.0060 -17.5081 -0.0043
# 4 -0.0013 -0.0018 -0.0060 22.1773 -0.0022 -4.2946
# 5 -29.9516 -0.8384 -17.5081 -0.0022 43.2182 -0.0013
# 6 -0.0005 -0.0009 -0.0043 -4.2946 -0.0013 30.4496
#
#
#
# Elastic Compliance Matrix: (Units=1/GPa)
#
#
# Indices 1 2 3 4 5 6 
#
# 1 0.014502 -0.001575 0.000068 0.000002 0.010048 0.000001
# 2 -0.001575 0.017643 -0.002364 0.000001 -0.001707 0.000000
# 3 0.000068 -0.002364 0.015939 0.000005 0.006458 0.000003
# 4 0.000002 0.000001 0.000005 0.046357 0.000006 0.006538
# 5 0.010048 -0.001707 0.006458 0.000006 0.032685 0.000003
# 6 0.000001 0.000000 0.000003 0.006538 0.000003 0.033763
#
#
# Mechanical properties :
#
#
# Convention : Reuss Voigt Hill
#
# Bulk Modulus (GPa) = 24.78851 30.79789 27.79320
# Shear Modulus (GPa) = 27.46058 31.92174 29.69116
#
# Velocity S-wave (km/s) = 3.54759 3.82492 3.68886
# Velocity P-wave (km/s) = 5.30484 5.79841 5.55711
#
# Compressibility (1/GPa) = 0.04034128
#
# Stress axis : x y z
#
# Youngs Moduli (GPa) = 68.95379 56.67964 62.74112
#
# Poissons Ratio (x) = 0.08928 -0.00427
# Poissons Ratio (y) = 0.10861 0.14834
# Poissons Ratio (z) = -0.00470 0.13401
#
# Static dielectric constant tensor:
#      x y z
#    x 1.858230 0.000000 -0.010930 
#    y 0.000000 1.812550 0.000000 
#    z -0.010930 0.000000 1.810280 
# 
# From -- ./inp_files/249129.got.cif
#   From: 2010.05.17/outbox.cif.g08.bks.cpg/sg15_125_cif.got.tgz:249129.got - 2010.06.03 18:47:42.
