data_PCOD9288701
_publ_section_title
;
Structure prediction by ZEFSAII (Michael W. Deem and Ramdas Pophale) SiO2 
 PCOD9288701
Probable space group: C 2/C
;
_chemical_formula_sum "Si O2"
_cell_formula_units_Z 48
_cell_length_a 17.130891
_cell_length_b 21.071255
_cell_length_c 7.672638
_cell_angle_alpha 90.000000
_cell_angle_beta 132.318925
_cell_angle_gamma 90.000000
_cell_volume 2047.857119
_symmetry_space_group_name_H-M "C 2/C"
_symmetry_group_IT_number 15
_symmetry_cell_setting 'monoclinic'
loop_
_space_group_symop_operation_xyz
x,y,z
-x,y,1/2-z
-x,-y,-z
x,-y,1/2+z
1/2+x,1/2+y,z
1/2-x,1/2+y,1/2-z
1/2-x,1/2-y,-z
1/2+x,1/2-y,1/2+z
loop_
_atom_site_type_symbol
_atom_site_label
_atom_site_fract_x
_atom_site_fract_y
_atom_site_fract_z
Si Si1 0.423133 0.587673 0.854514
Si Si2 0.000000 0.007357 0.250000
Si Si3 0.301398 0.080195 0.880293
Si Si4 0.619681 0.948783 0.375974
Si Si5 0.371394 0.809681 0.044566
Si Si6 0.803145 0.718950 0.837435
Si Si7 0.500000 0.699149 0.750000
O O1 0.408607 0.544470 0.658866
O O2 0.324271 0.582574 0.832787
O O3 0.459510 0.655052 0.846299
O O4 0.510343 0.553538 0.101635
O O5 0.368450 0.070558 0.807096
O O6 0.315332 0.152962 0.963512
O O7 0.322991 0.016254 0.019126
O O8 0.500000 0.960639 0.250000
O O9 0.651958 0.884546 0.530238
O O10 0.500000 0.801703 0.250000
O O11 0.324539 0.799021 0.167805
O O12 0.306294 0.759529 0.827010
O O13 0.899816 0.761882 0.039548
#
# Coordination Sequence:
#
# PCOD9288701 Si02
#       7
#     8   4   8   8   8   8   4
#     4  10  22  39  63  96 129 182 219 282 346 408
#     4   9  20  40  64  90 132 169 226 272 338 419
#     4  11  23  40  65  98 126 175 223 273 349 405
#     4  10  22  41  66  97 132 172 223 287 340 398
#     4   9  21  44  70  94 130 183 235 279 337 413
#     4  10  24  42  65 100 136 178 228 283 348 414
#     4  11  26  44  60 100 144 173 226 292 356 409
#
# _framework density 23.439135
#
# number of rings (size 3 to 8) (size 9 to 14) (size 15 to 20)
#    0.000    2.000    0.000    1.500    3.500   10.000 
#    0.000    0.000    0.000    0.000    0.000    0.000 
#    0.000    0.000    0.000    0.000    0.000    0.000 
#
# Total GULP energy -133663.412387 kJ/mol
# GULP energy per Si atom -5569.308849 kJ/mol
# Density = 2.338579 g / cm^3
# Si number density = 23.439135 Si / 1000 Ang^3
#
#
#
# Elastic Constant Matrix: (Units=GPa)
#
#
# Indices 1 2 3 4 5 6 
#
# 1 63.1087 10.9843 7.3169 0.0000 15.5942 0.0000
# 2 10.9843 216.4522 73.7685 0.0000 20.2210 0.0000
# 3 7.3169 73.7685 52.3731 0.0000 16.0184 0.0000
# 4 0.0000 0.0000 0.0000 16.2192 0.0000 0.0800
# 5 15.5942 20.2210 16.0184 0.0000 34.0582 0.0000
# 6 0.0000 0.0000 0.0000 0.0800 0.0000 26.4752
#
#
#
# Elastic Compliance Matrix: (Units=1/GPa)
#
#
# Indices 1 2 3 4 5 6 
#
# 1 0.017876 -0.000279 0.000406 0.000000 -0.008210 0.000000
# 2 -0.000279 0.008904 -0.012761 0.000000 0.000843 0.000000
# 3 0.000406 -0.012761 0.040589 0.000000 -0.011700 0.000000
# 4 0.000000 0.000000 0.000000 0.061656 0.000000 -0.000186
# 5 -0.008210 0.000843 -0.011700 0.000000 0.038123 0.000000
# 6 0.000000 0.000000 0.000000 -0.000186 0.000000 0.037772
#
#
# Mechanical properties :
#
#
# Convention : Reuss Voigt Hill
#
# Bulk Modulus (GPa) = 23.75126 57.34150 40.54638
# Shear Modulus (GPa) = 20.47326 31.34147 25.90736
#
# Velocity S-wave (km/s) = 2.95865 3.66066 3.32822
# Velocity P-wave (km/s) = 4.67190 6.51033 5.66617
#
# Compressibility (1/GPa) = 0.04210302
#
# Stress axis : x y z
#
# Youngs Moduli (GPa) = 55.94130 112.30514 24.63721
#
# Poissons Ratio (x) = 0.03128 -0.01000
# Poissons Ratio (y) = 0.01558 0.31439
# Poissons Ratio (z) = -0.02272 1.43309
#
# Static dielectric constant tensor:
#      x y z
#    x 1.975060 0.000000 -0.172810 
#    y 0.000000 1.978620 0.000000 
#    z -0.172810 0.000000 2.525430 
# 
# From -- ./inp_files/50438.got.cif
#   From: 2010.05.17/outbox.cif.g08.bks.cpg/sg15_26_cif.got.tgz:50438.got - 2010.06.03 18:47:42.
