data_PCOD9288429
_publ_section_title
;
Structure prediction by ZEFSAII (Michael W. Deem and Ramdas Pophale) SiO2 
 PCOD9288429
Probable space group: C 2/C
;
_chemical_formula_sum "Si O2"
_cell_formula_units_Z 64
_cell_length_a 26.179507
_cell_length_b 8.879676
_cell_length_c 20.541145
_cell_angle_alpha 90.000000
_cell_angle_beta 134.776886
_cell_angle_gamma 90.000000
_cell_volume 3389.634257
_symmetry_space_group_name_H-M "C 2/C"
_symmetry_group_IT_number 15
_symmetry_cell_setting 'monoclinic'
loop_
_space_group_symop_operation_xyz
x,y,z
-x,y,1/2-z
-x,-y,-z
x,-y,1/2+z
1/2+x,1/2+y,z
1/2-x,1/2+y,1/2-z
1/2-x,1/2-y,-z
1/2+x,1/2-y,1/2+z
loop_
_atom_site_type_symbol
_atom_site_label
_atom_site_fract_x
_atom_site_fract_y
_atom_site_fract_z
Si Si1 0.413462 0.719032 0.969281
Si Si2 0.452166 0.677212 0.864793
Si Si3 0.919497 0.127565 0.696398
Si Si4 0.346332 0.305139 0.647576
Si Si5 0.616493 0.361309 0.546362
Si Si6 0.679520 0.138294 0.005340
Si Si7 0.423858 0.682916 0.349318
Si Si8 0.184178 0.715489 0.489617
O O1 0.413338 0.749184 0.891983
O O2 0.391695 0.542937 0.959746
O O3 0.362334 0.816759 0.967642
O O4 0.495790 0.742698 0.066321
O O5 0.424204 0.716496 0.768626
O O6 0.537776 0.695539 0.951128
O O7 0.436557 0.497446 0.854224
O O8 0.886263 0.233487 0.612585
O O9 0.000000 0.078560 0.750000
O O10 0.871121 0.977507 0.657108
O O11 0.358466 0.210133 0.592680
O O12 0.260882 0.300185 0.582136
O O13 0.387746 0.259005 0.750755
O O14 0.622150 0.301721 0.625612
O O15 0.677811 0.306444 0.551904
O O16 0.683808 0.960154 0.002951
O O17 0.250000 0.750000 0.500000
#
# Coordination Sequence:
#
# PCOD9288429 Si02
#       8
#     8   8   8   8   8   8   8   8
#     4   9  18  36  63  88 110 145 193 244 290 337
#     4   8  16  33  62  90 108 141 199 243 276 337
#     4  11  20  38  68  87 108 155 202 234 278 351
#     4  10  22  39  59  84 115 149 200 240 285 345
#     4   9  17  36  62  83 114 149 191 239 286 345
#     4  11  24  38  54  83 124 157 185 242 300 341
#     4   8  17  35  61  90 107 143 200 243 277 339
#     4  12  24  40  55  83 122 159 192 237 298 349
#
# _framework density 18.881093
#
# number of rings (size 3 to 8) (size 9 to 14) (size 15 to 20)
#    0.000    2.250    2.500    2.250    5.250    0.000 
#    4.500    3.750    0.000    0.000    0.000    0.000 
#    0.000    0.000    0.000    0.000    0.000    0.000 
#
# Total GULP energy -178416.848428 kJ/mol
# GULP energy per Si atom -5575.526513 kJ/mol
# Density = 1.883812 g / cm^3
# Si number density = 18.881093 Si / 1000 Ang^3
#
#
#
# Elastic Constant Matrix: (Units=GPa)
#
#
# Indices 1 2 3 4 5 6 
#
# 1 142.7686 27.2149 26.1880 0.0000 -19.4696 0.0000
# 2 27.2149 34.6150 3.9739 0.0000 -8.3423 0.0000
# 3 26.1880 3.9739 67.7704 0.0000 -20.0850 0.0000
# 4 0.0000 0.0000 0.0000 8.6940 0.0000 -3.6584
# 5 -19.4696 -8.3423 -20.0850 0.0000 27.8015 0.0000
# 6 0.0000 0.0000 0.0000 -3.6584 0.0000 31.0544
#
#
#
# Elastic Compliance Matrix: (Units=1/GPa)
#
#
# Indices 1 2 3 4 5 6 
#
# 1 0.008970 -0.006116 -0.002277 0.000000 0.002801 0.000000
# 2 -0.006116 0.035388 0.002756 0.000000 0.008327 0.000000
# 3 -0.002277 0.002756 0.019400 0.000000 0.013248 0.000000
# 4 0.000000 0.000000 0.000000 0.121021 0.000000 0.014257
# 5 0.002801 0.008327 0.013248 0.000000 0.050001 0.000000
# 6 0.000000 0.000000 0.000000 0.014257 0.000000 0.033881
#
#
# Mechanical properties :
#
#
# Convention : Reuss Voigt Hill
#
# Bulk Modulus (GPa) = 19.05338 39.98972 29.52155
# Shear Modulus (GPa) = 16.81070 26.02847 21.41959
#
# Velocity S-wave (km/s) = 2.98710 3.71691 3.37181
# Velocity P-wave (km/s) = 4.69150 6.29653 5.55232
#
# Compressibility (1/GPa) = 0.05248412
#
# Stress axis : x y z
#
# Youngs Moduli (GPa) = 111.48422 28.25826 51.54552
#
# Poissons Ratio (x) = 0.17282 0.11739
# Poissons Ratio (y) = 0.68180 -0.14206
# Poissons Ratio (z) = 0.25389 -0.07788
#
# Static dielectric constant tensor:
#      x y z
#    x 1.687090 0.000000 -0.022950 
#    y 0.000000 1.631200 0.000000 
#    z -0.022950 0.000000 1.662550 
# 
# From -- ./inp_files/255048.got.cif
#   From: 2010.05.17/outbox.cif.g08.bks.cpg/sg15_128_cif.got.tgz:255048.got - 2010.06.03 18:47:42.
