data_PCOD9288400
_publ_section_title
;
Structure prediction by ZEFSAII (Michael W. Deem and Ramdas Pophale) SiO2 
 PCOD9288400
Probable space group: C 2/C
;
_chemical_formula_sum "Si O2"
_cell_formula_units_Z 56
_cell_length_a 13.063891
_cell_length_b 13.853499
_cell_length_c 29.084080
_cell_angle_alpha 90.000000
_cell_angle_beta 154.988090
_cell_angle_gamma 90.000000
_cell_volume 2225.508008
_symmetry_space_group_name_H-M "C 2/C"
_symmetry_group_IT_number 15
_symmetry_cell_setting 'monoclinic'
loop_
_space_group_symop_operation_xyz
x,y,z
-x,y,1/2-z
-x,-y,-z
x,-y,1/2+z
1/2+x,1/2+y,z
1/2-x,1/2+y,1/2-z
1/2-x,1/2-y,-z
1/2+x,1/2-y,1/2+z
loop_
_atom_site_type_symbol
_atom_site_label
_atom_site_fract_x
_atom_site_fract_y
_atom_site_fract_z
Si Si1 0.500000 0.355089 0.250000
Si Si2 0.469388 0.698287 0.528225
Si Si3 0.118647 0.196417 0.108771
Si Si4 0.542938 0.118952 0.409568
Si Si5 0.143650 0.981047 0.392326
Si Si6 0.500000 0.031313 0.250000
Si Si7 0.484303 0.321731 0.834850
Si Si8 0.182723 0.390330 0.260636
O O1 0.309591 0.282402 0.196608
O O2 0.644253 0.419040 0.345732
O O3 0.505404 0.719320 0.489803
O O4 0.449202 0.794832 0.549826
O O5 0.222215 0.643989 0.440821
O O6 0.681367 0.636971 0.636715
O O7 0.959819 0.178153 0.088398
O O8 0.269354 0.099788 0.161089
O O9 0.276005 0.127045 0.280930
O O10 0.650194 0.033664 0.484655
O O11 0.896361 0.935608 0.315746
O O12 0.149023 0.094131 0.380579
O O13 0.495355 0.970195 0.200877
O O14 0.440414 0.210284 0.804166
#
# Coordination Sequence:
#
# PCOD9288400 Si02
#       8
#     4   8   8   8   8   4   8   8
#     4  11  20  35  64  86 118 147 206 251 274 344
#     4   9  18  33  60  87 115 151 201 251 291 344
#     4  11  20  35  61  93 109 147 211 249 279 340
#     4   9  18  36  57  87 122 153 196 249 297 347
#     4  11  21  38  62  92 115 162 200 247 297 346
#     4  11  22  35  58  88 122 159 184 241 310 362
#     4  11  22  39  62  88 121 161 196 246 300 359
#     4  10  22  39  57  86 126 157 191 245 311 355
#
# _framework density 25.162794999999999
#
# number of rings (size 3 to 8) (size 9 to 14) (size 15 to 20)
#    0.000    1.714    4.286    2.571    0.000    1.143 
#    2.571    0.714    3.143    1.714    0.000    0.000 
#    0.000    0.000    0.000    0.000    0.000    0.000 
#
# Total GULP energy -156468.336811 kJ/mol
# GULP energy per Si atom -5588.154886 kJ/mol
# Density = 2.510552 g / cm^3
# Si number density = 25.162795 Si / 1000 Ang^3
#
#
#
# Elastic Constant Matrix: (Units=GPa)
#
#
# Indices 1 2 3 4 5 6 
#
# 1 36.6552 27.5817 18.0060 -0.0002 -12.7764 0.0003
# 2 27.5817 146.8600 27.2535 -0.0024 -4.4187 0.0000
# 3 18.0060 27.2535 67.1922 0.0003 -14.1899 -0.0035
# 4 -0.0002 -0.0024 0.0003 11.3814 0.0006 2.4710
# 5 -12.7764 -4.4187 -14.1899 0.0006 33.6507 -0.0002
# 6 0.0003 0.0000 -0.0035 2.4710 -0.0002 22.4268
#
#
#
# Elastic Compliance Matrix: (Units=1/GPa)
#
#
# Indices 1 2 3 4 5 6 
#
# 1 0.038379 -0.005844 -0.005488 -0.000001 0.011490 -0.000001
# 2 -0.005844 0.008256 -0.002220 0.000002 -0.002071 0.000000
# 3 -0.005488 -0.002220 0.018390 -0.000002 0.005379 0.000003
# 4 -0.000001 0.000002 -0.000002 0.090016 -0.000002 -0.009918
# 5 0.011490 -0.002071 0.005379 -0.000002 0.036076 0.000001
# 6 -0.000001 0.000000 0.000003 -0.009918 0.000001 0.045682
#
#
# Mechanical properties :
#
#
# Convention : Reuss Voigt Hill
#
# Bulk Modulus (GPa) = 26.37010 44.04331 35.20670
# Shear Modulus (GPa) = 18.08028 25.34954 21.71491
#
# Velocity S-wave (km/s) = 2.68345 3.17743 2.94083
# Velocity P-wave (km/s) = 4.48372 5.56802 5.05503
#
# Compressibility (1/GPa) = 0.03792174
#
# Stress axis : x y z
#
# Youngs Moduli (GPa) = 26.05565 121.11770 54.37772
#
# Poissons Ratio (x) = 0.70779 0.29842
# Poissons Ratio (y) = 0.15227 0.12073
# Poissons Ratio (z) = 0.14299 0.26890
#
# Static dielectric constant tensor:
#      x y z
#    x 1.988780 0.000000 0.045320 
#    y 0.000000 2.024160 0.000000 
#    z 0.045320 0.000000 2.038070 
# 
# From -- ./inp_files/313918.got.cif
#   From: 2010.05.17/outbox.cif.g08.bks.cpg/sg15_157_cif.got.tgz:313918.got - 2010.06.03 18:47:42.
