data_PCOD9288253
_publ_section_title
;
Structure prediction by ZEFSAII (Michael W. Deem and Ramdas Pophale) SiO2 
 PCOD9288253
Probable space group: C 2/C
;
_chemical_formula_sum "Si O2"
_cell_formula_units_Z 28
_cell_length_a 7.190951
_cell_length_b 19.162786
_cell_length_c 14.328272
_cell_angle_alpha 90.000000
_cell_angle_beta 40.565455
_cell_angle_gamma 90.000000
_cell_volume 1283.995338
_symmetry_space_group_name_H-M "C 2/C"
_symmetry_group_IT_number 15
_symmetry_cell_setting 'monoclinic'
loop_
_space_group_symop_operation_xyz
x,y,z
-x,y,1/2-z
-x,-y,-z
x,-y,1/2+z
1/2+x,1/2+y,z
1/2-x,1/2+y,1/2-z
1/2-x,1/2-y,-z
1/2+x,1/2-y,1/2+z
loop_
_atom_site_type_symbol
_atom_site_label
_atom_site_fract_x
_atom_site_fract_y
_atom_site_fract_z
Si Si1 0.869716 0.891997 0.648520
Si Si2 0.000000 0.475148 0.250000
Si Si3 0.482099 0.923087 0.461984
Si Si4 0.307376 0.169095 0.464110
O O1 0.910500 0.856938 0.531959
O O2 0.614847 0.852118 0.800278
O O3 0.159896 0.895049 0.594450
O O4 0.761245 0.969961 0.664464
O O5 0.013466 0.431445 0.339311
O O6 0.693443 0.873499 0.438973
O O7 0.500000 0.000000 0.500000
O O8 0.250000 0.250000 0.500000
#
# Coordination Sequence:
#
# PCOD9288253 Si02
#       4
#     8   4   8   8
#     4  10  22  43  66 100 139 171 237 292 340 412
#     4  10  22  38  66 110 132 172 234 284 356 410
#     4  12  22  41  71 101 136 181 225 296 348 406
#     4  10  23  44  68  96 136 189 226 282 349 416
#
# _framework density 21.806933999999998
#
# number of rings (size 3 to 8) (size 9 to 14) (size 15 to 20)
#    0.000    1.714    5.714    1.714    0.000    1.143 
#   10.286    0.000    0.000    0.000    0.000    0.000 
#    0.000    0.000    0.000    0.000    0.000    0.000 
#
# Total GULP energy -78183.689596 kJ/mol
# GULP energy per Si atom -5584.549257 kJ/mol
# Density = 2.175730 g / cm^3
# Si number density = 21.806934 Si / 1000 Ang^3
#
#
#
# Elastic Constant Matrix: (Units=GPa)
#
#
# Indices 1 2 3 4 5 6 
#
# 1 136.2106 59.8226 38.2467 0.0000 32.6203 0.0000
# 2 59.8226 141.5504 48.7105 0.0000 25.2585 0.0000
# 3 38.2467 48.7105 87.9365 0.0000 40.8918 -0.0001
# 4 0.0000 0.0000 0.0000 27.0006 0.0000 11.0126
# 5 32.6203 25.2585 40.8918 0.0000 50.6894 0.0000
# 6 0.0000 0.0000 -0.0001 11.0126 0.0000 21.7088
#
#
#
# Elastic Compliance Matrix: (Units=1/GPa)
#
#
# Indices 1 2 3 4 5 6 
#
# 1 0.009962 -0.003259 -0.000482 0.000000 -0.004397 0.000000
# 2 -0.003259 0.009811 -0.004351 0.000000 0.000719 0.000000
# 3 -0.000482 -0.004351 0.020547 0.000000 -0.014097 0.000000
# 4 0.000000 0.000000 0.000000 0.046698 0.000000 -0.023689
# 5 -0.004397 0.000719 -0.014097 0.000000 0.033572 0.000000
# 6 0.000000 0.000000 0.000000 -0.023689 0.000000 0.058082
#
#
# Mechanical properties :
#
#
# Convention : Reuss Voigt Hill
#
# Bulk Modulus (GPa) = 41.43539 73.25078 57.34309
# Shear Modulus (GPa) = 24.64231 34.47427 29.55829
#
# Velocity S-wave (km/s) = 3.36523 3.98035 3.68564
# Velocity P-wave (km/s) = 5.84311 7.40187 6.66820
#
# Compressibility (1/GPa) = 0.02413396
#
# Stress axis : x y z
#
# Youngs Moduli (GPa) = 100.38564 101.92408 48.66794
#
# Poissons Ratio (x) = 0.33221 0.02348
# Poissons Ratio (y) = 0.32719 0.21177
# Poissons Ratio (z) = 0.04842 0.44351
#
# Static dielectric constant tensor:
#      x y z
#    x 1.963700 0.000000 -0.163650 
#    y 0.000000 1.760410 0.000000 
#    z -0.163650 0.000000 2.057040 
# 
# From -- ./inp_files/75717.got.cif
#   From: 2010.05.17/outbox.cif.g08.bks.cpg/sg15_38_cif.got.tgz:75717.got - 2010.06.03 18:47:42.
