data_PCOD9288768
_publ_section_title
;
Structure prediction by ZEFSAII (Michael W. Deem and Ramdas Pophale) SiO2 
 PCOD9288768
Probable space group: C 2/C
;
_chemical_formula_sum "Si O2"
_cell_formula_units_Z 44
_cell_length_a 8.250077
_cell_length_b 16.226478
_cell_length_c 17.629585
_cell_angle_alpha 90.000000
_cell_angle_beta 119.235892
_cell_angle_gamma 90.000000
_cell_volume 2059.433034
_symmetry_space_group_name_H-M "C 2/C"
_symmetry_group_IT_number 15
_symmetry_cell_setting 'monoclinic'
loop_
_space_group_symop_operation_xyz
x,y,z
-x,y,1/2-z
-x,-y,-z
x,-y,1/2+z
1/2+x,1/2+y,z
1/2-x,1/2+y,1/2-z
1/2-x,1/2-y,-z
1/2+x,1/2-y,1/2+z
loop_
_atom_site_type_symbol
_atom_site_label
_atom_site_fract_x
_atom_site_fract_y
_atom_site_fract_z
Si Si1 0.907655 0.238835 0.099183
Si Si2 0.790508 0.353593 0.282844
Si Si3 0.695852 0.356203 0.560779
Si Si4 0.500000 0.375202 0.750000
Si Si5 0.058318 0.200797 0.874725
Si Si6 0.788057 0.531846 0.206174
O O1 0.002639 0.321045 0.154256
O O2 0.072782 0.194743 0.091563
O O3 0.878640 0.179081 0.163655
O O4 0.750000 0.250000 0.000000
O O5 0.653296 0.298160 0.200527
O O6 0.681576 0.345885 0.338556
O O7 0.795263 0.440003 0.240823
O O8 0.872842 0.294385 0.594164
O O9 0.591194 0.352475 0.457421
O O10 0.722983 0.444820 0.605826
O O11 0.354142 0.425260 0.767865
O O12 0.000000 0.564533 0.250000
#
# Coordination Sequence:
#
# PCOD9288768 Si02
#       6
#     8   8   8   4   8   8
#     4  10  23  39  64  98 129 177 230 281 340 401
#     4  10  22  39  64  96 132 174 218 279 346 402
#     4   9  21  38  64  98 127 174 228 282 332 411
#     4  10  24  44  68  92 138 176 222 286 334 402
#     4   9  19  39  68  94 130 169 231 279 335 399
#     4  11  25  42  63  98 136 179 218 274 352 403
#
# _framework density 21.365102
#
# number of rings (size 3 to 8) (size 9 to 14) (size 15 to 20)
#    0.000    2.182    0.000    1.091   11.455    3.636 
#    0.000    5.455    0.000    0.000    0.000    0.000 
#    0.000    0.000    0.000    0.000    0.000    0.000 
#
# Total GULP energy -122606.450880 kJ/mol
# GULP energy per Si atom -5573.020495 kJ/mol
# Density = 2.131647 g / cm^3
# Si number density = 21.365102 Si / 1000 Ang^3
#
#
#
# Elastic Constant Matrix: (Units=GPa)
#
#
# Indices 1 2 3 4 5 6 
#
# 1 87.0582 19.2677 15.0406 0.0000 -4.9297 0.0000
# 2 19.2677 74.6248 40.8735 0.0000 -4.0255 0.0000
# 3 15.0406 40.8735 141.8841 0.0000 -7.4253 0.0000
# 4 0.0000 0.0000 0.0000 30.6734 0.0000 -5.6105
# 5 -4.9297 -4.0255 -7.4253 0.0000 31.5243 0.0000
# 6 0.0000 0.0000 0.0000 -5.6105 0.0000 19.0262
#
#
#
# Elastic Compliance Matrix: (Units=1/GPa)
#
#
# Indices 1 2 3 4 5 6 
#
# 1 0.012274 -0.002873 -0.000397 0.000000 0.001459 0.000000
# 2 -0.002873 0.016612 -0.004448 0.000000 0.000624 0.000000
# 3 -0.000397 -0.004448 0.008443 0.000000 0.001358 0.000000
# 4 0.000000 0.000000 0.000000 0.034460 0.000000 0.010162
# 5 0.001459 0.000624 0.001358 0.000000 0.032349 0.000000
# 6 0.000000 0.000000 0.000000 0.010162 0.000000 0.055556
#
#
# Mechanical properties :
#
#
# Convention : Reuss Voigt Hill
#
# Bulk Modulus (GPa) = 45.67893 50.43673 48.05783
# Shear Modulus (GPa) = 27.40814 31.47047 29.43931
#
# Velocity S-wave (km/s) = 3.58557 3.84211 3.71606
# Velocity P-wave (km/s) = 6.21034 6.58337 6.39957
#
# Compressibility (1/GPa) = 0.02189193
#
# Stress axis : x y z
#
# Youngs Moduli (GPa) = 81.47573 60.19655 118.44585
#
# Poissons Ratio (x) = 0.17293 0.04704
# Poissons Ratio (y) = 0.23406 0.52689
# Poissons Ratio (z) = 0.03236 0.26778
#
# Static dielectric constant tensor:
#      x y z
#    x 1.821450 0.000000 -0.004900 
#    y 0.000000 1.814970 0.000000 
#    z -0.004900 0.000000 1.719200 
# 
# From -- ./inp_files/191195.got.cif
#   From: 2010.05.17/outbox.cif.g08.bks.cpg/sg15_96_cif.got.tgz:191195.got - 2010.06.03 18:47:42.
