data_PCOD9288778
_publ_section_title
;
Structure prediction by ZEFSAII (Michael W. Deem and Ramdas Pophale) SiO2 
 PCOD9288778
Probable space group: C 2/C
;
_chemical_formula_sum "Si O2"
_cell_formula_units_Z 44
_cell_length_a 8.550267
_cell_length_b 25.730707
_cell_length_c 12.158434
_cell_angle_alpha 90.000000
_cell_angle_beta 44.017521
_cell_angle_gamma 90.000000
_cell_volume 1858.736360
_symmetry_space_group_name_H-M "C 2/C"
_symmetry_group_IT_number 15
_symmetry_cell_setting 'monoclinic'
loop_
_space_group_symop_operation_xyz
x,y,z
-x,y,1/2-z
-x,-y,-z
x,-y,1/2+z
1/2+x,1/2+y,z
1/2-x,1/2+y,1/2-z
1/2-x,1/2-y,-z
1/2+x,1/2-y,1/2+z
loop_
_atom_site_type_symbol
_atom_site_label
_atom_site_fract_x
_atom_site_fract_y
_atom_site_fract_z
Si Si1 0.864006 0.760166 0.060352
Si Si2 0.654369 0.931514 0.303626
Si Si3 0.500000 0.155331 0.750000
Si Si4 0.717090 0.822047 0.716555
Si Si5 0.953213 0.927872 0.578981
Si Si6 0.500000 0.021834 0.250000
Si Si7 0.500000 0.512024 0.750000
O O1 0.705042 0.807388 0.179449
O O2 0.852727 0.708887 0.139076
O O3 0.750000 0.750000 0.000000
O O4 0.115167 0.781801 0.928373
O O5 0.491992 0.882943 0.361217
O O6 0.516885 0.982860 0.343646
O O7 0.791266 0.947841 0.341363
O O8 0.848082 0.924731 0.110968
O O9 0.500000 0.833524 0.750000
O O10 0.873782 0.871929 0.664085
O O11 0.726197 0.946253 0.633852
O O12 0.000043 0.972027 0.646849
#
# Coordination Sequence:
#
# PCOD9288778 Si02
#       7
#     8   8   4   8   8   4   4
#     4  12  25  48  74 104 142 183 240 297 359 425
#     4  10  22  42  63  93 137 181 229 288 346 410
#     4  11  22  43  68  94 136 187 226 293 350 424
#     4  12  26  47  75 107 141 187 235 298 362 423
#     4  11  22  41  67  94 138 180 233 287 346 419
#     4   9  18  38  62  88 130 174 222 277 344 388
#     4  10  22  39  64  98 130 183 234 282 346 406
#
# _framework density 23.671997000000001
#
# number of rings (size 3 to 8) (size 9 to 14) (size 15 to 20)
#    0.000    1.091    4.545    2.727    2.545    0.000 
#    4.909   22.727    0.000    0.000    0.000    0.000 
#    0.000    0.000    0.000    0.000    0.000    0.000 
#
# Total GULP energy -122840.139309 kJ/mol
# GULP energy per Si atom -5583.642696 kJ/mol
# Density = 2.361812 g / cm^3
# Si number density = 23.671997 Si / 1000 Ang^3
#
#
#
# Elastic Constant Matrix: (Units=GPa)
#
#
# Indices 1 2 3 4 5 6 
#
# 1 127.5218 31.5281 23.8542 0.0000 -8.9650 0.0000
# 2 31.5281 126.2864 17.9060 0.0000 10.1698 0.0000
# 3 23.8542 17.9060 66.5718 0.0000 -15.5756 0.0000
# 4 0.0000 0.0000 0.0000 29.7882 0.0000 -11.0929
# 5 -8.9650 10.1698 -15.5756 0.0000 33.9553 0.0000
# 6 0.0000 0.0000 0.0000 -11.0929 0.0000 40.5048
#
#
#
# Elastic Compliance Matrix: (Units=1/GPa)
#
#
# Indices 1 2 3 4 5 6 
#
# 1 0.008899 -0.002073 -0.002169 0.000000 0.001976 0.000000
# 2 -0.002073 0.009204 -0.002807 0.000000 -0.004592 0.000000
# 3 -0.002169 -0.002807 0.018614 0.000000 0.008806 0.000000
# 4 0.000000 0.000000 0.000000 0.037383 0.000000 0.010238
# 5 0.001976 -0.004592 0.008806 0.000000 0.035387 0.000000
# 6 0.000000 0.000000 0.000000 0.010238 0.000000 0.027492
#
#
# Mechanical properties :
#
#
# Convention : Reuss Voigt Hill
#
# Bulk Modulus (GPa) = 44.21127 51.88406 48.04767
# Shear Modulus (GPa) = 31.52258 37.32244 34.42251
#
# Velocity S-wave (km/s) = 3.65312 3.97501 3.81746
# Velocity P-wave (km/s) = 6.04243 6.55996 6.30651
#
# Compressibility (1/GPa) = 0.02261867
#
# Stress axis : x y z
#
# Youngs Moduli (GPa) = 112.37251 108.65002 53.72324
#
# Poissons Ratio (x) = 0.22526 0.11652
# Poissons Ratio (y) = 0.23298 0.15080
# Poissons Ratio (z) = 0.24372 0.30498
#
# Static dielectric constant tensor:
#      x y z
#    x 1.919350 0.000000 0.030490 
#    y 0.000000 1.940830 0.000000 
#    z 0.030490 0.000000 2.022790 
# 
# From -- ./inp_files/138415.got.cif
#   From: 2010.05.17/outbox.cif.g08.bks.cpg/sg15_70_cif.got.tgz:138415.got - 2010.06.03 18:47:42.
