data_PCOD9288463
_publ_section_title
;
Structure prediction by ZEFSAII (Michael W. Deem and Ramdas Pophale) SiO2 
 PCOD9288463
Probable space group: C 2/C
;
_chemical_formula_sum "Si O2"
_cell_formula_units_Z 40
_cell_length_a 11.329401
_cell_length_b 25.433344
_cell_length_c 8.323907
_cell_angle_alpha 90.000000
_cell_angle_beta 51.099941
_cell_angle_gamma 90.000000
_cell_volume 1866.605661
_symmetry_space_group_name_H-M "C 2/C"
_symmetry_group_IT_number 15
_symmetry_cell_setting 'monoclinic'
loop_
_space_group_symop_operation_xyz
x,y,z
-x,y,1/2-z
-x,-y,-z
x,-y,1/2+z
1/2+x,1/2+y,z
1/2-x,1/2+y,1/2-z
1/2-x,1/2-y,-z
1/2+x,1/2-y,1/2+z
loop_
_atom_site_type_symbol
_atom_site_label
_atom_site_fract_x
_atom_site_fract_y
_atom_site_fract_z
Si Si1 0.656644 0.285777 0.701735
Si Si2 0.839292 0.931477 0.588655
Si Si3 0.389059 0.145888 0.162097
Si Si4 0.321006 0.802968 0.059603
Si Si5 0.000000 0.841635 0.250000
Si Si6 0.500000 0.518819 0.250000
O O1 0.500000 0.299593 0.750000
O O2 0.750000 0.250000 0.500000
O O3 0.767520 0.334386 0.637839
O O4 0.635081 0.250032 0.882027
O O5 0.665526 0.912073 0.743267
O O6 0.925099 0.880574 0.443580
O O7 0.911611 0.947045 0.695640
O O8 0.879415 0.980231 0.439885
O O9 0.358041 0.185960 0.339366
O O10 0.563218 0.153919 0.964102
O O11 0.139841 0.811562 0.215793
#
# Coordination Sequence:
#
# PCOD9288463 Si02
#       6
#     8   8   8   8   4   4
#     4  12  25  38  54  86 126 157 198 243 285 329
#     4   9  19  35  61  88 113 152 186 241 289 356
#     4  10  22  39  60  82 118 161 199 236 285 350
#     4  10  22  40  57  83 120 160 202 234 280 346
#     4   9  20  36  64  84 112 160 200 230 286 347
#     4   9  18  36  60  90 118 140 192 236 302 353
#
# _framework density 21.429271
#
# number of rings (size 3 to 8) (size 9 to 14) (size 15 to 20)
#    0.000    2.000    2.000    0.600    7.000    1.600 
#    0.000    0.000    0.000   45.600    0.000    0.000 
#    0.000    0.000    0.000    0.000    0.000    0.000 
#
# Total GULP energy -111455.113825 kJ/mol
# GULP energy per Si atom -5572.755691 kJ/mol
# Density = 2.138050 g / cm^3
# Si number density = 21.429271 Si / 1000 Ang^3
#
#
#
# Elastic Constant Matrix: (Units=GPa)
#
#
# Indices 1 2 3 4 5 6 
#
# 1 181.9060 54.8649 30.0955 0.0000 -23.7466 0.0000
# 2 54.8649 74.0977 16.9156 0.0000 -1.9119 0.0000
# 3 30.0955 16.9156 44.8714 0.0000 -3.6047 0.0000
# 4 0.0000 0.0000 0.0000 15.9970 0.0000 -2.8009
# 5 -23.7466 -1.9119 -3.6047 0.0000 41.4432 0.0000
# 6 0.0000 0.0000 0.0000 -2.8009 0.0000 6.3763
#
#
#
# Elastic Compliance Matrix: (Units=1/GPa)
#
#
# Indices 1 2 3 4 5 6 
#
# 1 0.008126 -0.005188 -0.003162 0.000000 0.004142 0.000000
# 2 -0.005188 0.018081 -0.003533 0.000000 -0.002446 0.000000
# 3 -0.003162 -0.003533 0.025760 0.000000 0.000266 0.000000
# 4 0.000000 0.000000 0.000000 0.067720 0.000000 0.029748
# 5 0.004142 -0.002446 0.000266 0.000000 0.026413 0.000000
# 6 0.000000 0.000000 0.000000 0.029748 0.000000 0.169899
#
#
# Mechanical properties :
#
#
# Convention : Reuss Voigt Hill
#
# Bulk Modulus (GPa) = 35.45965 56.06968 45.76467
# Shear Modulus (GPa) = 14.31994 26.02989 20.17492
#
# Velocity S-wave (km/s) = 2.58784 3.48902 3.07166
# Velocity P-wave (km/s) = 5.05099 6.51558 5.82946
#
# Compressibility (1/GPa) = 0.02820107
#
# Stress axis : x y z
#
# Youngs Moduli (GPa) = 123.06369 55.30798 38.82060
#
# Poissons Ratio (x) = 0.28694 0.12273
# Poissons Ratio (y) = 0.63847 0.13715
# Poissons Ratio (z) = 0.38907 0.19539
#
# Static dielectric constant tensor:
#      x y z
#    x 1.813260 0.000000 -0.006850 
#    y 0.000000 1.792710 0.000000 
#    z -0.006850 0.000000 1.884580 
# 
# From -- ./inp_files/31803.got.cif
#   From: 2010.05.17/outbox.cif.g08.bks.cpg/sg15_16_cif.got.tgz:31803.got - 2010.06.03 18:47:42.
