data_PCOD9288809
_publ_section_title
;
Structure prediction by ZEFSAII (Michael W. Deem and Ramdas Pophale) SiO2 
 PCOD9288809
Probable space group: C 2/C
;
_chemical_formula_sum "Si O2"
_cell_formula_units_Z 44
_cell_length_a 19.977056
_cell_length_b 8.502137
_cell_length_c 11.226785
_cell_angle_alpha 90.000000
_cell_angle_beta 95.731451
_cell_angle_gamma 90.000000
_cell_volume 1897.310742
_symmetry_space_group_name_H-M "C 2/C"
_symmetry_group_IT_number 15
_symmetry_cell_setting 'monoclinic'
loop_
_space_group_symop_operation_xyz
x,y,z
-x,y,1/2-z
-x,-y,-z
x,-y,1/2+z
1/2+x,1/2+y,z
1/2-x,1/2+y,1/2-z
1/2-x,1/2-y,-z
1/2+x,1/2-y,1/2+z
loop_
_atom_site_type_symbol
_atom_site_label
_atom_site_fract_x
_atom_site_fract_y
_atom_site_fract_z
Si Si1 0.115388 0.487830 0.478831
Si Si2 0.000000 0.985918 0.250000
Si Si3 0.884615 0.195424 0.143998
Si Si4 0.827370 0.721731 0.167900
Si Si5 0.431863 0.270002 0.396243
Si Si6 0.754240 0.537584 0.341852
O O1 0.102953 0.382272 0.358646
O O2 0.130278 0.662593 0.438274
O O3 0.061734 0.413660 0.562628
O O4 0.185873 0.436776 0.553548
O O5 0.994390 0.869118 0.361345
O O6 0.935520 0.098957 0.234057
O O7 0.808167 0.154774 0.155477
O O8 0.902060 0.151912 0.009918
O O9 0.879667 0.774497 0.278548
O O10 0.785449 0.576815 0.218073
O O11 0.776527 0.865455 0.141597
#
# Coordination Sequence:
#
# PCOD9288809 Si02
#       6
#     8   4   8   8   8   8
#     4   9  22  39  60  95 136 161 215 273 324 382
#     4  12  20  44  70  92 126 184 226 258 328 382
#     4  10  22  39  65  95 127 170 220 271 315 386
#     4  11  21  39  64 100 134 172 206 268 338 385
#     4   9  23  40  63  93 131 167 226 269 307 393
#     4  11  21  36  65  97 133 170 213 264 332 397
#
# _framework density 23.190719999999999
#
# number of rings (size 3 to 8) (size 9 to 14) (size 15 to 20)
#    1.091    0.727    1.818    2.727    2.545    0.000 
#    0.000    3.636    0.000    0.000    0.000    0.000 
#    0.000    0.000    0.000    0.000    0.000    0.000 
#
# Total GULP energy -122543.679122 kJ/mol
# GULP energy per Si atom -5570.167233 kJ/mol
# Density = 2.313794 g / cm^3
# Si number density = 23.190720 Si / 1000 Ang^3
#
#
#
# Elastic Constant Matrix: (Units=GPa)
#
#
# Indices 1 2 3 4 5 6 
#
# 1 23.2265 3.2146 -1.3978 0.0000 12.7272 0.0000
# 2 3.2146 78.4958 -4.3135 0.0000 6.0770 0.0000
# 3 -1.3978 -4.3135 23.4109 0.0000 1.0843 0.0000
# 4 0.0000 0.0000 0.0000 27.0861 0.0000 -14.1133
# 5 12.7272 6.0770 1.0843 0.0000 30.0555 0.0000
# 6 0.0000 0.0000 0.0000 -14.1133 0.0000 35.7610
#
#
#
# Elastic Compliance Matrix: (Units=1/GPa)
#
#
# Indices 1 2 3 4 5 6 
#
# 1 0.056534 -0.000208 0.004451 0.000000 -0.024058 0.000000
# 2 -0.000208 0.013092 0.002522 0.000000 -0.002650 0.000000
# 3 0.004451 0.002522 0.043630 0.000000 -0.003969 0.000000
# 4 0.000000 0.000000 0.000000 0.046477 0.000000 0.018342
# 5 -0.024058 -0.002650 -0.003969 0.000000 0.044138 0.000000
# 6 0.000000 0.000000 0.000000 0.018342 0.000000 0.035202
#
#
# Mechanical properties :
#
#
# Convention : Reuss Voigt Hill
#
# Bulk Modulus (GPa) = 7.88725 13.34887 10.61806
# Shear Modulus (GPa) = 18.67042 27.08919 22.87980
#
# Velocity S-wave (km/s) = 2.84047 3.42146 3.14442
# Velocity P-wave (km/s) = 3.76379 4.62354 4.21564
#
# Compressibility (1/GPa) = 0.12678693
#
# Stress axis : x y z
#
# Youngs Moduli (GPa) = 17.68848 76.38351 22.92026
#
# Poissons Ratio (x) = 0.01589 -0.10203
# Poissons Ratio (y) = 0.00368 -0.05782
# Poissons Ratio (z) = -0.07874 -0.19268
#
# Static dielectric constant tensor:
#      x y z
#    x 1.871030 0.000000 -0.037170 
#    y 0.000000 1.923800 0.000000 
#    z -0.037170 0.000000 1.844730 
# 
# From -- ./inp_files/110096.got.cif
#   From: 2010.05.17/outbox.cif.g08.bks.cpg/sg15_56_cif.got.tgz:110096.got - 2010.06.03 18:47:42.
