data_PCOD9288119
_publ_section_title
;
Structure prediction by ZEFSAII (Michael W. Deem and Ramdas Pophale) SiO2 
 PCOD9288119
Probable space group: C 2/C
;
_chemical_formula_sum "Si O2"
_cell_formula_units_Z 64
_cell_length_a 18.511894
_cell_length_b 18.006030
_cell_length_c 15.424222
_cell_angle_alpha 90.000000
_cell_angle_beta 37.992928
_cell_angle_gamma 90.000000
_cell_volume 3164.794029
_symmetry_space_group_name_H-M "C 2/C"
_symmetry_group_IT_number 15
_symmetry_cell_setting 'monoclinic'
loop_
_space_group_symop_operation_xyz
x,y,z
-x,y,1/2-z
-x,-y,-z
x,-y,1/2+z
1/2+x,1/2+y,z
1/2-x,1/2+y,1/2-z
1/2-x,1/2-y,-z
1/2+x,1/2-y,1/2+z
loop_
_atom_site_type_symbol
_atom_site_label
_atom_site_fract_x
_atom_site_fract_y
_atom_site_fract_z
Si Si1 0.993203 0.003757 0.610997
Si Si2 0.504889 0.654545 0.090883
Si Si3 0.723961 0.337182 0.813439
Si Si4 0.400635 0.945303 0.554604
Si Si5 0.756992 0.573415 0.615236
Si Si6 0.874795 0.872429 0.416017
Si Si7 0.252798 0.677996 0.720303
Si Si8 0.025161 0.680350 0.824314
O O1 0.987974 0.922055 0.656766
O O2 0.873800 0.046172 0.741168
O O3 0.000000 0.000000 0.500000
O O4 0.092921 0.051084 0.564121
O O5 0.394382 0.656535 0.131102
O O6 0.512439 0.733491 0.130499
O O7 0.626260 0.643985 0.925843
O O8 0.808672 0.407410 0.710446
O O9 0.780868 0.260705 0.726779
O O10 0.678174 0.325515 0.954583
O O11 0.456428 0.875525 0.452221
O O12 0.500000 0.000000 0.500000
O O13 0.333857 0.999419 0.550282
O O14 0.732394 0.614955 0.548773
O O15 0.796244 0.629913 0.653373
O O16 0.000000 0.849551 0.250000
O O17 0.159366 0.678526 0.730769
O O18 0.000000 0.657396 0.750000
#
# Coordination Sequence:
#
# PCOD9288119 Si02
#       8
#     8   8   8   8   8   8   8   8
#     4  11  18  35  65  94 127 164 206 267 333 390
#     4  11  21  40  67  95 126 172 217 267 343 398
#     4  11  23  43  67  93 134 178 218 268 339 401
#     4  12  24  45  68  91 135 185 221 266 337 408
#     4  11  22  38  63  96 124 167 220 271 325 387
#     4  10  22  38  64 104 132 162 220 284 328 390
#     4  11  23  42  69  92 129 179 222 271 337 405
#     4  11  27  44  62  95 131 175 225 278 331 402
#
# _framework density 20.222486
#
# number of rings (size 3 to 8) (size 9 to 14) (size 15 to 20)
#    0.000    1.000    6.250    0.750    0.000    4.500 
#    0.000    0.000    0.000    0.000    0.000    0.000 
#    0.000    0.000    0.000    0.000    0.000    0.000 
#
# Total GULP energy -178392.484977 kJ/mol
# GULP energy per Si atom -5574.765156 kJ/mol
# Density = 2.017646 g / cm^3
# Si number density = 20.222486 Si / 1000 Ang^3
#
#
#
# Elastic Constant Matrix: (Units=GPa)
#
#
# Indices 1 2 3 4 5 6 
#
# 1 87.0946 22.6361 29.1680 0.0000 7.5587 0.0000
# 2 22.6361 69.8159 1.5819 0.0000 4.4483 0.0000
# 3 29.1680 1.5819 62.2533 0.0000 13.1382 0.0000
# 4 0.0000 0.0000 0.0000 14.3400 0.0000 -15.4038
# 5 7.5587 4.4483 13.1382 0.0000 22.8887 0.0000
# 6 0.0000 0.0000 0.0000 -15.4038 0.0000 22.7622
#
#
#
# Elastic Compliance Matrix: (Units=1/GPa)
#
#
# Indices 1 2 3 4 5 6 
#
# 1 0.015025 -0.004710 -0.006902 0.000000 -0.000085 0.000000
# 2 -0.004710 0.015983 0.002421 0.000000 -0.002941 0.000000
# 3 -0.006902 0.002421 0.021453 0.000000 -0.010505 0.000000
# 4 0.000000 0.000000 0.000000 0.255377 0.000000 0.172821
# 5 -0.000085 -0.002941 -0.010505 0.000000 0.050319 0.000000
# 6 0.000000 0.000000 0.000000 0.172821 0.000000 0.160885
#
#
# Mechanical properties :
#
#
# Convention : Reuss Voigt Hill
#
# Bulk Modulus (GPa) = 29.34347 36.21509 32.77928
# Shear Modulus (GPa) = 9.11108 23.05002 16.08055
#
# Velocity S-wave (km/s) = 2.12490 3.37979 2.82296
# Velocity P-wave (km/s) = 4.53454 5.76002 5.18362
#
# Compressibility (1/GPa) = 0.03407913
#
# Stress axis : x y z
#
# Youngs Moduli (GPa) = 66.55731 62.56701 46.61392
#
# Poissons Ratio (x) = 0.29467 0.32173
# Poissons Ratio (y) = 0.31346 -0.11286
# Poissons Ratio (z) = 0.45938 -0.15148
#
# Static dielectric constant tensor:
#      x y z
#    x 1.749830 0.000000 0.025780 
#    y 0.000000 1.755760 0.000000 
#    z 0.025780 0.000000 1.778410 
# 
# From -- ./inp_files/163265.got.cif
#   From: 2010.05.17/outbox.cif.g08.bks.cpg/sg15_82_cif.got.tgz:163265.got - 2010.06.03 18:47:42.
