data_PCOD9288428
_publ_section_title
;
Structure prediction by ZEFSAII (Michael W. Deem and Ramdas Pophale) SiO2 
 PCOD9288428
Probable space group: C 2/C
;
_chemical_formula_sum "Si O2"
_cell_formula_units_Z 56
_cell_length_a 17.888700
_cell_length_b 23.928051
_cell_length_c 20.172334
_cell_angle_alpha 90.000000
_cell_angle_beta 19.231272
_cell_angle_gamma 90.000000
_cell_volume 2844.082361
_symmetry_space_group_name_H-M "C 2/C"
_symmetry_group_IT_number 15
_symmetry_cell_setting 'monoclinic'
loop_
_space_group_symop_operation_xyz
x,y,z
-x,y,1/2-z
-x,-y,-z
x,-y,1/2+z
1/2+x,1/2+y,z
1/2-x,1/2+y,1/2-z
1/2-x,1/2-y,-z
1/2+x,1/2-y,1/2+z
loop_
_atom_site_type_symbol
_atom_site_label
_atom_site_fract_x
_atom_site_fract_y
_atom_site_fract_z
Si Si1 0.314926 0.470739 0.732488
Si Si2 0.038402 0.626059 0.952316
Si Si3 0.392865 0.801807 0.685048
Si Si4 0.313390 0.053045 0.781186
Si Si5 0.302674 0.133290 0.469857
Si Si6 0.758650 0.991796 0.427069
Si Si7 0.488315 0.327109 0.119186
O O1 0.258677 0.512508 0.719799
O O2 0.570015 0.445290 0.520785
O O3 0.273943 0.502507 0.835310
O O4 0.130730 0.421776 0.881520
O O5 0.086950 0.610034 0.834894
O O6 0.292249 0.629073 0.768132
O O7 0.923167 0.680566 0.082967
O O8 0.602374 0.826956 0.552014
O O9 0.392432 0.735740 0.696437
O O10 0.174913 0.828444 0.904070
O O11 0.524448 0.023655 0.641672
O O12 0.500000 0.127579 0.250000
O O13 0.256157 0.071800 0.536278
O O14 0.101569 0.159680 0.594804
O O15 0.000000 0.015499 0.250000
#
# Coordination Sequence:
#
# PCOD9288428 Si02
#       7
#     8   8   8   8   8   8   8
#     4  10  22  39  59  82 112 149 204 255 312 360
#     4  11  21  37  58  79 107 152 202 249 308 340
#     4  11  21  38  52  80 114 161 206 255 293 336
#     4  10  22  39  59  82 112 150 201 260 308 364
#     4  10  24  35  51  78 118 164 211 244 290 342
#     4  11  24  35  57  86 117 157 201 249 303 362
#     4  11  23  35  55  79 117 158 208 252 288 343
#
# _framework density 19.690007000000001
#
# number of rings (size 3 to 8) (size 9 to 14) (size 15 to 20)
#    0.000    1.429    1.429    4.714    8.000    2.286 
#    0.000    0.000    0.000    0.000    0.000    0.000 
#    0.000   18.286    0.000    1.143    0.000    0.000 
#
# Total GULP energy -156246.756753 kJ/mol
# GULP energy per Si atom -5580.241313 kJ/mol
# Density = 1.964519 g / cm^3
# Si number density = 19.690007 Si / 1000 Ang^3
#
#
#
# Elastic Constant Matrix: (Units=GPa)
#
#
# Indices 1 2 3 4 5 6 
#
# 1 36.4883 37.9037 22.4888 -0.0836 -6.8381 0.0164
# 2 37.9037 94.0449 39.6423 -0.1146 -3.5747 0.0100
# 3 22.4888 39.6423 147.2480 -0.2675 -13.9379 0.1267
# 4 -0.0836 -0.1146 -0.2675 31.2120 0.1201 1.0798
# 5 -6.8381 -3.5747 -13.9379 0.1201 34.3506 0.0072
# 6 0.0164 0.0100 0.1267 1.0798 0.0072 32.7287
#
#
#
# Elastic Compliance Matrix: (Units=1/GPa)
#
#
# Indices 1 2 3 4 5 6 
#
# 1 0.049515 -0.018930 -0.001788 0.000021 0.007161 -0.000014
# 2 -0.018930 0.019232 -0.002552 0.000008 -0.002802 0.000014
# 3 -0.001788 -0.002552 0.008000 0.000045 0.002624 -0.000031
# 4 0.000021 0.000008 0.000045 0.032076 -0.000089 -0.001058
# 5 0.007161 -0.002802 0.002624 -0.000089 0.031311 -0.000017
# 6 -0.000014 0.000014 -0.000031 -0.001058 -0.000017 0.030589
#
#
# Mechanical properties :
#
#
# Convention : Reuss Voigt Hill
#
# Bulk Modulus (GPa) = 33.10547 53.09453 43.10000
# Shear Modulus (GPa) = 21.99426 31.50803 26.75115
#
# Velocity S-wave (km/s) = 3.34582 4.00459 3.68994
# Velocity P-wave (km/s) = 5.63701 6.95745 6.33174
#
# Compressibility (1/GPa) = 0.03020649
#
# Stress axis : x y z
#
# Youngs Moduli (GPa) = 20.19597 51.99655 125.00269
#
# Poissons Ratio (x) = 0.98432 0.22349
# Poissons Ratio (y) = 0.38232 0.31897
# Poissons Ratio (z) = 0.03611 0.13268
#
# Static dielectric constant tensor:
#      x y z
#    x 1.694370 0.000020 0.030420 
#    y 0.000020 1.682550 0.000190 
#    z 0.030420 0.000190 1.810120 
# 
# From -- ./inp_files/250015.got.cif
#   From: 2010.05.17/outbox.cif.g08.bks.cpg/sg15_126_cif.got.tgz:250015.got - 2010.06.03 18:47:42.
