data_PCOD9288224
_publ_section_title
;
Structure prediction by ZEFSAII (Michael W. Deem and Ramdas Pophale) SiO2 
 PCOD9288224
Probable space group: C 2/C
;
_chemical_formula_sum "Si O2"
_cell_formula_units_Z 56
_cell_length_a 16.635383
_cell_length_b 16.983582
_cell_length_c 18.897278
_cell_angle_alpha 90.000000
_cell_angle_beta 29.640486
_cell_angle_gamma 90.000000
_cell_volume 2640.443915
_symmetry_space_group_name_H-M "C 2/C"
_symmetry_group_IT_number 15
_symmetry_cell_setting 'monoclinic'
loop_
_space_group_symop_operation_xyz
x,y,z
-x,y,1/2-z
-x,-y,-z
x,-y,1/2+z
1/2+x,1/2+y,z
1/2-x,1/2+y,1/2-z
1/2-x,1/2-y,-z
1/2+x,1/2-y,1/2+z
loop_
_atom_site_type_symbol
_atom_site_label
_atom_site_fract_x
_atom_site_fract_y
_atom_site_fract_z
Si Si1 0.183119 0.838195 0.038853
Si Si2 0.386196 0.019114 0.395985
Si Si3 0.357103 0.722176 0.527606
Si Si4 0.761818 0.211875 0.244726
Si Si5 0.328323 0.331778 0.287499
Si Si6 0.688518 0.367892 0.578960
Si Si7 0.497307 0.920428 0.959097
O O1 0.161499 0.857022 0.138690
O O2 0.016469 0.841813 0.122217
O O3 0.250000 0.750000 0.000000
O O4 0.301968 0.906210 0.922239
O O5 0.500000 0.979754 0.250000
O O6 0.480657 0.055645 0.389962
O O7 0.259187 0.955822 0.524495
O O8 0.284791 0.721417 0.661595
O O9 0.546994 0.705360 0.392717
O O10 0.300999 0.662205 0.510015
O O11 0.299303 0.807123 0.539725
O O12 0.711590 0.242639 0.205417
O O13 0.652658 0.136366 0.346680
O O14 0.165558 0.376393 0.388830
O O15 0.500000 0.363613 0.750000
O O16 0.500000 0.000000 0.000000
#
# Coordination Sequence:
#
# PCOD9288224 Si02
#       7
#     8   8   8   8   8   8   8
#     4  10  23  41  64  89 130 178 229 277 334 401
#     4  11  27  41  67 100 137 178 234 287 339 406
#     4  11  25  41  72 100 133 179 228 277 341 411
#     4  12  23  43  67 103 133 177 227 287 342 413
#     4  10  22  38  65  94 125 175 224 273 332 409
#     4  11  25  45  69  99 139 179 227 280 343 414
#     4  11  25  42  66  97 142 181 220 282 358 411
#
# _framework density 21.208556000000002
#
# number of rings (size 3 to 8) (size 9 to 14) (size 15 to 20)
#    0.000    1.143    2.857    2.571   10.000    0.000 
#    0.000    0.000    0.000    3.429    0.000    0.000 
#    0.000    0.000    0.000    0.000    0.000    0.000 
#
# Total GULP energy -156026.408099 kJ/mol
# GULP energy per Si atom -5572.371718 kJ/mol
# Density = 2.116028 g / cm^3
# Si number density = 21.208556 Si / 1000 Ang^3
#
#
#
# Elastic Constant Matrix: (Units=GPa)
#
#
# Indices 1 2 3 4 5 6 
#
# 1 62.5415 10.0238 15.6774 0.0022 -14.4134 0.0001
# 2 10.0238 89.4485 25.6626 -0.0018 -12.3531 -0.0058
# 3 15.6774 25.6626 74.9617 -0.0029 -15.1286 -0.0047
# 4 0.0022 -0.0018 -0.0029 27.2233 0.0011 -2.0793
# 5 -14.4134 -12.3531 -15.1286 0.0011 36.1220 0.0019
# 6 0.0001 -0.0058 -0.0047 -2.0793 0.0019 39.6758
#
#
#
# Elastic Compliance Matrix: (Units=1/GPa)
#
#
# Indices 1 2 3 4 5 6 
#
# 1 0.018059 -0.000506 -0.002386 -0.000002 0.006034 -0.000001
# 2 -0.000506 0.012655 -0.003707 0.000000 0.002573 0.000001
# 3 -0.002386 -0.003707 0.016014 0.000002 0.004487 0.000001
# 4 -0.000002 0.000000 0.000002 0.036881 -0.000001 0.001933
# 5 0.006034 0.002573 0.004487 -0.000001 0.032851 -0.000001
# 6 -0.000001 0.000001 0.000001 0.001933 -0.000001 0.025306
#
#
# Mechanical properties :
#
#
# Convention : Reuss Voigt Hill
#
# Bulk Modulus (GPa) = 29.82417 36.63105 33.22761
# Shear Modulus (GPa) = 30.09500 32.31009 31.20255
#
# Velocity S-wave (km/s) = 3.77105 3.90737 3.83982
# Velocity P-wave (km/s) = 5.74926 6.13727 5.94643
#
# Compressibility (1/GPa) = 0.03352985
#
# Stress axis : x y z
#
# Youngs Moduli (GPa) = 55.37379 79.01819 62.44579
#
# Poissons Ratio (x) = 0.03998 0.14899
# Poissons Ratio (y) = 0.02802 0.23151
# Poissons Ratio (z) = 0.13212 0.29294
#
# Static dielectric constant tensor:
#      x y z
#    x 1.811680 0.000000 0.017920 
#    y 0.000000 1.793970 -0.000010 
#    z 0.017920 -0.000010 1.858420 
# 
# From -- ./inp_files/249234.got.cif
#   From: 2010.05.17/outbox.cif.g08.bks.cpg/sg15_125_cif.got.tgz:249234.got - 2010.06.03 18:47:42.
