data_PCOD9288647
_publ_section_title
;
Structure prediction by ZEFSAII (Michael W. Deem and Ramdas Pophale) SiO2 
 PCOD9288647
Probable space group: C 2/C
;
_chemical_formula_sum "Si O2"
_cell_formula_units_Z 48
_cell_length_a 4.969206
_cell_length_b 26.311464
_cell_length_c 17.486379
_cell_angle_alpha 90.000000
_cell_angle_beta 82.101075
_cell_angle_gamma 90.000000
_cell_volume 2264.600825
_symmetry_space_group_name_H-M "C 2/C"
_symmetry_group_IT_number 15
_symmetry_cell_setting 'monoclinic'
loop_
_space_group_symop_operation_xyz
x,y,z
-x,y,1/2-z
-x,-y,-z
x,-y,1/2+z
1/2+x,1/2+y,z
1/2-x,1/2+y,1/2-z
1/2-x,1/2-y,-z
1/2+x,1/2-y,1/2+z
loop_
_atom_site_type_symbol
_atom_site_label
_atom_site_fract_x
_atom_site_fract_y
_atom_site_fract_z
Si Si1 0.584737 0.048315 0.097504
Si Si2 0.230007 0.943200 0.457062
Si Si3 0.500000 0.992808 0.250000
Si Si4 0.560351 0.135134 0.838572
Si Si5 0.600829 0.803713 0.014262
Si Si6 0.379693 0.364640 0.536386
Si Si7 0.000000 0.081718 0.750000
O O1 0.446609 0.027887 0.179132
O O2 0.734038 0.101870 0.106181
O O3 0.785522 0.000962 0.070446
O O4 0.380737 0.054492 0.033843
O O5 0.418087 0.910730 0.391482
O O6 0.951398 0.911662 0.475989
O O7 0.759392 0.955698 0.235096
O O8 0.500000 0.142139 0.750000
O O9 0.467557 0.182408 0.894468
O O10 0.876272 0.118738 0.819615
O O11 0.180444 0.679754 0.015269
O O12 0.825020 0.840809 0.967796
O O13 0.750000 0.750000 0.000000
#
# Coordination Sequence:
#
# PCOD9288647 Si02
#       7
#     8   8   4   8   8   8   4
#     4  11  22  40  61  98 135 185 220 264 322 408
#     4  10  22  39  63 100 138 177 214 269 321 411
#     4  12  28  36  64  91 152 185 222 264 320 398
#     4  11  23  41  69  97 133 168 217 276 341 393
#     4  11  26  45  70  97 127 169 227 296 345 398
#     4  11  22  42  68  93 129 177 222 266 336 401
#     4  12  24  42  56 101 138 179 216 276 330 392
#
# _framework density 21.195788
#
# number of rings (size 3 to 8) (size 9 to 14) (size 15 to 20)
#    0.000    1.000    5.833    1.000    9.333    0.000 
#    0.000    0.000    3.667    0.000    0.000    0.000 
#    0.000    0.000    0.000    0.000    0.000    0.000 
#
# Total GULP energy -133692.822532 kJ/mol
# GULP energy per Si atom -5570.534272 kJ/mol
# Density = 2.114755 g / cm^3
# Si number density = 21.195788 Si / 1000 Ang^3
#
#
#
# Elastic Constant Matrix: (Units=GPa)
#
#
# Indices 1 2 3 4 5 6 
#
# 1 107.1300 15.8431 28.6963 0.0000 -17.4992 0.0000
# 2 15.8431 114.9904 40.2477 0.0000 -20.9606 0.0000
# 3 28.6963 40.2477 116.8639 0.0000 -6.0182 0.0000
# 4 0.0000 0.0000 0.0000 38.0532 0.0000 -16.2749
# 5 -17.4992 -20.9606 -6.0182 0.0000 28.1370 0.0000
# 6 0.0000 0.0000 0.0000 -16.2749 0.0000 39.7198
#
#
#
# Elastic Compliance Matrix: (Units=1/GPa)
#
#
# Indices 1 2 3 4 5 6 
#
# 1 0.011039 0.000614 -0.002574 0.000000 0.006773 0.000000
# 2 0.000614 0.011358 -0.003647 0.000000 0.008063 0.000000
# 3 -0.002574 -0.003647 0.010337 0.000000 -0.002107 0.000000
# 4 0.000000 0.000000 0.000000 0.031863 0.000000 0.013056
# 5 0.006773 0.008063 -0.002107 0.000000 0.045309 0.000000
# 6 0.000000 0.000000 0.000000 0.013056 0.000000 0.030526
#
#
# Mechanical properties :
#
#
# Convention : Reuss Voigt Hill
#
# Bulk Modulus (GPa) = 46.46646 56.50649 51.48648
# Shear Modulus (GPa) = 31.48265 38.12848 34.80556
#
# Velocity S-wave (km/s) = 3.85817 4.24591 4.05668
# Velocity P-wave (km/s) = 6.46664 7.12420 6.80337
#
# Compressibility (1/GPa) = 0.02152090
#
# Stress axis : x y z
#
# Youngs Moduli (GPa) = 90.58576 88.04290 96.74414
#
# Poissons Ratio (x) = -0.05409 0.24897
# Poissons Ratio (y) = -0.05565 0.35286
# Poissons Ratio (z) = 0.23312 0.32112
#
# Static dielectric constant tensor:
#      x y z
#    x 1.853990 0.000000 -0.016500 
#    y 0.000000 1.816100 0.000000 
#    z -0.016500 0.000000 1.859910 
# 
# From -- ./inp_files/185515.got.cif
#   From: 2010.05.17/outbox.cif.g08.bks.cpg/sg15_93_cif.got.tgz:185515.got - 2010.06.03 18:47:42.
