data_PCOD9288619
_publ_section_title
;
Structure prediction by ZEFSAII (Michael W. Deem and Ramdas Pophale) SiO2 
 PCOD9288619
Probable space group: C 2/C
;
_chemical_formula_sum "Si O2"
_cell_formula_units_Z 40
_cell_length_a 25.123188
_cell_length_b 9.575811
_cell_length_c 8.004204
_cell_angle_alpha 90.000000
_cell_angle_beta 70.400059
_cell_angle_gamma 90.000000
_cell_volume 1814.036460
_symmetry_space_group_name_H-M "C 2/C"
_symmetry_group_IT_number 15
_symmetry_cell_setting 'monoclinic'
loop_
_space_group_symop_operation_xyz
x,y,z
-x,y,1/2-z
-x,-y,-z
x,-y,1/2+z
1/2+x,1/2+y,z
1/2-x,1/2+y,1/2-z
1/2-x,1/2-y,-z
1/2+x,1/2-y,1/2+z
loop_
_atom_site_type_symbol
_atom_site_label
_atom_site_fract_x
_atom_site_fract_y
_atom_site_fract_z
Si Si1 0.777206 0.141261 0.602165
Si Si2 0.635303 0.200814 0.252661
Si Si3 0.377754 0.641206 0.284826
Si Si4 0.340767 0.914082 0.140361
Si Si5 0.440489 0.425799 0.034236
O O1 0.750000 0.250000 0.500000
O O2 0.814053 0.218282 0.705422
O O3 0.823726 0.071553 0.432939
O O4 0.725152 0.061052 0.741046
O O5 0.580763 0.302678 0.319232
O O6 0.627071 0.059131 0.368022
O O7 0.652435 0.149784 0.050813
O O8 0.363475 0.796675 0.243458
O O9 0.396234 0.550603 0.110083
O O10 0.428616 0.634772 0.363925
O O11 0.500000 0.500000 0.000000
#
# Coordination Sequence:
#
# PCOD9288619 Si02
#       5
#     8   8   8   8   8
#     4   9  20  36  58  91 131 171 207 255 320 389
#     4  11  23  39  63  94 131 176 220 267 324 392
#     4  10  22  39  62  93 127 169 221 267 323 395
#     4  11  22  40  63  97 137 172 213 269 325 395
#     4  11  23  42  65  91 124 168 219 278 331 381
#
# _framework density 22.050273000000001
#
# number of rings (size 3 to 8) (size 9 to 14) (size 15 to 20)
#    0.000    1.600    0.000    6.000    0.000   11.200 
#    0.000    1.000    0.000    4.800    0.000    0.000 
#    0.000    0.000    0.000    0.000    0.000    0.000 
#
# Total GULP energy -111664.803667 kJ/mol
# GULP energy per Si atom -5583.240183 kJ/mol
# Density = 2.200009 g / cm^3
# Si number density = 22.050273 Si / 1000 Ang^3
#
#
#
# Elastic Constant Matrix: (Units=GPa)
#
#
# Indices 1 2 3 4 5 6 
#
# 1 125.9072 54.9602 50.4721 0.0000 -2.9302 0.0000
# 2 54.9602 107.5861 17.7717 0.0000 -11.8833 0.0000
# 3 50.4721 17.7717 90.3932 0.0000 5.3631 0.0000
# 4 0.0000 0.0000 0.0000 37.2202 0.0000 4.6477
# 5 -2.9302 -11.8833 5.3631 0.0000 33.8738 0.0000
# 6 0.0000 0.0000 0.0000 4.6477 0.0000 37.9262
#
#
#
# Elastic Compliance Matrix: (Units=1/GPa)
#
#
# Indices 1 2 3 4 5 6 
#
# 1 0.012782 -0.005514 -0.006061 0.000000 0.000131 0.000000
# 2 -0.005514 0.012469 0.000400 0.000000 0.003834 0.000000
# 3 -0.006061 0.000400 0.014527 0.000000 -0.002684 0.000000
# 4 0.000000 0.000000 0.000000 0.027285 0.000000 -0.003344
# 5 0.000131 0.003834 -0.002684 0.000000 0.031303 0.000000
# 6 0.000000 0.000000 0.000000 -0.003344 0.000000 0.026777
#
#
# Mechanical properties :
#
#
# Convention : Reuss Voigt Hill
#
# Bulk Modulus (GPa) = 57.37595 63.36608 60.37102
# Shear Modulus (GPa) = 32.61550 35.18290 33.89920
#
# Velocity S-wave (km/s) = 3.85013 3.99880 3.92517
# Velocity P-wave (km/s) = 6.77065 7.07955 6.92682
#
# Compressibility (1/GPa) = 0.01742890
#
# Stress axis : x y z
#
# Youngs Moduli (GPa) = 78.23614 80.19804 68.83549
#
# Poissons Ratio (x) = 0.44221 0.41718
# Poissons Ratio (y) = 0.43139 -0.02752
# Poissons Ratio (z) = 0.47415 -0.03207
#
# Static dielectric constant tensor:
#      x y z
#    x 1.850000 0.000000 -0.006790 
#    y 0.000000 1.825180 0.000000 
#    z -0.006790 0.000000 1.875090 
# 
# From -- ./inp_files/59885.got.cif
#   From: 2010.05.17/outbox.cif.g08.bks.cpg/sg15_30_cif.got.tgz:59885.got - 2010.06.03 18:47:42.
