data_PCOD9288615
_publ_section_title
;
Structure prediction by ZEFSAII (Michael W. Deem and Ramdas Pophale) SiO2 
 PCOD9288615
Probable space group: C 2/C
;
_chemical_formula_sum "Si O2"
_cell_formula_units_Z 40
_cell_length_a 15.810213
_cell_length_b 26.805711
_cell_length_c 9.867228
_cell_angle_alpha 90.000000
_cell_angle_beta 153.754562
_cell_angle_gamma 90.000000
_cell_volume 1849.251257
_symmetry_space_group_name_H-M "C 2/C"
_symmetry_group_IT_number 15
_symmetry_cell_setting 'monoclinic'
loop_
_space_group_symop_operation_xyz
x,y,z
-x,y,1/2-z
-x,-y,-z
x,-y,1/2+z
1/2+x,1/2+y,z
1/2-x,1/2+y,1/2-z
1/2-x,1/2-y,-z
1/2+x,1/2-y,1/2+z
loop_
_atom_site_type_symbol
_atom_site_label
_atom_site_fract_x
_atom_site_fract_y
_atom_site_fract_z
Si Si1 0.248956 0.577729 0.506212
Si Si2 0.488847 0.218570 0.518559
Si Si3 0.000000 0.336489 0.750000
Si Si4 0.000000 0.494731 0.250000
Si Si5 0.190399 0.814756 0.813637
Si Si6 0.663312 0.577826 0.173093
O O1 0.283962 0.594969 0.403503
O O2 0.175627 0.624241 0.489128
O O3 0.093408 0.533627 0.278633
O O4 0.448147 0.557362 0.851963
O O5 0.491001 0.197039 0.371041
O O6 0.311190 0.201365 0.354078
O O7 0.508336 0.278484 0.552212
O O8 0.675755 0.197887 0.866057
O O9 0.173130 0.460178 0.547540
O O10 0.157154 0.873328 0.757352
#
# Coordination Sequence:
#
# PCOD9288615 Si02
#       6
#     8   8   4   4   8   8
#     4  10  24  40  63 100 130 162 224 275 315 400
#     4  10  22  39  62  92 133 174 219 264 318 380
#     4  11  22  40  64  94 134 172 218 269 326 376
#     4  11  22  42  70  90 128 170 218 273 338 376
#     4  10  22  41  63  92 130 177 218 264 315 393
#     4  11  22  42  67  92 132 174 216 265 337 385
#
# _framework density 21.630375999999998
#
# number of rings (size 3 to 8) (size 9 to 14) (size 15 to 20)
#    0.000    1.600    2.000    2.400    2.800    2.400 
#    0.000    0.000    0.000    0.000    0.000    0.000 
#    0.000    0.000    0.000    0.000    0.000    0.000 
#
# Total GULP energy -111724.759057 kJ/mol
# GULP energy per Si atom -5586.237953 kJ/mol
# Density = 2.158114 g / cm^3
# Si number density = 21.630376 Si / 1000 Ang^3
#
#
#
# Elastic Constant Matrix: (Units=GPa)
#
#
# Indices 1 2 3 4 5 6 
#
# 1 63.0358 2.9818 14.0049 0.0000 -14.1631 0.0000
# 2 2.9818 103.2806 29.4892 0.0000 -0.8781 0.0000
# 3 14.0049 29.4892 54.8107 0.0000 2.4669 0.0000
# 4 0.0000 0.0000 0.0000 32.0749 0.0000 -0.7169
# 5 -14.1631 -0.8781 2.4669 0.0000 29.6007 0.0000
# 6 0.0000 0.0000 0.0000 -0.7169 0.0000 28.6924
#
#
#
# Elastic Compliance Matrix: (Units=1/GPa)
#
#
# Indices 1 2 3 4 5 6 
#
# 1 0.019354 0.001255 -0.006062 0.000000 0.009803 0.000000
# 2 0.001255 0.011543 -0.006598 0.000000 0.001493 0.000000
# 3 -0.006062 -0.006598 0.023571 0.000000 -0.005061 0.000000
# 4 0.000000 0.000000 0.000000 0.031194 0.000000 0.000779
# 5 0.009803 0.001493 -0.005061 0.000000 0.038939 0.000000
# 6 0.000000 0.000000 0.000000 0.000779 0.000000 0.034872
#
#
# Mechanical properties :
#
#
# Convention : Reuss Voigt Hill
#
# Bulk Modulus (GPa) = 31.58697 34.89765 33.24231
# Shear Modulus (GPa) = 25.92883 29.71702 27.82292
#
# Velocity S-wave (km/s) = 3.46601 3.71058 3.59038
# Velocity P-wave (km/s) = 5.53646 5.87593 5.70872
#
# Compressibility (1/GPa) = 0.03165862
#
# Stress axis : x y z
#
# Youngs Moduli (GPa) = 51.66922 86.63448 42.42467
#
# Poissons Ratio (x) = -0.10876 0.25717
# Poissons Ratio (y) = -0.06486 0.27993
# Poissons Ratio (z) = 0.31321 0.57163
#
# Static dielectric constant tensor:
#      x y z
#    x 1.782050 0.000000 0.028040 
#    y 0.000000 1.778220 0.000000 
#    z 0.028040 0.000000 1.784770 
# 
# From -- ./inp_files/25855.got.cif
#   From: 2010.05.17/outbox.cif.g08.bks.cpg/sg15_13_cif.got.tgz:25855.got - 2010.06.03 18:47:42.
