data_PCOD9288009
_publ_section_title
;
Structure prediction by ZEFSAII (Michael W. Deem and Ramdas Pophale) SiO2 
 PCOD9288009
Probable space group: C 2/C
;
_chemical_formula_sum "Si O2"
_cell_formula_units_Z 52
_cell_length_a 9.027163
_cell_length_b 13.287137
_cell_length_c 18.539074
_cell_angle_alpha 90.000000
_cell_angle_beta 102.587462
_cell_angle_gamma 90.000000
_cell_volume 2170.224914
_symmetry_space_group_name_H-M "C 2/C"
_symmetry_group_IT_number 15
_symmetry_cell_setting 'monoclinic'
loop_
_space_group_symop_operation_xyz
x,y,z
-x,y,1/2-z
-x,-y,-z
x,-y,1/2+z
1/2+x,1/2+y,z
1/2-x,1/2+y,1/2-z
1/2-x,1/2-y,-z
1/2+x,1/2-y,1/2+z
loop_
_atom_site_type_symbol
_atom_site_label
_atom_site_fract_x
_atom_site_fract_y
_atom_site_fract_z
Si Si1 0.423297 0.234289 0.360033
Si Si2 0.886541 0.205091 0.106327
Si Si3 0.846215 0.451571 0.778359
Si Si4 0.500000 0.430371 0.750000
Si Si5 0.159553 0.610470 0.462139
Si Si6 0.512417 0.078933 0.908803
Si Si7 0.000557 0.886135 0.472853
O O1 0.292253 0.200512 0.401068
O O2 0.359537 0.171832 0.284522
O O3 0.581537 0.179957 0.394264
O O4 0.446620 0.350123 0.387388
O O5 0.961987 0.133871 0.174190
O O6 0.943477 0.318663 0.125512
O O7 0.919869 0.172503 0.028985
O O8 0.667630 0.477653 0.747475
O O9 0.000000 0.481553 0.750000
O O10 0.886004 0.510595 0.856508
O O11 0.155374 0.495875 0.432156
O O12 0.323645 0.643860 0.502349
O O13 0.052760 0.607748 0.520462
O O14 0.000000 0.000000 0.500000
#
# Coordination Sequence:
#
# PCOD9288009 Si02
#       7
#     8   8   8   4   8   8   8
#     4  10  22  43  64  95 130 167 212 275 325 387
#     4  11  24  43  65  90 133 171 216 264 328 391
#     4  10  24  45  72  90 132 173 227 267 329 389
#     4  10  26  44  64  94 128 178 220 272 312 392
#     4  10  22  38  62 100 129 162 207 269 330 391
#     4  10  22  39  68  91 130 169 208 266 331 388
#     4  12  25  36  66  98 132 167 216 265 331 390
#
# _framework density 23.960649
#
# number of rings (size 3 to 8) (size 9 to 14) (size 15 to 20)
#    0.000    1.538    1.538    1.846   14.000    0.000 
#    0.000    0.000    3.385    0.000    0.000    0.000 
#    0.000    0.000    0.000    0.000    0.000    0.000 
#
# Total GULP energy -144837.628109 kJ/mol
# GULP energy per Si atom -5570.678004 kJ/mol
# Density = 2.390611 g / cm^3
# Si number density = 23.960649 Si / 1000 Ang^3
#
#
#
# Elastic Constant Matrix: (Units=GPa)
#
#
# Indices 1 2 3 4 5 6 
#
# 1 124.1810 2.5788 4.9663 0.0000 13.7910 0.0000
# 2 2.5788 77.6139 0.3447 0.0000 -6.7573 0.0000
# 3 4.9663 0.3447 55.7983 0.0000 10.8799 0.0000
# 4 0.0000 0.0000 0.0000 31.0448 0.0000 7.5324
# 5 13.7910 -6.7573 10.8799 0.0000 28.0329 0.0000
# 6 0.0000 0.0000 0.0000 7.5324 0.0000 18.0025
#
#
#
# Elastic Compliance Matrix: (Units=1/GPa)
#
#
# Indices 1 2 3 4 5 6 
#
# 1 0.008552 -0.000668 0.000102 0.000000 -0.004408 0.000000
# 2 -0.000668 0.013242 -0.000767 0.000000 0.003819 0.000000
# 3 0.000102 -0.000767 0.019434 0.000000 -0.007778 0.000000
# 4 0.000000 0.000000 0.000000 0.035851 0.000000 -0.015000
# 5 -0.004408 0.003819 -0.007778 0.000000 0.041780 0.000000
# 6 0.000000 0.000000 0.000000 -0.015000 0.000000 0.061824
#
#
# Mechanical properties :
#
#
# Convention : Reuss Voigt Hill
#
# Bulk Modulus (GPa) = 25.93177 30.37476 28.15327
# Shear Modulus (GPa) = 25.48377 32.06293 28.77335
#
# Velocity S-wave (km/s) = 3.26478 3.66204 3.46910
# Velocity P-wave (km/s) = 5.00578 5.53039 5.27461
#
# Compressibility (1/GPa) = 0.03856273
#
# Stress axis : x y z
#
# Youngs Moduli (GPa) = 116.93037 75.51532 51.45660
#
# Poissons Ratio (x) = 0.05047 -0.00527
# Poissons Ratio (y) = 0.07816 0.03946
# Poissons Ratio (z) = -0.01198 0.05791
#
# Static dielectric constant tensor:
#      x y z
#    x 1.923220 0.000000 0.012310 
#    y 0.000000 2.055520 0.000000 
#    z 0.012310 0.000000 1.970730 
# 
# From -- ./inp_files/263956.got.cif
#   From: 2010.05.17/outbox.cif.g08.bks.cpg/sg15_132_cif.got.tgz:263956.got - 2010.06.03 18:47:42.
