data_PCOD9288926
_publ_section_title
;
Structure prediction by ZEFSAII (Michael W. Deem and Ramdas Pophale) SiO2 
 PCOD9288926
Probable space group: C 2/C
;
_chemical_formula_sum "Si O2"
_cell_formula_units_Z 52
_cell_length_a 8.954493
_cell_length_b 11.789092
_cell_length_c 20.960060
_cell_angle_alpha 90.000000
_cell_angle_beta 65.649908
_cell_angle_gamma 90.000000
_cell_volume 2015.825007
_symmetry_space_group_name_H-M "C 2/C"
_symmetry_group_IT_number 15
_symmetry_cell_setting 'monoclinic'
loop_
_space_group_symop_operation_xyz
x,y,z
-x,y,1/2-z
-x,-y,-z
x,-y,1/2+z
1/2+x,1/2+y,z
1/2-x,1/2+y,1/2-z
1/2-x,1/2-y,-z
1/2+x,1/2-y,1/2+z
loop_
_atom_site_type_symbol
_atom_site_label
_atom_site_fract_x
_atom_site_fract_y
_atom_site_fract_z
Si Si1 0.500000 0.000000 0.000000
Si Si2 0.630189 0.665259 0.099396
Si Si3 0.313891 0.970975 0.131414
Si Si4 0.500000 0.227931 0.750000
Si Si5 0.474426 0.264304 0.014212
Si Si6 0.041954 0.163523 0.639000
Si Si7 0.500000 0.839504 0.750000
Si Si8 0.252351 0.019962 0.782488
O O1 0.498996 0.020059 0.920191
O O2 0.460950 0.864000 0.000806
O O3 0.741242 0.549372 0.086107
O O4 0.532642 0.698378 0.180624
O O5 0.779258 0.755622 0.065792
O O6 0.523680 0.672658 0.054073
O O7 0.264823 0.019350 0.207064
O O8 0.215526 0.855694 0.142585
O O9 0.351297 0.138378 0.768638
O O10 0.555722 0.317212 0.062024
O O11 0.960516 0.261348 0.696025
O O12 0.931268 0.050853 0.667579
O O13 0.353590 0.922108 0.798623
#
# Coordination Sequence:
#
# PCOD9288926 Si02
#       8
#     4   8   8   4   8   8   4   8
#     4  10  22  44  66  94 134 188 236 292 360 444
#     4  10  22  39  67  97 134 185 229 292 350 429
#     4  11  24  42  69  98 140 186 237 300 368 427
#     4  11  22  39  70 100 128 189 240 283 366 426
#     4  10  22  44  66  97 142 179 236 297 359 433
#     4  12  24  45  70 106 147 185 242 310 363 437
#     4  11  24  43  72 108 146 197 238 297 372 428
#     4  11  24  42  68 108 141 185 240 298 358 442
#
# _framework density 25.79589
#
# number of rings (size 3 to 8) (size 9 to 14) (size 15 to 20)
#    0.000    1.231    3.077    2.769    2.154    2.462 
#    5.538    0.000    0.000    0.000    0.000    0.000 
#    0.000    0.000    0.000    0.000    0.000    0.000 
#
# Total GULP energy -144827.834914 kJ/mol
# GULP energy per Si atom -5570.301343 kJ/mol
# Density = 2.573718 g / cm^3
# Si number density = 25.795890 Si / 1000 Ang^3
#
#
#
# Elastic Constant Matrix: (Units=GPa)
#
#
# Indices 1 2 3 4 5 6 
#
# 1 48.2829 6.5448 4.4985 0.0000 14.3781 0.0000
# 2 6.5448 85.6723 11.8124 0.0000 19.2918 0.0000
# 3 4.4985 11.8124 121.4652 0.0000 21.8932 0.0000
# 4 0.0000 0.0000 0.0000 25.5301 0.0000 -2.7705
# 5 14.3781 19.2918 21.8932 0.0000 44.6776 0.0000
# 6 0.0000 0.0000 0.0000 -2.7705 0.0000 35.3537
#
#
#
# Elastic Compliance Matrix: (Units=1/GPa)
#
#
# Indices 1 2 3 4 5 6 
#
# 1 0.022938 -0.000116 0.000530 0.000000 -0.007592 0.000000
# 2 -0.000116 0.012939 -0.000278 0.000000 -0.005413 0.000000
# 3 0.000530 -0.000278 0.009049 0.000000 -0.004484 0.000000
# 4 0.000000 0.000000 0.000000 0.039505 0.000000 0.003096
# 5 -0.007592 -0.005413 -0.004484 0.000000 0.029361 0.000000
# 6 0.000000 0.000000 0.000000 0.003096 0.000000 0.028528
#
#
# Mechanical properties :
#
#
# Convention : Reuss Voigt Hill
#
# Bulk Modulus (GPa) = 22.12528 33.45911 27.79219
# Shear Modulus (GPa) = 31.82411 36.61660 34.22036
#
# Velocity S-wave (km/s) = 3.51620 3.77168 3.64618
# Velocity P-wave (km/s) = 5.00805 5.65387 5.34073
#
# Compressibility (1/GPa) = 0.04519718
#
# Stress axis : x y z
#
# Youngs Moduli (GPa) = 43.59520 77.28834 110.51513
#
# Poissons Ratio (x) = 0.00896 -0.05858
# Poissons Ratio (y) = 0.00505 0.03075
# Poissons Ratio (z) = -0.02311 0.02151
#
# Static dielectric constant tensor:
#      x y z
#    x 1.805780 0.000000 0.274050 
#    y 0.000000 2.041230 0.000000 
#    z 0.274050 0.000000 1.739300 
# 
# From -- ./inp_files/237515.got.cif
#   From: 2010.05.17/outbox.cif.g08.bks.cpg/sg15_119_cif.got.tgz:237515.got - 2010.06.03 18:47:42.
