data_PCOD9288564
_publ_section_title
;
Structure prediction by ZEFSAII (Michael W. Deem and Ramdas Pophale) SiO2 
 PCOD9288564
Probable space group: C 2/C
;
_chemical_formula_sum "Si O2"
_cell_formula_units_Z 40
_cell_length_a 27.559884
_cell_length_b 12.927008
_cell_length_c 5.166505
_cell_angle_alpha 90.000000
_cell_angle_beta 78.247928
_cell_angle_gamma 90.000000
_cell_volume 1802.070815
_symmetry_space_group_name_H-M "C 2/C"
_symmetry_group_IT_number 15
_symmetry_cell_setting 'monoclinic'
loop_
_space_group_symop_operation_xyz
x,y,z
-x,y,1/2-z
-x,-y,-z
x,-y,1/2+z
1/2+x,1/2+y,z
1/2-x,1/2+y,1/2-z
1/2-x,1/2-y,-z
1/2+x,1/2-y,1/2+z
loop_
_atom_site_type_symbol
_atom_site_label
_atom_site_fract_x
_atom_site_fract_y
_atom_site_fract_z
Si Si1 0.771727 0.693711 0.726943
Si Si2 0.441899 0.067706 0.303606
Si Si3 0.128706 0.244532 0.611554
Si Si4 0.184415 0.935175 0.340495
Si Si5 0.941683 0.064036 0.827002
O O1 0.750000 0.750000 0.500000
O O2 0.830175 0.708859 0.627865
O O3 0.743909 0.584131 0.761837
O O4 0.750000 0.750000 0.000000
O O5 0.500000 0.100066 0.250000
O O6 0.405172 0.160072 0.266807
O O7 0.433700 0.021182 0.598171
O O8 0.157637 0.172566 0.791434
O O9 0.089786 0.161396 0.546112
O O10 0.172288 0.981153 0.632368
O O11 0.000000 0.088202 0.750000
O O12 0.931314 0.025734 0.546820
#
# Coordination Sequence:
#
# PCOD9288564 Si02
#       5
#     8   8   8   8   8
#     4  10  23  40  58  86 124 166 212 256 303 362
#     4  10  24  44  65  93 127 165 214 269 319 368
#     4  11  23  41  68  94 124 169 215 259 313 379
#     4  11  23  40  62  92 129 163 201 255 317 379
#     4  10  22  39  61  95 133 165 202 251 314 385
#
# _framework density 22.196684000000001
#
# number of rings (size 3 to 8) (size 9 to 14) (size 15 to 20)
#    0.000    1.600    0.000    4.200    0.000   11.200 
#    0.000    6.000    0.000    0.000    0.000    0.000 
#    0.000    0.000    0.000    0.000    0.000    0.000 
#
# Total GULP energy -111638.649646 kJ/mol
# GULP energy per Si atom -5581.932482 kJ/mol
# Density = 2.214616 g / cm^3
# Si number density = 22.196684 Si / 1000 Ang^3
#
#
#
# Elastic Constant Matrix: (Units=GPa)
#
#
# Indices 1 2 3 4 5 6 
#
# 1 110.1703 57.0177 39.5908 0.0000 -33.2394 0.0000
# 2 57.0177 80.9136 15.5267 0.0000 -18.0489 0.0000
# 3 39.5908 15.5267 99.0176 0.0000 2.6176 0.0000
# 4 0.0000 0.0000 0.0000 23.1529 0.0000 -7.3865
# 5 -33.2394 -18.0489 2.6176 0.0000 33.5927 0.0000
# 6 0.0000 0.0000 0.0000 -7.3865 0.0000 47.7643
#
#
#
# Elastic Compliance Matrix: (Units=1/GPa)
#
#
# Indices 1 2 3 4 5 6 
#
# 1 0.022548 -0.010539 -0.007819 0.000000 0.017257 0.000000
# 2 -0.010539 0.019564 0.001146 0.000000 -0.000006 0.000000
# 3 -0.007819 0.001146 0.013261 0.000000 -0.008154 0.000000
# 4 0.000000 0.000000 0.000000 0.045433 0.000000 0.007026
# 5 0.017257 -0.000006 -0.008154 0.000000 0.047476 0.000000
# 6 0.000000 0.000000 0.000000 0.007026 0.000000 0.022023
#
#
# Mechanical properties :
#
#
# Convention : Reuss Voigt Hill
#
# Bulk Modulus (GPa) = 47.73324 57.15242 52.44283
# Shear Modulus (GPa) = 23.61705 32.76642 28.19173
#
# Velocity S-wave (km/s) = 3.26542 3.84628 3.56770
# Velocity P-wave (km/s) = 5.98069 6.74754 6.37566
#
# Compressibility (1/GPa) = 0.02094976
#
# Stress axis : x y z
#
# Youngs Moduli (GPa) = 44.35048 51.11408 75.40708
#
# Poissons Ratio (x) = 0.53868 0.58961
# Poissons Ratio (y) = 0.46740 -0.08643
# Poissons Ratio (z) = 0.34678 -0.05859
#
# Static dielectric constant tensor:
#      x y z
#    x 1.936290 0.000000 -0.017950 
#    y 0.000000 1.806560 0.000000 
#    z -0.017950 0.000000 1.780200 
# 
# From -- ./inp_files/18021.got.cif
#   From: 2010.05.17/outbox.cif.g08.bks.cpg/sg15_10_cif.got.tgz:18021.got - 2010.06.03 18:47:42.
