data_PCOD9288493
_publ_section_title
;
Structure prediction by ZEFSAII (Michael W. Deem and Ramdas Pophale) SiO2 
 PCOD9288493
Probable space group: C 2/C
;
_chemical_formula_sum "Si O2"
_cell_formula_units_Z 48
_cell_length_a 7.727527
_cell_length_b 24.658812
_cell_length_c 11.868927
_cell_angle_alpha 90.000000
_cell_angle_beta 104.528886
_cell_angle_gamma 90.000000
_cell_volume 2189.319004
_symmetry_space_group_name_H-M "C 2/C"
_symmetry_group_IT_number 15
_symmetry_cell_setting 'monoclinic'
loop_
_space_group_symop_operation_xyz
x,y,z
-x,y,1/2-z
-x,-y,-z
x,-y,1/2+z
1/2+x,1/2+y,z
1/2-x,1/2+y,1/2-z
1/2-x,1/2-y,-z
1/2+x,1/2-y,1/2+z
loop_
_atom_site_type_symbol
_atom_site_label
_atom_site_fract_x
_atom_site_fract_y
_atom_site_fract_z
Si Si1 0.214260 0.684747 0.495425
Si Si2 0.761811 0.591562 0.587039
Si Si3 0.196298 0.413246 0.149529
Si Si4 0.209721 0.635732 0.260370
Si Si5 0.287883 0.192294 0.457277
Si Si6 0.672530 0.529991 0.355360
O O1 0.250000 0.750000 0.500000
O O2 0.266711 0.641853 0.602456
O O3 0.284842 0.655015 0.393184
O O4 0.999062 0.684167 0.472588
O O5 0.727986 0.583043 0.711708
O O6 0.719956 0.651798 0.541207
O O7 0.661014 0.555541 0.478104
O O8 0.978699 0.586427 0.611804
O O9 0.244413 0.471418 0.106755
O O10 0.286243 0.675458 0.176653
O O11 0.227231 0.575920 0.206085
O O12 0.000000 0.642886 0.250000
O O13 0.250000 0.250000 0.500000
O O14 0.500000 0.521969 0.250000
#
# Coordination Sequence:
#
# PCOD9288493 Si02
#       6
#     8   8   8   8   8   8
#     4  10  22  39  60  92 122 164 211 261 321 379
#     4   9  21  40  64  91 121 169 221 250 314 393
#     4  10  22  40  64  91 125 171 216 259 312 395
#     4   9  21  40  62  85 122 170 214 250 318 394
#     4   9  19  38  62  87 118 160 212 265 304 377
#     4  11  24  40  63  97 128 164 212 275 326 369
#
# _framework density 21.924626
#
# number of rings (size 3 to 8) (size 9 to 14) (size 15 to 20)
#    0.000    2.333    0.000    1.500    7.000    3.333 
#    3.000    0.000    0.000    0.000    0.000    0.000 
#    0.000    0.000    0.000    0.000    0.000    0.000 
#
# Total GULP energy -133643.199471 kJ/mol
# GULP energy per Si atom -5568.466645 kJ/mol
# Density = 2.187472 g / cm^3
# Si number density = 21.924626 Si / 1000 Ang^3
#
#
#
# Elastic Constant Matrix: (Units=GPa)
#
#
# Indices 1 2 3 4 5 6 
#
# 1 22.2764 13.8569 16.2021 0.0000 -0.4222 0.0000
# 2 13.8569 180.4497 58.1174 0.0000 -19.1022 0.0000
# 3 16.2021 58.1174 105.5035 0.0000 -0.6550 0.0000
# 4 0.0000 0.0000 0.0000 2.6529 0.0000 -0.6732
# 5 -0.4222 -19.1022 -0.6550 0.0000 20.5107 0.0000
# 6 0.0000 0.0000 0.0000 -0.6732 0.0000 31.2539
#
#
#
# Elastic Compliance Matrix: (Units=1/GPa)
#
#
# Indices 1 2 3 4 5 6 
#
# 1 0.050970 -0.001800 -0.006841 0.000000 -0.000846 0.000000
# 2 -0.001800 0.007679 -0.003910 0.000000 0.006990 0.000000
# 3 -0.006841 -0.003910 0.012662 0.000000 -0.003378 0.000000
# 4 0.000000 0.000000 0.000000 0.379017 0.000000 0.008164
# 5 -0.000846 0.006990 -0.003378 0.000000 0.055140 0.000000
# 6 0.000000 0.000000 0.000000 0.008164 0.000000 0.032172
#
#
# Mechanical properties :
#
#
# Convention : Reuss Voigt Hill
#
# Bulk Modulus (GPa) = 21.64127 53.84250 37.74188
# Shear Modulus (GPa) = 8.64834 25.55371 17.10102
#
# Velocity S-wave (km/s) = 1.98825 3.41768 2.79586
# Velocity P-wave (km/s) = 3.89397 6.33919 5.26063
#
# Compressibility (1/GPa) = 0.04620801
#
# Stress axis : x y z
#
# Youngs Moduli (GPa) = 19.61939 130.21971 78.97646
#
# Poissons Ratio (x) = 0.23444 0.54028
# Poissons Ratio (y) = 0.03532 0.30883
# Poissons Ratio (z) = 0.13422 0.50920
#
# Static dielectric constant tensor:
#      x y z
#    x 1.841200 0.000000 0.027270 
#    y 0.000000 1.851790 0.000000 
#    z 0.027270 0.000000 1.833840 
# 
# From -- ./inp_files/79754.got.cif
#   From: 2010.05.17/outbox.cif.g08.bks.cpg/sg15_40_cif.got.tgz:79754.got - 2010.06.03 18:47:42.
