data_PCOD9288574
_publ_section_title
;
Structure prediction by ZEFSAII (Michael W. Deem and Ramdas Pophale) SiO2 
 PCOD9288574
Probable space group: C 2/C
;
_chemical_formula_sum "Si O2"
_cell_formula_units_Z 44
_cell_length_a 5.165639
_cell_length_b 17.961691
_cell_length_c 18.085112
_cell_angle_alpha 90.000000
_cell_angle_beta 77.828597
_cell_angle_gamma 90.000000
_cell_volume 1640.282614
_symmetry_space_group_name_H-M "C 2/C"
_symmetry_group_IT_number 15
_symmetry_cell_setting 'monoclinic'
loop_
_space_group_symop_operation_xyz
x,y,z
-x,y,1/2-z
-x,-y,-z
x,-y,1/2+z
1/2+x,1/2+y,z
1/2-x,1/2+y,1/2-z
1/2-x,1/2-y,-z
1/2+x,1/2-y,1/2+z
loop_
_atom_site_type_symbol
_atom_site_label
_atom_site_fract_x
_atom_site_fract_y
_atom_site_fract_z
Si Si1 0.500000 0.206021 0.250000
Si Si2 0.500000 0.500000 0.500000
Si Si3 0.741800 0.925230 0.648109
Si Si4 0.500000 0.461502 0.250000
Si Si5 0.432686 0.163755 0.972270
Si Si6 0.009402 0.757552 0.096043
Si Si7 0.644253 0.961478 0.386886
O O1 0.294441 0.150782 0.304556
O O2 0.403216 0.253265 0.185804
O O3 0.416671 0.429838 0.564478
O O4 0.341434 0.462292 0.442200
O O5 0.462872 0.962453 0.640250
O O6 0.861783 0.985723 0.698117
O O7 0.276987 0.419289 0.310025
O O8 0.181288 0.199112 0.948052
O O9 0.402099 0.078713 0.943511
O O10 0.697480 0.206266 0.924802
O O11 0.478116 0.177038 0.056636
#
# Coordination Sequence:
#
# PCOD9288574 Si02
#       7
#     4   4   8   4   8   8   8
#     4  12  24  47  68 108 147 190 244 318 360 450
#     4  10  24  38  70 108 134 192 230 282 384 448
#     4  11  23  44  65 106 144 181 230 296 378 429
#     4  10  22  39  62 102 135 184 224 284 378 416
#     4  10  24  49  72  99 143 191 251 298 357 450
#     4  10  25  47  71 103 139 197 246 300 366 421
#     4  11  22  43  68 103 137 184 236 301 361 444
#
# _framework density 26.824642999999998
#
# number of rings (size 3 to 8) (size 9 to 14) (size 15 to 20)
#    0.000    1.455    1.818    1.636    5.091    2.909 
#   13.091    0.000    0.000    0.000    0.000    0.000 
#    0.000    0.000    0.000    0.000    0.000    0.000 
#
# Total GULP energy -122538.505787 kJ/mol
# GULP energy per Si atom -5569.932081 kJ/mol
# Density = 2.676359 g / cm^3
# Si number density = 26.824643 Si / 1000 Ang^3
#
#
#
# Elastic Constant Matrix: (Units=GPa)
#
#
# Indices 1 2 3 4 5 6 
#
# 1 101.6377 -7.0339 32.3949 0.0000 14.5724 0.0000
# 2 -7.0339 54.9856 14.4419 0.0000 7.5523 0.0000
# 3 32.3949 14.4419 235.8283 0.0000 1.8316 0.0000
# 4 0.0000 0.0000 0.0000 45.0336 0.0000 -13.0874
# 5 14.5724 7.5523 1.8316 0.0000 45.0704 0.0000
# 6 0.0000 0.0000 0.0000 -13.0874 0.0000 20.8445
#
#
#
# Elastic Compliance Matrix: (Units=1/GPa)
#
#
# Indices 1 2 3 4 5 6 
#
# 1 0.011088 0.002387 -0.001639 0.000000 -0.003919 0.000000
# 2 0.002387 0.019427 -0.001487 0.000000 -0.003967 0.000000
# 3 -0.001639 -0.001487 0.004552 0.000000 0.000594 0.000000
# 4 0.000000 0.000000 0.000000 0.027162 0.000000 0.017054
# 5 -0.003919 -0.003967 0.000594 0.000000 0.024095 0.000000
# 6 0.000000 0.000000 0.000000 0.017054 0.000000 0.058682
#
#
# Mechanical properties :
#
#
# Convention : Reuss Voigt Hill
#
# Bulk Modulus (GPa) = 29.77055 52.45083 41.11069
# Shear Modulus (GPa) = 31.70982 45.69961 38.70471
#
# Velocity S-wave (km/s) = 3.44192 4.13200 3.80265
# Velocity P-wave (km/s) = 5.18826 6.50847 5.88550
#
# Compressibility (1/GPa) = 0.03359024
#
# Stress axis : x y z
#
# Youngs Moduli (GPa) = 90.18553 51.47400 219.68660
#
# Poissons Ratio (x) = -0.12287 0.36004
# Poissons Ratio (y) = -0.21528 0.32663
# Poissons Ratio (z) = 0.14781 0.07653
#
# Static dielectric constant tensor:
#      x y z
#    x 2.371430 0.000000 -0.144810 
#    y 0.000000 2.421970 0.000000 
#    z -0.144810 0.000000 2.025310 
# 
# From -- ./inp_files/184919.got.cif
#   From: 2010.05.17/outbox.cif.g08.bks.cpg/sg15_93_cif.got.tgz:184919.got - 2010.06.03 18:47:42.
