data_PCOD9288970
_publ_section_title
;
Structure prediction by ZEFSAII (Michael W. Deem and Ramdas Pophale) SiO2 
 PCOD9288970
Probable space group: C 2/C
;
_chemical_formula_sum "Si O2"
_cell_formula_units_Z 48
_cell_length_a 13.038669
_cell_length_b 18.089088
_cell_length_c 13.581680
_cell_angle_alpha 90.000000
_cell_angle_beta 135.803110
_cell_angle_gamma 90.000000
_cell_volume 2233.134203
_symmetry_space_group_name_H-M "C 2/C"
_symmetry_group_IT_number 15
_symmetry_cell_setting 'monoclinic'
loop_
_space_group_symop_operation_xyz
x,y,z
-x,y,1/2-z
-x,-y,-z
x,-y,1/2+z
1/2+x,1/2+y,z
1/2-x,1/2+y,1/2-z
1/2-x,1/2-y,-z
1/2+x,1/2-y,1/2+z
loop_
_atom_site_type_symbol
_atom_site_label
_atom_site_fract_x
_atom_site_fract_y
_atom_site_fract_z
Si Si1 0.613277 0.798299 0.619275
Si Si2 0.975129 0.149544 0.847152
Si Si3 0.003788 0.450368 0.868727
Si Si4 0.034347 0.779755 0.660350
Si Si5 0.269957 0.967925 0.320482
Si Si6 0.437887 0.423448 0.914512
O O1 0.552170 0.734635 0.649430
O O2 0.562052 0.876324 0.627163
O O3 0.789449 0.788188 0.733252
O O4 0.537392 0.780045 0.462052
O O5 0.828732 0.102692 0.772520
O O6 0.000000 0.135396 0.750000
O O7 0.099503 0.119688 0.008888
O O8 0.905210 0.518851 0.839397
O O9 0.000000 0.445314 0.750000
O O10 0.164400 0.460544 0.025867
O O11 0.972753 0.860341 0.582000
O O12 0.000000 0.765753 0.750000
O O13 0.175572 0.042272 0.241247
O O14 0.500000 0.500000 0.000000
#
# Coordination Sequence:
#
# PCOD9288970 Si02
#       6
#     8   8   8   8   8   8
#     4  11  23  44  65 101 135 164 230 273 323 408
#     4  10  22  39  69  97 127 172 214 274 334 384
#     4  11  24  42  67  92 133 177 211 273 340 384
#     4  11  23  42  66  93 132 180 216 274 335 390
#     4  10  22  43  59  98 131 164 225 268 316 409
#     4   9  20  40  61  92 131 162 222 269 313 395
#
# _framework density 21.494454999999999
#
# number of rings (size 3 to 8) (size 9 to 14) (size 15 to 20)
#    0.000    1.667    1.667    2.000    2.333    2.667 
#    6.000   10.000    0.000    0.000    0.000    0.000 
#    0.000    0.000    0.000    0.000    0.000    0.000 
#
# Total GULP energy -133825.013029 kJ/mol
# GULP energy per Si atom -5576.042210 kJ/mol
# Density = 2.144553 g / cm^3
# Si number density = 21.494455 Si / 1000 Ang^3
#
#
#
# Elastic Constant Matrix: (Units=GPa)
#
#
# Indices 1 2 3 4 5 6 
#
# 1 53.2440 25.6375 61.5868 0.0000 -22.0701 0.0000
# 2 25.6375 94.3757 48.0116 0.0000 -10.4683 0.0000
# 3 61.5868 48.0116 170.7441 0.0000 -31.2548 0.0000
# 4 0.0000 0.0000 0.0000 29.9561 0.0000 1.4958
# 5 -22.0701 -10.4683 -31.2548 0.0000 37.5865 0.0000
# 6 0.0000 0.0000 0.0000 1.4958 0.0000 13.1697
#
#
#
# Elastic Compliance Matrix: (Units=1/GPa)
#
#
# Indices 1 2 3 4 5 6 
#
# 1 0.037554 -0.003603 -0.010238 0.000000 0.012534 0.000000
# 2 -0.003603 0.012724 -0.002379 0.000000 -0.000550 0.000000
# 3 -0.010238 -0.002379 0.010612 0.000000 0.002150 0.000000
# 4 0.000000 0.000000 0.000000 0.033573 0.000000 -0.003813
# 5 0.012534 -0.000550 0.002150 0.000000 0.035600 0.000000
# 6 0.000000 0.000000 0.000000 -0.003813 0.000000 0.076365
#
#
# Mechanical properties :
#
#
# Convention : Reuss Voigt Hill
#
# Bulk Modulus (GPa) = 35.14928 65.42617 50.28773
# Shear Modulus (GPa) = 20.13277 28.35098 24.24187
#
# Velocity S-wave (km/s) = 3.06379 3.63573 3.36195
# Velocity P-wave (km/s) = 5.37624 6.93754 6.20618
#
# Compressibility (1/GPa) = 0.02845009
#
# Stress axis : x y z
#
# Youngs Moduli (GPa) = 26.62819 78.59196 94.23191
#
# Poissons Ratio (x) = 0.28317 0.96476
# Poissons Ratio (y) = 0.09594 0.22417
# Poissons Ratio (z) = 0.27262 0.18697
#
# Static dielectric constant tensor:
#      x y z
#    x 1.775800 0.000000 0.065820 
#    y 0.000000 1.760700 0.000000 
#    z 0.065820 0.000000 1.891870 
# 
# From -- ./inp_files/89804.got.cif
#   From: 2010.05.17/outbox.cif.g08.bks.cpg/sg15_45_cif.got.tgz:89804.got - 2010.06.03 18:47:42.
