data_PCOD9288965
_publ_section_title
;
Structure prediction by ZEFSAII (Michael W. Deem and Ramdas Pophale) SiO2 
 PCOD9288965
Probable space group: C 2/C
;
_chemical_formula_sum "Si O2"
_cell_formula_units_Z 48
_cell_length_a 22.897505
_cell_length_b 5.875555
_cell_length_c 21.045382
_cell_angle_alpha 90.000000
_cell_angle_beta 131.816189
_cell_angle_gamma 90.000000
_cell_volume 2110.171682
_symmetry_space_group_name_H-M "C 2/C"
_symmetry_group_IT_number 15
_symmetry_cell_setting 'monoclinic'
loop_
_space_group_symop_operation_xyz
x,y,z
-x,y,1/2-z
-x,-y,-z
x,-y,1/2+z
1/2+x,1/2+y,z
1/2-x,1/2+y,1/2-z
1/2-x,1/2-y,-z
1/2+x,1/2-y,1/2+z
loop_
_atom_site_type_symbol
_atom_site_label
_atom_site_fract_x
_atom_site_fract_y
_atom_site_fract_z
Si Si1 0.826212 0.362008 0.289249
Si Si2 0.982724 0.914013 0.916386
Si Si3 0.534415 0.862589 0.334482
Si Si4 0.916019 0.269577 0.784694
Si Si5 0.208483 0.499153 0.484465
Si Si6 0.269346 0.509741 0.161314
O O1 0.894647 0.185583 0.355485
O O2 0.867806 0.595499 0.303250
O O3 0.767042 0.391223 0.303401
O O4 0.786709 0.265960 0.196675
O O5 0.029680 0.741450 0.903475
O O6 0.980213 0.128966 0.868833
O O7 0.000000 0.000000 0.000000
O O8 0.500000 0.708607 0.250000
O O9 0.621757 0.964347 0.393197
O O10 0.464551 0.046534 0.282230
O O11 0.851841 0.110987 0.704057
O O12 0.250000 0.250000 0.500000
O O13 0.208980 0.503592 0.561008
O O14 0.250000 0.750000 0.500000
#
# Coordination Sequence:
#
# PCOD9288965 Si02
#       6
#     8   8   8   8   8   8
#     4  10  22  39  69 104 139 190 234 313 376 451
#     4  10  25  41  70 105 145 187 252 313 382 449
#     4  11  27  48  73 101 150 201 253 309 388 456
#     4  10  23  43  70  99 143 191 243 305 377 457
#     4  12  32  50  77 110 152 200 259 317 374 462
#     4  11  23  42  73 103 147 186 253 305 386 441
#
# _framework density 22.746966
#
# number of rings (size 3 to 8) (size 9 to 14) (size 15 to 20)
#    0.000    1.333    1.667    1.000   16.333    2.000 
#    0.000    0.000    0.000    0.000    0.000    0.000 
#    0.000    0.000    0.000    0.000    0.000    0.000 
#
# Total GULP energy -133646.369142 kJ/mol
# GULP energy per Si atom -5568.598714 kJ/mol
# Density = 2.269519 g / cm^3
# Si number density = 22.746966 Si / 1000 Ang^3
#
#
#
# Elastic Constant Matrix: (Units=GPa)
#
#
# Indices 1 2 3 4 5 6 
#
# 1 100.6856 32.1474 30.0441 0.0001 11.6148 0.0004
# 2 32.1474 78.0794 21.9295 0.0006 2.3410 0.0025
# 3 30.0441 21.9295 147.2703 -0.0002 4.9802 -0.0008
# 4 0.0001 0.0006 -0.0002 12.2158 0.0004 10.7227
# 5 11.6148 2.3410 4.9802 0.0004 24.7753 0.0001
# 6 0.0004 0.0025 -0.0008 10.7227 0.0001 -10.7125
#
#
#
# Elastic Compliance Matrix: (Units=1/GPa)
#
#
# Indices 1 2 3 4 5 6 
#
# 1 0.012462 -0.004501 -0.001700 0.000000 -0.005075 0.000000
# 2 -0.004501 0.015011 -0.001350 -0.000002 0.000963 0.000001
# 3 -0.001700 -0.001350 0.007357 0.000001 -0.000554 0.000000
# 4 0.000000 -0.000002 0.000001 0.043575 -0.000001 0.043617
# 5 -0.005075 0.000963 -0.000554 -0.000001 0.042762 0.000000
# 6 0.000000 0.000001 0.000000 0.043617 0.000000 -0.049690
#
#
# Mechanical properties :
#
#
# Convention : Reuss Voigt Hill
#
# Bulk Modulus (GPa) = 50.69096 54.91970 52.80533
# Shear Modulus (GPa) = 53.67403 21.38335 37.52869
#
# Velocity S-wave (km/s) = 4.86285 3.06935 4.06622
# Velocity P-wave (km/s) = 7.33913 6.06279 6.73128
#
# Compressibility (1/GPa) = 0.01972738
#
# Stress axis : x y z
#
# Youngs Moduli (GPa) = 80.24459 66.61837 135.92814
#
# Poissons Ratio (x) = 0.29986 0.23114
# Poissons Ratio (y) = 0.36119 0.18344
# Poissons Ratio (z) = 0.13645 0.08990
#
# Static dielectric constant tensor:
#      x y z
#    x 1.867270 0.000000 -0.086420 
#    y 0.000000 2.049180 -0.000010 
#    z -0.086420 -0.000010 1.766460 
# 
# From -- ./inp_files/254475.got.cif
#   From: 2010.05.17/outbox.cif.g08.bks.cpg/sg15_128_cif.got.tgz:254475.got - 2010.06.03 18:47:42.
