data_PCOD9288412
_publ_section_title
;
Structure prediction by ZEFSAII (Michael W. Deem and Ramdas Pophale) SiO2 
 PCOD9288412
Probable space group: C 2/C
;
_chemical_formula_sum "Si O2"
_cell_formula_units_Z 64
_cell_length_a 29.339994
_cell_length_b 13.742236
_cell_length_c 11.423802
_cell_angle_alpha 90.000000
_cell_angle_beta 40.621353
_cell_angle_gamma 90.000000
_cell_volume 2998.797878
_symmetry_space_group_name_H-M "C 2/C"
_symmetry_group_IT_number 15
_symmetry_cell_setting 'monoclinic'
loop_
_space_group_symop_operation_xyz
x,y,z
-x,y,1/2-z
-x,-y,-z
x,-y,1/2+z
1/2+x,1/2+y,z
1/2-x,1/2+y,1/2-z
1/2-x,1/2-y,-z
1/2+x,1/2-y,1/2+z
loop_
_atom_site_type_symbol
_atom_site_label
_atom_site_fract_x
_atom_site_fract_y
_atom_site_fract_z
Si Si1 0.877614 0.669009 0.029959
Si Si2 0.174335 0.032353 0.493552
Si Si3 0.071443 0.854904 0.682945
Si Si4 0.775858 0.360961 0.944882
Si Si5 0.492029 0.204005 0.986996
Si Si6 0.686096 0.991069 0.417401
Si Si7 0.070564 0.201710 0.662447
Si Si8 0.438738 0.902218 0.954628
O O1 0.824260 0.645656 0.237160
O O2 0.851325 0.594824 0.980454
O O3 0.879182 0.780404 0.985447
O O4 0.952000 0.662701 0.951943
O O5 0.116802 0.948918 0.623176
O O6 0.235317 0.002123 0.284077
O O7 0.213070 0.065026 0.536631
O O8 0.134471 0.129226 0.530257
O O9 0.044395 0.788371 0.842547
O O10 0.000000 0.878173 0.750000
O O11 0.750000 0.250000 0.000000
O O12 0.814132 0.409526 0.981004
O O13 0.441930 0.255971 0.181829
O O14 0.530105 0.116809 0.979467
O O15 0.633423 0.957040 0.417381
O O16 0.076782 0.294802 0.567053
O O17 0.000000 0.151473 0.750000
O O18 0.500000 0.942547 0.750000
#
# Coordination Sequence:
#
# PCOD9288412 Si02
#       8
#     8   8   8   8   8   8   8   8
#     4  10  22  39  58  86 121 155 198 249 301 359
#     4  11  23  37  58  89 122 157 200 250 303 365
#     4  10  22  39  59  87 122 158 200 252 308 361
#     4  11  22  40  63  84 118 163 203 244 302 366
#     4   9  19  37  61  84 115 159 198 249 310 355
#     4  11  24  38  58  90 121 159 202 247 305 362
#     4   9  19  37  62  89 114 149 203 257 300 353
#     4   9  19  37  62  87 112 147 203 257 295 349
#
# _framework density 21.341884
#
# number of rings (size 3 to 8) (size 9 to 14) (size 15 to 20)
#    0.000    2.250    0.000    4.125    0.000    8.500 
#    0.000    1.250    0.000    0.000    0.000    0.000 
#    0.000    0.000    0.000    0.000    0.000    0.000 
#
# Total GULP energy -178463.362737 kJ/mol
# GULP energy per Si atom -5576.980086 kJ/mol
# Density = 2.129331 g / cm^3
# Si number density = 21.341884 Si / 1000 Ang^3
#
#
#
# Elastic Constant Matrix: (Units=GPa)
#
#
# Indices 1 2 3 4 5 6 
#
# 1 68.4778 40.1655 16.8411 0.0000 -9.8947 0.0000
# 2 40.1655 109.2096 38.7374 0.0000 -11.9776 0.0000
# 3 16.8411 38.7374 79.5436 0.0000 -12.0630 0.0000
# 4 0.0000 0.0000 0.0000 36.0475 0.0000 -26.0962
# 5 -9.8947 -11.9776 -12.0630 0.0000 29.6102 0.0000
# 6 0.0000 0.0000 0.0000 -26.0962 0.0000 14.0097
#
#
#
# Elastic Compliance Matrix: (Units=1/GPa)
#
#
# Indices 1 2 3 4 5 6 
#
# 1 0.019003 -0.006480 -0.000322 0.000000 0.003598 0.000000
# 2 -0.006480 0.013445 -0.004988 0.000000 0.001241 0.000000
# 3 -0.000322 -0.004988 0.015718 0.000000 0.004278 0.000000
# 4 0.000000 0.000000 0.000000 -0.079602 0.000000 -0.148277
# 5 0.003598 0.001241 0.004278 0.000000 0.037219 0.000000
# 6 0.000000 0.000000 0.000000 -0.148277 0.000000 -0.204820
#
#
# Mechanical properties :
#
#
# Convention : Reuss Voigt Hill
#
# Bulk Modulus (GPa) = 40.67244 49.85765 45.26504
# Shear Modulus (GPa) = -29.89334 26.69927 -1.59703
#
# Velocity S-wave (km/s) = -3.74664 3.54082 -0.86599
# Velocity P-wave (km/s) = 0.61850 6.33472 4.50062
#
# Compressibility (1/GPa) = 0.02458668
#
# Stress axis : x y z
#
# Youngs Moduli (GPa) = 52.62234 74.37529 63.62299
#
# Poissons Ratio (x) = 0.48198 0.02048
# Poissons Ratio (y) = 0.34101 0.31732
# Poissons Ratio (z) = 0.01694 0.37095
#
# Static dielectric constant tensor:
#      x y z
#    x 1.853880 0.000000 -0.022340 
#    y 0.000000 1.829390 0.000000 
#    z -0.022340 0.000000 1.838260 
# 
# From -- ./inp_files/126878.got.cif
#   From: 2010.05.17/outbox.cif.g08.bks.cpg/sg15_64_cif.got.tgz:126878.got - 2010.06.03 18:47:42.
