data_PCOD9288660
_publ_section_title
;
Structure prediction by ZEFSAII (Michael W. Deem and Ramdas Pophale) SiO2 
 PCOD9288660
Probable space group: C 2/C
;
_chemical_formula_sum "Si O2"
_cell_formula_units_Z 60
_cell_length_a 32.619205
_cell_length_b 5.233324
_cell_length_c 16.593632
_cell_angle_alpha 90.000000
_cell_angle_beta 95.470986
_cell_angle_gamma 90.000000
_cell_volume 2819.743131
_symmetry_space_group_name_H-M "C 2/C"
_symmetry_group_IT_number 15
_symmetry_cell_setting 'monoclinic'
loop_
_space_group_symop_operation_xyz
x,y,z
-x,y,1/2-z
-x,-y,-z
x,-y,1/2+z
1/2+x,1/2+y,z
1/2-x,1/2+y,1/2-z
1/2-x,1/2-y,-z
1/2+x,1/2-y,1/2+z
loop_
_atom_site_type_symbol
_atom_site_label
_atom_site_fract_x
_atom_site_fract_y
_atom_site_fract_z
Si Si1 0.622630 0.763029 0.568906
Si Si2 0.201209 0.679987 0.190174
Si Si3 0.000000 0.210850 0.750000
Si Si4 0.204054 0.822208 0.800761
Si Si5 0.076827 0.562639 0.339268
Si Si6 0.448213 0.084553 0.986430
Si Si7 0.626220 0.426068 0.886152
Si Si8 0.540875 0.587497 0.603101
O O1 0.666614 0.809216 0.615447
O O2 0.622226 0.620232 0.481932
O O3 0.590519 0.623814 0.624295
O O4 0.599740 0.031682 0.547470
O O5 0.195872 0.439456 0.249763
O O6 0.247914 0.671508 0.165898
O O7 0.197627 0.940780 0.239538
O O8 0.958611 0.376073 0.731277
O O9 0.988428 0.048689 0.826400
O O10 0.172637 0.869564 0.867420
O O11 0.052855 0.553505 0.419158
O O12 0.099344 0.292853 0.336317
O O13 0.108796 0.798738 0.355381
O O14 0.462088 0.353145 0.957047
O O15 0.530373 0.148593 0.055906
#
# Coordination Sequence:
#
# PCOD9288660 Si02
#       8
#     8   8   4   8   8   8   8   8
#     4   9  22  39  66  88 119 163 204 243 297 362
#     4  10  22  39  63  90 132 157 205 243 303 354
#     4  12  30  40  64  96 122 152 216 246 320 348
#     4  10  23  39  60  96 124 167 193 253 299 361
#     4  11  24  44  60  92 121 161 197 264 294 376
#     4   9  20  42  64  81 120 161 201 232 318 345
#     4  11  23  41  67  88 124 159 209 244 310 350
#     4  10  23  41  60  91 115 159 196 256 293 368
#
# _framework density 21.278532999999999
#
# number of rings (size 3 to 8) (size 9 to 14) (size 15 to 20)
#    0.800    1.067    1.333    0.800    5.600    4.800 
#    0.000    0.000    0.000    7.200    0.000    0.000 
#    0.000    0.000    0.000    0.000    0.000    0.000 
#
# Total GULP energy -167503.191159 kJ/mol
# GULP energy per Si atom -5583.439705 kJ/mol
# Density = 2.123010 g / cm^3
# Si number density = 21.278533 Si / 1000 Ang^3
#
#
#
# Elastic Constant Matrix: (Units=GPa)
#
#
# Indices 1 2 3 4 5 6 
#
# 1 102.1612 -0.4624 27.0646 0.0000 5.2682 0.0000
# 2 -0.4624 89.3403 -7.0540 0.0000 3.2554 0.0000
# 3 27.0646 -7.0540 28.0788 0.0000 3.6890 0.0000
# 4 0.0000 0.0000 0.0000 5.9782 0.0000 0.8102
# 5 5.2682 3.2554 3.6890 0.0000 50.5160 0.0000
# 6 0.0000 0.0000 0.0000 0.8102 0.0000 14.3663
#
#
#
# Elastic Compliance Matrix: (Units=1/GPa)
#
#
# Indices 1 2 3 4 5 6 
#
# 1 0.013232 -0.000940 -0.012941 0.000000 -0.000374 0.000000
# 2 -0.000940 0.011532 0.003925 0.000000 -0.000932 0.000000
# 3 -0.012941 0.003925 0.049403 0.000000 -0.002511 0.000000
# 4 0.000000 0.000000 0.000000 0.168564 0.000000 -0.009506
# 5 -0.000374 -0.000932 -0.002511 0.000000 0.020078 0.000000
# 6 0.000000 0.000000 0.000000 -0.009506 0.000000 0.070144
#
#
# Mechanical properties :
#
#
# Convention : Reuss Voigt Hill
#
# Bulk Modulus (GPa) = 18.43079 28.74186 23.58633
# Shear Modulus (GPa) = 13.47895 27.50755 20.49325
#
# Velocity S-wave (km/s) = 2.51958 3.59937 3.10674
# Velocity P-wave (km/s) = 4.14064 5.55074 4.89671
#
# Compressibility (1/GPa) = 0.05425703
#
# Stress axis : x y z
#
# Youngs Moduli (GPa) = 75.57577 86.71392 20.24159
#
# Poissons Ratio (x) = 0.08148 0.26194
# Poissons Ratio (y) = 0.07101 -0.07945
# Poissons Ratio (z) = 0.97800 -0.34037
#
# Static dielectric constant tensor:
#      x y z
#    x 1.847990 0.000000 0.016850 
#    y 0.000000 1.764940 0.000000 
#    z 0.016850 0.000000 1.781950 
# 
# From -- ./inp_files/223664.got.cif
#   From: 2010.05.17/outbox.cif.g08.bks.cpg/sg15_112_cif.got.tgz:223664.got - 2010.06.03 18:47:42.
