data_PCOD9288146
_publ_section_title
;
Structure prediction by ZEFSAII (Michael W. Deem and Ramdas Pophale) SiO2 
 PCOD9288146
Probable space group: C 2/C
;
_chemical_formula_sum "Si O2"
_cell_formula_units_Z 52
_cell_length_a 8.421432
_cell_length_b 30.273972
_cell_length_c 11.124133
_cell_angle_alpha 90.000000
_cell_angle_beta 59.492884
_cell_angle_gamma 90.000000
_cell_volume 2443.487579
_symmetry_space_group_name_H-M "C 2/C"
_symmetry_group_IT_number 15
_symmetry_cell_setting 'monoclinic'
loop_
_space_group_symop_operation_xyz
x,y,z
-x,y,1/2-z
-x,-y,-z
x,-y,1/2+z
1/2+x,1/2+y,z
1/2-x,1/2+y,1/2-z
1/2-x,1/2-y,-z
1/2+x,1/2-y,1/2+z
loop_
_atom_site_type_symbol
_atom_site_label
_atom_site_fract_x
_atom_site_fract_y
_atom_site_fract_z
Si Si1 0.473360 0.878728 0.618296
Si Si2 0.597752 0.348674 0.819299
Si Si3 0.711620 0.002218 0.656443
Si Si4 0.464391 0.559658 0.404026
Si Si5 0.000000 0.857849 0.250000
Si Si6 0.853624 0.413691 0.190447
Si Si7 0.253089 0.801849 0.980152
O O1 0.500000 0.890404 0.750000
O O2 0.256294 0.876539 0.691833
O O3 0.553694 0.906695 0.476664
O O4 0.560173 0.829565 0.569179
O O5 0.500000 0.323630 0.750000
O O6 0.477640 0.387793 0.925363
O O7 0.692005 0.315000 0.870837
O O8 0.500000 0.987069 0.750000
O O9 0.718089 0.036468 0.765038
O O10 0.781949 0.034587 0.521462
O O11 0.859137 0.963262 0.600205
O O12 0.500000 0.551710 0.250000
O O13 0.164824 0.885134 0.251806
O O14 0.896837 0.826182 0.381545
O O15 0.000000 0.405482 0.250000
O O16 0.250000 0.750000 0.000000
#
# Coordination Sequence:
#
# PCOD9288146 Si02
#       7
#     8   8   8   8   4   8   8
#     4   9  21  41  61  96 127 174 219 277 335 421
#     4  10  22  39  67  90 128 171 221 269 342 413
#     4  10  23  40  62  94 133 173 229 292 333 398
#     4  10  23  41  60  93 132 177 223 280 344 409
#     4  10  22  38  64  92 130 178 212 282 344 404
#     4  10  22  39  68  96 132 176 234 282 344 413
#     4  10  22  40  64  90 126 166 216 276 340 412
#
# _framework density 21.281057000000001
#
# number of rings (size 3 to 8) (size 9 to 14) (size 15 to 20)
#    0.000    2.154    0.000    0.923   15.077    2.462 
#    5.538    3.846    0.000    0.000    0.000    0.000 
#    0.000    0.000    0.000    0.000    0.000    0.000 
#
# Total GULP energy -144793.796821 kJ/mol
# GULP energy per Si atom -5568.992185 kJ/mol
# Density = 2.123262 g / cm^3
# Si number density = 21.281057 Si / 1000 Ang^3
#
#
#
# Elastic Constant Matrix: (Units=GPa)
#
#
# Indices 1 2 3 4 5 6 
#
# 1 88.0702 22.1797 23.6976 0.0000 -8.7175 0.0000
# 2 22.1797 109.3805 10.5990 0.0000 7.9333 0.0000
# 3 23.6976 10.5990 123.3056 0.0000 -5.0959 0.0000
# 4 0.0000 0.0000 0.0000 -2.6201 0.0000 17.5791
# 5 -8.7175 7.9333 -5.0959 0.0000 25.8434 0.0000
# 6 0.0000 0.0000 0.0000 17.5791 0.0000 16.5984
#
#
#
# Elastic Compliance Matrix: (Units=1/GPa)
#
#
# Indices 1 2 3 4 5 6 
#
# 1 0.013103 -0.002809 -0.002075 0.000000 0.004873 0.000000
# 2 -0.002809 0.010060 -0.000496 0.000000 -0.004134 0.000000
# 3 -0.002075 -0.000496 0.008599 0.000000 0.001148 0.000000
# 4 0.000000 0.000000 0.000000 -0.047086 0.000000 0.049868
# 5 0.004873 -0.004134 0.001148 0.000000 0.041834 0.000000
# 6 0.000000 0.000000 0.000000 0.049868 0.000000 0.007433
#
#
# Mechanical properties :
#
#
# Convention : Reuss Voigt Hill
#
# Bulk Modulus (GPa) = 47.61663 48.18987 47.90325
# Shear Modulus (GPa) = 96.70646 25.58302 61.14474
#
# Velocity S-wave (km/s) = 6.74842 3.47096 5.36604
# Velocity P-wave (km/s) = 9.11840 6.22552 7.80712
#
# Compressibility (1/GPa) = 0.02100107
#
# Stress axis : x y z
#
# Youngs Moduli (GPa) = 76.31942 99.40483 116.29519
#
# Poissons Ratio (x) = 0.27925 0.24135
# Poissons Ratio (y) = 0.21440 0.05764
# Poissons Ratio (z) = 0.15839 0.04927
#
# Static dielectric constant tensor:
#      x y z
#    x 1.935040 0.000000 0.120570 
#    y 0.000000 1.763580 0.000000 
#    z 0.120570 0.000000 2.181020 
# 
# From -- ./inp_files/82096.got.cif
#   From: 2010.05.17/outbox.cif.g08.bks.cpg/sg15_42_cif.got.tgz:82096.got - 2010.06.03 18:47:42.
