data_PCOD9288692
_publ_section_title
;
Structure prediction by ZEFSAII (Michael W. Deem and Ramdas Pophale) SiO2 
 PCOD9288692
Probable space group: C 2/C
;
_chemical_formula_sum "Si O2"
_cell_formula_units_Z 56
_cell_length_a 15.309990
_cell_length_b 13.859149
_cell_length_c 17.342735
_cell_angle_alpha 90.000000
_cell_angle_beta 128.030823
_cell_angle_gamma 90.000000
_cell_volume 2898.535119
_symmetry_space_group_name_H-M "C 2/C"
_symmetry_group_IT_number 15
_symmetry_cell_setting 'monoclinic'
loop_
_space_group_symop_operation_xyz
x,y,z
-x,y,1/2-z
-x,-y,-z
x,-y,1/2+z
1/2+x,1/2+y,z
1/2-x,1/2+y,1/2-z
1/2-x,1/2-y,-z
1/2+x,1/2-y,1/2+z
loop_
_atom_site_type_symbol
_atom_site_label
_atom_site_fract_x
_atom_site_fract_y
_atom_site_fract_z
Si Si1 0.325947 0.899096 0.901700
Si Si2 0.713658 0.417268 0.285519
Si Si3 0.000000 0.423566 0.250000
Si Si4 0.524406 0.793139 0.415961
Si Si5 0.756076 0.496978 0.642660
Si Si6 0.783480 0.203528 0.305745
Si Si7 0.846324 0.110424 0.053348
Si Si8 0.000000 0.995973 0.750000
O O1 0.274961 0.836687 0.803861
O O2 0.247665 0.884679 0.933077
O O3 0.310287 0.011312 0.870240
O O4 0.444583 0.860997 0.994623
O O5 0.713318 0.445088 0.194887
O O6 0.730805 0.304078 0.303385
O O7 0.602105 0.445987 0.269448
O O8 0.018782 0.356644 0.335281
O O9 0.112152 0.484018 0.295820
O O10 0.410482 0.734253 0.361445
O O11 0.620393 0.713433 0.461548
O O12 0.729650 0.384983 0.642584
O O13 0.694485 0.539973 0.535555
O O14 0.952503 0.069047 0.155650
#
# Coordination Sequence:
#
# PCOD9288692 Si02
#       8
#     8   8   4   8   8   8   8   4
#     4  10  22  39  63  94 127 166 211 268 325 382
#     4  10  22  43  62  91 132 169 218 266 316 397
#     4  12  23  41  64 104 132 166 211 283 328 372
#     4  12  22  36  68  93 126 170 210 266 335 373
#     4  11  24  41  67  96 136 163 216 275 324 385
#     4  11  24  42  61  95 130 172 220 263 314 398
#     4  11  21  39  64 100 126 160 216 269 331 381
#     4  10  23  41  64  86 134 174 209 269 328 380
#
# _framework density 19.320104000000001
#
# number of rings (size 3 to 8) (size 9 to 14) (size 15 to 20)
#    0.000    1.143    2.857    5.143    0.000    4.571 
#    0.000    2.857    0.000    0.000    0.000    0.000 
#    0.000    0.000    0.000    0.000    0.000    0.000 
#
# Total GULP energy -156402.278729 kJ/mol
# GULP energy per Si atom -5585.795669 kJ/mol
# Density = 1.927613 g / cm^3
# Si number density = 19.320104 Si / 1000 Ang^3
#
#
#
# Elastic Constant Matrix: (Units=GPa)
#
#
# Indices 1 2 3 4 5 6 
#
# 1 73.1759 32.5607 21.2062 0.0000 0.9505 0.0000
# 2 32.5607 123.4753 45.2849 0.0000 0.0694 0.0000
# 3 21.2062 45.2849 123.0291 0.0000 -6.7134 0.0000
# 4 0.0000 0.0000 0.0000 12.9440 0.0000 -1.2795
# 5 0.9505 0.0694 -6.7134 0.0000 18.4461 0.0000
# 6 0.0000 0.0000 0.0000 -1.2795 0.0000 35.3794
#
#
#
# Elastic Compliance Matrix: (Units=1/GPa)
#
#
# Indices 1 2 3 4 5 6 
#
# 1 0.015710 -0.003610 -0.001451 0.000000 -0.001324 0.000000
# 2 -0.003610 0.010223 -0.003196 0.000000 -0.001016 0.000000
# 3 -0.001451 -0.003196 0.009753 0.000000 0.003636 0.000000
# 4 0.000000 0.000000 0.000000 0.077533 0.000000 0.002804
# 5 -0.001324 -0.001016 0.003636 0.000000 0.055607 0.000000
# 6 0.000000 0.000000 0.000000 0.002804 0.000000 0.028366
#
#
# Mechanical properties :
#
#
# Convention : Reuss Voigt Hill
#
# Bulk Modulus (GPa) = 52.16034 57.53154 54.84594
# Shear Modulus (GPa) = 22.71704 28.06245 25.38974
#
# Velocity S-wave (km/s) = 3.43275 3.81530 3.62907
# Velocity P-wave (km/s) = 6.53974 7.01794 6.78306
#
# Compressibility (1/GPa) = 0.01917165
#
# Stress axis : x y z
#
# Youngs Moduli (GPa) = 63.65498 97.81397 102.52940
#
# Poissons Ratio (x) = 0.35307 0.14882
# Poissons Ratio (y) = 0.22977 0.32772
# Poissons Ratio (z) = 0.09239 0.31265
#
# Static dielectric constant tensor:
#      x y z
#    x 1.679450 0.000000 0.046650 
#    y 0.000000 1.665980 0.000000 
#    z 0.046650 0.000000 1.744000 
# 
# From -- ./inp_files/178381.got.cif
#   From: 2010.05.17/outbox.cif.g08.bks.cpg/sg15_90_cif.got.tgz:178381.got - 2010.06.03 18:47:42.
