data_PCOD9288102
_publ_section_title
;
Structure prediction by ZEFSAII (Michael W. Deem and Ramdas Pophale) SiO2 
 PCOD9288102
Probable space group: C 2/C
;
_chemical_formula_sum "Si O2"
_cell_formula_units_Z 40
_cell_length_a 10.577951
_cell_length_b 19.057406
_cell_length_c 10.462790
_cell_angle_alpha 90.000000
_cell_angle_beta 51.691969
_cell_angle_gamma 90.000000
_cell_volume 1655.048335
_symmetry_space_group_name_H-M "C 2/C"
_symmetry_group_IT_number 15
_symmetry_cell_setting 'monoclinic'
loop_
_space_group_symop_operation_xyz
x,y,z
-x,y,1/2-z
-x,-y,-z
x,-y,1/2+z
1/2+x,1/2+y,z
1/2-x,1/2+y,1/2-z
1/2-x,1/2-y,-z
1/2+x,1/2-y,1/2+z
loop_
_atom_site_type_symbol
_atom_site_label
_atom_site_fract_x
_atom_site_fract_y
_atom_site_fract_z
Si Si1 0.320360 0.769814 0.651539
Si Si2 0.580380 0.150174 0.816886
Si Si3 0.364286 0.309515 0.490639
Si Si4 0.314818 0.012846 0.644459
Si Si5 0.351485 0.529631 0.006770
O O1 0.434486 0.818485 0.492921
O O2 0.189071 0.712408 0.687275
O O3 0.458050 0.722039 0.628967
O O4 0.210941 0.812230 0.818934
O O5 0.500000 0.110042 0.750000
O O6 0.691002 0.096675 0.824644
O O7 0.250000 0.250000 0.500000
O O8 0.373840 0.390421 0.449832
O O9 0.203507 0.992735 0.591920
O O10 0.500000 0.000000 0.500000
O O11 0.281603 0.975118 0.799318
O O12 0.500000 0.500000 0.000000
#
# Coordination Sequence:
#
# PCOD9288102 Si02
#       5
#     8   8   8   8   8
#     4  10  22  38  63  97 132 178 232 291 351 420
#     4  11  22  41  65  96 138 184 235 291 358 428
#     4  11  23  41  68  99 135 180 235 295 355 420
#     4  12  26  44  68  99 137 185 235 292 355 429
#     4  12  26  46  71 103 142 187 237 295 360 429
#
# _framework density 24.168479000000001
#
# number of rings (size 3 to 8) (size 9 to 14) (size 15 to 20)
#    0.000    0.800    0.000    8.400    0.000    3.200 
#    0.000   10.000    0.000    0.000    0.000    0.000 
#    0.000    0.000    0.000    0.000    0.000    0.000 
#
# Total GULP energy -111564.106991 kJ/mol
# GULP energy per Si atom -5578.205350 kJ/mol
# Density = 2.411347 g / cm^3
# Si number density = 24.168479 Si / 1000 Ang^3
#
#
#
# Elastic Constant Matrix: (Units=GPa)
#
#
# Indices 1 2 3 4 5 6 
#
# 1 136.9263 20.2215 14.8565 0.0000 19.3719 0.0000
# 2 20.2215 91.3695 5.5675 0.0000 11.4798 0.0000
# 3 14.8565 5.5675 84.5190 0.0000 -5.9190 0.0000
# 4 0.0000 0.0000 0.0000 36.7002 0.0000 -1.2613
# 5 19.3719 11.4798 -5.9190 0.0000 41.2982 0.0000
# 6 0.0000 0.0000 0.0000 -1.2613 0.0000 34.6023
#
#
#
# Elastic Compliance Matrix: (Units=1/GPa)
#
#
# Indices 1 2 3 4 5 6 
#
# 1 0.008190 -0.001246 -0.001619 0.000000 -0.003728 0.000000
# 2 -0.001246 0.011611 -0.000738 0.000000 -0.002749 0.000000
# 3 -0.001619 -0.000738 0.012356 0.000000 0.002735 0.000000
# 4 0.000000 0.000000 0.000000 0.027282 0.000000 0.000994
# 5 -0.003728 -0.002749 0.002735 0.000000 0.027119 0.000000
# 6 0.000000 0.000000 0.000000 0.000994 0.000000 0.028936
#
#
# Mechanical properties :
#
#
# Convention : Reuss Voigt Hill
#
# Bulk Modulus (GPa) = 40.07721 43.78954 41.93337
# Shear Modulus (GPa) = 38.16310 40.66476 39.41393
#
# Velocity S-wave (km/s) = 3.97803 4.10634 4.04270
# Velocity P-wave (km/s) = 6.14150 6.37499 6.25934
#
# Compressibility (1/GPa) = 0.02495184
#
# Stress axis : x y z
#
# Youngs Moduli (GPa) = 122.09808 86.12794 80.92985
#
# Poissons Ratio (x) = 0.10729 0.13100
# Poissons Ratio (y) = 0.15209 0.05976
# Poissons Ratio (z) = 0.19763 0.06359
#
# Static dielectric constant tensor:
#      x y z
#    x 1.991030 0.000000 0.032830 
#    y 0.000000 2.120950 0.000000 
#    z 0.032830 0.000000 2.025240 
# 
# From -- ./inp_files/89298.got.cif
#   From: 2010.05.17/outbox.cif.g08.bks.cpg/sg15_45_cif.got.tgz:89298.got - 2010.06.03 18:47:42.
