data_PCOD9288529
_publ_section_title
;
Structure prediction by ZEFSAII (Michael W. Deem and Ramdas Pophale) SiO2 
 PCOD9288529
Probable space group: C 2/C
;
_chemical_formula_sum "Si O2"
_cell_formula_units_Z 52
_cell_length_a 11.801915
_cell_length_b 23.180829
_cell_length_c 10.489139
_cell_angle_alpha 90.000000
_cell_angle_beta 73.212473
_cell_angle_gamma 90.000000
_cell_volume 2747.304033
_symmetry_space_group_name_H-M "C 2/C"
_symmetry_group_IT_number 15
_symmetry_cell_setting 'monoclinic'
loop_
_space_group_symop_operation_xyz
x,y,z
-x,y,1/2-z
-x,-y,-z
x,-y,1/2+z
1/2+x,1/2+y,z
1/2-x,1/2+y,1/2-z
1/2-x,1/2-y,-z
1/2+x,1/2-y,1/2+z
loop_
_atom_site_type_symbol
_atom_site_label
_atom_site_fract_x
_atom_site_fract_y
_atom_site_fract_z
Si Si1 0.370030 0.727364 0.525018
Si Si2 0.000000 0.811513 0.750000
Si Si3 0.214600 0.317248 0.487393
Si Si4 0.125639 0.871086 0.281843
Si Si5 0.582467 0.499043 0.846778
Si Si6 0.222234 0.883979 0.771712
Si Si7 0.546583 0.835841 0.875400
O O1 0.250000 0.750000 0.500000
O O2 0.469124 0.725964 0.383496
O O3 0.368461 0.665026 0.589914
O O4 0.399393 0.772197 0.627105
O O5 0.885626 0.850697 0.760713
O O6 0.250000 0.250000 0.500000
O O7 0.283172 0.343082 0.345511
O O8 0.252853 0.350890 0.603573
O O9 0.075850 0.331468 0.508073
O O10 0.140655 0.938331 0.308224
O O11 0.000000 0.865550 0.250000
O O12 0.500000 0.488907 0.750000
O O13 0.677987 0.447972 0.818070
O O14 0.500000 0.500000 0.000000
O O15 0.341110 0.878295 0.646708
O O16 0.500000 0.846867 0.750000
#
# Coordination Sequence:
#
# PCOD9288529 Si02
#       7
#     8   4   8   8   8   8   8
#     4  12  24  37  57  92 127 161 205 259 328 384
#     4  12  22  36  58  88 126 162 200 256 328 378
#     4  11  22  40  67  89 127 169 221 264 318 391
#     4  11  23  41  62  96 122 165 219 270 318 391
#     4  11  23  40  66  94 130 166 217 281 332 387
#     4  11  21  39  62  93 121 166 211 264 326 385
#     4  10  22  39  61  88 122 170 210 253 315 394
#
# _framework density 18.927648000000001
#
# number of rings (size 3 to 8) (size 9 to 14) (size 15 to 20)
#    0.000    0.923    2.308    7.846    2.154    0.000 
#    0.000    0.769    0.000    3.692    0.000    0.000 
#    0.000    0.000    0.000    0.000    0.000    0.000 
#
# Total GULP energy -145082.477213 kJ/mol
# GULP energy per Si atom -5580.095277 kJ/mol
# Density = 1.888457 g / cm^3
# Si number density = 18.927648 Si / 1000 Ang^3
#
#
#
# Elastic Constant Matrix: (Units=GPa)
#
#
# Indices 1 2 3 4 5 6 
#
# 1 114.8150 49.7129 29.3361 0.0000 -20.3182 0.0000
# 2 49.7129 149.3476 44.5041 0.0000 -17.5986 0.0000
# 3 29.3361 44.5041 100.4939 0.0000 -26.8128 0.0000
# 4 0.0000 0.0000 0.0000 23.9302 0.0000 0.3512
# 5 -20.3182 -17.5986 -26.8128 0.0000 41.3526 0.0000
# 6 0.0000 0.0000 0.0000 0.3512 0.0000 27.1804
#
#
#
# Elastic Compliance Matrix: (Units=1/GPa)
#
#
# Indices 1 2 3 4 5 6 
#
# 1 0.010826 -0.002914 -0.000945 0.000000 0.003467 0.000000
# 2 -0.002914 0.008555 -0.002840 0.000000 0.000368 0.000000
# 3 -0.000945 -0.002840 0.013347 0.000000 0.006981 0.000000
# 4 0.000000 0.000000 0.000000 0.041796 0.000000 -0.000540
# 5 0.003467 0.000368 0.006981 0.000000 0.030569 0.000000
# 6 0.000000 0.000000 0.000000 -0.000540 0.000000 0.036798
#
#
# Mechanical properties :
#
#
# Convention : Reuss Voigt Hill
#
# Bulk Modulus (GPa) = 51.73038 67.97363 59.85201
# Shear Modulus (GPa) = 30.91521 34.56620 32.74071
#
# Velocity S-wave (km/s) = 4.04584 4.27807 4.16358
# Velocity P-wave (km/s) = 7.01534 7.77129 7.40297
#
# Compressibility (1/GPa) = 0.01933100
#
# Stress axis : x y z
#
# Youngs Moduli (GPa) = 92.36923 116.88709 74.92244
#
# Poissons Ratio (x) = 0.34055 0.07082
# Poissons Ratio (y) = 0.26912 0.21278
# Poissons Ratio (z) = 0.08731 0.33197
#
# Static dielectric constant tensor:
#      x y z
#    x 1.704150 0.000000 -0.029440 
#    y 0.000000 1.645900 0.000000 
#    z -0.029440 0.000000 1.731830 
# 
# From -- ./inp_files/90297.got.cif
#   From: 2010.05.17/outbox.cif.g08.bks.cpg/sg15_46_cif.got.tgz:90297.got - 2010.06.03 18:47:42.
