data_PCOD9288256
_publ_section_title
;
Structure prediction by ZEFSAII (Michael W. Deem and Ramdas Pophale) SiO2 
 PCOD9288256
Probable space group: C 2/C
;
_chemical_formula_sum "Si O2"
_cell_formula_units_Z 64
_cell_length_a 17.156956
_cell_length_b 11.771684
_cell_length_c 29.198617
_cell_angle_alpha 90.000000
_cell_angle_beta 31.237440
_cell_angle_gamma 90.000000
_cell_volume 3058.171006
_symmetry_space_group_name_H-M "C 2/C"
_symmetry_group_IT_number 15
_symmetry_cell_setting 'monoclinic'
loop_
_space_group_symop_operation_xyz
x,y,z
-x,y,1/2-z
-x,-y,-z
x,-y,1/2+z
1/2+x,1/2+y,z
1/2-x,1/2+y,1/2-z
1/2-x,1/2-y,-z
1/2+x,1/2-y,1/2+z
loop_
_atom_site_type_symbol
_atom_site_label
_atom_site_fract_x
_atom_site_fract_y
_atom_site_fract_z
Si Si1 0.239746 0.484474 0.463518
Si Si2 0.852359 0.561955 0.894212
Si Si3 0.867590 0.802748 0.854908
Si Si4 0.670493 0.209501 0.372538
Si Si5 0.109283 0.456288 0.384456
Si Si6 0.169589 0.960327 0.904456
Si Si7 0.336311 0.789017 0.057561
Si Si8 0.687046 0.922215 0.244742
O O1 0.235774 0.500852 0.520260
O O2 0.355592 0.575017 0.384287
O O3 0.260446 0.359446 0.431152
O O4 0.069025 0.521080 0.533938
O O5 0.866556 0.698943 0.891040
O O6 0.778274 0.533312 0.882996
O O7 0.026141 0.528223 0.809887
O O8 0.714650 0.784049 0.903284
O O9 0.000000 0.796140 0.750000
O O10 0.496346 0.237232 0.453434
O O11 0.773265 0.298662 0.294898
O O12 0.687325 0.078250 0.351754
O O13 0.135494 0.377081 0.414898
O O14 0.178833 0.409546 0.302982
O O15 0.208156 0.830907 0.898331
O O16 0.198004 0.992097 0.837351
O O17 0.000000 0.000000 0.000000
#
# Coordination Sequence:
#
# PCOD9288256 Si02
#       8
#     8   8   8   8   8   8   8   8
#     4  10  22  40  62  91 120 163 206 254 317 368
#     4  11  23  41  63  89 124 167 212 255 309 370
#     4  12  19  36  60  90 125 157 202 263 309 362
#     4  11  19  40  64  89 123 159 206 256 310 363
#     4  10  22  38  66  91 121 161 205 257 312 373
#     4  12  24  41  62  90 125 165 207 259 309 372
#     4  11  21  41  65  86 125 166 204 254 314 375
#     4  11  23  41  63  92 123 165 211 258 310 366
#
# _framework density 20.927541000000002
#
# number of rings (size 3 to 8) (size 9 to 14) (size 15 to 20)
#    0.000    1.000    6.250    1.500    1.750    0.500 
#    2.250    1.250    0.000    0.000    0.000    0.000 
#    0.000    0.000    0.000    0.000    0.000    0.000 
#
# Total GULP energy -178536.700082 kJ/mol
# GULP energy per Si atom -5579.271878 kJ/mol
# Density = 2.087991 g / cm^3
# Si number density = 20.927541 Si / 1000 Ang^3
#
#
#
# Elastic Constant Matrix: (Units=GPa)
#
#
# Indices 1 2 3 4 5 6 
#
# 1 32.6793 -3.8935 13.1816 0.0000 18.7654 -0.0001
# 2 -3.8935 106.6611 20.8816 0.0000 12.3209 0.0000
# 3 13.1816 20.8816 67.3534 -0.0004 23.6426 -0.0003
# 4 0.0000 0.0000 -0.0004 25.5179 0.0000 0.1039
# 5 18.7654 12.3209 23.6426 0.0000 26.6429 0.0001
# 6 -0.0001 0.0000 -0.0003 0.1039 0.0001 20.4653
#
#
#
# Elastic Compliance Matrix: (Units=1/GPa)
#
#
# Indices 1 2 3 4 5 6 
#
# 1 0.056220 0.006728 0.002764 0.000000 -0.045162 0.000001
# 2 0.006728 0.010924 -0.001840 0.000000 -0.008158 0.000000
# 3 0.002764 -0.001840 0.022166 0.000000 -0.020766 0.000001
# 4 0.000000 0.000000 0.000000 0.039189 -0.000001 -0.000199
# 5 -0.045162 -0.008158 -0.020766 -0.000001 0.091542 -0.000001
# 6 0.000001 0.000000 0.000001 -0.000199 -0.000001 0.048864
#
#
# Mechanical properties :
#
#
# Convention : Reuss Voigt Hill
#
# Bulk Modulus (GPa) = 9.55895 29.67036 19.61466
# Shear Modulus (GPa) = 17.33275 26.29350 21.81313
#
# Velocity S-wave (km/s) = 2.88102 3.54843 3.23200
# Velocity P-wave (km/s) = 3.95532 5.56749 4.82915
#
# Compressibility (1/GPa) = 0.10461397
#
# Stress axis : x y z
#
# Youngs Moduli (GPa) = 17.78719 91.54488 45.11477
#
# Poissons Ratio (x) = -0.61591 -0.12470
# Poissons Ratio (y) = -0.11967 0.08300
# Poissons Ratio (z) = -0.04917 0.16843
#
# Static dielectric constant tensor:
#      x y z
#    x 1.766660 0.000000 -0.018540 
#    y 0.000000 1.792790 0.000000 
#    z -0.018540 0.000000 1.758320 
# 
# From -- ./inp_files/316195.got.cif
#   From: 2010.05.17/outbox.cif.g08.bks.cpg/sg15_159_cif.got.tgz:316195.got - 2010.06.03 18:47:42.
