data_PCOD9288734
_publ_section_title
;
Structure prediction by ZEFSAII (Michael W. Deem and Ramdas Pophale) SiO2 
 PCOD9288734
Probable space group: C 2/C
;
_chemical_formula_sum "Si O2"
_cell_formula_units_Z 44
_cell_length_a 24.102781
_cell_length_b 12.743849
_cell_length_c 9.629235
_cell_angle_alpha 90.000000
_cell_angle_beta 132.231370
_cell_angle_gamma 90.000000
_cell_volume 2190.017074
_symmetry_space_group_name_H-M "C 2/C"
_symmetry_group_IT_number 15
_symmetry_cell_setting 'monoclinic'
loop_
_space_group_symop_operation_xyz
x,y,z
-x,y,1/2-z
-x,-y,-z
x,-y,1/2+z
1/2+x,1/2+y,z
1/2-x,1/2+y,1/2-z
1/2-x,1/2-y,-z
1/2+x,1/2-y,1/2+z
loop_
_atom_site_type_symbol
_atom_site_label
_atom_site_fract_x
_atom_site_fract_y
_atom_site_fract_z
Si Si1 0.500000 0.264859 0.250000
Si Si2 0.819436 0.463382 0.964686
Si Si3 0.185878 0.741772 0.186580
Si Si4 0.460619 0.063062 0.317441
Si Si5 0.656090 0.343535 0.434498
Si Si6 0.278155 0.569861 0.937711
O O1 0.578204 0.324955 0.383755
O O2 0.486777 0.183483 0.354993
O O3 0.852393 0.365373 0.932764
O O4 0.777751 0.534199 0.780696
O O5 0.874141 0.539336 0.144199
O O6 0.765034 0.414144 0.990094
O O7 0.272247 0.707494 0.366180
O O8 0.156233 0.792163 0.280436
O O9 0.183181 0.827737 0.060185
O O10 0.500000 0.015128 0.250000
O O11 0.500000 0.000000 0.500000
O O12 0.670804 0.467715 0.450540
#
# Coordination Sequence:
#
# PCOD9288734 Si02
#       6
#     4   8   8   8   8   8
#     4  10  24  38  62  82 128 166 200 244 324 362
#     4  11  22  36  66  92 129 157 208 260 313 366
#     4  10  22  39  65  93 123 159 215 258 311 362
#     4  10  23  36  57  89 127 159 197 248 316 374
#     4  10  22  39  64  91 123 166 206 262 309 371
#     4  11  21  40  62  96 120 164 211 260 306 362
#
# _framework density 20.091166000000001
#
# number of rings (size 3 to 8) (size 9 to 14) (size 15 to 20)
#    0.545    1.091    1.818    2.727   10.182    0.000 
#    0.000    0.909    2.000    0.000    0.000    0.000 
#    0.000    0.000    0.000    0.000    0.000    0.000 
#
# Total GULP energy -122599.154438 kJ/mol
# GULP energy per Si atom -5572.688838 kJ/mol
# Density = 2.004544 g / cm^3
# Si number density = 20.091166 Si / 1000 Ang^3
#
#
#
# Elastic Constant Matrix: (Units=GPa)
#
#
# Indices 1 2 3 4 5 6 
#
# 1 72.2667 17.1304 19.8685 0.0000 5.3157 0.0000
# 2 17.1304 85.9831 2.0698 0.0000 4.8175 0.0000
# 3 19.8685 2.0698 52.7876 0.0000 -11.8287 0.0000
# 4 0.0000 0.0000 0.0000 1.9159 0.0000 -9.9184
# 5 5.3157 4.8175 -11.8287 0.0000 32.8476 0.0000
# 6 0.0000 0.0000 0.0000 -9.9184 0.0000 36.6351
#
#
#
# Elastic Compliance Matrix: (Units=1/GPa)
#
#
# Indices 1 2 3 4 5 6 
#
# 1 0.016919 -0.002915 -0.007366 0.000000 -0.004963 0.000000
# 2 -0.002915 0.012270 0.000347 0.000000 -0.001203 0.000000
# 3 -0.007366 0.000347 0.023886 0.000000 0.009743 0.000000
# 4 0.000000 0.000000 0.000000 -1.299809 0.000000 -0.351904
# 5 -0.004963 -0.001203 0.009743 0.000000 0.034932 0.000000
# 6 0.000000 0.000000 0.000000 -0.351904 0.000000 -0.067976
#
#
# Mechanical properties :
#
#
# Convention : Reuss Voigt Hill
#
# Bulk Modulus (GPa) = 30.11535 32.13054 31.12294
# Shear Modulus (GPa) = -4.00371 25.74429 10.87029
#
# Velocity S-wave (km/s) = -1.41319 3.58351 2.32857
# Velocity P-wave (km/s) = 3.51555 5.75753 4.77013
#
# Compressibility (1/GPa) = 0.03320566
#
# Stress axis : x y z
#
# Youngs Moduli (GPa) = 59.10565 81.49911 41.86591
#
# Poissons Ratio (x) = 0.23760 0.30838
# Poissons Ratio (y) = 0.17232 -0.01451
# Poissons Ratio (z) = 0.43536 -0.02825
#
# Static dielectric constant tensor:
#      x y z
#    x 1.783560 0.000000 0.025400 
#    y 0.000000 1.724890 0.000000 
#    z 0.025400 0.000000 1.709070 
# 
# From -- ./inp_files/61699.got.cif
#   From: 2010.05.17/outbox.cif.g08.bks.cpg/sg15_31_cif.got.tgz:61699.got - 2010.06.03 18:47:42.
