data_PCOD9288700
_publ_section_title
;
Structure prediction by ZEFSAII (Michael W. Deem and Ramdas Pophale) SiO2 
 PCOD9288700
Probable space group: C 2/C
;
_chemical_formula_sum "Si O2"
_cell_formula_units_Z 48
_cell_length_a 23.923161
_cell_length_b 8.527430
_cell_length_c 20.839449
_cell_angle_alpha 90.000000
_cell_angle_beta 151.341065
_cell_angle_gamma 90.000000
_cell_volume 2038.906634
_symmetry_space_group_name_H-M "C 2/C"
_symmetry_group_IT_number 15
_symmetry_cell_setting 'monoclinic'
loop_
_space_group_symop_operation_xyz
x,y,z
-x,y,1/2-z
-x,-y,-z
x,-y,1/2+z
1/2+x,1/2+y,z
1/2-x,1/2+y,1/2-z
1/2-x,1/2-y,-z
1/2+x,1/2-y,1/2+z
loop_
_atom_site_type_symbol
_atom_site_label
_atom_site_fract_x
_atom_site_fract_y
_atom_site_fract_z
Si Si1 0.660011 0.427006 0.028958
Si Si2 0.912843 0.906238 0.281249
Si Si3 0.831670 0.633859 0.123321
Si Si4 0.707143 0.719760 0.714286
Si Si5 0.894446 0.477976 0.440769
Si Si6 0.172994 0.582100 0.996312
O O1 0.529721 0.494219 0.894743
O O2 0.752834 0.554748 0.098858
O O3 0.686056 0.372100 0.127041
O O4 0.672815 0.270032 0.998233
O O5 0.923371 0.752039 0.247140
O O6 0.881853 0.838803 0.320622
O O7 0.800562 0.010148 0.144887
O O8 0.750000 0.750000 0.000000
O O9 0.864763 0.496121 0.107971
O O10 0.834077 0.688390 0.871763
O O11 0.696153 0.896459 0.679429
O O12 0.911912 0.525111 0.531623
O O13 0.000000 0.500000 0.500000
#
# Coordination Sequence:
#
# PCOD9288700 Si02
#       6
#     8   8   8   8   8   8
#     4  11  22  40  66  93 129 173 208 263 331 382
#     4  10  22  41  65  95 128 169 214 265 325 383
#     4  10  22  42  63  91 127 163 215 270 312 381
#     4  10  22  39  63  96 129 160 215 270 315 385
#     4  10  22  40  64  92 127 170 212 264 326 378
#     4   9  22  41  63  94 128 164 220 271 314 387
#
# _framework density 23.542027999999998
#
# number of rings (size 3 to 8) (size 9 to 14) (size 15 to 20)
#    0.000    2.000    0.000    2.000    0.000   16.000 
#    0.000    8.333    0.000    0.000    0.000    0.000 
#    0.000    0.000    0.000    0.000    0.000    0.000 
#
# Total GULP energy -134299.633856 kJ/mol
# GULP energy per Si atom -5595.818077 kJ/mol
# Density = 2.348845 g / cm^3
# Si number density = 23.542028 Si / 1000 Ang^3
#
#
#
# Elastic Constant Matrix: (Units=GPa)
#
#
# Indices 1 2 3 4 5 6 
#
# 1 96.3382 31.8080 17.4503 0.0000 -2.2598 0.0000
# 2 31.8080 99.0774 18.5634 0.0000 -12.1065 0.0000
# 3 17.4503 18.5634 31.2369 0.0000 6.0068 0.0000
# 4 0.0000 0.0000 0.0000 32.4662 0.0000 -8.5333
# 5 -2.2598 -12.1065 6.0068 0.0000 24.2640 0.0000
# 6 0.0000 0.0000 0.0000 -8.5333 0.0000 52.6355
#
#
#
# Elastic Compliance Matrix: (Units=1/GPa)
#
#
# Indices 1 2 3 4 5 6 
#
# 1 0.012314 -0.002804 -0.005422 0.000000 0.001090 0.000000
# 2 -0.002804 0.013557 -0.008127 0.000000 0.008515 0.000000
# 3 -0.005422 -0.008127 0.042786 0.000000 -0.015152 0.000000
# 4 0.000000 0.000000 0.000000 0.032172 0.000000 0.005216
# 5 0.001090 0.008515 -0.015152 0.000000 0.049314 0.000000
# 6 0.000000 0.000000 0.000000 0.005216 0.000000 0.019844
#
#
# Mechanical properties :
#
#
# Convention : Reuss Voigt Hill
#
# Bulk Modulus (GPa) = 27.81698 40.25511 34.03604
# Shear Modulus (GPa) = 23.29082 32.46187 27.87634
#
# Velocity S-wave (km/s) = 3.14877 3.71737 3.44482
# Velocity P-wave (km/s) = 5.00612 5.96335 5.50558
#
# Compressibility (1/GPa) = 0.03594927
#
# Stress axis : x y z
#
# Youngs Moduli (GPa) = 81.21079 73.76515 23.37210
#
# Poissons Ratio (x) = 0.20684 0.12673
# Poissons Ratio (y) = 0.22772 0.18995
# Poissons Ratio (z) = 0.44034 0.59951
#
# Static dielectric constant tensor:
#      x y z
#    x 1.895610 0.000000 0.016270 
#    y 0.000000 1.753400 0.000000 
#    z 0.016270 0.000000 1.897720 
# 
# From -- ./inp_files/281723.got.cif
#   From: 2010.05.17/outbox.cif.g08.bks.cpg/sg15_141_cif.got.tgz:281723.got - 2010.06.03 18:47:42.
