data_PCOD9288236
_publ_section_title
;
Structure prediction by ZEFSAII (Michael W. Deem and Ramdas Pophale) SiO2 
 PCOD9288236
Probable space group: C 2/C
;
_chemical_formula_sum "Si O2"
_cell_formula_units_Z 40
_cell_length_a 14.265409
_cell_length_b 17.406871
_cell_length_c 8.864513
_cell_angle_alpha 90.000000
_cell_angle_beta 46.060652
_cell_angle_gamma 90.000000
_cell_volume 1585.029684
_symmetry_space_group_name_H-M "C 2/C"
_symmetry_group_IT_number 15
_symmetry_cell_setting 'monoclinic'
loop_
_space_group_symop_operation_xyz
x,y,z
-x,y,1/2-z
-x,-y,-z
x,-y,1/2+z
1/2+x,1/2+y,z
1/2-x,1/2+y,1/2-z
1/2-x,1/2-y,-z
1/2+x,1/2-y,1/2+z
loop_
_atom_site_type_symbol
_atom_site_label
_atom_site_fract_x
_atom_site_fract_y
_atom_site_fract_z
Si Si1 0.000000 0.291411 0.750000
Si Si2 0.685500 0.237235 0.315862
Si Si3 0.110548 0.898568 0.919378
Si Si4 0.656438 0.528944 0.672483
Si Si5 0.334983 0.886125 0.173472
Si Si6 0.500000 0.143408 0.750000
O O1 0.890513 0.253318 0.760592
O O2 0.074611 0.343236 0.547560
O O3 0.816117 0.183077 0.160108
O O4 0.729446 0.319771 0.327226
O O5 0.589566 0.196134 0.541775
O O6 0.120476 0.941232 0.747712
O O7 0.180008 0.946429 0.976398
O O8 0.961495 0.916002 0.135420
O O9 0.776070 0.545832 0.645104
O O10 0.410838 0.905900 0.239187
#
# Coordination Sequence:
#
# PCOD9288236 Si02
#       6
#     4   8   8   8   8   4
#     4  10  22  38  65  98 119 156 218 256 322 368
#     4  11  23  42  66  92 130 166 211 264 309 377
#     4  10  23  42  66  96 126 165 212 261 315 371
#     4  10  23  42  66  96 126 165 212 261 315 371
#     4  11  23  42  66  92 130 166 211 264 309 377
#     4  10  26  42  57  98 129 166 216 246 330 372
#
# _framework density 25.236121000000001
#
# number of rings (size 3 to 8) (size 9 to 14) (size 15 to 20)
#    0.000    1.600    2.000    1.200    8.400    0.000 
#    0.000    6.000    0.000    0.000    0.000    0.000 
#    0.000    0.000    0.000    0.000    0.000    0.000 
#
# Total GULP energy -111766.998766 kJ/mol
# GULP energy per Si atom -5588.349938 kJ/mol
# Density = 2.517868 g / cm^3
# Si number density = 25.236121 Si / 1000 Ang^3
#
#
#
# Elastic Constant Matrix: (Units=GPa)
#
#
# Indices 1 2 3 4 5 6 
#
# 1 171.5247 10.9715 6.8880 0.0000 24.8551 0.0000
# 2 10.9715 56.0888 8.9044 0.0000 4.6079 0.0000
# 3 6.8880 8.9044 64.4309 0.0000 7.9454 0.0000
# 4 0.0000 0.0000 0.0000 131.8261 0.0000 -100.3852
# 5 24.8551 4.6079 7.9454 0.0000 37.7552 0.0000
# 6 0.0000 0.0000 0.0000 -100.3852 0.0000 115.3527
#
#
#
# Elastic Compliance Matrix: (Units=1/GPa)
#
#
# Indices 1 2 3 4 5 6 
#
# 1 0.006493 -0.000920 -0.000055 0.000000 -0.004150 0.000000
# 2 -0.000920 0.018471 -0.002311 0.000000 -0.001162 0.000000
# 3 -0.000055 -0.002311 0.016228 0.000000 -0.003097 0.000000
# 4 0.000000 0.000000 0.000000 0.022489 0.000000 0.019571
# 5 -0.004150 -0.001162 -0.003097 0.000000 0.030012 0.000000
# 6 0.000000 0.000000 0.000000 0.019571 0.000000 0.025701
#
#
# Mechanical properties :
#
#
# Convention : Reuss Voigt Hill
#
# Bulk Modulus (GPa) = 28.88624 38.39691 33.64157
# Shear Modulus (GPa) = 36.36218 74.67216 55.51717
#
# Velocity S-wave (km/s) = 3.80001 5.44552 4.69541
# Velocity P-wave (km/s) = 5.54298 7.40177 6.53877
#
# Compressibility (1/GPa) = 0.03461856
#
# Stress axis : x y z
#
# Youngs Moduli (GPa) = 154.02276 54.13819 61.62317
#
# Poissons Ratio (x) = 0.04982 0.00340
# Poissons Ratio (y) = 0.14175 0.14241
# Poissons Ratio (z) = 0.00849 0.12512
#
# Static dielectric constant tensor:
#      x y z
#    x 2.057690 0.000000 -0.061250 
#    y 0.000000 1.932220 0.000000 
#    z -0.061250 0.000000 2.015390 
# 
# From -- ./inp_files/40595.got.cif
#   From: 2010.05.17/outbox.cif.g08.bks.cpg/sg15_21_cif.got.tgz:40595.got - 2010.06.03 18:47:42.
