data_PCOD9288661
_publ_section_title
;
Structure prediction by ZEFSAII (Michael W. Deem and Ramdas Pophale) SiO2 
 PCOD9288661
Probable space group: C 2/C
;
_chemical_formula_sum "Si O2"
_cell_formula_units_Z 56
_cell_length_a 17.244684
_cell_length_b 5.309991
_cell_length_c 25.820284
_cell_angle_alpha 90.000000
_cell_angle_beta 100.001536
_cell_angle_gamma 90.000000
_cell_volume 2328.409949
_symmetry_space_group_name_H-M "C 2/C"
_symmetry_group_IT_number 15
_symmetry_cell_setting 'monoclinic'
loop_
_space_group_symop_operation_xyz
x,y,z
-x,y,1/2-z
-x,-y,-z
x,-y,1/2+z
1/2+x,1/2+y,z
1/2-x,1/2+y,1/2-z
1/2-x,1/2-y,-z
1/2+x,1/2-y,1/2+z
loop_
_atom_site_type_symbol
_atom_site_label
_atom_site_fract_x
_atom_site_fract_y
_atom_site_fract_z
Si Si1 0.544507 0.327902 0.358691
Si Si2 0.438270 0.699975 0.517448
Si Si3 0.375062 0.960458 0.923250
Si Si4 0.210327 0.066138 0.535381
Si Si5 0.722015 0.247841 0.377949
Si Si6 0.045817 0.348926 0.172984
Si Si7 0.713582 0.748493 0.225014
O O1 0.538440 0.266187 0.419851
O O2 0.636741 0.357407 0.358014
O O3 0.499862 0.588091 0.341504
O O4 0.510003 0.089136 0.322753
O O5 0.500000 0.500000 0.500000
O O6 0.425110 0.935473 0.477140
O O7 0.347823 0.600875 0.506210
O O8 0.286776 0.072184 0.911321
O O9 0.412732 0.056640 0.875185
O O10 0.354518 0.671895 0.930933
O O11 0.250000 0.250000 0.500000
O O12 0.280423 0.969234 0.579628
O O13 0.761355 0.157315 0.329345
O O14 0.119974 0.292971 0.218787
O O15 0.745302 0.521252 0.263813
#
# Coordination Sequence:
#
# PCOD9288661 Si02
#       7
#     8   8   8   8   8   8   8
#     4  12  25  42  65 104 146 179 225 285 355 404
#     4  11  22  36  57  96 136 194 236 276 332 398
#     4  10  22  39  63  90 139 191 246 277 327 417
#     4  11  23  38  64  97 143 191 249 281 340 422
#     4  10  26  42  69 101 140 185 233 299 356 417
#     4  11  26  43  70 102 136 176 224 291 349 423
#     4  11  26  51  80 102 128 177 236 291 365 443
#
# _framework density 24.050746
#
# number of rings (size 3 to 8) (size 9 to 14) (size 15 to 20)
#    0.000    1.143    1.429    3.429   14.000    3.429 
#    0.000    4.286    0.000    0.000    0.000    0.000 
#    0.000    0.000    0.000    0.000    0.000    0.000 
#
# Total GULP energy -156440.331289 kJ/mol
# GULP energy per Si atom -5587.154689 kJ/mol
# Density = 2.399601 g / cm^3
# Si number density = 24.050746 Si / 1000 Ang^3
#
#
#
# Elastic Constant Matrix: (Units=GPa)
#
#
# Indices 1 2 3 4 5 6 
#
# 1 100.6308 13.4117 23.2050 0.0000 38.3418 0.0000
# 2 13.4117 74.9489 21.2397 0.0000 27.2054 0.0000
# 3 23.2050 21.2397 52.7030 0.0000 32.1153 0.0000
# 4 0.0000 0.0000 0.0000 37.5312 0.0000 9.8901
# 5 38.3418 27.2054 32.1153 0.0000 50.8152 0.0000
# 6 0.0000 0.0000 0.0000 9.8901 0.0000 38.9579
#
#
#
# Elastic Compliance Matrix: (Units=1/GPa)
#
#
# Indices 1 2 3 4 5 6 
#
# 1 0.014114 0.001647 0.000242 0.000000 -0.011684 0.000000
# 2 0.001647 0.016893 -0.002057 0.000000 -0.008987 0.000000
# 3 0.000242 -0.002057 0.031123 0.000000 -0.018751 0.000000
# 4 0.000000 0.000000 0.000000 0.028555 0.000000 -0.007249
# 5 -0.011684 -0.008987 -0.018751 0.000000 0.045157 0.000000
# 6 0.000000 0.000000 0.000000 -0.007249 0.000000 0.027509
#
#
# Mechanical properties :
#
#
# Convention : Reuss Voigt Hill
#
# Bulk Modulus (GPa) = 16.18308 38.22172 27.20240
# Shear Modulus (GPa) = 27.13206 36.82261 31.97733
#
# Velocity S-wave (km/s) = 3.36239 3.91709 3.65029
# Velocity P-wave (km/s) = 4.67093 6.03198 5.39455
#
# Compressibility (1/GPa) = 0.06179295
#
# Stress axis : x y z
#
# Youngs Moduli (GPa) = 70.85264 59.19736 32.13081
#
# Poissons Ratio (x) = -0.09750 -0.00777
# Poissons Ratio (y) = -0.11669 0.06609
# Poissons Ratio (z) = -0.01712 0.12176
#
# Static dielectric constant tensor:
#      x y z
#    x 1.971860 0.000000 -0.014230 
#    y 0.000000 2.125040 0.000000 
#    z -0.014230 0.000000 1.943380 
# 
# From -- ./inp_files/315129.got.cif
#   From: 2010.05.17/outbox.cif.g08.bks.cpg/sg15_158_cif.got.tgz:315129.got - 2010.06.03 18:47:42.
