data_PCOD9288613
_publ_section_title
;
Structure prediction by ZEFSAII (Michael W. Deem and Ramdas Pophale) SiO2 
 PCOD9288613
Probable space group: C 2/C
;
_chemical_formula_sum "Si O2"
_cell_formula_units_Z 64
_cell_length_a 10.015827
_cell_length_b 10.902115
_cell_length_c 25.811630
_cell_angle_alpha 90.000000
_cell_angle_beta 109.732896
_cell_angle_gamma 90.000000
_cell_volume 2652.958042
_symmetry_space_group_name_H-M "C 2/C"
_symmetry_group_IT_number 15
_symmetry_cell_setting 'monoclinic'
loop_
_space_group_symop_operation_xyz
x,y,z
-x,y,1/2-z
-x,-y,-z
x,-y,1/2+z
1/2+x,1/2+y,z
1/2-x,1/2+y,1/2-z
1/2-x,1/2-y,-z
1/2+x,1/2-y,1/2+z
loop_
_atom_site_type_symbol
_atom_site_label
_atom_site_fract_x
_atom_site_fract_y
_atom_site_fract_z
Si Si1 0.833101 0.817716 0.714074
Si Si2 0.682883 0.163884 0.298357
Si Si3 0.423545 0.258824 0.907562
Si Si4 0.727545 0.633556 0.459926
Si Si5 0.242624 0.579164 0.844605
Si Si6 0.018905 0.878577 0.312972
Si Si7 0.693120 0.001142 0.622191
Si Si8 0.659535 0.541791 0.034938
O O1 0.743362 0.781883 0.753070
O O2 0.830155 0.710495 0.670927
O O3 0.734437 0.929203 0.680023
O O4 0.000000 0.835977 0.750000
O O5 0.819688 0.187808 0.351369
O O6 0.556877 0.236974 0.308759
O O7 0.653761 0.021084 0.300803
O O8 0.570088 0.331657 0.920132
O O9 0.355534 0.314970 0.951836
O O10 0.419814 0.111558 0.899074
O O11 0.750000 0.750000 0.500000
O O12 0.825105 0.603368 0.423635
O O13 0.740851 0.510078 0.495957
O O14 0.387377 0.590852 0.831082
O O15 0.278068 0.531900 0.906962
O O16 0.000000 0.920590 0.250000
O O17 0.154661 0.930049 0.362029
O O18 0.500000 0.500000 0.000000
#
# Coordination Sequence:
#
# PCOD9288613 Si02
#       8
#     8   8   8   8   8   8   8   8
#     4  12  24  39  61  90 129 177 216 267 343 408
#     4  10  22  39  62  92 129 164 216 273 318 408
#     4   9  21  40  61  91 121 163 219 266 331 397
#     4  11  22  40  63  89 129 163 215 277 333 397
#     4  11  22  40  62  91 130 168 217 271 339 404
#     4  11  20  39  64  90 123 164 216 269 323 394
#     4  11  23  39  63  89 122 172 218 267 332 409
#     4   9  19  39  65  90 123 166 210 277 334 390
#
# _framework density 24.124015
#
# number of rings (size 3 to 8) (size 9 to 14) (size 15 to 20)
#    0.000    1.500    1.250    5.625    1.750    1.500 
#    0.000    7.500    0.000    0.000    0.000    0.000 
#    0.000    0.000    0.000    0.000    0.000    0.000 
#
# Total GULP energy -178347.113241 kJ/mol
# GULP energy per Si atom -5573.347289 kJ/mol
# Density = 2.406911 g / cm^3
# Si number density = 24.124015 Si / 1000 Ang^3
#
#
#
# Elastic Constant Matrix: (Units=GPa)
#
#
# Indices 1 2 3 4 5 6 
#
# 1 57.6007 6.3358 14.7932 0.0000 7.2808 0.0000
# 2 6.3358 115.0305 1.2108 0.0000 10.1213 0.0000
# 3 14.7932 1.2108 76.0251 0.0000 7.5324 0.0000
# 4 0.0000 0.0000 0.0000 27.1980 0.0000 5.9557
# 5 7.2808 10.1213 7.5324 0.0000 23.6726 0.0000
# 6 0.0000 0.0000 0.0000 5.9557 0.0000 23.8960
#
#
#
# Elastic Compliance Matrix: (Units=1/GPa)
#
#
# Indices 1 2 3 4 5 6 
#
# 1 0.018821 -0.000606 -0.003206 0.000000 -0.004509 0.000000
# 2 -0.000606 0.009057 0.000350 0.000000 -0.003797 0.000000
# 3 -0.003206 0.000350 0.014135 0.000000 -0.003661 0.000000
# 4 0.000000 0.000000 0.000000 0.038890 0.000000 -0.009693
# 5 -0.004509 -0.003797 -0.003661 0.000000 0.046418 0.000000
# 6 0.000000 0.000000 0.000000 -0.009693 0.000000 0.044264
#
#
# Mechanical properties :
#
#
# Convention : Reuss Voigt Hill
#
# Bulk Modulus (GPa) = 28.49926 32.59286 30.54606
# Shear Modulus (GPa) = 26.28744 30.04108 28.16426
#
# Velocity S-wave (km/s) = 3.30461 3.53268 3.42054
# Velocity P-wave (km/s) = 5.13808 5.49360 5.31881
#
# Compressibility (1/GPa) = 0.03508863
#
# Stress axis : x y z
#
# Youngs Moduli (GPa) = 53.13248 110.40976 70.74885
#
# Poissons Ratio (x) = 0.06692 0.22681
# Poissons Ratio (y) = 0.03220 -0.02476
# Poissons Ratio (z) = 0.17033 -0.03864
#
# Static dielectric constant tensor:
#      x y z
#    x 1.862780 0.000000 -0.055820 
#    y 0.000000 2.077500 0.000000 
#    z -0.055820 0.000000 1.963800 
# 
# From -- ./inp_files/268914.got.cif
#   From: 2010.05.17/outbox.cif.g08.bks.cpg/sg15_135_cif.got.tgz:268914.got - 2010.06.03 18:47:42.
