data_PCOD9288946
_publ_section_title
;
Structure prediction by ZEFSAII (Michael W. Deem and Ramdas Pophale) SiO2 
 PCOD9288946
Probable space group: C 2/C
;
_chemical_formula_sum "Si O2"
_cell_formula_units_Z 56
_cell_length_a 12.265057
_cell_length_b 13.907116
_cell_length_c 14.526452
_cell_angle_alpha 90.000000
_cell_angle_beta 86.832551
_cell_angle_gamma 90.000000
_cell_volume 2474.014437
_symmetry_space_group_name_H-M "C 2/C"
_symmetry_group_IT_number 15
_symmetry_cell_setting 'monoclinic'
loop_
_space_group_symop_operation_xyz
x,y,z
-x,y,1/2-z
-x,-y,-z
x,-y,1/2+z
1/2+x,1/2+y,z
1/2-x,1/2+y,1/2-z
1/2-x,1/2-y,-z
1/2+x,1/2-y,1/2+z
loop_
_atom_site_type_symbol
_atom_site_label
_atom_site_fract_x
_atom_site_fract_y
_atom_site_fract_z
Si Si1 0.643384 0.679574 0.684801
Si Si2 0.210165 0.288503 0.150916
Si Si3 0.222654 0.396425 0.489135
Si Si4 0.228233 0.379237 0.959890
Si Si5 0.500000 0.506596 0.750000
Si Si6 0.920847 0.144574 0.107358
Si Si7 0.008312 0.716856 0.051771
Si Si8 0.000000 0.707496 0.750000
O O1 0.707709 0.717522 0.769055
O O2 0.725040 0.666220 0.595060
O O3 0.597781 0.576181 0.716004
O O4 0.545532 0.743951 0.649152
O O5 0.194575 0.179472 0.114043
O O6 0.096125 0.338976 0.185705
O O7 0.256998 0.347066 0.062380
O O8 0.226072 0.506758 0.456722
O O9 0.302039 0.382530 0.573340
O O10 0.102280 0.357488 0.515258
O O11 0.107700 0.334935 0.947177
O O12 0.530710 0.444827 0.838605
O O13 0.930015 0.227836 0.183201
O O14 0.983558 0.190465 0.016588
#
# Coordination Sequence:
#
# PCOD9288946 Si02
#       8
#     8   8   8   8   4   8   8   4
#     4  11  24  42  69  96 136 172 227 272 347 397
#     4  11  24  43  68  99 134 180 215 285 335 404
#     4  11  24  42  64  99 131 180 223 281 326 415
#     4  11  25  42  69  98 139 170 232 275 342 391
#     4  11  24  38  66 103 130 164 229 292 320 402
#     4  10  22  39  68  94 132 172 224 275 336 394
#     4  11  22  45  67  92 135 185 213 274 342 411
#     4  11  20  40  70  93 128 180 227 256 336 408
#
# _framework density 22.635275
#
# number of rings (size 3 to 8) (size 9 to 14) (size 15 to 20)
#    0.000    1.143    1.429    5.571    4.000    3.429 
#    2.571    0.000    3.143    0.000    0.000    0.000 
#    0.000    0.000    0.000    0.000    0.000    0.000 
#
# Total GULP energy -156616.175322 kJ/mol
# GULP energy per Si atom -5593.434833 kJ/mol
# Density = 2.258376 g / cm^3
# Si number density = 22.635275 Si / 1000 Ang^3
#
#
#
# Elastic Constant Matrix: (Units=GPa)
#
#
# Indices 1 2 3 4 5 6 
#
# 1 111.1962 11.2142 41.0825 0.0000 15.8708 0.0000
# 2 11.2142 81.2806 22.4778 0.0000 13.2541 0.0000
# 3 41.0825 22.4778 136.8950 0.0000 29.6189 0.0000
# 4 0.0000 0.0000 0.0000 19.3183 0.0000 -2.9226
# 5 15.8708 13.2541 29.6189 0.0000 42.5195 0.0000
# 6 0.0000 0.0000 0.0000 -2.9226 0.0000 22.6880
#
#
#
# Elastic Compliance Matrix: (Units=1/GPa)
#
#
# Indices 1 2 3 4 5 6 
#
# 1 0.010266 -0.000386 -0.002607 0.000000 -0.001895 0.000000
# 2 -0.000386 0.013235 -0.001408 0.000000 -0.003001 0.000000
# 3 -0.002607 -0.001408 0.009435 0.000000 -0.005160 0.000000
# 4 0.000000 0.000000 0.000000 0.052793 0.000000 0.006801
# 5 -0.001895 -0.003001 -0.005160 0.000000 0.028756 0.000000
# 6 0.000000 0.000000 0.000000 0.006801 0.000000 0.044952
#
#
# Mechanical properties :
#
#
# Convention : Reuss Voigt Hill
#
# Bulk Modulus (GPa) = 41.43769 53.21343 47.32556
# Shear Modulus (GPa) = 28.36316 33.87830 31.12073
#
# Velocity S-wave (km/s) = 3.54369 3.87292 3.71196
# Velocity P-wave (km/s) = 5.92369 6.59996 6.27095
#
# Compressibility (1/GPa) = 0.02413262
#
# Stress axis : x y z
#
# Youngs Moduli (GPa) = 97.41020 75.55705 105.98803
#
# Poissons Ratio (x) = 0.02919 0.27635
# Poissons Ratio (y) = 0.03763 0.14923
# Poissons Ratio (z) = 0.25398 0.10639
#
# Static dielectric constant tensor:
#      x y z
#    x 1.905050 0.000000 -0.040960 
#    y 0.000000 1.822640 0.000000 
#    z -0.040960 0.000000 1.875780 
# 
# From -- ./inp_files/144293.got.cif
#   From: 2010.05.17/outbox.cif.g08.bks.cpg/sg15_73_cif.got.tgz:144293.got - 2010.06.03 18:47:42.
