data_PCOD9288666
_publ_section_title
;
Structure prediction by ZEFSAII (Michael W. Deem and Ramdas Pophale) SiO2 
 PCOD9288666
Probable space group: C 2/C
;
_chemical_formula_sum "Si O2"
_cell_formula_units_Z 40
_cell_length_a 8.763060
_cell_length_b 24.592139
_cell_length_c 8.064618
_cell_angle_alpha 90.000000
_cell_angle_beta 99.517289
_cell_angle_gamma 90.000000
_cell_volume 1714.022954
_symmetry_space_group_name_H-M "C 2/C"
_symmetry_group_IT_number 15
_symmetry_cell_setting 'monoclinic'
loop_
_space_group_symop_operation_xyz
x,y,z
-x,y,1/2-z
-x,-y,-z
x,-y,1/2+z
1/2+x,1/2+y,z
1/2-x,1/2+y,1/2-z
1/2-x,1/2-y,-z
1/2+x,1/2-y,1/2+z
loop_
_atom_site_type_symbol
_atom_site_label
_atom_site_fract_x
_atom_site_fract_y
_atom_site_fract_z
Si Si1 0.319460 0.373141 0.679993
Si Si2 0.318507 0.819700 0.181830
Si Si3 0.680749 0.221504 0.322233
Si Si4 0.176563 0.014352 0.487316
Si Si5 0.332627 0.928092 0.314652
O O1 0.500000 0.361536 0.750000
O O2 0.242201 0.346466 0.500006
O O3 0.231596 0.340798 0.808589
O O4 0.307797 0.437974 0.649298
O O5 0.500000 0.812546 0.250000
O O6 0.248986 0.760956 0.193964
O O7 0.278516 0.865701 0.312523
O O8 0.500000 0.223750 0.250000
O O9 0.750000 0.250000 0.500000
O O10 0.226210 0.043278 0.662675
O O11 0.293989 0.964732 0.466864
O O12 0.000000 0.000000 0.500000
O O13 0.500000 0.928750 0.250000
#
# Coordination Sequence:
#
# PCOD9288666 Si02
#       5
#     8   8   8   8   8
#     4  11  23  41  63  88 125 169 208 262 323 382
#     4  10  22  42  63  86 122 167 210 258 320 385
#     4  12  25  40  63  95 125 162 213 267 321 387
#     4  11  23  40  63  94 128 168 219 270 326 390
#     4  10  22  39  63  91 125 168 212 267 328 390
#
# _framework density 23.33691
#
# number of rings (size 3 to 8) (size 9 to 14) (size 15 to 20)
#    0.000    1.200    0.000    6.000    0.000    7.200 
#    0.000    0.000    0.000    0.000    0.000    0.000 
#    0.000    0.000    0.000    0.000    0.000    0.000 
#
# Total GULP energy -111488.548210 kJ/mol
# GULP energy per Si atom -5574.427411 kJ/mol
# Density = 2.328379 g / cm^3
# Si number density = 23.336910 Si / 1000 Ang^3
#
#
#
# Elastic Constant Matrix: (Units=GPa)
#
#
# Indices 1 2 3 4 5 6 
#
# 1 99.8462 37.8499 24.8953 0.0000 33.0430 0.0000
# 2 37.8499 148.8183 24.1608 0.0000 -16.9134 0.0000
# 3 24.8953 24.1608 89.9567 0.0000 7.2240 0.0000
# 4 0.0000 0.0000 0.0000 303.6573 0.0000 142.0338
# 5 33.0430 -16.9134 7.2240 0.0000 41.0727 0.0000
# 6 0.0000 0.0000 0.0000 142.0338 0.0000 106.1462
#
#
#
# Elastic Compliance Matrix: (Units=1/GPa)
#
#
# Indices 1 2 3 4 5 6 
#
# 1 0.018665 -0.006376 -0.002066 0.000000 -0.017278 0.000000
# 2 -0.006376 0.009666 -0.001585 0.000000 0.009388 0.000000
# 3 -0.002066 -0.001585 0.012205 0.000000 -0.001138 0.000000
# 4 0.000000 0.000000 0.000000 0.008803 0.000000 -0.011779
# 5 -0.017278 0.009388 -0.001138 0.000000 0.042314 0.000000
# 6 0.000000 0.000000 0.000000 -0.011779 0.000000 0.025182
#
#
# Mechanical properties :
#
#
# Convention : Reuss Voigt Hill
#
# Bulk Modulus (GPa) = 48.82163 56.93702 52.87933
# Shear Modulus (GPa) = 34.79086 106.95625 70.87356
#
# Velocity S-wave (km/s) = 3.86529 6.77723 5.51685
# Velocity P-wave (km/s) = 6.39424 9.25700 7.95545
#
# Compressibility (1/GPa) = 0.02048272
#
# Stress axis : x y z
#
# Youngs Moduli (GPa) = 53.57492 103.46018 81.93142
#
# Poissons Ratio (x) = 0.65963 0.16924
# Poissons Ratio (y) = 0.34158 0.12990
# Poissons Ratio (z) = 0.11067 0.16403
#
# Static dielectric constant tensor:
#      x y z
#    x 1.640450 0.000000 -0.020210 
#    y 0.000000 1.916940 0.000000 
#    z -0.020210 0.000000 1.946740 
# 
# From -- ./inp_files/23426.got.cif
#   From: 2010.05.17/outbox.cif.g08.bks.cpg/sg15_12_cif.got.tgz:23426.got - 2010.06.03 18:47:42.
