data_PCOD9288969
_publ_section_title
;
Structure prediction by ZEFSAII (Michael W. Deem and Ramdas Pophale) SiO2 
 PCOD9288969
Probable space group: C 2/C
;
_chemical_formula_sum "Si O2"
_cell_formula_units_Z 56
_cell_length_a 12.959694
_cell_length_b 6.295547
_cell_length_c 27.177016
_cell_angle_alpha 90.000000
_cell_angle_beta 69.388265
_cell_angle_gamma 90.000000
_cell_volume 2075.391412
_symmetry_space_group_name_H-M "C 2/C"
_symmetry_group_IT_number 15
_symmetry_cell_setting 'monoclinic'
loop_
_space_group_symop_operation_xyz
x,y,z
-x,y,1/2-z
-x,-y,-z
x,-y,1/2+z
1/2+x,1/2+y,z
1/2-x,1/2+y,1/2-z
1/2-x,1/2-y,-z
1/2+x,1/2-y,1/2+z
loop_
_atom_site_type_symbol
_atom_site_label
_atom_site_fract_x
_atom_site_fract_y
_atom_site_fract_z
Si Si1 0.225712 0.773056 0.152729
Si Si2 0.507160 0.139508 0.333033
Si Si3 0.213533 0.618434 0.426520
Si Si4 0.960368 0.729096 0.904883
Si Si5 0.250000 0.250000 0.500000
Si Si6 0.116351 0.045561 0.448302
Si Si7 0.500000 0.215330 0.750000
Si Si8 0.127981 0.044661 0.300516
O O1 0.097418 0.781713 0.164051
O O2 0.278635 0.616546 0.103006
O O3 0.264018 0.663997 0.196842
O O4 0.275592 0.997077 0.127679
O O5 0.483342 0.017892 0.388083
O O6 0.496533 0.948830 0.295600
O O7 0.612071 0.292418 0.309273
O O8 0.332212 0.727212 0.418006
O O9 0.202170 0.442636 0.470949
O O10 0.119050 0.793963 0.440675
O O11 0.016287 0.813991 0.945124
O O12 0.034107 0.865132 0.853631
O O13 0.347974 0.402025 0.502861
O O14 0.401831 0.372182 0.748977
#
# Coordination Sequence:
#
# PCOD9288969 Si02
#       8
#     8   8   8   8   4   8   4   8
#     4  10  22  40  69  99 122 174 223 263 327 383
#     4  11  21  45  67  96 135 171 213 280 316 393
#     4  11  21  44  65  95 135 168 221 272 319 393
#     4  10  22  39  69  96 123 173 224 260 330 381
#     4  10  24  40  60 100 138 168 218 262 336 386
#     4  10  22  41  64  97 129 173 211 274 319 392
#     4  10  24  42  58 102 136 168 218 264 334 386
#     4  10  22  42  64  99 131 170 215 271 322 391
#
# _framework density 26.982861
#
# number of rings (size 3 to 8) (size 9 to 14) (size 15 to 20)
#    0.000    1.714    2.857    0.857    0.000    9.714 
#    5.143    1.429    0.000    0.000    0.000    0.000 
#    0.000    0.000    0.000    0.000    0.000    0.000 
#
# Total GULP energy -156021.736001 kJ/mol
# GULP energy per Si atom -5572.204857 kJ/mol
# Density = 2.692145 g / cm^3
# Si number density = 26.982861 Si / 1000 Ang^3
#
#
#
# Elastic Constant Matrix: (Units=GPa)
#
#
# Indices 1 2 3 4 5 6 
#
# 1 101.6348 51.8674 47.3928 0.0000 36.0643 -0.0001
# 2 51.8674 158.3267 46.4730 0.0003 33.1401 -0.0002
# 3 47.3928 46.4730 50.7673 0.0002 16.3707 0.0001
# 4 0.0000 0.0003 0.0002 30.4744 0.0001 15.1032
# 5 36.0643 33.1401 16.3707 0.0001 48.4609 0.0000
# 6 -0.0001 -0.0002 0.0001 15.1032 0.0000 34.5589
#
#
#
# Elastic Compliance Matrix: (Units=1/GPa)
#
#
# Indices 1 2 3 4 5 6 
#
# 1 0.021101 0.000049 -0.016463 0.000000 -0.010176 0.000000
# 2 0.000049 0.009246 -0.007249 0.000000 -0.003911 0.000000
# 3 -0.016463 -0.007249 0.040572 0.000000 0.003503 0.000000
# 4 0.000000 0.000000 0.000000 0.041887 0.000000 -0.018306
# 5 -0.010176 -0.003911 0.003503 0.000000 0.029699 0.000000
# 6 0.000000 0.000000 0.000000 -0.018306 0.000000 0.036936
#
#
# Mechanical properties :
#
#
# Convention : Reuss Voigt Hill
#
# Bulk Modulus (GPa) = 42.38093 66.91059 54.64576
# Shear Modulus (GPa) = 21.30992 33.69854 27.50423
#
# Velocity S-wave (km/s) = 2.81331 3.53779 3.19615
# Velocity P-wave (km/s) = 5.12774 6.44509 5.82378
#
# Compressibility (1/GPa) = 0.02359552
#
# Stress axis : x y z
#
# Youngs Moduli (GPa) = 47.39019 108.15123 24.64726
#
# Poissons Ratio (x) = -0.00535 0.40576
# Poissons Ratio (y) = -0.00234 0.17867
# Poissons Ratio (z) = 0.78017 0.78400
#
# Static dielectric constant tensor:
#      x y z
#    x 2.165180 0.000000 -0.012290 
#    y 0.000000 2.178560 0.000000 
#    z -0.012290 0.000000 2.317970 
# 
# From -- ./inp_files/312380.got.cif
#   From: 2010.05.17/outbox.cif.g08.bks.cpg/sg15_157_cif.got.tgz:312380.got - 2010.06.03 18:47:42.
