data_PCOD9288900
_publ_section_title
;
Structure prediction by ZEFSAII (Michael W. Deem and Ramdas Pophale) SiO2 
 PCOD9288900
Probable space group: C 2/C
;
_chemical_formula_sum "Si O2"
_cell_formula_units_Z 48
_cell_length_a 19.381740
_cell_length_b 11.464886
_cell_length_c 8.848591
_cell_angle_alpha 90.000000
_cell_angle_beta 75.232694
_cell_angle_gamma 90.000000
_cell_volume 1901.293545
_symmetry_space_group_name_H-M "C 2/C"
_symmetry_group_IT_number 15
_symmetry_cell_setting 'monoclinic'
loop_
_space_group_symop_operation_xyz
x,y,z
-x,y,1/2-z
-x,-y,-z
x,-y,1/2+z
1/2+x,1/2+y,z
1/2-x,1/2+y,1/2-z
1/2-x,1/2-y,-z
1/2+x,1/2-y,1/2+z
loop_
_atom_site_type_symbol
_atom_site_label
_atom_site_fract_x
_atom_site_fract_y
_atom_site_fract_z
Si Si1 0.730862 0.191792 0.750130
Si Si2 0.578901 0.551050 0.200917
Si Si3 0.430655 0.868985 0.890962
Si Si4 0.637792 0.750191 0.003174
Si Si5 0.144772 0.863512 0.975858
Si Si6 0.372042 0.007428 0.157043
O O1 0.682847 0.222748 0.629733
O O2 0.810525 0.186753 0.645634
O O3 0.716003 0.299510 0.873120
O O4 0.699331 0.069464 0.825973
O O5 0.500000 0.496304 0.250000
O O6 0.602909 0.590642 0.352382
O O7 0.575897 0.664433 0.092557
O O8 0.640162 0.469018 0.095523
O O9 0.500000 0.866354 0.750000
O O10 0.379763 0.956910 0.826361
O O11 0.397885 0.742252 0.924364
O O12 0.432964 0.920899 0.058656
O O13 0.620078 0.871186 0.934346
#
# Coordination Sequence:
#
# PCOD9288900 Si02
#       6
#     8   8   8   8   8   8
#     4   9  21  44  60  94 127 163 216 267 317 382
#     4  11  24  41  65  93 131 170 215 261 327 384
#     4  11  24  41  65  93 133 169 217 265 321 387
#     4  10  22  39  67  89 129 170 207 269 321 380
#     4  10  24  42  63  94 128 169 215 266 313 389
#     4  11  22  41  64  97 124 169 218 266 325 380
#
# _framework density 25.245968999999999
#
# number of rings (size 3 to 8) (size 9 to 14) (size 15 to 20)
#    0.000    1.667    1.667    1.500    7.000    0.667 
#    0.000    3.333    0.000    0.000    0.000    0.000 
#    0.000    0.000    0.000    0.000    0.000    0.000 
#
# Total GULP energy -134278.830640 kJ/mol
# GULP energy per Si atom -5594.951277 kJ/mol
# Density = 2.518851 g / cm^3
# Si number density = 25.245969 Si / 1000 Ang^3
#
#
#
# Elastic Constant Matrix: (Units=GPa)
#
#
# Indices 1 2 3 4 5 6 
#
# 1 38.4255 -2.6178 32.6073 0.0000 -3.3910 0.0000
# 2 -2.6178 100.9929 52.3287 0.0000 -4.9062 0.0000
# 3 32.6073 52.3287 127.1746 0.0000 -10.1543 0.0000
# 4 0.0000 0.0000 0.0000 65.2712 0.0000 -3.6939
# 5 -3.3910 -4.9062 -10.1543 0.0000 34.1581 0.0000
# 6 0.0000 0.0000 0.0000 -3.6939 0.0000 14.1886
#
#
#
# Elastic Compliance Matrix: (Units=1/GPa)
#
#
# Indices 1 2 3 4 5 6 
#
# 1 0.037309 0.007538 -0.012584 0.000000 0.001046 0.000000
# 2 0.007538 0.014110 -0.007700 0.000000 0.000486 0.000000
# 3 -0.012584 -0.007700 0.014412 0.000000 0.001929 0.000000
# 4 0.000000 0.000000 0.000000 0.015550 0.000000 0.004048
# 5 0.001046 0.000486 0.001929 0.000000 0.030023 0.000000
# 6 0.000000 0.000000 0.000000 0.004048 0.000000 0.071533
#
#
# Mechanical properties :
#
#
# Convention : Reuss Voigt Hill
#
# Bulk Modulus (GPa) = 24.78953 47.91437 36.35195
# Shear Modulus (GPa) = 22.53514 35.00857 28.77186
#
# Velocity S-wave (km/s) = 2.99092 3.72788 3.37955
# Velocity P-wave (km/s) = 4.66562 6.12778 5.44599
#
# Compressibility (1/GPa) = 0.04033961
#
# Stress axis : x y z
#
# Youngs Moduli (GPa) = 26.80318 70.86969 69.38589
#
# Poissons Ratio (x) = -0.53424 0.87317
# Poissons Ratio (y) = -0.20205 0.53427
# Poissons Ratio (z) = 0.33730 0.54570
#
# Static dielectric constant tensor:
#      x y z
#    x 1.984160 0.000000 0.012680 
#    y 0.000000 1.966270 0.000000 
#    z 0.012680 0.000000 2.010600 
# 
# From -- ./inp_files/60850.got.cif
#   From: 2010.05.17/outbox.cif.g08.bks.cpg/sg15_31_cif.got.tgz:60850.got - 2010.06.03 18:47:42.
