data_PCOD9288201
_publ_section_title
;
Structure prediction by ZEFSAII (Michael W. Deem and Ramdas Pophale) SiO2 
 PCOD9288201
Probable space group: C 2/C
;
_chemical_formula_sum "Si O2"
_cell_formula_units_Z 52
_cell_length_a 9.183768
_cell_length_b 11.386572
_cell_length_c 26.245113
_cell_angle_alpha 90.000000
_cell_angle_beta 123.524878
_cell_angle_gamma 90.000000
_cell_volume 2287.937021
_symmetry_space_group_name_H-M "C 2/C"
_symmetry_group_IT_number 15
_symmetry_cell_setting 'monoclinic'
loop_
_space_group_symop_operation_xyz
x,y,z
-x,y,1/2-z
-x,-y,-z
x,-y,1/2+z
1/2+x,1/2+y,z
1/2-x,1/2+y,1/2-z
1/2-x,1/2-y,-z
1/2+x,1/2-y,1/2+z
loop_
_atom_site_type_symbol
_atom_site_label
_atom_site_fract_x
_atom_site_fract_y
_atom_site_fract_z
Si Si1 0.859018 0.976518 0.632524
Si Si2 0.428137 0.281140 0.563100
Si Si3 0.985674 0.371667 0.172205
Si Si4 0.500000 0.683883 0.250000
Si Si5 0.660798 0.353241 0.515529
Si Si6 0.478606 0.067146 0.386849
Si Si7 0.414475 0.652727 0.877919
O O1 0.896539 0.894809 0.591659
O O2 0.651645 0.991005 0.597382
O O3 0.905097 0.903382 0.692451
O O4 0.978358 0.089673 0.646392
O O5 0.250000 0.250000 0.500000
O O6 0.474009 0.184285 0.613974
O O7 0.578488 0.303901 0.551212
O O8 0.086979 0.278032 0.227184
O O9 0.051735 0.502138 0.173135
O O10 0.789465 0.376392 0.156698
O O11 0.750000 0.250000 0.500000
O O12 0.817860 0.441621 0.558325
O O13 0.504313 0.390777 0.448148
O O14 0.437161 0.206528 0.377947
#
# Coordination Sequence:
#
# PCOD9288201 Si02
#       7
#     8   8   8   4   8   8   8
#     4  11  25  44  73  94 143 183 232 292 343 408
#     4  11  20  40  68 100 139 191 222 280 351 406
#     4  11  24  43  73  95 142 180 233 288 343 411
#     4  10  24  52  68 100 130 186 236 294 344 396
#     4  10  22  38  65 106 150 173 224 275 338 432
#     4  11  24  43  64 108 135 181 230 276 344 418
#     4  11  23  46  65 105 140 181 226 280 345 422
#
# _framework density 22.727898
#
# number of rings (size 3 to 8) (size 9 to 14) (size 15 to 20)
#    0.000    1.231    4.615    1.846    6.462    3.077 
#    0.000    0.769    0.000    0.000    0.000    0.000 
#    0.000    0.000    0.000    0.000    0.000    0.000 
#
# Total GULP energy -145165.094300 kJ/mol
# GULP energy per Si atom -5583.272858 kJ/mol
# Density = 2.267617 g / cm^3
# Si number density = 22.727898 Si / 1000 Ang^3
#
#
#
# Elastic Constant Matrix: (Units=GPa)
#
#
# Indices 1 2 3 4 5 6 
#
# 1 176.1660 46.8891 36.4252 0.0000 -18.4728 0.0000
# 2 46.8891 87.0656 13.0123 0.0000 -17.9910 0.0000
# 3 36.4252 13.0123 100.9901 0.0000 -28.1289 0.0000
# 4 0.0000 0.0000 0.0000 28.4123 0.0000 -19.9850
# 5 -18.4728 -17.9910 -28.1289 0.0000 19.7168 0.0000
# 6 0.0000 0.0000 0.0000 -19.9850 0.0000 34.3409
#
#
#
# Elastic Compliance Matrix: (Units=1/GPa)
#
#
# Indices 1 2 3 4 5 6 
#
# 1 0.007041 -0.003326 -0.001857 0.000000 0.000913 0.000000
# 2 -0.003326 0.016273 0.003934 0.000000 0.017345 0.000000
# 3 -0.001857 0.003934 0.017556 0.000000 0.026897 0.000000
# 4 0.000000 0.000000 0.000000 0.059588 0.000000 0.034678
# 5 0.000913 0.017345 0.026897 0.000000 0.105773 0.000000
# 6 0.000000 0.000000 0.000000 0.034678 0.000000 0.049301
#
#
# Mechanical properties :
#
#
# Convention : Reuss Voigt Hill
#
# Bulk Modulus (GPa) = 26.05986 61.87501 43.96743
# Shear Modulus (GPa) = 18.46239 34.35367 26.40803
#
# Velocity S-wave (km/s) = 2.85322 3.89204 3.41239
# Velocity P-wave (km/s) = 4.72709 6.89062 5.90873
#
# Compressibility (1/GPa) = 0.03837319
#
# Stress axis : x y z
#
# Youngs Moduli (GPa) = 142.01734 61.45194 56.95956
#
# Poissons Ratio (x) = 0.20438 0.10576
# Poissons Ratio (y) = 0.47233 -0.22407
# Poissons Ratio (z) = 0.26369 -0.24175
#
# Static dielectric constant tensor:
#      x y z
#    x 1.881950 0.000000 0.062040 
#    y 0.000000 1.937040 0.000000 
#    z 0.062040 0.000000 1.898570 
# 
# From -- ./inp_files/287755.got.cif
#   From: 2010.05.17/outbox.cif.g08.bks.cpg/sg15_144_cif.got.tgz:287755.got - 2010.06.03 18:47:42.
