data_PCOD9288419
_publ_section_title
;
Structure prediction by ZEFSAII (Michael W. Deem and Ramdas Pophale) SiO2 
 PCOD9288419
Probable space group: C 2/C
;
_chemical_formula_sum "Si O2"
_cell_formula_units_Z 44
_cell_length_a 8.885322
_cell_length_b 12.041575
_cell_length_c 21.829996
_cell_angle_alpha 90.000000
_cell_angle_beta 55.865244
_cell_angle_gamma 90.000000
_cell_volume 1933.274938
_symmetry_space_group_name_H-M "C 2/C"
_symmetry_group_IT_number 15
_symmetry_cell_setting 'monoclinic'
loop_
_space_group_symop_operation_xyz
x,y,z
-x,y,1/2-z
-x,-y,-z
x,-y,1/2+z
1/2+x,1/2+y,z
1/2-x,1/2+y,1/2-z
1/2-x,1/2-y,-z
1/2+x,1/2-y,1/2+z
loop_
_atom_site_type_symbol
_atom_site_label
_atom_site_fract_x
_atom_site_fract_y
_atom_site_fract_z
Si Si1 0.348157 0.725451 0.574303
Si Si2 0.500000 0.980445 0.750000
Si Si3 0.686164 0.583097 0.032305
Si Si4 0.703812 0.680386 0.352776
Si Si5 0.761420 0.166254 0.723611
Si Si6 0.846707 0.155616 0.913616
O O1 0.307055 0.619355 0.540366
O O2 0.307794 0.832335 0.543406
O O3 0.227244 0.716438 0.663287
O O4 0.550453 0.721239 0.555636
O O5 0.625082 0.901414 0.680180
O O6 0.635376 0.058503 0.757446
O O7 0.479474 0.611304 0.099144
O O8 0.725973 0.457500 0.040940
O O9 0.723387 0.744027 0.284046
O O10 0.713631 0.773954 0.402348
O O11 0.975154 0.133089 0.671210
#
# Coordination Sequence:
#
# PCOD9288419 Si02
#       6
#     8   4   8   8   8   8
#     4   9  22  43  61  90 122 164 211 241 308 373
#     4  12  20  38  60  86 124 160 190 256 316 342
#     4  11  22  42  66  85 126 167 197 258 306 353
#     4  12  23  39  61  96 121 155 212 252 303 372
#     4  10  22  39  58  89 124 155 203 254 297 368
#     4  10  22  39  59  90 121 154 206 252 295 363
#
# _framework density 22.759307
#
# number of rings (size 3 to 8) (size 9 to 14) (size 15 to 20)
#    1.091    0.364    3.636    1.636    0.000    3.636 
#    3.273    5.455    0.000    0.000    0.000    0.000 
#    0.000    0.000    0.000    0.000    0.000    0.000 
#
# Total GULP energy -123009.193965 kJ/mol
# GULP energy per Si atom -5591.326998 kJ/mol
# Density = 2.270751 g / cm^3
# Si number density = 22.759307 Si / 1000 Ang^3
#
#
#
# Elastic Constant Matrix: (Units=GPa)
#
#
# Indices 1 2 3 4 5 6 
#
# 1 31.2544 22.7744 30.2868 0.0000 3.8915 0.0000
# 2 22.7744 46.2690 21.3945 0.0000 -0.2326 0.0000
# 3 30.2868 21.3945 117.8957 0.0000 26.3119 0.0000
# 4 0.0000 0.0000 0.0000 27.0253 0.0000 -8.0615
# 5 3.8915 -0.2326 26.3119 0.0000 38.6351 0.0000
# 6 0.0000 0.0000 0.0000 -8.0615 0.0000 31.3984
#
#
#
# Elastic Compliance Matrix: (Units=1/GPa)
#
#
# Indices 1 2 3 4 5 6 
#
# 1 0.060941 -0.024657 -0.011530 0.000000 0.001566 0.000000
# 2 -0.024657 0.034002 -0.000514 0.000000 0.003038 0.000000
# 3 -0.011530 -0.000514 0.013301 0.000000 -0.007900 0.000000
# 4 0.000000 0.000000 0.000000 0.040071 0.000000 0.010288
# 5 0.001566 0.003038 -0.007900 0.000000 0.031124 0.000000
# 6 0.000000 0.000000 0.000000 0.010288 0.000000 0.034490
#
#
# Mechanical properties :
#
#
# Convention : Reuss Voigt Hill
#
# Bulk Modulus (GPa) = 28.70200 38.25894 33.48047
# Shear Modulus (GPa) = 16.72546 27.47599 22.10072
#
# Velocity S-wave (km/s) = 2.71382 3.47831 3.11957
# Velocity P-wave (km/s) = 4.73901 5.74267 5.26481
#
# Compressibility (1/GPa) = 0.03484078
#
# Stress axis : x y z
#
# Youngs Moduli (GPa) = 16.40940 29.40979 75.18447
#
# Poissons Ratio (x) = 0.72515 0.86691
# Poissons Ratio (y) = 0.40460 0.03867
# Poissons Ratio (z) = 0.18921 0.01513
#
# Static dielectric constant tensor:
#      x y z
#    x 1.849010 0.000000 -0.058260 
#    y 0.000000 1.816850 0.000000 
#    z -0.058260 0.000000 1.924200 
# 
# From -- ./inp_files/263444.got.cif
#   From: 2010.05.17/outbox.cif.g08.bks.cpg/sg15_132_cif.got.tgz:263444.got - 2010.06.03 18:47:42.
