data_PCOD9288935
_publ_section_title
;
Structure prediction by ZEFSAII (Michael W. Deem and Ramdas Pophale) SiO2 
 PCOD9288935
Probable space group: C 2/C
;
_chemical_formula_sum "Si O2"
_cell_formula_units_Z 44
_cell_length_a 13.165304
_cell_length_b 24.622803
_cell_length_c 5.526141
_cell_angle_alpha 90.000000
_cell_angle_beta 99.548467
_cell_angle_gamma 90.000000
_cell_volume 1766.572234
_symmetry_space_group_name_H-M "C 2/C"
_symmetry_group_IT_number 15
_symmetry_cell_setting 'monoclinic'
loop_
_space_group_symop_operation_xyz
x,y,z
-x,y,1/2-z
-x,-y,-z
x,-y,1/2+z
1/2+x,1/2+y,z
1/2-x,1/2+y,1/2-z
1/2-x,1/2-y,-z
1/2+x,1/2-y,1/2+z
loop_
_atom_site_type_symbol
_atom_site_label
_atom_site_fract_x
_atom_site_fract_y
_atom_site_fract_z
Si Si1 0.500000 0.824338 0.250000
Si Si2 0.652377 0.241988 0.136375
Si Si3 0.214071 0.527695 0.256855
Si Si4 0.622225 0.597184 0.086868
Si Si5 0.389175 0.363241 0.410233
Si Si6 0.616526 0.138867 0.396873
O O1 0.558147 0.784218 0.452944
O O2 0.408712 0.860131 0.328817
O O3 0.615056 0.301952 0.188796
O O4 0.668363 0.196983 0.351843
O O5 0.750000 0.250000 0.000000
O O6 0.184310 0.491753 0.478112
O O7 0.337795 0.538320 0.316443
O O8 0.168657 0.587011 0.299888
O O9 0.653325 0.633746 0.332964
O O10 0.666179 0.605447 0.831019
O O11 0.502577 0.611083 0.995568
O O12 0.500000 0.137584 0.250000
#
# Coordination Sequence:
#
# PCOD9288935 Si02
#       6
#     4   8   8   8   8   8
#     4  10  24  42  64  98 150 176 240 284 352 422
#     4  11  24  39  69 106 145 193 231 279 361 437
#     4  12  28  48  75 100 133 185 249 309 366 408
#     4  10  22  42  67 100 140 180 236 284 345 434
#     4  10  22  39  68 100 147 187 218 274 359 432
#     4  10  26  45  68 101 142 178 243 301 348 433
#
# _framework density 24.906991000000001
#
# number of rings (size 3 to 8) (size 9 to 14) (size 15 to 20)
#    0.000    1.455    0.000    3.273   17.818    1.455 
#    0.000   10.909    0.000    0.000    0.000    0.000 
#    0.000    0.000    0.000    0.000    0.000    0.000 
#
# Total GULP energy -122695.985609 kJ/mol
# GULP energy per Si atom -5577.090255 kJ/mol
# Density = 2.485030 g / cm^3
# Si number density = 24.906991 Si / 1000 Ang^3
#
#
#
# Elastic Constant Matrix: (Units=GPa)
#
#
# Indices 1 2 3 4 5 6 
#
# 1 89.6279 15.0616 3.4192 0.0000 -18.0594 0.0000
# 2 15.0616 67.6681 28.8036 0.0000 -13.4656 0.0000
# 3 3.4192 28.8036 129.7696 0.0000 -11.1584 0.0000
# 4 0.0000 0.0000 0.0000 32.3398 0.0000 -5.0158
# 5 -18.0594 -13.4656 -11.1584 0.0000 27.6513 0.0000
# 6 0.0000 0.0000 0.0000 -5.0158 0.0000 38.1955
#
#
#
# Elastic Compliance Matrix: (Units=1/GPa)
#
#
# Indices 1 2 3 4 5 6 
#
# 1 0.013012 -0.001602 0.000701 0.000000 0.008001 0.000000
# 2 -0.001602 0.017818 -0.003374 0.000000 0.006269 0.000000
# 3 0.000701 -0.003374 0.008634 0.000000 0.002299 0.000000
# 4 0.000000 0.000000 0.000000 0.031565 0.000000 0.004145
# 5 0.008001 0.006269 0.002299 0.000000 0.045371 0.000000
# 6 0.000000 0.000000 0.000000 0.004145 0.000000 0.026725
#
#
# Mechanical properties :
#
#
# Convention : Reuss Voigt Hill
#
# Bulk Modulus (GPa) = 32.34824 42.40382 37.37603
# Shear Modulus (GPa) = 30.86803 35.62272 33.24537
#
# Velocity S-wave (km/s) = 3.52423 3.78594 3.65743
# Velocity P-wave (km/s) = 5.43839 6.01440 5.73363
#
# Compressibility (1/GPa) = 0.03091359
#
# Stress axis : x y z
#
# Youngs Moduli (GPa) = 76.85295 56.12228 115.82126
#
# Poissons Ratio (x) = 0.08993 -0.08116
# Poissons Ratio (y) = 0.12315 0.39074
# Poissons Ratio (z) = -0.05386 0.18934
#
# Static dielectric constant tensor:
#      x y z
#    x 2.205040 0.000000 -0.198670 
#    y 0.000000 1.965700 0.000000 
#    z -0.198670 0.000000 2.228990 
# 
# From -- ./inp_files/7624.got.cif
#   From: 2010.05.17/outbox.cif.g08.bks.cpg/sg15_4_cif.got.tgz:7624.got - 2010.06.03 18:47:42.
