data_PCOD9288933
_publ_section_title
;
Structure prediction by ZEFSAII (Michael W. Deem and Ramdas Pophale) SiO2 
 PCOD9288933
Probable space group: C 2/C
;
_chemical_formula_sum "Si O2"
_cell_formula_units_Z 44
_cell_length_a 16.116385
_cell_length_b 8.324515
_cell_length_c 16.783545
_cell_angle_alpha 90.000000
_cell_angle_beta 53.576979
_cell_angle_gamma 90.000000
_cell_volume 1811.841271
_symmetry_space_group_name_H-M "C 2/C"
_symmetry_group_IT_number 15
_symmetry_cell_setting 'monoclinic'
loop_
_space_group_symop_operation_xyz
x,y,z
-x,y,1/2-z
-x,-y,-z
x,-y,1/2+z
1/2+x,1/2+y,z
1/2-x,1/2+y,1/2-z
1/2-x,1/2-y,-z
1/2+x,1/2-y,1/2+z
loop_
_atom_site_type_symbol
_atom_site_label
_atom_site_fract_x
_atom_site_fract_y
_atom_site_fract_z
Si Si1 0.204427 0.384078 0.369987
Si Si2 0.943553 0.141524 0.705679
Si Si3 0.177136 0.633837 0.712249
Si Si4 0.331627 0.206328 0.022048
Si Si5 0.443637 0.651592 0.113568
Si Si6 0.500000 0.061175 0.250000
O O1 0.324087 0.336718 0.298198
O O2 0.183424 0.456853 0.293098
O O3 0.179784 0.520614 0.447133
O O4 0.129545 0.228334 0.412629
O O5 0.994680 0.317861 0.678041
O O6 0.000000 0.061128 0.750000
O O7 0.959619 0.036549 0.617822
O O8 0.287553 0.681863 0.617999
O O9 0.121303 0.798771 0.770065
O O10 0.102545 0.543570 0.694535
O O11 0.250000 0.250000 0.000000
O O12 0.449130 0.254764 0.941937
#
# Coordination Sequence:
#
# PCOD9288933 Si02
#       6
#     8   8   8   8   8   4
#     4  10  22  42  72 101 142 188 238 299 360 441
#     4  10  22  39  68 100 136 189 235 294 351 418
#     4  10  24  42  72 100 142 195 238 283 380 419
#     4  12  23  41  74 113 140 184 246 302 360 430
#     4  10  23  40  74  98 140 185 243 291 362 421
#     4  10  24  38  70  96 142 190 242 292 346 432
#
# _framework density 24.284689
#
# number of rings (size 3 to 8) (size 9 to 14) (size 15 to 20)
#    1.636    0.000    1.818    2.727    6.364    0.000 
#    0.000    1.818    4.000    0.000    0.000    0.000 
#    0.000    0.000    0.000    0.000    0.000    0.000 
#
# Total GULP energy -122810.129511 kJ/mol
# GULP energy per Si atom -5582.278614 kJ/mol
# Density = 2.422942 g / cm^3
# Si number density = 24.284689 Si / 1000 Ang^3
#
#
#
# Elastic Constant Matrix: (Units=GPa)
#
#
# Indices 1 2 3 4 5 6 
#
# 1 134.9774 33.3137 25.2237 0.0000 -28.9920 0.0000
# 2 33.3137 83.7896 2.2076 0.0000 2.8758 0.0000
# 3 25.2237 2.2076 52.5947 0.0000 -14.6274 0.0000
# 4 0.0000 0.0000 0.0000 17.6726 0.0000 -0.0384
# 5 -28.9920 2.8758 -14.6274 0.0000 31.9849 0.0000
# 6 0.0000 0.0000 0.0000 -0.0384 0.0000 54.8782
#
#
#
# Elastic Compliance Matrix: (Units=1/GPa)
#
#
# Indices 1 2 3 4 5 6 
#
# 1 0.011005 -0.004627 -0.002513 0.000000 0.009242 0.000000
# 2 -0.004627 0.013955 0.000135 0.000000 -0.005387 0.000000
# 3 -0.002513 0.000135 0.022429 0.000000 0.007967 0.000000
# 4 0.000000 0.000000 0.000000 0.056585 0.000000 0.000040
# 5 0.009242 -0.005387 0.007967 0.000000 0.043770 0.000000
# 6 0.000000 0.000000 0.000000 0.000040 0.000000 0.018222
#
#
# Mechanical properties :
#
#
# Convention : Reuss Voigt Hill
#
# Bulk Modulus (GPa) = 29.95859 43.65021 36.80440
# Shear Modulus (GPa) = 26.16392 34.94826 30.55609
#
# Velocity S-wave (km/s) = 3.28591 3.79767 3.55102
# Velocity P-wave (km/s) = 5.17296 6.10272 5.65697
#
# Compressibility (1/GPa) = 0.03337941
#
# Stress axis : x y z
#
# Youngs Moduli (GPa) = 90.86497 71.65668 44.58559
#
# Poissons Ratio (x) = 0.33152 0.11206
# Poissons Ratio (y) = 0.42039 -0.00602
# Poissons Ratio (z) = 0.22839 -0.00967
#
# Static dielectric constant tensor:
#      x y z
#    x 1.942360 0.000000 0.076380 
#    y 0.000000 1.973860 0.000000 
#    z 0.076380 0.000000 1.945980 
# 
# From -- ./inp_files/246821.got.cif
#   From: 2010.05.17/outbox.cif.g08.bks.cpg/sg15_124_cif.got.tgz:246821.got - 2010.06.03 18:47:42.
