data_PCOD9288028
_publ_section_title
;
Structure prediction by ZEFSAII (Michael W. Deem and Ramdas Pophale) SiO2 
 PCOD9288028
Probable space group: C 2/C
;
_chemical_formula_sum "Si O2"
_cell_formula_units_Z 48
_cell_length_a 18.454359
_cell_length_b 5.115639
_cell_length_c 26.299105
_cell_angle_alpha 90.000000
_cell_angle_beta 106.406925
_cell_angle_gamma 90.000000
_cell_volume 2381.689501
_symmetry_space_group_name_H-M "C 2/C"
_symmetry_group_IT_number 15
_symmetry_cell_setting 'monoclinic'
loop_
_space_group_symop_operation_xyz
x,y,z
-x,y,1/2-z
-x,-y,-z
x,-y,1/2+z
1/2+x,1/2+y,z
1/2-x,1/2+y,1/2-z
1/2-x,1/2-y,-z
1/2+x,1/2-y,1/2+z
loop_
_atom_site_type_symbol
_atom_site_label
_atom_site_fract_x
_atom_site_fract_y
_atom_site_fract_z
Si Si1 0.664017 0.849093 0.633538
Si Si2 0.537953 0.074838 0.809295
Si Si3 0.346364 0.751933 0.622920
Si Si4 0.323324 0.407287 0.708324
Si Si5 0.267446 0.737330 0.062617
Si Si6 0.100312 0.868803 0.669056
O O1 0.740341 0.797267 0.681621
O O2 0.694005 0.832221 0.581966
O O3 0.603754 0.630284 0.636770
O O4 0.634224 0.131831 0.643087
O O5 0.500000 0.964700 0.750000
O O6 0.568520 0.853896 0.853241
O O7 0.611256 0.235583 0.805412
O O8 0.479037 0.267277 0.824472
O O9 0.323176 0.677337 0.676367
O O10 0.327740 0.491737 0.587492
O O11 0.298681 0.986722 0.589221
O O12 0.347756 0.419585 0.771054
O O13 0.250000 0.750000 0.000000
#
# Coordination Sequence:
#
# PCOD9288028 Si02
#       6
#     8   8   8   8   8   8
#     4  11  22  39  59  91 124 162 214 273 322 365
#     4  10  23  39  61  94 134 183 207 241 310 408
#     4  11  21  40  66  95 124 164 228 260 309 382
#     4  10  22  38  62  88 131 174 216 242 306 395
#     4  11  24  43  71  94 118 166 231 289 323 368
#     4  11  25  35  59  94 137 168 199 255 323 388
#
# _framework density 20.153759999999998
#
# number of rings (size 3 to 8) (size 9 to 14) (size 15 to 20)
#    0.000    1.333    3.333    3.500    7.000    0.667 
#    0.000    0.000    0.000    6.000    0.000    0.000 
#    0.000    0.000    0.000    0.000    0.000    0.000 
#
# Total GULP energy -134070.721509 kJ/mol
# GULP energy per Si atom -5586.280063 kJ/mol
# Density = 2.010789 g / cm^3
# Si number density = 20.153760 Si / 1000 Ang^3
#
#
#
# Elastic Constant Matrix: (Units=GPa)
#
#
# Indices 1 2 3 4 5 6 
#
# 1 61.9156 23.6376 8.4862 0.0000 -7.1225 0.0000
# 2 23.6376 131.0867 61.5883 -0.0001 4.7925 0.0000
# 3 8.4862 61.5883 122.0727 0.0000 -4.2089 0.0000
# 4 0.0000 -0.0001 0.0000 24.9129 0.0000 -2.1910
# 5 -7.1225 4.7925 -4.2089 0.0000 17.3581 0.0000
# 6 0.0000 0.0000 0.0000 -2.1910 0.0000 35.1359
#
#
#
# Elastic Compliance Matrix: (Units=1/GPa)
#
#
# Indices 1 2 3 4 5 6 
#
# 1 0.018659 -0.004241 0.001157 0.000000 0.009108 0.000000
# 2 -0.004241 0.011248 -0.005594 0.000000 -0.006202 0.000000
# 3 0.001157 -0.005594 0.011096 0.000000 0.004710 0.000000
# 4 0.000000 0.000000 0.000000 0.040361 0.000000 0.002517
# 5 0.009108 -0.006202 0.004710 0.000000 0.064202 0.000000
# 6 0.000000 0.000000 0.000000 0.002517 0.000000 0.028618
#
#
# Mechanical properties :
#
#
# Convention : Reuss Voigt Hill
#
# Bulk Modulus (GPa) = 42.28909 55.83325 49.06117
# Shear Modulus (GPa) = 25.07227 30.23891 27.65559
#
# Velocity S-wave (km/s) = 3.53093 3.87772 3.70838
# Velocity P-wave (km/s) = 6.13613 6.91467 6.53700
#
# Compressibility (1/GPa) = 0.02364676
#
# Stress axis : x y z
#
# Youngs Moduli (GPa) = 53.59255 88.90268 90.12163
#
# Poissons Ratio (x) = 0.37704 -0.10423
# Poissons Ratio (y) = 0.22729 0.50414
# Poissons Ratio (z) = -0.06198 0.49732
#
# Static dielectric constant tensor:
#      x y z
#    x 1.745260 0.000000 -0.002780 
#    y 0.000000 1.777990 0.000000 
#    z -0.002780 0.000000 1.695470 
# 
# From -- ./inp_files/275669.got.cif
#   From: 2010.05.17/outbox.cif.g08.bks.cpg/sg15_138_cif.got.tgz:275669.got - 2010.06.03 18:47:42.
