data_PCOD9288585
_publ_section_title
;
Structure prediction by ZEFSAII (Michael W. Deem and Ramdas Pophale) SiO2 
 PCOD9288585
Probable space group: C 2/C
;
_chemical_formula_sum "Si O2"
_cell_formula_units_Z 44
_cell_length_a 19.173576
_cell_length_b 11.732116
_cell_length_c 8.415067
_cell_angle_alpha 90.000000
_cell_angle_beta 78.786972
_cell_angle_gamma 90.000000
_cell_volume 1856.806445
_symmetry_space_group_name_H-M "C 2/C"
_symmetry_group_IT_number 15
_symmetry_cell_setting 'monoclinic'
loop_
_space_group_symop_operation_xyz
x,y,z
-x,y,1/2-z
-x,-y,-z
x,-y,1/2+z
1/2+x,1/2+y,z
1/2-x,1/2+y,1/2-z
1/2-x,1/2-y,-z
1/2+x,1/2-y,1/2+z
loop_
_atom_site_type_symbol
_atom_site_label
_atom_site_fract_x
_atom_site_fract_y
_atom_site_fract_z
Si Si1 0.107637 0.583397 0.953568
Si Si2 0.500000 0.002702 0.250000
Si Si3 0.542498 0.348661 0.485226
Si Si4 0.294217 0.260887 0.737835
Si Si5 0.654248 0.172299 0.437829
Si Si6 0.592321 0.570238 0.310825
O O1 0.049856 0.577451 0.836549
O O2 0.166512 0.680017 0.905112
O O3 0.148482 0.462504 0.931173
O O4 0.056812 0.577998 0.128733
O O5 0.577027 0.226962 0.445710
O O6 0.573725 0.439355 0.347611
O O7 0.458389 0.360322 0.543835
O O8 0.570721 0.394179 0.643265
O O9 0.210172 0.274278 0.789293
O O10 0.328032 0.386629 0.702635
O O11 0.319416 0.209637 0.897939
#
# Coordination Sequence:
#
# PCOD9288585 Si02
#       6
#     8   4   8   8   8   8
#     4  11  22  42  62  98 121 166 208 260 315 370
#     4  10  24  38  68  90 130 154 208 272 308 372
#     4   9  19  36  57  82 111 153 197 238 288 351
#     4  10  22  39  62  87 125 166 200 248 313 378
#     4  10  22  39  62  87 125 166 200 248 313 378
#     4   9  19  36  57  82 111 153 197 238 288 351
#
# _framework density 23.6966
#
# number of rings (size 3 to 8) (size 9 to 14) (size 15 to 20)
#    0.000    2.182    1.818    0.000    7.636    0.000 
#    3.273    0.909    0.000    0.000    0.000    0.000 
#    0.000    0.000    0.000    0.000    0.000    0.000 
#
# Total GULP energy -122998.317171 kJ/mol
# GULP energy per Si atom -5590.832599 kJ/mol
# Density = 2.364267 g / cm^3
# Si number density = 23.696600 Si / 1000 Ang^3
#
#
#
# Elastic Constant Matrix: (Units=GPa)
#
#
# Indices 1 2 3 4 5 6 
#
# 1 54.2521 12.0461 26.9959 0.0000 -26.6725 0.0000
# 2 12.0461 62.4269 24.2343 0.0000 -13.4265 0.0000
# 3 26.9959 24.2343 92.9504 0.0000 -24.6077 0.0000
# 4 0.0000 0.0000 0.0000 32.5495 0.0000 -11.7148
# 5 -26.6725 -13.4265 -24.6077 0.0000 31.9292 0.0000
# 6 0.0000 0.0000 0.0000 -11.7148 0.0000 22.5664
#
#
#
# Elastic Compliance Matrix: (Units=1/GPa)
#
#
# Indices 1 2 3 4 5 6 
#
# 1 0.031839 0.000222 -0.002813 0.000000 0.024523 0.000000
# 2 0.000222 0.018460 -0.003484 0.000000 0.005263 0.000000
# 3 -0.002813 -0.003484 0.014415 0.000000 0.007295 0.000000
# 4 0.000000 0.000000 0.000000 0.037781 0.000000 0.019613
# 5 0.024523 0.005263 0.007295 0.000000 0.059640 0.000000
# 6 0.000000 0.000000 0.000000 0.019613 0.000000 0.054495
#
#
# Mechanical properties :
#
#
# Convention : Reuss Voigt Hill
#
# Bulk Modulus (GPa) = 19.02402 37.35355 28.18879
# Shear Modulus (GPa) = 20.30021 27.16590 23.73305
#
# Velocity S-wave (km/s) = 2.93007 3.38953 3.16814
# Velocity P-wave (km/s) = 4.41505 5.57818 5.03034
#
# Compressibility (1/GPa) = 0.05256513
#
# Stress axis : x y z
#
# Youngs Moduli (GPa) = 31.40775 54.16996 69.37211
#
# Poissons Ratio (x) = -0.01205 0.19514
# Poissons Ratio (y) = -0.00699 0.24171
# Poissons Ratio (z) = 0.08835 0.18874
#
# Static dielectric constant tensor:
#      x y z
#    x 1.876020 0.000000 0.024960 
#    y 0.000000 1.875150 0.000000 
#    z 0.024960 0.000000 1.943730 
# 
# From -- ./inp_files/54335.got.cif
#   From: 2010.05.17/outbox.cif.g08.bks.cpg/sg15_28_cif.got.tgz:54335.got - 2010.06.03 18:47:42.
