data_PCOD9288145
_publ_section_title
;
Structure prediction by ZEFSAII (Michael W. Deem and Ramdas Pophale) SiO2 
 PCOD9288145
Probable space group: C 2/C
;
_chemical_formula_sum "Si O2"
_cell_formula_units_Z 52
_cell_length_a 9.726327
_cell_length_b 14.041192
_cell_length_c 19.464518
_cell_angle_alpha 90.000000
_cell_angle_beta 60.524098
_cell_angle_gamma 90.000000
_cell_volume 2314.176970
_symmetry_space_group_name_H-M "C 2/C"
_symmetry_group_IT_number 15
_symmetry_cell_setting 'monoclinic'
loop_
_space_group_symop_operation_xyz
x,y,z
-x,y,1/2-z
-x,-y,-z
x,-y,1/2+z
1/2+x,1/2+y,z
1/2-x,1/2+y,1/2-z
1/2-x,1/2-y,-z
1/2+x,1/2-y,1/2+z
loop_
_atom_site_type_symbol
_atom_site_label
_atom_site_fract_x
_atom_site_fract_y
_atom_site_fract_z
Si Si1 0.000000 0.160539 0.750000
Si Si2 0.391944 0.959883 0.935623
Si Si3 0.445021 0.553372 0.945280
Si Si4 0.647604 0.089877 0.824649
Si Si5 0.355745 0.713856 0.244829
Si Si6 0.756588 0.039641 0.181166
Si Si7 0.037567 0.255184 0.886780
O O1 0.998196 0.226554 0.817910
O O2 0.167097 0.104594 0.702262
O O3 0.522976 0.042754 0.907420
O O4 0.316740 0.960214 0.876686
O O5 0.469588 0.856312 0.925121
O O6 0.237836 0.969848 0.021390
O O7 0.574350 0.515057 0.860318
O O8 0.470548 0.666674 0.946335
O O9 0.500000 0.500000 0.000000
O O10 0.650079 0.016895 0.760695
O O11 0.593491 0.191334 0.808080
O O12 0.500000 0.668308 0.250000
O O13 0.283443 0.642865 0.206802
O O14 0.226624 0.740773 0.334403
#
# Coordination Sequence:
#
# PCOD9288145 Si02
#       7
#     4   8   8   8   8   8   8
#     4  10  22  38  64  92 130 152 210 276 318 338
#     4  11  22  38  65  89 121 167 214 243 313 378
#     4  10  23  40  63  88 129 167 203 250 314 380
#     4  11  22  37  64  91 124 161 212 259 305 378
#     4  11  23  36  63  95 125 155 209 268 309 355
#     4  11  21  39  61  91 123 167 203 260 305 366
#     4  11  21  40  63  93 120 164 208 266 305 366
#
# _framework density 22.470189999999999
#
# number of rings (size 3 to 8) (size 9 to 14) (size 15 to 20)
#    0.000    1.231    4.615    3.692    3.231    0.000 
#    0.000    1.538    3.385    0.000    0.000    0.000 
#    0.000    0.000    0.000    0.000    0.000    0.000 
#
# Total GULP energy -145267.454691 kJ/mol
# GULP energy per Si atom -5587.209796 kJ/mol
# Density = 2.241905 g / cm^3
# Si number density = 22.470190 Si / 1000 Ang^3
#
#
#
# Elastic Constant Matrix: (Units=GPa)
#
#
# Indices 1 2 3 4 5 6 
#
# 1 98.8643 8.0282 16.4753 0.0000 -19.4741 0.0000
# 2 8.0282 110.1882 9.3856 0.0000 -17.2324 0.0000
# 3 16.4753 9.3856 55.8344 0.0000 -32.6355 0.0000
# 4 0.0000 0.0000 0.0000 25.1388 0.0000 8.5459
# 5 -19.4741 -17.2324 -32.6355 0.0000 37.7925 0.0000
# 6 0.0000 0.0000 0.0000 8.5459 0.0000 9.8037
#
#
#
# Elastic Compliance Matrix: (Units=1/GPa)
#
#
# Indices 1 2 3 4 5 6 
#
# 1 0.011259 0.000102 0.000159 0.000000 0.005986 0.000000
# 2 0.000102 0.009879 0.001964 0.000000 0.006253 0.000000
# 3 0.000159 0.001964 0.036556 0.000000 0.032546 0.000000
# 4 0.000000 0.000000 0.000000 0.056531 0.000000 -0.049278
# 5 0.005986 0.006253 0.032546 0.000000 0.060501 0.000000
# 6 0.000000 0.000000 0.000000 -0.049278 0.000000 0.144957
#
#
# Mechanical properties :
#
#
# Convention : Reuss Voigt Hill
#
# Bulk Modulus (GPa) = 16.09121 36.96280 26.52700
# Shear Modulus (GPa) = 14.88335 29.94685 22.41510
#
# Velocity S-wave (km/s) = 2.57643 3.65463 3.16183
# Velocity P-wave (km/s) = 4.00341 5.85609 5.01603
#
# Compressibility (1/GPa) = 0.06214573
#
# Stress axis : x y z
#
# Youngs Moduli (GPa) = 88.81689 101.22904 27.35537
#
# Poissons Ratio (x) = -0.01035 -0.00436
# Poissons Ratio (y) = -0.00908 -0.05374
# Poissons Ratio (z) = -0.01415 -0.19886
#
# Static dielectric constant tensor:
#      x y z
#    x 1.878060 0.000000 -0.009850 
#    y 0.000000 1.811100 0.000000 
#    z -0.009850 0.000000 1.896610 
# 
# From -- ./inp_files/269701.got.cif
#   From: 2010.05.17/outbox.cif.g08.bks.cpg/sg15_135_cif.got.tgz:269701.got - 2010.06.03 18:47:42.
