data_PCOD9288228
_publ_section_title
;
Structure prediction by ZEFSAII (Michael W. Deem and Ramdas Pophale) SiO2 
 PCOD9288228
Probable space group: C 2/C
;
_chemical_formula_sum "Si O2"
_cell_formula_units_Z 24
_cell_length_a 13.800090
_cell_length_b 8.241731
_cell_length_c 10.629853
_cell_angle_alpha 90.000000
_cell_angle_beta 43.923807
_cell_angle_gamma 90.000000
_cell_volume 838.687242
_symmetry_space_group_name_H-M "C 2/C"
_symmetry_group_IT_number 15
_symmetry_cell_setting 'monoclinic'
loop_
_space_group_symop_operation_xyz
x,y,z
-x,y,1/2-z
-x,-y,-z
x,-y,1/2+z
1/2+x,1/2+y,z
1/2-x,1/2+y,1/2-z
1/2-x,1/2-y,-z
1/2+x,1/2-y,1/2+z
loop_
_atom_site_type_symbol
_atom_site_label
_atom_site_fract_x
_atom_site_fract_y
_atom_site_fract_z
Si Si1 0.724643 0.047741 0.082657
Si Si2 0.929317 0.338133 0.972949
Si Si3 0.457382 0.632728 0.434491
O O1 0.681321 0.029777 0.976288
O O2 0.582946 0.116821 0.276050
O O3 0.847525 0.180953 0.990462
O O4 0.790434 0.887292 0.081285
O O5 0.971662 0.291559 0.074165
O O6 0.500000 0.607784 0.250000
O O7 0.500000 0.500000 0.500000
#
# Coordination Sequence:
#
# PCOD9288228 Si02
#       3
#     8   8   8
#     4   9  19  36  66  92 125 176 212 255 332 388
#     4   9  19  36  65  90 125 171 214 258 319 386
#     4  10  22  38  65  96 128 174 213 261 330 389
#
# _framework density 28.616149
#
# number of rings (size 3 to 8) (size 9 to 14) (size 15 to 20)
#    0.000    2.667    0.000    0.000   28.000    0.000 
#    0.000    8.333    7.333    6.000    0.000    0.000 
#    0.000    0.000    0.000    0.000    0.000    0.000 
#
# Total GULP energy -66899.572965 kJ/mol
# GULP energy per Si atom -5574.964414 kJ/mol
# Density = 2.855102 g / cm^3
# Si number density = 28.616149 Si / 1000 Ang^3
#
#
#
# Elastic Constant Matrix: (Units=GPa)
#
#
# Indices 1 2 3 4 5 6 
#
# 1 336.8673 100.8301 97.5032 0.0000 -1.6098 0.0000
# 2 100.8301 69.9228 48.3962 0.0000 -8.4670 0.0000
# 3 97.5032 48.3962 150.4699 0.0000 -11.8212 0.0000
# 4 0.0000 0.0000 0.0000 25.1574 0.0000 -12.7159
# 5 -1.6098 -8.4670 -11.8212 0.0000 64.2452 0.0000
# 6 0.0000 0.0000 0.0000 -12.7159 0.0000 84.5913
#
#
#
# Elastic Compliance Matrix: (Units=1/GPa)
#
#
# Indices 1 2 3 4 5 6 
#
# 1 0.005476 -0.007088 -0.001351 0.000000 -0.001046 0.000000
# 2 -0.007088 0.027689 -0.004099 0.000000 0.002717 0.000000
# 3 -0.001351 -0.004099 0.008923 0.000000 0.001068 0.000000
# 4 0.000000 0.000000 0.000000 0.043018 0.000000 0.006467
# 5 -0.001046 0.002717 0.001068 0.000000 0.016094 0.000000
# 6 0.000000 0.000000 0.000000 0.006467 0.000000 0.012794
#
#
# Mechanical properties :
#
#
# Convention : Reuss Voigt Hill
#
# Bulk Modulus (GPa) = 58.78084 116.74655 87.76370
# Shear Modulus (GPa) = 34.54416 55.50080 45.02248
#
# Velocity S-wave (km/s) = 3.47818 4.40874 3.97082
# Velocity P-wave (km/s) = 6.05938 8.17325 7.19438
#
# Compressibility (1/GPa) = 0.01701235
#
# Stress axis : x y z
#
# Youngs Moduli (GPa) = 182.60827 36.11490 112.06437
#
# Poissons Ratio (x) = 0.25600 0.15137
# Poissons Ratio (y) = 1.29441 0.45936
# Poissons Ratio (z) = 0.24666 0.14804
#
# Static dielectric constant tensor:
#      x y z
#    x 2.259920 0.000000 0.218910 
#    y 0.000000 2.611720 0.000000 
#    z 0.218910 0.000000 2.547760 
# 
# From -- ./inp_files/93697.got.cif
#   From: 2010.05.17/outbox.cif.g08.bks.cpg/sg15_47_cif.got.tgz:93697.got - 2010.06.03 18:47:42.
