data_PCOD9288199
_publ_section_title
;
Structure prediction by ZEFSAII (Michael W. Deem and Ramdas Pophale) SiO2 
 PCOD9288199
Probable space group: C 2/C
;
_chemical_formula_sum "Si O2"
_cell_formula_units_Z 32
_cell_length_a 11.513757
_cell_length_b 11.032264
_cell_length_c 11.514963
_cell_angle_alpha 90.000000
_cell_angle_beta 126.386569
_cell_angle_gamma 90.000000
_cell_volume 1177.491746
_symmetry_space_group_name_H-M "C 2/C"
_symmetry_group_IT_number 15
_symmetry_cell_setting 'monoclinic'
loop_
_space_group_symop_operation_xyz
x,y,z
-x,y,1/2-z
-x,-y,-z
x,-y,1/2+z
1/2+x,1/2+y,z
1/2-x,1/2+y,1/2-z
1/2-x,1/2-y,-z
1/2+x,1/2-y,1/2+z
loop_
_atom_site_type_symbol
_atom_site_label
_atom_site_fract_x
_atom_site_fract_y
_atom_site_fract_z
Si Si1 0.847633 0.589955 0.621972
Si Si2 0.684668 0.278859 0.698326
Si Si3 0.536287 0.514584 0.386071
Si Si4 0.036302 0.359442 0.544537
O O1 0.801003 0.663669 0.707894
O O2 0.709534 0.519523 0.495215
O O3 0.889687 0.674101 0.536780
O O4 0.000000 0.530484 0.750000
O O5 0.579931 0.374813 0.700197
O O6 0.842637 0.336606 0.787780
O O7 0.603264 0.226652 0.536986
O O8 0.500000 0.435645 0.250000
O O9 0.500000 0.500000 0.500000
O O10 0.000000 0.500000 0.500000
#
# Coordination Sequence:
#
# PCOD9288199 Si02
#       4
#     8   8   8   8
#     4  10  22  38  65 101 136 175 246 302 356 420
#     4  11  22  40  66 102 139 180 246 304 357 430
#     4  12  25  42  69 106 144 188 241 305 371 441
#     4  11  23  37  66 103 143 180 242 309 367 424
#
# _framework density 27.176411000000002
#
# number of rings (size 3 to 8) (size 9 to 14) (size 15 to 20)
#    0.000    1.000    5.000    3.000    7.000    0.000 
#    0.000    0.000    0.000   10.500    0.000    0.000 
#    0.000    0.000    0.000    0.000    0.000    0.000 
#
# Total GULP energy -89246.397621 kJ/mol
# GULP energy per Si atom -5577.899851 kJ/mol
# Density = 2.711456 g / cm^3
# Si number density = 27.176411 Si / 1000 Ang^3
#
#
#
# Elastic Constant Matrix: (Units=GPa)
#
#
# Indices 1 2 3 4 5 6 
#
# 1 62.4515 17.4387 73.3108 0.0000 13.1798 0.0000
# 2 17.4387 65.2965 46.1489 0.0000 31.4786 0.0000
# 3 73.3108 46.1489 275.3513 0.0000 57.1486 0.0000
# 4 0.0000 0.0000 0.0000 22.2162 0.0000 3.2607
# 5 13.1798 31.4786 57.1486 0.0000 62.8324 0.0000
# 6 0.0000 0.0000 0.0000 3.2607 0.0000 40.4694
#
#
#
# Elastic Compliance Matrix: (Units=1/GPa)
#
#
# Indices 1 2 3 4 5 6 
#
# 1 0.023754 -0.002973 -0.006288 0.000000 0.002226 0.000000
# 2 -0.002973 0.021140 -0.000842 0.000000 -0.009202 0.000000
# 3 -0.006288 -0.000842 0.006269 0.000000 -0.003961 0.000000
# 4 0.000000 0.000000 0.000000 0.045551 0.000000 -0.003670
# 5 0.002226 -0.009202 -0.003961 0.000000 0.023661 0.000000
# 6 0.000000 0.000000 0.000000 -0.003670 0.000000 0.025006
#
#
# Mechanical properties :
#
#
# Convention : Reuss Voigt Hill
#
# Bulk Modulus (GPa) = 32.30242 75.21067 53.75655
# Shear Modulus (GPa) = 28.42422 42.85031 35.63727
#
# Velocity S-wave (km/s) = 3.23757 3.97513 3.62516
# Velocity P-wave (km/s) = 5.08801 6.98599 6.11113
#
# Compressibility (1/GPa) = 0.03095743
#
# Stress axis : x y z
#
# Youngs Moduli (GPa) = 42.09736 47.30452 159.51063
#
# Poissons Ratio (x) = 0.14064 1.00304
# Poissons Ratio (y) = 0.12516 0.13426
# Poissons Ratio (z) = 0.26472 0.03981
#
# Static dielectric constant tensor:
#      x y z
#    x 2.234940 0.000000 -0.020170 
#    y 0.000000 2.247440 0.000000 
#    z -0.020170 0.000000 2.287390 
# 
# From -- ./inp_files/151641.got.cif
#   From: 2010.05.17/outbox.cif.g08.bks.cpg/sg15_76_cif.got.tgz:151641.got - 2010.06.03 18:47:42.
