data_PCOD9288825
_publ_section_title
;
Structure prediction by ZEFSAII (Michael W. Deem and Ramdas Pophale) SiO2 
 PCOD9288825
Probable space group: C 2/C
;
_chemical_formula_sum "Si O2"
_cell_formula_units_Z 52
_cell_length_a 18.561989
_cell_length_b 16.284209
_cell_length_c 8.612450
_cell_angle_alpha 90.000000
_cell_angle_beta 60.994963
_cell_angle_gamma 90.000000
_cell_volume 2276.753356
_symmetry_space_group_name_H-M "C 2/C"
_symmetry_group_IT_number 15
_symmetry_cell_setting 'monoclinic'
loop_
_space_group_symop_operation_xyz
x,y,z
-x,y,1/2-z
-x,-y,-z
x,-y,1/2+z
1/2+x,1/2+y,z
1/2-x,1/2+y,1/2-z
1/2-x,1/2-y,-z
1/2+x,1/2-y,1/2+z
loop_
_atom_site_type_symbol
_atom_site_label
_atom_site_fract_x
_atom_site_fract_y
_atom_site_fract_z
Si Si1 0.325084 0.238814 0.794622
Si Si2 0.385865 0.071170 0.132469
Si Si3 0.250910 0.829976 0.891130
Si Si4 0.732863 0.079185 0.819176
Si Si5 0.000000 0.955846 0.250000
Si Si6 0.915991 0.092231 0.546799
Si Si7 0.000000 0.522189 0.750000
Si Si8 0.000000 0.226779 0.250000
O O1 0.312854 0.313546 0.682221
O O2 0.315899 0.155337 0.704889
O O3 0.416572 0.234663 0.768139
O O4 0.250000 0.250000 0.000000
O O5 0.316910 0.004434 0.153656
O O6 0.434638 0.035065 0.228770
O O7 0.339100 0.154987 0.217534
O O8 0.452030 0.075075 0.926674
O O9 0.250000 0.750000 0.000000
O O10 0.247710 0.903847 0.019284
O O11 0.818672 0.084950 0.639677
O O12 0.949510 0.013649 0.419037
O O13 0.059612 0.906201 0.298600
O O14 0.959933 0.168699 0.423072
#
# Coordination Sequence:
#
# PCOD9288825 Si02
#       8
#     8   8   8   8   4   8   4   4
#     4  11  25  47  68 101 142 186 251 306 374 447
#     4  11  23  45  72 110 146 196 248 308 377 450
#     4  10  25  47  71 102 145 190 244 307 369 436
#     4  11  24  43  69 105 139 192 240 302 375 445
#     4   9  22  38  60 104 136 177 226 302 351 434
#     4  10  22  39  65  99 139 180 238 292 368 432
#     4  10  24  41  68 112 153 190 256 306 371 446
#     4  11  24  45  68  98 137 195 236 304 372 448
#
# _framework density 22.83954
#
# number of rings (size 3 to 8) (size 9 to 14) (size 15 to 20)
#    0.000    1.538    3.077    0.000    6.462    3.077 
#    2.769    0.000    0.000    0.000    0.000    0.000 
#    0.000    0.000    0.000    0.000    0.000    0.000 
#
# Total GULP energy -145297.663012 kJ/mol
# GULP energy per Si atom -5588.371654 kJ/mol
# Density = 2.278756 g / cm^3
# Si number density = 22.839540 Si / 1000 Ang^3
#
#
#
# Elastic Constant Matrix: (Units=GPa)
#
#
# Indices 1 2 3 4 5 6 
#
# 1 171.6937 40.9732 54.4707 0.0000 -1.8628 0.0000
# 2 40.9732 51.0777 22.9227 0.0000 3.2366 0.0000
# 3 54.4707 22.9227 101.1006 0.0000 0.5127 0.0000
# 4 0.0000 0.0000 0.0000 38.2723 0.0000 -4.2959
# 5 -1.8628 3.2366 0.5127 0.0000 47.7841 0.0000
# 6 0.0000 0.0000 0.0000 -4.2959 0.0000 30.9661
#
#
#
# Elastic Compliance Matrix: (Units=1/GPa)
#
#
# Indices 1 2 3 4 5 6 
#
# 1 0.008056 -0.005073 -0.003194 0.000000 0.000692 0.000000
# 2 -0.005073 0.025087 -0.002946 0.000000 -0.001865 0.000000
# 3 -0.003194 -0.002946 0.012280 0.000000 -0.000057 0.000000
# 4 0.000000 0.000000 0.000000 0.026542 0.000000 0.003682
# 5 0.000692 -0.001865 -0.000057 0.000000 0.021081 0.000000
# 6 0.000000 0.000000 0.000000 0.003682 0.000000 0.032804
#
#
# Mechanical properties :
#
#
# Convention : Reuss Voigt Hill
#
# Bulk Modulus (GPa) = 43.47975 62.28946 52.88460
# Shear Modulus (GPa) = 32.06361 37.10484 34.58423
#
# Velocity S-wave (km/s) = 3.75088 4.03499 3.89553
# Velocity P-wave (km/s) = 6.15120 7.00286 6.59080
#
# Compressibility (1/GPa) = 0.02299921
#
# Stress axis : x y z
#
# Youngs Moduli (GPa) = 124.13838 39.86086 81.43403
#
# Poissons Ratio (x) = 0.20220 0.26006
# Poissons Ratio (y) = 0.62970 0.23987
# Poissons Ratio (z) = 0.39644 0.11741
#
# Static dielectric constant tensor:
#      x y z
#    x 1.791060 0.000000 0.038830 
#    y 0.000000 1.881970 0.000000 
#    z 0.038830 0.000000 1.858430 
# 
# From -- ./inp_files/48973.got.cif
#   From: 2010.05.17/outbox.cif.g08.bks.cpg/sg15_25_cif.got.tgz:48973.got - 2010.06.03 18:47:42.
