data_PCOD9288607
_publ_section_title
;
Structure prediction by ZEFSAII (Michael W. Deem and Ramdas Pophale) SiO2 
 PCOD9288607
Probable space group: C 2/C
;
_chemical_formula_sum "Si O2"
_cell_formula_units_Z 56
_cell_length_a 20.704799
_cell_length_b 13.062779
_cell_length_c 9.762152
_cell_angle_alpha 90.000000
_cell_angle_beta 123.904362
_cell_angle_gamma 90.000000
_cell_volume 2191.363707
_symmetry_space_group_name_H-M "C 2/C"
_symmetry_group_IT_number 15
_symmetry_cell_setting 'monoclinic'
loop_
_space_group_symop_operation_xyz
x,y,z
-x,y,1/2-z
-x,-y,-z
x,-y,1/2+z
1/2+x,1/2+y,z
1/2-x,1/2+y,1/2-z
1/2-x,1/2-y,-z
1/2+x,1/2-y,1/2+z
loop_
_atom_site_type_symbol
_atom_site_label
_atom_site_fract_x
_atom_site_fract_y
_atom_site_fract_z
Si Si1 0.524612 0.386260 0.138681
Si Si2 0.724882 0.977853 0.347618
Si Si3 0.210893 0.742640 0.776907
Si Si4 0.153734 0.359817 0.929140
Si Si5 0.134075 0.958920 0.675604
Si Si6 0.071680 0.521022 0.987776
Si Si7 0.888425 0.269770 0.914280
O O1 0.500000 0.329445 0.250000
O O2 0.597011 0.464700 0.244257
O O3 0.552023 0.321446 0.039850
O O4 0.443397 0.437149 0.002410
O O5 0.703784 0.860819 0.358350
O O6 0.722576 0.060777 0.466396
O O7 0.800917 0.989470 0.344322
O O8 0.652027 0.010906 0.167645
O O9 0.177917 0.708986 0.587095
O O10 0.169619 0.849506 0.766023
O O11 0.303327 0.753433 0.872771
O O12 0.130067 0.297383 0.767746
O O13 0.084258 0.436807 0.887554
O O14 0.070648 0.640118 0.952831
O O15 0.000000 0.500000 0.000000
#
# Coordination Sequence:
#
# PCOD9288607 Si02
#       7
#     8   8   8   8   8   8   8
#     4  11  26  40  67  95 131 174 216 265 316 396
#     4  10  22  39  62  92 124 162 211 263 323 374
#     4  11  21  41  67  91 123 164 211 271 313 378
#     4  10  22  39  65  93 120 169 212 265 317 385
#     4  11  23  44  62  96 134 165 212 271 326 371
#     4  10  23  38  57  90 132 156 199 277 317 366
#     4  11  22  39  64  98 118 166 217 258 321 379
#
# _framework density 25.554864999999999
#
# number of rings (size 3 to 8) (size 9 to 14) (size 15 to 20)
#    0.000    1.429    4.286    1.286    8.000    1.714 
#    0.000    3.571    0.000    0.000    0.000    0.000 
#    0.000    0.000    0.000    0.000    0.000    0.000 
#
# Total GULP energy -156537.312106 kJ/mol
# GULP energy per Si atom -5590.618289 kJ/mol
# Density = 2.549670 g / cm^3
# Si number density = 25.554865 Si / 1000 Ang^3
#
#
#
# Elastic Constant Matrix: (Units=GPa)
#
#
# Indices 1 2 3 4 5 6 
#
# 1 143.0650 35.2164 31.5269 0.0000 37.1237 0.0000
# 2 35.2164 123.4023 -11.0358 0.0000 10.9508 0.0000
# 3 31.5269 -11.0358 62.3101 0.0000 2.6175 0.0000
# 4 0.0000 0.0000 0.0000 3.6265 0.0000 2.6714
# 5 37.1237 10.9508 2.6175 0.0000 37.3017 0.0000
# 6 0.0000 0.0000 0.0000 2.6714 0.0000 51.4196
#
#
#
# Elastic Compliance Matrix: (Units=1/GPa)
#
#
# Indices 1 2 3 4 5 6 
#
# 1 0.011748 -0.002970 -0.006033 0.000000 -0.010397 0.000000
# 2 -0.002970 0.009229 0.003136 0.000000 0.000026 0.000000
# 3 -0.006033 0.003136 0.019501 0.000000 0.003716 0.000000
# 4 0.000000 0.000000 0.000000 0.286720 0.000000 -0.014896
# 5 -0.010397 0.000026 0.003716 0.000000 0.036887 0.000000
# 6 0.000000 0.000000 0.000000 -0.014896 0.000000 0.020222
#
#
# Mechanical properties :
#
#
# Convention : Reuss Voigt Hill
#
# Bulk Modulus (GPa) = 34.78958 48.91026 41.84992
# Shear Modulus (GPa) = 12.32671 36.67423 24.50047
#
# Velocity S-wave (km/s) = 2.19866 3.79240 3.09971
# Velocity P-wave (km/s) = 4.48204 6.19333 5.40583
#
# Compressibility (1/GPa) = 0.02874424
#
# Stress axis : x y z
#
# Youngs Moduli (GPa) = 85.11849 108.35166 51.27979
#
# Poissons Ratio (x) = 0.32177 0.30940
# Poissons Ratio (y) = 0.25277 -0.16082
# Poissons Ratio (z) = 0.51356 -0.33980
#
# Static dielectric constant tensor:
#      x y z
#    x 1.963320 0.000000 -0.045810 
#    y 0.000000 2.163070 0.000000 
#    z -0.045810 0.000000 2.077410 
# 
# From -- ./inp_files/105798.got.cif
#   From: 2010.05.17/outbox.cif.g08.bks.cpg/sg15_53_cif.got.tgz:105798.got - 2010.06.03 18:47:42.
