data_PCOD9288743
_publ_section_title
;
Structure prediction by ZEFSAII (Michael W. Deem and Ramdas Pophale) SiO2 
 PCOD9288743
Probable space group: C 2/C
;
_chemical_formula_sum "Si O2"
_cell_formula_units_Z 36
_cell_length_a 13.179251
_cell_length_b 4.662585
_cell_length_c 21.155580
_cell_angle_alpha 90.000000
_cell_angle_beta 105.135840
_cell_angle_gamma 90.000000
_cell_volume 1254.899665
_symmetry_space_group_name_H-M "C 2/C"
_symmetry_group_IT_number 15
_symmetry_cell_setting 'monoclinic'
loop_
_space_group_symop_operation_xyz
x,y,z
-x,y,1/2-z
-x,-y,-z
x,-y,1/2+z
1/2+x,1/2+y,z
1/2-x,1/2+y,1/2-z
1/2-x,1/2-y,-z
1/2+x,1/2-y,1/2+z
loop_
_atom_site_type_symbol
_atom_site_label
_atom_site_fract_x
_atom_site_fract_y
_atom_site_fract_z
Si Si1 0.058392 0.531767 0.913891
Si Si2 0.500000 0.869827 0.250000
Si Si3 0.867889 0.205469 0.455492
Si Si4 0.598083 0.676550 0.701375
Si Si5 0.745981 0.208935 0.117797
O O1 0.122474 0.335615 0.973543
O O2 0.137135 0.711077 0.882853
O O3 0.984784 0.328569 0.859838
O O4 0.979766 0.735567 0.940594
O O5 0.442882 0.636800 0.287034
O O6 0.407939 0.117750 0.238771
O O7 0.830460 0.881862 0.443208
O O8 0.783042 0.381664 0.400336
O O9 0.705787 0.702002 0.680348
#
# Coordination Sequence:
#
# PCOD9288743 Si02
#       5
#     8   4   8   8   8
#     4  10  22  39  64  92 126 165 199 237 297 366
#     4  10  22  44  62  84 118 152 204 274 310 340
#     4  10  23  37  59  96 133 162 193 235 291 362
#     4  10  22  40  64  86 117 159 204 256 309 354
#     4  11  22  39  62  94 127 159 198 244 294 361
#
# _framework density 28.687555
#
# number of rings (size 3 to 8) (size 9 to 14) (size 15 to 20)
#    0.000    1.778    0.000    4.000    0.000   15.111 
#    0.000    4.444    0.000    0.000    0.000    0.000 
#    0.000    0.000    0.000    0.000    0.000    0.000 
#
# Total GULP energy -100919.016334 kJ/mol
# GULP energy per Si atom -5606.612019 kJ/mol
# Density = 2.862226 g / cm^3
# Si number density = 28.687555 Si / 1000 Ang^3
#
#
#
# Elastic Constant Matrix: (Units=GPa)
#
#
# Indices 1 2 3 4 5 6 
#
# 1 165.9267 27.0077 46.0267 0.0000 -46.1033 0.0000
# 2 27.0077 142.6104 18.8698 0.0000 -9.5122 0.0000
# 3 46.0267 18.8698 99.9719 0.0000 -40.0932 0.0000
# 4 0.0000 0.0000 0.0000 51.7900 0.0000 -8.6020
# 5 -46.1033 -9.5122 -40.0932 0.0000 67.7062 0.0000
# 6 0.0000 0.0000 0.0000 -8.6020 0.0000 45.8074
#
#
#
# Elastic Compliance Matrix: (Units=1/GPa)
#
#
# Indices 1 2 3 4 5 6 
#
# 1 0.007826 -0.000973 -0.001753 0.000000 0.004154 0.000000
# 2 -0.000973 0.007316 -0.001031 0.000000 -0.000245 0.000000
# 3 -0.001753 -0.001031 0.013728 0.000000 0.006790 0.000000
# 4 0.000000 0.000000 0.000000 0.019930 0.000000 0.003743
# 5 0.004154 -0.000245 0.006790 0.000000 0.021585 0.000000
# 6 0.000000 0.000000 0.000000 0.003743 0.000000 0.022533
#
#
# Mechanical properties :
#
#
# Convention : Reuss Voigt Hill
#
# Bulk Modulus (GPa) = 46.82873 65.81305 56.32089
# Shear Modulus (GPa) = 46.48903 54.16773 50.32838
#
# Velocity S-wave (km/s) = 4.02995 4.35005 4.19306
# Velocity P-wave (km/s) = 6.16548 6.94419 6.56639
#
# Compressibility (1/GPa) = 0.02135441
#
# Stress axis : x y z
#
# Youngs Moduli (GPa) = 127.78526 136.67767 72.84385
#
# Poissons Ratio (x) = 0.13298 0.12773
# Poissons Ratio (y) = 0.12433 0.07514
# Poissons Ratio (z) = 0.22406 0.14098
#
# Static dielectric constant tensor:
#      x y z
#    x 2.226630 0.000000 0.091290 
#    y 0.000000 2.099000 0.000000 
#    z 0.091290 0.000000 2.700380 
# 
# From -- ./inp_files/246081.got.cif
#   From: 2010.05.17/outbox.cif.g08.bks.cpg/sg15_124_cif.got.tgz:246081.got - 2010.06.03 18:47:42.
