data_PCOD9288919
_publ_section_title
;
Structure prediction by ZEFSAII (Michael W. Deem and Ramdas Pophale) SiO2 
 PCOD9288919
Probable space group: C 2/C
;
_chemical_formula_sum "Si O2"
_cell_formula_units_Z 40
_cell_length_a 23.898459
_cell_length_b 6.148725
_cell_length_c 11.462802
_cell_angle_alpha 90.000000
_cell_angle_beta 74.473003
_cell_angle_gamma 90.000000
_cell_volume 1622.928822
_symmetry_space_group_name_H-M "C 2/C"
_symmetry_group_IT_number 15
_symmetry_cell_setting 'monoclinic'
loop_
_space_group_symop_operation_xyz
x,y,z
-x,y,1/2-z
-x,-y,-z
x,-y,1/2+z
1/2+x,1/2+y,z
1/2-x,1/2+y,1/2-z
1/2-x,1/2-y,-z
1/2+x,1/2-y,1/2+z
loop_
_atom_site_type_symbol
_atom_site_label
_atom_site_fract_x
_atom_site_fract_y
_atom_site_fract_z
Si Si1 0.312794 0.787932 0.276212
Si Si2 0.879268 0.566644 0.402947
Si Si3 0.237823 0.555533 0.915718
Si Si4 0.911625 0.079265 0.069989
Si Si5 0.025391 0.307273 0.062888
O O1 0.284385 0.636920 0.391543
O O2 0.358082 0.639147 0.180746
O O3 0.344549 0.005950 0.304921
O O4 0.262454 0.854151 0.215289
O O5 0.829155 0.492787 0.522643
O O6 0.900736 0.791421 0.452075
O O7 0.937247 0.422463 0.358876
O O8 0.250000 0.750000 0.000000
O O9 0.926275 0.833549 0.031483
O O10 0.969557 0.156288 0.107299
O O11 0.000000 0.500000 0.000000
#
# Coordination Sequence:
#
# PCOD9288919 Si02
#       5
#     8   8   8   8   8
#     4  11  24  40  68  98 134 186 243 279 369 425
#     4  10  22  39  67  95 139 175 226 288 343 415
#     4  11  25  43  64  97 137 181 234 302 351 419
#     4   9  21  41  67 102 138 177 229 285 349 414
#     4   9  19  41  69  98 138 176 220 293 345 412
#
# _framework density 24.646799999999999
#
# number of rings (size 3 to 8) (size 9 to 14) (size 15 to 20)
#    0.000    2.000    0.000    1.800    8.400    0.800 
#    3.600    0.000    4.400    0.000    0.000    0.000 
#    0.000    0.000    0.000    0.000    0.000    0.000 
#
# Total GULP energy -111511.123307 kJ/mol
# GULP energy per Si atom -5575.556165 kJ/mol
# Density = 2.459070 g / cm^3
# Si number density = 24.646800 Si / 1000 Ang^3
#
#
#
# Elastic Constant Matrix: (Units=GPa)
#
#
# Indices 1 2 3 4 5 6 
#
# 1 116.8755 50.1317 19.6620 0.0000 15.9696 0.0000
# 2 50.1317 96.0538 42.9088 0.0000 9.0974 0.0000
# 3 19.6620 42.9088 81.0849 0.0000 21.4280 0.0000
# 4 0.0000 0.0000 0.0000 23.4045 0.0000 -9.2288
# 5 15.9696 9.0974 21.4280 0.0000 44.5053 0.0000
# 6 0.0000 0.0000 0.0000 -9.2288 0.0000 49.4897
#
#
#
# Elastic Compliance Matrix: (Units=1/GPa)
#
#
# Indices 1 2 3 4 5 6 
#
# 1 0.011510 -0.006343 0.001506 0.000000 -0.003558 0.000000
# 2 -0.006343 0.017153 -0.008266 0.000000 0.002749 0.000000
# 3 0.001506 -0.008266 0.018376 0.000000 -0.007698 0.000000
# 4 0.000000 0.000000 0.000000 0.046118 0.000000 0.008600
# 5 -0.003558 0.002749 -0.007698 0.000000 0.026891 0.000000
# 6 0.000000 0.000000 0.000000 0.008600 0.000000 0.021810
#
#
# Mechanical properties :
#
#
# Convention : Reuss Voigt Hill
#
# Bulk Modulus (GPa) = 47.99884 57.71325 52.85604
# Shear Modulus (GPa) = 28.57030 35.56736 32.06883
#
# Velocity S-wave (km/s) = 3.40838 3.80291 3.61104
# Velocity P-wave (km/s) = 5.91662 6.53834 6.23523
#
# Compressibility (1/GPa) = 0.02083384
#
# Stress axis : x y z
#
# Youngs Moduli (GPa) = 86.88421 58.29814 54.41857
#
# Poissons Ratio (x) = 0.36977 -0.08195
# Poissons Ratio (y) = 0.55108 0.44981
# Poissons Ratio (z) = -0.13084 0.48188
#
# Static dielectric constant tensor:
#      x y z
#    x 1.951110 0.000000 0.032650 
#    y 0.000000 2.067390 0.000000 
#    z 0.032650 0.000000 2.092140 
# 
# From -- ./inp_files/120984.got.cif
#   From: 2010.05.17/outbox.cif.g08.bks.cpg/sg15_61_cif.got.tgz:120984.got - 2010.06.03 18:47:42.
