data_PCOD9288165
_publ_section_title
;
Structure prediction by ZEFSAII (Michael W. Deem and Ramdas Pophale) SiO2 
 PCOD9288165
Probable space group: C 2/C
;
_chemical_formula_sum "Si O2"
_cell_formula_units_Z 48
_cell_length_a 21.997480
_cell_length_b 9.305239
_cell_length_c 11.739988
_cell_angle_alpha 90.000000
_cell_angle_beta 114.542733
_cell_angle_gamma 90.000000
_cell_volume 2185.965306
_symmetry_space_group_name_H-M "C 2/C"
_symmetry_group_IT_number 15
_symmetry_cell_setting 'monoclinic'
loop_
_space_group_symop_operation_xyz
x,y,z
-x,y,1/2-z
-x,-y,-z
x,-y,1/2+z
1/2+x,1/2+y,z
1/2-x,1/2+y,1/2-z
1/2-x,1/2-y,-z
1/2+x,1/2-y,1/2+z
loop_
_atom_site_type_symbol
_atom_site_label
_atom_site_fract_x
_atom_site_fract_y
_atom_site_fract_z
Si Si1 0.674078 0.913547 0.015438
Si Si2 0.500440 0.576471 0.375825
Si Si3 0.280408 0.224022 0.386850
Si Si4 0.134991 0.204310 0.159660
Si Si5 0.677253 0.705177 0.826025
Si Si6 0.143171 0.965179 0.966976
O O1 0.628862 0.849044 0.080533
O O2 0.745379 0.836012 0.093290
O O3 0.686474 0.080263 0.039336
O O4 0.655031 0.846014 0.878967
O O5 0.500000 0.498023 0.250000
O O6 0.500000 0.500000 0.500000
O O7 0.434616 0.674782 0.330667
O O8 0.576904 0.630499 0.429846
O O9 0.203165 0.209371 0.286411
O O10 0.323576 0.265193 0.307360
O O11 0.206814 0.137786 0.524438
O O12 0.145843 0.078388 0.073713
O O13 0.642052 0.566004 0.853866
#
# Coordination Sequence:
#
# PCOD9288165 Si02
#       6
#     8   8   8   8   8   8
#     4   9  19  35  57  88 123 166 204 259 335 393
#     4  10  23  41  64  94 130 177 225 282 329 396
#     4  11  21  37  64  98 126 169 219 272 346 399
#     4   9  19  39  60  89 130 163 213 279 326 387
#     4   9  20  38  57  85 135 162 206 277 323 391
#     4  10  22  38  64  95 124 169 225 271 334 393
#
# _framework density 21.958262000000001
#
# number of rings (size 3 to 8) (size 9 to 14) (size 15 to 20)
#    0.000    2.333    0.000    3.000    7.000    0.667 
#    3.000    0.833    0.000    0.000    0.000    0.000 
#    0.000    0.000    0.000    0.000    0.000    0.000 
#
# Total GULP energy -133708.560501 kJ/mol
# GULP energy per Si atom -5571.190021 kJ/mol
# Density = 2.190828 g / cm^3
# Si number density = 21.958262 Si / 1000 Ang^3
#
#
#
# Elastic Constant Matrix: (Units=GPa)
#
#
# Indices 1 2 3 4 5 6 
#
# 1 140.6961 42.3397 34.1627 0.0000 -6.4049 0.0000
# 2 42.3397 114.2311 47.0950 0.0000 -9.6627 0.0000
# 3 34.1627 47.0950 133.0984 0.0000 -27.7638 0.0000
# 4 0.0000 0.0000 0.0000 14.4832 0.0000 0.8408
# 5 -6.4049 -9.6627 -27.7638 0.0000 31.5231 0.0000
# 6 0.0000 0.0000 0.0000 0.8408 0.0000 22.7845
#
#
#
# Elastic Compliance Matrix: (Units=1/GPa)
#
#
# Indices 1 2 3 4 5 6 
#
# 1 0.008161 -0.002530 -0.001244 0.000000 -0.000213 0.000000
# 2 -0.002530 0.011034 -0.003254 0.000000 0.000002 0.000000
# 3 -0.001244 -0.003254 0.010687 0.000000 0.008162 0.000000
# 4 0.000000 0.000000 0.000000 0.069194 0.000000 -0.002553
# 5 -0.000213 0.000002 0.008162 0.000000 0.038869 0.000000
# 6 0.000000 0.000000 0.000000 -0.002553 0.000000 0.043984
#
#
# Mechanical properties :
#
#
# Convention : Reuss Voigt Hill
#
# Bulk Modulus (GPa) = 63.19199 70.58003 66.88601
# Shear Modulus (GPa) = 24.84355 31.38671 28.11513
#
# Velocity S-wave (km/s) = 3.36728 3.78482 3.58214
# Velocity P-wave (km/s) = 6.63014 7.16327 6.90185
#
# Compressibility (1/GPa) = 0.01582479
#
# Stress axis : x y z
#
# Youngs Moduli (GPa) = 122.53008 90.63025 93.57543
#
# Poissons Ratio (x) = 0.22931 0.11640
# Poissons Ratio (y) = 0.31002 0.30453
# Poissons Ratio (z) = 0.15242 0.29494
#
# Static dielectric constant tensor:
#      x y z
#    x 1.869570 0.000000 -0.061670 
#    y 0.000000 1.805290 0.000000 
#    z -0.061670 0.000000 1.950410 
# 
# From -- ./inp_files/116986.got.cif
#   From: 2010.05.17/outbox.cif.g08.bks.cpg/sg15_59_cif.got.tgz:116986.got - 2010.06.03 18:47:42.
