data_PCOD9288166
_publ_section_title
;
Structure prediction by ZEFSAII (Michael W. Deem and Ramdas Pophale) SiO2 
 PCOD9288166
Probable space group: C 2/C
;
_chemical_formula_sum "Si O2"
_cell_formula_units_Z 32
_cell_length_a 19.319690
_cell_length_b 7.505550
_cell_length_c 16.802896
_cell_angle_alpha 90.000000
_cell_angle_beta 144.320182
_cell_angle_gamma 90.000000
_cell_volume 1421.102420
_symmetry_space_group_name_H-M "C 2/C"
_symmetry_group_IT_number 15
_symmetry_cell_setting 'monoclinic'
loop_
_space_group_symop_operation_xyz
x,y,z
-x,y,1/2-z
-x,-y,-z
x,-y,1/2+z
1/2+x,1/2+y,z
1/2-x,1/2+y,1/2-z
1/2-x,1/2-y,-z
1/2+x,1/2-y,1/2+z
loop_
_atom_site_type_symbol
_atom_site_label
_atom_site_fract_x
_atom_site_fract_y
_atom_site_fract_z
Si Si1 0.283200 0.823772 0.445672
Si Si2 0.928113 0.358748 0.042197
Si Si3 0.405306 0.513197 0.481641
Si Si4 0.356741 0.091161 0.292002
O O1 0.250000 0.750000 0.500000
O O2 0.392546 0.705922 0.511339
O O3 0.175222 0.769535 0.286801
O O4 0.325223 0.025695 0.486384
O O5 0.929912 0.150947 0.063496
O O6 0.900909 0.370268 0.921815
O O7 0.052425 0.460571 0.167817
O O8 0.500000 0.500000 0.500000
O O9 0.270817 0.492875 0.322914
#
# Coordination Sequence:
#
# PCOD9288166 Si02
#       4
#     8   8   8   8
#     4  10  24  42  63  96 137 169 218 280 340 392
#     4  11  20  40  67  90 135 172 214 285 320 392
#     4  10  22  38  64  95 125 170 229 262 328 403
#     4   9  22  39  61  98 126 169 226 266 326 401
#
# _framework density 22.51773
#
# number of rings (size 3 to 8) (size 9 to 14) (size 15 to 20)
#    1.500    0.500    0.000    4.500    3.500    2.000 
#    0.000    0.000    0.000    0.000    0.000    0.000 
#    0.000    0.000    0.000    0.000    0.000    0.000 
#
# Total GULP energy -89289.053088 kJ/mol
# GULP energy per Si atom -5580.565818 kJ/mol
# Density = 2.246648 g / cm^3
# Si number density = 22.517730 Si / 1000 Ang^3
#
#
#
# Elastic Constant Matrix: (Units=GPa)
#
#
# Indices 1 2 3 4 5 6 
#
# 1 62.5958 -10.0767 1.0305 0.0000 -3.4917 0.0000
# 2 -10.0767 95.6077 1.6596 0.0000 6.1252 0.0000
# 3 1.0305 1.6596 84.5233 0.0000 22.0497 0.0000
# 4 0.0000 0.0000 0.0000 26.4909 0.0000 5.5522
# 5 -3.4917 6.1252 22.0497 0.0000 15.5438 0.0000
# 6 0.0000 0.0000 0.0000 5.5522 0.0000 15.6004
#
#
#
# Elastic Compliance Matrix: (Units=1/GPa)
#
#
# Indices 1 2 3 4 5 6 
#
# 1 0.016540 0.001418 -0.001672 0.000000 0.005528 0.000000
# 2 0.001418 0.010960 0.001288 0.000000 -0.005827 0.000000
# 3 -0.001672 0.001288 0.019139 0.000000 -0.028032 0.000000
# 4 0.000000 0.000000 0.000000 0.040792 0.000000 -0.014518
# 5 0.005528 -0.005827 -0.028032 0.000000 0.107637 0.000000
# 6 0.000000 0.000000 0.000000 -0.014518 0.000000 0.069268
#
#
# Mechanical properties :
#
#
# Convention : Reuss Voigt Hill
#
# Bulk Modulus (GPa) = 20.53105 25.32817 22.92961
# Shear Modulus (GPa) = 17.95316 28.20125 23.07721
#
# Velocity S-wave (km/s) = 2.82670 3.54277 3.20479
# Velocity P-wave (km/s) = 4.44872 5.29221 4.88869
#
# Compressibility (1/GPa) = 0.04870671
#
# Stress axis : x y z
#
# Youngs Moduli (GPa) = 60.46068 91.24243 52.24934
#
# Poissons Ratio (x) = -0.12939 0.08734
# Poissons Ratio (y) = -0.08574 -0.06727
# Poissons Ratio (z) = 0.10106 -0.11748
#
# Static dielectric constant tensor:
#      x y z
#    x 1.804010 0.000000 0.016490 
#    y 0.000000 1.895710 0.000000 
#    z 0.016490 0.000000 1.874070 
# 
# From -- ./inp_files/213006.got.cif
#   From: 2010.05.17/outbox.cif.g08.bks.cpg/sg15_107_cif.got.tgz:213006.got - 2010.06.03 18:47:42.
