data_PCOD9288043
_publ_section_title
;
Structure prediction by ZEFSAII (Michael W. Deem and Ramdas Pophale) SiO2 
 PCOD9288043
Probable space group: C 2/C
;
_chemical_formula_sum "Si O2"
_cell_formula_units_Z 48
_cell_length_a 10.830500
_cell_length_b 11.004451
_cell_length_c 20.946448
_cell_angle_alpha 90.000000
_cell_angle_beta 47.499945
_cell_angle_gamma 90.000000
_cell_volume 1840.593050
_symmetry_space_group_name_H-M "C 2/C"
_symmetry_group_IT_number 15
_symmetry_cell_setting 'monoclinic'
loop_
_space_group_symop_operation_xyz
x,y,z
-x,y,1/2-z
-x,-y,-z
x,-y,1/2+z
1/2+x,1/2+y,z
1/2-x,1/2+y,1/2-z
1/2-x,1/2-y,-z
1/2+x,1/2-y,1/2+z
loop_
_atom_site_type_symbol
_atom_site_label
_atom_site_fract_x
_atom_site_fract_y
_atom_site_fract_z
Si Si1 0.665008 0.302870 0.780123
Si Si2 0.474500 0.242724 0.407242
Si Si3 0.065139 0.034955 0.663135
Si Si4 0.636973 0.131350 0.463295
Si Si5 0.679240 0.111912 0.151420
Si Si6 0.877725 0.635004 0.885638
O O1 0.842182 0.294659 0.684253
O O2 0.560236 0.420671 0.796709
O O3 0.693070 0.323365 0.845735
O O4 0.559235 0.183025 0.800957
O O5 0.455215 0.383100 0.392913
O O6 0.487973 0.183535 0.472117
O O7 0.338915 0.177858 0.409786
O O8 0.000000 0.103793 0.750000
O O9 0.250546 0.978588 0.603803
O O10 0.760993 0.247158 0.424566
O O11 0.596886 0.096135 0.549811
O O12 0.500000 0.114449 0.250000
O O13 0.706122 0.971214 0.125428
#
# Coordination Sequence:
#
# PCOD9288043 Si02
#       6
#     8   8   8   8   8   8
#     4  10  22  38  62  92 122 163 212 259 313 366
#     4  11  23  38  62  90 127 161 208 263 309 372
#     4  11  21  38  64  90 124 162 210 265 307 371
#     4  10  23  42  60  96 120 165 211 251 321 370
#     4  10  23  39  58  93 123 162 209 257 315 366
#     4  10  23  40  66  87 127 163 208 259 308 383
#
# _framework density 26.078551999999998
#
# number of rings (size 3 to 8) (size 9 to 14) (size 15 to 20)
#    0.000    1.667    1.667    2.500    7.000    3.333 
#    0.000    6.667    0.000    0.000    0.000    0.000 
#    0.000    0.000    0.000    0.000    0.000    0.000 
#
# Total GULP energy -134442.526838 kJ/mol
# GULP energy per Si atom -5601.771952 kJ/mol
# Density = 2.601920 g / cm^3
# Si number density = 26.078552 Si / 1000 Ang^3
#
#
#
# Elastic Constant Matrix: (Units=GPa)
#
#
# Indices 1 2 3 4 5 6 
#
# 1 122.7822 25.7498 33.3545 0.0000 26.2740 0.0000
# 2 25.7498 109.8904 25.5139 0.0000 -3.3324 0.0000
# 3 33.3545 25.5139 75.9915 0.0000 19.9412 0.0000
# 4 0.0000 0.0000 0.0000 30.5513 0.0000 5.0610
# 5 26.2740 -3.3324 19.9412 0.0000 45.7024 0.0000
# 6 0.0000 0.0000 0.0000 5.0610 0.0000 24.5990
#
#
#
# Elastic Compliance Matrix: (Units=1/GPa)
#
#
# Indices 1 2 3 4 5 6 
#
# 1 0.010315 -0.001972 -0.002565 0.000000 -0.004954 0.000000
# 2 -0.001972 0.010494 -0.003564 0.000000 0.003454 0.000000
# 3 -0.002565 -0.003564 0.017124 0.000000 -0.006257 0.000000
# 4 0.000000 0.000000 0.000000 0.033887 0.000000 -0.006972
# 5 -0.004954 0.003454 -0.006257 0.000000 0.027711 0.000000
# 6 0.000000 0.000000 0.000000 -0.006972 0.000000 0.042086
#
#
# Mechanical properties :
#
#
# Convention : Reuss Voigt Hill
#
# Bulk Modulus (GPa) = 46.01848 53.10006 49.55927
# Shear Modulus (GPa) = 30.29134 35.10694 32.69914
#
# Velocity S-wave (km/s) = 3.41184 3.67304 3.54485
# Velocity P-wave (km/s) = 5.76240 6.19630 5.98328
#
# Compressibility (1/GPa) = 0.02173040
#
# Stress axis : x y z
#
# Youngs Moduli (GPa) = 96.94499 95.28999 58.39767
#
# Poissons Ratio (x) = 0.18788 0.14982
# Poissons Ratio (y) = 0.19114 0.20815
# Poissons Ratio (z) = 0.24871 0.33965
#
# Static dielectric constant tensor:
#      x y z
#    x 2.023140 0.000000 0.043090 
#    y 0.000000 2.009830 0.000000 
#    z 0.043090 0.000000 2.122040 
# 
# From -- ./inp_files/236845.got.cif
#   From: 2010.05.17/outbox.cif.g08.bks.cpg/sg15_119_cif.got.tgz:236845.got - 2010.06.03 18:47:42.
