data_PCOD9288658
_publ_section_title
;
Structure prediction by ZEFSAII (Michael W. Deem and Ramdas Pophale) SiO2 
 PCOD9288658
Probable space group: C 2/C
;
_chemical_formula_sum "Si O2"
_cell_formula_units_Z 40
_cell_length_a 22.810898
_cell_length_b 16.609259
_cell_length_c 15.856418
_cell_angle_alpha 90.000000
_cell_angle_beta 160.397664
_cell_angle_gamma 90.000000
_cell_volume 2015.474357
_symmetry_space_group_name_H-M "C 2/C"
_symmetry_group_IT_number 15
_symmetry_cell_setting 'monoclinic'
loop_
_space_group_symop_operation_xyz
x,y,z
-x,y,1/2-z
-x,-y,-z
x,-y,1/2+z
1/2+x,1/2+y,z
1/2-x,1/2+y,1/2-z
1/2-x,1/2-y,-z
1/2+x,1/2-y,1/2+z
loop_
_atom_site_type_symbol
_atom_site_label
_atom_site_fract_x
_atom_site_fract_y
_atom_site_fract_z
Si Si1 0.899205 0.768552 0.269765
Si Si2 0.704692 0.203499 0.206859
Si Si3 0.311548 0.090915 0.464450
Si Si4 0.661923 0.562369 0.715485
Si Si5 0.524558 0.354946 0.882396
O O1 0.890907 0.703289 0.333601
O O2 0.865063 0.855504 0.268502
O O3 0.096837 0.769258 0.504487
O O4 0.750000 0.750000 0.000000
O O5 0.717082 0.123774 0.168691
O O6 0.599455 0.267020 0.006035
O O7 0.500000 0.118143 0.750000
O O8 0.158825 0.127248 0.317392
O O9 0.307731 0.994164 0.452929
O O10 0.500000 0.500000 0.500000
O O11 0.663579 0.587927 0.619694
O O12 0.500000 0.367204 0.750000
#
# Coordination Sequence:
#
# PCOD9288658 Si02
#       5
#     8   8   8   8   8
#     4  11  23  40  67  94 124 169 214 265 319 378
#     4  11  21  40  62  92 128 159 209 261 315 378
#     4  11  23  40  65  90 122 174 205 256 324 383
#     4   9  19  44  58  83 133 162 202 260 317 375
#     4  10  22  39  63  90 126 158 204 266 312 367
#
# _framework density 19.846444000000002
#
# number of rings (size 3 to 8) (size 9 to 14) (size 15 to 20)
#    0.000    1.600    6.000    1.200    2.800    4.800 
#    7.200    1.000    0.000    0.000    0.000    0.000 
#    0.000    0.000    0.000    0.000    0.000    0.000 
#
# Total GULP energy -111418.969811 kJ/mol
# GULP energy per Si atom -5570.948491 kJ/mol
# Density = 1.980127 g / cm^3
# Si number density = 19.846444 Si / 1000 Ang^3
#
#
#
# Elastic Constant Matrix: (Units=GPa)
#
#
# Indices 1 2 3 4 5 6 
#
# 1 46.2641 20.4359 1.7340 0.0000 -20.8036 0.0000
# 2 20.4359 70.6948 15.0480 0.0000 -8.1621 0.0000
# 3 1.7340 15.0480 106.2624 0.0000 -9.1110 0.0000
# 4 0.0000 0.0000 0.0000 29.5246 0.0000 -1.5939
# 5 -20.8036 -8.1621 -9.1110 0.0000 32.9017 0.0000
# 6 0.0000 0.0000 0.0000 -1.5939 0.0000 20.5089
#
#
#
# Elastic Compliance Matrix: (Units=1/GPa)
#
#
# Indices 1 2 3 4 5 6 
#
# 1 0.034192 -0.008037 0.002318 0.000000 0.020268 0.000000
# 2 -0.008037 0.016794 -0.002382 0.000000 -0.001576 0.000000
# 3 0.002318 -0.002382 0.010023 0.000000 0.003650 0.000000
# 4 0.000000 0.000000 0.000000 0.034013 0.000000 0.002643
# 5 0.020268 -0.001576 0.003650 0.000000 0.043829 0.000000
# 6 0.000000 0.000000 0.000000 0.002643 0.000000 0.048965
#
#
# Mechanical properties :
#
#
# Convention : Reuss Voigt Hill
#
# Bulk Modulus (GPa) = 22.31839 33.07301 27.69570
# Shear Modulus (GPa) = 22.83586 28.98728 25.91157
#
# Velocity S-wave (km/s) = 3.39577 3.82590 3.61723
# Velocity P-wave (km/s) = 5.16188 6.01808 5.60635
#
# Compressibility (1/GPa) = 0.04480610
#
# Stress axis : x y z
#
# Youngs Moduli (GPa) = 29.24641 59.54558 99.76892
#
# Poissons Ratio (x) = 0.47859 -0.23127
# Poissons Ratio (y) = 0.23507 0.23766
# Poissons Ratio (z) = -0.06779 0.14185
#
# Static dielectric constant tensor:
#      x y z
#    x 1.680990 0.000000 0.005410 
#    y 0.000000 1.734400 0.000000 
#    z 0.005410 0.000000 1.752450 
# 
# From -- ./inp_files/29229.got.cif
#   From: 2010.05.17/outbox.cif.g08.bks.cpg/sg15_15_cif.got.tgz:29229.got - 2010.06.03 18:47:42.
