data_PCOD9288231
_publ_section_title
;
Structure prediction by ZEFSAII (Michael W. Deem and Ramdas Pophale) SiO2 
 PCOD9288231
Probable space group: C 2/C
;
_chemical_formula_sum "Si O2"
_cell_formula_units_Z 48
_cell_length_a 14.875041
_cell_length_b 28.805248
_cell_length_c 5.535737
_cell_angle_alpha 90.000000
_cell_angle_beta 66.437984
_cell_angle_gamma 90.000000
_cell_volume 2174.194180
_symmetry_space_group_name_H-M "C 2/C"
_symmetry_group_IT_number 15
_symmetry_cell_setting 'monoclinic'
loop_
_space_group_symop_operation_xyz
x,y,z
-x,y,1/2-z
-x,-y,-z
x,-y,1/2+z
1/2+x,1/2+y,z
1/2-x,1/2+y,1/2-z
1/2-x,1/2-y,-z
1/2+x,1/2-y,1/2+z
loop_
_atom_site_type_symbol
_atom_site_label
_atom_site_fract_x
_atom_site_fract_y
_atom_site_fract_z
Si Si1 0.897187 0.348723 0.455354
Si Si2 0.690121 0.757489 0.810433
Si Si3 0.248935 0.389788 0.226635
Si Si4 0.605822 0.941817 0.750414
Si Si5 0.223303 0.013180 0.928214
Si Si6 0.558780 0.668383 0.937098
O O1 0.851711 0.309740 0.673257
O O2 0.818554 0.352494 0.328246
O O3 0.914511 0.401183 0.533310
O O4 0.000000 0.330977 0.250000
O O5 0.750000 0.750000 0.500000
O O6 0.603621 0.719819 0.913587
O O7 0.750000 0.750000 0.000000
O O8 0.180291 0.414158 0.496576
O O9 0.269185 0.432552 0.023465
O O10 0.349799 0.366722 0.190786
O O11 0.500000 0.954272 0.750000
O O12 0.671126 0.987482 0.739361
O O13 0.174599 0.009349 0.715767
O O14 0.500000 0.665763 0.750000
O O15 0.500000 0.657926 0.250000
#
# Coordination Sequence:
#
# PCOD9288231 Si02
#       6
#     8   8   8   8   8   8
#     4  12  24  41  69 106 145 186 233 288 359 441
#     4  12  26  47  76 103 143 187 234 295 363 423
#     4  11  24  44  68 100 143 190 241 297 353 425
#     4  11  23  39  66 105 149 191 232 289 369 446
#     4  10  22  38  65  96 138 188 232 284 350 426
#     4  12  28  49  75 103 139 192 248 300 357 417
#
# _framework density 22.077145999999999
#
# number of rings (size 3 to 8) (size 9 to 14) (size 15 to 20)
#    0.000    0.667    5.000    2.500    2.333    4.000 
#    0.000    0.000    0.000   12.000    0.000    0.000 
#    0.000    0.000    0.000    0.000    0.000    0.000 
#
# Total GULP energy -133916.092332 kJ/mol
# GULP energy per Si atom -5579.837181 kJ/mol
# Density = 2.202690 g / cm^3
# Si number density = 22.077146 Si / 1000 Ang^3
#
#
#
# Elastic Constant Matrix: (Units=GPa)
#
#
# Indices 1 2 3 4 5 6 
#
# 1 128.8938 47.5343 34.6486 0.0000 8.5339 0.0000
# 2 47.5343 95.2671 3.9452 0.0000 0.2297 0.0000
# 3 34.6486 3.9452 108.9834 0.0000 12.5706 0.0000
# 4 0.0000 0.0000 0.0000 43.2440 0.0000 -3.5449
# 5 8.5339 0.2297 12.5706 0.0000 26.1328 0.0000
# 6 0.0000 0.0000 0.0000 -3.5449 0.0000 40.1132
#
#
#
# Elastic Compliance Matrix: (Units=1/GPa)
#
#
# Indices 1 2 3 4 5 6 
#
# 1 0.010583 -0.005154 -0.002948 0.000000 -0.001993 0.000000
# 2 -0.005154 0.013023 0.001044 0.000000 0.001066 0.000000
# 3 -0.002948 0.001044 0.010551 0.000000 -0.004122 0.000000
# 4 0.000000 0.000000 0.000000 0.023293 0.000000 0.002058
# 5 -0.001993 0.001066 -0.004122 0.000000 0.040890 0.000000
# 6 0.000000 0.000000 0.000000 0.002058 0.000000 0.025111
#
#
# Mechanical properties :
#
#
# Convention : Reuss Voigt Hill
#
# Bulk Modulus (GPa) = 49.89877 56.15560 53.02718
# Shear Modulus (GPa) = 34.66261 38.36574 36.51417
#
# Velocity S-wave (km/s) = 3.96671 4.17322 4.07127
# Velocity P-wave (km/s) = 6.60536 6.97942 6.79496
#
# Compressibility (1/GPa) = 0.02004058
#
# Stress axis : x y z
#
# Youngs Moduli (GPa) = 94.48697 76.78998 94.78083
#
# Poissons Ratio (x) = 0.39576 0.27945
# Poissons Ratio (y) = 0.48697 -0.09896
# Poissons Ratio (z) = 0.27858 -0.08018
#
# Static dielectric constant tensor:
#      x y z
#    x 1.827050 0.000000 0.077960 
#    y 0.000000 1.869940 0.000000 
#    z 0.077960 0.000000 1.842630 
# 
# From -- ./inp_files/8938.got.cif
#   From: 2010.05.17/outbox.cif.g08.bks.cpg/sg15_5_cif.got.tgz:8938.got - 2010.06.03 18:47:42.
