data_PCOD9288198
_publ_section_title
;
Structure prediction by ZEFSAII (Michael W. Deem and Ramdas Pophale) SiO2 
 PCOD9288198
Probable space group: C 2/C
;
_chemical_formula_sum "Si O2"
_cell_formula_units_Z 64
_cell_length_a 16.808592
_cell_length_b 14.539009
_cell_length_c 17.839256
_cell_angle_alpha 90.000000
_cell_angle_beta 36.233999
_cell_angle_gamma 90.000000
_cell_volume 2576.869251
_symmetry_space_group_name_H-M "C 2/C"
_symmetry_group_IT_number 15
_symmetry_cell_setting 'monoclinic'
loop_
_space_group_symop_operation_xyz
x,y,z
-x,y,1/2-z
-x,-y,-z
x,-y,1/2+z
1/2+x,1/2+y,z
1/2-x,1/2+y,1/2-z
1/2-x,1/2-y,-z
1/2+x,1/2-y,1/2+z
loop_
_atom_site_type_symbol
_atom_site_label
_atom_site_fract_x
_atom_site_fract_y
_atom_site_fract_z
Si Si1 0.352784 0.262646 0.850601
Si Si2 0.198635 0.113002 0.238620
Si Si3 0.132840 0.400558 0.272972
Si Si4 0.543737 0.395753 0.483899
Si Si5 0.612354 0.107552 0.262215
Si Si6 0.745773 0.639028 0.501090
Si Si7 0.785508 0.408779 0.131014
Si Si8 0.518318 0.696762 0.851055
O O1 0.500000 0.309863 0.750000
O O2 0.266924 0.322709 0.856731
O O3 0.401604 0.173842 0.763777
O O4 0.250000 0.250000 0.000000
O O5 0.288170 0.130764 0.244115
O O6 0.042741 0.129562 0.378185
O O7 0.226139 0.007328 0.198237
O O8 0.295724 0.400587 0.137943
O O9 0.072336 0.501460 0.305359
O O10 0.112558 0.383237 0.378488
O O11 0.500000 0.500000 0.500000
O O12 0.497192 0.326124 0.454191
O O13 0.513949 0.195774 0.334745
O O14 0.688006 0.106314 0.125750
O O15 0.750000 0.750000 0.500000
O O16 0.807638 0.588734 0.525617
O O17 0.584061 0.630350 0.614772
O O18 0.670178 0.332377 0.220932
#
# Coordination Sequence:
#
# PCOD9288198 Si02
#       8
#     8   8   8   8   8   8   8   8
#     4  12  29  51  74 106 143 198 253 312 369 433
#     4  11  22  43  73 102 133 179 244 295 369 410
#     4  10  23  45  68  95 143 180 244 282 371 424
#     4  11  17  38  73 106 129 179 235 307 352 417
#     4  11  23  41  69  97 137 193 217 290 350 439
#     4  12  24  37  60  98 140 174 223 273 352 421
#     4  10  22  38  65 101 134 173 221 304 349 423
#     4  11  21  38  60 100 139 166 228 276 359 418
#
# _framework density 24.83634
#
# number of rings (size 3 to 8) (size 9 to 14) (size 15 to 20)
#    0.000    1.000    6.250    2.625    1.750    1.000 
#    2.250    0.000    0.000    3.750    0.000    0.000 
#    0.000    0.000    0.000    0.000    0.000    0.000 
#
# Total GULP energy -178732.952571 kJ/mol
# GULP energy per Si atom -5585.404768 kJ/mol
# Density = 2.477981 g / cm^3
# Si number density = 24.836340 Si / 1000 Ang^3
#
#
#
# Elastic Constant Matrix: (Units=GPa)
#
#
# Indices 1 2 3 4 5 6 
#
# 1 107.8226 33.7970 66.6842 0.0001 43.1765 -0.0001
# 2 33.7970 84.6104 30.0202 0.0000 23.2582 0.0000
# 3 66.6842 30.0202 103.8374 0.0000 35.0665 -0.0001
# 4 0.0001 0.0000 0.0000 29.8200 0.0000 -4.8946
# 5 43.1765 23.2582 35.0665 0.0000 48.4890 0.0000
# 6 -0.0001 0.0000 -0.0001 -4.8946 0.0000 -3.0063
#
#
#
# Elastic Compliance Matrix: (Units=1/GPa)
#
#
# Indices 1 2 3 4 5 6 
#
# 1 0.018996 -0.001899 -0.008264 0.000000 -0.010028 0.000000
# 2 -0.001899 0.014228 -0.001535 0.000000 -0.004023 0.000000
# 3 -0.008264 -0.001535 0.016735 0.000000 -0.004007 0.000000
# 4 0.000000 0.000000 0.000000 0.026463 0.000000 -0.043085
# 5 -0.010028 -0.004023 -0.004007 0.000000 0.034380 0.000001
# 6 0.000000 0.000000 0.000000 -0.043085 0.000001 -0.262491
#
#
# Mechanical properties :
#
#
# Convention : Reuss Voigt Hill
#
# Bulk Modulus (GPa) = 37.64706 61.91925 49.78315
# Shear Modulus (GPa) = -41.86244 26.11184 -7.87530
#
# Velocity S-wave (km/s) = -4.10998 3.24598 -1.78263
# Velocity P-wave (km/s) = 2.70769 6.24768 3.98133
#
# Compressibility (1/GPa) = 0.02656250
#
# Stress axis : x y z
#
# Youngs Moduli (GPa) = 52.64222 70.28327 59.75653
#
# Poissons Ratio (x) = 0.13350 0.49382
# Poissons Ratio (y) = 0.09999 0.09173
# Poissons Ratio (z) = 0.43502 0.10789
#
# Static dielectric constant tensor:
#      x y z
#    x 2.061940 0.000000 -0.004100 
#    y 0.000000 1.969350 0.000000 
#    z -0.004100 0.000000 2.047060 
# 
# From -- ./inp_files/211372.got.cif
#   From: 2010.05.17/outbox.cif.g08.bks.cpg/sg15_106_cif.got.tgz:211372.got - 2010.06.03 18:47:42.
