data_PCOD9288510
_publ_section_title
;
Structure prediction by ZEFSAII (Michael W. Deem and Ramdas Pophale) SiO2 
 PCOD9288510
Probable space group: C 2/C
;
_chemical_formula_sum "Si O2"
_cell_formula_units_Z 60
_cell_length_a 10.026755
_cell_length_b 20.760884
_cell_length_c 19.400631
_cell_angle_alpha 90.000000
_cell_angle_beta 136.498472
_cell_angle_gamma 90.000000
_cell_volume 2780.010965
_symmetry_space_group_name_H-M "C 2/C"
_symmetry_group_IT_number 15
_symmetry_cell_setting 'monoclinic'
loop_
_space_group_symop_operation_xyz
x,y,z
-x,y,1/2-z
-x,-y,-z
x,-y,1/2+z
1/2+x,1/2+y,z
1/2-x,1/2+y,1/2-z
1/2-x,1/2-y,-z
1/2+x,1/2-y,1/2+z
loop_
_atom_site_type_symbol
_atom_site_label
_atom_site_fract_x
_atom_site_fract_y
_atom_site_fract_z
Si Si1 0.741257 0.673719 0.002576
Si Si2 0.639593 0.860217 0.599500
Si Si3 0.875835 0.859565 0.273739
Si Si4 0.083030 0.017078 0.644693
Si Si5 0.911360 0.907273 0.950623
Si Si6 0.500000 0.548681 0.250000
Si Si7 0.329432 0.678107 0.040544
Si Si8 0.359159 0.251798 0.756912
O O1 0.539993 0.658074 0.890559
O O2 0.750000 0.750000 0.000000
O O3 0.731387 0.648349 0.076968
O O4 0.915393 0.634321 0.032691
O O5 0.802988 0.910106 0.686329
O O6 0.675501 0.856635 0.531496
O O7 0.696153 0.791062 0.654382
O O8 0.722021 0.801954 0.222101
O O9 0.000000 0.865066 0.250000
O O10 0.791077 0.926756 0.271797
O O11 0.966674 0.991320 0.667533
O O12 0.167397 0.954123 0.638411
O O13 0.960990 0.049108 0.536315
O O14 0.100454 0.868335 0.994040
O O15 0.520086 0.693913 0.157295
O O16 0.250000 0.750000 0.000000
O O17 0.500000 0.223745 0.750000
#
# Coordination Sequence:
#
# PCOD9288510 Si02
#       8
#     8   8   8   8   8   4   8   8
#     4  11  23  40  65  99 134 163 208 275 340 393
#     4  11  21  40  66  94 126 169 219 267 327 394
#     4  11  24  41  64  92 132 174 214 268 332 388
#     4  10  22  43  69  85 131 182 222 260 323 382
#     4  10  22  42  67  96 124 176 218 268 324 388
#     4  12  20  46  68  92 128 180 226 270 312 396
#     4  11  22  36  67  98 131 167 212 269 336 389
#     4  10  22  39  60  98 128 167 214 267 332 394
#
# _framework density 21.582649
#
# number of rings (size 3 to 8) (size 9 to 14) (size 15 to 20)
#    0.000    1.333    5.333    0.800    9.333    0.000 
#    0.000    6.000    2.933    0.000    0.000    0.000 
#    0.000    0.000    0.000    0.000    0.000    0.000 
#
# Total GULP energy -167089.906704 kJ/mol
# GULP energy per Si atom -5569.663557 kJ/mol
# Density = 2.153353 g / cm^3
# Si number density = 21.582649 Si / 1000 Ang^3
#
#
#
# Elastic Constant Matrix: (Units=GPa)
#
#
# Indices 1 2 3 4 5 6 
#
# 1 119.5922 40.6278 10.4259 0.0001 -21.1293 0.0001
# 2 40.6278 91.6064 0.5672 0.0000 -19.9765 0.0000
# 3 10.4259 0.5672 24.8448 0.0001 -7.1306 0.0001
# 4 0.0001 0.0000 0.0001 8.8164 0.0001 -9.5524
# 5 -21.1293 -19.9765 -7.1306 0.0001 34.7578 0.0001
# 6 0.0001 0.0000 0.0001 -9.5524 0.0001 41.9744
#
#
#
# Elastic Compliance Matrix: (Units=1/GPa)
#
#
# Indices 1 2 3 4 5 6 
#
# 1 0.010605 -0.003918 -0.003354 0.000000 0.003507 0.000000
# 2 -0.003918 0.014011 0.003137 0.000000 0.006315 0.000000
# 3 -0.003354 0.003137 0.044115 -0.000001 0.008814 0.000000
# 4 0.000000 0.000000 -0.000001 0.150545 -0.000001 0.034261
# 5 0.003507 0.006315 0.008814 -0.000001 0.036340 0.000000
# 6 0.000000 0.000000 0.000000 0.034261 0.000000 0.031621
#
#
# Mechanical properties :
#
#
# Convention : Reuss Voigt Hill
#
# Bulk Modulus (GPa) = 16.53968 37.69837 27.11902
# Shear Modulus (GPa) = 15.83973 29.40455 22.62214
#
# Velocity S-wave (km/s) = 2.71202 3.69510 3.24105
# Velocity P-wave (km/s) = 4.18172 5.97577 5.15736
#
# Compressibility (1/GPa) = 0.06046066
#
# Stress axis : x y z
#
# Youngs Moduli (GPa) = 94.29800 71.37041 22.66778
#
# Poissons Ratio (x) = 0.27961 0.07603
# Poissons Ratio (y) = 0.36943 -0.07110
# Poissons Ratio (z) = 0.31630 -0.22386
#
# Static dielectric constant tensor:
#      x y z
#    x 1.889580 0.000000 -0.026910 
#    y 0.000000 1.985760 0.000000 
#    z -0.026910 0.000000 1.813100 
# 
# From -- ./inp_files/234092.got.cif
#   From: 2010.05.17/outbox.cif.g08.bks.cpg/sg15_118_cif.got.tgz:234092.got - 2010.06.03 18:47:42.
