data_PCOD9288792
_publ_section_title
;
Structure prediction by ZEFSAII (Michael W. Deem and Ramdas Pophale) SiO2 
 PCOD9288792
Probable space group: C 2/C
;
_chemical_formula_sum "Si O2"
_cell_formula_units_Z 60
_cell_length_a 24.801980
_cell_length_b 15.126942
_cell_length_c 21.310072
_cell_angle_alpha 90.000000
_cell_angle_beta 22.058780
_cell_angle_gamma 90.000000
_cell_volume 3002.610263
_symmetry_space_group_name_H-M "C 2/C"
_symmetry_group_IT_number 15
_symmetry_cell_setting 'monoclinic'
loop_
_space_group_symop_operation_xyz
x,y,z
-x,y,1/2-z
-x,-y,-z
x,-y,1/2+z
1/2+x,1/2+y,z
1/2-x,1/2+y,1/2-z
1/2-x,1/2-y,-z
1/2+x,1/2-y,1/2+z
loop_
_atom_site_type_symbol
_atom_site_label
_atom_site_fract_x
_atom_site_fract_y
_atom_site_fract_z
Si Si1 0.163772 0.613059 0.087489
Si Si2 0.674712 0.741946 0.680349
Si Si3 0.000000 0.813464 0.750000
Si Si4 0.335203 0.191477 0.027602
Si Si5 0.016587 0.788934 0.921813
Si Si6 0.618823 0.323878 0.952655
Si Si7 0.457884 0.485249 0.972974
Si Si8 0.307964 0.547513 0.382048
O O1 0.172924 0.669904 0.140448
O O2 0.000000 0.591517 0.250000
O O3 0.225629 0.673719 0.964639
O O4 0.258084 0.525539 0.984660
O O5 0.516363 0.702346 0.857916
O O6 0.746051 0.768134 0.669397
O O7 0.893358 0.877062 0.827056
O O8 0.091022 0.753526 0.603879
O O9 0.168650 0.213056 0.221295
O O10 0.325243 0.093085 0.010335
O O11 0.422806 0.208171 0.997126
O O12 0.927327 0.879746 0.002075
O O13 0.065248 0.796985 0.941214
O O14 0.642930 0.430068 0.931225
O O15 0.589974 0.493336 0.781827
O O16 0.500000 0.500000 0.000000
#
# Coordination Sequence:
#
# PCOD9288792 Si02
#       8
#     8   8   4   8   8   8   8   8
#     4  11  24  40  57  93 128 165 205 257 309 376
#     4  11  23  38  64  88 128 163 210 250 313 370
#     4  12  24  40  62  92 120 164 218 250 312 386
#     4  11  22  41  60  92 121 158 206 263 309 372
#     4  10  22  39  65  90 125 158 212 258 315 369
#     4  11  21  40  64  92 121 169 204 260 308 378
#     4   9  19  38  60  87 119 156 204 251 300 368
#     4  11  24  38  64  88 123 166 205 259 317 369
#
# _framework density 19.982613000000001
#
# number of rings (size 3 to 8) (size 9 to 14) (size 15 to 20)
#    0.000    1.333    5.333    1.200    2.800    0.000 
#    0.000    0.000    0.000    0.800    0.000    0.000 
#    0.000    0.000    0.000    0.000    0.000    0.000 
#
# Total GULP energy -167311.981460 kJ/mol
# GULP energy per Si atom -5577.066049 kJ/mol
# Density = 1.993713 g / cm^3
# Si number density = 19.982613 Si / 1000 Ang^3
#
#
#
# Elastic Constant Matrix: (Units=GPa)
#
#
# Indices 1 2 3 4 5 6 
#
# 1 57.9628 11.8162 -5.9760 0.0002 5.9963 0.0001
# 2 11.8162 51.8815 -7.7632 -0.0003 2.2386 0.0003
# 3 -5.9760 -7.7632 34.9846 -0.0003 9.6950 0.0003
# 4 0.0002 -0.0003 -0.0003 28.9094 0.0002 1.2968
# 5 5.9963 2.2386 9.6950 0.0002 28.4732 -0.0002
# 6 0.0001 0.0003 0.0003 1.2968 -0.0002 23.7558
#
#
#
# Elastic Compliance Matrix: (Units=1/GPa)
#
#
# Indices 1 2 3 4 5 6 
#
# 1 0.018881 -0.003511 0.003833 0.000000 -0.005006 0.000000
# 2 -0.003511 0.020891 0.004733 0.000000 -0.002515 0.000000
# 3 0.003833 0.004733 0.033806 0.000000 -0.012690 -0.000001
# 4 0.000000 0.000000 0.000000 0.034676 0.000000 -0.001893
# 5 -0.005006 -0.002515 -0.012690 0.000000 0.040694 0.000000
# 6 0.000000 0.000000 -0.000001 -0.001893 0.000000 0.042198
#
#
# Mechanical properties :
#
#
# Convention : Reuss Voigt Hill
#
# Bulk Modulus (GPa) = 11.94897 15.66477 13.80687
# Shear Modulus (GPa) = 23.93137 26.01112 24.97125
#
# Velocity S-wave (km/s) = 3.46440 3.61181 3.53887
# Velocity P-wave (km/s) = 4.68993 5.02491 4.86031
#
# Compressibility (1/GPa) = 0.08368922
#
# Stress axis : x y z
#
# Youngs Moduli (GPa) = 52.96275 47.86750 29.58073
#
# Poissons Ratio (x) = 0.16805 -0.11339
# Poissons Ratio (y) = 0.18594 -0.14000
# Poissons Ratio (z) = -0.20303 -0.22655
#
# Static dielectric constant tensor:
#      x y z
#    x 1.730600 0.000000 0.016700 
#    y 0.000000 1.722970 0.000000 
#    z 0.016700 0.000000 1.691720 
# 
# From -- ./inp_files/61551.got.cif
#   From: 2010.05.17/outbox.cif.g08.bks.cpg/sg15_31_cif.got.tgz:61551.got - 2010.06.03 18:47:42.
