data_PCOD9288547
_publ_section_title
;
Structure prediction by ZEFSAII (Michael W. Deem and Ramdas Pophale) SiO2 
 PCOD9288547
Probable space group: C 2/C
;
_chemical_formula_sum "Si O2"
_cell_formula_units_Z 64
_cell_length_a 25.255733
_cell_length_b 6.774793
_cell_length_c 25.366311
_cell_angle_alpha 90.000000
_cell_angle_beta 135.064630
_cell_angle_gamma 90.000000
_cell_volume 3065.546321
_symmetry_space_group_name_H-M "C 2/C"
_symmetry_group_IT_number 15
_symmetry_cell_setting 'monoclinic'
loop_
_space_group_symop_operation_xyz
x,y,z
-x,y,1/2-z
-x,-y,-z
x,-y,1/2+z
1/2+x,1/2+y,z
1/2-x,1/2+y,1/2-z
1/2-x,1/2-y,-z
1/2+x,1/2-y,1/2+z
loop_
_atom_site_type_symbol
_atom_site_label
_atom_site_fract_x
_atom_site_fract_y
_atom_site_fract_z
Si Si1 0.784443 0.451789 0.093120
Si Si2 0.570684 0.081106 0.931983
Si Si3 0.785039 0.480526 0.210754
Si Si4 0.342230 0.407164 0.574368
Si Si5 0.426867 0.793003 0.662418
Si Si6 0.410130 0.992946 0.438851
Si Si7 0.349800 0.675358 0.817928
Si Si8 0.089006 0.224144 0.153589
O O1 0.753582 0.472192 0.130010
O O2 0.807627 0.226141 0.096459
O O3 0.858161 0.586081 0.139990
O O4 0.724277 0.506712 0.006057
O O5 0.619539 0.247121 0.937320
O O6 0.490703 0.180503 0.888864
O O7 0.559301 0.901138 0.883707
O O8 0.608928 0.008017 0.013162
O O9 0.721628 0.439659 0.209299
O O10 0.824245 0.687455 0.251947
O O11 0.848717 0.313770 0.263578
O O12 0.399950 0.569918 0.634547
O O13 0.500000 0.804972 0.750000
O O14 0.378725 0.177340 0.383644
O O15 0.500000 0.000000 0.500000
O O16 0.388565 0.801465 0.389365
O O17 0.410008 0.510997 0.844946
#
# Coordination Sequence:
#
# PCOD9288547 Si02
#       8
#     8   8   8   8   8   8   8   8
#     4  10  23  43  65  92 129 168 214 275 325 389
#     4  10  22  40  63  92 125 164 214 274 321 389
#     4  11  22  39  60  92 128 169 215 267 322 397
#     4  10  23  43  66  96 124 164 223 270 332 397
#     4  11  24  42  64  95 128 167 219 267 333 397
#     4   9  21  38  58  88 121 162 209 262 314 387
#     4  11  22  39  60  91 130 169 216 258 325 392
#     4  10  22  39  61  90 132 169 213 266 323 390
#
# _framework density 20.877193999999999
#
# number of rings (size 3 to 8) (size 9 to 14) (size 15 to 20)
#    0.000    1.750    1.250    1.875    0.000   12.000 
#    0.000    0.000    0.000    0.000    0.000    0.000 
#    0.000    0.000    0.000    0.000    0.000    0.000 
#
# Total GULP energy -178848.941244 kJ/mol
# GULP energy per Si atom -5589.029414 kJ/mol
# Density = 2.082968 g / cm^3
# Si number density = 20.877194 Si / 1000 Ang^3
#
#
#
# Elastic Constant Matrix: (Units=GPa)
#
#
# Indices 1 2 3 4 5 6 
#
# 1 38.9364 4.0275 -8.7977 0.0000 -7.1135 -0.0001
# 2 4.0275 84.1914 19.6080 0.0020 -12.4527 0.0015
# 3 -8.7977 19.6080 40.6718 -0.0005 -0.2603 -0.0007
# 4 0.0000 0.0020 -0.0005 26.2117 0.0004 15.0682
# 5 -7.1135 -12.4527 -0.2603 0.0004 33.7357 0.0001
# 6 -0.0001 0.0015 -0.0007 15.0682 0.0001 14.6004
#
#
#
# Elastic Compliance Matrix: (Units=1/GPa)
#
#
# Indices 1 2 3 4 5 6 
#
# 1 0.028526 -0.002294 0.007310 -0.000001 0.005225 0.000001
# 2 -0.002294 0.014423 -0.007419 0.000000 0.004783 -0.000001
# 3 0.007310 -0.007419 0.029739 -0.000001 -0.000968 0.000003
# 4 -0.000001 0.000000 -0.000001 0.093802 -0.000001 -0.096807
# 5 0.005225 0.004783 -0.000968 -0.000001 0.032502 0.000000
# 6 0.000001 -0.000001 0.000003 -0.096807 0.000000 0.168400
#
#
# Mechanical properties :
#
#
# Convention : Reuss Voigt Hill
#
# Bulk Modulus (GPa) = 14.73155 21.49726 18.11440
# Shear Modulus (GPa) = 12.66382 24.84036 18.75209
#
# Velocity S-wave (km/s) = 2.46557 3.45314 3.00027
# Velocity P-wave (km/s) = 3.89576 5.12037 4.54946
#
# Compressibility (1/GPa) = 0.06788154
#
# Stress axis : x y z
#
# Youngs Moduli (GPa) = 35.05520 69.33507 33.62610
#
# Poissons Ratio (x) = 0.15908 -0.24581
# Poissons Ratio (y) = 0.08043 0.24947
# Poissons Ratio (z) = -0.25626 0.51439
#
# Static dielectric constant tensor:
#      x y z
#    x 1.757430 0.000000 0.008640 
#    y 0.000000 1.732550 0.000000 
#    z 0.008640 0.000000 1.705530 
# 
# From -- ./inp_files/304102.got.cif
#   From: 2010.05.17/outbox.cif.g08.bks.cpg/sg15_153_cif.got.tgz:304102.got - 2010.06.03 18:47:42.
