data_PCOD9288591
_publ_section_title
;
Structure prediction by ZEFSAII (Michael W. Deem and Ramdas Pophale) SiO2 
 PCOD9288591
Probable space group: C 2/C
;
_chemical_formula_sum "Si O2"
_cell_formula_units_Z 40
_cell_length_a 24.609672
_cell_length_b 6.318028
_cell_length_c 12.615907
_cell_angle_alpha 90.000000
_cell_angle_beta 79.021765
_cell_angle_gamma 90.000000
_cell_volume 1925.681520
_symmetry_space_group_name_H-M "C 2/C"
_symmetry_group_IT_number 15
_symmetry_cell_setting 'monoclinic'
loop_
_space_group_symop_operation_xyz
x,y,z
-x,y,1/2-z
-x,-y,-z
x,-y,1/2+z
1/2+x,1/2+y,z
1/2-x,1/2+y,1/2-z
1/2-x,1/2-y,-z
1/2+x,1/2-y,1/2+z
loop_
_atom_site_type_symbol
_atom_site_label
_atom_site_fract_x
_atom_site_fract_y
_atom_site_fract_z
Si Si1 0.973504 0.336344 0.926985
Si Si2 0.922587 0.657404 0.230304
Si Si3 0.370159 0.811532 0.092518
Si Si4 0.320317 0.572771 0.741806
Si Si5 0.725628 0.894880 0.916532
O O1 0.945566 0.434699 0.831901
O O2 0.027670 0.229964 0.854559
O O3 0.922379 0.225339 0.005543
O O4 0.000000 0.500000 0.000000
O O5 0.896696 0.473738 0.167809
O O6 0.875511 0.827443 0.269839
O O7 0.337297 0.633421 0.168413
O O8 0.326055 0.949245 0.040362
O O9 0.295380 0.739767 0.668351
O O10 0.275756 0.526407 0.847999
O O11 0.750000 0.750000 0.000000
#
# Coordination Sequence:
#
# PCOD9288591 Si02
#       5
#     8   8   8   8   8
#     4   9  19  40  64  89 120 156 200 253 310 361
#     4   9  21  40  62  89 124 156 201 255 304 372
#     4  10  22  39  62  89 123 163 200 254 307 364
#     4  11  23  41  59  92 125 161 210 253 306 376
#     4  11  25  40  61  92 128 166 209 255 309 369
#
# _framework density 20.771865999999999
#
# number of rings (size 3 to 8) (size 9 to 14) (size 15 to 20)
#    0.000    2.000    2.000    0.000    5.600    1.600 
#    0.000    8.000    0.000    0.000    0.000    0.000 
#    0.000    0.000    0.000    0.000    0.000    0.000 
#
# Total GULP energy -111502.200323 kJ/mol
# GULP energy per Si atom -5575.110016 kJ/mol
# Density = 2.072459 g / cm^3
# Si number density = 20.771866 Si / 1000 Ang^3
#
#
#
# Elastic Constant Matrix: (Units=GPa)
#
#
# Indices 1 2 3 4 5 6 
#
# 1 144.1627 30.9623 50.8091 0.0000 -9.9706 0.0000
# 2 30.9623 37.2768 5.5373 0.0000 -3.6195 0.0000
# 3 50.8091 5.5373 72.0782 0.0000 4.3856 0.0000
# 4 0.0000 0.0000 0.0000 24.6509 0.0000 -4.3692
# 5 -9.9706 -3.6195 4.3856 0.0000 45.1208 0.0000
# 6 0.0000 0.0000 0.0000 -4.3692 0.0000 22.6752
#
#
#
# Elastic Compliance Matrix: (Units=1/GPa)
#
#
# Indices 1 2 3 4 5 6 
#
# 1 0.011607 -0.008238 -0.007710 0.000000 0.002653 0.000000
# 2 -0.008238 0.033242 0.003221 0.000000 0.000533 0.000000
# 3 -0.007710 0.003221 0.019264 0.000000 -0.003318 0.000000
# 4 0.000000 0.000000 0.000000 0.042001 0.000000 0.008093
# 5 0.002653 0.000533 -0.003318 0.000000 0.023114 0.000000
# 6 0.000000 0.000000 0.000000 0.008093 0.000000 0.045661
#
#
# Mechanical properties :
#
#
# Convention : Reuss Voigt Hill
#
# Bulk Modulus (GPa) = 25.86833 47.57056 36.71945
# Shear Modulus (GPa) = 23.44899 29.56998 26.50949
#
# Velocity S-wave (km/s) = 3.36353 3.77710 3.57630
# Velocity P-wave (km/s) = 5.25024 6.47867 5.89653
#
# Compressibility (1/GPa) = 0.03865731
#
# Stress axis : x y z
#
# Youngs Moduli (GPa) = 86.15596 30.08250 51.91161
#
# Poissons Ratio (x) = 0.24781 0.40026
# Poissons Ratio (y) = 0.70973 -0.16719
# Poissons Ratio (z) = 0.66430 -0.09689
#
# Static dielectric constant tensor:
#      x y z
#    x 1.779480 0.000000 -0.019970 
#    y 0.000000 1.679680 0.000000 
#    z -0.019970 0.000000 1.736920 
# 
# From -- ./inp_files/120746.got.cif
#   From: 2010.05.17/outbox.cif.g08.bks.cpg/sg15_61_cif.got.tgz:120746.got - 2010.06.03 18:47:42.
