data_PCOD9288081
_publ_section_title
;
Structure prediction by ZEFSAII (Michael W. Deem and Ramdas Pophale) SiO2 
 PCOD9288081
Probable space group: C 2/C
;
_chemical_formula_sum "Si O2"
_cell_formula_units_Z 64
_cell_length_a 24.975856
_cell_length_b 13.807280
_cell_length_c 12.845974
_cell_angle_alpha 90.000000
_cell_angle_beta 34.259156
_cell_angle_gamma 90.000000
_cell_volume 2493.764026
_symmetry_space_group_name_H-M "C 2/C"
_symmetry_group_IT_number 15
_symmetry_cell_setting 'monoclinic'
loop_
_space_group_symop_operation_xyz
x,y,z
-x,y,1/2-z
-x,-y,-z
x,-y,1/2+z
1/2+x,1/2+y,z
1/2-x,1/2+y,1/2-z
1/2-x,1/2-y,-z
1/2+x,1/2-y,1/2+z
loop_
_atom_site_type_symbol
_atom_site_label
_atom_site_fract_x
_atom_site_fract_y
_atom_site_fract_z
Si Si1 0.632705 0.843207 0.345774
Si Si2 0.466721 0.827392 0.192368
Si Si3 0.848163 0.681368 0.252286
Si Si4 0.341373 0.570490 0.533488
Si Si5 0.174580 0.148579 0.379330
Si Si6 0.876144 0.094442 0.247228
Si Si7 0.959398 0.448785 0.708153
Si Si8 0.592531 0.379040 0.347908
O O1 0.616584 0.796913 0.255672
O O2 0.729511 0.902534 0.206331
O O3 0.625248 0.753824 0.439595
O O4 0.549296 0.922485 0.491005
O O5 0.500000 0.785945 0.250000
O O6 0.440686 0.939131 0.255083
O O7 0.561143 0.822408 0.970582
O O8 0.759813 0.667448 0.320574
O O9 0.859229 0.787709 0.283398
O O10 0.867298 0.602655 0.309722
O O11 0.365237 0.455693 0.514630
O O12 0.378954 0.614705 0.365073
O O13 0.379909 0.620989 0.574961
O O14 0.201039 0.125954 0.215170
O O15 0.870036 0.977961 0.258591
O O16 0.978098 0.118753 0.029868
O O17 0.000000 0.407624 0.750000
#
# Coordination Sequence:
#
# PCOD9288081 Si02
#       8
#     8   8   8   8   8   8   8   8
#     4  11  22  42  64  96 133 166 215 268 323 383
#     4  10  22  38  63  92 124 169 214 264 326 380
#     4  11  21  41  62  90 133 164 213 265 321 384
#     4  11  23  42  66  94 132 170 214 272 326 381
#     4  11  24  41  63  98 130 169 213 272 323 385
#     4  10  23  41  67  90 129 173 219 261 328 379
#     4  10  22  42  66  93 125 173 212 264 322 390
#     4  10  22  43  62  92 127 172 218 269 310 392
#
# _framework density 25.664014000000002
#
# number of rings (size 3 to 8) (size 9 to 14) (size 15 to 20)
#    0.000    1.500    1.250    4.875    1.750    3.500 
#    6.750    1.250    0.000    0.000    0.000    0.000 
#    0.000    0.000    0.000    0.000    0.000    0.000 
#
# Total GULP energy -178739.279457 kJ/mol
# GULP energy per Si atom -5585.602483 kJ/mol
# Density = 2.560560 g / cm^3
# Si number density = 25.664014 Si / 1000 Ang^3
#
#
#
# Elastic Constant Matrix: (Units=GPa)
#
#
# Indices 1 2 3 4 5 6 
#
# 1 200.6346 33.9652 19.0445 0.0000 -5.9773 0.0000
# 2 33.9652 118.9487 -5.2940 0.0000 -20.7321 0.0000
# 3 19.0445 -5.2940 22.5109 0.0000 -4.2499 0.0000
# 4 0.0000 0.0000 0.0000 12.1772 0.0000 -8.0136
# 5 -5.9773 -20.7321 -4.2499 0.0000 33.1833 0.0000
# 6 0.0000 0.0000 0.0000 -8.0136 0.0000 49.2582
#
#
#
# Elastic Compliance Matrix: (Units=1/GPa)
#
#
# Indices 1 2 3 4 5 6 
#
# 1 0.005842 -0.002087 -0.005616 0.000000 -0.000971 0.000000
# 2 -0.002087 0.010443 0.005516 0.000000 0.006855 0.000000
# 3 -0.005616 0.005516 0.052193 0.000000 0.009119 0.000000
# 4 0.000000 0.000000 0.000000 0.091967 0.000000 0.014962
# 5 -0.000971 0.006855 0.009119 0.000000 0.035412 0.000000
# 6 0.000000 0.000000 0.000000 0.014962 0.000000 0.022735
#
#
# Mechanical properties :
#
#
# Convention : Reuss Voigt Hill
#
# Bulk Modulus (GPa) = 15.59985 48.61398 32.10692
# Shear Modulus (GPa) = 20.46373 38.54899 29.50636
#
# Velocity S-wave (km/s) = 2.82684 3.87985 3.39443
# Velocity P-wave (km/s) = 4.09223 6.24937 5.28209
#
# Compressibility (1/GPa) = 0.06410316
#
# Stress axis : x y z
#
# Youngs Moduli (GPa) = 171.18227 95.75491 19.15954
#
# Poissons Ratio (x) = 0.19987 0.10761
# Poissons Ratio (y) = 0.35731 -0.10569
# Poissons Ratio (z) = 0.96143 -0.52819
#
# Static dielectric constant tensor:
#      x y z
#    x 2.021440 0.000000 0.033940 
#    y 0.000000 2.134070 0.000000 
#    z 0.033940 0.000000 2.056300 
# 
# From -- ./inp_files/173665.got.cif
#   From: 2010.05.17/outbox.cif.g08.bks.cpg/sg15_87_cif.got.tgz:173665.got - 2010.06.03 18:47:42.
