data_PCOD9288519
_publ_section_title
;
Structure prediction by ZEFSAII (Michael W. Deem and Ramdas Pophale) SiO2 
 PCOD9288519
Probable space group: C 2/C
;
_chemical_formula_sum "Si O2"
_cell_formula_units_Z 56
_cell_length_a 16.985304
_cell_length_b 19.282516
_cell_length_c 13.906429
_cell_angle_alpha 90.000000
_cell_angle_beta 140.783113
_cell_angle_gamma 90.000000
_cell_volume 2879.696769
_symmetry_space_group_name_H-M "C 2/C"
_symmetry_group_IT_number 15
_symmetry_cell_setting 'monoclinic'
loop_
_space_group_symop_operation_xyz
x,y,z
-x,y,1/2-z
-x,-y,-z
x,-y,1/2+z
1/2+x,1/2+y,z
1/2-x,1/2+y,1/2-z
1/2-x,1/2-y,-z
1/2+x,1/2-y,1/2+z
loop_
_atom_site_type_symbol
_atom_site_label
_atom_site_fract_x
_atom_site_fract_y
_atom_site_fract_z
Si Si1 0.772059 0.085866 0.396948
Si Si2 0.474644 0.426513 0.426246
Si Si3 0.409596 0.829674 0.302625
Si Si4 0.689018 0.854892 0.490477
Si Si5 0.199075 0.542036 0.688565
Si Si6 0.857893 0.816175 0.828046
Si Si7 0.632173 0.009050 0.421275
O O1 0.920428 0.077431 0.557087
O O2 0.769197 0.156964 0.331923
O O3 0.695033 0.070389 0.419286
O O4 0.729788 0.025779 0.281349
O O5 0.500000 0.500000 0.500000
O O6 0.329145 0.427307 0.269923
O O7 0.520205 0.364393 0.539527
O O8 0.553210 0.840354 0.408751
O O9 0.324586 0.819558 0.126567
O O10 0.364060 0.899977 0.307555
O O11 0.392036 0.764121 0.355505
O O12 0.792112 0.833603 0.664934
O O13 0.707214 0.936993 0.487764
O O14 0.117116 0.525153 0.518754
O O15 0.500000 0.993981 0.250000
#
# Coordination Sequence:
#
# PCOD9288519 Si02
#       7
#     8   8   8   8   8   8   8
#     4   9  20  38  60  85 121 159 209 251 306 365
#     4   8  18  38  58  84 113 164 211 244 302 357
#     4  11  24  37  60  95 130 167 201 255 324 381
#     4  11  21  40  60  93 130 162 204 254 320 380
#     4  11  21  38  62  89 123 162 209 261 309 369
#     4  10  22  39  61  86 130 163 201 261 307 375
#     4  12  22  37  63  96 120 158 212 263 308 370
#
# _framework density 19.446491999999999
#
# number of rings (size 3 to 8) (size 9 to 14) (size 15 to 20)
#    0.857    0.857    4.286    0.429    4.000    1.714 
#    0.000    0.714    0.000    0.000    0.000    0.000 
#    0.000    0.000    0.000    0.000    0.000    0.000 
#
# Total GULP energy -155973.366174 kJ/mol
# GULP energy per Si atom -5570.477363 kJ/mol
# Density = 1.940223 g / cm^3
# Si number density = 19.446492 Si / 1000 Ang^3
#
#
#
# Elastic Constant Matrix: (Units=GPa)
#
#
# Indices 1 2 3 4 5 6 
#
# 1 46.6076 25.6270 -7.6135 0.0000 -14.2799 0.0000
# 2 25.6270 87.5649 -3.8837 0.0000 -6.7947 0.0000
# 3 -7.6135 -3.8837 61.1294 0.0000 -7.7815 0.0000
# 4 0.0000 0.0000 0.0000 10.1453 0.0000 -2.9732
# 5 -14.2799 -6.7947 -7.7815 0.0000 16.2286 0.0000
# 6 0.0000 0.0000 0.0000 -2.9732 0.0000 26.5422
#
#
#
# Elastic Compliance Matrix: (Units=1/GPa)
#
#
# Indices 1 2 3 4 5 6 
#
# 1 0.037596 -0.008005 0.008476 0.000000 0.033794 0.000000
# 2 -0.008005 0.013633 -0.000320 0.000000 -0.001489 0.000000
# 3 0.008476 -0.000320 0.019518 0.000000 0.016682 0.000000
# 4 0.000000 0.000000 0.000000 0.101914 0.000000 0.011416
# 5 0.033794 -0.001489 0.016682 0.000000 0.098731 0.000000
# 6 0.000000 0.000000 0.000000 0.011416 0.000000 0.038955
#
#
# Mechanical properties :
#
#
# Convention : Reuss Voigt Hill
#
# Bulk Modulus (GPa) = 14.07510 24.84016 19.45763
# Shear Modulus (GPa) = 14.98232 22.66136 18.82184
#
# Velocity S-wave (km/s) = 2.77869 3.41738 3.11445
# Velocity P-wave (km/s) = 4.18908 5.32660 4.79171
#
# Compressibility (1/GPa) = 0.07104744
#
# Stress axis : x y z
#
# Youngs Moduli (GPa) = 26.59892 73.35138 51.23579
#
# Poissons Ratio (x) = 0.58715 -0.43426
# Poissons Ratio (y) = 0.21291 0.01641
# Poissons Ratio (z) = -0.22544 0.02350
#
# Static dielectric constant tensor:
#      x y z
#    x 1.704120 0.000000 0.008980 
#    y 0.000000 1.676500 0.000000 
#    z 0.008980 0.000000 1.690190 
# 
# From -- ./inp_files/163094.got.cif
#   From: 2010.05.17/outbox.cif.g08.bks.cpg/sg15_82_cif.got.tgz:163094.got - 2010.06.03 18:47:42.
