data_PCOD9288443
_publ_section_title
;
Structure prediction by ZEFSAII (Michael W. Deem and Ramdas Pophale) SiO2 
 PCOD9288443
Probable space group: C 2/C
;
_chemical_formula_sum "Si O2"
_cell_formula_units_Z 52
_cell_length_a 24.156178
_cell_length_b 15.628552
_cell_length_c 8.544986
_cell_angle_alpha 90.000000
_cell_angle_beta 133.427041
_cell_angle_gamma 90.000000
_cell_volume 2342.850913
_symmetry_space_group_name_H-M "C 2/C"
_symmetry_group_IT_number 15
_symmetry_cell_setting 'monoclinic'
loop_
_space_group_symop_operation_xyz
x,y,z
-x,y,1/2-z
-x,-y,-z
x,-y,1/2+z
1/2+x,1/2+y,z
1/2-x,1/2+y,1/2-z
1/2-x,1/2-y,-z
1/2+x,1/2-y,1/2+z
loop_
_atom_site_type_symbol
_atom_site_label
_atom_site_fract_x
_atom_site_fract_y
_atom_site_fract_z
Si Si1 0.147243 0.796873 0.967035
Si Si2 0.868942 0.147378 0.707767
Si Si3 0.500000 0.225925 0.750000
Si Si4 0.000000 0.114674 0.750000
Si Si5 0.587718 0.090043 0.124842
Si Si6 0.735837 0.862507 0.741550
Si Si7 0.500000 0.951016 0.750000
Si Si8 0.853220 0.048380 0.269499
O O1 0.145529 0.819937 0.146923
O O2 0.195691 0.708797 0.052709
O O3 0.059038 0.777714 0.762346
O O4 0.163279 0.877917 0.890862
O O5 0.949322 0.164192 0.779701
O O6 0.803818 0.182802 0.467681
O O7 0.861024 0.044451 0.709417
O O8 0.452242 0.166820 0.543336
O O9 0.932598 0.065202 0.520952
O O10 0.675656 0.100347 0.249405
O O11 0.559912 0.093371 0.249280
O O12 0.552720 0.007076 0.969605
O O13 0.779096 0.938739 0.735221
#
# Coordination Sequence:
#
# PCOD9288443 Si02
#       8
#     8   8   4   4   8   8   4   8
#     4  11  21  41  63  86 125 167 203 265 312 373
#     4  11  23  40  62  93 123 165 213 256 313 373
#     4   9  20  37  58  84 116 160 204 252 307 367
#     4  10  22  39  59  89 127 156 210 268 302 369
#     4   9  19  37  58  90 119 156 203 250 302 370
#     4  10  23  39  58  90 131 160 206 253 315 377
#     4   9  18  36  63  85 119 156 202 250 305 350
#     4  11  23  40  63  92 122 166 213 257 315 369
#
# _framework density 22.195179
#
# number of rings (size 3 to 8) (size 9 to 14) (size 15 to 20)
#    0.000    1.846    0.000    4.154    2.154    1.231 
#    0.000   11.538    0.000    0.000    0.000    0.000 
#    0.000    0.000    0.000    0.000    0.000    0.000 
#
# Total GULP energy -145006.859075 kJ/mol
# GULP energy per Si atom -5577.186888 kJ/mol
# Density = 2.214466 g / cm^3
# Si number density = 22.195179 Si / 1000 Ang^3
#
#
#
# Elastic Constant Matrix: (Units=GPa)
#
#
# Indices 1 2 3 4 5 6 
#
# 1 165.3885 22.8508 23.8870 0.0000 13.0288 0.0000
# 2 22.8508 44.1969 5.3102 0.0000 4.4117 0.0000
# 3 23.8870 5.3102 71.1163 0.0000 11.9904 0.0000
# 4 0.0000 0.0000 0.0000 1.4800 0.0000 27.2106
# 5 13.0288 4.4117 11.9904 0.0000 40.3940 0.0000
# 6 0.0000 0.0000 0.0000 27.2106 0.0000 -0.2039
#
#
#
# Elastic Compliance Matrix: (Units=1/GPa)
#
#
# Indices 1 2 3 4 5 6 
#
# 1 0.006857 -0.003193 -0.001843 0.000000 -0.001316 0.000000
# 2 -0.003193 0.024486 -0.000504 0.000000 -0.001495 0.000000
# 3 -0.001843 -0.000504 0.015378 0.000000 -0.003915 0.000000
# 4 0.000000 0.000000 0.000000 0.000275 0.000000 0.036735
# 5 -0.001316 -0.001495 -0.003915 0.000000 0.026506 0.000000
# 6 0.000000 0.000000 0.000000 0.036735 0.000000 -0.001998
#
#
# Mechanical properties :
#
#
# Convention : Reuss Voigt Hill
#
# Bulk Modulus (GPa) = 28.05610 42.75531 35.40570
# Shear Modulus (GPa) = 52.92935 23.57760 38.25347
#
# Velocity S-wave (km/s) = 4.88866 3.26281 4.15601
# Velocity P-wave (km/s) = 6.67334 5.78789 6.24632
#
# Compressibility (1/GPa) = 0.03564288
#
# Stress axis : x y z
#
# Youngs Moduli (GPa) = 145.82935 40.83892 65.02678
#
# Poissons Ratio (x) = 0.13038 0.11985
# Poissons Ratio (y) = 0.46557 0.03277
# Poissons Ratio (z) = 0.26877 0.02058
#
# Static dielectric constant tensor:
#      x y z
#    x 1.881960 0.000000 0.025090 
#    y 0.000000 1.823170 0.000000 
#    z 0.025090 0.000000 1.845470 
# 
# From -- ./inp_files/48485.got.cif
#   From: 2010.05.17/outbox.cif.g08.bks.cpg/sg15_25_cif.got.tgz:48485.got - 2010.06.03 18:47:42.
