data_PCOD9288667
_publ_section_title
;
Structure prediction by ZEFSAII (Michael W. Deem and Ramdas Pophale) SiO2 
 PCOD9288667
Probable space group: C 2/C
;
_chemical_formula_sum "Si O2"
_cell_formula_units_Z 64
_cell_length_a 18.008469
_cell_length_b 14.936816
_cell_length_c 15.588897
_cell_angle_alpha 90.000000
_cell_angle_beta 50.325236
_cell_angle_gamma 90.000000
_cell_volume 3227.460081
_symmetry_space_group_name_H-M "C 2/C"
_symmetry_group_IT_number 15
_symmetry_cell_setting 'monoclinic'
loop_
_space_group_symop_operation_xyz
x,y,z
-x,y,1/2-z
-x,-y,-z
x,-y,1/2+z
1/2+x,1/2+y,z
1/2-x,1/2+y,1/2-z
1/2-x,1/2-y,-z
1/2+x,1/2-y,1/2+z
loop_
_atom_site_type_symbol
_atom_site_label
_atom_site_fract_x
_atom_site_fract_y
_atom_site_fract_z
Si Si1 0.139224 0.147043 0.039409
Si Si2 0.013014 0.285885 0.381247
Si Si3 0.198139 0.331856 0.730102
Si Si4 0.263992 0.180508 0.564970
Si Si5 0.211062 0.777419 0.664689
Si Si6 0.726992 0.533478 0.471817
Si Si7 0.482309 0.874083 0.935872
Si Si8 0.068508 0.538351 0.623764
O O1 0.170470 0.165193 0.114894
O O2 0.035814 0.189854 0.095341
O O3 0.211753 0.207089 0.928876
O O4 0.148990 0.042538 0.011753
O O5 0.121943 0.277662 0.269739
O O6 0.009130 0.327788 0.478290
O O7 0.950500 0.357265 0.374152
O O8 0.224703 0.231743 0.677110
O O9 0.239600 0.336033 0.796294
O O10 0.248395 0.402422 0.627468
O O11 0.083026 0.348922 0.815318
O O12 0.250000 0.250000 0.500000
O O13 0.208998 0.093275 0.570119
O O14 0.378477 0.161953 0.480748
O O15 0.823962 0.479994 0.425673
O O16 0.463851 0.980394 0.934971
O O17 0.000000 0.504513 0.750000
#
# Coordination Sequence:
#
# PCOD9288667 Si02
#       8
#     8   8   8   8   8   8   8   8
#     4  11  23  42  61  90 131 172 209 260 318 389
#     4  12  23  40  65  91 128 169 210 258 325 387
#     4  11  21  42  64  94 127 167 212 271 323 377
#     4   9  21  40  67  89 123 166 209 266 317 384
#     4  11  23  40  64  89 128 169 212 255 317 390
#     4  10  22  39  63  91 126 163 213 260 321 378
#     4  11  22  37  61  99 126 154 213 268 323 378
#     4  11  20  36  59  96 123 154 201 269 323 375
#
# _framework density 19.829834999999999
#
# number of rings (size 3 to 8) (size 9 to 14) (size 15 to 20)
#    0.000    1.250    3.750    3.750    0.000    0.000 
#    2.250    0.625   11.000    0.000    0.000    0.000 
#    0.000    0.000    0.000    0.000    0.000    0.000 
#
# Total GULP energy -178503.853440 kJ/mol
# GULP energy per Si atom -5578.245420 kJ/mol
# Density = 1.978470 g / cm^3
# Si number density = 19.829835 Si / 1000 Ang^3
#
#
#
# Elastic Constant Matrix: (Units=GPa)
#
#
# Indices 1 2 3 4 5 6 
#
# 1 66.5188 31.6617 15.9258 0.0000 15.5123 0.0000
# 2 31.6617 86.7923 18.5051 0.0000 4.7984 0.0000
# 3 15.9258 18.5051 68.2142 0.0000 8.7492 0.0000
# 4 0.0000 0.0000 0.0000 17.9353 0.0000 -7.3912
# 5 15.5123 4.7984 8.7492 0.0000 31.4529 0.0000
# 6 0.0000 0.0000 0.0000 -7.3912 0.0000 24.2877
#
#
#
# Elastic Compliance Matrix: (Units=1/GPa)
#
#
# Indices 1 2 3 4 5 6 
#
# 1 0.020677 -0.006657 -0.001912 0.000000 -0.008650 0.000000
# 2 -0.006657 0.014401 -0.002584 0.000000 0.001805 0.000000
# 3 -0.001912 -0.002584 0.016214 0.000000 -0.003173 0.000000
# 4 0.000000 0.000000 0.000000 0.063751 0.000000 0.019400
# 5 -0.008650 0.001805 -0.003173 0.000000 0.036667 0.000000
# 6 0.000000 0.000000 0.000000 0.019400 0.000000 0.047077
#
#
# Mechanical properties :
#
#
# Convention : Reuss Voigt Hill
#
# Bulk Modulus (GPa) = 34.49918 39.30116 36.90017
# Shear Modulus (GPa) = 21.66794 25.09738 23.38266
#
# Velocity S-wave (km/s) = 3.30918 3.56144 3.43762
# Velocity P-wave (km/s) = 5.66006 6.06416 5.86559
#
# Compressibility (1/GPa) = 0.02898619
#
# Stress axis : x y z
#
# Youngs Moduli (GPa) = 48.36293 69.43766 61.67484
#
# Poissons Ratio (x) = 0.46225 0.11792
# Poissons Ratio (y) = 0.32195 0.15937
# Poissons Ratio (z) = 0.09247 0.17943
#
# Static dielectric constant tensor:
#      x y z
#    x 1.733090 0.000000 0.016410 
#    y 0.000000 1.735270 0.000000 
#    z 0.016410 0.000000 1.732650 
# 
# From -- ./inp_files/162546.got.cif
#   From: 2010.05.17/outbox.cif.g08.bks.cpg/sg15_82_cif.got.tgz:162546.got - 2010.06.03 18:47:42.
