data_PCOD9288013
_publ_section_title
;
Structure prediction by ZEFSAII (Michael W. Deem and Ramdas Pophale) SiO2 
 PCOD9288013
Probable space group: C 2/C
;
_chemical_formula_sum "Si O2"
_cell_formula_units_Z 40
_cell_length_a 18.574812
_cell_length_b 16.599963
_cell_length_c 7.941754
_cell_angle_alpha 90.000000
_cell_angle_beta 50.601271
_cell_angle_gamma 90.000000
_cell_volume 1892.281190
_symmetry_space_group_name_H-M "C 2/C"
_symmetry_group_IT_number 15
_symmetry_cell_setting 'monoclinic'
loop_
_space_group_symop_operation_xyz
x,y,z
-x,y,1/2-z
-x,-y,-z
x,-y,1/2+z
1/2+x,1/2+y,z
1/2-x,1/2+y,1/2-z
1/2-x,1/2-y,-z
1/2+x,1/2-y,1/2+z
loop_
_atom_site_type_symbol
_atom_site_label
_atom_site_fract_x
_atom_site_fract_y
_atom_site_fract_z
Si Si1 0.890581 0.278767 0.106757
Si Si2 0.086728 0.660146 0.295905
Si Si3 0.500000 0.484916 0.750000
Si Si4 0.000000 0.485734 0.750000
Si Si5 0.375450 0.409181 0.656677
Si Si6 0.172245 0.392971 0.997027
O O1 0.863230 0.185990 0.150984
O O2 0.844848 0.332649 0.321268
O O3 0.873450 0.315980 0.945993
O O4 0.002850 0.279735 0.965763
O O5 0.159613 0.652838 0.337160
O O6 0.028146 0.577079 0.355795
O O7 0.453034 0.428998 0.680391
O O8 0.582852 0.542824 0.562808
O O9 0.089998 0.541811 0.609924
O O10 0.271690 0.436112 0.860437
#
# Coordination Sequence:
#
# PCOD9288013 Si02
#       6
#     8   8   4   4   8   8
#     4  10  22  43  62 101 133 173 217 262 325 396
#     4  10  23  38  68  96 142 176 200 271 330 384
#     4  10  26  50  66  90 126 176 224 292 322 374
#     4  10  22  38  62 102 142 158 210 260 328 406
#     4  11  26  46  69  93 127 174 232 272 332 388
#     4  12  23  40  69 102 130 180 211 266 333 392
#
# _framework density 21.138508000000002
#
# number of rings (size 3 to 8) (size 9 to 14) (size 15 to 20)
#    0.000    1.600    2.000    2.400    8.400    0.800 
#    3.600    0.000    0.000    0.000    0.000    0.000 
#    0.000    0.000    0.000    0.000    0.000    0.000 
#
# Total GULP energy -111627.528910 kJ/mol
# GULP energy per Si atom -5581.376445 kJ/mol
# Density = 2.109040 g / cm^3
# Si number density = 21.138508 Si / 1000 Ang^3
#
#
#
# Elastic Constant Matrix: (Units=GPa)
#
#
# Indices 1 2 3 4 5 6 
#
# 1 69.1229 18.2612 40.1460 0.0000 -6.0807 0.0000
# 2 18.2612 89.3421 42.6255 0.0000 -6.0357 0.0000
# 3 40.1460 42.6255 103.5984 0.0000 2.1073 0.0000
# 4 0.0000 0.0000 0.0000 31.4496 0.0000 -14.2745
# 5 -6.0807 -6.0357 2.1073 0.0000 40.3722 0.0000
# 6 0.0000 0.0000 0.0000 -14.2745 0.0000 19.2135
#
#
#
# Elastic Compliance Matrix: (Units=1/GPa)
#
#
# Indices 1 2 3 4 5 6 
#
# 1 0.019091 -0.000152 -0.007401 0.000000 0.003239 0.000000
# 2 -0.000152 0.014161 -0.005816 0.000000 0.002398 0.000000
# 3 -0.007401 -0.005816 0.014970 0.000000 -0.002766 0.000000
# 4 0.000000 0.000000 0.000000 0.047974 0.000000 0.035642
# 5 0.003239 0.002398 -0.002766 0.000000 0.025760 0.000000
# 6 0.000000 0.000000 0.000000 0.035642 0.000000 0.078527
#
#
# Mechanical properties :
#
#
# Convention : Reuss Voigt Hill
#
# Bulk Modulus (GPa) = 46.54966 51.56987 49.05976
# Shear Modulus (GPa) = 21.33254 28.94244 25.13749
#
# Velocity S-wave (km/s) = 3.18020 3.70426 3.45219
# Velocity P-wave (km/s) = 5.96272 6.53793 6.25694
#
# Compressibility (1/GPa) = 0.02148244
#
# Stress axis : x y z
#
# Youngs Moduli (GPa) = 52.38161 70.61638 66.79949
#
# Poissons Ratio (x) = 0.01074 0.49440
# Poissons Ratio (y) = 0.00797 0.38853
# Poissons Ratio (z) = 0.38769 0.41073
#
# Static dielectric constant tensor:
#      x y z
#    x 1.756900 0.000000 0.019760 
#    y 0.000000 1.778120 0.000000 
#    z 0.019760 0.000000 1.844510 
# 
# From -- ./inp_files/55177.got.cif
#   From: 2010.05.17/outbox.cif.g08.bks.cpg/sg15_28_cif.got.tgz:55177.got - 2010.06.03 18:47:42.
