data_PCOD9288941
_publ_section_title
;
Structure prediction by ZEFSAII (Michael W. Deem and Ramdas Pophale) SiO2 
 PCOD9288941
Probable space group: C 2/C
;
_chemical_formula_sum "Si O2"
_cell_formula_units_Z 60
_cell_length_a 17.075874
_cell_length_b 21.992754
_cell_length_c 11.728337
_cell_angle_alpha 90.000000
_cell_angle_beta 143.484044
_cell_angle_gamma 90.000000
_cell_volume 2620.897226
_symmetry_space_group_name_H-M "C 2/C"
_symmetry_group_IT_number 15
_symmetry_cell_setting 'monoclinic'
loop_
_space_group_symop_operation_xyz
x,y,z
-x,y,1/2-z
-x,-y,-z
x,-y,1/2+z
1/2+x,1/2+y,z
1/2-x,1/2+y,1/2-z
1/2-x,1/2-y,-z
1/2+x,1/2-y,1/2+z
loop_
_atom_site_type_symbol
_atom_site_label
_atom_site_fract_x
_atom_site_fract_y
_atom_site_fract_z
Si Si1 0.008283 0.318366 0.893433
Si Si2 0.120726 0.471306 0.567902
Si Si3 0.056211 0.887458 0.929662
Si Si4 0.000000 0.624920 0.750000
Si Si5 0.590745 0.701549 0.081945
Si Si6 0.241161 0.889403 0.604817
Si Si7 0.250023 0.409913 0.147382
Si Si8 0.786380 0.298335 0.135463
O O1 0.000000 0.307276 0.750000
O O2 0.887144 0.360631 0.784300
O O3 0.984518 0.251896 0.920795
O O4 0.143371 0.358713 0.065738
O O5 0.080641 0.418434 0.431702
O O6 0.234959 0.448574 0.788531
O O7 0.172880 0.527125 0.555192
O O8 0.000000 0.500000 0.500000
O O9 0.000000 0.920333 0.750000
O O10 0.951850 0.840853 0.863534
O O11 0.127859 0.917421 0.122722
O O12 0.173627 0.846545 0.019222
O O13 0.913915 0.666793 0.734729
O O14 0.639648 0.657008 0.042058
O O15 0.698512 0.751975 0.241331
O O16 0.209271 0.896873 0.434613
O O17 0.750000 0.250000 0.000000
#
# Coordination Sequence:
#
# PCOD9288941 Si02
#       8
#     8   8   8   4   8   8   8   8
#     4  10  22  39  68 105 142 176 228 288 364 424
#     4  12  23  45  73 107 140 183 241 307 359 414
#     4  12  26  44  66  97 144 190 237 290 362 434
#     4  12  26  40  82 108 142 194 238 302 376 418
#     4  12  24  42  69 102 149 190 232 289 352 450
#     4  11  25  44  71 109 141 185 240 288 366 429
#     4  11  25  46  70 102 142 184 237 305 355 423
#     4  12  22  43  66 108 146 182 232 293 360 438
#
# _framework density 22.892923
#
# number of rings (size 3 to 8) (size 9 to 14) (size 15 to 20)
#    0.000    0.533    4.000    4.800    2.800    1.067 
#    0.000    0.667    0.000    0.000    0.000    0.000 
#    0.000    0.000    0.000    0.000    0.000    0.000 
#
# Total GULP energy -167379.805602 kJ/mol
# GULP energy per Si atom -5579.326853 kJ/mol
# Density = 2.284082 g / cm^3
# Si number density = 22.892923 Si / 1000 Ang^3
#
#
#
# Elastic Constant Matrix: (Units=GPa)
#
#
# Indices 1 2 3 4 5 6 
#
# 1 101.3651 31.3115 24.3441 0.0000 -19.7331 0.0000
# 2 31.3115 91.3259 22.6719 0.0000 -11.4947 0.0000
# 3 24.3441 22.6719 99.9912 0.0000 -25.2736 0.0000
# 4 0.0000 0.0000 0.0000 15.6730 0.0000 -20.0561
# 5 -19.7331 -11.4947 -25.2736 0.0000 23.8901 0.0000
# 6 0.0000 0.0000 0.0000 -20.0561 0.0000 -9.1686
#
#
#
# Elastic Compliance Matrix: (Units=1/GPa)
#
#
# Indices 1 2 3 4 5 6 
#
# 1 0.012577 -0.003181 -0.000139 0.000000 0.008711 0.000000
# 2 -0.003181 0.012669 -0.001667 0.000000 0.001704 0.000000
# 3 -0.000139 -0.001667 0.013897 0.000000 0.013785 0.000000
# 4 0.000000 0.000000 0.000000 0.016794 0.000000 -0.036736
# 5 0.008711 0.001704 0.013785 0.000000 0.064456 0.000000
# 6 0.000000 0.000000 0.000000 -0.036736 0.000000 -0.028708
#
#
# Mechanical properties :
#
#
# Convention : Reuss Voigt Hill
#
# Bulk Modulus (GPa) = 34.28413 49.92635 42.10524
# Shear Modulus (GPa) = 44.89006 20.36921 32.62964
#
# Velocity S-wave (km/s) = 4.43298 2.98612 3.77943
# Velocity P-wave (km/s) = 6.41951 5.80906 6.12190
#
# Compressibility (1/GPa) = 0.02916801
#
# Stress axis : x y z
#
# Youngs Moduli (GPa) = 79.50902 78.93348 71.95828
#
# Poissons Ratio (x) = 0.25111 0.01000
# Poissons Ratio (y) = 0.25294 0.11998
# Poissons Ratio (z) = 0.01105 0.13161
#
# Static dielectric constant tensor:
#      x y z
#    x 1.917650 0.000000 -0.234280 
#    y 0.000000 1.681000 0.000000 
#    z -0.234280 0.000000 2.607560 
# 
# From -- ./inp_files/107652.got.cif
#   From: 2010.05.17/outbox.cif.g08.bks.cpg/sg15_54_cif.got.tgz:107652.got - 2010.06.03 18:47:42.
