data_PCOD9288639
_publ_section_title
;
Structure prediction by ZEFSAII (Michael W. Deem and Ramdas Pophale) SiO2 
 PCOD9288639
Probable space group: C 2/C
;
_chemical_formula_sum "Si O2"
_cell_formula_units_Z 56
_cell_length_a 23.981224
_cell_length_b 14.499640
_cell_length_c 7.644562
_cell_angle_alpha 90.000000
_cell_angle_beta 116.264390
_cell_angle_gamma 90.000000
_cell_volume 2383.736195
_symmetry_space_group_name_H-M "C 2/C"
_symmetry_group_IT_number 15
_symmetry_cell_setting 'monoclinic'
loop_
_space_group_symop_operation_xyz
x,y,z
-x,y,1/2-z
-x,-y,-z
x,-y,1/2+z
1/2+x,1/2+y,z
1/2-x,1/2+y,1/2-z
1/2-x,1/2-y,-z
1/2+x,1/2-y,1/2+z
loop_
_atom_site_type_symbol
_atom_site_label
_atom_site_fract_x
_atom_site_fract_y
_atom_site_fract_z
Si Si1 0.262543 0.382361 0.078003
Si Si2 0.821620 0.928916 0.799762
Si Si3 0.807955 0.208877 0.970271
Si Si4 0.066809 0.819149 0.413510
Si Si5 0.568761 0.806797 0.261752
Si Si6 0.571486 0.017203 0.560707
Si Si7 0.381412 0.138338 0.179752
O O1 0.293703 0.471698 0.214091
O O2 0.287397 0.303792 0.241947
O O3 0.280244 0.385122 0.898364
O O4 0.188521 0.376621 0.981970
O O5 0.820906 0.880027 0.609943
O O6 0.889437 0.905985 0.977194
O O7 0.750000 0.250000 0.000000
O O8 0.873484 0.260949 0.059529
O O9 0.059367 0.758747 0.578792
O O10 0.097069 0.743714 0.320802
O O11 0.000000 0.847831 0.250000
O O12 0.500000 0.815310 0.250000
O O13 0.593078 0.905079 0.227366
O O14 0.577673 0.073887 0.391345
O O15 0.500000 0.000000 0.500000
O O16 0.607232 0.920296 0.627837
#
# Coordination Sequence:
#
# PCOD9288639 Si02
#       7
#     8   8   8   8   8   8   8
#     4  12  24  45  70  99 138 177 233 287 340 411
#     4  11  25  45  70 101 133 181 227 282 350 404
#     4  11  25  45  70  99 144 178 228 291 342 417
#     4  10  23  43  64  93 134 168 221 281 338 408
#     4  10  22  39  62  96 128 175 225 272 341 406
#     4  11  21  38  61  94 136 177 219 266 335 409
#     4  11  23  39  62  96 131 176 220 273 336 405
#
# _framework density 23.492533999999999
#
# number of rings (size 3 to 8) (size 9 to 14) (size 15 to 20)
#    0.000    1.143    1.429    6.429    4.000    2.286 
#    2.571    1.429    0.000    0.000    0.000    0.000 
#    0.000    0.000    0.000    0.000    0.000    0.000 
#
# Total GULP energy -156404.871936 kJ/mol
# GULP energy per Si atom -5585.888283 kJ/mol
# Density = 2.343906 g / cm^3
# Si number density = 23.492534 Si / 1000 Ang^3
#
#
#
# Elastic Constant Matrix: (Units=GPa)
#
#
# Indices 1 2 3 4 5 6 
#
# 1 102.0458 20.6933 28.2893 0.0000 11.4365 0.0000
# 2 20.6933 68.2200 28.5235 0.0000 18.3248 0.0000
# 3 28.2893 28.5235 101.7489 0.0000 16.4952 0.0000
# 4 0.0000 0.0000 0.0000 40.2617 0.0000 0.4053
# 5 11.4365 18.3248 16.4952 0.0000 64.7822 0.0000
# 6 0.0000 0.0000 0.0000 0.4053 0.0000 31.6760
#
#
#
# Elastic Compliance Matrix: (Units=1/GPa)
#
#
# Indices 1 2 3 4 5 6 
#
# 1 0.010964 -0.002157 -0.002325 0.000000 -0.000734 0.000000
# 2 -0.002157 0.017906 -0.003818 0.000000 -0.003712 0.000000
# 3 -0.002325 -0.003818 0.011790 0.000000 -0.001512 0.000000
# 4 0.000000 0.000000 0.000000 0.024841 0.000000 -0.000318
# 5 -0.000734 -0.003712 -0.001512 0.000000 0.017001 0.000000
# 6 0.000000 0.000000 0.000000 -0.000318 0.000000 0.031574
#
#
# Mechanical properties :
#
#
# Convention : Reuss Voigt Hill
#
# Bulk Modulus (GPa) = 41.56197 47.44742 44.50469
# Shear Modulus (GPa) = 36.05056 40.31121 38.18089
#
# Velocity S-wave (km/s) = 3.92159 4.14686 4.03579
# Velocity P-wave (km/s) = 6.18345 6.57033 6.37982
#
# Compressibility (1/GPa) = 0.02406046
#
# Stress axis : x y z
#
# Youngs Moduli (GPa) = 91.21164 55.84660 84.81839
#
# Poissons Ratio (x) = 0.12044 0.19718
# Poissons Ratio (y) = 0.19670 0.32386
# Poissons Ratio (z) = 0.21204 0.21324
#
# Static dielectric constant tensor:
#      x y z
#    x 1.919570 0.000000 -0.088880 
#    y 0.000000 1.974750 0.000000 
#    z -0.088880 0.000000 2.028920 
# 
# From -- ./inp_files/61976.got.cif
#   From: 2010.05.17/outbox.cif.g08.bks.cpg/sg15_31_cif.got.tgz:61976.got - 2010.06.03 18:47:42.
