data_PCOD9288168
_publ_section_title
;
Structure prediction by ZEFSAII (Michael W. Deem and Ramdas Pophale) SiO2 
 PCOD9288168
Probable space group: C 2/C
;
_chemical_formula_sum "Si O2"
_cell_formula_units_Z 36
_cell_length_a 25.531348
_cell_length_b 12.372874
_cell_length_c 5.049854
_cell_angle_alpha 90.000000
_cell_angle_beta 98.010481
_cell_angle_gamma 90.000000
_cell_volume 1579.664144
_symmetry_space_group_name_H-M "C 2/C"
_symmetry_group_IT_number 15
_symmetry_cell_setting 'monoclinic'
loop_
_space_group_symop_operation_xyz
x,y,z
-x,y,1/2-z
-x,-y,-z
x,-y,1/2+z
1/2+x,1/2+y,z
1/2-x,1/2+y,1/2-z
1/2-x,1/2-y,-z
1/2+x,1/2-y,1/2+z
loop_
_atom_site_type_symbol
_atom_site_label
_atom_site_fract_x
_atom_site_fract_y
_atom_site_fract_z
Si Si1 0.243797 0.926225 0.734912
Si Si2 0.000000 0.579959 0.750000
Si Si3 0.868465 0.074556 0.467931
Si Si4 0.556154 0.767340 0.938324
Si Si5 0.640350 0.921349 0.747971
O O1 0.188453 0.869340 0.629992
O O2 0.300167 0.872641 0.716372
O O3 0.243237 0.970055 0.034676
O O4 0.045942 0.661574 0.693112
O O5 0.000000 0.500000 0.500000
O O6 0.916497 0.155822 0.468013
O O7 0.870364 0.976680 0.260074
O O8 0.500000 0.755335 0.750000
O O9 0.596621 0.832762 0.780528
O O10 0.635295 0.010424 0.976530
#
# Coordination Sequence:
#
# PCOD9288168 Si02
#       5
#     8   4   8   8   8
#     4   8  16  37  62  91 123 161 207 260 325 374
#     4  12  26  46  66  90 130 168 206 266 316 374
#     4  10  24  44  68  92 129 171 216 275 315 365
#     4  12  28  42  66  97 130 175 224 253 322 384
#     4  10  22  38  64  95 128 165 206 263 325 389
#
# _framework density 22.789652
#
# number of rings (size 3 to 8) (size 9 to 14) (size 15 to 20)
#    0.000    1.778    1.111    1.333    6.222    1.778 
#    0.000    0.000    0.000   16.000    0.000    0.000 
#    0.000    0.000    0.000    0.000    0.000    0.000 
#
# Total GULP energy -100590.873746 kJ/mol
# GULP energy per Si atom -5588.381875 kJ/mol
# Density = 2.273778 g / cm^3
# Si number density = 22.789652 Si / 1000 Ang^3
#
#
#
# Elastic Constant Matrix: (Units=GPa)
#
#
# Indices 1 2 3 4 5 6 
#
# 1 167.7644 52.9848 26.2907 0.0000 19.1205 0.0000
# 2 52.9848 35.9042 6.4113 0.0000 5.5393 0.0000
# 3 26.2907 6.4113 111.5998 0.0000 -14.8009 0.0000
# 4 0.0000 0.0000 0.0000 5.8921 0.0000 14.1742
# 5 19.1205 5.5393 -14.8009 0.0000 41.0778 0.0000
# 6 0.0000 0.0000 0.0000 14.1742 0.0000 15.2503
#
#
#
# Elastic Compliance Matrix: (Units=1/GPa)
#
#
# Indices 1 2 3 4 5 6 
#
# 1 0.012149 -0.016829 -0.002462 0.000000 -0.004272 0.000000
# 2 -0.016829 0.052306 0.001117 0.000000 0.001183 0.000000
# 3 -0.002462 0.001117 0.010091 0.000000 0.004631 0.000000
# 4 0.000000 0.000000 0.000000 -0.137325 0.000000 0.127635
# 5 -0.004272 0.001183 0.004631 0.000000 0.027842 0.000000
# 6 0.000000 0.000000 0.000000 0.127635 0.000000 -0.053057
#
#
# Mechanical properties :
#
#
# Convention : Reuss Voigt Hill
#
# Bulk Modulus (GPa) = 26.18094 54.07133 40.12613
# Shear Modulus (GPa) = -128.49062 27.74947 -50.37057
#
# Velocity S-wave (km/s) = -7.51688 3.49325 -4.70642
# Velocity P-wave (km/s) = 7.98906 6.32836 3.44796
#
# Compressibility (1/GPa) = 0.03819573
#
# Stress axis : x y z
#
# Youngs Moduli (GPa) = 82.31353 19.11842 99.10225
#
# Poissons Ratio (x) = 0.32175 0.24397
# Poissons Ratio (y) = 1.38528 -0.11066
# Poissons Ratio (z) = 0.20264 -0.02135
#
# Static dielectric constant tensor:
#      x y z
#    x 1.993850 0.000000 0.086570 
#    y 0.000000 1.802850 0.000000 
#    z 0.086570 0.000000 1.873710 
# 
# From -- ./inp_files/14887.got.cif
#   From: 2010.05.17/outbox.cif.g08.bks.cpg/sg15_8_cif.got.tgz:14887.got - 2010.06.03 18:47:42.
