data_PCOD9288000
_publ_section_title
;
Structure prediction by ZEFSAII (Michael W. Deem and Ramdas Pophale) SiO2 
 PCOD9288000
Probable space group: C 2/C
;
_chemical_formula_sum "Si O2"
_cell_formula_units_Z 28
_cell_length_a 11.552900
_cell_length_b 24.787866
_cell_length_c 7.568709
_cell_angle_alpha 90.000000
_cell_angle_beta 36.347140
_cell_angle_gamma 90.000000
_cell_volume 1284.604215
_symmetry_space_group_name_H-M "C 2/C"
_symmetry_group_IT_number 15
_symmetry_cell_setting 'monoclinic'
loop_
_space_group_symop_operation_xyz
x,y,z
-x,y,1/2-z
-x,-y,-z
x,-y,1/2+z
1/2+x,1/2+y,z
1/2-x,1/2+y,1/2-z
1/2-x,1/2-y,-z
1/2+x,1/2-y,1/2+z
loop_
_atom_site_type_symbol
_atom_site_label
_atom_site_fract_x
_atom_site_fract_y
_atom_site_fract_z
Si Si1 0.500000 0.098295 0.750000
Si Si2 0.311228 0.189292 0.156921
Si Si3 0.500000 0.711319 0.250000
Si Si4 0.000000 0.858948 0.250000
Si Si5 0.580230 0.442035 0.842239
O O1 0.524476 0.142765 0.561579
O O2 0.686487 0.061553 0.476249
O O3 0.186626 0.178576 0.484295
O O4 0.163033 0.182288 0.168860
O O5 0.398003 0.247999 0.015795
O O6 0.996488 0.899284 0.420207
O O7 0.500000 0.428766 0.750000
O O8 0.500000 0.500000 0.000000
#
# Coordination Sequence:
#
# PCOD9288000 Si02
#       5
#     4   8   4   4   8
#     4   9  22  38  64  94 126 162 214 252 318 381
#     4   9  19  37  59  94 124 166 211 255 313 377
#     4   9  18  36  67  84 130 172 197 268 318 355
#     4  10  22  38  61  96 126 160 221 252 308 386
#     4  11  23  44  66  91 128 167 207 269 316 373
#
# _framework density 21.796596999999998
#
# number of rings (size 3 to 8) (size 9 to 14) (size 15 to 20)
#    0.000    2.286    1.429    0.000    8.000    2.286 
#    0.000    0.000    0.000    0.000    0.000    0.000 
#    0.000    0.000    0.000    0.000    0.000    0.000 
#
# Total GULP energy -77939.387222 kJ/mol
# GULP energy per Si atom -5567.099087 kJ/mol
# Density = 2.174699 g / cm^3
# Si number density = 21.796597 Si / 1000 Ang^3
#
#
#
# Elastic Constant Matrix: (Units=GPa)
#
#
# Indices 1 2 3 4 5 6 
#
# 1 65.4084 20.2199 31.6491 0.0000 9.6318 0.0000
# 2 20.2199 101.6362 72.5232 0.0000 1.6561 0.0000
# 3 31.6491 72.5232 228.5077 0.0000 8.1424 0.0000
# 4 0.0000 0.0000 0.0000 62.3660 0.0000 -5.3730
# 5 9.6318 1.6561 8.1424 0.0000 32.5207 0.0000
# 6 0.0000 0.0000 0.0000 -5.3730 0.0000 18.2899
#
#
#
# Elastic Compliance Matrix: (Units=1/GPa)
#
#
# Indices 1 2 3 4 5 6 
#
# 1 0.017422 -0.002310 -0.001514 0.000000 -0.004663 0.000000
# 2 -0.002310 0.013030 -0.003851 0.000000 0.000985 0.000000
# 3 -0.001514 -0.003851 0.005837 0.000000 -0.000817 0.000000
# 4 0.000000 0.000000 0.000000 0.016451 0.000000 0.004833
# 5 -0.004663 0.000985 -0.000817 0.000000 0.032285 0.000000
# 6 0.000000 0.000000 0.000000 0.004833 0.000000 0.056095
#
#
# Mechanical properties :
#
#
# Convention : Reuss Voigt Hill
#
# Bulk Modulus (GPa) = 47.75413 71.59297 59.67355
# Shear Modulus (GPa) = 30.59074 40.71266 35.65170
#
# Velocity S-wave (km/s) = 3.75035 4.32655 4.04871
# Velocity P-wave (km/s) = 6.38044 7.60762 7.02089
#
# Compressibility (1/GPa) = 0.02094060
#
# Stress axis : x y z
#
# Youngs Moduli (GPa) = 57.39957 76.74507 171.31800
#
# Poissons Ratio (x) = 0.17727 0.25933
# Poissons Ratio (y) = 0.13258 0.65969
# Poissons Ratio (z) = 0.08689 0.29552
#
# Static dielectric constant tensor:
#      x y z
#    x 1.805060 0.000000 -0.027090 
#    y 0.000000 1.880160 0.000000 
#    z -0.027090 0.000000 1.830050 
# 
# From -- ./inp_files/23946.got.cif
#   From: 2010.05.17/outbox.cif.g08.bks.cpg/sg15_12_cif.got.tgz:23946.got - 2010.06.03 18:47:42.
