data_PCOD9288717
_publ_section_title
;
Structure prediction by ZEFSAII (Michael W. Deem and Ramdas Pophale) SiO2 
 PCOD9288717
Probable space group: C 2/C
;
_chemical_formula_sum "Si O2"
_cell_formula_units_Z 56
_cell_length_a 5.721162
_cell_length_b 21.947709
_cell_length_c 21.079649
_cell_angle_alpha 90.000000
_cell_angle_beta 88.000943
_cell_angle_gamma 90.000000
_cell_volume 2645.284714
_symmetry_space_group_name_H-M "C 2/C"
_symmetry_group_IT_number 15
_symmetry_cell_setting 'monoclinic'
loop_
_space_group_symop_operation_xyz
x,y,z
-x,y,1/2-z
-x,-y,-z
x,-y,1/2+z
1/2+x,1/2+y,z
1/2-x,1/2+y,1/2-z
1/2-x,1/2-y,-z
1/2+x,1/2-y,1/2+z
loop_
_atom_site_type_symbol
_atom_site_label
_atom_site_fract_x
_atom_site_fract_y
_atom_site_fract_z
Si Si1 0.308297 0.774141 0.658128
Si Si2 0.143014 0.622376 0.166552
Si Si3 0.225279 0.522407 0.366215
Si Si4 0.500000 0.188185 0.750000
Si Si5 0.959041 0.869557 0.926198
Si Si6 0.900134 0.836184 0.070372
Si Si7 0.500000 0.441734 0.750000
Si Si8 0.892500 0.615796 0.624520
O O1 0.526845 0.813007 0.679383
O O2 0.142999 0.825147 0.627452
O O3 0.387865 0.730784 0.600079
O O4 0.182424 0.732265 0.711550
O O5 0.273884 0.624409 0.097586
O O6 0.312128 0.603208 0.221147
O O7 0.964781 0.567152 0.161771
O O8 0.341320 0.563559 0.420299
O O9 0.416552 0.516965 0.308770
O O10 0.120299 0.457124 0.380280
O O11 0.394205 0.145074 0.695513
O O12 0.917868 0.841472 0.994745
O O13 0.646437 0.864712 0.093140
O O14 0.146437 0.863225 0.094776
#
# Coordination Sequence:
#
# PCOD9288717 Si02
#       8
#     8   8   8   4   8   8   4   8
#     4  10  24  45  70 100 139 184 231 291 353 417
#     4  10  23  41  66 105 134 184 233 292 348 412
#     4  10  24  43  68 103 134 189 231 293 353 408
#     4  10  26  49  68 102 140 185 230 288 352 426
#     4  10  24  45  71 102 138 180 239 291 346 415
#     4  11  27  48  71 105 141 191 234 286 351 414
#     4  10  22  39  64 102 140 175 238 284 358 412
#     4  11  28  48  72 103 143 186 235 285 350 423
#
# _framework density 21.169744000000001
#
# number of rings (size 3 to 8) (size 9 to 14) (size 15 to 20)
#    0.000    1.714    0.000    0.857   14.000   11.429 
#    5.143    0.000    0.000    0.000    0.000    0.000 
#    0.000    0.000    0.000    0.000    0.000    0.000 
#
# Total GULP energy -156299.990112 kJ/mol
# GULP energy per Si atom -5582.142504 kJ/mol
# Density = 2.112156 g / cm^3
# Si number density = 21.169744 Si / 1000 Ang^3
#
#
#
# Elastic Constant Matrix: (Units=GPa)
#
#
# Indices 1 2 3 4 5 6 
#
# 1 90.8232 25.3954 25.6989 0.0000 -2.0657 0.0000
# 2 25.3954 103.1952 -1.3142 0.0000 -5.7826 0.0000
# 3 25.6989 -1.3142 85.3134 0.0000 -10.7027 0.0000
# 4 0.0000 0.0000 0.0000 1.6130 0.0000 -6.7949
# 5 -2.0657 -5.7826 -10.7027 0.0000 19.2614 0.0000
# 6 0.0000 0.0000 0.0000 -6.7949 0.0000 18.9124
#
#
#
# Elastic Compliance Matrix: (Units=1/GPa)
#
#
# Indices 1 2 3 4 5 6 
#
# 1 0.013117 -0.003393 -0.004251 0.000000 -0.001974 0.000000
# 2 -0.003393 0.010759 0.001663 0.000000 0.003790 0.000000
# 3 -0.004251 0.001663 0.014010 0.000000 0.007828 0.000000
# 4 0.000000 0.000000 0.000000 -1.207357 0.000000 -0.433782
# 5 -0.001974 0.003790 0.007828 0.000000 0.057193 0.000000
# 6 0.000000 0.000000 0.000000 -0.433782 0.000000 -0.102975
#
#
# Mechanical properties :
#
#
# Convention : Reuss Voigt Hill
#
# Bulk Modulus (GPa) = 38.57384 42.09912 40.33648
# Shear Modulus (GPa) = -4.18532 23.26082 9.53775
#
# Velocity S-wave (km/s) = -1.40759 3.31838 2.12489
# Velocity P-wave (km/s) = 3.95209 5.88318 5.01153
#
# Compressibility (1/GPa) = 0.02592431
#
# Stress axis : x y z
#
# Youngs Moduli (GPa) = 76.23669 92.94655 71.37904
#
# Poissons Ratio (x) = 0.31534 0.30344
# Poissons Ratio (y) = 0.25865 -0.11872
# Poissons Ratio (z) = 0.32409 -0.15459
#
# Static dielectric constant tensor:
#      x y z
#    x 1.874640 0.000000 -0.016920 
#    y 0.000000 1.728780 0.000000 
#    z -0.016920 0.000000 1.762000 
# 
# From -- ./inp_files/227913.got.cif
#   From: 2010.05.17/outbox.cif.g08.bks.cpg/sg15_114_cif.got.tgz:227913.got - 2010.06.03 18:47:42.
