data_PCOD9288581
_publ_section_title
;
Structure prediction by ZEFSAII (Michael W. Deem and Ramdas Pophale) SiO2 
 PCOD9288581
Probable space group: C 2/C
;
_chemical_formula_sum "Si O2"
_cell_formula_units_Z 56
_cell_length_a 9.811519
_cell_length_b 14.119816
_cell_length_c 31.431733
_cell_angle_alpha 90.000000
_cell_angle_beta 136.013914
_cell_angle_gamma 90.000000
_cell_volume 3024.096505
_symmetry_space_group_name_H-M "C 2/C"
_symmetry_group_IT_number 15
_symmetry_cell_setting 'monoclinic'
loop_
_space_group_symop_operation_xyz
x,y,z
-x,y,1/2-z
-x,-y,-z
x,-y,1/2+z
1/2+x,1/2+y,z
1/2-x,1/2+y,1/2-z
1/2-x,1/2-y,-z
1/2+x,1/2-y,1/2+z
loop_
_atom_site_type_symbol
_atom_site_label
_atom_site_fract_x
_atom_site_fract_y
_atom_site_fract_z
Si Si1 0.154041 0.877777 0.094792
Si Si2 0.937719 0.544934 0.134146
Si Si3 0.174741 0.996117 0.822787
Si Si4 0.808671 0.200892 0.468821
Si Si5 0.051682 0.783275 0.810106
Si Si6 0.611210 0.206005 0.231056
Si Si7 0.592756 0.646021 0.875336
O O1 0.308514 0.794188 0.138228
O O2 0.015893 0.884201 0.105641
O O3 0.272060 0.973809 0.113245
O O4 0.017693 0.846779 0.024563
O O5 0.841147 0.619209 0.079511
O O6 0.115961 0.489052 0.152317
O O7 0.034019 0.608140 0.193126
O O8 0.150535 0.058829 0.859005
O O9 0.000000 0.016800 0.750000
O O10 0.156517 0.884908 0.829785
O O11 0.750000 0.250000 0.500000
O O12 0.776884 0.285780 0.428097
O O13 0.000000 0.754730 0.750000
O O14 0.845354 0.795881 0.787793
O O15 0.500000 0.223384 0.250000
O O16 0.553627 0.287982 0.184847
#
# Coordination Sequence:
#
# PCOD9288581 Si02
#       7
#     8   8   8   8   8   8   8
#     4  11  23  39  65  88 117 163 203 247 297 360
#     4  11  23  39  63  92 121 158 201 250 300 356
#     4  11  22  38  59  90 126 157 197 247 305 361
#     4   9  20  44  65  83 118 162 205 247 299 357
#     4  11  21  40  59  86 126 160 196 242 306 364
#     4  11  23  38  59  87 125 158 198 247 300 362
#     4  10  22  39  62  87 118 160 202 244 301 356
#
# _framework density 18.517925999999999
#
# number of rings (size 3 to 8) (size 9 to 14) (size 15 to 20)
#    0.000    1.429    4.286    2.571    6.000    0.571 
#    0.000    7.143    0.000    0.000    0.000    0.000 
#    0.000    0.000    0.000    0.000    0.000    0.000 
#
# Total GULP energy -156341.457856 kJ/mol
# GULP energy per Si atom -5583.623495 kJ/mol
# Density = 1.847578 g / cm^3
# Si number density = 18.517926 Si / 1000 Ang^3
#
#
#
# Elastic Constant Matrix: (Units=GPa)
#
#
# Indices 1 2 3 4 5 6 
#
# 1 101.3824 25.9862 34.2495 0.0000 4.8988 0.0000
# 2 25.9862 59.6281 42.5633 0.0000 -1.2106 0.0000
# 3 34.2495 42.5633 88.7538 0.0000 6.2885 0.0000
# 4 0.0000 0.0000 0.0000 21.3672 0.0000 2.7867
# 5 4.8988 -1.2106 6.2885 0.0000 22.0206 0.0000
# 6 0.0000 0.0000 0.0000 2.7867 0.0000 28.0779
#
#
#
# Elastic Compliance Matrix: (Units=1/GPa)
#
#
# Indices 1 2 3 4 5 6 
#
# 1 0.011730 -0.003069 -0.002917 0.000000 -0.001945 0.000000
# 2 -0.003069 0.026853 -0.012091 0.000000 0.005612 0.000000
# 3 -0.002917 -0.012091 0.018568 0.000000 -0.005318 0.000000
# 4 0.000000 0.000000 0.000000 0.047414 0.000000 -0.004706
# 5 -0.001945 0.005612 -0.005318 0.000000 0.047672 0.000000
# 6 0.000000 0.000000 0.000000 -0.004706 0.000000 0.036082
#
#
# Mechanical properties :
#
#
# Convention : Reuss Voigt Hill
#
# Bulk Modulus (GPa) = 47.62684 50.59581 49.11132
# Shear Modulus (GPa) = 21.60092 24.09082 22.84587
#
# Velocity S-wave (km/s) = 3.41909 3.61078 3.51624
# Velocity P-wave (km/s) = 6.43134 6.69070 6.56230
#
# Compressibility (1/GPa) = 0.02099656
#
# Stress axis : x y z
#
# Youngs Moduli (GPa) = 85.25370 37.24001 53.85676
#
# Poissons Ratio (x) = 0.11431 0.15708
# Poissons Ratio (y) = 0.26168 0.65117
# Poissons Ratio (z) = 0.24865 0.45026
#
# Static dielectric constant tensor:
#      x y z
#    x 1.647100 0.000000 0.010800 
#    y 0.000000 1.633960 0.000000 
#    z 0.010800 0.000000 1.645360 
# 
# From -- ./inp_files/308083.got.cif
#   From: 2010.05.17/outbox.cif.g08.bks.cpg/sg15_155_cif.got.tgz:308083.got - 2010.06.03 18:47:42.
