data_PCOD9288869
_publ_section_title
;
Structure prediction by ZEFSAII (Michael W. Deem and Ramdas Pophale) SiO2 
 PCOD9288869
Probable space group: C 2/C
;
_chemical_formula_sum "Si O2"
_cell_formula_units_Z 56
_cell_length_a 24.794131
_cell_length_b 8.397271
_cell_length_c 16.535845
_cell_angle_alpha 90.000000
_cell_angle_beta 130.331512
_cell_angle_gamma 90.000000
_cell_volume 2624.499458
_symmetry_space_group_name_H-M "C 2/C"
_symmetry_group_IT_number 15
_symmetry_cell_setting 'monoclinic'
loop_
_space_group_symop_operation_xyz
x,y,z
-x,y,1/2-z
-x,-y,-z
x,-y,1/2+z
1/2+x,1/2+y,z
1/2-x,1/2+y,1/2-z
1/2-x,1/2-y,-z
1/2+x,1/2-y,1/2+z
loop_
_atom_site_type_symbol
_atom_site_label
_atom_site_fract_x
_atom_site_fract_y
_atom_site_fract_z
Si Si1 0.926955 0.938004 0.894150
Si Si2 0.157629 0.631737 0.298301
Si Si3 0.077725 0.563159 0.588341
Si Si4 0.300567 0.044140 0.390669
Si Si5 0.417964 0.571568 0.702759
Si Si6 0.699349 0.643273 0.689780
Si Si7 0.230414 0.061445 0.487749
O O1 0.919164 0.751536 0.899455
O O2 0.920085 0.988297 0.793589
O O3 0.865942 0.027445 0.884192
O O4 0.000000 0.000000 0.000000
O O5 0.107061 0.512978 0.199705
O O6 0.112530 0.748078 0.314041
O O7 0.184334 0.749269 0.253812
O O8 0.221994 0.534174 0.401083
O O9 0.119571 0.504328 0.548599
O O10 0.000000 0.500000 0.500000
O O11 0.291283 0.233269 0.372578
O O12 0.261125 0.992252 0.432488
O O13 0.264743 0.961995 0.278384
O O14 0.500000 0.569433 0.750000
O O15 0.353917 0.479292 0.592522
O O16 0.250000 0.250000 0.500000
#
# Coordination Sequence:
#
# PCOD9288869 Si02
#       7
#     8   8   8   8   8   8   8
#     4  11  22  43  66  96 133 172 223 285 340 403
#     4  10  23  44  67  97 135 177 230 284 337 418
#     4  11  24  44  68  99 134 173 231 285 344 408
#     4  11  23  40  67  96 131 175 223 277 338 403
#     4  11  25  46  66  99 138 183 227 283 351 412
#     4  10  22  39  66  96 129 173 229 271 333 405
#     4  12  26  44  69 103 142 183 233 284 351 420
#
# _framework density 21.337401
#
# number of rings (size 3 to 8) (size 9 to 14) (size 15 to 20)
#    0.000    1.143    2.857    4.714    4.000    4.571 
#    0.000    1.429    0.000    0.000    0.000    0.000 
#    0.000    0.000    0.000    0.000    0.000    0.000 
#
# Total GULP energy -156351.998101 kJ/mol
# GULP energy per Si atom -5583.999932 kJ/mol
# Density = 2.128884 g / cm^3
# Si number density = 21.337401 Si / 1000 Ang^3
#
#
#
# Elastic Constant Matrix: (Units=GPa)
#
#
# Indices 1 2 3 4 5 6 
#
# 1 93.4819 13.1862 30.8532 0.0000 19.1113 0.0000
# 2 13.1862 148.8915 50.0216 0.0000 9.9136 0.0000
# 3 30.8532 50.0216 140.4150 0.0000 22.6825 0.0000
# 4 0.0000 0.0000 0.0000 37.2601 0.0000 10.5552
# 5 19.1113 9.9136 22.6825 0.0000 39.9688 0.0000
# 6 0.0000 0.0000 0.0000 10.5552 0.0000 24.2140
#
#
#
# Elastic Compliance Matrix: (Units=1/GPa)
#
#
# Indices 1 2 3 4 5 6 
#
# 1 0.012317 -0.000139 -0.001884 0.000000 -0.004786 0.000000
# 2 -0.000139 0.007636 -0.002636 0.000000 -0.000331 0.000000
# 3 -0.001884 -0.002636 0.009054 0.000000 -0.003583 0.000000
# 4 0.000000 0.000000 0.000000 0.030620 0.000000 -0.013348
# 5 -0.004786 -0.000331 -0.003583 0.000000 0.029424 0.000000
# 6 0.000000 0.000000 0.000000 -0.013348 0.000000 0.047117
#
#
# Mechanical properties :
#
#
# Convention : Reuss Voigt Hill
#
# Bulk Modulus (GPa) = 50.79087 63.43450 57.11268
# Shear Modulus (GPa) = 32.88425 39.53707 36.21066
#
# Velocity S-wave (km/s) = 3.93001 4.30926 4.12400
# Velocity P-wave (km/s) = 6.66699 7.38603 7.03570
#
# Compressibility (1/GPa) = 0.01968858
#
# Stress axis : x y z
#
# Youngs Moduli (GPa) = 81.18844 130.95211 110.45274
#
# Poissons Ratio (x) = 0.01825 0.20805
# Poissons Ratio (y) = 0.01131 0.29118
# Poissons Ratio (z) = 0.15293 0.34522
#
# Static dielectric constant tensor:
#      x y z
#    x 1.868740 0.000000 -0.000970 
#    y 0.000000 1.779070 0.000000 
#    z -0.000970 0.000000 1.787330 
# 
# From -- ./inp_files/222095.got.cif
#   From: 2010.05.17/outbox.cif.g08.bks.cpg/sg15_112_cif.got.tgz:222095.got - 2010.06.03 18:47:42.
