data_PCOD9288518
_publ_section_title
;
Structure prediction by ZEFSAII (Michael W. Deem and Ramdas Pophale) SiO2 
 PCOD9288518
Probable space group: C 2/C
;
_chemical_formula_sum "Si O2"
_cell_formula_units_Z 36
_cell_length_a 38.822965
_cell_length_b 5.869134
_cell_length_c 13.636193
_cell_angle_alpha 90.000000
_cell_angle_beta 153.144717
_cell_angle_gamma 90.000000
_cell_volume 1403.598930
_symmetry_space_group_name_H-M "C 2/C"
_symmetry_group_IT_number 15
_symmetry_cell_setting 'monoclinic'
loop_
_space_group_symop_operation_xyz
x,y,z
-x,y,1/2-z
-x,-y,-z
x,-y,1/2+z
1/2+x,1/2+y,z
1/2-x,1/2+y,1/2-z
1/2-x,1/2-y,-z
1/2+x,1/2-y,1/2+z
loop_
_atom_site_type_symbol
_atom_site_label
_atom_site_fract_x
_atom_site_fract_y
_atom_site_fract_z
Si Si1 0.616517 0.226023 0.543289
Si Si2 0.779106 0.745041 0.959123
Si Si3 0.004975 0.506028 0.900163
Si Si4 0.000000 0.900228 0.750000
Si Si5 0.208492 0.239107 0.567455
O O1 0.705532 0.222493 0.758374
O O2 0.569540 0.104298 0.337841
O O3 0.579233 0.112969 0.543871
O O4 0.579459 0.471546 0.447791
O O5 0.815897 0.492714 0.031998
O O6 0.718369 0.747433 0.711792
O O7 0.750000 0.750000 0.000000
O O8 0.005180 0.758095 0.861033
O O9 0.000000 0.500000 0.000000
O O10 0.323303 0.488871 0.048881
#
# Coordination Sequence:
#
# PCOD9288518 Si02
#       5
#     8   8   8   4   8
#     4   9  20  34  53  82 109 150 184 226 287 327
#     4  10  22  41  61  85 117 150 195 241 299 343
#     4   9  19  35  54  80 114 144 189 227 276 334
#     4   8  18  36  52  72 120 142 178 236 272 330
#     4  10  22  39  61  86 118 152 190 248 286 345
#
# _framework density 25.648353
#
# number of rings (size 3 to 8) (size 9 to 14) (size 15 to 20)
#    0.000    3.111    0.000    0.667    6.222    5.333 
#    4.000    0.000    0.000    0.000    0.000    0.000 
#    0.000    0.000    0.000    0.000    0.000    0.000 
#
# Total GULP energy -100468.709322 kJ/mol
# GULP energy per Si atom -5581.594962 kJ/mol
# Density = 2.558998 g / cm^3
# Si number density = 25.648353 Si / 1000 Ang^3
#
#
#
# Elastic Constant Matrix: (Units=GPa)
#
#
# Indices 1 2 3 4 5 6 
#
# 1 206.8513 47.5746 63.0969 0.0000 -43.8806 0.0000
# 2 47.5746 183.7684 36.0939 0.0000 -21.9028 0.0000
# 3 63.0969 36.0939 73.2769 0.0000 -10.8137 0.0000
# 4 0.0000 0.0000 0.0000 253.2054 0.0000 -683.4680
# 5 -43.8806 -21.9028 -10.8137 0.0000 73.0494 0.0000
# 6 0.0000 0.0000 0.0000 -683.4680 0.0000 1460.7277
#
#
#
# Elastic Compliance Matrix: (Units=1/GPa)
#
#
# Indices 1 2 3 4 5 6 
#
# 1 0.007388 -0.000386 -0.005657 0.000000 0.003485 0.000000
# 2 -0.000386 0.006188 -0.002531 0.000000 0.001249 0.000000
# 3 -0.005657 -0.002531 0.019579 0.000000 -0.001259 0.000000
# 4 0.000000 0.000000 0.000000 -0.015018 0.000000 -0.007027
# 5 0.003485 0.001249 -0.001259 0.000000 0.015971 0.000000
# 6 0.000000 0.000000 0.000000 -0.007027 0.000000 -0.002603
#
#
# Mechanical properties :
#
#
# Convention : Reuss Voigt Hill
#
# Bulk Modulus (GPa) = 62.47695 84.15860 73.31777
# Shear Modulus (GPa) = 92.61292 378.53858 235.57575
#
# Velocity S-wave (km/s) = 6.01557 12.16175 9.59415
# Velocity P-wave (km/s) = 8.52417 15.16887 12.30358
#
# Compressibility (1/GPa) = 0.01600590
#
# Stress axis : x y z
#
# Youngs Moduli (GPa) = 135.35266 161.61519 51.07493
#
# Poissons Ratio (x) = 0.06241 0.28894
# Poissons Ratio (y) = 0.05227 0.12927
# Poissons Ratio (z) = 0.76572 0.40905
#
# Static dielectric constant tensor:
#      x y z
#    x 1.927320 0.000000 -0.064460 
#    y 0.000000 2.178370 0.000000 
#    z -0.064460 0.000000 1.957900 
# 
# From -- ./inp_files/175189.got.cif
#   From: 2010.05.17/outbox.cif.g08.bks.cpg/sg15_88_cif.got.tgz:175189.got - 2010.06.03 18:47:42.
