data_PCOD9288169
_publ_section_title
;
Structure prediction by ZEFSAII (Michael W. Deem and Ramdas Pophale) SiO2 
 PCOD9288169
Probable space group: C 2/C
;
_chemical_formula_sum "Si O2"
_cell_formula_units_Z 36
_cell_length_a 33.966342
_cell_length_b 4.880360
_cell_length_c 16.666737
_cell_angle_alpha 90.000000
_cell_angle_beta 147.964093
_cell_angle_gamma 90.000000
_cell_volume 1465.534975
_symmetry_space_group_name_H-M "C 2/C"
_symmetry_group_IT_number 15
_symmetry_cell_setting 'monoclinic'
loop_
_space_group_symop_operation_xyz
x,y,z
-x,y,1/2-z
-x,-y,-z
x,-y,1/2+z
1/2+x,1/2+y,z
1/2-x,1/2+y,1/2-z
1/2-x,1/2-y,-z
1/2+x,1/2-y,1/2+z
loop_
_atom_site_type_symbol
_atom_site_label
_atom_site_fract_x
_atom_site_fract_y
_atom_site_fract_z
Si Si1 0.085506 0.563445 0.633112
Si Si2 0.841032 0.169049 0.495794
Si Si3 0.393265 0.570883 0.935212
Si Si4 0.500000 0.619453 0.750000
Si Si5 0.688117 0.863737 0.452589
O O1 0.116664 0.372952 0.615401
O O2 0.128336 0.510823 0.788860
O O3 0.000000 0.500000 0.500000
O O4 0.096071 0.873459 0.622086
O O5 0.832580 0.060716 0.390484
O O6 0.925959 0.285639 0.644279
O O7 0.789844 0.396885 0.447362
O O8 0.840347 0.895508 0.547240
O O9 0.467914 0.553688 0.119635
O O10 0.750000 0.750000 0.500000
#
# Coordination Sequence:
#
# PCOD9288169 Si02
#       5
#     8   8   8   4   8
#     4  12  23  39  64 101 134 171 228 288 340 398
#     4  10  22  41  67  94 128 184 227 272 344 417
#     4  10  22  38  64  95 129 171 227 281 336 402
#     4   8  20  36  70  92 134 160 238 272 356 374
#     4  12  25  43  65  96 140 182 223 278 355 416
#
# _framework density 24.564406000000002
#
# number of rings (size 3 to 8) (size 9 to 14) (size 15 to 20)
#    1.333    0.000    0.000    6.667    0.000    1.778 
#    0.000    4.444    0.000    0.000    0.000    0.000 
#    0.000    0.000    0.000    0.000    0.000    0.000 
#
# Total GULP energy -100630.019723 kJ/mol
# GULP energy per Si atom -5590.556651 kJ/mol
# Density = 2.450850 g / cm^3
# Si number density = 24.564406 Si / 1000 Ang^3
#
#
#
# Elastic Constant Matrix: (Units=GPa)
#
#
# Indices 1 2 3 4 5 6 
#
# 1 121.2857 27.6878 22.8401 0.0001 -4.6287 0.0000
# 2 27.6878 93.4880 5.1908 -0.0004 -2.5125 -0.0003
# 3 22.8401 5.1908 74.7572 -0.0003 -19.9832 -0.0001
# 4 0.0001 -0.0004 -0.0003 12.8385 -0.0002 -2.2304
# 5 -4.6287 -2.5125 -19.9832 -0.0002 27.4124 -0.0001
# 6 0.0000 -0.0003 -0.0001 -2.2304 -0.0001 56.7088
#
#
#
# Elastic Compliance Matrix: (Units=1/GPa)
#
#
# Indices 1 2 3 4 5 6 
#
# 1 0.009359 -0.002632 -0.002880 0.000000 -0.000760 0.000000
# 2 -0.002632 0.011485 0.000210 0.000000 0.000762 0.000000
# 3 -0.002880 0.000210 0.017534 0.000001 0.012315 0.000000
# 4 0.000000 0.000000 0.000001 0.078427 0.000001 0.003085
# 5 -0.000760 0.000762 0.012315 0.000001 0.045399 0.000000
# 6 0.000000 0.000000 0.000000 0.003085 0.000000 0.017755
#
#
# Mechanical properties :
#
#
# Convention : Reuss Voigt Hill
#
# Bulk Modulus (GPa) = 36.00484 44.55205 40.27844
# Shear Modulus (GPa) = 25.02242 34.97940 30.00091
#
# Velocity S-wave (km/s) = 3.19508 3.77767 3.49853
# Velocity P-wave (km/s) = 5.31983 6.09950 5.72296
#
# Compressibility (1/GPa) = 0.02777404
#
# Stress axis : x y z
#
# Youngs Moduli (GPa) = 106.84608 87.07026 57.03273
#
# Poissons Ratio (x) = 0.22920 0.16425
# Poissons Ratio (y) = 0.28126 -0.01200
# Poissons Ratio (z) = 0.30771 -0.01832
#
# Static dielectric constant tensor:
#      x y z
#    x 1.992370 0.000000 0.059870 
#    y 0.000000 1.937700 -0.000010 
#    z 0.059870 -0.000010 2.032930 
# 
# From -- ./inp_files/223471.got.cif
#   From: 2010.05.17/outbox.cif.g08.bks.cpg/sg15_112_cif.got.tgz:223471.got - 2010.06.03 18:47:42.
