data_PCOD9288808
_publ_section_title
;
Structure prediction by ZEFSAII (Michael W. Deem and Ramdas Pophale) SiO2 
 PCOD9288808
Probable space group: C 2/C
;
_chemical_formula_sum "Si O2"
_cell_formula_units_Z 32
_cell_length_a 26.089873
_cell_length_b 5.261496
_cell_length_c 17.305252
_cell_angle_alpha 90.000000
_cell_angle_beta 31.228368
_cell_angle_gamma 90.000000
_cell_volume 1231.590678
_symmetry_space_group_name_H-M "C 2/C"
_symmetry_group_IT_number 15
_symmetry_cell_setting 'monoclinic'
loop_
_space_group_symop_operation_xyz
x,y,z
-x,y,1/2-z
-x,-y,-z
x,-y,1/2+z
1/2+x,1/2+y,z
1/2-x,1/2+y,1/2-z
1/2-x,1/2-y,-z
1/2+x,1/2-y,1/2+z
loop_
_atom_site_type_symbol
_atom_site_label
_atom_site_fract_x
_atom_site_fract_y
_atom_site_fract_z
Si Si1 0.005318 0.252829 0.412381
Si Si2 0.087728 0.732206 0.232965
Si Si3 0.716248 0.210948 0.922602
Si Si4 0.159452 0.902558 0.828712
O O1 0.016172 0.500452 0.346786
O O2 0.900433 0.166312 0.581070
O O3 0.044178 0.004419 0.314658
O O4 0.078112 0.272730 0.392470
O O5 0.189676 0.687983 0.150184
O O6 0.123553 0.727603 0.098559
O O7 0.753387 0.933776 0.846111
O O8 0.695003 0.333560 0.867354
#
# Coordination Sequence:
#
# PCOD9288808 Si02
#       4
#     8   8   8   8
#     4  10  23  43  65  92 130 169 207 261 320 374
#     4  10  23  43  65  92 130 169 207 261 320 374
#     4  10  22  39  65  95 127 167 215 261 313 378
#     4  10  22  39  65  95 127 167 215 261 313 378
#
# _framework density 25.982655999999999
#
# number of rings (size 3 to 8) (size 9 to 14) (size 15 to 20)
#    0.000    2.000    0.000    1.500    0.000   23.000 
#    0.000    2.500    0.000    0.000    0.000    0.000 
#    0.000    0.000    0.000    0.000    0.000    0.000 
#
# Total GULP energy -89619.618592 kJ/mol
# GULP energy per Si atom -5601.226162 kJ/mol
# Density = 2.592352 g / cm^3
# Si number density = 25.982656 Si / 1000 Ang^3
#
#
#
# Elastic Constant Matrix: (Units=GPa)
#
#
# Indices 1 2 3 4 5 6 
#
# 1 126.3452 20.2777 19.7732 -0.0387 22.5521 0.0418
# 2 20.2777 115.6110 40.9433 -0.0320 8.9519 0.1013
# 3 19.7732 40.9433 171.7521 -0.0772 41.3224 0.0548
# 4 -0.0387 -0.0320 -0.0772 35.6256 0.0364 0.8882
# 5 22.5521 8.9519 41.3224 0.0364 43.6489 -0.0191
# 6 0.0418 0.1013 0.0548 0.8882 -0.0191 33.9309
#
#
#
# Elastic Compliance Matrix: (Units=1/GPa)
#
#
# Indices 1 2 3 4 5 6 
#
# 1 0.008909 -0.001350 0.000436 0.000015 -0.004739 -0.000011
# 2 -0.001350 0.009654 -0.002379 0.000002 0.000970 -0.000023
# 3 0.000436 -0.002379 0.008127 0.000024 -0.007432 -0.000011
# 4 0.000015 0.000002 0.000024 0.028088 -0.000054 -0.000735
# 5 -0.004739 0.000970 -0.007432 -0.000054 0.032195 0.000034
# 6 -0.000011 -0.000023 -0.000011 -0.000735 0.000034 0.029491
#
#
# Mechanical properties :
#
#
# Convention : Reuss Voigt Hill
#
# Bulk Modulus (GPa) = 49.74043 63.96631 56.85337
# Shear Modulus (GPa) = 38.53478 44.82203 41.67841
#
# Velocity S-wave (km/s) = 3.85528 4.15791 4.00945
# Velocity P-wave (km/s) = 6.24522 6.90820 6.58506
#
# Compressibility (1/GPa) = 0.02010437
#
# Stress axis : x y z
#
# Youngs Moduli (GPa) = 112.24364 103.58337 123.04152
#
# Poissons Ratio (x) = 0.13986 -0.05370
# Poissons Ratio (y) = 0.15155 0.29276
# Poissons Ratio (z) = -0.04899 0.24646
#
# Static dielectric constant tensor:
#      x y z
#    x 2.064730 -0.000080 -0.038100 
#    y -0.000080 2.095420 0.000030 
#    z -0.038100 0.000030 2.032650 
# 
# From -- ./inp_files/72805.got.cif
#   From: 2010.05.17/outbox.cif.g08.bks.cpg/sg15_37_cif.got.tgz:72805.got - 2010.06.03 18:47:42.
