data_PCOD9288912
_publ_section_title
;
Structure prediction by ZEFSAII (Michael W. Deem and Ramdas Pophale) SiO2 
 PCOD9288912
Probable space group: C 2/C
;
_chemical_formula_sum "Si O2"
_cell_formula_units_Z 52
_cell_length_a 21.303459
_cell_length_b 8.979398
_cell_length_c 18.307073
_cell_angle_alpha 90.000000
_cell_angle_beta 49.286360
_cell_angle_gamma 90.000000
_cell_volume 2654.443438
_symmetry_space_group_name_H-M "C 2/C"
_symmetry_group_IT_number 15
_symmetry_cell_setting 'monoclinic'
loop_
_space_group_symop_operation_xyz
x,y,z
-x,y,1/2-z
-x,-y,-z
x,-y,1/2+z
1/2+x,1/2+y,z
1/2-x,1/2+y,1/2-z
1/2-x,1/2-y,-z
1/2+x,1/2-y,1/2+z
loop_
_atom_site_type_symbol
_atom_site_label
_atom_site_fract_x
_atom_site_fract_y
_atom_site_fract_z
Si Si1 0.781434 0.473623 0.799903
Si Si2 0.794859 0.650019 0.027334
Si Si3 0.107080 0.872977 0.462447
Si Si4 0.546992 0.540694 0.860722
Si Si5 0.310695 0.697671 0.250735
Si Si6 0.500000 0.305587 0.250000
Si Si7 0.330879 0.151167 0.416174
O O1 0.694393 0.542943 0.892537
O O2 0.756690 0.352667 0.758302
O O3 0.825722 0.624722 0.738016
O O4 0.822901 0.399309 0.837884
O O5 0.874536 0.730621 0.002151
O O6 0.728491 0.644746 0.143038
O O7 0.750000 0.750000 0.000000
O O8 0.821269 0.494223 0.973572
O O9 0.076739 0.847355 0.402320
O O10 0.042731 0.982113 0.549132
O O11 0.607691 0.399350 0.822319
O O12 0.543977 0.601917 0.781424
O O13 0.423216 0.221331 0.348601
O O14 0.250000 0.250000 0.500000
#
# Coordination Sequence:
#
# PCOD9288912 Si02
#       7
#     8   8   8   8   8   4   8
#     4  10  22  40  66  95 126 164 218 259 328 389
#     4  11  22  42  65  94 122 170 220 260 324 389
#     4   9  20  41  66  88 124 161 216 260 317 397
#     4  10  22  41  63  94 128 170 208 266 330 385
#     4  10  22  39  67  94 120 167 217 264 318 401
#     4  12  28  38  64 100 136 170 222 270 326 390
#     4  12  26  43  65  95 140 174 217 275 325 384
#
# _framework density 19.589794000000001
#
# number of rings (size 3 to 8) (size 9 to 14) (size 15 to 20)
#    0.000    1.538    3.077    1.846   10.769    1.231 
#    0.000    0.769    0.000    0.000    0.000    0.000 
#    0.000    0.000    0.000    0.000    0.000    0.000 
#
# Total GULP energy -145022.334046 kJ/mol
# GULP energy per Si atom -5577.782079 kJ/mol
# Density = 1.954521 g / cm^3
# Si number density = 19.589794 Si / 1000 Ang^3
#
#
#
# Elastic Constant Matrix: (Units=GPa)
#
#
# Indices 1 2 3 4 5 6 
#
# 1 85.8815 45.1525 5.0038 0.0000 12.6990 -0.0001
# 2 45.1525 95.4812 13.2314 0.0001 4.6032 -0.0003
# 3 5.0038 13.2314 39.1972 0.0000 1.5347 -0.0001
# 4 0.0000 0.0001 0.0000 31.9593 0.0000 8.5950
# 5 12.6990 4.6032 1.5347 0.0000 44.2237 0.0000
# 6 -0.0001 -0.0003 -0.0001 8.5950 0.0000 37.1329
#
#
#
# Elastic Compliance Matrix: (Units=1/GPa)
#
#
# Indices 1 2 3 4 5 6 
#
# 1 0.016141 -0.007534 0.000634 0.000000 -0.003873 0.000000
# 2 -0.007534 0.014550 -0.003980 0.000000 0.000787 0.000000
# 3 0.000634 -0.003980 0.026802 0.000000 -0.000698 0.000000
# 4 0.000000 0.000000 0.000000 0.033367 0.000000 -0.007723
# 5 -0.003873 0.000787 -0.000698 0.000000 0.023667 0.000000
# 6 0.000000 0.000000 0.000000 -0.007723 0.000000 0.028718
#
#
# Mechanical properties :
#
#
# Convention : Reuss Voigt Hill
#
# Bulk Modulus (GPa) = 27.98602 38.59280 33.28941
# Shear Modulus (GPa) = 28.26219 33.14133 30.70176
#
# Velocity S-wave (km/s) = 3.80241 4.11757 3.96312
# Velocity P-wave (km/s) = 5.79610 6.50762 6.16214
#
# Compressibility (1/GPa) = 0.03573213
#
# Stress axis : x y z
#
# Youngs Moduli (GPa) = 61.95532 68.72985 37.31068
#
# Poissons Ratio (x) = 0.51781 -0.02367
# Poissons Ratio (y) = 0.46677 0.14851
# Poissons Ratio (z) = -0.03930 0.27358
#
# Static dielectric constant tensor:
#      x y z
#    x 1.712620 0.000000 0.013090 
#    y 0.000000 1.732940 0.000000 
#    z 0.013090 0.000000 1.707240 
# 
# From -- ./inp_files/214234.got.cif
#   From: 2010.05.17/outbox.cif.g08.bks.cpg/sg15_108_cif.got.tgz:214234.got - 2010.06.03 18:47:42.
