data_PCOD9288528
_publ_section_title
;
Structure prediction by ZEFSAII (Michael W. Deem and Ramdas Pophale) SiO2 
 PCOD9288528
Probable space group: C 2/C
;
_chemical_formula_sum "Si O2"
_cell_formula_units_Z 52
_cell_length_a 12.019263
_cell_length_b 10.816348
_cell_length_c 26.973153
_cell_angle_alpha 90.000000
_cell_angle_beta 144.846441
_cell_angle_gamma 90.000000
_cell_volume 2019.012841
_symmetry_space_group_name_H-M "C 2/C"
_symmetry_group_IT_number 15
_symmetry_cell_setting 'monoclinic'
loop_
_space_group_symop_operation_xyz
x,y,z
-x,y,1/2-z
-x,-y,-z
x,-y,1/2+z
1/2+x,1/2+y,z
1/2-x,1/2+y,1/2-z
1/2-x,1/2-y,-z
1/2+x,1/2-y,1/2+z
loop_
_atom_site_type_symbol
_atom_site_label
_atom_site_fract_x
_atom_site_fract_y
_atom_site_fract_z
Si Si1 0.500000 0.920790 0.250000
Si Si2 0.696371 0.079021 0.660285
Si Si3 0.811979 0.416615 0.923118
Si Si4 0.078204 0.796510 0.541376
Si Si5 0.918040 0.847151 0.577342
Si Si6 0.581745 0.927432 0.879509
Si Si7 0.747083 0.723992 0.732566
O O1 0.663491 0.835371 0.284012
O O2 0.436435 0.008028 0.181127
O O3 0.777453 0.963152 0.660024
O O4 0.488670 0.031371 0.606905
O O5 0.681597 0.192859 0.615443
O O6 0.814992 0.115841 0.751766
O O7 0.677676 0.441953 0.920610
O O8 0.000000 0.500000 0.000000
O O9 0.895694 0.278136 0.953337
O O10 0.214464 0.856964 0.550325
O O11 0.006274 0.891245 0.557632
O O12 0.750000 0.750000 0.500000
O O13 0.077479 0.783867 0.671087
O O14 0.423289 0.821489 0.831350
#
# Coordination Sequence:
#
# PCOD9288528 Si02
#       7
#     4   8   8   8   8   8   8
#     4  10  22  40  58  86 132 156 200 254 304 362
#     4   9  20  37  58  85 119 155 199 256 300 357
#     4   9  18  36  59  90 120 157 204 259 292 368
#     4   9  19  39  62  85 123 161 199 253 310 366
#     4   9  18  35  61  83 115 162 198 243 310 349
#     4  11  22  41  61  88 126 159 202 260 310 364
#     4  10  22  39  61  88 120 165 203 251 311 374
#
# _framework density 25.75516
#
# number of rings (size 3 to 8) (size 9 to 14) (size 15 to 20)
#    0.000    2.462    0.000    2.769    2.154    0.615 
#   19.385    0.000    0.000   37.846    0.000    0.000 
#    0.000    0.000    0.000    0.000    0.000    0.000 
#
# Total GULP energy -145188.507843 kJ/mol
# GULP energy per Si atom -5584.173379 kJ/mol
# Density = 2.569654 g / cm^3
# Si number density = 25.755160 Si / 1000 Ang^3
#
#
#
# Elastic Constant Matrix: (Units=GPa)
#
#
# Indices 1 2 3 4 5 6 
#
# 1 124.7586 60.0264 25.0717 0.0000 3.4808 0.0000
# 2 60.0264 92.9618 23.1935 0.0000 2.4355 0.0000
# 3 25.0717 23.1935 44.7267 0.0000 3.7855 0.0000
# 4 0.0000 0.0000 0.0000 37.9079 0.0000 -2.2985
# 5 3.4808 2.4355 3.7855 0.0000 33.2561 0.0000
# 6 0.0000 0.0000 0.0000 -2.2985 0.0000 58.1284
#
#
#
# Elastic Compliance Matrix: (Units=1/GPa)
#
#
# Indices 1 2 3 4 5 6 
#
# 1 0.011998 -0.006969 -0.003078 0.000000 -0.000395 0.000000
# 2 -0.006969 0.016405 -0.004605 0.000000 0.000052 0.000000
# 3 -0.003078 -0.004605 0.026673 0.000000 -0.002377 0.000000
# 4 0.000000 0.000000 0.000000 0.026443 0.000000 0.001046
# 5 -0.000395 0.000052 -0.002377 0.000000 0.030378 0.000000
# 6 0.000000 0.000000 0.000000 0.001046 0.000000 0.017245
#
#
# Mechanical properties :
#
#
# Convention : Reuss Voigt Hill
#
# Bulk Modulus (GPa) = 38.80294 53.22558 46.01426
# Shear Modulus (GPa) = 29.93383 36.13552 33.03468
#
# Velocity S-wave (km/s) = 3.41287 3.74978 3.58529
# Velocity P-wave (km/s) = 5.53435 6.28161 5.91978
#
# Compressibility (1/GPa) = 0.02577124
#
# Stress axis : x y z
#
# Youngs Moduli (GPa) = 83.34592 60.95883 37.49177
#
# Poissons Ratio (x) = 0.42482 0.11541
# Poissons Ratio (y) = 0.58084 0.17264
# Poissons Ratio (z) = 0.25657 0.28069
#
# Static dielectric constant tensor:
#      x y z
#    x 2.068840 0.000000 -0.010890 
#    y 0.000000 2.149570 0.000000 
#    z -0.010890 0.000000 2.105620 
# 
# From -- ./inp_files/310835.got.cif
#   From: 2010.05.17/outbox.cif.g08.bks.cpg/sg15_156_cif.got.tgz:310835.got - 2010.06.03 18:47:42.
