data_PCOD9288087
_publ_section_title
;
Structure prediction by ZEFSAII (Michael W. Deem and Ramdas Pophale) SiO2 
 PCOD9288087
Probable space group: C 2/C
;
_chemical_formula_sum "Si O2"
_cell_formula_units_Z 60
_cell_length_a 12.714913
_cell_length_b 18.610062
_cell_length_c 11.224722
_cell_angle_alpha 90.000000
_cell_angle_beta 110.302958
_cell_angle_gamma 90.000000
_cell_volume 2491.035542
_symmetry_space_group_name_H-M "C 2/C"
_symmetry_group_IT_number 15
_symmetry_cell_setting 'monoclinic'
loop_
_space_group_symop_operation_xyz
x,y,z
-x,y,1/2-z
-x,-y,-z
x,-y,1/2+z
1/2+x,1/2+y,z
1/2-x,1/2+y,1/2-z
1/2-x,1/2-y,-z
1/2+x,1/2-y,1/2+z
loop_
_atom_site_type_symbol
_atom_site_label
_atom_site_fract_x
_atom_site_fract_y
_atom_site_fract_z
Si Si1 0.086518 0.357706 0.146879
Si Si2 0.168425 0.399027 0.942454
Si Si3 0.000000 0.300253 0.750000
Si Si4 0.361631 0.285604 0.684255
Si Si5 0.116082 0.774917 0.082419
Si Si6 0.805385 0.073831 0.283914
Si Si7 0.783732 0.075797 0.844963
Si Si8 0.142528 0.559668 0.007793
O O1 0.155152 0.417454 0.247509
O O2 0.098687 0.284499 0.225970
O O3 0.962130 0.387106 0.063519
O O4 0.162907 0.352785 0.059405
O O5 0.281581 0.411091 0.914396
O O6 0.116544 0.476605 0.961018
O O7 0.099453 0.352961 0.822283
O O8 0.971923 0.257317 0.859659
O O9 0.227277 0.274442 0.625016
O O10 0.408028 0.284169 0.567537
O O11 0.376145 0.361681 0.755893
O O12 0.151440 0.851306 0.149299
O O13 0.844006 0.991109 0.307291
O O14 0.690371 0.067120 0.159819
O O15 0.754935 0.073783 0.973770
#
# Coordination Sequence:
#
# PCOD9288087 Si02
#       8
#     8   8   4   8   8   8   8   8
#     4  11  23  35  57  96 138 169 211 266 331 394
#     4  11  24  35  58  96 136 166 207 268 335 388
#     4  12  24  40  62  94 136 172 210 270 336 390
#     4  10  22  42  64  89 131 176 224 259 320 399
#     4  10  22  42  63  90 125 178 219 261 325 397
#     4  11  21  41  65  91 127 174 220 266 327 391
#     4  10  22  38  63  93 121 170 223 266 317 393
#     4  11  22  37  61  95 133 173 209 266 329 400
#
# _framework density 24.086368
#
# number of rings (size 3 to 8) (size 9 to 14) (size 15 to 20)
#    0.000    1.333    4.000    1.600    3.733    1.600 
#    0.000    0.000    0.000    0.800    6.933    0.000 
#    0.000    0.000    0.000    0.000    0.000    0.000 
#
# Total GULP energy -167436.509643 kJ/mol
# GULP energy per Si atom -5581.216988 kJ/mol
# Density = 2.403155 g / cm^3
# Si number density = 24.086368 Si / 1000 Ang^3
#
#
#
# Elastic Constant Matrix: (Units=GPa)
#
#
# Indices 1 2 3 4 5 6 
#
# 1 49.5885 40.6583 27.3476 0.0000 -12.7189 0.0000
# 2 40.6583 169.9141 56.4869 0.0000 -11.7874 0.0000
# 3 27.3476 56.4869 133.4658 0.0000 -36.5609 0.0000
# 4 0.0000 0.0000 0.0000 40.4441 0.0000 -6.8075
# 5 -12.7189 -11.7874 -36.5609 0.0000 31.9159 0.0000
# 6 0.0000 0.0000 0.0000 -6.8075 0.0000 27.9897
#
#
#
# Elastic Compliance Matrix: (Units=1/GPa)
#
#
# Indices 1 2 3 4 5 6 
#
# 1 0.027351 -0.005637 -0.001170 0.000000 0.007477 0.000000
# 2 -0.005637 0.008040 -0.002987 0.000000 -0.002699 0.000000
# 3 -0.001170 -0.002987 0.012484 0.000000 0.012732 0.000000
# 4 0.000000 0.000000 0.000000 0.025781 0.000000 0.006270
# 5 0.007477 -0.002699 0.012732 0.000000 0.047900 0.000000
# 6 0.000000 0.000000 0.000000 0.006270 0.000000 0.037253
#
#
# Mechanical properties :
#
#
# Convention : Reuss Voigt Hill
#
# Bulk Modulus (GPa) = 35.35250 66.88377 51.11814
# Shear Modulus (GPa) = 26.62040 35.30165 30.96102
#
# Velocity S-wave (km/s) = 3.32807 3.83250 3.58916
# Velocity P-wave (km/s) = 5.42930 6.88569 6.20040
#
# Compressibility (1/GPa) = 0.02828654
#
# Stress axis : x y z
#
# Youngs Moduli (GPa) = 36.56174 124.37844 80.10139
#
# Poissons Ratio (x) = 0.70112 0.09374
# Poissons Ratio (y) = 0.20610 0.23926
# Poissons Ratio (z) = 0.04279 0.37152
#
# Static dielectric constant tensor:
#      x y z
#    x 1.463260 0.000000 -0.309750 
#    y 0.000000 1.957970 0.000000 
#    z -0.309750 0.000000 1.793490 
# 
# From -- ./inp_files/98327.got.cif
#   From: 2010.05.17/outbox.cif.g08.bks.cpg/sg15_50_cif.got.tgz:98327.got - 2010.06.03 18:47:42.
