data_PCOD9288341
_publ_section_title
;
Structure prediction by ZEFSAII (Michael W. Deem and Ramdas Pophale) SiO2 
 PCOD9288341
Probable space group: C 2/C
;
_chemical_formula_sum "Si O2"
_cell_formula_units_Z 44
_cell_length_a 5.139619
_cell_length_b 18.906599
_cell_length_c 20.058968
_cell_angle_alpha 90.000000
_cell_angle_beta 103.389719
_cell_angle_gamma 90.000000
_cell_volume 1896.200581
_symmetry_space_group_name_H-M "C 2/C"
_symmetry_group_IT_number 15
_symmetry_cell_setting 'monoclinic'
loop_
_space_group_symop_operation_xyz
x,y,z
-x,y,1/2-z
-x,-y,-z
x,-y,1/2+z
1/2+x,1/2+y,z
1/2-x,1/2+y,1/2-z
1/2-x,1/2-y,-z
1/2+x,1/2-y,1/2+z
loop_
_atom_site_type_symbol
_atom_site_label
_atom_site_fract_x
_atom_site_fract_y
_atom_site_fract_z
Si Si1 0.280998 0.869330 0.062897
Si Si2 0.410764 0.162329 0.171740
Si Si3 0.690329 0.459317 0.400871
Si Si4 0.729210 0.207697 0.807759
Si Si5 0.000000 0.918449 0.250000
Si Si6 0.167351 0.879896 0.912064
O O1 0.515342 0.927486 0.074007
O O2 0.357654 0.811052 0.122705
O O3 0.013160 0.905356 0.075909
O O4 0.228821 0.842250 0.985607
O O5 0.500000 0.135655 0.250000
O O6 0.507375 0.244092 0.174941
O O7 0.590125 0.127378 0.124930
O O8 0.104102 0.147750 0.137266
O O9 0.626323 0.461780 0.317868
O O10 0.644347 0.536892 0.426695
O O11 0.500000 0.244491 0.750000
O O12 0.793452 0.134972 0.773196
#
# Coordination Sequence:
#
# PCOD9288341 Si02
#       6
#     8   8   8   8   4   8
#     4  11  24  43  73 101 139 181 230 294 348 415
#     4  12  27  44  68  94 140 190 229 292 345 418
#     4  11  23  42  69 102 139 179 227 290 349 418
#     4  11  22  44  68  97 139 178 250 284 349 403
#     4  10  22  38  68  98 128 178 234 290 338 404
#     4  12  26  45  67 104 142 183 228 281 366 426
#
# _framework density 23.204294999999998
#
# number of rings (size 3 to 8) (size 9 to 14) (size 15 to 20)
#    0.000    0.727    2.727    4.909    2.545    1.455 
#    0.000    0.000    0.000    0.000    0.000    0.000 
#    0.000    0.000    0.000    0.000    0.000    0.000 
#
# Total GULP energy -123218.449284 kJ/mol
# GULP energy per Si atom -5600.838604 kJ/mol
# Density = 2.315148 g / cm^3
# Si number density = 23.204295 Si / 1000 Ang^3
#
#
#
# Elastic Constant Matrix: (Units=GPa)
#
#
# Indices 1 2 3 4 5 6 
#
# 1 57.3108 1.9560 28.5439 0.0000 3.5419 0.0000
# 2 1.9560 41.0693 6.6208 0.0000 4.3710 0.0000
# 3 28.5439 6.6208 187.1375 0.0000 -4.1820 0.0000
# 4 0.0000 0.0000 0.0000 15.7354 0.0000 -1.6806
# 5 3.5419 4.3710 -4.1820 0.0000 38.2852 0.0000
# 6 0.0000 0.0000 0.0000 -1.6806 0.0000 35.5603
#
#
#
# Elastic Compliance Matrix: (Units=1/GPa)
#
#
# Indices 1 2 3 4 5 6 
#
# 1 0.019050 -0.000213 -0.002944 0.000000 -0.002060 0.000000
# 2 -0.000213 0.024816 -0.000911 0.000000 -0.002913 0.000000
# 3 -0.002944 -0.000911 0.005848 0.000000 0.001015 0.000000
# 4 0.000000 0.000000 0.000000 0.063873 0.000000 0.003019
# 5 -0.002060 -0.002913 0.001015 0.000000 0.026754 0.000000
# 6 0.000000 0.000000 0.000000 0.003019 0.000000 0.028264
#
#
# Mechanical properties :
#
#
# Convention : Reuss Voigt Hill
#
# Bulk Modulus (GPa) = 24.05168 39.97323 32.01245
# Shear Modulus (GPa) = 26.23301 34.47596 30.35448
#
# Velocity S-wave (km/s) = 3.36597 3.85873 3.62075
# Velocity P-wave (km/s) = 5.04916 6.09238 5.59514
#
# Compressibility (1/GPa) = 0.04157714
#
# Stress axis : x y z
#
# Youngs Moduli (GPa) = 52.49449 40.29651 171.00965
#
# Poissons Ratio (x) = 0.00860 0.50347
# Poissons Ratio (y) = 0.01121 0.15571
# Poissons Ratio (z) = 0.15455 0.03669
#
# Static dielectric constant tensor:
#      x y z
#    x 1.834920 0.000000 -0.013330 
#    y 0.000000 1.865960 0.000000 
#    z -0.013330 0.000000 1.893850 
# 
# From -- ./inp_files/227397.got.cif
#   From: 2010.05.17/outbox.cif.g08.bks.cpg/sg15_114_cif.got.tgz:227397.got - 2010.06.03 18:47:42.
