data_PCOD9288052
_publ_section_title
;
Structure prediction by ZEFSAII (Michael W. Deem and Ramdas Pophale) SiO2 
 PCOD9288052
Probable space group: C 2/C
;
_chemical_formula_sum "Si O2"
_cell_formula_units_Z 44
_cell_length_a 11.097553
_cell_length_b 15.344829
_cell_length_c 21.427360
_cell_angle_alpha 90.000000
_cell_angle_beta 40.572528
_cell_angle_gamma 90.000000
_cell_volume 2373.259439
_symmetry_space_group_name_H-M "C 2/C"
_symmetry_group_IT_number 15
_symmetry_cell_setting 'monoclinic'
loop_
_space_group_symop_operation_xyz
x,y,z
-x,y,1/2-z
-x,-y,-z
x,-y,1/2+z
1/2+x,1/2+y,z
1/2-x,1/2+y,1/2-z
1/2-x,1/2-y,-z
1/2+x,1/2-y,1/2+z
loop_
_atom_site_type_symbol
_atom_site_label
_atom_site_fract_x
_atom_site_fract_y
_atom_site_fract_z
Si Si1 0.632985 0.879652 0.808545
Si Si2 0.500000 0.988155 0.750000
Si Si3 0.421388 0.245819 0.481063
Si Si4 0.586876 0.562195 0.913259
Si Si5 0.119018 0.042387 0.765413
Si Si6 0.787486 0.226169 0.808921
O O1 0.494439 0.925726 0.813279
O O2 0.546357 0.827340 0.899667
O O3 0.743601 0.809114 0.723054
O O4 0.752796 0.958717 0.786409
O O5 0.308717 0.042698 0.823656
O O6 0.250000 0.250000 0.500000
O O7 0.528407 0.337638 0.444934
O O8 0.341751 0.223538 0.580106
O O9 0.512975 0.538208 0.873001
O O10 0.500000 0.500000 0.000000
O O11 0.223626 0.135482 0.723894
O O12 0.000000 0.043197 0.750000
O O13 0.000000 0.233767 0.750000
#
# Coordination Sequence:
#
# PCOD9288052 Si02
#       6
#     8   4   8   8   8   8
#     4  11  20  38  61  90 119 162 205 260 309 376
#     4  10  22  38  62  94 128 162 210 276 316 368
#     4  12  20  35  64  91 118 165 214 254 313 387
#     4  11  22  40  66  96 123 169 221 264 314 380
#     4  10  22  40  60  90 132 159 198 267 322 370
#     4  11  20  37  61  88 118 157 210 257 305 371
#
# _framework density 18.539902999999999
#
# number of rings (size 3 to 8) (size 9 to 14) (size 15 to 20)
#    0.000    1.091    4.545    4.364    0.000    0.727 
#    1.636    1.818    0.000    6.545    0.000    0.000 
#    0.000    0.000    0.000    0.000    0.000    0.000 
#
# Total GULP energy -122743.619172 kJ/mol
# GULP energy per Si atom -5579.255417 kJ/mol
# Density = 1.849771 g / cm^3
# Si number density = 18.539903 Si / 1000 Ang^3
#
#
#
# Elastic Constant Matrix: (Units=GPa)
#
#
# Indices 1 2 3 4 5 6 
#
# 1 63.4089 40.7661 29.1298 0.0001 17.7400 -0.0001
# 2 40.7661 143.4835 36.8778 0.0001 -0.9193 -0.0001
# 3 29.1298 36.8778 116.7337 0.0001 23.4840 -0.0001
# 4 0.0001 0.0001 0.0001 32.5290 0.0000 6.8106
# 5 17.7400 -0.9193 23.4840 0.0000 25.3550 0.0001
# 6 -0.0001 -0.0001 -0.0001 6.8106 0.0001 37.8819
#
#
#
# Elastic Compliance Matrix: (Units=1/GPa)
#
#
# Indices 1 2 3 4 5 6 
#
# 1 0.025638 -0.007257 -0.000545 0.000000 -0.017696 0.000000
# 2 -0.007257 0.009839 -0.002938 0.000000 0.008156 0.000000
# 3 -0.000545 -0.002938 0.011768 0.000000 -0.010625 0.000000
# 4 0.000000 0.000000 0.000000 0.031944 0.000000 -0.005743
# 5 -0.017696 0.008156 -0.010625 0.000000 0.061958 0.000000
# 6 0.000000 0.000000 0.000000 -0.005743 0.000000 0.027430
#
#
# Mechanical properties :
#
#
# Convention : Reuss Voigt Hill
#
# Bulk Modulus (GPa) = 38.81356 59.68592 49.24974
# Shear Modulus (GPa) = 25.17045 33.61002 29.39023
#
# Velocity S-wave (km/s) = 3.68861 4.26237 3.98583
# Velocity P-wave (km/s) = 6.25474 7.51578 6.91407
#
# Compressibility (1/GPa) = 0.02576419
#
# Stress axis : x y z
#
# Youngs Moduli (GPa) = 39.00492 101.63890 84.97576
#
# Poissons Ratio (x) = 0.73764 0.04630
# Poissons Ratio (y) = 0.28308 0.24965
# Poissons Ratio (z) = 0.02125 0.29860
#
# Static dielectric constant tensor:
#      x y z
#    x 1.375650 0.000000 0.110150 
#    y 0.000000 1.648670 0.000000 
#    z 0.110150 0.000000 1.632990 
# 
# From -- ./inp_files/86165.got.cif
#   From: 2010.05.17/outbox.cif.g08.bks.cpg/sg15_44_cif.got.tgz:86165.got - 2010.06.03 18:47:42.
