data_PCOD9288847
_publ_section_title
;
Structure prediction by ZEFSAII (Michael W. Deem and Ramdas Pophale) SiO2 
 PCOD9288847
Probable space group: C 2/C
;
_chemical_formula_sum "Si O2"
_cell_formula_units_Z 40
_cell_length_a 8.164121
_cell_length_b 25.945358
_cell_length_c 15.540711
_cell_angle_alpha 90.000000
_cell_angle_beta 142.020576
_cell_angle_gamma 90.000000
_cell_volume 2025.733291
_symmetry_space_group_name_H-M "C 2/C"
_symmetry_group_IT_number 15
_symmetry_cell_setting 'monoclinic'
loop_
_space_group_symop_operation_xyz
x,y,z
-x,y,1/2-z
-x,-y,-z
x,-y,1/2+z
1/2+x,1/2+y,z
1/2-x,1/2+y,1/2-z
1/2-x,1/2-y,-z
1/2+x,1/2-y,1/2+z
loop_
_atom_site_type_symbol
_atom_site_label
_atom_site_fract_x
_atom_site_fract_y
_atom_site_fract_z
Si Si1 0.409915 0.604554 0.382689
Si Si2 0.708114 0.866131 0.127556
Si Si3 0.923764 0.431292 0.587740
Si Si4 0.538234 0.950779 0.366609
Si Si5 0.329219 0.700308 0.089383
O O1 0.215133 0.591647 0.224019
O O2 0.673215 0.570753 0.490715
O O3 0.500536 0.663025 0.403696
O O4 0.252979 0.587086 0.403656
O O5 0.658138 0.904803 0.186692
O O6 0.000000 0.840609 0.250000
O O7 0.704164 0.905901 0.047424
O O8 0.454353 0.828654 0.011563
O O9 0.969285 0.492140 0.597903
O O10 0.500000 0.959049 0.250000
O O11 0.500000 0.708460 0.250000
O O12 0.250000 0.750000 0.000000
#
# Coordination Sequence:
#
# PCOD9288847 Si02
#       5
#     8   8   8   8   8
#     4  10  22  39  66  91 131 169 215 261 318 385
#     4  11  25  42  65  98 132 166 222 268 317 390
#     4  11  21  39  63  95 133 173 212 260 315 384
#     4  11  22  36  61  95 136 180 213 251 314 386
#     4  11  25  49  71  95 125 173 220 282 343 389
#
# _framework density 19.745934999999999
#
# number of rings (size 3 to 8) (size 9 to 14) (size 15 to 20)
#    0.000    1.200    4.000    2.400    2.800    4.800 
#    3.600    2.000    0.000    0.000    0.000    0.000 
#    0.000    0.000    0.000    0.000    0.000    0.000 
#
# Total GULP energy -111509.673766 kJ/mol
# GULP energy per Si atom -5575.483688 kJ/mol
# Density = 1.970099 g / cm^3
# Si number density = 19.745935 Si / 1000 Ang^3
#
#
#
# Elastic Constant Matrix: (Units=GPa)
#
#
# Indices 1 2 3 4 5 6 
#
# 1 38.6817 21.4946 19.9329 0.0000 8.0704 0.0000
# 2 21.4946 133.4417 47.2301 0.0000 8.4888 0.0000
# 3 19.9329 47.2301 104.1530 0.0000 20.6785 0.0000
# 4 0.0000 0.0000 0.0000 42.9834 0.0000 -8.7405
# 5 8.0704 8.4888 20.6785 0.0000 35.9049 0.0000
# 6 0.0000 0.0000 0.0000 -8.7405 0.0000 15.2780
#
#
#
# Elastic Compliance Matrix: (Units=1/GPa)
#
#
# Indices 1 2 3 4 5 6 
#
# 1 0.030373 -0.003409 -0.003468 0.000000 -0.004024 0.000000
# 2 -0.003409 0.009311 -0.003709 0.000000 0.000701 0.000000
# 3 -0.003468 -0.003709 0.013118 0.000000 -0.005899 0.000000
# 4 0.000000 0.000000 0.000000 0.026328 0.000000 0.015062
# 5 -0.004024 0.000701 -0.005899 0.000000 0.031987 0.000000
# 6 0.000000 0.000000 0.000000 0.015062 0.000000 0.074070
#
#
# Mechanical properties :
#
#
# Convention : Reuss Voigt Hill
#
# Bulk Modulus (GPa) = 31.61570 50.39908 41.00739
# Shear Modulus (GPa) = 23.05181 31.34119 27.19650
#
# Velocity S-wave (km/s) = 3.42046 3.98832 3.71525
# Velocity P-wave (km/s) = 5.62542 6.84018 6.26233
#
# Compressibility (1/GPa) = 0.03162985
#
# Stress axis : x y z
#
# Youngs Moduli (GPa) = 32.92406 107.39720 76.23093
#
# Poissons Ratio (x) = 0.36612 0.26437
# Poissons Ratio (y) = 0.11224 0.28275
# Poissons Ratio (z) = 0.11418 0.39835
#
# Static dielectric constant tensor:
#      x y z
#    x 1.960810 0.000000 -0.027360 
#    y 0.000000 1.688520 0.000000 
#    z -0.027360 0.000000 1.706310 
# 
# From -- ./inp_files/137095.got.cif
#   From: 2010.05.17/outbox.cif.g08.bks.cpg/sg15_69_cif.got.tgz:137095.got - 2010.06.03 18:47:42.
