data_PCOD9288849
_publ_section_title
;
Structure prediction by ZEFSAII (Michael W. Deem and Ramdas Pophale) SiO2 
 PCOD9288849
Probable space group: C 2/C
;
_chemical_formula_sum "Si O2"
_cell_formula_units_Z 52
_cell_length_a 27.550874
_cell_length_b 8.079122
_cell_length_c 20.009888
_cell_angle_alpha 90.000000
_cell_angle_beta 148.767163
_cell_angle_gamma 90.000000
_cell_volume 2309.443416
_symmetry_space_group_name_H-M "C 2/C"
_symmetry_group_IT_number 15
_symmetry_cell_setting 'monoclinic'
loop_
_space_group_symop_operation_xyz
x,y,z
-x,y,1/2-z
-x,-y,-z
x,-y,1/2+z
1/2+x,1/2+y,z
1/2-x,1/2+y,1/2-z
1/2-x,1/2-y,-z
1/2+x,1/2-y,1/2+z
loop_
_atom_site_type_symbol
_atom_site_label
_atom_site_fract_x
_atom_site_fract_y
_atom_site_fract_z
Si Si1 0.565182 0.463431 0.177891
Si Si2 0.146307 0.224222 0.903442
Si Si3 0.440830 0.994174 0.270900
Si Si4 0.500000 0.279839 0.750000
Si Si5 0.524791 0.838283 0.985121
Si Si6 0.369864 0.459574 0.510605
Si Si7 0.177565 0.713233 0.765425
O O1 0.595573 0.378183 0.283615
O O2 0.547656 0.317595 0.102073
O O3 0.459109 0.528633 0.066628
O O4 0.640228 0.607995 0.249250
O O5 0.098921 0.403497 0.838275
O O6 0.150219 0.141211 0.981177
O O7 0.250000 0.250000 0.000000
O O8 0.516984 0.097915 0.400840
O O9 0.484665 0.829361 0.295881
O O10 0.362990 0.929683 0.232010
O O11 0.407760 0.377544 0.623569
O O12 0.624820 0.790072 0.132139
O O13 0.500000 0.000000 0.000000
O O14 0.284989 0.345078 0.385761
#
# Coordination Sequence:
#
# PCOD9288849 Si02
#       7
#     8   8   8   4   8   8   8
#     4  11  23  43  67  99 138 183 226 293 351 402
#     4  11  22  38  63  95 133 177 227 283 354 420
#     4  10  22  39  66  92 130 175 218 283 345 403
#     4  12  24  40  62  96 140 164 220 288 344 404
#     4   9  22  44  69  93 129 179 234 282 345 411
#     4  12  24  41  65 103 139 176 229 285 347 424
#     4  11  22  44  66  95 133 182 226 274 344 421
#
# _framework density 22.516247
#
# number of rings (size 3 to 8) (size 9 to 14) (size 15 to 20)
#    0.000    1.231    4.615    0.462    6.462    1.231 
#    2.769    0.000    0.000    0.000    0.000    0.000 
#    0.000    0.000    0.000    0.000    0.000    0.000 
#
# Total GULP energy -144782.694002 kJ/mol
# GULP energy per Si atom -5568.565154 kJ/mol
# Density = 2.246500 g / cm^3
# Si number density = 22.516247 Si / 1000 Ang^3
#
#
#
# Elastic Constant Matrix: (Units=GPa)
#
#
# Indices 1 2 3 4 5 6 
#
# 1 37.3054 13.8109 1.9218 0.0000 11.0914 0.0000
# 2 13.8109 102.4699 26.9068 0.0000 2.4375 0.0000
# 3 1.9218 26.9068 89.1642 0.0000 6.4970 0.0000
# 4 0.0000 0.0000 0.0000 41.8350 0.0000 -10.5825
# 5 11.0914 2.4375 6.4970 0.0000 31.1054 0.0000
# 6 0.0000 0.0000 0.0000 -10.5825 0.0000 35.7210
#
#
#
# Elastic Compliance Matrix: (Units=1/GPa)
#
#
# Indices 1 2 3 4 5 6 
#
# 1 0.031705 -0.004389 0.001462 0.000000 -0.011267 0.000000
# 2 -0.004389 0.011207 -0.003389 0.000000 0.001395 0.000000
# 3 0.001462 -0.003389 0.012414 0.000000 -0.002849 0.000000
# 4 0.000000 0.000000 0.000000 0.025840 0.000000 0.007655
# 5 -0.011267 0.001395 -0.002849 0.000000 0.036652 0.000000
# 6 0.000000 0.000000 0.000000 0.007655 0.000000 0.030263
#
#
# Mechanical properties :
#
#
# Convention : Reuss Voigt Hill
#
# Bulk Modulus (GPa) = 23.42233 34.91315 29.16774
# Shear Modulus (GPa) = 28.58056 34.15230 31.36643
#
# Velocity S-wave (km/s) = 3.56663 3.89882 3.73642
# Velocity P-wave (km/s) = 5.23318 5.98391 5.62109
#
# Compressibility (1/GPa) = 0.04269430
#
# Stress axis : x y z
#
# Youngs Moduli (GPa) = 31.54067 89.22804 80.55418
#
# Poissons Ratio (x) = 0.39163 -0.11778
# Poissons Ratio (y) = 0.13844 0.27300
# Poissons Ratio (z) = -0.04612 0.30239
#
# Static dielectric constant tensor:
#      x y z
#    x 1.833120 0.000000 0.046680 
#    y 0.000000 1.813800 0.000000 
#    z 0.046680 0.000000 1.878210 
# 
# From -- ./inp_files/258853.got.cif
#   From: 2010.05.17/outbox.cif.g08.bks.cpg/sg15_130_cif.got.tgz:258853.got - 2010.06.03 18:47:42.
