data_PCOD9288817
_publ_section_title
;
Structure prediction by ZEFSAII (Michael W. Deem and Ramdas Pophale) SiO2 
 PCOD9288817
Probable space group: C 2/C
;
_chemical_formula_sum "Si O2"
_cell_formula_units_Z 48
_cell_length_a 16.571580
_cell_length_b 5.371426
_cell_length_c 19.907537
_cell_angle_alpha 90.000000
_cell_angle_beta 91.867993
_cell_angle_gamma 90.000000
_cell_volume 1771.088213
_symmetry_space_group_name_H-M "C 2/C"
_symmetry_group_IT_number 15
_symmetry_cell_setting 'monoclinic'
loop_
_space_group_symop_operation_xyz
x,y,z
-x,y,1/2-z
-x,-y,-z
x,-y,1/2+z
1/2+x,1/2+y,z
1/2-x,1/2+y,1/2-z
1/2-x,1/2-y,-z
1/2+x,1/2-y,1/2+z
loop_
_atom_site_type_symbol
_atom_site_label
_atom_site_fract_x
_atom_site_fract_y
_atom_site_fract_z
Si Si1 0.374536 0.028447 0.279673
Si Si2 0.581889 0.598164 0.033672
Si Si3 0.828703 0.564001 0.042097
Si Si4 0.412424 0.526815 0.213475
Si Si5 0.807667 0.250342 0.904390
Si Si6 0.983607 0.602756 0.620911
O O1 0.372797 0.259528 0.227305
O O2 0.311481 0.084493 0.337922
O O3 0.364406 0.757375 0.246387
O O4 0.464432 0.010892 0.316925
O O5 0.612236 0.419178 0.093143
O O6 0.552348 0.845731 0.068688
O O7 0.500000 0.500000 0.000000
O O8 0.658649 0.657463 0.987931
O O9 0.765146 0.447302 0.092146
O O10 0.914456 0.545072 0.081774
O O11 0.815176 0.401543 0.974227
O O12 0.500000 0.512032 0.250000
O O13 0.437517 0.642338 0.142163
#
# Coordination Sequence:
#
# PCOD9288817 Si02
#       6
#     8   8   8   8   8   8
#     4  11  22  41  67  94 128 179 221 283 340 402
#     4  12  22  38  65  98 132 178 224 281 341 413
#     4  11  24  41  60 100 131 179 217 277 347 408
#     4  10  22  39  65  96 127 169 226 285 339 394
#     4  11  23  41  63  90 142 173 221 272 344 413
#     4  11  22  42  67  98 131 168 232 281 336 410
#
# _framework density 27.101983000000001
#
# number of rings (size 3 to 8) (size 9 to 14) (size 15 to 20)
#    0.000    1.000    3.333    5.500    0.000    1.333 
#    0.000    1.667    0.000    0.000    0.000    0.000 
#    0.000    0.000    0.000    0.000    0.000    0.000 
#
# Total GULP energy -134171.147656 kJ/mol
# GULP energy per Si atom -5590.464486 kJ/mol
# Density = 2.704030 g / cm^3
# Si number density = 27.101983 Si / 1000 Ang^3
#
#
#
# Elastic Constant Matrix: (Units=GPa)
#
#
# Indices 1 2 3 4 5 6 
#
# 1 91.1076 43.9544 34.7327 0.0000 -16.6871 0.0000
# 2 43.9544 134.6792 34.1923 0.0000 -5.4627 0.0000
# 3 34.7327 34.1923 88.7733 0.0000 -25.3179 0.0000
# 4 0.0000 0.0000 0.0000 50.7732 0.0000 -4.2912
# 5 -16.6871 -5.4627 -25.3179 0.0000 38.7380 0.0000
# 6 0.0000 0.0000 0.0000 -4.2912 0.0000 32.2044
#
#
#
# Elastic Compliance Matrix: (Units=1/GPa)
#
#
# Indices 1 2 3 4 5 6 
#
# 1 0.014737 -0.003839 -0.003234 0.000000 0.003693 0.000000
# 2 -0.003839 0.009270 -0.002664 0.000000 -0.002087 0.000000
# 3 -0.003234 -0.002664 0.016042 0.000000 0.008715 0.000000
# 4 0.000000 0.000000 0.000000 0.019920 0.000000 0.002654
# 5 0.003693 -0.002087 0.008715 0.000000 0.032807 0.000000
# 6 0.000000 0.000000 0.000000 0.002654 0.000000 0.031405
#
#
# Mechanical properties :
#
#
# Convention : Reuss Voigt Hill
#
# Bulk Modulus (GPa) = 48.60204 60.03542 54.31873
# Shear Modulus (GPa) = 33.21982 37.78850 35.50416
#
# Velocity S-wave (km/s) = 3.50485 3.73809 3.62335
# Velocity P-wave (km/s) = 5.86093 6.38991 6.13113
#
# Compressibility (1/GPa) = 0.02057527
#
# Stress axis : x y z
#
# Youngs Moduli (GPa) = 67.85414 107.88065 62.33815
#
# Poissons Ratio (x) = 0.41414 0.20161
# Poissons Ratio (y) = 0.26049 0.16604
# Poissons Ratio (z) = 0.21945 0.28735
#
# Static dielectric constant tensor:
#      x y z
#    x 2.098810 0.000000 -0.036140 
#    y 0.000000 2.164980 0.000000 
#    z -0.036140 0.000000 2.210400 
# 
# From -- ./inp_files/275664.got.cif
#   From: 2010.05.17/outbox.cif.g08.bks.cpg/sg15_138_cif.got.tgz:275664.got - 2010.06.03 18:47:42.
