data_PCOD9288048
_publ_section_title
;
Structure prediction by ZEFSAII (Michael W. Deem and Ramdas Pophale) SiO2 
 PCOD9288048
Probable space group: C 2/C
;
_chemical_formula_sum "Si O2"
_cell_formula_units_Z 48
_cell_length_a 29.209602
_cell_length_b 16.910775
_cell_length_c 9.173306
_cell_angle_alpha 90.000000
_cell_angle_beta 151.026904
_cell_angle_gamma 90.000000
_cell_volume 2194.917290
_symmetry_space_group_name_H-M "C 2/C"
_symmetry_group_IT_number 15
_symmetry_cell_setting 'monoclinic'
loop_
_space_group_symop_operation_xyz
x,y,z
-x,y,1/2-z
-x,-y,-z
x,-y,1/2+z
1/2+x,1/2+y,z
1/2-x,1/2+y,1/2-z
1/2-x,1/2-y,-z
1/2+x,1/2-y,1/2+z
loop_
_atom_site_type_symbol
_atom_site_label
_atom_site_fract_x
_atom_site_fract_y
_atom_site_fract_z
Si Si1 0.756222 0.602195 0.303987
Si Si2 0.877531 0.087417 0.218699
Si Si3 0.500000 0.286984 0.750000
Si Si4 0.000000 0.618918 0.250000
Si Si5 0.077702 0.079300 0.628944
Si Si6 0.607011 0.234273 0.765694
Si Si7 0.185512 0.467502 0.220592
O O1 0.793604 0.691178 0.425521
O O2 0.806467 0.557893 0.307826
O O3 0.786995 0.555635 0.536413
O O4 0.645876 0.594937 0.956525
O O5 0.883111 0.178864 0.279796
O O6 0.967516 0.078042 0.364344
O O7 0.893737 0.006071 0.355652
O O8 0.770230 0.075216 0.866063
O O9 0.417093 0.344557 0.458182
O O10 0.546289 0.242013 0.744324
O O11 0.051420 0.675354 0.506953
O O12 0.081572 0.565701 0.405410
#
# Coordination Sequence:
#
# PCOD9288048 Si02
#       7
#     8   8   4   4   8   8   8
#     4  10  23  40  63  91 122 161 207 250 302 358
#     4   9  20  36  59  84 119 154 193 239 300 360
#     4  10  22  38  62  94 122 158 208 250 300 352
#     4  10  24  42  60  86 126 166 202 246 310 364
#     4   9  20  38  59  88 123 156 193 245 303 363
#     4  10  23  40  62  94 123 158 204 256 303 353
#     4  10  23  41  62  89 119 164 208 244 301 370
#
# _framework density 21.868704999999999
#
# number of rings (size 3 to 8) (size 9 to 14) (size 15 to 20)
#    0.000    2.333    0.000    0.000    0.000   28.000 
#    0.000    0.000    0.000    0.000    0.000    0.000 
#    0.000    0.000    0.000    0.000    0.000    0.000 
#
# Total GULP energy -133658.035137 kJ/mol
# GULP energy per Si atom -5569.084797 kJ/mol
# Density = 2.181893 g / cm^3
# Si number density = 21.868705 Si / 1000 Ang^3
#
#
#
# Elastic Constant Matrix: (Units=GPa)
#
#
# Indices 1 2 3 4 5 6 
#
# 1 51.6550 35.8711 25.2337 0.0000 13.7170 0.0000
# 2 35.8711 95.9626 31.0018 0.0000 11.3736 0.0000
# 3 25.2337 31.0018 103.3595 0.0000 20.1245 0.0000
# 4 0.0000 0.0000 0.0000 32.2431 0.0000 10.3829
# 5 13.7170 11.3736 20.1245 0.0000 44.2275 0.0000
# 6 0.0000 0.0000 0.0000 10.3829 0.0000 9.5655
#
#
#
# Elastic Compliance Matrix: (Units=1/GPa)
#
#
# Indices 1 2 3 4 5 6 
#
# 1 0.028568 -0.009019 -0.003287 0.000000 -0.005045 0.000000
# 2 -0.009019 0.014481 -0.002152 0.000000 0.000052 0.000000
# 3 -0.003287 -0.002152 0.011868 0.000000 -0.003827 0.000000
# 4 0.000000 0.000000 0.000000 0.047680 0.000000 -0.051755
# 5 -0.005045 0.000052 -0.003827 0.000000 0.025903 0.000000
# 6 0.000000 0.000000 0.000000 -0.051755 0.000000 0.160719
#
#
# Mechanical properties :
#
#
# Convention : Reuss Voigt Hill
#
# Bulk Modulus (GPa) = 38.45930 48.35447 43.40688
# Shear Modulus (GPa) = 15.29978 27.79858 21.54918
#
# Velocity S-wave (km/s) = 2.64790 3.56920 3.14250
# Velocity P-wave (km/s) = 5.19357 6.25658 5.74969
#
# Compressibility (1/GPa) = 0.02600151
#
# Stress axis : x y z
#
# Youngs Moduli (GPa) = 35.00470 69.05628 84.25974
#
# Poissons Ratio (x) = 0.62280 0.27696
# Poissons Ratio (y) = 0.31570 0.18131
# Poissons Ratio (z) = 0.11506 0.14860
#
# Static dielectric constant tensor:
#      x y z
#    x 1.857850 0.000000 -0.007630 
#    y 0.000000 1.824560 0.000000 
#    z -0.007630 0.000000 1.824690 
# 
# From -- ./inp_files/70653.got.cif
#   From: 2010.05.17/outbox.cif.g08.bks.cpg/sg15_36_cif.got.tgz:70653.got - 2010.06.03 18:47:42.
