data_PCOD9288423
_publ_section_title
;
Structure prediction by ZEFSAII (Michael W. Deem and Ramdas Pophale) SiO2 
 PCOD9288423
Probable space group: C 2/C
;
_chemical_formula_sum "Si O2"
_cell_formula_units_Z 56
_cell_length_a 15.206377
_cell_length_b 11.604179
_cell_length_c 16.809207
_cell_angle_alpha 90.000000
_cell_angle_beta 68.110825
_cell_angle_gamma 90.000000
_cell_volume 2752.274281
_symmetry_space_group_name_H-M "C 2/C"
_symmetry_group_IT_number 15
_symmetry_cell_setting 'monoclinic'
loop_
_space_group_symop_operation_xyz
x,y,z
-x,y,1/2-z
-x,-y,-z
x,-y,1/2+z
1/2+x,1/2+y,z
1/2-x,1/2+y,1/2-z
1/2-x,1/2-y,-z
1/2+x,1/2-y,1/2+z
loop_
_atom_site_type_symbol
_atom_site_label
_atom_site_fract_x
_atom_site_fract_y
_atom_site_fract_z
Si Si1 0.892756 0.310416 0.749658
Si Si2 0.563331 0.842554 0.474120
Si Si3 0.018503 0.093746 0.424749
Si Si4 0.135038 0.423720 0.909021
Si Si5 0.102163 0.048371 0.756444
Si Si6 0.795254 0.639098 0.442486
Si Si7 0.186905 0.057254 0.071426
O O1 0.876044 0.383310 0.676748
O O2 0.875365 0.178638 0.728513
O O3 0.817178 0.344820 0.842983
O O4 0.000000 0.320163 0.750000
O O5 0.562567 0.711618 0.444087
O O6 0.455848 0.883982 0.510025
O O7 0.601557 0.859307 0.550652
O O8 0.628846 0.936428 0.408414
O O9 0.912539 0.111037 0.422982
O O10 0.000000 0.000000 0.500000
O O11 0.087632 0.037242 0.335341
O O12 0.223750 0.370607 0.927237
O O13 0.000000 0.054137 0.750000
O O14 0.165756 0.009031 0.661522
O O15 0.750000 0.750000 0.500000
O O16 0.731067 0.530615 0.490932
#
# Coordination Sequence:
#
# PCOD9288423 Si02
#       7
#     8   8   8   8   8   8   8
#     4  11  20  37  68  91 114 160 216 253 304 368
#     4  10  22  40  61  90 125 166 201 256 319 372
#     4  11  22  38  67  92 122 165 209 256 326 376
#     4  10  22  40  61  86 128 165 205 257 310 373
#     4   9  20  38  60  88 122 154 202 263 310 359
#     4  11  20  36  66  95 118 156 214 268 302 359
#     4  10  22  39  58  91 128 165 201 261 314 371
#
# _framework density 20.346809
#
# number of rings (size 3 to 8) (size 9 to 14) (size 15 to 20)
#    0.000    1.714    2.857    1.714    2.000    2.857 
#    0.000    2.143    0.000    0.000    0.000    0.000 
#    0.000    0.000    0.000    0.000    0.000    0.000 
#
# Total GULP energy -156045.887854 kJ/mol
# GULP energy per Si atom -5573.067423 kJ/mol
# Density = 2.030050 g / cm^3
# Si number density = 20.346809 Si / 1000 Ang^3
#
#
#
# Elastic Constant Matrix: (Units=GPa)
#
#
# Indices 1 2 3 4 5 6 
#
# 1 70.8003 -12.5860 -1.3241 0.0000 -7.3608 0.0000
# 2 -12.5860 71.2036 25.9742 0.0000 15.4193 0.0000
# 3 -1.3241 25.9742 98.1439 0.0000 -3.9895 0.0000
# 4 0.0000 0.0000 0.0000 17.3237 0.0000 4.0301
# 5 -7.3608 15.4193 -3.9895 0.0000 30.7307 0.0000
# 6 0.0000 0.0000 0.0000 4.0301 0.0000 23.6090
#
#
#
# Elastic Compliance Matrix: (Units=1/GPa)
#
#
# Indices 1 2 3 4 5 6 
#
# 1 0.014758 0.002193 -0.000284 0.000000 0.002398 0.000000
# 2 0.002193 0.018360 -0.005210 0.000000 -0.009363 0.000000
# 3 -0.000284 -0.005210 0.011730 0.000000 0.004069 0.000000
# 4 0.000000 0.000000 0.000000 0.060112 0.000000 -0.010261
# 5 0.002398 -0.009363 0.004069 0.000000 0.038342 0.000000
# 6 0.000000 0.000000 0.000000 -0.010261 0.000000 0.044108
#
#
# Mechanical properties :
#
#
# Convention : Reuss Voigt Hill
#
# Bulk Modulus (GPa) = 26.14667 29.36399 27.75533
# Shear Modulus (GPa) = 24.18267 29.53826 26.86047
#
# Velocity S-wave (km/s) = 3.45124 3.81430 3.63730
# Velocity P-wave (km/s) = 5.36282 5.81907 5.59560
#
# Compressibility (1/GPa) = 0.03824578
#
# Stress axis : x y z
#
# Youngs Moduli (GPa) = 67.75964 54.46588 85.25466
#
# Poissons Ratio (x) = -0.11944 0.02420
# Poissons Ratio (y) = -0.14859 0.44419
# Poissons Ratio (z) = 0.01923 0.28377
#
# Static dielectric constant tensor:
#      x y z
#    x 1.890380 0.000000 -0.071940 
#    y 0.000000 1.781800 0.000000 
#    z -0.071940 0.000000 1.829920 
# 
# From -- ./inp_files/204388.got.cif
#   From: 2010.05.17/outbox.cif.g08.bks.cpg/sg15_103_cif.got.tgz:204388.got - 2010.06.03 18:47:42.
