data_PCOD9288002
_publ_section_title
;
Structure prediction by ZEFSAII (Michael W. Deem and Ramdas Pophale) SiO2 
 PCOD9288002
Probable space group: C 2/C
;
_chemical_formula_sum "Si O2"
_cell_formula_units_Z 48
_cell_length_a 11.396978
_cell_length_b 21.911980
_cell_length_c 9.944855
_cell_angle_alpha 90.000000
_cell_angle_beta 120.261655
_cell_angle_gamma 90.000000
_cell_volume 2145.108709
_symmetry_space_group_name_H-M "C 2/C"
_symmetry_group_IT_number 15
_symmetry_cell_setting 'monoclinic'
loop_
_space_group_symop_operation_xyz
x,y,z
-x,y,1/2-z
-x,-y,-z
x,-y,1/2+z
1/2+x,1/2+y,z
1/2-x,1/2+y,1/2-z
1/2-x,1/2-y,-z
1/2+x,1/2-y,1/2+z
loop_
_atom_site_type_symbol
_atom_site_label
_atom_site_fract_x
_atom_site_fract_y
_atom_site_fract_z
Si Si1 0.816658 0.409144 0.512530
Si Si2 0.639876 0.503630 0.276675
Si Si3 0.752990 0.131557 0.241619
Si Si4 0.000000 0.199437 0.250000
Si Si5 0.375580 0.181392 0.581225
Si Si6 0.262832 0.090429 0.693675
Si Si7 0.500000 0.002840 0.250000
O O1 0.704281 0.462590 0.432077
O O2 0.786634 0.368530 0.624452
O O3 0.806209 0.378682 0.360708
O O4 0.951416 0.449708 0.607929
O O5 0.500000 0.527699 0.250000
O O6 0.731685 0.560563 0.289947
O O7 0.634513 0.452449 0.155529
O O8 0.898000 0.162828 0.288765
O O9 0.638623 0.162916 0.081815
O O10 0.101024 0.246803 0.386488
O O11 0.500000 0.158467 0.750000
O O12 0.253193 0.142000 0.577082
O O13 0.377507 0.040684 0.722632
#
# Coordination Sequence:
#
# PCOD9288002 Si02
#       7
#     8   8   8   4   8   8   4
#     4  10  24  34  62  99 133 166 207 271 331 392
#     4  10  23  39  60 100 139 168 204 257 344 400
#     4  12  22  42  66  99 127 173 220 268 323 390
#     4  10  25  44  70  90 124 179 236 268 298 388
#     4  10  24  41  68  90 126 173 225 270 312 374
#     4  10  22  38  61  96 132 173 204 267 329 392
#     4  12  17  34  58  96 134 169 210 246 330 394
#
# _framework density 22.376487999999998
#
# number of rings (size 3 to 8) (size 9 to 14) (size 15 to 20)
#    1.500    0.000    3.333    2.000    2.333    2.000 
#    0.000    0.833    0.000    2.000    0.000    0.000 
#    0.000    0.000    0.000    0.000    0.000    0.000 
#
# Total GULP energy -133666.032284 kJ/mol
# GULP energy per Si atom -5569.418012 kJ/mol
# Density = 2.232556 g / cm^3
# Si number density = 22.376488 Si / 1000 Ang^3
#
#
#
# Elastic Constant Matrix: (Units=GPa)
#
#
# Indices 1 2 3 4 5 6 
#
# 1 80.6034 26.4740 8.1685 0.0000 -12.4860 0.0000
# 2 26.4740 104.3252 16.7443 0.0000 -13.9921 0.0000
# 3 8.1685 16.7443 60.7716 0.0000 -32.8566 0.0000
# 4 0.0000 0.0000 0.0000 30.1911 0.0000 2.0336
# 5 -12.4860 -13.9921 -32.8566 0.0000 38.3168 0.0000
# 6 0.0000 0.0000 0.0000 2.0336 0.0000 10.5121
#
#
#
# Elastic Compliance Matrix: (Units=1/GPa)
#
#
# Indices 1 2 3 4 5 6 
#
# 1 0.014026 -0.003172 0.001554 0.000000 0.004745 0.000000
# 2 -0.003172 0.010867 -0.001829 0.000000 0.001366 0.000000
# 3 0.001554 -0.001829 0.031065 0.000000 0.026476 0.000000
# 4 0.000000 0.000000 0.000000 0.033560 0.000000 -0.006492
# 5 0.004745 0.001366 0.026476 0.000000 0.050847 0.000000
# 6 0.000000 0.000000 0.000000 -0.006492 0.000000 0.096384
#
#
# Mechanical properties :
#
#
# Convention : Reuss Voigt Hill
#
# Bulk Modulus (GPa) = 20.38205 38.71930 29.55068
# Shear Modulus (GPa) = 19.23094 28.75822 23.99458
#
# Velocity S-wave (km/s) = 2.93478 3.58886 3.27817
# Velocity P-wave (km/s) = 4.54008 5.87489 5.25008
#
# Compressibility (1/GPa) = 0.04906277
#
# Stress axis : x y z
#
# Youngs Moduli (GPa) = 71.29688 92.01958 32.19076
#
# Poissons Ratio (x) = 0.29192 -0.05002
# Poissons Ratio (y) = 0.22618 0.05888
# Poissons Ratio (z) = -0.11080 0.16833
#
# Static dielectric constant tensor:
#      x y z
#    x 1.886250 0.000000 0.054780 
#    y 0.000000 1.795140 0.000000 
#    z 0.054780 0.000000 1.948780 
# 
# From -- ./inp_files/90487.got.cif
#   From: 2010.05.17/outbox.cif.g08.bks.cpg/sg15_46_cif.got.tgz:90487.got - 2010.06.03 18:47:42.
