data_PCOD9288961
_publ_section_title
;
Structure prediction by ZEFSAII (Michael W. Deem and Ramdas Pophale) SiO2 
 PCOD9288961
Probable space group: C 2/C
;
_chemical_formula_sum "Si O2"
_cell_formula_units_Z 40
_cell_length_a 5.302584
_cell_length_b 15.579202
_cell_length_c 19.700934
_cell_angle_alpha 90.000000
_cell_angle_beta 102.459981
_cell_angle_gamma 90.000000
_cell_volume 1589.162221
_symmetry_space_group_name_H-M "C 2/C"
_symmetry_group_IT_number 15
_symmetry_cell_setting 'monoclinic'
loop_
_space_group_symop_operation_xyz
x,y,z
-x,y,1/2-z
-x,-y,-z
x,-y,1/2+z
1/2+x,1/2+y,z
1/2-x,1/2+y,1/2-z
1/2-x,1/2-y,-z
1/2+x,1/2-y,1/2+z
loop_
_atom_site_type_symbol
_atom_site_label
_atom_site_fract_x
_atom_site_fract_y
_atom_site_fract_z
Si Si1 0.436900 0.275942 0.353712
Si Si2 0.000000 0.107251 0.750000
Si Si3 0.840820 0.611389 0.054952
Si Si4 0.776502 0.458797 0.689095
Si Si5 0.000000 0.176085 0.250000
Si Si6 0.732035 0.348886 0.023180
O O1 0.616893 0.334393 0.316695
O O2 0.588526 0.202102 0.403435
O O3 0.232541 0.233135 0.291091
O O4 0.284343 0.336279 0.397430
O O5 0.191998 0.045458 0.720703
O O6 0.860235 0.541545 0.116159
O O7 0.037449 0.604293 0.003459
O O8 0.545854 0.613884 0.014113
O O9 0.555347 0.387858 0.689586
O O10 0.000000 0.423112 0.750000
O O11 0.750000 0.250000 0.000000
#
# Coordination Sequence:
#
# PCOD9288961 Si02
#       6
#     8   4   8   8   4   8
#     4  11  22  43  67 106 131 169 225 290 344 386
#     4  11  28  40  62  99 142 172 218 285 346 388
#     4  11  22  43  72  95 129 180 231 271 331 411
#     4  11  23  44  63  93 132 184 226 270 332 412
#     4  11  22  40  72  95 132 174 230 283 336 406
#     4  10  22  39  69 101 133 168 222 289 334 396
#
# _framework density 25.170496
#
# number of rings (size 3 to 8) (size 9 to 14) (size 15 to 20)
#    0.000    1.200    2.000    6.000    4.200    1.600 
#    0.000    2.000    0.000    0.000    0.000    0.000 
#    0.000    0.000    0.000    0.000    0.000    0.000 
#
# Total GULP energy -111887.807553 kJ/mol
# GULP energy per Si atom -5594.390378 kJ/mol
# Density = 2.511321 g / cm^3
# Si number density = 25.170496 Si / 1000 Ang^3
#
#
#
# Elastic Constant Matrix: (Units=GPa)
#
#
# Indices 1 2 3 4 5 6 
#
# 1 126.1354 35.8978 42.7369 0.0000 -26.4290 0.0000
# 2 35.8978 85.0041 52.9410 0.0000 -25.9858 0.0000
# 3 42.7369 52.9410 97.3533 0.0000 -43.4472 0.0000
# 4 0.0000 0.0000 0.0000 12.5191 0.0000 -4.3553
# 5 -26.4290 -25.9858 -43.4472 0.0000 62.2338 0.0000
# 6 0.0000 0.0000 0.0000 -4.3553 0.0000 -37.1468
#
#
#
# Elastic Compliance Matrix: (Units=1/GPa)
#
#
# Indices 1 2 3 4 5 6 
#
# 1 0.009668 -0.002112 -0.002407 0.000000 0.001544 0.000000
# 2 -0.002112 0.018292 -0.008732 0.000000 0.000645 0.000000
# 3 -0.002407 -0.008732 0.020327 0.000000 0.009522 0.000000
# 4 0.000000 0.000000 0.000000 0.076748 0.000000 -0.008998
# 5 0.001544 0.000645 0.009522 0.000000 0.023641 0.000000
# 6 0.000000 0.000000 0.000000 -0.008998 0.000000 -0.025865
#
#
# Mechanical properties :
#
#
# Convention : Reuss Voigt Hill
#
# Bulk Modulus (GPa) = 45.90449 63.51605 54.71027
# Shear Modulus (GPa) = 31.93399 19.31567 25.62483
#
# Velocity S-wave (km/s) = 3.56576 2.77319 3.19415
# Velocity P-wave (km/s) = 5.93547 5.96181 5.94866
#
# Compressibility (1/GPa) = 0.02178436
#
# Stress axis : x y z
#
# Youngs Moduli (GPa) = 103.43476 54.66999 49.19641
#
# Poissons Ratio (x) = 0.11547 0.11840
# Poissons Ratio (y) = 0.21846 0.42959
# Poissons Ratio (z) = 0.24893 0.47739
#
# Static dielectric constant tensor:
#      x y z
#    x 1.957710 0.000000 -0.039340 
#    y 0.000000 2.043630 0.000000 
#    z -0.039340 0.000000 1.957930 
# 
# From -- ./inp_files/226879.got.cif
#   From: 2010.05.17/outbox.cif.g08.bks.cpg/sg15_114_cif.got.tgz:226879.got - 2010.06.03 18:47:42.
