data_PCOD9288553
_publ_section_title
;
Structure prediction by ZEFSAII (Michael W. Deem and Ramdas Pophale) SiO2 
 PCOD9288553
Probable space group: C 2/C
;
_chemical_formula_sum "Si O2"
_cell_formula_units_Z 56
_cell_length_a 15.000034
_cell_length_b 11.588950
_cell_length_c 16.779864
_cell_angle_alpha 90.000000
_cell_angle_beta 67.311859
_cell_angle_gamma 90.000000
_cell_volume 2691.204288
_symmetry_space_group_name_H-M "C 2/C"
_symmetry_group_IT_number 15
_symmetry_cell_setting 'monoclinic'
loop_
_space_group_symop_operation_xyz
x,y,z
-x,y,1/2-z
-x,-y,-z
x,-y,1/2+z
1/2+x,1/2+y,z
1/2-x,1/2+y,1/2-z
1/2-x,1/2-y,-z
1/2+x,1/2-y,1/2+z
loop_
_atom_site_type_symbol
_atom_site_label
_atom_site_fract_x
_atom_site_fract_y
_atom_site_fract_z
Si Si1 0.428780 0.745449 0.711020
Si Si2 0.529552 0.629154 0.964011
Si Si3 0.226720 0.190626 0.232840
Si Si4 0.246964 0.336605 0.074784
Si Si5 0.852180 0.746630 0.570754
Si Si6 0.386857 0.510273 0.802355
Si Si7 0.253576 0.439942 0.492107
O O1 0.500000 0.804835 0.750000
O O2 0.483781 0.673643 0.622668
O O3 0.342983 0.819215 0.702570
O O4 0.380098 0.643151 0.778828
O O5 0.642825 0.636928 0.939216
O O6 0.500000 0.500000 0.000000
O O7 0.464824 0.720625 0.033866
O O8 0.203065 0.272840 0.166129
O O9 0.187088 0.244193 0.327212
O O10 0.176576 0.069093 0.233384
O O11 0.250000 0.250000 0.000000
O O12 0.205145 0.457798 0.059107
O O13 0.821333 0.629230 0.537638
O O14 0.802693 0.848464 0.534856
O O15 0.500000 0.477920 0.750000
O O16 0.336917 0.504553 0.906439
#
# Coordination Sequence:
#
# PCOD9288553 Si02
#       7
#     8   8   8   8   8   8   8
#     4  10  22  39  61  92 128 161 211 270 321 378
#     4  11  22  38  65  98 122 164 222 265 316 387
#     4  11  24  37  63  97 129 166 216 272 325 387
#     4  11  24  43  62  90 135 172 208 267 337 384
#     4  11  23  38  64 101 126 166 223 275 314 386
#     4  11  22  39  66  96 129 165 218 271 319 386
#     4  11  23  40  63  94 137 170 208 267 339 379
#
# _framework density 20.808527999999999
#
# number of rings (size 3 to 8) (size 9 to 14) (size 15 to 20)
#    0.000    1.143    4.286    2.571    6.000    0.000 
#    0.000    0.714    0.000    0.857    3.714    0.000 
#    0.000    0.000    0.000    0.000    0.000    0.000 
#
# Total GULP energy -156353.603151 kJ/mol
# GULP energy per Si atom -5584.057255 kJ/mol
# Density = 2.076117 g / cm^3
# Si number density = 20.808528 Si / 1000 Ang^3
#
#
#
# Elastic Constant Matrix: (Units=GPa)
#
#
# Indices 1 2 3 4 5 6 
#
# 1 60.8906 33.4419 10.4583 0.0000 8.6166 0.0000
# 2 33.4419 51.2104 -4.1293 0.0000 7.2141 0.0000
# 3 10.4583 -4.1293 97.6383 0.0000 19.2589 0.0000
# 4 0.0000 0.0000 0.0000 24.1272 0.0000 4.1042
# 5 8.6166 7.2141 19.2589 0.0000 30.8072 0.0000
# 6 0.0000 0.0000 0.0000 4.1042 0.0000 42.1178
#
#
#
# Elastic Compliance Matrix: (Units=1/GPa)
#
#
# Indices 1 2 3 4 5 6 
#
# 1 0.026871 -0.017639 -0.003372 0.000000 -0.001277 0.000000
# 2 -0.017639 0.032135 0.004288 0.000000 -0.005272 0.000000
# 3 -0.003372 0.004288 0.012315 0.000000 -0.007760 0.000000
# 4 0.000000 0.000000 0.000000 0.042146 0.000000 -0.004107
# 5 -0.001277 -0.005272 -0.007760 0.000000 0.038902 0.000000
# 6 0.000000 0.000000 0.000000 -0.004107 0.000000 0.024143
#
#
# Mechanical properties :
#
#
# Convention : Reuss Voigt Hill
#
# Bulk Modulus (GPa) = 26.40353 32.14234 29.27293
# Shear Modulus (GPa) = 22.46357 30.74166 26.60261
#
# Velocity S-wave (km/s) = 3.28919 3.84781 3.57942
# Velocity P-wave (km/s) = 5.20974 5.93474 5.58402
#
# Compressibility (1/GPa) = 0.03787373
#
# Stress axis : x y z
#
# Youngs Moduli (GPa) = 37.21552 31.11896 81.20163
#
# Poissons Ratio (x) = 0.54892 0.27384
# Poissons Ratio (y) = 0.65646 -0.34822
# Poissons Ratio (z) = 0.12550 -0.13345
#
# Static dielectric constant tensor:
#      x y z
#    x 1.805150 0.000000 -0.011120 
#    y 0.000000 1.740220 0.000000 
#    z -0.011120 0.000000 1.858870 
# 
# From -- ./inp_files/204352.got.cif
#   From: 2010.05.17/outbox.cif.g08.bks.cpg/sg15_103_cif.got.tgz:204352.got - 2010.06.03 18:47:42.
