data_PCOD9288415
_publ_section_title
;
Structure prediction by ZEFSAII (Michael W. Deem and Ramdas Pophale) SiO2 
 PCOD9288415
Probable space group: C 2/C
;
_chemical_formula_sum "Si O2"
_cell_formula_units_Z 60
_cell_length_a 23.110981
_cell_length_b 21.372637
_cell_length_c 9.539307
_cell_angle_alpha 90.000000
_cell_angle_beta 140.540145
_cell_angle_gamma 90.000000
_cell_volume 2994.569794
_symmetry_space_group_name_H-M "C 2/C"
_symmetry_group_IT_number 15
_symmetry_cell_setting 'monoclinic'
loop_
_space_group_symop_operation_xyz
x,y,z
-x,y,1/2-z
-x,-y,-z
x,-y,1/2+z
1/2+x,1/2+y,z
1/2-x,1/2+y,1/2-z
1/2-x,1/2-y,-z
1/2+x,1/2-y,1/2+z
loop_
_atom_site_type_symbol
_atom_site_label
_atom_site_fract_x
_atom_site_fract_y
_atom_site_fract_z
Si Si1 0.489030 0.146436 0.526409
Si Si2 0.500000 0.103541 0.250000
Si Si3 0.813214 0.426949 0.700473
Si Si4 0.311330 0.307416 0.062289
Si Si5 0.147810 0.788821 0.670834
Si Si6 0.303525 0.150900 0.631146
Si Si7 0.523746 0.709433 0.449194
Si Si8 0.688830 0.953203 0.133060
O O1 0.473957 0.147313 0.330155
O O2 0.417076 0.093263 0.432987
O O3 0.596961 0.133733 0.748432
O O4 0.463945 0.214804 0.535555
O O5 0.581207 0.059723 0.450583
O O6 0.753754 0.364864 0.593245
O O7 0.801465 0.449346 0.516458
O O8 0.783590 0.481086 0.750193
O O9 0.384871 0.320182 0.319772
O O10 0.250000 0.250000 0.000000
O O11 0.363820 0.292539 0.016644
O O12 0.179066 0.717985 0.763290
O O13 0.058817 0.800853 0.597402
O O14 0.227115 0.835480 0.872855
O O15 0.273349 0.102150 0.695257
O O16 0.500000 0.686950 0.250000
#
# Coordination Sequence:
#
# PCOD9288415 Si02
#       8
#     8   4   8   8   8   8   8   8
#     4   9  19  35  58  90 134 168 210 250 311 382
#     4   8  18  36  56  82 124 182 208 250 308 370
#     4  11  24  40  62  93 132 177 215 263 321 381
#     4  12  25  41  67  97 132 166 220 273 329 386
#     4  10  23  40  67  95 125 175 214 269 327 388
#     4   9  20  36  65  91 133 167 218 257 320 374
#     4  11  25  41  64  98 130 167 214 274 333 388
#     4  10  22  39  58  87 130 175 216 260 311 386
#
# _framework density 20.036266999999999
#
# number of rings (size 3 to 8) (size 9 to 14) (size 15 to 20)
#    0.000    1.867    1.333    1.200   14.933    4.800 
#    3.600    0.000    0.000    0.800    0.000    0.000 
#    0.000    0.000    0.000    0.000    0.000    0.000 
#
# Total GULP energy -167489.579256 kJ/mol
# GULP energy per Si atom -5582.985975 kJ/mol
# Density = 1.999066 g / cm^3
# Si number density = 20.036267 Si / 1000 Ang^3
#
#
#
# Elastic Constant Matrix: (Units=GPa)
#
#
# Indices 1 2 3 4 5 6 
#
# 1 76.4727 31.1050 34.7292 0.0000 -14.1576 0.0000
# 2 31.1050 74.0322 31.9109 0.0000 1.1666 0.0000
# 3 34.7292 31.9109 107.0507 0.0000 -2.5986 0.0000
# 4 0.0000 0.0000 0.0000 31.8002 0.0000 -4.6330
# 5 -14.1576 1.1666 -2.5986 0.0000 25.9326 0.0000
# 6 0.0000 0.0000 0.0000 -4.6330 0.0000 16.1278
#
#
#
# Elastic Compliance Matrix: (Units=1/GPa)
#
#
# Indices 1 2 3 4 5 6 
#
# 1 0.019607 -0.006625 -0.004129 0.000000 0.010588 0.000000
# 2 -0.006625 0.017773 -0.003264 0.000000 -0.004743 0.000000
# 3 -0.004129 -0.003264 0.011631 0.000000 -0.000942 0.000000
# 4 0.000000 0.000000 0.000000 0.032820 0.000000 0.009428
# 5 0.010588 -0.004743 -0.000942 0.000000 0.044461 0.000000
# 6 0.000000 0.000000 0.000000 0.009428 0.000000 0.064713
#
#
# Mechanical properties :
#
#
# Convention : Reuss Voigt Hill
#
# Bulk Modulus (GPa) = 47.67584 50.33842 49.00713
# Shear Modulus (GPa) = 22.12087 25.42615 23.77351
#
# Velocity S-wave (km/s) = 3.32632 3.56618 3.44833
# Velocity P-wave (km/s) = 6.21280 6.49115 6.35350
#
# Compressibility (1/GPa) = 0.02097499
#
# Stress axis : x y z
#
# Youngs Moduli (GPa) = 51.00347 56.26600 85.97791
#
# Poissons Ratio (x) = 0.37276 0.35499
# Poissons Ratio (y) = 0.33789 0.28062
# Poissons Ratio (z) = 0.21059 0.18364
#
# Static dielectric constant tensor:
#      x y z
#    x 1.849900 0.000000 -0.287930 
#    y 0.000000 1.705060 0.000000 
#    z -0.287930 0.000000 2.538940 
# 
# From -- ./inp_files/63534.got.cif
#   From: 2010.05.17/outbox.cif.g08.bks.cpg/sg15_32_cif.got.tgz:63534.got - 2010.06.03 18:47:42.
