data_PCOD9288883
_publ_section_title
;
Structure prediction by ZEFSAII (Michael W. Deem and Ramdas Pophale) SiO2 
 PCOD9288883
Probable space group: C 2/C
;
_chemical_formula_sum "Si O2"
_cell_formula_units_Z 48
_cell_length_a 18.542370
_cell_length_b 21.731599
_cell_length_c 11.767569
_cell_angle_alpha 90.000000
_cell_angle_beta 30.656512
_cell_angle_gamma 90.000000
_cell_volume 2417.799531
_symmetry_space_group_name_H-M "C 2/C"
_symmetry_group_IT_number 15
_symmetry_cell_setting 'monoclinic'
loop_
_space_group_symop_operation_xyz
x,y,z
-x,y,1/2-z
-x,-y,-z
x,-y,1/2+z
1/2+x,1/2+y,z
1/2-x,1/2+y,1/2-z
1/2-x,1/2-y,-z
1/2+x,1/2-y,1/2+z
loop_
_atom_site_type_symbol
_atom_site_label
_atom_site_fract_x
_atom_site_fract_y
_atom_site_fract_z
Si Si1 0.151026 0.314453 0.358581
Si Si2 0.500000 0.897271 0.750000
Si Si3 0.170480 0.213421 0.506918
Si Si4 0.585026 0.741444 0.250293
Si Si5 0.791163 0.917126 0.450528
Si Si6 0.930672 0.120069 0.521832
Si Si7 0.500000 0.482456 0.750000
O O1 0.061832 0.352964 0.569397
O O2 0.202979 0.251619 0.349396
O O3 0.057255 0.294305 0.380306
O O4 0.291085 0.354051 0.146158
O O5 0.634479 0.932659 0.617999
O O6 0.250000 0.250000 0.500000
O O7 0.214043 0.142658 0.461276
O O8 0.000000 0.215849 0.750000
O O9 0.500000 0.748552 0.250000
O O10 0.542665 0.675541 0.361404
O O11 0.750000 0.750000 0.000000
O O12 0.882571 0.895721 0.215426
O O13 0.867508 0.972934 0.408593
O O14 0.981938 0.060878 0.384006
#
# Coordination Sequence:
#
# PCOD9288883 Si02
#       7
#     8   4   8   8   8   8   4
#     4  11  22  38  68  97 138 162 212 273 345 385
#     4  10  22  39  66  98 129 156 202 290 344 360
#     4  12  20  35  61 101 129 157 201 274 339 385
#     4  12  24  41  62  94 132 178 215 259 328 396
#     4  11  24  40  65  96 126 169 217 271 328 384
#     4  11  23  43  65  90 132 179 211 273 316 384
#     4  12  24  45  64  84 129 180 240 244 300 402
#
# _framework density 19.852761999999998
#
# number of rings (size 3 to 8) (size 9 to 14) (size 15 to 20)
#    0.000    0.667    7.500    1.500    2.333    0.000 
#    0.000    3.333    7.333    0.000    0.000    0.000 
#    0.000    0.000    0.000    0.000    0.000    0.000 
#
# Total GULP energy -134160.888051 kJ/mol
# GULP energy per Si atom -5590.037002 kJ/mol
# Density = 1.980758 g / cm^3
# Si number density = 19.852762 Si / 1000 Ang^3
#
#
#
# Elastic Constant Matrix: (Units=GPa)
#
#
# Indices 1 2 3 4 5 6 
#
# 1 65.6193 5.9211 7.4052 -0.0014 -18.0154 0.0017
# 2 5.9211 80.5432 16.5480 -0.0005 -14.0151 0.0006
# 3 7.4052 16.5480 73.1464 -0.0001 -25.2406 0.0010
# 4 -0.0014 -0.0005 -0.0001 25.9149 0.0006 -3.5010
# 5 -18.0154 -14.0151 -25.2406 0.0006 37.9317 -0.0014
# 6 0.0017 0.0006 0.0010 -3.5010 -0.0014 35.4745
#
#
#
# Elastic Compliance Matrix: (Units=1/GPa)
#
#
# Indices 1 2 3 4 5 6 
#
# 1 0.017640 0.000035 0.001430 0.000001 0.009342 0.000000
# 2 0.000035 0.013434 -0.001719 0.000000 0.003836 0.000000
# 3 0.001430 -0.001719 0.018083 0.000000 0.012077 0.000000
# 4 0.000001 0.000000 0.000000 0.039109 0.000000 0.003860
# 5 0.009342 0.003836 0.012077 0.000000 0.040254 0.000001
# 6 0.000000 0.000000 0.000000 0.003860 0.000001 0.028570
#
#
# Mechanical properties :
#
#
# Convention : Reuss Voigt Hill
#
# Bulk Modulus (GPa) = 20.55552 31.00637 25.78095
# Shear Modulus (GPa) = 28.76652 32.49321 30.62986
#
# Velocity S-wave (km/s) = 3.81069 4.05002 3.93218
# Velocity P-wave (km/s) = 5.45328 6.12554 5.79916
#
# Compressibility (1/GPa) = 0.04864872
#
# Stress axis : x y z
#
# Youngs Moduli (GPa) = 56.68998 74.43885 55.30190
#
# Poissons Ratio (x) = -0.00261 -0.07908
# Poissons Ratio (y) = -0.00199 0.09506
# Poissons Ratio (z) = -0.08107 0.12795
#
# Static dielectric constant tensor:
#      x y z
#    x 1.735250 0.000000 0.013870 
#    y 0.000000 1.668110 0.000000 
#    z 0.013870 0.000000 1.755250 
# 
# From -- ./inp_files/108064.got.cif
#   From: 2010.05.17/outbox.cif.g08.bks.cpg/sg15_55_cif.got.tgz:108064.got - 2010.06.03 18:47:42.
