data_PCOD9288355
_publ_section_title
;
Structure prediction by ZEFSAII (Michael W. Deem and Ramdas Pophale) SiO2 
 PCOD9288355
Probable space group: C 2/C
;
_chemical_formula_sum "Si O2"
_cell_formula_units_Z 44
_cell_length_a 5.183318
_cell_length_b 18.668190
_cell_length_c 21.824652
_cell_angle_alpha 90.000000
_cell_angle_beta 81.961452
_cell_angle_gamma 90.000000
_cell_volume 2091.072085
_symmetry_space_group_name_H-M "C 2/C"
_symmetry_group_IT_number 15
_symmetry_cell_setting 'monoclinic'
loop_
_space_group_symop_operation_xyz
x,y,z
-x,y,1/2-z
-x,-y,-z
x,-y,1/2+z
1/2+x,1/2+y,z
1/2-x,1/2+y,1/2-z
1/2-x,1/2-y,-z
1/2+x,1/2-y,1/2+z
loop_
_atom_site_type_symbol
_atom_site_label
_atom_site_fract_x
_atom_site_fract_y
_atom_site_fract_z
Si Si1 0.407911 0.436551 0.651136
Si Si2 0.295390 0.138568 0.869991
Si Si3 0.670838 0.427522 0.182953
Si Si4 0.500000 0.117778 0.250000
Si Si5 0.224951 0.516244 0.540420
Si Si6 0.349001 0.705033 0.320350
O O1 0.637555 0.493391 0.655652
O O2 0.239935 0.466298 0.600566
O O3 0.517956 0.356798 0.643771
O O4 0.229553 0.431760 0.717732
O O5 0.534282 0.100335 0.824764
O O6 0.331751 0.222503 0.858602
O O7 0.005588 0.121466 0.855626
O O8 0.307493 0.097733 0.934412
O O9 0.500000 0.424102 0.250000
O O10 0.585825 0.168912 0.302961
O O11 0.500000 0.500000 0.500000
O O12 0.000000 0.500000 0.500000
O O13 0.500000 0.717599 0.250000
#
# Coordination Sequence:
#
# PCOD9288355 Si02
#       6
#     8   8   8   4   8   8
#     4  10  24  39  68  94 134 174 227 270 344 405
#     4  11  25  40  65  94 134 173 222 272 336 388
#     4  11  22  36  61  98 131 171 212 267 333 407
#     4  10  22  38  70 100 144 176 212 272 356 432
#     4  11  25  47  69  93 129 181 237 288 323 379
#     4  10  22  40  62 101 139 175 208 270 349 421
#
# _framework density 21.041837000000001
#
# number of rings (size 3 to 8) (size 9 to 14) (size 15 to 20)
#    0.000    1.455    0.000    5.455   19.091    0.000 
#    0.000    1.818    0.000    0.000    0.000    0.000 
#    0.000    0.000    0.000    0.000    0.000    0.000 
#
# Total GULP energy -122825.415175 kJ/mol
# GULP energy per Si atom -5582.973417 kJ/mol
# Density = 2.099394 g / cm^3
# Si number density = 21.041837 Si / 1000 Ang^3
#
#
#
# Elastic Constant Matrix: (Units=GPa)
#
#
# Indices 1 2 3 4 5 6 
#
# 1 103.7276 35.5449 24.5079 0.0000 5.0298 0.0000
# 2 35.5449 171.2826 31.9791 0.0000 10.3498 0.0000
# 3 24.5079 31.9791 52.3087 0.0000 17.9333 0.0000
# 4 0.0000 0.0000 0.0000 27.6987 0.0000 4.9520
# 5 5.0298 10.3498 17.9333 0.0000 44.0108 0.0000
# 6 0.0000 0.0000 0.0000 4.9520 0.0000 15.9209
#
#
#
# Elastic Compliance Matrix: (Units=1/GPa)
#
#
# Indices 1 2 3 4 5 6 
#
# 1 0.011214 -0.001516 -0.004661 0.000000 0.000974 0.000000
# 2 -0.001516 0.006796 -0.003436 0.000000 -0.000025 0.000000
# 3 -0.004661 -0.003436 0.026668 0.000000 -0.009526 0.000000
# 4 0.000000 0.000000 0.000000 0.038229 0.000000 -0.011890
# 5 0.000974 -0.000025 -0.009526 0.000000 0.026498 0.000000
# 6 0.000000 0.000000 0.000000 -0.011890 0.000000 0.066509
#
#
# Mechanical properties :
#
#
# Convention : Reuss Voigt Hill
#
# Bulk Modulus (GPa) = 39.29082 56.82030 48.05556
# Shear Modulus (GPa) = 24.55517 33.21187 28.88352
#
# Velocity S-wave (km/s) = 3.41980 3.97718 3.70898
# Velocity P-wave (km/s) = 5.85718 6.93922 6.42104
#
# Compressibility (1/GPa) = 0.02545124
#
# Stress axis : x y z
#
# Youngs Moduli (GPa) = 89.17280 147.14823 37.49862
#
# Poissons Ratio (x) = 0.22304 0.17480
# Poissons Ratio (y) = 0.13516 0.12885
# Poissons Ratio (z) = 0.41568 0.50560
#
# Static dielectric constant tensor:
#      x y z
#    x 1.796590 0.000000 -0.002570 
#    y 0.000000 1.747600 0.000000 
#    z -0.002570 0.000000 1.777550 
# 
# From -- ./inp_files/226918.got.cif
#   From: 2010.05.17/outbox.cif.g08.bks.cpg/sg15_114_cif.got.tgz:226918.got - 2010.06.03 18:47:42.
