data_PCOD9288230
_publ_section_title
;
Structure prediction by ZEFSAII (Michael W. Deem and Ramdas Pophale) SiO2 
 PCOD9288230
Probable space group: C 2/C
;
_chemical_formula_sum "Si O2"
_cell_formula_units_Z 60
_cell_length_a 12.088522
_cell_length_b 13.739556
_cell_length_c 17.930714
_cell_angle_alpha 90.000000
_cell_angle_beta 73.468809
_cell_angle_gamma 90.000000
_cell_volume 2855.027854
_symmetry_space_group_name_H-M "C 2/C"
_symmetry_group_IT_number 15
_symmetry_cell_setting 'monoclinic'
loop_
_space_group_symop_operation_xyz
x,y,z
-x,y,1/2-z
-x,-y,-z
x,-y,1/2+z
1/2+x,1/2+y,z
1/2-x,1/2+y,1/2-z
1/2-x,1/2-y,-z
1/2+x,1/2-y,1/2+z
loop_
_atom_site_type_symbol
_atom_site_label
_atom_site_fract_x
_atom_site_fract_y
_atom_site_fract_z
Si Si1 0.429579 0.797938 0.548209
Si Si2 0.420534 0.788547 0.372992
Si Si3 0.797608 0.106771 0.340383
Si Si4 0.684794 0.370635 0.350185
Si Si5 0.733082 0.932094 0.688390
Si Si6 0.500000 0.939524 0.250000
Si Si7 0.128785 0.109428 0.696904
Si Si8 0.839673 0.284373 0.921295
O O1 0.435444 0.788766 0.458439
O O2 0.317975 0.860993 0.593354
O O3 0.409952 0.692613 0.590128
O O4 0.548814 0.832895 0.561244
O O5 0.401136 0.678446 0.346531
O O6 0.300129 0.838560 0.371029
O O7 0.509625 0.862552 0.316730
O O8 0.771064 0.118705 0.257527
O O9 0.821189 0.992044 0.342833
O O10 0.674633 0.486369 0.353401
O O11 0.691349 0.351459 0.260134
O O12 0.715694 0.859497 0.624958
O O13 0.612427 0.991096 0.725341
O O14 0.128045 0.191974 0.635457
O O15 0.000000 0.088984 0.750000
O O16 0.750000 0.250000 0.000000
#
# Coordination Sequence:
#
# PCOD9288230 Si02
#       8
#     8   8   8   8   8   4   8   8
#     4  11  22  42  67  94 135 175 206 272 334 392
#     4  10  22  38  65  96 131 162 217 260 330 386
#     4  10  22  40  71  96 126 174 218 266 326 397
#     4   9  19  40  66  92 125 171 213 265 324 388
#     4  10  22  41  66  92 126 169 221 263 318 379
#     4  10  22  40  64  94 122 168 214 270 312 384
#     4  11  23  42  67  95 134 173 224 273 332 394
#     4  12  27  43  65  98 133 176 225 273 326 393
#
# _framework density 21.015557000000001
#
# number of rings (size 3 to 8) (size 9 to 14) (size 15 to 20)
#    0.000    1.600    1.333    4.000    1.867    7.467 
#    2.400    5.333    0.000    0.000    0.000    0.000 
#    0.000    0.000    0.000    0.000    0.000    0.000 
#
# Total GULP energy -167501.519736 kJ/mol
# GULP energy per Si atom -5583.383991 kJ/mol
# Density = 2.096772 g / cm^3
# Si number density = 21.015557 Si / 1000 Ang^3
#
#
#
# Elastic Constant Matrix: (Units=GPa)
#
#
# Indices 1 2 3 4 5 6 
#
# 1 35.7896 7.2632 26.8833 0.0000 9.7883 0.0000
# 2 7.2632 92.0279 64.8109 0.0000 6.1766 0.0000
# 3 26.8833 64.8109 142.2129 0.0000 19.7504 0.0000
# 4 0.0000 0.0000 0.0000 -28.8604 0.0000 -15.0000
# 5 9.7883 6.1766 19.7504 0.0000 39.2072 0.0000
# 6 0.0000 0.0000 0.0000 -15.0000 0.0000 14.3936
#
#
#
# Elastic Compliance Matrix: (Units=1/GPa)
#
#
# Indices 1 2 3 4 5 6 
#
# 1 0.034043 0.002471 -0.006803 0.000000 -0.005461 0.000000
# 2 0.002471 0.016238 -0.007985 0.000000 0.000847 0.000000
# 3 -0.006803 -0.007985 0.012415 0.000000 -0.003298 0.000000
# 4 0.000000 0.000000 0.000000 -0.022476 0.000000 -0.023423
# 5 -0.005461 0.000847 -0.003298 0.000000 0.028397 0.000000
# 6 0.000000 0.000000 0.000000 -0.023423 0.000000 0.045066
#
#
# Mechanical properties :
#
#
# Convention : Reuss Voigt Hill
#
# Bulk Modulus (GPa) = 26.27315 51.99390 39.13353
# Shear Modulus (GPa) = 33.11187 16.35297 24.73242
#
# Velocity S-wave (km/s) = 3.97367 2.79254 3.43426
# Velocity P-wave (km/s) = 5.79503 5.93229 5.86406
#
# Compressibility (1/GPa) = 0.03806167
#
# Stress axis : x y z
#
# Youngs Moduli (GPa) = 29.37430 61.58509 80.55050
#
# Poissons Ratio (x) = -0.15216 0.54798
# Poissons Ratio (y) = -0.07258 0.64318
# Poissons Ratio (z) = 0.19983 0.49174
#
# Static dielectric constant tensor:
#      x y z
#    x 1.806010 0.000000 -0.026410 
#    y 0.000000 1.770530 0.000000 
#    z -0.026410 0.000000 1.728800 
# 
# From -- ./inp_files/153912.got.cif
#   From: 2010.05.17/outbox.cif.g08.bks.cpg/sg15_77_cif.got.tgz:153912.got - 2010.06.03 18:47:42.
