data_PCOD9288899
_publ_section_title
;
Structure prediction by ZEFSAII (Michael W. Deem and Ramdas Pophale) SiO2 
 PCOD9288899
Probable space group: C 2/C
;
_chemical_formula_sum "Si O2"
_cell_formula_units_Z 44
_cell_length_a 22.593090
_cell_length_b 12.862563
_cell_length_c 16.578138
_cell_angle_alpha 90.000000
_cell_angle_beta 23.018079
_cell_angle_gamma 90.000000
_cell_volume 1883.820877
_symmetry_space_group_name_H-M "C 2/C"
_symmetry_group_IT_number 15
_symmetry_cell_setting 'monoclinic'
loop_
_space_group_symop_operation_xyz
x,y,z
-x,y,1/2-z
-x,-y,-z
x,-y,1/2+z
1/2+x,1/2+y,z
1/2-x,1/2+y,1/2-z
1/2-x,1/2-y,-z
1/2+x,1/2-y,1/2+z
loop_
_atom_site_type_symbol
_atom_site_label
_atom_site_fract_x
_atom_site_fract_y
_atom_site_fract_z
Si Si1 0.819533 0.124216 0.778211
Si Si2 0.341739 0.810199 0.314318
Si Si3 0.326751 0.042108 0.381291
Si Si4 0.000000 0.992488 0.250000
Si Si5 0.967337 0.261140 0.885166
Si Si6 0.912487 0.140019 0.496234
O O1 0.957918 0.171732 0.655334
O O2 0.871547 0.078118 0.628550
O O3 0.716547 0.060283 0.970229
O O4 0.709395 0.217487 0.886351
O O5 0.250000 0.750000 0.500000
O O6 0.231798 0.826443 0.375868
O O7 0.485789 0.740363 0.112101
O O8 0.381856 0.925818 0.295084
O O9 0.442279 0.131542 0.210198
O O10 0.166096 0.057058 0.537036
O O11 0.990509 0.066559 0.183979
O O12 0.000000 0.241901 0.750000
#
# Coordination Sequence:
#
# PCOD9288899 Si02
#       6
#     8   8   8   4   8   8
#     4  11  24  40  65  99 127 163 220 271 311 379
#     4  11  21  43  64  91 126 179 209 256 323 393
#     4  10  22  39  67  88 131 167 216 253 327 381
#     4  10  22  42  62  92 126 176 208 258 324 388
#     4  10  22  42  64  95 128 169 208 264 329 386
#     4  11  22  42  65  93 133 163 220 264 315 378
#
# _framework density 23.356784999999999
#
# number of rings (size 3 to 8) (size 9 to 14) (size 15 to 20)
#    0.000    1.455    3.636    3.273    3.818    5.091 
#    0.000   10.000    0.000    0.000    0.000    0.000 
#    0.000    0.000    0.000    0.000    0.000    0.000 
#
# Total GULP energy -123031.319207 kJ/mol
# GULP energy per Si atom -5592.332691 kJ/mol
# Density = 2.330362 g / cm^3
# Si number density = 23.356785 Si / 1000 Ang^3
#
#
#
# Elastic Constant Matrix: (Units=GPa)
#
#
# Indices 1 2 3 4 5 6 
#
# 1 108.6018 4.4259 18.4435 0.0000 -11.1094 0.0000
# 2 4.4259 80.5860 -3.9892 0.0000 -10.3257 0.0000
# 3 18.4435 -3.9892 39.1248 0.0000 0.4383 0.0000
# 4 0.0000 0.0000 0.0000 16.5703 0.0000 -24.3127
# 5 -11.1094 -10.3257 0.4383 0.0000 46.0733 0.0000
# 6 0.0000 0.0000 0.0000 -24.3127 0.0000 29.7588
#
#
#
# Elastic Compliance Matrix: (Units=1/GPa)
#
#
# Indices 1 2 3 4 5 6 
#
# 1 0.010315 -0.000501 -0.004941 0.000000 0.002422 0.000000
# 2 -0.000501 0.012864 0.001517 0.000000 0.002748 0.000000
# 3 -0.004941 0.001517 0.028056 0.000000 -0.001118 0.000000
# 4 0.000000 0.000000 0.000000 -0.303688 0.000000 -0.248110
# 5 0.002422 0.002748 -0.001118 0.000000 0.022915 0.000000
# 6 0.000000 0.000000 0.000000 -0.248110 0.000000 -0.169100
#
#
# Mechanical properties :
#
#
# Convention : Reuss Voigt Hill
#
# Bulk Modulus (GPa) = 23.04935 29.56365 26.30650
# Shear Modulus (GPa) = -13.28629 32.44264 9.57818
#
# Velocity S-wave (km/s) = -2.38763 3.73098 2.02724
# Velocity P-wave (km/s) = 1.51287 5.58973 4.09475
#
# Compressibility (1/GPa) = 0.04338517
#
# Stress axis : x y z
#
# Youngs Moduli (GPa) = 96.94429 77.73761 35.64360
#
# Poissons Ratio (x) = 0.03893 0.17611
# Poissons Ratio (y) = 0.04855 -0.05407
# Poissons Ratio (z) = 0.47898 -0.11792
#
# Static dielectric constant tensor:
#      x y z
#    x 1.901290 0.000000 0.017980 
#    y 0.000000 1.940920 0.000000 
#    z 0.017980 0.000000 1.908340 
# 
# From -- ./inp_files/168415.got.cif
#   From: 2010.05.17/outbox.cif.g08.bks.cpg/sg15_85_cif.got.tgz:168415.got - 2010.06.03 18:47:42.
