data_PCOD9288478
_publ_section_title
;
Structure prediction by ZEFSAII (Michael W. Deem and Ramdas Pophale) SiO2 
 PCOD9288478
Probable space group: C 2/C
;
_chemical_formula_sum "Si O2"
_cell_formula_units_Z 56
_cell_length_a 9.012136
_cell_length_b 19.587142
_cell_length_c 16.440926
_cell_angle_alpha 90.000000
_cell_angle_beta 126.731013
_cell_angle_gamma 90.000000
_cell_volume 2325.962051
_symmetry_space_group_name_H-M "C 2/C"
_symmetry_group_IT_number 15
_symmetry_cell_setting 'monoclinic'
loop_
_space_group_symop_operation_xyz
x,y,z
-x,y,1/2-z
-x,-y,-z
x,-y,1/2+z
1/2+x,1/2+y,z
1/2-x,1/2+y,1/2-z
1/2-x,1/2-y,-z
1/2+x,1/2-y,1/2+z
loop_
_atom_site_type_symbol
_atom_site_label
_atom_site_fract_x
_atom_site_fract_y
_atom_site_fract_z
Si Si1 0.280638 0.480323 0.776377
Si Si2 0.107266 0.491029 0.386528
Si Si3 0.584570 0.346439 0.445642
Si Si4 0.317887 0.693530 0.143409
Si Si5 0.343365 0.516442 0.617157
Si Si6 0.212436 0.344219 0.428238
Si Si7 0.965663 0.302339 0.643819
O O1 0.256944 0.497201 0.864137
O O2 0.289841 0.522486 0.693297
O O3 0.496339 0.459476 0.844062
O O4 0.066674 0.459997 0.689040
O O5 0.181177 0.501758 0.500893
O O6 0.079304 0.408838 0.368487
O O7 0.574792 0.412264 0.386331
O O8 0.413043 0.350937 0.451131
O O9 0.782046 0.342761 0.555902
O O10 0.573989 0.277533 0.389527
O O11 0.500000 0.669195 0.250000
O O12 0.248683 0.661682 0.036197
O O13 0.148436 0.684206 0.150374
O O14 0.358818 0.772293 0.130395
O O15 0.000000 0.311087 0.750000
#
# Coordination Sequence:
#
# PCOD9288478 Si02
#       7
#     8   8   8   8   8   8   8
#     4  10  24  40  66  94 118 174 210 246 322 366
#     4  11  23  43  64  95 129 159 210 262 307 377
#     4  10  22  39  62  89 122 162 201 258 307 359
#     4  10  22  39  60  88 121 161 207 252 309 371
#     4  11  23  43  64  95 129 159 210 262 307 377
#     4  10  22  39  62  89 122 162 201 258 307 359
#     4  10  22  39  60  88 121 161 207 252 309 371
#
# _framework density 24.076058
#
# number of rings (size 3 to 8) (size 9 to 14) (size 15 to 20)
#    0.000    1.714    1.429    1.714    6.000    1.143 
#    5.143    0.000    0.000    0.000    0.000    0.000 
#    0.000    0.000    0.000    0.000    0.000    0.000 
#
# Total GULP energy -156101.834171 kJ/mol
# GULP energy per Si atom -5575.065506 kJ/mol
# Density = 2.402126 g / cm^3
# Si number density = 24.076058 Si / 1000 Ang^3
#
#
#
# Elastic Constant Matrix: (Units=GPa)
#
#
# Indices 1 2 3 4 5 6 
#
# 1 90.1083 18.8536 48.7422 0.0000 -17.5569 0.0000
# 2 18.8536 86.4119 21.5680 0.0000 -8.8204 0.0000
# 3 48.7422 21.5680 171.2437 0.0000 -14.4405 0.0000
# 4 0.0000 0.0000 0.0000 9.1493 0.0000 -13.9307
# 5 -17.5569 -8.8204 -14.4405 0.0000 57.8485 0.0000
# 6 0.0000 0.0000 0.0000 -13.9307 0.0000 -1.9502
#
#
#
# Elastic Compliance Matrix: (Units=1/GPa)
#
#
# Indices 1 2 3 4 5 6 
#
# 1 0.013973 -0.001864 -0.003482 0.000000 0.003087 0.000000
# 2 -0.001864 0.012322 -0.000930 0.000000 0.001081 0.000000
# 3 -0.003482 -0.000930 0.006994 0.000000 0.000547 0.000000
# 4 0.000000 0.000000 0.000000 0.009203 0.000000 -0.065740
# 5 0.003087 0.001081 0.000547 0.000000 0.018525 0.000000
# 6 0.000000 0.000000 0.000000 -0.065740 0.000000 -0.043176
#
#
# Mechanical properties :
#
#
# Convention : Reuss Voigt Hill
#
# Bulk Modulus (GPa) = 48.22628 58.45460 53.34044
# Shear Modulus (GPa) = 134.02902 30.24952 82.13927
#
# Velocity S-wave (km/s) = 7.46926 3.54844 5.84728
# Velocity P-wave (km/s) = 9.71909 6.41252 8.23350
#
# Compressibility (1/GPa) = 0.02073558
#
# Stress axis : x y z
#
# Youngs Moduli (GPa) = 71.56699 81.15741 142.97887
#
# Poissons Ratio (x) = 0.15131 0.49786
# Poissons Ratio (y) = 0.13343 0.13298
# Poissons Ratio (z) = 0.24920 0.07548
#
# Static dielectric constant tensor:
#      x y z
#    x 1.926180 0.000000 0.071800 
#    y 0.000000 2.019770 0.000000 
#    z 0.071800 0.000000 1.931210 
# 
# From -- ./inp_files/137982.got.cif
#   From: 2010.05.17/outbox.cif.g08.bks.cpg/sg15_69_cif.got.tgz:137982.got - 2010.06.03 18:47:42.
