data_PCOD9288910
_publ_section_title
;
Structure prediction by ZEFSAII (Michael W. Deem and Ramdas Pophale) SiO2 
 PCOD9288910
Probable space group: C 2/C
;
_chemical_formula_sum "Si O2"
_cell_formula_units_Z 56
_cell_length_a 15.033684
_cell_length_b 13.151562
_cell_length_c 14.085448
_cell_angle_alpha 90.000000
_cell_angle_beta 126.735632
_cell_angle_gamma 90.000000
_cell_volume 2231.849120
_symmetry_space_group_name_H-M "C 2/C"
_symmetry_group_IT_number 15
_symmetry_cell_setting 'monoclinic'
loop_
_space_group_symop_operation_xyz
x,y,z
-x,y,1/2-z
-x,-y,-z
x,-y,1/2+z
1/2+x,1/2+y,z
1/2-x,1/2+y,1/2-z
1/2-x,1/2-y,-z
1/2+x,1/2-y,1/2+z
loop_
_atom_site_type_symbol
_atom_site_label
_atom_site_fract_x
_atom_site_fract_y
_atom_site_fract_z
Si Si1 0.599630 0.492675 0.874100
Si Si2 0.455591 0.841676 0.618241
Si Si3 0.990550 0.859526 0.020173
Si Si4 0.235861 0.121026 0.598585
Si Si5 0.757055 0.353982 0.385702
Si Si6 0.796941 0.806043 0.759388
Si Si7 0.138724 0.511030 0.183383
O O1 0.500000 0.445401 0.750000
O O2 0.557034 0.554056 0.940085
O O3 0.650398 0.579420 0.838200
O O4 0.692600 0.411918 0.967206
O O5 0.500000 0.819127 0.750000
O O6 0.484143 0.748043 0.568693
O O7 0.322895 0.845560 0.526162
O O8 0.518510 0.943211 0.624510
O O9 0.119035 0.877267 0.080284
O O10 0.914248 0.845397 0.877206
O O11 0.294617 0.226075 0.670056
O O12 0.311876 0.030268 0.686194
O O13 0.743078 0.253142 0.315924
O O14 0.843546 0.416659 0.374821
O O15 0.717177 0.900898 0.692335
#
# Coordination Sequence:
#
# PCOD9288910 Si02
#       7
#     8   8   8   8   8   8   8
#     4  12  24  38  65  99 139 167 215 267 327 386
#     4  11  23  38  66  96 129 163 210 273 332 383
#     4  11  23  39  68  98 129 167 218 273 328 378
#     4  11  23  42  65  98 129 175 212 266 331 382
#     4  10  25  40  61  96 128 173 213 265 321 383
#     4  10  22  39  67  92 124 166 220 264 321 377
#     4  11  21  41  65  89 130 168 213 263 323 392
#
# _framework density 25.091303
#
# number of rings (size 3 to 8) (size 9 to 14) (size 15 to 20)
#    0.000    1.143    2.857    3.857    4.000    1.143 
#    0.000    0.714    0.000    0.000    0.000    0.000 
#    0.000    0.000    0.000    0.000    0.000    0.000 
#
# Total GULP energy -156729.072102 kJ/mol
# GULP energy per Si atom -5597.466861 kJ/mol
# Density = 2.503419 g / cm^3
# Si number density = 25.091303 Si / 1000 Ang^3
#
#
#
# Elastic Constant Matrix: (Units=GPa)
#
#
# Indices 1 2 3 4 5 6 
#
# 1 46.1485 5.6441 8.4745 0.0000 -3.9682 0.0000
# 2 5.6441 91.9793 22.7773 0.0000 -12.7641 0.0000
# 3 8.4745 22.7773 131.6791 0.0000 17.2472 0.0000
# 4 0.0000 0.0000 0.0000 42.6723 0.0000 -10.5630
# 5 -3.9682 -12.7641 17.2472 0.0000 29.9192 0.0000
# 6 0.0000 0.0000 0.0000 -10.5630 0.0000 26.1456
#
#
#
# Elastic Compliance Matrix: (Units=1/GPa)
#
#
# Indices 1 2 3 4 5 6 
#
# 1 0.022396 -0.000365 -0.001890 0.000000 0.003904 0.000000
# 2 -0.000365 0.012652 -0.003100 0.000000 0.007136 0.000000
# 3 -0.001890 -0.003100 0.009149 0.000000 -0.006847 0.000000
# 4 0.000000 0.000000 0.000000 0.026038 0.000000 0.010520
# 5 0.003904 0.007136 -0.006847 0.000000 0.040933 0.000000
# 6 0.000000 0.000000 0.000000 0.010520 0.000000 0.042497
#
#
# Mechanical properties :
#
#
# Convention : Reuss Voigt Hill
#
# Bulk Modulus (GPa) = 29.86004 38.17764 34.01884
# Shear Modulus (GPa) = 28.48397 35.27482 31.87939
#
# Velocity S-wave (km/s) = 3.37295 3.75355 3.56832
# Velocity P-wave (km/s) = 5.20533 5.83387 5.52854
#
# Compressibility (1/GPa) = 0.03348957
#
# Stress axis : x y z
#
# Youngs Moduli (GPa) = 44.64986 79.03697 109.30359
#
# Poissons Ratio (x) = 0.02881 0.20655
# Poissons Ratio (y) = 0.01628 0.33882
# Poissons Ratio (z) = 0.08437 0.24500
#
# Static dielectric constant tensor:
#      x y z
#    x 1.953370 0.000000 -0.021190 
#    y 0.000000 1.967980 0.000000 
#    z -0.021190 0.000000 2.076770 
# 
# From -- ./inp_files/162314.got.cif
#   From: 2010.05.17/outbox.cif.g08.bks.cpg/sg15_82_cif.got.tgz:162314.got - 2010.06.03 18:47:42.
