data_PCOD9288348
_publ_section_title
;
Structure prediction by ZEFSAII (Michael W. Deem and Ramdas Pophale) SiO2 
 PCOD9288348
Probable space group: C 2/C
;
_chemical_formula_sum "Si O2"
_cell_formula_units_Z 48
_cell_length_a 16.323077
_cell_length_b 18.603794
_cell_length_c 10.966623
_cell_angle_alpha 90.000000
_cell_angle_beta 37.634446
_cell_angle_gamma 90.000000
_cell_volume 2033.520093
_symmetry_space_group_name_H-M "C 2/C"
_symmetry_group_IT_number 15
_symmetry_cell_setting 'monoclinic'
loop_
_space_group_symop_operation_xyz
x,y,z
-x,y,1/2-z
-x,-y,-z
x,-y,1/2+z
1/2+x,1/2+y,z
1/2-x,1/2+y,1/2-z
1/2-x,1/2-y,-z
1/2+x,1/2-y,1/2+z
loop_
_atom_site_type_symbol
_atom_site_label
_atom_site_fract_x
_atom_site_fract_y
_atom_site_fract_z
Si Si1 0.881220 0.706626 0.800844
Si Si2 0.744926 0.836669 0.264170
Si Si3 0.646305 0.072049 0.089943
Si Si4 0.087023 0.978322 0.773838
Si Si5 0.239771 0.194676 0.398142
Si Si6 0.043826 0.159633 0.442900
O O1 0.817706 0.645507 0.791411
O O2 0.951767 0.763675 0.627157
O O3 0.000000 0.684437 0.750000
O O4 0.750000 0.750000 0.000000
O O5 0.648538 0.869067 0.478600
O O6 0.767582 0.750923 0.256867
O O7 0.891651 0.865991 0.114096
O O8 0.500000 0.036830 0.250000
O O9 0.673790 0.124094 0.174420
O O10 0.776113 0.022289 0.914098
O O11 0.126484 0.896787 0.764802
O O12 0.000000 0.980184 0.750000
O O13 0.000000 0.000000 0.000000
O O14 0.250000 0.250000 0.500000
O O15 0.096500 0.165294 0.518977
#
# Coordination Sequence:
#
# PCOD9288348 Si02
#       6
#     8   8   8   8   8   8
#     4  11  22  38  62  98 141 180 227 290 377 460
#     4  10  22  38  69 102 142 181 235 313 380 447
#     4  11  25  43  69 104 144 189 245 319 376 438
#     4  12  26  48  77 104 144 205 265 307 364 463
#     4   9  22  38  67 105 144 182 240 304 382 445
#     4  11  22  41  69 102 137 189 244 297 370 449
#
# _framework density 23.604388
#
# number of rings (size 3 to 8) (size 9 to 14) (size 15 to 20)
#    0.000    1.333    3.333    1.500    7.000    1.333 
#    0.000    4.167    0.000    0.000    0.000    0.000 
#    0.000    0.000    0.000    0.000    0.000    0.000 
#
# Total GULP energy -133625.227946 kJ/mol
# GULP energy per Si atom -5567.717831 kJ/mol
# Density = 2.355066 g / cm^3
# Si number density = 23.604388 Si / 1000 Ang^3
#
#
#
# Elastic Constant Matrix: (Units=GPa)
#
#
# Indices 1 2 3 4 5 6 
#
# 1 223.7243 30.9403 61.7076 0.0000 -29.3471 -0.0001
# 2 30.9403 62.4956 10.7472 0.0000 -15.3767 0.0000
# 3 61.7076 10.7472 90.5267 0.0000 -24.6034 -0.0001
# 4 0.0000 0.0000 0.0000 23.4391 0.0000 0.8111
# 5 -29.3471 -15.3767 -24.6034 0.0000 39.7861 0.0001
# 6 -0.0001 0.0000 -0.0001 0.8111 0.0001 6.1958
#
#
#
# Elastic Compliance Matrix: (Units=1/GPa)
#
#
# Indices 1 2 3 4 5 6 
#
# 1 0.005862 -0.001958 -0.003359 0.000000 0.001491 0.000000
# 2 -0.001958 0.018343 0.000831 0.000000 0.006159 0.000000
# 3 -0.003359 0.000831 0.015207 0.000000 0.007248 0.000000
# 4 0.000000 0.000000 0.000000 0.042858 0.000000 -0.005610
# 5 0.001491 0.006159 0.007248 0.000000 0.033096 0.000000
# 6 0.000000 0.000000 0.000000 -0.005610 0.000000 0.162134
#
#
# Mechanical properties :
#
#
# Convention : Reuss Voigt Hill
#
# Bulk Modulus (GPa) = 32.85055 64.83745 48.84400
# Shear Modulus (GPa) = 16.85665 32.10764 24.48214
#
# Velocity S-wave (km/s) = 2.67522 3.69214 3.22403
# Velocity P-wave (km/s) = 4.84663 6.76047 5.88191
#
# Compressibility (1/GPa) = 0.03044089
#
# Stress axis : x y z
#
# Youngs Moduli (GPa) = 170.57638 54.51681 65.75933
#
# Poissons Ratio (x) = 0.10675 0.22086
# Poissons Ratio (y) = 0.33400 -0.05464
# Poissons Ratio (z) = 0.57290 -0.04530
#
# Static dielectric constant tensor:
#      x y z
#    x 2.064920 0.000000 -0.029940 
#    y 0.000000 2.025050 0.000000 
#    z -0.029940 0.000000 1.990810 
# 
# From -- ./inp_files/99986.got.cif
#   From: 2010.05.17/outbox.cif.g08.bks.cpg/sg15_50_cif.got.tgz:99986.got - 2010.06.03 18:47:42.
