data_PCOD9288136
_publ_section_title
;
Structure prediction by ZEFSAII (Michael W. Deem and Ramdas Pophale) SiO2 
 PCOD9288136
Probable space group: C 2/C
;
_chemical_formula_sum "Si O2"
_cell_formula_units_Z 56
_cell_length_a 19.724880
_cell_length_b 13.087726
_cell_length_c 10.586606
_cell_angle_alpha 90.000000
_cell_angle_beta 90.046065
_cell_angle_gamma 90.000000
_cell_volume 2732.971948
_symmetry_space_group_name_H-M "C 2/C"
_symmetry_group_IT_number 15
_symmetry_cell_setting 'monoclinic'
loop_
_space_group_symop_operation_xyz
x,y,z
-x,y,1/2-z
-x,-y,-z
x,-y,1/2+z
1/2+x,1/2+y,z
1/2-x,1/2+y,1/2-z
1/2-x,1/2-y,-z
1/2+x,1/2-y,1/2+z
loop_
_atom_site_type_symbol
_atom_site_label
_atom_site_fract_x
_atom_site_fract_y
_atom_site_fract_z
Si Si1 0.704887 0.073090 0.892722
Si Si2 0.177360 0.654261 0.424182
Si Si3 0.156528 0.940027 0.966953
Si Si4 0.545106 0.521347 0.123850
Si Si5 0.213174 0.865043 0.353519
Si Si6 0.092275 0.270323 0.383498
Si Si7 0.439770 0.761094 0.402509
O O1 0.738748 0.104844 0.760864
O O2 0.646724 0.150620 0.934175
O O3 0.674608 0.959995 0.872768
O O4 0.765917 0.077813 0.993831
O O5 0.186924 0.749940 0.330601
O O6 0.241590 0.645967 0.519486
O O7 0.112090 0.687065 0.503692
O O8 0.123149 0.843820 0.896365
O O9 0.159248 0.045136 0.885428
O O10 0.112612 0.956642 0.094681
O O11 0.500000 0.505000 0.250000
O O12 0.567151 0.639158 0.114097
O O13 0.500000 0.500000 0.000000
O O14 0.078053 0.298929 0.237782
O O15 0.017679 0.275936 0.442811
#
# Coordination Sequence:
#
# PCOD9288136 Si02
#       7
#     8   8   8   8   8   8   8
#     4  11  25  39  64  93 129 172 210 272 321 394
#     4  10  22  41  62  92 120 166 220 261 316 387
#     4  11  24  38  63  96 135 163 208 275 340 381
#     4  12  23  40  66 104 134 172 224 279 340 396
#     4  10  22  38  64  91 128 163 211 265 324 393
#     4  11  23  42  63  95 127 172 215 265 328 400
#     4  11  21  40  69  89 124 175 220 264 322 397
#
# _framework density 20.490514000000001
#
# number of rings (size 3 to 8) (size 9 to 14) (size 15 to 20)
#    0.000    1.143    5.714    0.429    6.000    0.571 
#    0.000    0.000    0.000    0.000    0.000    0.000 
#    0.000    0.000    0.000    0.000    0.000    0.000 
#
# Total GULP energy -156288.199830 kJ/mol
# GULP energy per Si atom -5581.721422 kJ/mol
# Density = 2.044388 g / cm^3
# Si number density = 20.490514 Si / 1000 Ang^3
#
#
#
# Elastic Constant Matrix: (Units=GPa)
#
#
# Indices 1 2 3 4 5 6 
#
# 1 115.3848 73.9816 13.8880 0.0000 -6.2373 0.0000
# 2 73.9816 124.0970 31.6826 0.0000 -23.5443 0.0000
# 3 13.8880 31.6826 52.2943 0.0000 -13.4344 0.0000
# 4 0.0000 0.0000 0.0000 12.2984 0.0000 -3.3232
# 5 -6.2373 -23.5443 -13.4344 0.0000 30.9253 0.0000
# 6 0.0000 0.0000 0.0000 -3.3232 0.0000 37.9089
#
#
#
# Elastic Compliance Matrix: (Units=1/GPa)
#
#
# Indices 1 2 3 4 5 6 
#
# 1 0.014536 -0.009675 0.000970 0.000000 -0.004012 0.000000
# 2 -0.009675 0.016827 -0.005443 0.000000 0.008495 0.000000
# 3 0.000970 -0.005443 0.023805 0.000000 0.006393 0.000000
# 4 0.000000 0.000000 0.000000 0.083284 0.000000 0.007301
# 5 -0.004012 0.008495 0.006393 0.000000 0.040772 0.000000
# 6 0.000000 0.000000 0.000000 0.007301 0.000000 0.027019
#
#
# Mechanical properties :
#
#
# Convention : Reuss Voigt Hill
#
# Bulk Modulus (GPa) = 37.21181 58.98675 48.09928
# Shear Modulus (GPa) = 20.53420 27.70810 24.12115
#
# Velocity S-wave (km/s) = 3.16908 3.68127 3.43474
# Velocity P-wave (km/s) = 5.62056 6.84973 6.26536
#
# Compressibility (1/GPa) = 0.02687319
#
# Stress axis : x y z
#
# Youngs Moduli (GPa) = 68.79349 59.42685 42.00819
#
# Poissons Ratio (x) = 0.57495 -0.04076
# Poissons Ratio (y) = 0.66557 0.22865
# Poissons Ratio (z) = -0.06675 0.32347
#
# Static dielectric constant tensor:
#      x y z
#    x 1.733240 0.000000 0.026070 
#    y 0.000000 1.761770 0.000000 
#    z 0.026070 0.000000 1.746910 
# 
# From -- ./inp_files/111047.got.cif
#   From: 2010.05.17/outbox.cif.g08.bks.cpg/sg15_56_cif.got.tgz:111047.got - 2010.06.03 18:47:42.
