data_PCOD9288621
_publ_section_title
;
Structure prediction by ZEFSAII (Michael W. Deem and Ramdas Pophale) SiO2 
 PCOD9288621
Probable space group: C 2/C
;
_chemical_formula_sum "Si O2"
_cell_formula_units_Z 36
_cell_length_a 23.784019
_cell_length_b 10.819673
_cell_length_c 12.364755
_cell_angle_alpha 90.000000
_cell_angle_beta 28.772351
_cell_angle_gamma 90.000000
_cell_volume 1531.540531
_symmetry_space_group_name_H-M "C 2/C"
_symmetry_group_IT_number 15
_symmetry_cell_setting 'monoclinic'
loop_
_space_group_symop_operation_xyz
x,y,z
-x,y,1/2-z
-x,-y,-z
x,-y,1/2+z
1/2+x,1/2+y,z
1/2-x,1/2+y,1/2-z
1/2-x,1/2-y,-z
1/2+x,1/2-y,1/2+z
loop_
_atom_site_type_symbol
_atom_site_label
_atom_site_fract_x
_atom_site_fract_y
_atom_site_fract_z
Si Si1 0.479076 0.853291 0.048683
Si Si2 0.286502 0.399243 0.973003
Si Si3 0.730162 0.823245 0.645101
Si Si4 0.500000 0.576836 0.250000
Si Si5 0.102742 0.855355 0.943744
O O1 0.343214 0.839964 0.310736
O O2 0.482166 0.758491 0.942344
O O3 0.596154 0.811063 0.912510
O O4 0.500000 0.000000 0.000000
O O5 0.389392 0.355278 0.881963
O O6 0.332698 0.400098 0.773396
O O7 0.258543 0.536063 0.064182
O O8 0.750000 0.750000 0.500000
O O9 0.813677 0.799673 0.605202
O O10 0.457575 0.479536 0.412469
#
# Coordination Sequence:
#
# PCOD9288621 Si02
#       5
#     8   8   8   4   8
#     4  10  22  40  61  93 128 162 212 267 323 384
#     4  10  22  39  62  94 125 163 213 270 323 377
#     4  10  23  41  63  91 126 171 214 260 323 394
#     4  10  22  40  64  92 124 170 216 260 318 398
#     4  11  22  40  63  89 124 169 214 263 324 389
#
# _framework density 23.505742999999999
#
# number of rings (size 3 to 8) (size 9 to 14) (size 15 to 20)
#    0.000    1.778    0.000    4.000    0.000    8.000 
#    0.000    8.889    0.000    0.000    0.000    0.000 
#    0.000    0.000    0.000    0.000    0.000    0.000 
#
# Total GULP energy -100363.366752 kJ/mol
# GULP energy per Si atom -5575.742597 kJ/mol
# Density = 2.345224 g / cm^3
# Si number density = 23.505743 Si / 1000 Ang^3
#
#
#
# Elastic Constant Matrix: (Units=GPa)
#
#
# Indices 1 2 3 4 5 6 
#
# 1 160.1099 43.4470 56.5933 0.0000 -30.1007 0.0000
# 2 43.4470 61.9912 7.1442 0.0000 -11.8574 0.0000
# 3 56.5933 7.1442 147.2996 0.0000 -18.9129 0.0000
# 4 0.0000 0.0000 0.0000 26.9096 0.0000 -0.7388
# 5 -30.1007 -11.8574 -18.9129 0.0000 47.5778 0.0000
# 6 0.0000 0.0000 0.0000 -0.7388 0.0000 45.4373
#
#
#
# Elastic Compliance Matrix: (Units=1/GPa)
#
#
# Indices 1 2 3 4 5 6 
#
# 1 0.009447 -0.005632 -0.002918 0.000000 0.003413 0.000000
# 2 -0.005632 0.020308 0.001445 0.000000 0.002073 0.000000
# 3 -0.002918 0.001445 0.008061 0.000000 0.001718 0.000000
# 4 0.000000 0.000000 0.000000 0.037178 0.000000 0.000605
# 5 0.003413 0.002073 0.001718 0.000000 0.024377 0.000000
# 6 0.000000 0.000000 0.000000 0.000605 0.000000 0.022018
#
#
# Mechanical properties :
#
#
# Convention : Reuss Voigt Hill
#
# Bulk Modulus (GPa) = 42.36261 64.86331 53.61296
# Shear Modulus (GPa) = 34.85083 41.46601 38.15842
#
# Velocity S-wave (km/s) = 3.85470 4.20465 4.03347
# Velocity P-wave (km/s) = 6.15410 7.15728 6.67457
#
# Compressibility (1/GPa) = 0.02360572
#
# Stress axis : x y z
#
# Youngs Moduli (GPa) = 105.85190 49.24068 124.06024
#
# Poissons Ratio (x) = 0.27732 0.36204
# Poissons Ratio (y) = 0.59615 -0.17926
# Poissons Ratio (z) = 0.30890 -0.07115
#
# Static dielectric constant tensor:
#      x y z
#    x 2.190540 0.000000 -0.086850 
#    y 0.000000 1.954990 0.000000 
#    z -0.086850 0.000000 2.010590 
# 
# From -- ./inp_files/84351.got.cif
#   From: 2010.05.17/outbox.cif.g08.bks.cpg/sg15_43_cif.got.tgz:84351.got - 2010.06.03 18:47:42.
