data_PCOD9288312
_publ_section_title
;
Structure prediction by ZEFSAII (Michael W. Deem and Ramdas Pophale) SiO2 
 PCOD9288312
Probable space group: C 2/C
;
_chemical_formula_sum "Si O2"
_cell_formula_units_Z 60
_cell_length_a 11.528318
_cell_length_b 27.299295
_cell_length_c 17.222229
_cell_angle_alpha 90.000000
_cell_angle_beta 150.728027
_cell_angle_gamma 90.000000
_cell_volume 2650.185960
_symmetry_space_group_name_H-M "C 2/C"
_symmetry_group_IT_number 15
_symmetry_cell_setting 'monoclinic'
loop_
_space_group_symop_operation_xyz
x,y,z
-x,y,1/2-z
-x,-y,-z
x,-y,1/2+z
1/2+x,1/2+y,z
1/2-x,1/2+y,1/2-z
1/2-x,1/2-y,-z
1/2+x,1/2-y,1/2+z
loop_
_atom_site_type_symbol
_atom_site_label
_atom_site_fract_x
_atom_site_fract_y
_atom_site_fract_z
Si Si1 0.000000 0.666959 0.250000
Si Si2 0.008405 0.484248 0.097145
Si Si3 0.229151 0.300364 0.438770
Si Si4 0.462682 0.270337 0.015519
Si Si5 0.786955 0.912365 0.184372
Si Si6 0.880893 0.098604 0.097072
Si Si7 0.810440 0.194207 0.707739
Si Si8 0.109589 0.410038 0.679004
O O1 0.780052 0.702709 0.102731
O O2 0.950908 0.631205 0.293850
O O3 0.241330 0.450813 0.225613
O O4 0.034896 0.534400 0.158998
O O5 0.000000 0.500000 0.000000
O O6 0.794870 0.448483 0.998120
O O7 0.250000 0.250000 0.500000
O O8 0.442123 0.299899 0.501793
O O9 0.243683 0.351487 0.493692
O O10 0.000000 0.298209 0.250000
O O11 0.427295 0.214616 0.968218
O O12 0.632934 0.271155 0.187884
O O13 0.829851 0.860444 0.248749
O O14 0.000000 0.925876 0.250000
O O15 0.556363 0.902385 0.994769
O O16 0.000000 0.106169 0.250000
O O17 0.110723 0.089742 0.176972
O O18 0.000000 0.196915 0.750000
#
# Coordination Sequence:
#
# PCOD9288312 Si02
#       8
#     4   8   8   8   8   8   8   8
#     4  12  24  48  66 104 144 186 238 296 366 436
#     4  10  23  40  70 104 139 183 241 309 357 436
#     4  12  29  50  72 108 153 199 247 302 375 451
#     4  12  26  43  72  97 149 187 238 295 359 437
#     4  10  22  38  68 103 138 177 243 300 360 420
#     4  12  24  47  77 108 142 197 252 306 371 435
#     4  11  24  41  66 105 136 183 233 293 357 432
#     4  11  25  44  71 101 142 190 241 303 365 436
#
# _framework density 22.639921000000001
#
# number of rings (size 3 to 8) (size 9 to 14) (size 15 to 20)
#    0.000    0.800    4.667    3.200    9.333    1.067 
#    1.200    0.667    0.000    0.000    0.000    0.000 
#    0.000    0.000    0.000    0.000    0.000    0.000 
#
# Total GULP energy -167578.801460 kJ/mol
# GULP energy per Si atom -5585.960049 kJ/mol
# Density = 2.258839 g / cm^3
# Si number density = 22.639921 Si / 1000 Ang^3
#
#
#
# Elastic Constant Matrix: (Units=GPa)
#
#
# Indices 1 2 3 4 5 6 
#
# 1 68.6730 25.1350 11.7003 -0.0003 21.2491 0.0002
# 2 25.1350 132.9243 38.0188 0.0000 5.2960 -0.0001
# 3 11.7003 38.0188 72.3680 0.0008 9.4349 0.0012
# 4 -0.0003 0.0000 0.0008 21.6679 -0.0002 -4.8634
# 5 21.2491 5.2960 9.4349 -0.0002 34.1313 0.0001
# 6 0.0002 -0.0001 0.0012 -4.8634 0.0001 5.1492
#
#
#
# Elastic Compliance Matrix: (Units=1/GPa)
#
#
# Indices 1 2 3 4 5 6 
#
# 1 0.019293 -0.003209 0.000070 0.000000 -0.011533 0.000000
# 2 -0.003209 0.009387 -0.004651 0.000001 0.001827 0.000002
# 3 0.000070 -0.004651 0.016766 -0.000002 -0.003957 -0.000006
# 4 0.000000 0.000001 -0.000002 0.058567 0.000001 0.055317
# 5 -0.011533 0.001827 -0.003957 0.000001 0.037289 0.000001
# 6 0.000000 0.000002 -0.000006 0.055317 0.000001 0.246450
#
#
# Mechanical properties :
#
#
# Convention : Reuss Voigt Hill
#
# Bulk Modulus (GPa) = 33.48192 47.07482 40.27837
# Shear Modulus (GPa) = 12.09814 25.46376 18.78095
#
# Velocity S-wave (km/s) = 2.31416 3.35734 2.88332
# Velocity P-wave (km/s) = 4.68630 5.98890 5.37719
#
# Compressibility (1/GPa) = 0.02986687
#
# Stress axis : x y z
#
# Youngs Moduli (GPa) = 51.83312 106.52672 59.64370
#
# Poissons Ratio (x) = 0.34181 -0.00418
# Poissons Ratio (y) = 0.16631 0.27741
# Poissons Ratio (z) = -0.00363 0.49546
#
# Static dielectric constant tensor:
#      x y z
#    x 2.272990 0.000000 -0.296720 
#    y 0.000000 1.971480 0.000000 
#    z -0.296720 0.000000 2.191780 
# 
# From -- ./inp_files/201410.got.cif
#   From: 2010.05.17/outbox.cif.g08.bks.cpg/sg15_101_cif.got.tgz:201410.got - 2010.06.03 18:47:42.
