data_PCOD9288252
_publ_section_title
;
Structure prediction by ZEFSAII (Michael W. Deem and Ramdas Pophale) SiO2 
 PCOD9288252
Probable space group: C 2/C
;
_chemical_formula_sum "Si O2"
_cell_formula_units_Z 44
_cell_length_a 21.560142
_cell_length_b 4.921537
_cell_length_c 18.687005
_cell_angle_alpha 90.000000
_cell_angle_beta 102.167463
_cell_angle_gamma 90.000000
_cell_volume 1938.316619
_symmetry_space_group_name_H-M "C 2/C"
_symmetry_group_IT_number 15
_symmetry_cell_setting 'monoclinic'
loop_
_space_group_symop_operation_xyz
x,y,z
-x,y,1/2-z
-x,-y,-z
x,-y,1/2+z
1/2+x,1/2+y,z
1/2-x,1/2+y,1/2-z
1/2-x,1/2-y,-z
1/2+x,1/2-y,1/2+z
loop_
_atom_site_type_symbol
_atom_site_label
_atom_site_fract_x
_atom_site_fract_y
_atom_site_fract_z
Si Si1 0.289771 0.471856 0.756725
Si Si2 0.113474 0.211089 0.099192
Si Si3 0.500000 0.553357 0.250000
Si Si4 0.886176 0.274748 0.556812
Si Si5 0.874142 0.237959 0.148472
Si Si6 0.032105 0.726485 0.115609
O O1 0.273396 0.788820 0.752496
O O2 0.333557 0.395404 0.834192
O O3 0.324802 0.374332 0.693791
O O4 0.074695 0.458924 0.124376
O O5 0.065367 0.959207 0.076347
O O6 0.140090 0.303122 0.029117
O O7 0.442901 0.730042 0.203773
O O8 0.526001 0.362555 0.192621
O O9 0.858713 0.473670 0.610383
O O10 0.961488 0.339554 0.571955
O O11 0.878963 0.972040 0.584238
#
# Coordination Sequence:
#
# PCOD9288252 Si02
#       6
#     8   8   4   8   8   8
#     4  12  27  47  68  93 127 179 232 273 310 380
#     4  12  24  43  65  96 136 174 219 266 327 388
#     4  10  22  38  66 106 130 172 206 278 326 396
#     4  11  24  40  66 102 136 169 208 269 339 401
#     4  11  24  43  67  97 137 169 221 265 332 386
#     4  11  22  36  67  99 139 169 208 259 341 399
#
# _framework density 22.700109000000001
#
# number of rings (size 3 to 8) (size 9 to 14) (size 15 to 20)
#    0.000    0.727    1.818    6.545    5.091    1.455 
#    0.000    5.455    0.000    0.000    0.000    0.000 
#    0.000    0.000    0.000    0.000    0.000    0.000 
#
# Total GULP energy -123292.744007 kJ/mol
# GULP energy per Si atom -5604.215637 kJ/mol
# Density = 2.264844 g / cm^3
# Si number density = 22.700109 Si / 1000 Ang^3
#
#
#
# Elastic Constant Matrix: (Units=GPa)
#
#
# Indices 1 2 3 4 5 6 
#
# 1 36.0806 -10.3714 9.9186 0.0000 -10.6933 0.0000
# 2 -10.3714 66.3411 -15.4687 0.0000 1.6315 0.0000
# 3 9.9186 -15.4687 97.1616 0.0000 -11.8399 0.0000
# 4 0.0000 0.0000 0.0000 22.2433 0.0000 -12.2832
# 5 -10.6933 1.6315 -11.8399 0.0000 20.7061 0.0000
# 6 0.0000 0.0000 0.0000 -12.2832 0.0000 36.3184
#
#
#
# Elastic Compliance Matrix: (Units=1/GPa)
#
#
# Indices 1 2 3 4 5 6 
#
# 1 0.034301 0.004789 -0.000674 0.000000 0.016952 0.000000
# 2 0.004789 0.016324 0.002424 0.000000 0.002573 0.000000
# 3 -0.000674 0.002424 0.011481 0.000000 0.006026 0.000000
# 4 0.000000 0.000000 0.000000 0.055282 0.000000 0.018697
# 5 0.016952 0.002573 0.006026 0.000000 0.060293 0.000000
# 6 0.000000 0.000000 0.000000 0.018697 0.000000 0.033858
#
#
# Mechanical properties :
#
#
# Convention : Reuss Voigt Hill
#
# Bulk Modulus (GPa) = 13.30077 18.63781 15.96929
# Shear Modulus (GPa) = 22.36909 30.22056 26.29482
#
# Velocity S-wave (km/s) = 3.14254 3.65265 3.40716
# Velocity P-wave (km/s) = 4.36343 5.10073 4.74641
#
# Compressibility (1/GPa) = 0.07518362
#
# Stress axis : x y z
#
# Youngs Moduli (GPa) = 29.15335 61.25927 87.09988
#
# Poissons Ratio (x) = -0.29334 0.05866
# Poissons Ratio (y) = -0.13960 -0.21109
# Poissons Ratio (z) = 0.01964 -0.14846
#
# Static dielectric constant tensor:
#      x y z
#    x 1.853470 0.000000 -0.017250 
#    y 0.000000 1.804750 0.000000 
#    z -0.017250 0.000000 1.823320 
# 
# From -- ./inp_files/212826.got.cif
#   From: 2010.05.17/outbox.cif.g08.bks.cpg/sg15_107_cif.got.tgz:212826.got - 2010.06.03 18:47:42.
