data_PCOD9288605
_publ_section_title
;
Structure prediction by ZEFSAII (Michael W. Deem and Ramdas Pophale) SiO2 
 PCOD9288605
Probable space group: C 2/C
;
_chemical_formula_sum "Si O2"
_cell_formula_units_Z 56
_cell_length_a 25.929463
_cell_length_b 18.930138
_cell_length_c 10.556012
_cell_angle_alpha 90.000000
_cell_angle_beta 27.401528
_cell_angle_gamma 90.000000
_cell_volume 2384.602156
_symmetry_space_group_name_H-M "C 2/C"
_symmetry_group_IT_number 15
_symmetry_cell_setting 'monoclinic'
loop_
_space_group_symop_operation_xyz
x,y,z
-x,y,1/2-z
-x,-y,-z
x,-y,1/2+z
1/2+x,1/2+y,z
1/2-x,1/2+y,1/2-z
1/2-x,1/2-y,-z
1/2+x,1/2-y,1/2+z
loop_
_atom_site_type_symbol
_atom_site_label
_atom_site_fract_x
_atom_site_fract_y
_atom_site_fract_z
Si Si1 0.343308 0.334360 0.183567
Si Si2 0.738550 0.058250 0.219381
Si Si3 0.740499 0.319894 0.397035
Si Si4 0.791845 0.047011 0.376536
Si Si5 0.062392 0.267281 0.427572
Si Si6 0.529951 0.387746 0.370839
Si Si7 0.619434 0.825776 0.841550
O O1 0.310753 0.356050 0.114283
O O2 0.430572 0.383214 0.067826
O O3 0.383944 0.252933 0.091785
O O4 0.231942 0.332273 0.511890
O O5 0.736535 0.026589 0.364072
O O6 0.639969 0.113678 0.400867
O O7 0.860445 0.096137 0.949542
O O8 0.750555 0.003635 0.078168
O O9 0.745897 0.375075 0.499384
O O10 0.866509 0.292729 0.106854
O O11 0.656986 0.257711 0.619830
O O12 0.927103 0.058565 0.077675
O O13 0.001834 0.193409 0.587735
O O14 0.983224 0.324078 0.532875
#
# Coordination Sequence:
#
# PCOD9288605 Si02
#       7
#     8   8   8   8   8   8   8
#     4   9  19  37  61  92 125 160 195 268 315 390
#     4  11  24  42  63  89 128 169 217 260 308 385
#     4  10  22  39  62  91 131 156 212 260 326 369
#     4  11  25  41  62  89 127 174 210 264 312 371
#     4   9  20  39  59  98 121 161 200 273 316 389
#     4   9  20  39  63  94 122 158 210 260 331 377
#     4   9  20  37  61  90 121 164 209 247 326 371
#
# _framework density 23.484000000000002
#
# number of rings (size 3 to 8) (size 9 to 14) (size 15 to 20)
#    0.000    2.286    0.000    1.714   10.000    5.714 
#    7.714    0.714    0.000    0.000    0.000    0.000 
#    0.000    0.000    0.000    0.000    0.000    0.000 
#
# Total GULP energy -156445.649720 kJ/mol
# GULP energy per Si atom -5587.344633 kJ/mol
# Density = 2.343055 g / cm^3
# Si number density = 23.484000 Si / 1000 Ang^3
#
#
#
# Elastic Constant Matrix: (Units=GPa)
#
#
# Indices 1 2 3 4 5 6 
#
# 1 166.5458 40.5128 23.8746 0.0000 5.0412 0.0000
# 2 40.5128 69.9612 22.7716 0.0000 -12.7154 0.0000
# 3 23.8746 22.7716 34.0667 0.0000 -5.5035 0.0000
# 4 0.0000 0.0000 0.0000 23.3281 0.0000 -2.5774
# 5 5.0412 -12.7154 -5.5035 0.0000 24.5235 0.0000
# 6 0.0000 0.0000 0.0000 -2.5774 0.0000 29.5338
#
#
#
# Elastic Compliance Matrix: (Units=1/GPa)
#
#
# Indices 1 2 3 4 5 6 
#
# 1 0.007621 -0.004154 -0.003284 0.000000 -0.004457 0.000000
# 2 -0.004154 0.021764 -0.010039 0.000000 0.009885 0.000000
# 3 -0.003284 -0.010039 0.039050 0.000000 0.004233 0.000000
# 4 0.000000 0.000000 0.000000 0.043284 0.000000 0.003777
# 5 -0.004457 0.009885 0.004233 0.000000 0.047769 0.000000
# 6 0.000000 0.000000 0.000000 0.003777 0.000000 0.034189
#
#
# Mechanical properties :
#
#
# Convention : Reuss Voigt Hill
#
# Bulk Modulus (GPa) = 29.86905 49.43239 39.65072
# Shear Modulus (GPa) = 20.85144 27.70471 24.27807
#
# Velocity S-wave (km/s) = 2.98300 3.43844 3.21878
# Velocity P-wave (km/s) = 4.96093 6.07116 5.54391
#
# Compressibility (1/GPa) = 0.03347947
#
# Stress axis : x y z
#
# Youngs Moduli (GPa) = 131.22443 45.94834 25.60799
#
# Poissons Ratio (x) = 0.19087 0.08409
# Poissons Ratio (y) = 0.54512 0.25709
# Poissons Ratio (z) = 0.43093 0.46130
#
# Static dielectric constant tensor:
#      x y z
#    x 1.971890 0.000000 -0.025640 
#    y 0.000000 1.886660 0.000000 
#    z -0.025640 0.000000 1.909730 
# 
# From -- ./inp_files/124150.got.cif
#   From: 2010.05.17/outbox.cif.g08.bks.cpg/sg15_63_cif.got.tgz:124150.got - 2010.06.03 18:47:42.
