data_PCOD9288275
_publ_section_title
;
Structure prediction by ZEFSAII (Michael W. Deem and Ramdas Pophale) SiO2 
 PCOD9288275
Probable space group: C 2/C
;
_chemical_formula_sum "Si O2"
_cell_formula_units_Z 40
_cell_length_a 11.711673
_cell_length_b 21.430210
_cell_length_c 11.762971
_cell_angle_alpha 90.000000
_cell_angle_beta 40.183755
_cell_angle_gamma 90.000000
_cell_volume 1904.953665
_symmetry_space_group_name_H-M "C 2/C"
_symmetry_group_IT_number 15
_symmetry_cell_setting 'monoclinic'
loop_
_space_group_symop_operation_xyz
x,y,z
-x,y,1/2-z
-x,-y,-z
x,-y,1/2+z
1/2+x,1/2+y,z
1/2-x,1/2+y,1/2-z
1/2-x,1/2-y,-z
1/2+x,1/2-y,1/2+z
loop_
_atom_site_type_symbol
_atom_site_label
_atom_site_fract_x
_atom_site_fract_y
_atom_site_fract_z
Si Si1 0.190522 0.269603 0.919752
Si Si2 0.038582 0.839394 0.945385
Si Si3 0.452426 0.100148 0.963293
Si Si4 0.276477 0.556871 0.576953
Si Si5 0.180875 0.580623 0.182675
O O1 0.352607 0.303284 0.734419
O O2 0.250000 0.250000 0.000000
O O3 0.046181 0.324765 0.037804
O O4 0.114127 0.210186 0.910597
O O5 0.182774 0.861681 0.927356
O O6 0.950698 0.902658 0.964476
O O7 0.640728 0.073733 0.782122
O O8 0.316818 0.079470 0.967815
O O9 0.383105 0.077527 0.137457
O O10 0.283130 0.482337 0.570098
O O11 0.000000 0.586804 0.250000
#
# Coordination Sequence:
#
# PCOD9288275 Si02
#       5
#     8   8   8   8   8
#     4  11  21  36  62  96 131 159 217 279 334 379
#     4  11  24  39  63  98 128 172 216 270 338 387
#     4  10  22  38  66  97 132 167 216 274 335 384
#     4  11  21  39  66  97 131 166 217 278 336 383
#     4  11  24  42  63  94 139 179 219 261 326 405
#
# _framework density 20.997886000000001
#
# number of rings (size 3 to 8) (size 9 to 14) (size 15 to 20)
#    0.000    1.200    4.000    3.000    5.600    0.000 
#    0.000    5.000    0.000    0.000    0.000    0.000 
#    0.000    0.000    0.000    0.000    0.000    0.000 
#
# Total GULP energy -111757.725858 kJ/mol
# GULP energy per Si atom -5587.886293 kJ/mol
# Density = 2.095009 g / cm^3
# Si number density = 20.997886 Si / 1000 Ang^3
#
#
#
# Elastic Constant Matrix: (Units=GPa)
#
#
# Indices 1 2 3 4 5 6 
#
# 1 83.6658 66.8747 28.3020 0.0001 -14.6905 -0.0002
# 2 66.8747 137.6483 16.9068 0.0000 -13.0433 0.0000
# 3 28.3020 16.9068 52.6708 0.0000 -12.6622 -0.0001
# 4 0.0001 0.0000 0.0000 40.5105 0.0000 -4.6032
# 5 -14.6905 -13.0433 -12.6622 0.0000 27.3855 0.0001
# 6 -0.0002 0.0000 -0.0001 -4.6032 0.0001 5.0588
#
#
#
# Elastic Compliance Matrix: (Units=1/GPa)
#
#
# Indices 1 2 3 4 5 6 
#
# 1 0.023508 -0.010008 -0.008476 0.000000 0.003925 0.000001
# 2 -0.010008 0.012018 0.001806 0.000000 0.001190 0.000000
# 3 -0.008476 0.001806 0.024835 0.000000 0.007796 0.000000
# 4 0.000000 0.000000 0.000000 0.027532 0.000000 0.025052
# 5 0.003925 0.001190 0.007796 0.000000 0.042793 0.000000
# 6 0.000001 0.000000 0.000000 0.025052 0.000000 0.220469
#
#
# Mechanical properties :
#
#
# Convention : Reuss Voigt Hill
#
# Bulk Modulus (GPa) = 37.02926 55.35022 46.18974
# Shear Modulus (GPa) = 12.70609 25.38440 19.04524
#
# Velocity S-wave (km/s) = 2.46257 3.48070 3.01492
# Velocity P-wave (km/s) = 5.07531 6.52463 5.84506
#
# Compressibility (1/GPa) = 0.02700567
#
# Stress axis : x y z
#
# Youngs Moduli (GPa) = 42.53818 83.20697 40.26630
#
# Poissons Ratio (x) = 0.83276 0.34129
# Poissons Ratio (y) = 0.42573 -0.07273
# Poissons Ratio (z) = 0.36054 -0.15029
#
# Static dielectric constant tensor:
#      x y z
#    x 1.740130 0.000000 -0.055310 
#    y 0.000000 1.802200 0.000000 
#    z -0.055310 0.000000 1.810090 
# 
# From -- ./inp_files/30520.got.cif
#   From: 2010.05.17/outbox.cif.g08.bks.cpg/sg15_16_cif.got.tgz:30520.got - 2010.06.03 18:47:42.
