data_PCOD9288786
_publ_section_title
;
Structure prediction by ZEFSAII (Michael W. Deem and Ramdas Pophale) SiO2 
 PCOD9288786
Probable space group: C 2/C
;
_chemical_formula_sum "Si O2"
_cell_formula_units_Z 48
_cell_length_a 33.137307
_cell_length_b 16.841665
_cell_length_c 16.728713
_cell_angle_alpha 90.000000
_cell_angle_beta 16.317453
_cell_angle_gamma 90.000000
_cell_volume 2623.057520
_symmetry_space_group_name_H-M "C 2/C"
_symmetry_group_IT_number 15
_symmetry_cell_setting 'monoclinic'
loop_
_space_group_symop_operation_xyz
x,y,z
-x,y,1/2-z
-x,-y,-z
x,-y,1/2+z
1/2+x,1/2+y,z
1/2-x,1/2+y,1/2-z
1/2-x,1/2-y,-z
1/2+x,1/2-y,1/2+z
loop_
_atom_site_type_symbol
_atom_site_label
_atom_site_fract_x
_atom_site_fract_y
_atom_site_fract_z
Si Si1 0.826619 0.582714 0.667466
Si Si2 0.666039 0.051139 0.027394
Si Si3 0.318342 0.576893 0.017590
Si Si4 0.846973 0.731119 0.739412
Si Si5 0.646997 0.398412 0.862458
Si Si6 0.835769 0.669442 0.325344
O O1 0.795927 0.589157 0.631158
O O2 0.799910 0.663093 0.766352
O O3 0.991781 0.551438 0.360578
O O4 0.731503 0.513437 0.884511
O O5 0.705140 0.107271 0.026922
O O6 0.745692 0.965690 0.877250
O O7 0.479869 0.577273 0.677273
O O8 0.317357 0.607667 0.110865
O O9 0.211878 0.628516 0.166120
O O10 0.850406 0.813740 0.685113
O O11 0.999032 0.695934 0.480937
O O12 0.750000 0.750000 0.000000
O O13 0.750000 0.750000 0.500000
#
# Coordination Sequence:
#
# PCOD9288786 Si02
#       6
#     8   8   8   8   8   8
#     4   9  21  41  62  86 116 162 195 241 295 362
#     4   9  21  38  65  85 119 156 202 238 301 352
#     4  10  22  39  65  86 120 156 202 240 302 351
#     4  11  25  39  60  89 123 154 200 248 299 345
#     4  10  22  41  62  88 120 159 194 249 298 355
#     4  11  23  39  61  91 118 158 201 245 292 358
#
# _framework density 18.299256
#
# number of rings (size 3 to 8) (size 9 to 14) (size 15 to 20)
#    0.000    2.000    1.667    0.000    7.000    4.667 
#    0.000    0.000    0.000    0.000    0.000    0.000 
#    0.000    0.000    0.000    0.000    0.000    0.000 
#
# Total GULP energy -133844.562943 kJ/mol
# GULP energy per Si atom -5576.856789 kJ/mol
# Density = 1.825761 g / cm^3
# Si number density = 18.299256 Si / 1000 Ang^3
#
#
#
# Elastic Constant Matrix: (Units=GPa)
#
#
# Indices 1 2 3 4 5 6 
#
# 1 96.0094 89.4007 51.0235 0.0000 -6.4389 -0.0002
# 2 89.4007 157.5508 94.4588 -0.0002 17.4264 -0.0001
# 3 51.0235 94.4588 75.6663 0.0001 19.6544 -0.0002
# 4 0.0000 -0.0002 0.0001 33.3357 0.0001 -3.9718
# 5 -6.4389 17.4264 19.6544 0.0001 17.3742 0.0002
# 6 -0.0002 -0.0001 -0.0002 -3.9718 0.0002 28.7972
#
#
#
# Elastic Compliance Matrix: (Units=1/GPa)
#
#
# Indices 1 2 3 4 5 6 
#
# 1 0.041250 -0.016603 -0.021788 0.000000 0.056588 0.000000
# 2 -0.016603 0.034842 -0.030621 0.000000 -0.006460 0.000000
# 3 -0.021788 -0.030621 0.085326 0.000000 -0.073886 0.000001
# 4 0.000000 0.000000 0.000000 0.030499 0.000000 0.004207
# 5 0.056588 -0.006460 -0.073886 0.000000 0.168590 -0.000001
# 6 0.000000 0.000000 0.000001 0.004207 -0.000001 0.035306
#
#
# Mechanical properties :
#
#
# Convention : Reuss Voigt Hill
#
# Bulk Modulus (GPa) = 42.74684 88.77694 65.76189
# Shear Modulus (GPa) = 9.23131 22.19099 15.71115
#
# Velocity S-wave (km/s) = 2.24846 3.48612 2.93331
# Velocity P-wave (km/s) = 5.49103 8.05129 6.89111
#
# Compressibility (1/GPa) = 0.02339354
#
# Stress axis : x y z
#
# Youngs Moduli (GPa) = 24.24242 28.70106 11.71975
#
# Poissons Ratio (x) = 0.47653 0.25534
# Poissons Ratio (y) = 0.40251 0.35887
# Poissons Ratio (z) = 0.52818 0.87886
#
# Static dielectric constant tensor:
#      x y z
#    x 1.520630 0.000000 0.163520 
#    y 0.000000 1.584370 0.000000 
#    z 0.163520 0.000000 1.409370 
# 
# From -- ./inp_files/182450.got.cif
#   From: 2010.05.17/outbox.cif.g08.bks.cpg/sg15_92_cif.got.tgz:182450.got - 2010.06.03 18:47:42.
