data_PCOD9288046
_publ_section_title
;
Structure prediction by ZEFSAII (Michael W. Deem and Ramdas Pophale) SiO2 
 PCOD9288046
Probable space group: C 2/C
;
_chemical_formula_sum "Si O2"
_cell_formula_units_Z 52
_cell_length_a 17.227983
_cell_length_b 15.208033
_cell_length_c 15.187126
_cell_angle_alpha 90.000000
_cell_angle_beta 140.520924
_cell_angle_gamma 90.000000
_cell_volume 2529.887050
_symmetry_space_group_name_H-M "C 2/C"
_symmetry_group_IT_number 15
_symmetry_cell_setting 'monoclinic'
loop_
_space_group_symop_operation_xyz
x,y,z
-x,y,1/2-z
-x,-y,-z
x,-y,1/2+z
1/2+x,1/2+y,z
1/2-x,1/2+y,1/2-z
1/2-x,1/2-y,-z
1/2+x,1/2-y,1/2+z
loop_
_atom_site_type_symbol
_atom_site_label
_atom_site_fract_x
_atom_site_fract_y
_atom_site_fract_z
Si Si1 0.244214 0.827528 0.564420
Si Si2 0.851823 0.014878 0.035201
Si Si3 0.293178 0.204105 0.299902
Si Si4 0.530656 0.913991 0.974417
Si Si5 0.500000 0.915192 0.750000
Si Si6 0.868379 0.055022 0.250818
Si Si7 0.229066 0.097860 0.706969
O O1 0.250000 0.750000 0.500000
O O2 0.151433 0.908382 0.469195
O O3 0.228455 0.792668 0.648236
O O4 0.379520 0.865546 0.674763
O O5 0.824575 0.038756 0.112198
O O6 0.983974 0.055399 0.126073
O O7 0.760059 0.050083 0.878969
O O8 0.421573 0.154473 0.396425
O O9 0.320051 0.303689 0.353652
O O10 0.203686 0.141461 0.278786
O O11 0.543833 0.947148 0.884902
O O12 0.652211 0.883734 0.130045
O O13 0.500000 0.000000 0.000000
O O14 0.841012 0.973828 0.293564
#
# Coordination Sequence:
#
# PCOD9288046 Si02
#       7
#     8   8   8   8   4   8   8
#     4  11  22  40  65 103 131 172 223 273 343 399
#     4  11  25  43  70  95 138 183 219 280 345 399
#     4  11  25  40  67  99 136 176 227 281 337 405
#     4  11  22  42  64  98 131 174 226 276 342 402
#     4  10  22  38  62  92 138 162 212 286 328 396
#     4  11  24  46  66  99 139 174 229 281 340 414
#     4  12  24  43  70  97 135 181 224 281 345 402
#
# _framework density 20.554278
#
# number of rings (size 3 to 8) (size 9 to 14) (size 15 to 20)
#    0.000    0.923    3.077    4.154    2.154    4.308 
#    0.000    0.000    0.000    0.000    0.000    0.000 
#    0.000    0.000    0.000    0.000    0.000    0.000 
#
# Total GULP energy -144799.136953 kJ/mol
# GULP energy per Si atom -5569.197575 kJ/mol
# Density = 2.050750 g / cm^3
# Si number density = 20.554278 Si / 1000 Ang^3
#
#
#
# Elastic Constant Matrix: (Units=GPa)
#
#
# Indices 1 2 3 4 5 6 
#
# 1 79.2666 46.5435 38.0969 0.0000 -26.1932 0.0000
# 2 46.5435 129.0297 23.6805 0.0000 -29.8659 0.0000
# 3 38.0969 23.6805 104.4428 0.0000 -33.1773 0.0000
# 4 0.0000 0.0000 0.0000 -343.9044 0.0000 9.8676
# 5 -26.1932 -29.8659 -33.1773 0.0000 46.4160 0.0000
# 6 0.0000 0.0000 0.0000 9.8676 0.0000 31.6399
#
#
#
# Elastic Compliance Matrix: (Units=1/GPa)
#
#
# Indices 1 2 3 4 5 6 
#
# 1 0.019193 -0.005094 -0.004459 0.000000 0.004366 0.000000
# 2 -0.005094 0.010464 0.000920 0.000000 0.004516 0.000000
# 3 -0.004459 0.000920 0.013431 0.000000 0.007676 0.000000
# 4 0.000000 0.000000 0.000000 -0.002882 0.000000 0.000899
# 5 0.004366 0.004516 0.007676 0.000000 0.032400 0.000000
# 6 0.000000 0.000000 0.000000 0.000899 0.000000 0.031325
#
#
# Mechanical properties :
#
#
# Convention : Reuss Voigt Hill
#
# Bulk Modulus (GPa) = 38.72745 58.82010 48.77377
# Shear Modulus (GPa) = 38.51954 -39.54182 -0.51114
#
# Velocity S-wave (km/s) = 4.33371 -4.39085 -0.49922
# Velocity P-wave (km/s) = 6.62751 1.72426 4.84236
#
# Compressibility (1/GPa) = 0.02582148
#
# Stress axis : x y z
#
# Youngs Moduli (GPa) = 52.10364 95.56409 74.45593
#
# Poissons Ratio (x) = 0.48683 0.33199
# Poissons Ratio (y) = 0.26543 -0.06852
# Poissons Ratio (z) = 0.23233 -0.08794
#
# Static dielectric constant tensor:
#      x y z
#    x 1.719740 0.000000 -0.044500 
#    y 0.000000 1.522260 0.000000 
#    z -0.044500 0.000000 1.906070 
# 
# From -- ./inp_files/162626.got.cif
#   From: 2010.05.17/outbox.cif.g08.bks.cpg/sg15_82_cif.got.tgz:162626.got - 2010.06.03 18:47:42.
