data_PCOD9288306
_publ_section_title
;
Structure prediction by ZEFSAII (Michael W. Deem and Ramdas Pophale) SiO2 
 PCOD9288306
Probable space group: C 2/C
;
_chemical_formula_sum "Si O2"
_cell_formula_units_Z 52
_cell_length_a 17.395804
_cell_length_b 5.933015
_cell_length_c 24.284146
_cell_angle_alpha 90.000000
_cell_angle_beta 60.533387
_cell_angle_gamma 90.000000
_cell_volume 2182.140177
_symmetry_space_group_name_H-M "C 2/C"
_symmetry_group_IT_number 15
_symmetry_cell_setting 'monoclinic'
loop_
_space_group_symop_operation_xyz
x,y,z
-x,y,1/2-z
-x,-y,-z
x,-y,1/2+z
1/2+x,1/2+y,z
1/2-x,1/2+y,1/2-z
1/2-x,1/2-y,-z
1/2+x,1/2-y,1/2+z
loop_
_atom_site_type_symbol
_atom_site_label
_atom_site_fract_x
_atom_site_fract_y
_atom_site_fract_z
Si Si1 0.294768 0.534867 0.242509
Si Si2 0.500000 0.023504 0.250000
Si Si3 0.932007 0.221471 0.368659
Si Si4 0.058059 0.067033 0.403534
Si Si5 0.107349 0.805646 0.005802
Si Si6 0.784493 0.524886 0.446460
Si Si7 0.857023 0.849109 0.330495
O O1 0.255355 0.790250 0.248001
O O2 0.373274 0.522615 0.169554
O O3 0.319782 0.519971 0.298572
O O4 0.485577 0.872235 0.307672
O O5 0.412513 0.170825 0.275769
O O6 0.832481 0.308589 0.406035
O O7 0.984777 0.236030 0.405971
O O8 0.926845 0.972461 0.345764
O O9 0.101373 0.175743 0.442045
O O10 0.993536 0.855612 0.440776
O O11 0.181275 0.997710 0.994643
O O12 0.155937 0.607001 0.022685
O O13 0.794867 0.714306 0.394572
#
# Coordination Sequence:
#
# PCOD9288306 Si02
#       7
#     8   4   8   8   8   8   8
#     4  12  30  48  76 111 154 196 249 320 393 454
#     4  10  22  38  68 100 140 182 234 316 366 454
#     4  11  23  40  74 105 139 190 250 303 384 450
#     4  11  24  45  72 105 146 192 251 312 373 448
#     4  10  23  46  67 101 151 191 251 306 371 452
#     4  10  23  44  72 102 146 192 245 308 375 448
#     4  11  23  43  69 103 143 186 246 307 377 454
#
# _framework density 23.829818
#
# number of rings (size 3 to 8) (size 9 to 14) (size 15 to 20)
#    0.000    1.231    1.538    3.231   10.769    1.231 
#    0.000    1.538    0.000    0.000    0.000    0.000 
#    0.000    0.000    0.000    0.000    0.000    0.000 
#
# Total GULP energy -145019.045719 kJ/mol
# GULP energy per Si atom -5577.655605 kJ/mol
# Density = 2.377558 g / cm^3
# Si number density = 23.829818 Si / 1000 Ang^3
#
#
#
# Elastic Constant Matrix: (Units=GPa)
#
#
# Indices 1 2 3 4 5 6 
#
# 1 112.7781 24.4306 42.0639 -0.0020 12.1779 0.0034
# 2 24.4306 61.7025 35.8481 -0.0005 -9.3924 -0.0107
# 3 42.0639 35.8481 109.7988 0.0034 -10.8929 0.0024
# 4 -0.0020 -0.0005 0.0034 45.2362 -0.0002 -8.8446
# 5 12.1779 -9.3924 -10.8929 -0.0002 53.4237 -0.0007
# 6 0.0034 -0.0107 0.0024 -8.8446 -0.0007 34.8443
#
#
#
# Elastic Compliance Matrix: (Units=1/GPa)
#
#
# Indices 1 2 3 4 5 6 
#
# 1 0.011315 -0.002871 -0.003780 0.000000 -0.003855 -0.000002
# 2 -0.002871 0.020993 -0.005433 0.000002 0.003237 0.000008
# 3 -0.003780 -0.005433 0.012574 -0.000002 0.002470 -0.000003
# 4 0.000000 0.000002 -0.000002 0.023261 0.000000 0.005904
# 5 -0.003855 0.003237 0.002470 0.000000 0.020670 0.000002
# 6 -0.000002 0.000008 -0.000003 0.005904 0.000002 0.030198
#
#
# Mechanical properties :
#
#
# Convention : Reuss Voigt Hill
#
# Bulk Modulus (GPa) = 48.27427 54.32940 51.30183
# Shear Modulus (GPa) = 33.31507 38.82998 36.07253
#
# Velocity S-wave (km/s) = 3.74310 4.04105 3.89492
# Velocity P-wave (km/s) = 6.24363 6.67996 6.46548
#
# Compressibility (1/GPa) = 0.02071497
#
# Stress axis : x y z
#
# Youngs Moduli (GPa) = 88.37915 47.63571 79.52607
#
# Poissons Ratio (x) = 0.13675 0.30060
# Poissons Ratio (y) = 0.25372 0.43206
# Poissons Ratio (z) = 0.33406 0.25880
#
# Static dielectric constant tensor:
#      x y z
#    x 1.931140 0.000000 0.007520 
#    y 0.000000 1.951890 -0.000010 
#    z 0.007520 -0.000010 1.953820 
# 
# From -- ./inp_files/297670.got.cif
#   From: 2010.05.17/outbox.cif.g08.bks.cpg/sg15_149_cif.got.tgz:297670.got - 2010.06.03 18:47:42.
