data_PCOD9288393
_publ_section_title
;
Structure prediction by ZEFSAII (Michael W. Deem and Ramdas Pophale) SiO2 
 PCOD9288393
Probable space group: C 2/C
;
_chemical_formula_sum "Si O2"
_cell_formula_units_Z 56
_cell_length_a 11.908829
_cell_length_b 19.361163
_cell_length_c 11.404329
_cell_angle_alpha 90.000000
_cell_angle_beta 81.807760
_cell_angle_gamma 90.000000
_cell_volume 2602.649769
_symmetry_space_group_name_H-M "C 2/C"
_symmetry_group_IT_number 15
_symmetry_cell_setting 'monoclinic'
loop_
_space_group_symop_operation_xyz
x,y,z
-x,y,1/2-z
-x,-y,-z
x,-y,1/2+z
1/2+x,1/2+y,z
1/2-x,1/2+y,1/2-z
1/2-x,1/2-y,-z
1/2+x,1/2-y,1/2+z
loop_
_atom_site_type_symbol
_atom_site_label
_atom_site_fract_x
_atom_site_fract_y
_atom_site_fract_z
Si Si1 0.316065 0.379434 0.628955
Si Si2 0.265097 0.134902 0.832548
Si Si3 0.381979 0.268412 0.818525
Si Si4 0.936205 0.571705 0.971468
Si Si5 0.065946 0.107165 0.020371
Si Si6 0.177679 0.381259 0.426365
Si Si7 0.760315 0.035162 0.349508
O O1 0.335455 0.318439 0.720960
O O2 0.431426 0.399437 0.543100
O O3 0.226321 0.360220 0.543592
O O4 0.277643 0.445084 0.712439
O O5 0.303772 0.207916 0.879340
O O6 0.361596 0.079932 0.863121
O O7 0.273144 0.154666 0.695170
O O8 0.142474 0.109015 0.892528
O O9 0.500000 0.238466 0.750000
O O10 0.412141 0.320472 0.917899
O O11 0.042058 0.622554 0.948760
O O12 0.839640 0.583800 0.083241
O O13 0.000000 0.500000 0.000000
O O14 0.124555 0.051736 0.098030
O O15 0.219017 0.459497 0.390242
#
# Coordination Sequence:
#
# PCOD9288393 Si02
#       7
#     8   8   8   8   8   8   8
#     4  10  22  39  56  86 121 152 195 240 297 344
#     4  11  21  37  60  87 113 154 201 232 301 357
#     4   9  18  37  63  82 111 154 196 249 287 349
#     4   9  20  37  57  84 114 146 194 249 292 343
#     4   9  20  39  59  84 113 153 198 242 281 345
#     4  11  23  34  56  87 118 154 187 244 296 352
#     4   9  20  37  58  80 113 155 194 238 292 346
#
# _framework density 21.516532000000002
#
# number of rings (size 3 to 8) (size 9 to 14) (size 15 to 20)
#    0.000    2.286    0.000    3.000    6.000    2.286 
#    2.571    0.000    0.000    5.143    0.000    0.000 
#    0.000    0.000    0.000    0.000    0.000    0.000 
#
# Total GULP energy -156066.479889 kJ/mol
# GULP energy per Si atom -5573.802853 kJ/mol
# Density = 2.146756 g / cm^3
# Si number density = 21.516532 Si / 1000 Ang^3
#
#
#
# Elastic Constant Matrix: (Units=GPa)
#
#
# Indices 1 2 3 4 5 6 
#
# 1 78.6784 -1.6124 22.8309 0.0000 -14.6726 0.0000
# 2 -1.6124 47.5488 -7.8605 0.0000 -1.3787 0.0000
# 3 22.8309 -7.8605 67.0821 0.0000 1.3781 0.0000
# 4 0.0000 0.0000 0.0000 24.7680 0.0000 -2.9993
# 5 -14.6726 -1.3787 1.3781 0.0000 24.9348 0.0000
# 6 0.0000 0.0000 0.0000 -2.9993 0.0000 -16.8907
#
#
#
# Elastic Compliance Matrix: (Units=1/GPa)
#
#
# Indices 1 2 3 4 5 6 
#
# 1 0.016207 -0.000112 -0.005731 0.000000 0.009847 0.000000
# 2 -0.000112 0.021475 0.002534 0.000000 0.000981 0.000000
# 3 -0.005731 0.002534 0.017241 0.000000 -0.004185 0.000000
# 4 0.000000 0.000000 0.000000 0.039525 0.000000 -0.007018
# 5 0.009847 0.000981 -0.004185 0.000000 0.046185 0.000000
# 6 0.000000 0.000000 0.000000 -0.007018 0.000000 -0.057958
#
#
# Mechanical properties :
#
#
# Convention : Reuss Voigt Hill
#
# Bulk Modulus (GPa) = 20.70231 24.44726 22.57479
# Shear Modulus (GPa) = 47.44095 18.55919 33.00007
#
# Velocity S-wave (km/s) = 4.70069 2.94011 3.92051
# Velocity P-wave (km/s) = 6.25335 4.78669 5.56852
#
# Compressibility (1/GPa) = 0.04830379
#
# Stress axis : x y z
#
# Youngs Moduli (GPa) = 61.70070 46.56658 58.00212
#
# Poissons Ratio (x) = 0.00523 0.33244
# Poissons Ratio (y) = 0.00693 -0.14700
# Poissons Ratio (z) = 0.35364 -0.11802
#
# Static dielectric constant tensor:
#      x y z
#    x 1.790280 0.000000 0.011300 
#    y 0.000000 1.938190 0.000000 
#    z 0.011300 0.000000 1.849480 
# 
# From -- ./inp_files/88897.got.cif
#   From: 2010.05.17/outbox.cif.g08.bks.cpg/sg15_45_cif.got.tgz:88897.got - 2010.06.03 18:47:42.
