data_PCOD9288776
_publ_section_title
;
Structure prediction by ZEFSAII (Michael W. Deem and Ramdas Pophale) SiO2 
 PCOD9288776
Probable space group: C 2/C
;
_chemical_formula_sum "Si O2"
_cell_formula_units_Z 44
_cell_length_a 28.687027
_cell_length_b 13.329322
_cell_length_c 9.322606
_cell_angle_alpha 90.000000
_cell_angle_beta 147.447071
_cell_angle_gamma 90.000000
_cell_volume 1918.123491
_symmetry_space_group_name_H-M "C 2/C"
_symmetry_group_IT_number 15
_symmetry_cell_setting 'monoclinic'
loop_
_space_group_symop_operation_xyz
x,y,z
-x,y,1/2-z
-x,-y,-z
x,-y,1/2+z
1/2+x,1/2+y,z
1/2-x,1/2+y,1/2-z
1/2-x,1/2-y,-z
1/2+x,1/2-y,1/2+z
loop_
_atom_site_type_symbol
_atom_site_label
_atom_site_fract_x
_atom_site_fract_y
_atom_site_fract_z
Si Si1 0.663362 0.895847 0.756915
Si Si2 0.000000 0.515190 0.250000
Si Si3 0.329067 0.484513 0.069826
Si Si4 0.882906 0.321700 0.591552
Si Si5 0.414202 0.701428 0.941040
Si Si6 0.895456 0.872354 0.962615
O O1 0.688736 0.870470 0.987867
O O2 0.649030 0.785018 0.652287
O O3 0.568881 0.946555 0.510979
O O4 0.727950 0.966451 0.839027
O O5 0.058123 0.589643 0.309033
O O6 0.370100 0.400358 0.281447
O O7 0.365047 0.588068 0.227898
O O8 0.356378 0.447858 0.982834
O O9 0.935167 0.254696 0.843424
O O10 0.861718 0.239854 0.415246
O O11 0.500000 0.684488 0.250000
O O12 0.000000 0.873914 0.250000
#
# Coordination Sequence:
#
# PCOD9288776 Si02
#       6
#     8   4   8   8   8   8
#     4  10  22  39  64  98 125 170 208 264 324 373
#     4  12  20  42  68  90 130 166 212 264 322 392
#     4  11  24  40  68  96 132 168 215 268 313 391
#     4   9  22  39  64  93 125 165 212 267 310 381
#     4   9  19  39  61  92 123 168 208 250 318 374
#     4  11  23  44  66  92 131 171 216 262 324 379
#
# _framework density 22.939087000000001
#
# number of rings (size 3 to 8) (size 9 to 14) (size 15 to 20)
#    1.091    0.727    1.818    2.182    2.545    1.455 
#    0.000    0.909    0.000    0.000    0.000    0.000 
#    0.000    0.000    0.000    0.000    0.000    0.000 
#
# Total GULP energy -122645.089052 kJ/mol
# GULP energy per Si atom -5574.776775 kJ/mol
# Density = 2.288688 g / cm^3
# Si number density = 22.939087 Si / 1000 Ang^3
#
#
#
# Elastic Constant Matrix: (Units=GPa)
#
#
# Indices 1 2 3 4 5 6 
#
# 1 72.3659 20.8624 0.5071 0.0000 20.5022 0.0000
# 2 20.8624 87.9418 10.0209 0.0000 -1.1200 0.0000
# 3 0.5071 10.0209 32.2563 0.0000 7.3489 0.0000
# 4 0.0000 0.0000 0.0000 25.1367 0.0000 -3.8690
# 5 20.5022 -1.1200 7.3489 0.0000 22.6485 0.0000
# 6 0.0000 0.0000 0.0000 -3.8690 0.0000 53.6752
#
#
#
# Elastic Compliance Matrix: (Units=1/GPa)
#
#
# Indices 1 2 3 4 5 6 
#
# 1 0.021882 -0.006235 0.006669 0.000000 -0.022280 0.000000
# 2 -0.006235 0.013642 -0.006025 0.000000 0.008273 0.000000
# 3 0.006669 -0.006025 0.036943 0.000000 -0.018322 0.000000
# 4 0.000000 0.000000 0.000000 0.040229 0.000000 0.002900
# 5 -0.022280 0.008273 -0.018322 0.000000 0.070676 0.000000
# 6 0.000000 0.000000 0.000000 0.002900 0.000000 0.018840
#
#
# Mechanical properties :
#
#
# Convention : Reuss Voigt Hill
#
# Bulk Modulus (GPa) = 16.31716 28.37163 22.34440
# Shear Modulus (GPa) = 21.38391 31.03698 26.21045
#
# Velocity S-wave (km/s) = 3.05651 3.68233 3.38392
# Velocity P-wave (km/s) = 4.42550 5.52037 5.00298
#
# Compressibility (1/GPa) = 0.06128517
#
# Stress axis : x y z
#
# Youngs Moduli (GPa) = 45.70064 73.30247 27.06877
#
# Poissons Ratio (x) = 0.45701 -0.18052
# Poissons Ratio (y) = 0.28493 0.16309
# Poissons Ratio (z) = -0.30477 0.44165
#
# Static dielectric constant tensor:
#      x y z
#    x 1.936440 0.000000 0.015590 
#    y 0.000000 1.892030 0.000000 
#    z 0.015590 0.000000 1.855870 
# 
# From -- ./inp_files/126785.got.cif
#   From: 2010.05.17/outbox.cif.g08.bks.cpg/sg15_64_cif.got.tgz:126785.got - 2010.06.03 18:47:42.
