data_PCOD9288843
_publ_section_title
;
Structure prediction by ZEFSAII (Michael W. Deem and Ramdas Pophale) SiO2 
 PCOD9288843
Probable space group: C 2/C
;
_chemical_formula_sum "Si O2"
_cell_formula_units_Z 36
_cell_length_a 22.571740
_cell_length_b 10.247732
_cell_length_c 12.034285
_cell_angle_alpha 90.000000
_cell_angle_beta 41.739034
_cell_angle_gamma 90.000000
_cell_volume 1853.177425
_symmetry_space_group_name_H-M "C 2/C"
_symmetry_group_IT_number 15
_symmetry_cell_setting 'monoclinic'
loop_
_space_group_symop_operation_xyz
x,y,z
-x,y,1/2-z
-x,-y,-z
x,-y,1/2+z
1/2+x,1/2+y,z
1/2-x,1/2+y,1/2-z
1/2-x,1/2-y,-z
1/2+x,1/2-y,1/2+z
loop_
_atom_site_type_symbol
_atom_site_label
_atom_site_fract_x
_atom_site_fract_y
_atom_site_fract_z
Si Si1 0.087879 0.583606 0.406495
Si Si2 0.000000 0.972079 0.750000
Si Si3 0.166024 0.323245 0.257495
Si Si4 0.136285 0.742295 0.543178
Si Si5 0.496725 0.725396 0.629448
O O1 0.165296 0.478220 0.282319
O O2 0.089149 0.639684 0.528260
O O3 0.080367 0.706168 0.334011
O O4 0.000000 0.500000 0.500000
O O5 0.917244 0.877563 0.885923
O O6 0.984287 0.071734 0.669742
O O7 0.140255 0.303322 0.164782
O O8 0.089939 0.255225 0.438232
O O9 0.262987 0.263217 0.138963
O O10 0.500000 0.783178 0.750000
#
# Coordination Sequence:
#
# PCOD9288843 Si02
#       5
#     8   4   8   8   8
#     4  10  22  39  66  90 127 170 215 267 312 394
#     4  10  22  40  64  94 130 164 212 266 320 394
#     4  10  24  42  63  94 131 170 215 275 313 394
#     4  11  24  41  64  97 129 171 219 263 336 374
#     4   9  22  40  63  94 125 167 218 255 331 377
#
# _framework density 19.426093000000002
#
# number of rings (size 3 to 8) (size 9 to 14) (size 15 to 20)
#    0.667    1.333    0.000    2.667    9.333    3.556 
#    4.000    2.222    0.000    0.000    0.000    0.000 
#    0.000    0.000    0.000    0.000    0.000    0.000 
#
# Total GULP energy -100381.894501 kJ/mol
# GULP energy per Si atom -5576.771917 kJ/mol
# Density = 1.938188 g / cm^3
# Si number density = 19.426093 Si / 1000 Ang^3
#
#
#
# Elastic Constant Matrix: (Units=GPa)
#
#
# Indices 1 2 3 4 5 6 
#
# 1 75.8428 29.6821 25.4119 0.0000 9.1361 0.0000
# 2 29.6821 119.8237 29.6451 0.0000 7.1466 0.0000
# 3 25.4119 29.6451 101.3448 0.0000 5.0512 0.0000
# 4 0.0000 0.0000 0.0000 61.5525 0.0000 -2.2718
# 5 9.1361 7.1466 5.0512 0.0000 24.0650 0.0000
# 6 0.0000 0.0000 0.0000 -2.2718 0.0000 38.9490
#
#
#
# Elastic Compliance Matrix: (Units=1/GPa)
#
#
# Indices 1 2 3 4 5 6 
#
# 1 0.015851 -0.002941 -0.002888 0.000000 -0.004538 0.000000
# 2 -0.002941 0.009653 -0.002020 0.000000 -0.001326 0.000000
# 3 -0.002888 -0.002020 0.011215 0.000000 -0.000658 0.000000
# 4 0.000000 0.000000 0.000000 0.016281 0.000000 0.000950
# 5 -0.004538 -0.001326 -0.000658 0.000000 0.043809 0.000000
# 6 0.000000 0.000000 0.000000 0.000950 0.000000 0.025730
#
#
# Mechanical properties :
#
#
# Convention : Reuss Voigt Hill
#
# Bulk Modulus (GPa) = 47.57334 51.83215 49.70274
# Shear Modulus (GPa) = 34.42483 39.06479 36.74481
#
# Velocity S-wave (km/s) = 4.21419 4.48922 4.35388
# Velocity P-wave (km/s) = 6.94419 7.32191 7.13555
#
# Compressibility (1/GPa) = 0.02102018
#
# Stress axis : x y z
#
# Youngs Moduli (GPa) = 63.08934 103.59410 89.16522
#
# Poissons Ratio (x) = 0.30470 0.25750
# Poissons Ratio (y) = 0.18556 0.18012
# Poissons Ratio (z) = 0.18220 0.20927
#
# Static dielectric constant tensor:
#      x y z
#    x 1.686590 0.000000 -0.004130 
#    y 0.000000 1.705470 0.000000 
#    z -0.004130 0.000000 1.680320 
# 
# From -- ./inp_files/117075.got.cif
#   From: 2010.05.17/outbox.cif.g08.bks.cpg/sg15_59_cif.got.tgz:117075.got - 2010.06.03 18:47:42.
