data_PCOD9288655
_publ_section_title
;
Structure prediction by ZEFSAII (Michael W. Deem and Ramdas Pophale) SiO2 
 PCOD9288655
Probable space group: C 2/C
;
_chemical_formula_sum "Si O2"
_cell_formula_units_Z 44
_cell_length_a 13.470554
_cell_length_b 7.997398
_cell_length_c 17.256131
_cell_angle_alpha 90.000000
_cell_angle_beta 93.200455
_cell_angle_gamma 90.000000
_cell_volume 1856.092890
_symmetry_space_group_name_H-M "C 2/C"
_symmetry_group_IT_number 15
_symmetry_cell_setting 'monoclinic'
loop_
_space_group_symop_operation_xyz
x,y,z
-x,y,1/2-z
-x,-y,-z
x,-y,1/2+z
1/2+x,1/2+y,z
1/2-x,1/2+y,1/2-z
1/2-x,1/2-y,-z
1/2+x,1/2-y,1/2+z
loop_
_atom_site_type_symbol
_atom_site_label
_atom_site_fract_x
_atom_site_fract_y
_atom_site_fract_z
Si Si1 0.675042 0.823134 0.405374
Si Si2 0.500000 0.408193 0.750000
Si Si3 0.042631 0.344478 0.116134
Si Si4 0.765825 0.527906 0.961295
Si Si5 0.836135 0.145234 0.672746
Si Si6 0.142096 0.500758 0.746631
O O1 0.561485 0.817098 0.432386
O O2 0.738670 0.657320 0.423938
O O3 0.730078 0.978030 0.448661
O O4 0.648796 0.862636 0.315714
O O5 0.448567 0.304059 0.818849
O O6 0.423697 0.526341 0.702696
O O7 0.130985 0.386938 0.060993
O O8 0.052311 0.496315 0.179872
O O9 0.680019 0.642473 0.920608
O O10 0.846514 0.323416 0.712695
O O11 0.737009 0.056522 0.700785
#
# Coordination Sequence:
#
# PCOD9288655 Si02
#       6
#     8   4   8   8   8   8
#     4  11  21  39  62  93 124 172 206 264 317 396
#     4  12  22  38  66  90 128 158 222 260 322 370
#     4  11  20  39  63  93 120 167 210 268 314 385
#     4  10  22  39  63  89 130 165 213 257 329 377
#     4  11  23  39  61  93 120 168 205 270 311 388
#     4  11  22  39  65  89 125 159 220 256 327 370
#
# _framework density 23.705708999999999
#
# number of rings (size 3 to 8) (size 9 to 14) (size 15 to 20)
#    0.000    1.091    3.636    4.909    2.545    0.727 
#    0.000    0.000    0.000    2.182    0.000    0.000 
#    0.000    0.000    0.000    0.000    0.000    0.000 
#
# Total GULP energy -122668.419522 kJ/mol
# GULP energy per Si atom -5575.837251 kJ/mol
# Density = 2.365175 g / cm^3
# Si number density = 23.705709 Si / 1000 Ang^3
#
#
#
# Elastic Constant Matrix: (Units=GPa)
#
#
# Indices 1 2 3 4 5 6 
#
# 1 93.9615 20.1735 12.1250 0.0000 8.4585 0.0000
# 2 20.1735 119.3413 10.0197 0.0000 -4.1222 0.0000
# 3 12.1250 10.0197 60.0408 0.0000 7.4725 0.0000
# 4 0.0000 0.0000 0.0000 28.1441 0.0000 -1.4671
# 5 8.4585 -4.1222 7.4725 0.0000 26.0404 0.0000
# 6 0.0000 0.0000 0.0000 -1.4671 0.0000 31.3112
#
#
#
# Elastic Compliance Matrix: (Units=1/GPa)
#
#
# Indices 1 2 3 4 5 6 
#
# 1 0.011590 -0.001953 -0.001563 0.000000 -0.003625 0.000000
# 2 -0.001953 0.008911 -0.001397 0.000000 0.002446 0.000000
# 3 -0.001563 -0.001397 0.017804 0.000000 -0.004822 0.000000
# 4 0.000000 0.000000 0.000000 0.035618 0.000000 0.001669
# 5 -0.003625 0.002446 -0.004822 0.000000 0.041351 0.000000
# 6 0.000000 0.000000 0.000000 0.001669 0.000000 0.032016
#
#
# Mechanical properties :
#
#
# Convention : Reuss Voigt Hill
#
# Bulk Modulus (GPa) = 35.11436 39.77556 37.44496
# Shear Modulus (GPa) = 30.01009 32.50083 31.25546
#
# Velocity S-wave (km/s) = 3.56187 3.70674 3.63502
# Velocity P-wave (km/s) = 5.63566 5.92749 5.78342
#
# Compressibility (1/GPa) = 0.02847838
#
# Stress axis : x y z
#
# Youngs Moduli (GPa) = 86.28052 112.21734 56.16587
#
# Poissons Ratio (x) = 0.21918 0.08781
# Poissons Ratio (y) = 0.16852 0.07847
# Poissons Ratio (z) = 0.13489 0.15678
#
# Static dielectric constant tensor:
#      x y z
#    x 2.012880 0.000000 -0.024130 
#    y 0.000000 1.924910 0.000000 
#    z -0.024130 0.000000 1.996980 
# 
# From -- ./inp_files/202681.got.cif
#   From: 2010.05.17/outbox.cif.g08.bks.cpg/sg15_102_cif.got.tgz:202681.got - 2010.06.03 18:47:42.
