data_PCOD9288471
_publ_section_title
;
Structure prediction by ZEFSAII (Michael W. Deem and Ramdas Pophale) SiO2 
 PCOD9288471
Probable space group: C 2/C
;
_chemical_formula_sum "Si O2"
_cell_formula_units_Z 64
_cell_length_a 22.688222
_cell_length_b 19.298986
_cell_length_c 26.018120
_cell_angle_alpha 90.000000
_cell_angle_beta 17.171406
_cell_angle_gamma 90.000000
_cell_volume 3363.358994
_symmetry_space_group_name_H-M "C 2/C"
_symmetry_group_IT_number 15
_symmetry_cell_setting 'monoclinic'
loop_
_space_group_symop_operation_xyz
x,y,z
-x,y,1/2-z
-x,-y,-z
x,-y,1/2+z
1/2+x,1/2+y,z
1/2-x,1/2+y,1/2-z
1/2-x,1/2-y,-z
1/2+x,1/2-y,1/2+z
loop_
_atom_site_type_symbol
_atom_site_label
_atom_site_fract_x
_atom_site_fract_y
_atom_site_fract_z
Si Si1 0.483515 0.019100 0.140324
Si Si2 0.703179 0.688941 0.880038
Si Si3 0.556114 0.851210 0.901533
Si Si4 0.166066 0.543746 0.391093
Si Si5 0.403778 0.811174 0.384327
Si Si6 0.824610 0.719365 0.671787
Si Si7 0.788654 0.043372 0.453570
Si Si8 0.881243 0.043743 0.496821
O O1 0.469711 0.090769 0.120373
O O2 0.267070 0.997425 0.341796
O O3 0.586334 0.963605 0.015315
O O4 0.632412 0.014018 0.064334
O O5 0.743358 0.673542 0.786430
O O6 0.913086 0.710340 0.731405
O O7 0.533866 0.747690 0.017682
O O8 0.628888 0.622326 0.973236
O O9 0.660776 0.884206 0.865058
O O10 0.683847 0.785130 0.778756
O O11 0.353606 0.823153 0.095613
O O12 0.390895 0.517566 0.195793
O O13 0.000000 0.500000 0.500000
O O14 0.500000 0.830840 0.250000
O O15 0.250000 0.750000 0.500000
O O16 0.291119 0.880219 0.496100
O O17 0.808361 0.042713 0.498671
O O18 0.000000 0.032050 0.250000
#
# Coordination Sequence:
#
# PCOD9288471 Si02
#       8
#     8   8   8   8   8   8   8   8
#     4  11  23  42  63  90 127 171 213 268 311 379
#     4  11  21  37  59  84 126 167 215 266 310 369
#     4  10  22  40  60  91 123 160 207 261 324 378
#     4  10  22  39  61  94 127 163 210 258 320 380
#     4  12  23  36  51  82 120 175 224 259 305 362
#     4  10  22  39  60  87 121 162 212 261 321 385
#     4  12  24  40  60  88 129 167 217 265 312 375
#     4  12  22  41  63  90 126 170 213 258 317 378
#
# _framework density 19.028597000000001
#
# number of rings (size 3 to 8) (size 9 to 14) (size 15 to 20)
#    0.000    1.000    5.000    2.250    0.000    2.000 
#    9.000    0.000    0.000    0.000    0.000    6.125 
#    0.000    0.000    0.000    0.000    0.000    0.000 
#
# Total GULP energy -178536.837837 kJ/mol
# GULP energy per Si atom -5579.276182 kJ/mol
# Density = 1.898529 g / cm^3
# Si number density = 19.028597 Si / 1000 Ang^3
#
#
#
# Elastic Constant Matrix: (Units=GPa)
#
#
# Indices 1 2 3 4 5 6 
#
# 1 90.5636 56.2324 50.9553 0.0031 9.0425 -0.0082
# 2 56.2324 64.1004 31.2503 -0.0183 10.4102 0.0088
# 3 50.9553 31.2503 122.1591 -0.0136 11.1913 -0.0285
# 4 0.0031 -0.0183 -0.0136 29.0362 0.0095 8.7745
# 5 9.0425 10.4102 11.1913 0.0095 32.4719 0.0337
# 6 -0.0082 0.0088 -0.0285 8.7745 0.0337 20.0585
#
#
#
# Elastic Compliance Matrix: (Units=1/GPa)
#
#
# Indices 1 2 3 4 5 6 
#
# 1 0.027791 -0.021573 -0.006194 -0.000026 0.001312 0.000021
# 2 -0.021573 0.035165 0.000501 0.000036 -0.005439 -0.000030
# 3 -0.006194 0.000501 0.010840 0.000002 -0.002172 0.000015
# 4 -0.000026 0.000036 0.000002 0.039686 0.000002 -0.017361
# 5 0.001312 -0.005439 -0.002172 0.000002 0.032923 -0.000056
# 6 0.000021 -0.000030 0.000015 -0.017361 -0.000056 0.057449
#
#
# Mechanical properties :
#
#
# Convention : Reuss Voigt Hill
#
# Bulk Modulus (GPa) = 51.90847 61.52210 56.71528
# Shear Modulus (GPa) = 18.88168 25.53899 22.21033
#
# Velocity S-wave (km/s) = 3.15346 3.66749 3.42015
# Velocity P-wave (km/s) = 6.37162 7.09476 6.74289
#
# Compressibility (1/GPa) = 0.01926468
#
# Stress axis : x y z
#
# Youngs Moduli (GPa) = 35.98278 28.43752 92.24835
#
# Poissons Ratio (x) = 0.61349 0.57135
# Poissons Ratio (y) = 0.77627 -0.04624
# Poissons Ratio (z) = 0.22286 -0.01425
#
# Static dielectric constant tensor:
#      x y z
#    x 1.695960 -0.000010 0.008200 
#    y -0.000010 1.685000 0.000110 
#    z 0.008200 0.000110 1.727170 
# 
# From -- ./inp_files/280493.got.cif
#   From: 2010.05.17/outbox.cif.g08.bks.cpg/sg15_141_cif.got.tgz:280493.got - 2010.06.03 18:47:42.
