data_PCOD9288893
_publ_section_title
;
Structure prediction by ZEFSAII (Michael W. Deem and Ramdas Pophale) SiO2 
 PCOD9288893
Probable space group: C 2/C
;
_chemical_formula_sum "Si O2"
_cell_formula_units_Z 60
_cell_length_a 24.889098
_cell_length_b 10.632715
_cell_length_c 28.525087
_cell_angle_alpha 90.000000
_cell_angle_beta 17.939187
_cell_angle_gamma 90.000000
_cell_volume 2325.098913
_symmetry_space_group_name_H-M "C 2/C"
_symmetry_group_IT_number 15
_symmetry_cell_setting 'monoclinic'
loop_
_space_group_symop_operation_xyz
x,y,z
-x,y,1/2-z
-x,-y,-z
x,-y,1/2+z
1/2+x,1/2+y,z
1/2-x,1/2+y,1/2-z
1/2-x,1/2-y,-z
1/2+x,1/2-y,1/2+z
loop_
_atom_site_type_symbol
_atom_site_label
_atom_site_fract_x
_atom_site_fract_y
_atom_site_fract_z
Si Si1 0.356417 0.818755 0.502041
Si Si2 0.000000 0.122486 0.250000
Si Si3 0.470021 0.265423 0.162563
Si Si4 0.538983 0.262372 0.438721
Si Si5 0.439062 0.997438 0.728186
Si Si6 0.301094 0.036484 0.624845
Si Si7 0.713784 0.547475 0.501401
Si Si8 0.600711 0.647490 0.354124
O O1 0.171426 0.806517 0.628196
O O2 0.338998 0.925783 0.556710
O O3 0.439627 0.699464 0.458095
O O4 0.501482 0.875339 0.346237
O O5 0.924077 0.037696 0.355641
O O6 0.496086 0.288960 0.086061
O O7 0.414798 0.121214 0.214053
O O8 0.315181 0.359315 0.305539
O O9 0.632665 0.316966 0.056926
O O10 0.458815 0.121714 0.512994
O O11 0.452643 0.354744 0.547482
O O12 0.744022 0.250299 0.277438
O O13 0.612987 0.954256 0.611522
O O14 0.282113 0.004570 0.894956
O O15 0.182989 0.975896 0.763490
#
# Coordination Sequence:
#
# PCOD9288893 Si02
#       8
#     8   4   8   8   8   8   8   8
#     4  11  24  49  77 105 150 201 251 314 378 446
#     4  10  22  46  78 108 146 202 250 312 378 448
#     4  12  23  41  73 113 148 201 242 311 383 453
#     4  12  26  47  72 112 147 199 252 307 378 443
#     4  10  23  40  70 113 152 192 249 314 381 460
#     4  12  25  47  74 106 154 190 253 314 370 450
#     4  10  22  39  67 113 154 193 242 312 387 453
#     4  12  28  48  75 104 151 207 249 309 375 436
#
# _framework density 25.805354000000001
#
# number of rings (size 3 to 8) (size 9 to 14) (size 15 to 20)
#    0.000    0.800    5.333    1.600    0.000    2.667 
#    0.000    0.667    0.000    0.000    0.000    0.000 
#    0.000    0.000    0.000    0.000    0.000    0.000 
#
# Total GULP energy -168089.772048 kJ/mol
# GULP energy per Si atom -5602.992402 kJ/mol
# Density = 2.574662 g / cm^3
# Si number density = 25.805354 Si / 1000 Ang^3
#
#
#
# Elastic Constant Matrix: (Units=GPa)
#
#
# Indices 1 2 3 4 5 6 
#
# 1 119.8126 34.3987 46.9408 -0.0005 -4.8561 -0.0017
# 2 34.3987 77.3935 29.7090 0.0007 -4.2826 -0.0016
# 3 46.9408 29.7090 128.4797 -0.0532 9.1892 0.0033
# 4 -0.0005 0.0007 -0.0532 37.8561 0.0115 3.6628
# 5 -4.8561 -4.2826 9.1892 0.0115 51.9853 0.0037
# 6 -0.0017 -0.0016 0.0033 3.6628 0.0037 26.9707
#
#
#
# Elastic Compliance Matrix: (Units=1/GPa)
#
#
# Indices 1 2 3 4 5 6 
#
# 1 0.010630 -0.003433 -0.003181 -0.000005 0.001272 0.000001
# 2 -0.003433 0.015451 -0.002417 -0.000004 0.001379 0.000001
# 3 -0.003181 -0.002417 0.009662 0.000015 -0.002204 -0.000003
# 4 -0.000005 -0.000004 0.000015 0.026768 -0.000009 -0.003635
# 5 0.001272 0.001379 -0.002204 -0.000009 0.019858 -0.000001
# 6 0.000001 0.000001 -0.000003 -0.003635 -0.000001 0.037571
#
#
# Mechanical properties :
#
#
# Convention : Reuss Voigt Hill
#
# Bulk Modulus (GPa) = 56.55889 60.86477 58.71183
# Shear Modulus (GPa) = 34.74738 37.67155 36.20946
#
# Velocity S-wave (km/s) = 3.67347 3.82492 3.74996
# Velocity P-wave (km/s) = 6.32121 6.56841 6.44599
#
# Compressibility (1/GPa) = 0.01768069
#
# Stress axis : x y z
#
# Youngs Moduli (GPa) = 94.07513 64.72025 103.49773
#
# Poissons Ratio (x) = 0.22219 0.32921
# Poissons Ratio (y) = 0.32297 0.25017
# Poissons Ratio (z) = 0.29923 0.15644
#
# Static dielectric constant tensor:
#      x y z
#    x 2.022390 -0.000010 -0.019830 
#    y -0.000010 2.033180 0.000020 
#    z -0.019830 0.000020 2.064160 
# 
# From -- ./inp_files/319562.got.cif
#   From: 2010.05.17/outbox.cif.g08.bks.cpg/sg15_160_cif.got.tgz:319562.got - 2010.06.03 18:47:42.
