data_PCOD9288602
_publ_section_title
;
Structure prediction by ZEFSAII (Michael W. Deem and Ramdas Pophale) SiO2 
 PCOD9288602
Probable space group: C 2/C
;
_chemical_formula_sum "Si O2"
_cell_formula_units_Z 32
_cell_length_a 8.840575
_cell_length_b 16.893022
_cell_length_c 9.109810
_cell_angle_alpha 90.000000
_cell_angle_beta 114.993456
_cell_angle_gamma 90.000000
_cell_volume 1233.093527
_symmetry_space_group_name_H-M "C 2/C"
_symmetry_group_IT_number 15
_symmetry_cell_setting 'monoclinic'
loop_
_space_group_symop_operation_xyz
x,y,z
-x,y,1/2-z
-x,-y,-z
x,-y,1/2+z
1/2+x,1/2+y,z
1/2-x,1/2+y,1/2-z
1/2-x,1/2-y,-z
1/2+x,1/2-y,1/2+z
loop_
_atom_site_type_symbol
_atom_site_label
_atom_site_fract_x
_atom_site_fract_y
_atom_site_fract_z
Si Si1 0.490264 0.692811 0.568963
Si Si2 0.462830 0.125090 0.063619
Si Si3 0.682083 0.542550 0.062741
Si Si4 0.827193 0.619185 0.614444
O O1 0.500000 0.675261 0.750000
O O2 0.429596 0.782135 0.526114
O O3 0.376401 0.632499 0.427471
O O4 0.676174 0.677293 0.585370
O O5 0.500000 0.114223 0.250000
O O6 0.300754 0.070480 0.973862
O O7 0.626383 0.106531 0.036669
O O8 0.500000 0.500000 0.000000
O O9 0.789038 0.468039 0.161905
O O10 0.000000 0.649996 0.750000
#
# Coordination Sequence:
#
# PCOD9288602 Si02
#       4
#     8   8   8   8
#     4  10  22  41  65  93 126 167 214 266 320 376
#     4  11  23  41  64  94 127 165 210 263 319 380
#     4  10  22  39  62  91 125 167 211 258 317 381
#     4  11  23  41  64  92 127 169 213 263 319 379
#
# _framework density 25.950991999999999
#
# number of rings (size 3 to 8) (size 9 to 14) (size 15 to 20)
#    0.000    1.500    0.000    4.500    0.000    6.000 
#    0.000    6.250    0.000    0.000    0.000    0.000 
#    0.000    0.000    0.000    0.000    0.000    0.000 
#
# Total GULP energy -89070.227029 kJ/mol
# GULP energy per Si atom -5566.889189 kJ/mol
# Density = 2.589193 g / cm^3
# Si number density = 25.950992 Si / 1000 Ang^3
#
#
#
# Elastic Constant Matrix: (Units=GPa)
#
#
# Indices 1 2 3 4 5 6 
#
# 1 229.6553 44.9726 51.0004 0.0000 -15.6258 0.0000
# 2 44.9726 147.6938 13.7770 0.0000 -17.4208 0.0000
# 3 51.0004 13.7770 85.6542 0.0000 -28.8580 0.0000
# 4 0.0000 0.0000 0.0000 -2.1197 0.0000 -8.7190
# 5 -15.6258 -17.4208 -28.8580 0.0000 29.1350 0.0000
# 6 0.0000 0.0000 0.0000 -8.7190 0.0000 51.4749
#
#
#
# Elastic Compliance Matrix: (Units=1/GPa)
#
#
# Indices 1 2 3 4 5 6 
#
# 1 0.005298 -0.001461 -0.003387 0.000000 -0.001387 0.000000
# 2 -0.001461 0.007699 0.001379 0.000000 0.005185 0.000000
# 3 -0.003387 0.001379 0.019714 0.000000 0.018535 0.000000
# 4 0.000000 0.000000 0.000000 -0.278048 0.000000 -0.047097
# 5 -0.001387 0.005185 0.018535 0.000000 0.055038 0.000000
# 6 0.000000 0.000000 0.000000 -0.047097 0.000000 0.011450
#
#
# Mechanical properties :
#
#
# Convention : Reuss Voigt Hill
#
# Bulk Modulus (GPa) = 38.80082 75.83372 57.31727
# Shear Modulus (GPa) = -30.61477 39.24827 4.31675
#
# Velocity S-wave (km/s) = -3.43842 3.89318 1.29114
# Velocity P-wave (km/s) = 0.88298 7.03523 4.93532
#
# Compressibility (1/GPa) = 0.02577265
#
# Stress axis : x y z
#
# Youngs Moduli (GPa) = 188.74228 129.89323 50.72451
#
# Poissons Ratio (x) = 0.18977 0.17180
# Poissons Ratio (y) = 0.27574 -0.06993
# Poissons Ratio (z) = 0.63925 -0.17906
#
# Static dielectric constant tensor:
#      x y z
#    x 2.140720 0.000000 -0.156470 
#    y 0.000000 2.012120 0.000000 
#    z -0.156470 0.000000 3.741200 
# 
# From -- ./inp_files/75686.got.cif
#   From: 2010.05.17/outbox.cif.g08.bks.cpg/sg15_38_cif.got.tgz:75686.got - 2010.06.03 18:47:42.
