data_PCOD9288084
_publ_section_title
;
Structure prediction by ZEFSAII (Michael W. Deem and Ramdas Pophale) SiO2 
 PCOD9288084
Probable space group: C 2/C
;
_chemical_formula_sum "Si O2"
_cell_formula_units_Z 48
_cell_length_a 10.197800
_cell_length_b 29.566116
_cell_length_c 9.070793
_cell_angle_alpha 90.000000
_cell_angle_beta 122.739967
_cell_angle_gamma 90.000000
_cell_volume 2300.440853
_symmetry_space_group_name_H-M "C 2/C"
_symmetry_group_IT_number 15
_symmetry_cell_setting 'monoclinic'
loop_
_space_group_symop_operation_xyz
x,y,z
-x,y,1/2-z
-x,-y,-z
x,-y,1/2+z
1/2+x,1/2+y,z
1/2-x,1/2+y,1/2-z
1/2-x,1/2-y,-z
1/2+x,1/2-y,1/2+z
loop_
_atom_site_type_symbol
_atom_site_label
_atom_site_fract_x
_atom_site_fract_y
_atom_site_fract_z
Si Si1 0.710743 0.619664 0.153399
Si Si2 0.340774 0.215723 0.878393
Si Si3 0.023567 0.804680 0.032084
Si Si4 0.500000 0.853955 0.250000
Si Si5 0.480927 0.451592 0.063358
Si Si6 0.823351 0.115909 0.028058
Si Si7 0.000000 0.325989 0.750000
O O1 0.651276 0.610193 0.282861
O O2 0.879111 0.641848 0.261207
O O3 0.599764 0.655981 0.999970
O O4 0.687807 0.571992 0.061015
O O5 0.156174 0.212799 0.727321
O O6 0.427295 0.178905 0.829559
O O7 0.419955 0.264492 0.902777
O O8 0.393694 0.203238 0.075660
O O9 0.124929 0.832417 0.975056
O O10 0.639133 0.884645 0.392126
O O11 0.500000 0.454099 0.250000
O O12 0.500000 0.500000 0.000000
O O13 0.598030 0.417919 0.043365
#
# Coordination Sequence:
#
# PCOD9288084 Si02
#       7
#     8   8   8   4   8   8   4
#     4  11  24  42  67  93 133 172 220 270 330 389
#     4  11  24  38  60  90 132 176 231 277 319 386
#     4  10  23  39  64  88 127 177 231 275 331 374
#     4  10  22  38  63  92 128 180 219 270 326 376
#     4  11  24  43  73 102 132 164 209 257 321 396
#     4  10  22  43  65  93 132 171 216 269 327 389
#     4  12  26  42  61  94 134 176 223 276 326 376
#
# _framework density 20.865566000000001
#
# number of rings (size 3 to 8) (size 9 to 14) (size 15 to 20)
#    0.000    1.333    1.667    4.000    9.333    4.000 
#    1.500    0.833    0.000    4.000    0.000    0.000 
#    0.000    0.000    0.000    0.000    0.000    0.000 
#
# Total GULP energy -133860.728150 kJ/mol
# GULP energy per Si atom -5577.530340 kJ/mol
# Density = 2.081807 g / cm^3
# Si number density = 20.865566 Si / 1000 Ang^3
#
#
#
# Elastic Constant Matrix: (Units=GPa)
#
#
# Indices 1 2 3 4 5 6 
#
# 1 88.2574 27.3504 40.1343 0.0000 10.5338 0.0000
# 2 27.3504 108.6098 64.7252 0.0000 7.2458 0.0000
# 3 40.1343 64.7252 146.2644 0.0000 -2.6252 0.0000
# 4 0.0000 0.0000 0.0000 26.7833 0.0000 -6.7679
# 5 10.5338 7.2458 -2.6252 0.0000 45.0251 0.0000
# 6 0.0000 0.0000 0.0000 -6.7679 0.0000 20.3209
#
#
#
# Elastic Compliance Matrix: (Units=1/GPa)
#
#
# Indices 1 2 3 4 5 6 
#
# 1 0.013566 -0.001295 -0.003206 0.000000 -0.003152 0.000000
# 2 -0.001295 0.012879 -0.005381 0.000000 -0.002083 0.000000
# 3 -0.003206 -0.005381 0.010138 0.000000 0.002207 0.000000
# 4 0.000000 0.000000 0.000000 0.040768 0.000000 0.013578
# 5 -0.003152 -0.002083 0.002207 0.000000 0.023411 0.000000
# 6 0.000000 0.000000 0.000000 0.013578 0.000000 0.053732
#
#
# Mechanical properties :
#
#
# Convention : Reuss Voigt Hill
#
# Bulk Modulus (GPa) = 59.46074 67.50573 63.48323
# Shear Modulus (GPa) = 27.79858 32.48732 30.14295
#
# Velocity S-wave (km/s) = 3.65399 3.95014 3.80495
# Velocity P-wave (km/s) = 6.80890 7.29574 7.05652
#
# Compressibility (1/GPa) = 0.01681782
#
# Stress axis : x y z
#
# Youngs Moduli (GPa) = 73.71389 77.64288 98.64302
#
# Poissons Ratio (x) = 0.10059 0.31622
# Poissons Ratio (y) = 0.09550 0.53083
# Poissons Ratio (z) = 0.23631 0.41783
#
# Static dielectric constant tensor:
#      x y z
#    x 1.825950 0.000000 0.017150 
#    y 0.000000 1.733010 0.000000 
#    z 0.017150 0.000000 1.805600 
# 
# From -- ./inp_files/33845.got.cif
#   From: 2010.05.17/outbox.cif.g08.bks.cpg/sg15_17_cif.got.tgz:33845.got - 2010.06.03 18:47:42.
