data_PCOD9288042
_publ_section_title
;
Structure prediction by ZEFSAII (Michael W. Deem and Ramdas Pophale) SiO2 
 PCOD9288042
Probable space group: C 2/C
;
_chemical_formula_sum "Si O2"
_cell_formula_units_Z 56
_cell_length_a 24.448915
_cell_length_b 9.424648
_cell_length_c 13.834721
_cell_angle_alpha 90.000000
_cell_angle_beta 65.047142
_cell_angle_gamma 90.000000
_cell_volume 2890.262533
_symmetry_space_group_name_H-M "C 2/C"
_symmetry_group_IT_number 15
_symmetry_cell_setting 'monoclinic'
loop_
_space_group_symop_operation_xyz
x,y,z
-x,y,1/2-z
-x,-y,-z
x,-y,1/2+z
1/2+x,1/2+y,z
1/2-x,1/2+y,1/2-z
1/2-x,1/2-y,-z
1/2+x,1/2-y,1/2+z
loop_
_atom_site_type_symbol
_atom_site_label
_atom_site_fract_x
_atom_site_fract_y
_atom_site_fract_z
Si Si1 0.151656 0.479274 0.221891
Si Si2 0.675855 0.253398 0.551589
Si Si3 0.368994 0.003830 0.038073
Si Si4 0.147137 0.920074 0.045273
Si Si5 0.434059 0.830193 0.843671
Si Si6 0.741623 0.395939 0.136315
Si Si7 0.773623 0.110901 0.191059
O O1 0.151265 0.332422 0.163386
O O2 0.130404 0.477846 0.348530
O O3 0.111291 0.595538 0.198304
O O4 0.221333 0.525774 0.174020
O O5 0.750000 0.250000 0.500000
O O6 0.647883 0.162770 0.482656
O O7 0.650310 0.411879 0.562241
O O8 0.308523 0.922859 0.046784
O O9 0.425352 0.933173 0.942975
O O10 0.088524 0.827304 0.112154
O O11 0.197766 0.861826 0.081929
O O12 0.167867 0.895399 0.919529
O O13 0.500000 0.829567 0.750000
O O14 0.748652 0.270494 0.209043
O O15 0.720689 0.535865 0.210150
#
# Coordination Sequence:
#
# PCOD9288042 Si02
#       7
#     8   8   8   8   8   8   8
#     4  10  22  38  62  92 121 154 200 248 307 370
#     4  11  21  35  58  96 126 155 181 240 315 385
#     4  10  22  38  62  92 121 154 200 248 307 370
#     4  12  22  36  57  87 129 151 197 245 301 362
#     4  11  24  44  62  80 117 173 219 252 282 333
#     4  11  22  34  58  91 127 152 186 242 315 375
#     4  11  22  34  58  91 127 152 186 242 315 375
#
# _framework density 19.375401
#
# number of rings (size 3 to 8) (size 9 to 14) (size 15 to 20)
#    0.000    1.143    5.714    1.286    8.000    0.571 
#    0.000    2.857    0.000    6.000    0.000    0.000 
#    0.000    0.000    0.000    0.000    0.000    0.000 
#
# Total GULP energy -156307.445063 kJ/mol
# GULP energy per Si atom -5582.408752 kJ/mol
# Density = 1.933130 g / cm^3
# Si number density = 19.375401 Si / 1000 Ang^3
#
#
#
# Elastic Constant Matrix: (Units=GPa)
#
#
# Indices 1 2 3 4 5 6 
#
# 1 24.6585 16.1761 36.6609 0.0000 -9.1088 0.0000
# 2 16.1761 142.7238 44.9073 0.0000 -11.7391 0.0000
# 3 36.6609 44.9073 144.2726 0.0000 -12.4704 0.0000
# 4 0.0000 0.0000 0.0000 28.8447 0.0000 0.1872
# 5 -9.1088 -11.7391 -12.4704 0.0000 32.9020 0.0000
# 6 0.0000 0.0000 0.0000 0.1872 0.0000 19.2223
#
#
#
# Elastic Compliance Matrix: (Units=1/GPa)
#
#
# Indices 1 2 3 4 5 6 
#
# 1 0.070680 -0.001838 -0.016287 0.000000 0.012738 0.000000
# 2 -0.001838 0.007934 -0.001863 0.000000 0.001616 0.000000
# 3 -0.016287 -0.001863 0.011582 0.000000 -0.000784 0.000000
# 4 0.000000 0.000000 0.000000 0.034671 0.000000 -0.000338
# 5 0.012738 0.001616 -0.000784 0.000000 0.034199 0.000000
# 6 0.000000 0.000000 0.000000 -0.000338 0.000000 0.052026
#
#
# Mechanical properties :
#
#
# Convention : Reuss Voigt Hill
#
# Bulk Modulus (GPa) = 19.91250 56.34928 38.13089
# Shear Modulus (GPa) = 18.67003 30.45452 24.56227
#
# Velocity S-wave (km/s) = 3.10755 3.96891 3.56435
# Velocity P-wave (km/s) = 4.81408 7.08160 6.05493
#
# Compressibility (1/GPa) = 0.05021972
#
# Stress axis : x y z
#
# Youngs Moduli (GPa) = 14.14821 126.04138 86.34021
#
# Poissons Ratio (x) = 0.23171 1.40624
# Poissons Ratio (y) = 0.02601 0.16083
# Poissons Ratio (z) = 0.23043 0.23478
#
# Static dielectric constant tensor:
#      x y z
#    x 1.655530 0.000000 0.033290 
#    y 0.000000 1.758160 0.000000 
#    z 0.033290 0.000000 1.716840 
# 
# From -- ./inp_files/171993.got.cif
#   From: 2010.05.17/outbox.cif.g08.bks.cpg/sg15_86_cif.got.tgz:171993.got - 2010.06.03 18:47:42.
