data_PCOD9288686
_publ_section_title
;
Structure prediction by ZEFSAII (Michael W. Deem and Ramdas Pophale) SiO2 
 PCOD9288686
Probable space group: C 2/C
;
_chemical_formula_sum "Si O2"
_cell_formula_units_Z 48
_cell_length_a 9.010822
_cell_length_b 26.551528
_cell_length_c 10.774765
_cell_angle_alpha 90.000000
_cell_angle_beta 59.591274
_cell_angle_gamma 90.000000
_cell_volume 2223.253124
_symmetry_space_group_name_H-M "C 2/C"
_symmetry_group_IT_number 15
_symmetry_cell_setting 'monoclinic'
loop_
_space_group_symop_operation_xyz
x,y,z
-x,y,1/2-z
-x,-y,-z
x,-y,1/2+z
1/2+x,1/2+y,z
1/2-x,1/2+y,1/2-z
1/2-x,1/2-y,-z
1/2+x,1/2-y,1/2+z
loop_
_atom_site_type_symbol
_atom_site_label
_atom_site_fract_x
_atom_site_fract_y
_atom_site_fract_z
Si Si1 0.828220 0.293026 0.882552
Si Si2 0.486303 0.107453 0.432334
Si Si3 0.476390 0.710805 0.406749
Si Si4 0.395017 0.177713 0.918574
Si Si5 0.325233 0.994257 0.896429
Si Si6 0.308926 0.548230 0.293092
O O1 0.897548 0.344191 0.911713
O O2 0.661796 0.306464 0.872858
O O3 0.000000 0.270140 0.750000
O O4 0.750000 0.250000 0.000000
O O5 0.526484 0.128355 0.551679
O O6 0.376649 0.058764 0.441565
O O7 0.678338 0.092294 0.309062
O O8 0.500000 0.711744 0.250000
O O9 0.431305 0.768230 0.471290
O O10 0.310764 0.677157 0.510720
O O11 0.500000 0.183024 0.750000
O O12 0.500000 0.011944 0.750000
O O13 0.197913 0.986455 0.830447
O O14 0.266652 0.025496 0.043725
O O15 0.500000 0.563459 0.250000
#
# Coordination Sequence:
#
# PCOD9288686 Si02
#       6
#     8   8   8   8   8   8
#     4  12  25  40  63  90 129 176 224 277 330 385
#     4  11  23  41  64  98 132 178 223 271 341 414
#     4  10  22  40  63  87 126 175 226 279 339 394
#     4  10  22  39  63  93 127 170 229 284 334 395
#     4  10  22  43  71 102 137 177 220 276 352 421
#     4  11  24  44  73 102 138 173 225 285 353 417
#
# _framework density 21.589983
#
# number of rings (size 3 to 8) (size 9 to 14) (size 15 to 20)
#    0.000    1.333    1.667    5.000    4.667    5.333 
#    0.000    2.500    0.000    0.000    0.000    0.000 
#    0.000    0.000    0.000    0.000    0.000    0.000 
#
# Total GULP energy -133641.905354 kJ/mol
# GULP energy per Si atom -5568.412723 kJ/mol
# Density = 2.154084 g / cm^3
# Si number density = 21.589983 Si / 1000 Ang^3
#
#
#
# Elastic Constant Matrix: (Units=GPa)
#
#
# Indices 1 2 3 4 5 6 
#
# 1 171.5779 47.0495 48.1652 0.0000 -14.3514 0.0000
# 2 47.0495 86.7536 50.2237 0.0000 -4.6363 0.0000
# 3 48.1652 50.2237 118.8987 0.0000 -14.6439 0.0000
# 4 0.0000 0.0000 0.0000 52.1049 0.0000 19.1424
# 5 -14.3514 -4.6363 -14.6439 0.0000 36.6385 0.0000
# 6 0.0000 0.0000 0.0000 19.1424 0.0000 24.8968
#
#
#
# Elastic Compliance Matrix: (Units=1/GPa)
#
#
# Indices 1 2 3 4 5 6 
#
# 1 0.007203 -0.002979 -0.001429 0.000000 0.001873 0.000000
# 2 -0.002979 0.016506 -0.005945 0.000000 -0.001454 0.000000
# 3 -0.001429 -0.005945 0.011926 0.000000 0.003455 0.000000
# 4 0.000000 0.000000 0.000000 0.026747 0.000000 -0.020565
# 5 0.001873 -0.001454 0.003455 0.000000 0.029224 0.000000
# 6 0.000000 0.000000 0.000000 -0.020565 0.000000 0.055978
#
#
# Mechanical properties :
#
#
# Convention : Reuss Voigt Hill
#
# Bulk Modulus (GPa) = 66.97898 74.23412 70.60655
# Shear Modulus (GPa) = 28.85726 38.18084 33.51905
#
# Velocity S-wave (km/s) = 3.65993 4.20986 3.94449
# Velocity P-wave (km/s) = 6.99647 7.62160 7.31572
#
# Compressibility (1/GPa) = 0.01493006
#
# Stress axis : x y z
#
# Youngs Moduli (GPa) = 138.83181 60.58253 83.85142
#
# Poissons Ratio (x) = 0.18049 0.11980
# Poissons Ratio (y) = 0.41361 0.49847
# Poissons Ratio (z) = 0.19835 0.36014
#
# Static dielectric constant tensor:
#      x y z
#    x 1.120610 0.000000 -0.226600 
#    y 0.000000 1.882100 0.000000 
#    z -0.226600 0.000000 1.689520 
# 
# From -- ./inp_files/80528.got.cif
#   From: 2010.05.17/outbox.cif.g08.bks.cpg/sg15_41_cif.got.tgz:80528.got - 2010.06.03 18:47:42.
