data_PCOD9288191
_publ_section_title
;
Structure prediction by ZEFSAII (Michael W. Deem and Ramdas Pophale) SiO2 
 PCOD9288191
Probable space group: C 2/C
;
_chemical_formula_sum "Si O2"
_cell_formula_units_Z 56
_cell_length_a 13.685633
_cell_length_b 14.855199
_cell_length_c 18.346647
_cell_angle_alpha 90.000000
_cell_angle_beta 48.537593
_cell_angle_gamma 90.000000
_cell_volume 2795.169487
_symmetry_space_group_name_H-M "C 2/C"
_symmetry_group_IT_number 15
_symmetry_cell_setting 'monoclinic'
loop_
_space_group_symop_operation_xyz
x,y,z
-x,y,1/2-z
-x,-y,-z
x,-y,1/2+z
1/2+x,1/2+y,z
1/2-x,1/2+y,1/2-z
1/2-x,1/2-y,-z
1/2+x,1/2-y,1/2+z
loop_
_atom_site_type_symbol
_atom_site_label
_atom_site_fract_x
_atom_site_fract_y
_atom_site_fract_z
Si Si1 0.500000 0.300292 0.250000
Si Si2 0.500000 0.005579 0.750000
Si Si3 0.603948 0.272857 0.546926
Si Si4 0.126398 0.082687 0.145066
Si Si5 0.538172 0.854803 0.614704
Si Si6 0.267122 0.093358 0.603964
Si Si7 0.623156 0.137894 0.799063
Si Si8 0.306868 0.785324 0.645767
O O1 0.470315 0.234865 0.332697
O O2 0.368914 0.358537 0.308928
O O3 0.600400 0.070104 0.743326
O O4 0.556419 0.939093 0.660080
O O5 0.750000 0.250000 0.500000
O O6 0.581443 0.370995 0.592124
O O7 0.505237 0.199807 0.628399
O O8 0.604593 0.261905 0.459930
O O9 0.192597 0.160141 0.161617
O O10 0.000000 0.049246 0.250000
O O11 0.230409 0.003400 0.088628
O O12 0.648244 0.855046 0.498475
O O13 0.396990 0.854250 0.645404
O O14 0.348792 0.088235 0.638548
O O15 0.739266 0.207801 0.725954
#
# Coordination Sequence:
#
# PCOD9288191 Si02
#       8
#     4   4   8   8   8   8   8   8
#     4  11  24  48  65  90 126 178 227 270 326 397
#     4  11  26  40  63 104 136 166 215 282 316 375
#     4  10  22  38  64  98 131 171 215 269 331 391
#     4  11  22  38  62  97 134 169 211 274 333 384
#     4  11  25  44  67  92 132 173 221 272 326 393
#     4  12  25  42  71  94 128 175 225 271 329 391
#     4  12  23  42  68  97 134 175 221 266 326 395
#     4  11  22  40  66  93 131 174 219 264 327 398
#
# _framework density 20.034562999999999
#
# number of rings (size 3 to 8) (size 9 to 14) (size 15 to 20)
#    0.000    0.857    5.000    3.000    6.000    1.143 
#    0.000    0.000    0.000    2.571    0.000    0.000 
#    0.000    0.000    0.000    0.000    0.000    0.000 
#
# Total GULP energy -156315.052535 kJ/mol
# GULP energy per Si atom -5582.680448 kJ/mol
# Density = 1.998896 g / cm^3
# Si number density = 20.034563 Si / 1000 Ang^3
#
#
#
# Elastic Constant Matrix: (Units=GPa)
#
#
# Indices 1 2 3 4 5 6 
#
# 1 93.1837 33.7212 36.8857 0.0000 8.2684 0.0000
# 2 33.7212 80.3221 31.8167 0.0000 3.4291 0.0000
# 3 36.8857 31.8167 98.5193 0.0000 5.7802 0.0000
# 4 0.0000 0.0000 0.0000 18.1754 0.0000 -1.0136
# 5 8.2684 3.4291 5.7802 0.0000 27.4300 0.0000
# 6 0.0000 0.0000 0.0000 -1.0136 0.0000 29.5458
#
#
#
# Elastic Compliance Matrix: (Units=1/GPa)
#
#
# Indices 1 2 3 4 5 6 
#
# 1 0.014002 -0.004295 -0.003685 0.000000 -0.002907 0.000000
# 2 -0.004295 0.015612 -0.003438 0.000000 0.000067 0.000000
# 3 -0.003685 -0.003438 0.012707 0.000000 -0.001137 0.000000
# 4 0.000000 0.000000 0.000000 0.055125 0.000000 0.001891
# 5 -0.002907 0.000067 -0.001137 0.000000 0.037564 0.000000
# 6 0.000000 0.000000 0.000000 0.001891 0.000000 0.033911
#
#
# Mechanical properties :
#
#
# Convention : Reuss Voigt Hill
#
# Bulk Modulus (GPa) = 51.31878 52.98581 52.15230
# Shear Modulus (GPa) = 25.22059 26.33701 25.77880
#
# Velocity S-wave (km/s) = 3.55188 3.62965 3.59097
# Velocity P-wave (km/s) = 6.51858 6.63855 6.57884
#
# Compressibility (1/GPa) = 0.01948604
#
# Stress axis : x y z
#
# Youngs Moduli (GPa) = 71.41702 64.05417 78.69748
#
# Poissons Ratio (x) = 0.27509 0.28999
# Poissons Ratio (y) = 0.30672 0.27055
# Poissons Ratio (z) = 0.26317 0.22021
#
# Static dielectric constant tensor:
#      x y z
#    x 1.737120 0.000000 0.030780 
#    y 0.000000 1.721880 0.000000 
#    z 0.030780 0.000000 1.725480 
# 
# From -- ./inp_files/244535.got.cif
#   From: 2010.05.17/outbox.cif.g08.bks.cpg/sg15_123_cif.got.tgz:244535.got - 2010.06.03 18:47:42.
