data_PCOD9288852
_publ_section_title
;
Structure prediction by ZEFSAII (Michael W. Deem and Ramdas Pophale) SiO2 
 PCOD9288852
Probable space group: C 2/C
;
_chemical_formula_sum "Si O2"
_cell_formula_units_Z 40
_cell_length_a 13.886940
_cell_length_b 16.130459
_cell_length_c 13.773246
_cell_angle_alpha 90.000000
_cell_angle_beta 32.913120
_cell_angle_gamma 90.000000
_cell_volume 1676.419125
_symmetry_space_group_name_H-M "C 2/C"
_symmetry_group_IT_number 15
_symmetry_cell_setting 'monoclinic'
loop_
_space_group_symop_operation_xyz
x,y,z
-x,y,1/2-z
-x,-y,-z
x,-y,1/2+z
1/2+x,1/2+y,z
1/2-x,1/2+y,1/2-z
1/2-x,1/2-y,-z
1/2+x,1/2-y,1/2+z
loop_
_atom_site_type_symbol
_atom_site_label
_atom_site_fract_x
_atom_site_fract_y
_atom_site_fract_z
Si Si1 0.367886 0.938987 0.272728
Si Si2 0.632856 0.577439 0.404853
Si Si3 0.978172 0.826842 0.882904
Si Si4 0.415264 0.290366 0.216403
Si Si5 0.026953 0.669481 0.980030
O O1 0.500000 0.934752 0.250000
O O2 0.461434 0.912230 0.093484
O O3 0.204587 0.874621 0.433952
O O4 0.294501 0.031242 0.318469
O O5 0.500000 0.500000 0.500000
O O6 0.637102 0.618132 0.294134
O O7 0.539024 0.645704 0.552013
O O8 0.991216 0.739668 0.927319
O O9 0.000000 0.817716 0.750000
O O10 0.500000 0.282642 0.250000
O O11 0.218395 0.324671 0.371084
O O12 0.405890 0.201608 0.170230
#
# Coordination Sequence:
#
# PCOD9288852 Si02
#       5
#     8   8   8   8   8
#     4  11  23  41  68  98 135 176 220 274 336 393
#     4   9  19  43  60  92 131 171 221 263 320 395
#     4  10  22  39  66  93 131 174 220 271 336 388
#     4  11  23  41  71  96 134 178 222 273 334 392
#     4  11  21  41  65 102 134 169 219 278 328 401
#
# _framework density 23.860382000000001
#
# number of rings (size 3 to 8) (size 9 to 14) (size 15 to 20)
#    0.000    1.600    6.000    1.200    2.800    4.800 
#    0.000    9.000    0.000    0.000    0.000    0.000 
#    0.000    0.000    0.000    0.000    0.000    0.000 
#
# Total GULP energy -111784.464327 kJ/mol
# GULP energy per Si atom -5589.223216 kJ/mol
# Density = 2.380607 g / cm^3
# Si number density = 23.860382 Si / 1000 Ang^3
#
#
#
# Elastic Constant Matrix: (Units=GPa)
#
#
# Indices 1 2 3 4 5 6 
#
# 1 199.5790 27.7087 21.3310 0.0005 3.7596 0.0004
# 2 27.7087 97.9519 13.3096 0.0006 -1.9970 0.0003
# 3 21.3310 13.3096 52.9274 0.0032 -4.3435 0.0008
# 4 0.0005 0.0006 0.0032 36.0984 -0.0007 -10.4615
# 5 3.7596 -1.9970 -4.3435 -0.0007 46.5588 0.0000
# 6 0.0004 0.0003 0.0008 -10.4615 0.0000 16.8257
#
#
#
# Elastic Compliance Matrix: (Units=1/GPa)
#
#
# Indices 1 2 3 4 5 6 
#
# 1 0.005406 -0.001283 -0.001911 0.000000 -0.000670 0.000000
# 2 -0.001283 0.010877 -0.002188 0.000000 0.000366 0.000000
# 3 -0.001911 -0.002188 0.020375 -0.000002 0.001961 -0.000002
# 4 0.000000 0.000000 -0.000002 0.033791 0.000000 0.021010
# 5 -0.000670 0.000366 0.001961 0.000000 0.021731 0.000000
# 6 0.000000 0.000000 -0.000002 0.021010 0.000000 0.072496
#
#
# Mechanical properties :
#
#
# Convention : Reuss Voigt Hill
#
# Bulk Modulus (GPa) = 38.61976 52.79518 45.70747
# Shear Modulus (GPa) = 27.16355 39.10385 33.13370
#
# Velocity S-wave (km/s) = 3.37773 4.05268 3.73050
# Velocity P-wave (km/s) = 5.60651 6.63880 6.14437
#
# Compressibility (1/GPa) = 0.02589348
#
# Stress axis : x y z
#
# Youngs Moduli (GPa) = 184.99533 91.93850 49.07949
#
# Poissons Ratio (x) = 0.11797 0.09378
# Poissons Ratio (y) = 0.23737 0.10739
# Poissons Ratio (z) = 0.35350 0.20116
#
# Static dielectric constant tensor:
#      x y z
#    x 1.866900 0.000000 -0.078210 
#    y 0.000000 1.932610 0.000000 
#    z -0.078210 0.000000 2.107620 
# 
# From -- ./inp_files/38039.got.cif
#   From: 2010.05.17/outbox.cif.g08.bks.cpg/sg15_20_cif.got.tgz:38039.got - 2010.06.03 18:47:42.
