data_PCOD9288233
_publ_section_title
;
Structure prediction by ZEFSAII (Michael W. Deem and Ramdas Pophale) SiO2 
 PCOD9288233
Probable space group: C 2/C
;
_chemical_formula_sum "Si O2"
_cell_formula_units_Z 56
_cell_length_a 5.037092
_cell_length_b 27.683854
_cell_length_c 19.581064
_cell_angle_alpha 90.000000
_cell_angle_beta 106.406590
_cell_angle_gamma 90.000000
_cell_volume 2619.321372
_symmetry_space_group_name_H-M "C 2/C"
_symmetry_group_IT_number 15
_symmetry_cell_setting 'monoclinic'
loop_
_space_group_symop_operation_xyz
x,y,z
-x,y,1/2-z
-x,-y,-z
x,-y,1/2+z
1/2+x,1/2+y,z
1/2-x,1/2+y,1/2-z
1/2-x,1/2-y,-z
1/2+x,1/2-y,1/2+z
loop_
_atom_site_type_symbol
_atom_site_label
_atom_site_fract_x
_atom_site_fract_y
_atom_site_fract_z
Si Si1 0.188949 0.529964 0.199106
Si Si2 0.500000 0.753416 0.250000
Si Si3 0.669329 0.714143 0.391558
Si Si4 0.463581 0.294778 0.021222
Si Si5 0.000000 0.813147 0.250000
Si Si6 0.689866 0.864908 0.696868
Si Si7 0.178799 0.877864 0.385072
Si Si8 0.395088 0.930933 0.162688
O O1 0.500000 0.518194 0.250000
O O2 0.182841 0.581712 0.161425
O O3 0.024332 0.484098 0.158077
O O4 0.000000 0.541695 0.250000
O O5 0.448667 0.726044 0.316964
O O6 0.223402 0.783681 0.223785
O O7 0.556684 0.690894 0.452172
O O8 0.860248 0.676832 0.362968
O O9 0.787143 0.766135 0.423530
O O10 0.354725 0.340623 0.055126
O O11 0.250000 0.250000 0.000000
O O12 0.150373 0.845604 0.315507
O O13 0.500000 0.858842 0.750000
O O14 0.000000 0.863064 0.750000
O O15 0.473381 0.901172 0.390581
O O16 0.930166 0.917596 0.363289
O O17 0.500000 0.920632 0.250000
#
# Coordination Sequence:
#
# PCOD9288233 Si02
#       8
#     8   4   8   8   4   8   8   8
#     4   9  18  35  57  91 131 157 193 261 326 376
#     4  12  24  38  64  89 122 157 208 272 304 362
#     4  11  25  41  64  90 124 168 212 261 314 374
#     4  11  27  44  60  87 130 179 209 255 320 381
#     4  12  22  36  54  91 120 159 200 258 306 358
#     4  10  22  38  65  97 124 160 210 264 320 367
#     4  12  23  36  59  85 124 162 205 246 305 377
#     4  11  20  35  59  93 122 158 199 256 314 369
#
# _framework density 21.379584000000001
#
# number of rings (size 3 to 8) (size 9 to 14) (size 15 to 20)
#    0.000    1.143    3.571    3.429    7.000    0.000 
#    0.000    0.000    0.000    1.714    0.000    0.000 
#    0.000    0.000    0.000    0.000    0.000    0.000 
#
# Total GULP energy -155944.032633 kJ/mol
# GULP energy per Si atom -5569.429737 kJ/mol
# Density = 2.133092 g / cm^3
# Si number density = 21.379584 Si / 1000 Ang^3
#
#
#
# Elastic Constant Matrix: (Units=GPa)
#
#
# Indices 1 2 3 4 5 6 
#
# 1 98.5563 9.6241 15.3233 0.0000 -19.2281 0.0000
# 2 9.6241 90.3065 23.9251 0.0000 -18.8829 0.0000
# 3 15.3233 23.9251 86.0658 0.0000 -35.2660 0.0000
# 4 0.0000 0.0000 0.0000 26.2519 0.0000 -8.5882
# 5 -19.2281 -18.8829 -35.2660 0.0000 34.6724 0.0000
# 6 0.0000 0.0000 0.0000 -8.5882 0.0000 34.8014
#
#
#
# Elastic Compliance Matrix: (Units=1/GPa)
#
#
# Indices 1 2 3 4 5 6 
#
# 1 0.011424 0.000065 0.000958 0.000000 0.007345 0.000000
# 2 0.000065 0.012566 -0.001176 0.000000 0.005684 0.000000
# 3 0.000958 -0.001176 0.020113 0.000000 0.020348 0.000000
# 4 0.000000 0.000000 0.000000 0.041438 0.000000 0.010226
# 5 0.007345 0.005684 0.020348 0.000000 0.056706 0.000000
# 6 0.000000 0.000000 0.000000 0.010226 0.000000 0.031258
#
#
# Mechanical properties :
#
#
# Convention : Reuss Voigt Hill
#
# Bulk Modulus (GPa) = 22.83301 41.40819 32.12060
# Shear Modulus (GPa) = 26.53751 34.21553 30.37652
#
# Velocity S-wave (km/s) = 3.52697 4.00482 3.77346
# Velocity P-wave (km/s) = 5.22389 6.38709 5.83455
#
# Compressibility (1/GPa) = 0.04379624
#
# Stress axis : x y z
#
# Youngs Moduli (GPa) = 87.53342 79.57679 49.71859
#
# Poissons Ratio (x) = -0.00514 -0.04761
# Poissons Ratio (y) = -0.00565 0.05847
# Poissons Ratio (z) = -0.08382 0.09358
#
# Static dielectric constant tensor:
#      x y z
#    x 1.855040 0.000000 0.027680 
#    y 0.000000 1.939200 0.000000 
#    z 0.027680 0.000000 1.818580 
# 
# From -- ./inp_files/186586.got.cif
#   From: 2010.05.17/outbox.cif.g08.bks.cpg/sg15_94_cif.got.tgz:186586.got - 2010.06.03 18:47:42.
