data_PCOD9288474
_publ_section_title
;
Structure prediction by ZEFSAII (Michael W. Deem and Ramdas Pophale) SiO2 
 PCOD9288474
Probable space group: C 2/C
;
_chemical_formula_sum "Si O2"
_cell_formula_units_Z 44
_cell_length_a 10.153914
_cell_length_b 22.580949
_cell_length_c 8.970643
_cell_angle_alpha 90.000000
_cell_angle_beta 97.373686
_cell_angle_gamma 90.000000
_cell_volume 2039.824421
_symmetry_space_group_name_H-M "C 2/C"
_symmetry_group_IT_number 15
_symmetry_cell_setting 'monoclinic'
loop_
_space_group_symop_operation_xyz
x,y,z
-x,y,1/2-z
-x,-y,-z
x,-y,1/2+z
1/2+x,1/2+y,z
1/2-x,1/2+y,1/2-z
1/2-x,1/2-y,-z
1/2+x,1/2-y,1/2+z
loop_
_atom_site_type_symbol
_atom_site_label
_atom_site_fract_x
_atom_site_fract_y
_atom_site_fract_z
Si Si1 0.674568 0.543439 0.514599
Si Si2 0.373410 0.826841 0.620460
Si Si3 0.731785 0.333533 0.895269
Si Si4 0.000000 0.972363 0.250000
Si Si5 0.088058 0.541999 0.409696
Si Si6 0.971512 0.259641 0.077132
O O1 0.743445 0.598858 0.446158
O O2 0.584936 0.513353 0.374125
O O3 0.591577 0.563331 0.647917
O O4 0.776019 0.493970 0.588748
O O5 0.500000 0.824666 0.750000
O O6 0.252388 0.825539 0.720203
O O7 0.378937 0.890583 0.538740
O O8 0.403045 0.774549 0.508684
O O9 0.591091 0.306006 0.924705
O O10 0.849774 0.298523 0.994621
O O11 0.000000 0.547716 0.250000
O O12 0.000000 0.500000 0.500000
O O13 0.000000 0.277827 0.250000
#
# Coordination Sequence:
#
# PCOD9288474 Si02
#       6
#     8   8   8   4   8   8
#     4  11  22  41  61  92 126 165 208 246 310 372
#     4   9  19  38  60  87 122 158 190 250 318 357
#     4  10  22  41  60  84 122 160 198 252 299 362
#     4  10  24  40  60  88 128 168 206 246 290 382
#     4  11  21  35  63  93 124 154 195 258 314 365
#     4  10  22  39  60  88 115 154 207 253 297 359
#
# _framework density 21.570485000000001
#
# number of rings (size 3 to 8) (size 9 to 14) (size 15 to 20)
#    0.000    1.818    0.000    5.455    1.273    5.091 
#    8.182    0.000    0.000    0.000    0.000    0.000 
#    0.000    0.000    0.000    0.000    0.000    0.000 
#
# Total GULP energy -122766.434068 kJ/mol
# GULP energy per Si atom -5580.292458 kJ/mol
# Density = 2.152139 g / cm^3
# Si number density = 21.570485 Si / 1000 Ang^3
#
#
#
# Elastic Constant Matrix: (Units=GPa)
#
#
# Indices 1 2 3 4 5 6 
#
# 1 65.4710 18.2667 26.7130 0.0000 -8.3330 0.0000
# 2 18.2667 66.3478 17.6188 0.0000 -5.9535 0.0000
# 3 26.7130 17.6188 103.9099 0.0000 -14.3804 0.0000
# 4 0.0000 0.0000 0.0000 27.4050 0.0000 -3.6931
# 5 -8.3330 -5.9535 -14.3804 0.0000 36.0580 0.0000
# 6 0.0000 0.0000 0.0000 -3.6931 0.0000 15.2888
#
#
#
# Elastic Compliance Matrix: (Units=1/GPa)
#
#
# Indices 1 2 3 4 5 6 
#
# 1 0.018122 -0.003814 -0.003725 0.000000 0.002073 0.000000
# 2 -0.003814 0.016676 -0.001681 0.000000 0.001202 0.000000
# 3 -0.003725 -0.001681 0.011334 0.000000 0.003382 0.000000
# 4 0.000000 0.000000 0.000000 0.037718 0.000000 0.009111
# 5 0.002073 0.001202 0.003382 0.000000 0.029759 0.000000
# 6 0.000000 0.000000 0.000000 0.009111 0.000000 0.067608
#
#
# Mechanical properties :
#
#
# Convention : Reuss Voigt Hill
#
# Bulk Modulus (GPa) = 36.11090 40.10287 38.10688
# Shear Modulus (GPa) = 23.93625 27.29236 25.61430
#
# Velocity S-wave (km/s) = 3.33479 3.56091 3.44971
# Velocity P-wave (km/s) = 5.62183 5.96144 5.79412
#
# Compressibility (1/GPa) = 0.02769247
#
# Stress axis : x y z
#
# Youngs Moduli (GPa) = 55.18214 59.96519 88.22692
#
# Poissons Ratio (x) = 0.22871 0.32866
# Poissons Ratio (y) = 0.21047 0.14829
# Poissons Ratio (z) = 0.20556 0.10079
#
# Static dielectric constant tensor:
#      x y z
#    x 1.858120 0.000000 -0.051140 
#    y 0.000000 1.803960 0.000000 
#    z -0.051140 0.000000 1.793470 
# 
# From -- ./inp_files/31396.got.cif
#   From: 2010.05.17/outbox.cif.g08.bks.cpg/sg15_16_cif.got.tgz:31396.got - 2010.06.03 18:47:42.
