data_PCOD9288851
_publ_section_title
;
Structure prediction by ZEFSAII (Michael W. Deem and Ramdas Pophale) SiO2 
 PCOD9288851
Probable space group: C 2/C
;
_chemical_formula_sum "Si O2"
_cell_formula_units_Z 64
_cell_length_a 10.758378
_cell_length_b 16.191322
_cell_length_c 17.681890
_cell_angle_alpha 90.000000
_cell_angle_beta 101.348659
_cell_angle_gamma 90.000000
_cell_volume 3019.828728
_symmetry_space_group_name_H-M "C 2/C"
_symmetry_group_IT_number 15
_symmetry_cell_setting 'monoclinic'
loop_
_space_group_symop_operation_xyz
x,y,z
-x,y,1/2-z
-x,-y,-z
x,-y,1/2+z
1/2+x,1/2+y,z
1/2-x,1/2+y,1/2-z
1/2-x,1/2-y,-z
1/2+x,1/2-y,1/2+z
loop_
_atom_site_type_symbol
_atom_site_label
_atom_site_fract_x
_atom_site_fract_y
_atom_site_fract_z
Si Si1 0.926144 0.411490 0.318182
Si Si2 0.744404 0.686573 0.395308
Si Si3 0.842403 0.350143 0.550003
Si Si4 0.672564 0.135641 0.933128
Si Si5 0.978832 0.875826 0.836648
Si Si6 0.434321 0.900511 0.821209
Si Si7 0.365577 0.514754 0.442615
Si Si8 0.684506 0.772904 0.115301
O O1 0.037291 0.400190 0.393359
O O2 0.000000 0.390008 0.250000
O O3 0.884278 0.506017 0.309191
O O4 0.814224 0.350260 0.328390
O O5 0.704542 0.781789 0.389946
O O6 0.823944 0.666348 0.479975
O O7 0.619380 0.630908 0.387398
O O8 0.823243 0.660531 0.331773
O O9 0.721575 0.412243 0.531251
O O10 0.808146 0.277974 0.606056
O O11 0.862940 0.307228 0.471820
O O12 0.959947 0.397602 0.600293
O O13 0.779217 0.066461 0.932239
O O14 0.000000 0.878327 0.750000
O O15 0.908456 0.792983 0.856562
O O16 0.901060 0.950955 0.863638
O O17 0.500000 0.880276 0.750000
O O18 0.500000 0.500000 0.500000
#
# Coordination Sequence:
#
# PCOD9288851 Si02
#       8
#     8   8   8   8   8   8   8   8
#     4  11  23  39  63  95 127 169 216 265 318 384
#     4  11  25  40  66  95 129 173 217 267 327 387
#     4  10  23  40  64  93 129 171 211 271 322 383
#     4  11  23  41  64  96 129 165 220 269 314 386
#     4  11  24  41  69  95 130 175 217 266 327 391
#     4  11  26  41  61  95 134 170 211 269 332 382
#     4  11  23  42  67  94 130 172 217 270 323 390
#     4  10  22  39  66  93 124 165 221 259 317 382
#
# _framework density 21.193256000000002
#
# number of rings (size 3 to 8) (size 9 to 14) (size 15 to 20)
#    0.000    1.250    3.750    1.125    7.000    2.000 
#    0.000    0.625    0.000    0.000    0.000    0.000 
#    0.000    0.000    0.000    0.000    0.000    0.000 
#
# Total GULP energy -178796.911950 kJ/mol
# GULP energy per Si atom -5587.403498 kJ/mol
# Density = 2.114502 g / cm^3
# Si number density = 21.193256 Si / 1000 Ang^3
#
#
#
# Elastic Constant Matrix: (Units=GPa)
#
#
# Indices 1 2 3 4 5 6 
#
# 1 48.0861 28.4662 -0.2932 0.0000 -15.0127 0.0000
# 2 28.4662 101.2363 29.4096 0.0000 -34.0082 0.0000
# 3 -0.2932 29.4096 65.0209 0.0000 -26.8048 0.0000
# 4 0.0000 0.0000 0.0000 24.1564 0.0000 -2.5575
# 5 -15.0127 -34.0082 -26.8048 0.0000 41.6065 0.0000
# 6 0.0000 0.0000 0.0000 -2.5575 0.0000 2.2402
#
#
#
# Elastic Compliance Matrix: (Units=1/GPa)
#
#
# Indices 1 2 3 4 5 6 
#
# 1 0.027606 -0.006785 0.006827 0.000000 0.008813 0.000000
# 2 -0.006785 0.015506 -0.003851 0.000000 0.007745 0.000000
# 3 0.006827 -0.003851 0.022971 0.000000 0.014114 0.000000
# 4 0.000000 0.000000 0.000000 0.047088 0.000000 0.053758
# 5 0.008813 0.007745 0.014114 0.000000 0.042638 0.000000
# 6 0.000000 0.000000 0.000000 0.053758 0.000000 0.507766
#
#
# Mechanical properties :
#
#
# Convention : Reuss Voigt Hill
#
# Bulk Modulus (GPa) = 17.10465 36.61203 26.85834
# Shear Modulus (GPa) = 7.23921 24.05133 15.64527
#
# Velocity S-wave (km/s) = 1.85020 3.37242 2.71997
# Velocity P-wave (km/s) = 3.55705 5.69887 4.75025
#
# Compressibility (1/GPa) = 0.05846364
#
# Stress axis : x y z
#
# Youngs Moduli (GPa) = 36.22445 64.48968 43.53312
#
# Poissons Ratio (x) = 0.43756 -0.29718
# Poissons Ratio (y) = 0.24578 0.16766
# Poissons Ratio (z) = -0.24729 0.24837
#
# Static dielectric constant tensor:
#      x y z
#    x 1.757600 0.000000 0.010070 
#    y 0.000000 1.753760 0.000000 
#    z 0.010070 0.000000 1.792000 
# 
# From -- ./inp_files/198343.got.cif
#   From: 2010.05.17/outbox.cif.g08.bks.cpg/sg15_100_cif.got.tgz:198343.got - 2010.06.03 18:47:42.
