data_PCOD9288570
_publ_section_title
;
Structure prediction by ZEFSAII (Michael W. Deem and Ramdas Pophale) SiO2 
 PCOD9288570
Probable space group: C 2/C
;
_chemical_formula_sum "Si O2"
_cell_formula_units_Z 56
_cell_length_a 7.872348
_cell_length_b 25.778104
_cell_length_c 14.316635
_cell_angle_alpha 90.000000
_cell_angle_beta 120.416364
_cell_angle_gamma 90.000000
_cell_volume 2505.471108
_symmetry_space_group_name_H-M "C 2/C"
_symmetry_group_IT_number 15
_symmetry_cell_setting 'monoclinic'
loop_
_space_group_symop_operation_xyz
x,y,z
-x,y,1/2-z
-x,-y,-z
x,-y,1/2+z
1/2+x,1/2+y,z
1/2-x,1/2+y,1/2-z
1/2-x,1/2-y,-z
1/2+x,1/2-y,1/2+z
loop_
_atom_site_type_symbol
_atom_site_label
_atom_site_fract_x
_atom_site_fract_y
_atom_site_fract_z
Si Si1 0.720968 0.983079 0.643581
Si Si2 0.796113 0.441904 0.512435
Si Si3 0.428911 0.827684 0.510658
Si Si4 0.127705 0.702979 0.875954
Si Si5 0.965324 0.069063 0.380177
Si Si6 0.387643 0.751619 0.633960
Si Si7 0.502100 0.688976 0.084732
O O1 0.488245 0.975937 0.592819
O O2 0.831050 0.962020 0.766738
O O3 0.813784 0.948734 0.584486
O O4 0.761817 0.039409 0.608494
O O5 0.883013 0.384142 0.533170
O O6 0.624328 0.443249 0.542429
O O7 0.533937 0.824688 0.441045
O O8 0.528101 0.789625 0.614081
O O9 0.227545 0.795225 0.444851
O O10 0.096390 0.764844 0.882340
O O11 0.000000 0.688075 0.750000
O O12 0.357667 0.688216 0.952857
O O13 0.971732 0.131191 0.369542
O O14 0.500000 0.727038 0.750000
O O15 0.218345 0.788974 0.627386
#
# Coordination Sequence:
#
# PCOD9288570 Si02
#       7
#     8   8   8   8   8   8   8
#     4  10  25  40  66 102 127 170 236 278 349 400
#     4  11  22  45  68  92 135 180 220 294 338 403
#     4  10  22  40  62  93 130 172 228 266 332 415
#     4  10  23  41  62  97 141 178 217 282 335 409
#     4  11  22  43  68 100 131 174 224 289 333 409
#     4  10  22  39  61  98 131 171 218 271 323 410
#     4  10  22  39  65  96 130 178 226 268 337 403
#
# _framework density 22.351087
#
# number of rings (size 3 to 8) (size 9 to 14) (size 15 to 20)
#    0.000    1.714    1.429    1.714    4.000    9.143 
#    2.571    4.286    0.000    0.000    0.000    0.000 
#    0.000    0.000    0.000    0.000    0.000    0.000 
#
# Total GULP energy -156050.293525 kJ/mol
# GULP energy per Si atom -5573.224769 kJ/mol
# Density = 2.230021 g / cm^3
# Si number density = 22.351087 Si / 1000 Ang^3
#
#
#
# Elastic Constant Matrix: (Units=GPa)
#
#
# Indices 1 2 3 4 5 6 
#
# 1 107.8908 -0.2201 -1.5279 0.0000 -13.3696 0.0000
# 2 -0.2201 45.4729 2.5188 0.0000 -10.5482 0.0000
# 3 -1.5279 2.5188 90.9757 0.0000 0.2727 0.0000
# 4 0.0000 0.0000 0.0000 6.9933 0.0000 -13.3359
# 5 -13.3696 -10.5482 0.2727 0.0000 24.1168 0.0000
# 6 0.0000 0.0000 0.0000 -13.3359 0.0000 5.1568
#
#
#
# Elastic Compliance Matrix: (Units=1/GPa)
#
#
# Indices 1 2 3 4 5 6 
#
# 1 0.010043 0.001484 0.000109 0.000000 0.006216 0.000000
# 2 0.001484 0.024740 -0.000695 0.000000 0.011651 0.000000
# 3 0.000109 -0.000695 0.011014 0.000000 -0.000368 0.000000
# 4 0.000000 0.000000 0.000000 -0.036371 0.000000 -0.094058
# 5 0.006216 0.011651 -0.000368 0.000000 0.050011 0.000000
# 6 0.000000 0.000000 0.000000 -0.094058 0.000000 -0.049323
#
#
# Mechanical properties :
#
#
# Convention : Reuss Voigt Hill
#
# Bulk Modulus (GPa) = 21.01103 27.32011 24.16557
# Shear Modulus (GPa) = 206.76772 23.49127 115.12950
#
# Velocity S-wave (km/s) = 9.62860 3.24545 7.18480
# Velocity P-wave (km/s) = 11.53404 5.12773 8.92546
#
# Compressibility (1/GPa) = 0.04759405
#
# Stress axis : x y z
#
# Youngs Moduli (GPa) = 99.56736 40.42108 90.79254
#
# Poissons Ratio (x) = -0.06000 -0.00989
# Poissons Ratio (y) = -0.14780 0.06310
# Poissons Ratio (z) = -0.01085 0.02809
#
# Static dielectric constant tensor:
#      x y z
#    x 1.923590 0.000000 -0.086150 
#    y 0.000000 1.842010 0.000000 
#    z -0.086150 0.000000 2.072400 
# 
# From -- ./inp_files/138694.got.cif
#   From: 2010.05.17/outbox.cif.g08.bks.cpg/sg15_70_cif.got.tgz:138694.got - 2010.06.03 18:47:42.
