data_PCOD9288767
_publ_section_title
;
Structure prediction by ZEFSAII (Michael W. Deem and Ramdas Pophale) SiO2 
 PCOD9288767
Probable space group: C 2/C
;
_chemical_formula_sum "Si O2"
_cell_formula_units_Z 60
_cell_length_a 15.067219
_cell_length_b 11.308961
_cell_length_c 18.399524
_cell_angle_alpha 90.000000
_cell_angle_beta 64.964881
_cell_angle_gamma 90.000000
_cell_volume 2840.624819
_symmetry_space_group_name_H-M "C 2/C"
_symmetry_group_IT_number 15
_symmetry_cell_setting 'monoclinic'
loop_
_space_group_symop_operation_xyz
x,y,z
-x,y,1/2-z
-x,-y,-z
x,-y,1/2+z
1/2+x,1/2+y,z
1/2-x,1/2+y,1/2-z
1/2-x,1/2-y,-z
1/2+x,1/2-y,1/2+z
loop_
_atom_site_type_symbol
_atom_site_label
_atom_site_fract_x
_atom_site_fract_y
_atom_site_fract_z
Si Si1 0.798808 0.680788 0.875934
Si Si2 0.482059 0.247982 0.013995
Si Si3 0.185344 0.409496 0.966385
Si Si4 0.620988 0.589604 0.849159
Si Si5 0.606520 0.382436 0.191425
Si Si6 0.500000 0.752360 0.250000
Si Si7 0.528954 0.417141 0.607627
Si Si8 0.290533 0.809909 0.058738
O O1 0.761573 0.817049 0.901590
O O2 0.721121 0.616072 0.852960
O O3 0.902014 0.677570 0.799858
O O4 0.806410 0.619442 0.951269
O O5 0.430799 0.334258 0.970609
O O6 0.598863 0.235694 0.964229
O O7 0.422523 0.127600 0.023446
O O8 0.450517 0.301655 0.102675
O O9 0.201654 0.547439 0.948351
O O10 0.634067 0.561744 0.759778
O O11 0.561824 0.479331 0.900173
O O12 0.500000 0.329875 0.250000
O O13 0.586117 0.478620 0.132983
O O14 0.696241 0.295283 0.144042
O O15 0.508946 0.669961 0.317265
O O16 0.250000 0.750000 0.000000
#
# Coordination Sequence:
#
# PCOD9288767 Si02
#       8
#     8   8   8   8   8   4   8   8
#     4  10  23  38  67  96 130 171 219 280 325 393
#     4  11  24  42  66  96 130 176 223 270 331 406
#     4  10  23  43  63  92 135 174 216 275 334 387
#     4  10  22  39  64  96 131 167 220 275 328 382
#     4  10  22  41  63  94 132 169 214 277 327 375
#     4  12  20  38  64  96 128 168 224 266 334 382
#     4  11  21  39  68  94 127 171 222 275 313 398
#     4  12  26  41  69  96 131 178 222 273 334 402
#
# _framework density 21.122112999999999
#
# number of rings (size 3 to 8) (size 9 to 14) (size 15 to 20)
#    0.000    1.333    3.333    3.200    7.467    0.000 
#    0.000    0.000    4.400    0.000    0.000    0.000 
#    0.000    0.000    0.000    0.000    0.000    0.000 
#
# Total GULP energy -167180.607961 kJ/mol
# GULP energy per Si atom -5572.686932 kJ/mol
# Density = 2.107404 g / cm^3
# Si number density = 21.122113 Si / 1000 Ang^3
#
#
#
# Elastic Constant Matrix: (Units=GPa)
#
#
# Indices 1 2 3 4 5 6 
#
# 1 149.7239 35.6753 39.5122 0.0000 -26.2920 0.0000
# 2 35.6753 51.6440 3.7048 0.0000 9.7699 0.0000
# 3 39.5122 3.7048 67.3061 0.0000 -6.6645 0.0000
# 4 0.0000 0.0000 0.0000 26.0014 0.0000 3.5859
# 5 -26.2920 9.7699 -6.6645 0.0000 42.1027 0.0000
# 6 0.0000 0.0000 0.0000 3.5859 0.0000 37.8088
#
#
#
# Elastic Compliance Matrix: (Units=1/GPa)
#
#
# Indices 1 2 3 4 5 6 
#
# 1 0.011988 -0.009543 -0.005640 0.000000 0.008808 0.000000
# 2 -0.009543 0.028021 0.002871 0.000000 -0.012007 0.000000
# 3 -0.005640 0.002871 0.017876 0.000000 -0.001359 0.000000
# 4 0.000000 0.000000 0.000000 0.038969 0.000000 -0.003696
# 5 0.008808 -0.012007 -0.001359 0.000000 0.031823 0.000000
# 6 0.000000 0.000000 0.000000 -0.003696 0.000000 0.026799
#
#
# Mechanical properties :
#
#
# Convention : Reuss Voigt Hill
#
# Bulk Modulus (GPa) = 30.06557 47.38429 38.72493
# Shear Modulus (GPa) = 26.15243 33.83470 29.99356
#
# Velocity S-wave (km/s) = 3.52256 4.00667 3.77239
# Velocity P-wave (km/s) = 5.55064 6.62470 6.11132
#
# Compressibility (1/GPa) = 0.03326063
#
# Stress axis : x y z
#
# Youngs Moduli (GPa) = 83.41811 35.68772 55.94098
#
# Poissons Ratio (x) = 0.34056 0.31551
# Poissons Ratio (y) = 0.79603 -0.16059
# Poissons Ratio (z) = 0.47049 -0.10245
#
# Static dielectric constant tensor:
#      x y z
#    x 1.802800 0.000000 -0.092590 
#    y 0.000000 1.866030 0.000000 
#    z -0.092590 0.000000 1.724870 
# 
# From -- ./inp_files/204444.got.cif
#   From: 2010.05.17/outbox.cif.g08.bks.cpg/sg15_103_cif.got.tgz:204444.got - 2010.06.03 18:47:42.
