data_PCOD9288039
_publ_section_title
;
Structure prediction by ZEFSAII (Michael W. Deem and Ramdas Pophale) SiO2 
 PCOD9288039
Probable space group: C 2/C
;
_chemical_formula_sum "Si O2"
_cell_formula_units_Z 48
_cell_length_a 11.065568
_cell_length_b 12.446579
_cell_length_c 13.862318
_cell_angle_alpha 90.000000
_cell_angle_beta 76.630467
_cell_angle_gamma 90.000000
_cell_volume 1857.493546
_symmetry_space_group_name_H-M "C 2/C"
_symmetry_group_IT_number 15
_symmetry_cell_setting 'monoclinic'
loop_
_space_group_symop_operation_xyz
x,y,z
-x,y,1/2-z
-x,-y,-z
x,-y,1/2+z
1/2+x,1/2+y,z
1/2-x,1/2+y,1/2-z
1/2-x,1/2-y,-z
1/2+x,1/2-y,1/2+z
loop_
_atom_site_type_symbol
_atom_site_label
_atom_site_fract_x
_atom_site_fract_y
_atom_site_fract_z
Si Si1 0.401579 0.197283 0.550410
Si Si2 0.346395 0.780680 0.399325
Si Si3 0.176877 0.954074 0.635750
Si Si4 0.196875 0.153774 0.750663
Si Si5 0.371510 0.108055 0.233628
Si Si6 0.280256 0.586760 0.052490
O O1 0.532744 0.171904 0.572609
O O2 0.297663 0.182378 0.650820
O O3 0.386243 0.321791 0.523077
O O4 0.348800 0.129401 0.471518
O O5 0.250000 0.750000 0.500000
O O6 0.379884 0.664847 0.344525
O O7 0.277241 0.853879 0.333787
O O8 0.320682 0.938347 0.643137
O O9 0.132807 0.050177 0.714407
O O10 0.174382 0.991822 0.525273
O O11 0.118629 0.262755 0.779594
O O12 0.500000 0.064111 0.250000
O O13 0.260183 0.081743 0.329253
#
# Coordination Sequence:
#
# PCOD9288039 Si02
#       6
#     8   8   8   8   8   8
#     4   9  19  40  67  84 121 171 206 255 313 380
#     4  11  24  38  65  99 131 157 214 276 311 357
#     4  10  23  41  60  95 125 166 213 249 327 383
#     4   9  21  44  60  86 127 169 211 247 321 392
#     4  10  22  38  62  91 125 162 212 269 313 366
#     4   9  20  39  63  86 123 169 212 248 315 390
#
# _framework density 25.841275
#
# number of rings (size 3 to 8) (size 9 to 14) (size 15 to 20)
#    0.000    2.333    0.000    1.500    7.000    4.000 
#    0.000    5.000    0.000    0.000    0.000    0.000 
#    0.000    0.000    0.000    0.000    0.000    0.000 
#
# Total GULP energy -134172.892104 kJ/mol
# GULP energy per Si atom -5590.537171 kJ/mol
# Density = 2.578246 g / cm^3
# Si number density = 25.841275 Si / 1000 Ang^3
#
#
#
# Elastic Constant Matrix: (Units=GPa)
#
#
# Indices 1 2 3 4 5 6 
#
# 1 83.4729 -12.2079 1.5140 0.0000 16.1718 0.0000
# 2 -12.2079 127.9886 17.6347 0.0000 -0.6515 0.0000
# 3 1.5140 17.6347 95.4936 0.0000 20.5149 0.0000
# 4 0.0000 0.0000 0.0000 48.0073 0.0000 19.5351
# 5 16.1718 -0.6515 20.5149 0.0000 22.4331 0.0000
# 6 0.0000 0.0000 0.0000 19.5351 0.0000 4.2371
#
#
#
# Elastic Compliance Matrix: (Units=1/GPa)
#
#
# Indices 1 2 3 4 5 6 
#
# 1 0.014509 0.001007 0.002271 0.000000 -0.012507 0.000000
# 2 0.001007 0.008158 -0.001764 0.000000 0.001124 0.000000
# 3 0.002271 -0.001764 0.013844 0.000000 -0.014349 0.000000
# 4 0.000000 0.000000 0.000000 -0.023776 0.000000 0.109619
# 5 -0.012507 0.001124 -0.014349 0.000000 0.066747 0.000000
# 6 0.000000 0.000000 0.000000 0.109619 0.000000 -0.269388
#
#
# Mechanical properties :
#
#
# Convention : Reuss Voigt Hill
#
# Bulk Modulus (GPa) = 25.29107 35.64855 30.46981
# Shear Modulus (GPa) = -27.81575 34.93645 3.56035
#
# Velocity S-wave (km/s) = -3.28442 3.68089 1.17506
# Velocity P-wave (km/s) = 2.13891 5.64716 3.69564
#
# Compressibility (1/GPa) = 0.03953964
#
# Stress axis : x y z
#
# Youngs Moduli (GPa) = 68.92227 122.57840 72.23275
#
# Poissons Ratio (x) = -0.12348 -0.16402
# Poissons Ratio (y) = -0.06943 0.12741
# Poissons Ratio (z) = -0.15651 0.21622
#
# Static dielectric constant tensor:
#      x y z
#    x 1.956860 0.000000 0.014730 
#    y 0.000000 2.170670 0.000000 
#    z 0.014730 0.000000 2.099050 
# 
# From -- ./inp_files/143645.got.cif
#   From: 2010.05.17/outbox.cif.g08.bks.cpg/sg15_72_cif.got.tgz:143645.got - 2010.06.03 18:47:42.
