data_PCOD9288730
_publ_section_title
;
Structure prediction by ZEFSAII (Michael W. Deem and Ramdas Pophale) SiO2 
 PCOD9288730
Probable space group: C 2/C
;
_chemical_formula_sum "Si O2"
_cell_formula_units_Z 40
_cell_length_a 30.068930
_cell_length_b 12.393209
_cell_length_c 8.270448
_cell_angle_alpha 90.000000
_cell_angle_beta 36.906127
_cell_angle_gamma 90.000000
_cell_volume 1850.750793
_symmetry_space_group_name_H-M "C 2/C"
_symmetry_group_IT_number 15
_symmetry_cell_setting 'monoclinic'
loop_
_space_group_symop_operation_xyz
x,y,z
-x,y,1/2-z
-x,-y,-z
x,-y,1/2+z
1/2+x,1/2+y,z
1/2-x,1/2+y,1/2-z
1/2-x,1/2-y,-z
1/2+x,1/2-y,1/2+z
loop_
_atom_site_type_symbol
_atom_site_label
_atom_site_fract_x
_atom_site_fract_y
_atom_site_fract_z
Si Si1 0.268393 0.331889 0.236955
Si Si2 0.500000 0.565171 0.250000
Si Si3 0.915058 0.118995 0.186493
Si Si4 0.825433 0.390776 0.703609
Si Si5 0.618829 0.101726 0.128888
Si Si6 0.500000 0.199143 0.250000
O O1 0.245984 0.396144 0.466792
O O2 0.308687 0.220281 0.162422
O O3 0.187632 0.316514 0.392322
O O4 0.327494 0.392749 0.958031
O O5 0.451836 0.627709 0.257822
O O6 0.446943 0.486472 0.506492
O O7 0.942264 0.222151 0.007576
O O8 0.846281 0.486859 0.524058
O O9 0.889696 0.388404 0.653450
O O10 0.546118 0.129014 0.242545
#
# Coordination Sequence:
#
# PCOD9288730 Si02
#       6
#     8   4   8   8   8   4
#     4   9  22  42  66  93 124 167 216 265 318 382
#     4   9  22  40  57  98 124 166 217 262 325 386
#     4  10  22  39  64  89 130 169 212 268 322 373
#     4   9  22  43  63  97 122 169 213 266 319 372
#     4  10  23  44  65  95 131 166 221 264 318 388
#     4  11  26  42  59 102 130 178 209 264 323 388
#
# _framework density 21.612850999999999
#
# number of rings (size 3 to 8) (size 9 to 14) (size 15 to 20)
#    1.200    1.200    0.000    0.000    8.400    1.600 
#    7.200    0.000    0.000    0.000    0.000    0.000 
#    0.000    0.000    0.000    0.000    0.000    0.000 
#
# Total GULP energy -111440.394269 kJ/mol
# GULP energy per Si atom -5572.019713 kJ/mol
# Density = 2.156366 g / cm^3
# Si number density = 21.612851 Si / 1000 Ang^3
#
#
#
# Elastic Constant Matrix: (Units=GPa)
#
#
# Indices 1 2 3 4 5 6 
#
# 1 97.8860 19.9685 -19.0548 0.0000 -2.6902 0.0000
# 2 19.9685 49.9231 -22.5269 0.0000 -0.8588 0.0000
# 3 -19.0548 -22.5269 45.5330 0.0000 -8.0455 0.0000
# 4 0.0000 0.0000 0.0000 -15.3712 0.0000 15.2270
# 5 -2.6902 -0.8588 -8.0455 0.0000 16.3058 0.0000
# 6 0.0000 0.0000 0.0000 15.2270 0.0000 18.3424
#
#
#
# Elastic Compliance Matrix: (Units=1/GPa)
#
#
# Indices 1 2 3 4 5 6 
#
# 1 0.011700 -0.002696 0.004249 0.000000 0.003885 0.000000
# 2 -0.002696 0.027499 0.013863 0.000000 0.007844 0.000000
# 3 0.004249 0.013863 0.033798 0.000000 0.018108 0.000000
# 4 0.000000 0.000000 0.000000 -0.035699 0.000000 0.029636
# 5 0.003885 0.007844 0.018108 0.000000 0.071316 0.000000
# 6 0.000000 0.000000 0.000000 0.029636 0.000000 0.029916
#
#
# Mechanical properties :
#
#
# Convention : Reuss Voigt Hill
#
# Bulk Modulus (GPa) = 9.63116 16.67952 13.15534
# Shear Modulus (GPa) = 35.13487 18.18575 26.66031
#
# Velocity S-wave (km/s) = 4.03631 2.90389 3.51599
# Velocity P-wave (km/s) = 5.11744 4.35633 4.75215
#
# Compressibility (1/GPa) = 0.10382970
#
# Stress axis : x y z
#
# Youngs Moduli (GPa) = 85.47192 36.36457 29.58729
#
# Poissons Ratio (x) = 0.09803 -0.12572
# Poissons Ratio (y) = 0.23040 -0.41016
# Poissons Ratio (z) = -0.36317 -0.50412
#
# Static dielectric constant tensor:
#      x y z
#    x 1.831660 0.000000 -0.003320 
#    y 0.000000 1.768540 0.000000 
#    z -0.003320 0.000000 1.801880 
# 
# From -- ./inp_files/61163.got.cif
#   From: 2010.05.17/outbox.cif.g08.bks.cpg/sg15_31_cif.got.tgz:61163.got - 2010.06.03 18:47:42.
