data_PCOD9288259
_publ_section_title
;
Structure prediction by ZEFSAII (Michael W. Deem and Ramdas Pophale) SiO2 
 PCOD9288259
Probable space group: C 2/C
;
_chemical_formula_sum "Si O2"
_cell_formula_units_Z 48
_cell_length_a 17.663130
_cell_length_b 17.541286
_cell_length_c 7.888639
_cell_angle_alpha 90.000000
_cell_angle_beta 98.018915
_cell_angle_gamma 90.000000
_cell_volume 2420.269783
_symmetry_space_group_name_H-M "C 2/C"
_symmetry_group_IT_number 15
_symmetry_cell_setting 'monoclinic'
loop_
_space_group_symop_operation_xyz
x,y,z
-x,y,1/2-z
-x,-y,-z
x,-y,1/2+z
1/2+x,1/2+y,z
1/2-x,1/2+y,1/2-z
1/2-x,1/2-y,-z
1/2+x,1/2-y,1/2+z
loop_
_atom_site_type_symbol
_atom_site_label
_atom_site_fract_x
_atom_site_fract_y
_atom_site_fract_z
Si Si1 0.364573 0.805700 0.391080
Si Si2 0.224414 0.094783 0.824589
Si Si3 0.090097 0.195117 0.794638
Si Si4 0.333825 0.786985 0.992585
Si Si5 0.445544 0.054853 0.086436
Si Si6 0.303100 0.952374 0.017834
O O1 0.278005 0.834940 0.402356
O O2 0.389409 0.740601 0.527490
O O3 0.628685 0.787409 0.306862
O O4 0.414480 0.879155 0.456780
O O5 0.137376 0.116694 0.819468
O O6 0.248824 0.085438 0.639035
O O7 0.253110 0.015799 0.910665
O O8 0.123065 0.240104 0.640098
O O9 0.000000 0.186167 0.750000
O O10 0.250000 0.750000 0.000000
O O11 0.331245 0.876085 0.930915
O O12 0.500000 0.087160 0.250000
O O13 0.374192 0.000575 0.117967
O O14 0.500000 0.000000 0.000000
#
# Coordination Sequence:
#
# PCOD9288259 Si02
#       6
#     8   8   8   8   8   8
#     4  10  23  41  65  96 129 177 221 266 330 411
#     4  10  22  43  63  96 124 172 226 265 324 401
#     4  12  26  43  67  98 137 173 222 281 336 381
#     4  11  23  43  70  95 127 171 225 272 329 396
#     4  11  22  37  58  97 139 169 209 268 339 400
#     4  10  22  38  66  91 127 175 224 263 321 404
#
# _framework density 19.8325
#
# number of rings (size 3 to 8) (size 9 to 14) (size 15 to 20)
#    0.000    1.333    3.333    4.000    9.333    0.667 
#    3.000    0.833    0.000    0.000    0.000    0.000 
#    0.000    0.000    0.000    0.000    0.000    0.000 
#
# Total GULP energy -133975.576059 kJ/mol
# GULP energy per Si atom -5582.315669 kJ/mol
# Density = 1.978736 g / cm^3
# Si number density = 19.832500 Si / 1000 Ang^3
#
#
#
# Elastic Constant Matrix: (Units=GPa)
#
#
# Indices 1 2 3 4 5 6 
#
# 1 115.5272 45.3101 39.6877 0.0000 2.2518 0.0000
# 2 45.3101 78.1215 35.2135 0.0000 5.2554 0.0000
# 3 39.6877 35.2135 88.4416 0.0000 16.0730 0.0000
# 4 0.0000 0.0000 0.0000 12.7406 0.0000 4.7427
# 5 2.2518 5.2554 16.0730 0.0000 22.4689 0.0000
# 6 0.0000 0.0000 0.0000 4.7427 0.0000 25.9816
#
#
#
# Elastic Compliance Matrix: (Units=1/GPa)
#
#
# Indices 1 2 3 4 5 6 
#
# 1 0.012030 -0.005489 -0.003709 0.000000 0.002732 0.000000
# 2 -0.005489 0.018121 -0.004691 0.000000 -0.000332 0.000000
# 3 -0.003709 -0.004691 0.016750 0.000000 -0.010513 0.000000
# 4 0.000000 0.000000 0.000000 0.084212 0.000000 -0.015372
# 5 0.002732 -0.000332 -0.010513 0.000000 0.051830 0.000000
# 6 0.000000 0.000000 0.000000 -0.015372 0.000000 0.041295
#
#
# Mechanical properties :
#
#
# Convention : Reuss Voigt Hill
#
# Bulk Modulus (GPa) = 52.29746 58.05699 55.17722
# Shear Modulus (GPa) = 19.35052 23.03015 21.19033
#
# Velocity S-wave (km/s) = 3.12700 3.41138 3.27228
# Velocity P-wave (km/s) = 6.28207 6.69731 6.49301
#
# Compressibility (1/GPa) = 0.01912139
#
# Stress axis : x y z
#
# Youngs Moduli (GPa) = 83.12684 55.18384 59.70185
#
# Poissons Ratio (x) = 0.30291 0.22145
# Poissons Ratio (y) = 0.45629 0.28009
# Poissons Ratio (z) = 0.30834 0.25889
#
# Static dielectric constant tensor:
#      x y z
#    x 1.717130 0.000000 0.014850 
#    y 0.000000 1.759820 0.000000 
#    z 0.014850 0.000000 1.760800 
# 
# From -- ./inp_files/39644.got.cif
#   From: 2010.05.17/outbox.cif.g08.bks.cpg/sg15_20_cif.got.tgz:39644.got - 2010.06.03 18:47:42.
