data_PCOD9288288
_publ_section_title
;
Structure prediction by ZEFSAII (Michael W. Deem and Ramdas Pophale) SiO2 
 PCOD9288288
Probable space group: C 2/C
;
_chemical_formula_sum "Si O2"
_cell_formula_units_Z 52
_cell_length_a 20.872603
_cell_length_b 10.919521
_cell_length_c 16.170564
_cell_angle_alpha 90.000000
_cell_angle_beta 47.044920
_cell_angle_gamma 90.000000
_cell_volume 2697.429437
_symmetry_space_group_name_H-M "C 2/C"
_symmetry_group_IT_number 15
_symmetry_cell_setting 'monoclinic'
loop_
_space_group_symop_operation_xyz
x,y,z
-x,y,1/2-z
-x,-y,-z
x,-y,1/2+z
1/2+x,1/2+y,z
1/2-x,1/2+y,1/2-z
1/2-x,1/2-y,-z
1/2+x,1/2-y,1/2+z
loop_
_atom_site_type_symbol
_atom_site_label
_atom_site_fract_x
_atom_site_fract_y
_atom_site_fract_z
Si Si1 0.571700 0.983076 0.245288
Si Si2 0.334197 0.795250 0.879038
Si Si3 0.361933 0.226148 0.690482
Si Si4 0.939831 0.009135 0.135039
Si Si5 0.831254 0.779602 0.195291
Si Si6 0.501213 0.870874 0.544519
Si Si7 0.500000 0.620473 0.750000
O O1 0.500000 0.922274 0.250000
O O2 0.641278 0.062086 0.132271
O O3 0.520037 0.088732 0.343391
O O4 0.613052 0.884089 0.269737
O O5 0.314955 0.779657 0.798809
O O6 0.414884 0.706861 0.831468
O O7 0.250000 0.750000 0.000000
O O8 0.405493 0.353813 0.678347
O O9 0.257517 0.234747 0.776838
O O10 0.408396 0.192935 0.561238
O O11 0.858112 0.919752 0.187300
O O12 0.986293 0.956928 0.177291
O O13 0.000000 0.000000 0.000000
O O14 0.919644 0.712293 0.086042
O O15 0.500000 0.000000 0.500000
#
# Coordination Sequence:
#
# PCOD9288288 Si02
#       7
#     8   8   8   8   8   8   4
#     4  10  22  39  63  91 126 165 214 257 323 386
#     4  10  22  38  67  90 122 165 210 273 319 370
#     4  11  24  39  65  89 132 166 209 268 323 384
#     4  11  24  42  69  90 132 180 209 274 330 383
#     4  10  23  38  61  99 118 163 225 254 322 391
#     4   9  20  40  60  87 119 163 206 264 308 379
#     4  10  24  44  60  98 132 156 230 260 314 404
#
# _framework density 19.277612999999999
#
# number of rings (size 3 to 8) (size 9 to 14) (size 15 to 20)
#    0.000    1.846    2.308    0.000   11.846    0.000 
#    0.000    0.000    0.000    8.308    0.000    0.000 
#    0.000    0.000    0.000    0.000    0.000    0.000 
#
# Total GULP energy -144987.780432 kJ/mol
# GULP energy per Si atom -5576.453094 kJ/mol
# Density = 1.923374 g / cm^3
# Si number density = 19.277613 Si / 1000 Ang^3
#
#
#
# Elastic Constant Matrix: (Units=GPa)
#
#
# Indices 1 2 3 4 5 6 
#
# 1 112.2505 37.9385 28.7624 0.0000 -11.5328 0.0000
# 2 37.9385 112.0530 20.7166 0.0000 -7.3642 0.0000
# 3 28.7624 20.7166 74.4108 0.0000 -12.5797 0.0000
# 4 0.0000 0.0000 0.0000 26.7697 0.0000 5.4614
# 5 -11.5328 -7.3642 -12.5797 0.0000 23.6505 0.0000
# 6 0.0000 0.0000 0.0000 5.4614 0.0000 24.4609
#
#
#
# Elastic Compliance Matrix: (Units=1/GPa)
#
#
# Indices 1 2 3 4 5 6 
#
# 1 0.010959 -0.002982 -0.002922 0.000000 0.002861 0.000000
# 2 -0.002982 0.010282 -0.001554 0.000000 0.000921 0.000000
# 3 -0.002922 -0.001554 0.016129 0.000000 0.006670 0.000000
# 4 0.000000 0.000000 0.000000 0.039139 0.000000 -0.008739
# 5 0.002861 0.000921 0.006670 0.000000 0.047512 0.000000
# 6 0.000000 0.000000 0.000000 -0.008739 0.000000 0.042833
#
#
# Mechanical properties :
#
#
# Convention : Reuss Voigt Hill
#
# Bulk Modulus (GPa) = 44.53802 52.61660 48.57731
# Shear Modulus (GPa) = 26.41942 29.06266 27.74104
#
# Velocity S-wave (km/s) = 3.70600 3.88698 3.79757
# Velocity P-wave (km/s) = 6.43943 6.89189 6.66950
#
# Compressibility (1/GPa) = 0.02245273
#
# Stress axis : x y z
#
# Youngs Moduli (GPa) = 91.24651 97.25809 62.00118
#
# Poissons Ratio (x) = 0.29005 0.18118
# Poissons Ratio (y) = 0.27212 0.09636
# Poissons Ratio (z) = 0.26664 0.15116
#
# Static dielectric constant tensor:
#      x y z
#    x 1.688160 0.000000 0.019330 
#    y 0.000000 1.680540 0.000000 
#    z 0.019330 0.000000 1.724750 
# 
# From -- ./inp_files/215024.got.cif
#   From: 2010.05.17/outbox.cif.g08.bks.cpg/sg15_108_cif.got.tgz:215024.got - 2010.06.03 18:47:42.
