data_PCOD9288240
_publ_section_title
;
Structure prediction by ZEFSAII (Michael W. Deem and Ramdas Pophale) SiO2 
 PCOD9288240
Probable space group: C 2/C
;
_chemical_formula_sum "Si O2"
_cell_formula_units_Z 40
_cell_length_a 8.982192
_cell_length_b 20.728841
_cell_length_c 8.949193
_cell_angle_alpha 90.000000
_cell_angle_beta 78.259464
_cell_angle_gamma 90.000000
_cell_volume 1631.394550
_symmetry_space_group_name_H-M "C 2/C"
_symmetry_group_IT_number 15
_symmetry_cell_setting 'monoclinic'
loop_
_space_group_symop_operation_xyz
x,y,z
-x,y,1/2-z
-x,-y,-z
x,-y,1/2+z
1/2+x,1/2+y,z
1/2-x,1/2+y,1/2-z
1/2-x,1/2-y,-z
1/2+x,1/2-y,1/2+z
loop_
_atom_site_type_symbol
_atom_site_label
_atom_site_fract_x
_atom_site_fract_y
_atom_site_fract_z
Si Si1 0.261096 0.558403 0.694086
Si Si2 0.152526 0.222867 0.307291
Si Si3 0.500000 0.042982 0.250000
Si Si4 0.500000 0.528088 0.250000
Si Si5 0.347430 0.341568 0.382661
Si Si6 0.716643 0.117432 0.409737
O O1 0.136177 0.505150 0.684402
O O2 0.420026 0.521009 0.650559
O O3 0.266735 0.590916 0.856497
O O4 0.227427 0.615314 0.584933
O O5 0.233939 0.284926 0.356735
O O6 0.119726 0.172631 0.450507
O O7 0.262081 0.186245 0.169460
O O8 0.000000 0.238348 0.250000
O O9 0.565378 0.086090 0.370929
O O10 0.361296 0.572661 0.333063
O O11 0.500000 0.338759 0.250000
#
# Coordination Sequence:
#
# PCOD9288240 Si02
#       6
#     8   8   4   4   8   8
#     4  11  23  42  68  97 134 175 218 270 327 391
#     4  11  26  46  69  99 132 171 221 275 329 392
#     4  10  26  42  62 104 138 174 220 270 326 390
#     4  10  22  38  66 100 130 166 218 272 322 398
#     4  11  26  46  69  99 132 171 221 275 329 392
#     4  11  23  42  68  97 134 175 218 270 327 391
#
# _framework density 24.518899000000001
#
# number of rings (size 3 to 8) (size 9 to 14) (size 15 to 20)
#    0.000    1.200    2.000    2.400    2.800   11.200 
#    0.000    0.000    0.000    0.000    0.000    0.000 
#    0.000    0.000    0.000    0.000    0.000    0.000 
#
# Total GULP energy -111936.777221 kJ/mol
# GULP energy per Si atom -5596.838861 kJ/mol
# Density = 2.446309 g / cm^3
# Si number density = 24.518899 Si / 1000 Ang^3
#
#
#
# Elastic Constant Matrix: (Units=GPa)
#
#
# Indices 1 2 3 4 5 6 
#
# 1 155.2779 30.0218 34.3829 0.0000 31.3352 0.0000
# 2 30.0218 63.7249 -3.2645 0.0000 9.0218 0.0000
# 3 34.3829 -3.2645 54.5137 0.0000 16.5807 0.0000
# 4 0.0000 0.0000 0.0000 13.0246 0.0000 13.6377
# 5 31.3352 9.0218 16.5807 0.0000 30.4995 0.0000
# 6 0.0000 0.0000 0.0000 13.6377 0.0000 28.3207
#
#
#
# Elastic Compliance Matrix: (Units=1/GPa)
#
#
# Indices 1 2 3 4 5 6 
#
# 1 0.009354 -0.003746 -0.004239 0.000000 -0.006197 0.000000
# 2 -0.003746 0.018282 0.004711 0.000000 -0.004120 0.000000
# 3 -0.004239 0.004711 0.024440 0.000000 -0.010325 0.000000
# 4 0.000000 0.000000 0.000000 0.154861 0.000000 -0.074573
# 5 -0.006197 -0.004120 -0.010325 0.000000 0.045986 0.000000
# 6 0.000000 0.000000 0.000000 -0.074573 0.000000 0.071220
#
#
# Mechanical properties :
#
#
# Convention : Reuss Voigt Hill
#
# Bulk Modulus (GPa) = 21.96519 43.97742 32.97131
# Shear Modulus (GPa) = 14.45641 28.52739 21.49190
#
# Velocity S-wave (km/s) = 2.43081 3.41469 2.96386
# Velocity P-wave (km/s) = 4.10565 5.78981 5.01888
#
# Compressibility (1/GPa) = 0.04552658
#
# Stress axis : x y z
#
# Youngs Moduli (GPa) = 106.91016 54.69854 40.91639
#
# Poissons Ratio (x) = 0.20492 0.17344
# Poissons Ratio (y) = 0.40053 -0.19275
# Poissons Ratio (z) = 0.45319 -0.25767
#
# Static dielectric constant tensor:
#      x y z
#    x 2.003760 0.000000 0.020610 
#    y 0.000000 1.931710 0.000000 
#    z 0.020610 0.000000 1.985890 
# 
# From -- ./inp_files/23545.got.cif
#   From: 2010.05.17/outbox.cif.g08.bks.cpg/sg15_12_cif.got.tgz:23545.got - 2010.06.03 18:47:42.
