data_PCOD9288760
_publ_section_title
;
Structure prediction by ZEFSAII (Michael W. Deem and Ramdas Pophale) SiO2 
 PCOD9288760
Probable space group: C 2/C
;
_chemical_formula_sum "Si O2"
_cell_formula_units_Z 32
_cell_length_a 14.567161
_cell_length_b 15.210959
_cell_length_c 9.166110
_cell_angle_alpha 90.000000
_cell_angle_beta 36.520894
_cell_angle_gamma 90.000000
_cell_volume 1208.698898
_symmetry_space_group_name_H-M "C 2/C"
_symmetry_group_IT_number 15
_symmetry_cell_setting 'monoclinic'
loop_
_space_group_symop_operation_xyz
x,y,z
-x,y,1/2-z
-x,-y,-z
x,-y,1/2+z
1/2+x,1/2+y,z
1/2-x,1/2+y,1/2-z
1/2-x,1/2-y,-z
1/2+x,1/2-y,1/2+z
loop_
_atom_site_type_symbol
_atom_site_label
_atom_site_fract_x
_atom_site_fract_y
_atom_site_fract_z
Si Si1 0.353277 0.439343 0.227485
Si Si2 0.210689 0.185321 0.251292
Si Si3 0.500000 0.296084 0.250000
Si Si4 0.500000 0.715727 0.250000
Si Si5 0.676099 0.991027 0.729398
O O1 0.413276 0.358122 0.244478
O O2 0.225313 0.483004 0.498880
O O3 0.268363 0.427577 0.182665
O O4 0.500000 0.500000 0.000000
O O5 0.095346 0.171431 0.261395
O O6 0.256366 0.096617 0.279020
O O7 0.125080 0.246803 0.483438
O O8 0.368733 0.225414 0.993156
O O9 0.500000 0.000000 0.000000
#
# Coordination Sequence:
#
# PCOD9288760 Si02
#       5
#     8   8   4   4   8
#     4  11  19  38  59  94 127 169 202 251 339 389
#     4  10  23  44  66  97 126 170 227 266 324 381
#     4  10  22  39  64  94 129 162 214 270 320 392
#     4  10  24  45  70  92 123 182 222 272 312 378
#     4  11  24  37  63  96 134 165 209 271 329 390
#
# _framework density 26.474748999999999
#
# number of rings (size 3 to 8) (size 9 to 14) (size 15 to 20)
#    0.000    1.500    5.000    0.750    3.500    4.000 
#    4.500    0.000    0.000    0.000    0.000    0.000 
#    0.000    0.000    0.000    0.000    0.000    0.000 
#
# Total GULP energy -89511.775901 kJ/mol
# GULP energy per Si atom -5594.485994 kJ/mol
# Density = 2.641449 g / cm^3
# Si number density = 26.474749 Si / 1000 Ang^3
#
#
#
# Elastic Constant Matrix: (Units=GPa)
#
#
# Indices 1 2 3 4 5 6 
#
# 1 132.2042 14.2451 44.8366 0.0000 -3.4527 0.0000
# 2 14.2451 53.4913 25.6699 0.0000 5.8550 0.0000
# 3 44.8366 25.6699 261.2333 0.0000 7.6898 0.0000
# 4 0.0000 0.0000 0.0000 39.3421 0.0000 9.5364
# 5 -3.4527 5.8550 7.6898 0.0000 65.4684 0.0000
# 6 0.0000 0.0000 0.0000 9.5364 0.0000 29.1524
#
#
#
# Elastic Compliance Matrix: (Units=1/GPa)
#
#
# Indices 1 2 3 4 5 6 
#
# 1 0.008190 -0.001654 -0.001265 0.000000 0.000728 0.000000
# 2 -0.001654 0.020108 -0.001642 0.000000 -0.001693 0.000000
# 3 -0.001265 -0.001642 0.004219 0.000000 -0.000415 0.000000
# 4 0.000000 0.000000 0.000000 0.027607 0.000000 -0.009031
# 5 0.000728 -0.001693 -0.000415 0.000000 0.015513 0.000000
# 6 0.000000 0.000000 0.000000 -0.009031 0.000000 0.037257
#
#
# Mechanical properties :
#
#
# Convention : Reuss Voigt Hill
#
# Bulk Modulus (GPa) = 42.74296 68.49243 55.61770
# Shear Modulus (GPa) = 38.51650 50.93772 44.72711
#
# Velocity S-wave (km/s) = 3.81837 4.39111 4.11472
# Velocity P-wave (km/s) = 5.96823 7.18583 6.60515
#
# Compressibility (1/GPa) = 0.02339566
#
# Stress axis : x y z
#
# Youngs Moduli (GPa) = 122.09728 49.73030 237.04266
#
# Poissons Ratio (x) = 0.08225 0.29977
# Poissons Ratio (y) = 0.20194 0.38928
# Poissons Ratio (z) = 0.15441 0.08167
#
# Static dielectric constant tensor:
#      x y z
#    x 2.031150 0.000000 -0.033180 
#    y 0.000000 2.205160 0.000000 
#    z -0.033180 0.000000 2.122990 
# 
# From -- ./inp_files/40517.got.cif
#   From: 2010.05.17/outbox.cif.g08.bks.cpg/sg15_21_cif.got.tgz:40517.got - 2010.06.03 18:47:42.
