data_PCOD9288949
_publ_section_title
;
Structure prediction by ZEFSAII (Michael W. Deem and Ramdas Pophale) SiO2 
 PCOD9288949
Probable space group: C 2/C
;
_chemical_formula_sum "Si O2"
_cell_formula_units_Z 48
_cell_length_a 7.719775
_cell_length_b 21.949970
_cell_length_c 12.518641
_cell_angle_alpha 90.000000
_cell_angle_beta 97.947959
_cell_angle_gamma 90.000000
_cell_volume 2100.892303
_symmetry_space_group_name_H-M "C 2/C"
_symmetry_group_IT_number 15
_symmetry_cell_setting 'monoclinic'
loop_
_space_group_symop_operation_xyz
x,y,z
-x,y,1/2-z
-x,-y,-z
x,-y,1/2+z
1/2+x,1/2+y,z
1/2-x,1/2+y,1/2-z
1/2-x,1/2-y,-z
1/2+x,1/2-y,1/2+z
loop_
_atom_site_type_symbol
_atom_site_label
_atom_site_fract_x
_atom_site_fract_y
_atom_site_fract_z
Si Si1 0.927997 0.066953 0.525362
Si Si2 0.500000 0.631684 0.750000
Si Si3 0.599583 0.340176 0.658366
Si Si4 0.000000 0.541999 0.750000
Si Si5 0.350766 0.207693 0.829818
Si Si6 0.970969 0.399248 0.468843
Si Si7 0.840014 0.426139 0.803685
O O1 0.975896 0.122318 0.447500
O O2 0.713182 0.068780 0.511614
O O3 0.997360 0.088910 0.645618
O O4 0.000000 0.000000 0.500000
O O5 0.674598 0.673302 0.774970
O O6 0.500000 0.311374 0.750000
O O7 0.693260 0.276829 0.635508
O O8 0.684540 0.393956 0.734167
O O9 0.039118 0.576380 0.861429
O O10 0.845284 0.496742 0.773618
O O11 0.500000 0.198394 0.750000
O O12 0.422382 0.170239 0.938815
O O13 0.113143 0.412862 0.571102
O O14 0.000000 0.398177 0.750000
#
# Coordination Sequence:
#
# PCOD9288949 Si02
#       7
#     8   4   8   4   8   8   8
#     4  11  26  44  69 103 147 183 231 286 356 424
#     4  10  26  43  76 105 134 202 230 292 358 410
#     4  11  26  46  67 102 139 183 222 292 350 411
#     4  10  22  39  68  95 136 168 230 282 340 400
#     4  10  24  46  71 102 144 176 241 291 346 420
#     4  11  22  44  72 100 133 185 225 292 339 412
#     4  10  23  40  66 100 127 175 228 270 346 400
#
# _framework density 22.847434
#
# number of rings (size 3 to 8) (size 9 to 14) (size 15 to 20)
#    0.500    1.000    2.500    0.500    4.667    9.333 
#    0.000    3.333    0.000    0.000    0.000    0.000 
#    0.000    0.000    0.000    0.000    0.000    0.000 
#
# Total GULP energy -133641.940866 kJ/mol
# GULP energy per Si atom -5568.414203 kJ/mol
# Density = 2.279543 g / cm^3
# Si number density = 22.847434 Si / 1000 Ang^3
#
#
#
# Elastic Constant Matrix: (Units=GPa)
#
#
# Indices 1 2 3 4 5 6 
#
# 1 61.4022 20.9488 22.9707 0.0000 -7.2053 0.0000
# 2 20.9488 166.2516 87.4604 0.0000 5.3426 0.0000
# 3 22.9707 87.4604 205.9880 0.0000 2.4546 0.0000
# 4 0.0000 0.0000 0.0000 5.9898 0.0000 -13.4447
# 5 -7.2053 5.3426 2.4546 0.0000 24.3308 0.0000
# 6 0.0000 0.0000 0.0000 -13.4447 0.0000 8.9290
#
#
#
# Elastic Compliance Matrix: (Units=1/GPa)
#
#
# Indices 1 2 3 4 5 6 
#
# 1 0.018077 -0.001763 -0.001337 0.000000 0.005875 0.000000
# 2 -0.001763 0.007963 -0.003161 0.000000 -0.001952 0.000000
# 3 -0.001337 -0.003161 0.006350 0.000000 -0.000343 0.000000
# 4 0.000000 0.000000 0.000000 -0.070154 0.000000 -0.105633
# 5 0.005875 -0.001952 -0.000343 0.000000 0.043303 0.000000
# 6 0.000000 0.000000 0.000000 -0.105633 0.000000 -0.047061
#
#
# Mechanical properties :
#
#
# Convention : Reuss Voigt Hill
#
# Bulk Modulus (GPa) = 50.33431 77.37796 63.85614
# Shear Modulus (GPa) = -223.46118 28.00070 -97.73024
#
# Velocity S-wave (km/s) = -9.90041 3.50459 -6.54737
# Velocity P-wave (km/s) = 10.42173 7.09344 5.39886
#
# Compressibility (1/GPa) = 0.01986716
#
# Stress axis : x y z
#
# Youngs Moduli (GPa) = 55.31786 125.58371 157.48004
#
# Poissons Ratio (x) = 0.22142 0.21060
# Poissons Ratio (y) = 0.09753 0.49780
# Poissons Ratio (z) = 0.07398 0.39698
#
# Static dielectric constant tensor:
#      x y z
#    x 1.877540 0.000000 -0.104710 
#    y 0.000000 1.966010 0.000000 
#    z -0.104710 0.000000 1.769170 
# 
# From -- ./inp_files/79411.got.cif
#   From: 2010.05.17/outbox.cif.g08.bks.cpg/sg15_40_cif.got.tgz:79411.got - 2010.06.03 18:47:42.
