data_PCOD9288056
_publ_section_title
;
Structure prediction by ZEFSAII (Michael W. Deem and Ramdas Pophale) SiO2 
 PCOD9288056
Probable space group: C 2/C
;
_chemical_formula_sum "Si O2"
_cell_formula_units_Z 48
_cell_length_a 12.227500
_cell_length_b 20.902455
_cell_length_c 9.637240
_cell_angle_alpha 90.000000
_cell_angle_beta 68.836409
_cell_angle_gamma 90.000000
_cell_volume 2297.001916
_symmetry_space_group_name_H-M "C 2/C"
_symmetry_group_IT_number 15
_symmetry_cell_setting 'monoclinic'
loop_
_space_group_symop_operation_xyz
x,y,z
-x,y,1/2-z
-x,-y,-z
x,-y,1/2+z
1/2+x,1/2+y,z
1/2-x,1/2+y,1/2-z
1/2-x,1/2-y,-z
1/2+x,1/2-y,1/2+z
loop_
_atom_site_type_symbol
_atom_site_label
_atom_site_fract_x
_atom_site_fract_y
_atom_site_fract_z
Si Si1 0.613520 0.460443 0.990867
Si Si2 0.841761 0.378296 0.217824
Si Si3 0.777003 0.517219 0.161163
Si Si4 0.097830 0.642022 0.498481
Si Si5 0.625110 0.803200 0.708022
Si Si6 0.839768 0.165584 0.915392
O O1 0.691047 0.455179 0.817372
O O2 0.500000 0.500000 0.000000
O O3 0.696350 0.494125 0.068717
O O4 0.578635 0.391416 0.069458
O O5 0.839673 0.454941 0.197868
O O6 0.846253 0.356586 0.374367
O O7 0.726501 0.353825 0.194469
O O8 0.958574 0.352660 0.088408
O O9 0.867015 0.572187 0.076117
O O10 0.142967 0.693443 0.365444
O O11 0.500000 0.838887 0.750000
O O12 0.736498 0.831373 0.577865
O O13 0.610098 0.735197 0.637398
#
# Coordination Sequence:
#
# PCOD9288056 Si02
#       6
#     8   8   8   8   8   8
#     4  11  23  40  65  92 131 171 212 264 325 393
#     4  10  22  38  62  95 126 163 210 263 330 390
#     4  11  21  39  59  95 130 165 208 264 328 389
#     4  11  21  38  63  92 129 163 209 266 323 390
#     4  11  22  41  67  90 120 171 220 267 317 373
#     4  10  23  41  65  93 126 165 221 262 315 392
#
# _framework density 20.896806000000002
#
# number of rings (size 3 to 8) (size 9 to 14) (size 15 to 20)
#    0.000    1.333    5.000    1.000    0.000    3.333 
#    3.000    0.000    0.000    0.000    0.000    0.000 
#    0.000    0.000    0.000    0.000    0.000    0.000 
#
# Total GULP energy -133986.518552 kJ/mol
# GULP energy per Si atom -5582.771606 kJ/mol
# Density = 2.084924 g / cm^3
# Si number density = 20.896806 Si / 1000 Ang^3
#
#
#
# Elastic Constant Matrix: (Units=GPa)
#
#
# Indices 1 2 3 4 5 6 
#
# 1 63.1183 12.2947 24.8588 0.0000 8.2089 0.0000
# 2 12.2947 64.6754 9.8369 0.0000 6.8265 0.0000
# 3 24.8588 9.8369 129.0104 0.0000 11.8013 0.0000
# 4 0.0000 0.0000 0.0000 17.2536 0.0000 13.9295
# 5 8.2089 6.8265 11.8013 0.0000 30.1248 0.0000
# 6 0.0000 0.0000 0.0000 13.9295 0.0000 15.4992
#
#
#
# Elastic Compliance Matrix: (Units=1/GPa)
#
#
# Indices 1 2 3 4 5 6 
#
# 1 0.017931 -0.002627 -0.002969 0.000000 -0.003128 0.000000
# 2 -0.002627 0.016330 -0.000483 0.000000 -0.002795 0.000000
# 3 -0.002969 -0.000483 0.008584 0.000000 -0.002444 0.000000
# 4 0.000000 0.000000 0.000000 0.211205 0.000000 -0.189815
# 5 -0.003128 -0.002795 -0.002444 0.000000 0.035639 0.000000
# 6 0.000000 0.000000 0.000000 -0.189815 0.000000 0.235112
#
#
# Mechanical properties :
#
#
# Convention : Reuss Voigt Hill
#
# Bulk Modulus (GPa) = 32.58737 38.97610 35.78174
# Shear Modulus (GPa) = 9.13766 26.56309 17.85037
#
# Velocity S-wave (km/s) = 2.09338 3.56919 2.92587
# Velocity P-wave (km/s) = 4.63371 5.97308 5.34551
#
# Compressibility (1/GPa) = 0.03068673
#
# Stress axis : x y z
#
# Youngs Moduli (GPa) = 55.76944 61.23786 116.49889
#
# Poissons Ratio (x) = 0.16087 0.34585
# Poissons Ratio (y) = 0.14651 0.05630
# Poissons Ratio (z) = 0.16556 0.02959
#
# Static dielectric constant tensor:
#      x y z
#    x 1.763000 0.000000 -0.003220 
#    y 0.000000 1.783270 0.000000 
#    z -0.003220 0.000000 1.764480 
# 
# From -- ./inp_files/32511.got.cif
#   From: 2010.05.17/outbox.cif.g08.bks.cpg/sg15_17_cif.got.tgz:32511.got - 2010.06.03 18:47:42.
