data_PCOD9288451
_publ_section_title
;
Structure prediction by ZEFSAII (Michael W. Deem and Ramdas Pophale) SiO2 
 PCOD9288451
Probable space group: C 2/C
;
_chemical_formula_sum "Si O2"
_cell_formula_units_Z 48
_cell_length_a 27.275027
_cell_length_b 13.754205
_cell_length_c 11.908751
_cell_angle_alpha 90.000000
_cell_angle_beta 145.990215
_cell_angle_gamma 90.000000
_cell_volume 2498.840223
_symmetry_space_group_name_H-M "C 2/C"
_symmetry_group_IT_number 15
_symmetry_cell_setting 'monoclinic'
loop_
_space_group_symop_operation_xyz
x,y,z
-x,y,1/2-z
-x,-y,-z
x,-y,1/2+z
1/2+x,1/2+y,z
1/2-x,1/2+y,1/2-z
1/2-x,1/2-y,-z
1/2+x,1/2-y,1/2+z
loop_
_atom_site_type_symbol
_atom_site_label
_atom_site_fract_x
_atom_site_fract_y
_atom_site_fract_z
Si Si1 0.632995 0.389734 0.052232
Si Si2 0.095217 0.374774 0.189267
Si Si3 0.413462 0.394796 0.006926
Si Si4 0.319438 0.193793 0.869048
Si Si5 0.539108 0.668524 0.153332
Si Si6 0.059423 0.549476 0.262700
O O1 0.721882 0.329135 0.222559
O O2 0.638415 0.503730 0.091152
O O3 0.560857 0.342688 0.997389
O O4 0.594489 0.386347 0.853076
O O5 0.166812 0.348075 0.231382
O O6 0.072154 0.279304 0.215414
O O7 0.114102 0.466364 0.303965
O O8 0.007858 0.402704 0.952981
O O9 0.500000 0.401054 0.250000
O O10 0.352705 0.304542 0.929371
O O11 0.445662 0.372189 0.941901
O O12 0.383284 0.132395 0.070922
O O13 0.000000 0.504824 0.250000
#
# Coordination Sequence:
#
# PCOD9288451 Si02
#       6
#     8   8   8   8   8   8
#     4  11  24  38  61  96 117 161 209 257 301 362
#     4   9  19  37  62  85 119 163 193 251 308 362
#     4  11  22  44  68  83 124 171 201 250 308 374
#     4  10  22  39  59  92 123 155 206 250 309 352
#     4  10  22  41  63  86 121 162 213 241 306 371
#     4   9  18  36  59  88 120 158 199 239 306 376
#
# _framework density 19.208911000000001
#
# number of rings (size 3 to 8) (size 9 to 14) (size 15 to 20)
#    0.000    2.000    1.667    3.000    2.333    5.333 
#    6.000    1.667    0.000    0.000    0.000    0.000 
#    0.000    0.000    0.000    0.000    0.000    0.000 
#
# Total GULP energy -133991.491820 kJ/mol
# GULP energy per Si atom -5582.978826 kJ/mol
# Density = 1.916519 g / cm^3
# Si number density = 19.208911 Si / 1000 Ang^3
#
#
#
# Elastic Constant Matrix: (Units=GPa)
#
#
# Indices 1 2 3 4 5 6 
#
# 1 69.0451 44.5612 35.7009 0.0000 4.1866 0.0000
# 2 44.5612 85.6282 5.5318 0.0000 5.7742 0.0000
# 3 35.7009 5.5318 39.0499 0.0000 13.4970 0.0000
# 4 0.0000 0.0000 0.0000 7.8991 0.0000 -1.5985
# 5 4.1866 5.7742 13.4970 0.0000 30.2369 0.0000
# 6 0.0000 0.0000 0.0000 -1.5985 0.0000 30.2075
#
#
#
# Elastic Compliance Matrix: (Units=1/GPa)
#
#
# Indices 1 2 3 4 5 6 
#
# 1 0.070853 -0.034253 -0.069520 0.000000 0.027763 0.000000
# 2 -0.034253 0.028427 0.032547 0.000000 -0.015214 0.000000
# 3 -0.069520 0.032547 0.098587 0.000000 -0.040597 0.000000
# 4 0.000000 0.000000 0.000000 0.127967 0.000000 0.006771
# 5 0.027763 -0.015214 -0.040597 0.000000 0.050255 0.000000
# 6 0.000000 0.000000 0.000000 0.006771 0.000000 0.033463
#
#
# Mechanical properties :
#
#
# Convention : Reuss Voigt Hill
#
# Bulk Modulus (GPa) = 18.04561 40.59010 29.31786
# Shear Modulus (GPa) = 8.76459 20.86399 14.81429
#
# Velocity S-wave (km/s) = 2.13838 3.29927 2.78010
# Velocity P-wave (km/s) = 3.93849 5.97414 5.05974
#
# Compressibility (1/GPa) = 0.05541513
#
# Stress axis : x y z
#
# Youngs Moduli (GPa) = 14.11366 35.17748 10.14328
#
# Poissons Ratio (x) = 1.20495 0.70516
# Poissons Ratio (y) = 0.48344 -0.33014
# Poissons Ratio (z) = 0.98119 -1.14493
#
# Static dielectric constant tensor:
#      x y z
#    x 1.665060 0.000000 0.000780 
#    y 0.000000 1.663940 0.000000 
#    z 0.000780 0.000000 1.667260 
# 
# From -- ./inp_files/123600.got.cif
#   From: 2010.05.17/outbox.cif.g08.bks.cpg/sg15_62_cif.got.tgz:123600.got - 2010.06.03 18:47:42.
