data_PCOD9288571
_publ_section_title
;
Structure prediction by ZEFSAII (Michael W. Deem and Ramdas Pophale) SiO2 
 PCOD9288571
Probable space group: C 2/C
;
_chemical_formula_sum "Si O2"
_cell_formula_units_Z 64
_cell_length_a 15.261079
_cell_length_b 25.628320
_cell_length_c 12.778239
_cell_angle_alpha 90.000000
_cell_angle_beta 38.732509
_cell_angle_gamma 90.000000
_cell_volume 3127.032399
_symmetry_space_group_name_H-M "C 2/C"
_symmetry_group_IT_number 15
_symmetry_cell_setting 'monoclinic'
loop_
_space_group_symop_operation_xyz
x,y,z
-x,y,1/2-z
-x,-y,-z
x,-y,1/2+z
1/2+x,1/2+y,z
1/2-x,1/2+y,1/2-z
1/2-x,1/2-y,-z
1/2+x,1/2-y,1/2+z
loop_
_atom_site_type_symbol
_atom_site_label
_atom_site_fract_x
_atom_site_fract_y
_atom_site_fract_z
Si Si1 0.701938 0.357439 0.785105
Si Si2 0.377575 0.147078 0.782684
Si Si3 0.632609 0.735753 0.194263
Si Si4 0.012867 0.908682 0.359808
Si Si5 0.318848 0.932904 0.156155
Si Si6 0.334411 0.412873 0.889097
Si Si7 0.567850 0.100143 0.288290
Si Si8 0.718171 0.510284 0.422420
O O1 0.677608 0.305069 0.740835
O O2 0.702550 0.402999 0.696656
O O3 0.846727 0.361780 0.713977
O O4 0.573928 0.370181 0.983075
O O5 0.500000 0.133441 0.750000
O O6 0.399827 0.206811 0.729274
O O7 0.372110 0.109467 0.690167
O O8 0.236011 0.133554 0.978102
O O9 0.500000 0.717250 0.250000
O O10 0.750000 0.750000 0.000000
O O11 0.936390 0.965099 0.444360
O O12 0.000000 0.894090 0.250000
O O13 0.174274 0.913134 0.240401
O O14 0.276357 0.983608 0.262837
O O15 0.446659 0.933756 0.956866
O O16 0.500000 0.412020 0.750000
O O17 0.280138 0.466643 0.989298
O O18 0.500000 0.126697 0.250000
O O19 0.684698 0.059074 0.142205
#
# Coordination Sequence:
#
# PCOD9288571 Si02
#       8
#     8   8   8   8   8   8   8   8
#     4  11  23  42  66  93 129 171 205 262 328 387
#     4  10  22  39  61  98 132 156 191 257 330 402
#     4  11  24  41  71 106 139 155 197 253 344 405
#     4  11  24  41  60  86 125 173 229 263 302 368
#     4  11  22  39  64  88 124 169 219 266 327 369
#     4  11  21  37  62  96 131 163 205 266 328 389
#     4  11  25  41  59  85 126 178 228 264 305 366
#     4  10  23  39  60  90 128 168 217 273 323 380
#
# _framework density 20.466688999999999
#
# number of rings (size 3 to 8) (size 9 to 14) (size 15 to 20)
#    0.000    1.250    1.250    5.250    3.500    8.000 
#    0.000    0.000    0.000    4.500    0.000    0.000 
#    0.000    0.000    0.000    0.000    0.000    0.000 
#
# Total GULP energy -178848.859910 kJ/mol
# GULP energy per Si atom -5589.026872 kJ/mol
# Density = 2.042011 g / cm^3
# Si number density = 20.466689 Si / 1000 Ang^3
#
#
#
# Elastic Constant Matrix: (Units=GPa)
#
#
# Indices 1 2 3 4 5 6 
#
# 1 157.6061 56.0865 30.2597 -0.0003 -4.5940 0.0002
# 2 56.0865 94.1944 16.9649 0.0000 4.3996 0.0000
# 3 30.2597 16.9649 87.9296 -0.0002 -6.6393 0.0002
# 4 -0.0003 0.0000 -0.0002 47.5041 0.0001 10.0265
# 5 -4.5940 4.3996 -6.6393 0.0001 37.7396 -0.0001
# 6 0.0002 0.0000 0.0002 10.0265 -0.0001 39.0868
#
#
#
# Elastic Compliance Matrix: (Units=1/GPa)
#
#
# Indices 1 2 3 4 5 6 
#
# 1 0.008430 -0.004737 -0.001893 0.000000 0.001245 0.000000
# 2 -0.004737 0.013766 -0.001207 0.000000 -0.002394 0.000000
# 3 -0.001893 -0.001207 0.012415 0.000000 0.002094 0.000000
# 4 0.000000 0.000000 0.000000 0.022256 0.000000 -0.005709
# 5 0.001245 -0.002394 0.002094 0.000000 0.027296 0.000000
# 6 0.000000 0.000000 0.000000 -0.005709 0.000000 0.027049
#
#
# Mechanical properties :
#
#
# Convention : Reuss Voigt Hill
#
# Bulk Modulus (GPa) = 52.80358 60.70581 56.75470
# Shear Modulus (GPa) = 37.53791 40.62736 39.08264
#
# Velocity S-wave (km/s) = 4.28728 4.46022 4.37461
# Velocity P-wave (km/s) = 7.09672 7.50000 7.30115
#
# Compressibility (1/GPa) = 0.01893811
#
# Stress axis : x y z
#
# Youngs Moduli (GPa) = 118.61776 72.64280 80.54646
#
# Poissons Ratio (x) = 0.34411 0.15249
# Poissons Ratio (y) = 0.56189 0.09718
# Poissons Ratio (z) = 0.22457 0.08765
#
# Static dielectric constant tensor:
#      x y z
#    x 1.767510 0.000000 -0.036460 
#    y 0.000000 1.747810 0.000000 
#    z -0.036460 0.000000 1.854940 
# 
# From -- ./inp_files/101295.got.cif
#   From: 2010.05.17/outbox.cif.g08.bks.cpg/sg15_51_cif.got.tgz:101295.got - 2010.06.03 18:47:42.
