data_PCOD9288044
_publ_section_title
;
Structure prediction by ZEFSAII (Michael W. Deem and Ramdas Pophale) SiO2 
 PCOD9288044
Probable space group: C 2/C
;
_chemical_formula_sum "Si O2"
_cell_formula_units_Z 56
_cell_length_a 12.843611
_cell_length_b 18.583858
_cell_length_c 20.843437
_cell_angle_alpha 90.000000
_cell_angle_beta 149.786162
_cell_angle_gamma 90.000000
_cell_volume 2503.558431
_symmetry_space_group_name_H-M "C 2/C"
_symmetry_group_IT_number 15
_symmetry_cell_setting 'monoclinic'
loop_
_space_group_symop_operation_xyz
x,y,z
-x,y,1/2-z
-x,-y,-z
x,-y,1/2+z
1/2+x,1/2+y,z
1/2-x,1/2+y,1/2-z
1/2-x,1/2-y,-z
1/2+x,1/2-y,1/2+z
loop_
_atom_site_type_symbol
_atom_site_label
_atom_site_fract_x
_atom_site_fract_y
_atom_site_fract_z
Si Si1 0.131960 0.908211 0.435850
Si Si2 0.131118 0.193972 0.193862
Si Si3 0.456099 0.436605 0.561760
Si Si4 0.657020 0.142232 0.688584
Si Si5 0.455272 0.157163 0.015767
Si Si6 0.677471 0.021339 0.798584
Si Si7 0.240656 0.696002 0.385743
O O1 0.294811 0.894222 0.466498
O O2 0.219246 0.870474 0.546465
O O3 0.903117 0.872859 0.305607
O O4 0.114285 0.992881 0.437649
O O5 0.945228 0.136277 0.097063
O O6 0.117366 0.279267 0.199247
O O7 0.317500 0.160585 0.333873
O O8 0.177444 0.189873 0.142554
O O9 0.689969 0.460573 0.666084
O O10 0.330943 0.435197 0.428243
O O11 0.548168 0.142231 0.561661
O O12 0.593476 0.078232 0.702302
O O13 0.358399 0.235874 0.977591
O O14 0.500000 0.992229 0.750000
O O15 0.000000 0.711610 0.250000
#
# Coordination Sequence:
#
# PCOD9288044 Si02
#       7
#     8   8   8   8   8   8   8
#     4  11  20  38  56  94 130 166 203 262 316 389
#     4  11  21  36  59  92 130 163 208 257 307 372
#     4  10  24  38  66  95 126 160 220 263 311 378
#     4  10  22  38  62  92 127 161 210 260 317 379
#     4  11  21  33  61  91 133 170 194 256 331 379
#     4  10  22  44  69  90 119 168 216 272 312 365
#     4  11  19  30  56  96 124 161 210 254 314 382
#
# _framework density 22.368161000000001
#
# number of rings (size 3 to 8) (size 9 to 14) (size 15 to 20)
#    0.000    1.429    2.857    5.143    4.000    1.143 
#    0.000    3.571    9.429    0.000    0.000    0.000 
#    0.000    0.000    0.000    0.000    0.000    0.000 
#
# Total GULP energy -156547.446491 kJ/mol
# GULP energy per Si atom -5590.980232 kJ/mol
# Density = 2.231725 g / cm^3
# Si number density = 22.368161 Si / 1000 Ang^3
#
#
#
# Elastic Constant Matrix: (Units=GPa)
#
#
# Indices 1 2 3 4 5 6 
#
# 1 46.7154 18.8734 3.4892 -0.0009 -11.1781 0.0003
# 2 18.8734 85.3177 0.6326 -0.0079 -8.6242 -0.0125
# 3 3.4892 0.6326 75.6627 -0.0149 -14.4930 -0.0183
# 4 -0.0009 -0.0079 -0.0149 28.6470 0.0017 -19.7352
# 5 -11.1781 -8.6242 -14.4930 0.0017 14.8989 0.0055
# 6 0.0003 -0.0125 -0.0183 -19.7352 0.0055 -20.6122
#
#
#
# Elastic Compliance Matrix: (Units=1/GPa)
#
#
# Indices 1 2 3 4 5 6 
#
# 1 0.027945 -0.004040 0.002843 0.000002 0.021393 0.000004
# 2 -0.004040 0.013187 0.001177 -0.000001 0.005746 -0.000007
# 3 0.002843 0.001177 0.016732 0.000000 0.019091 -0.000011
# 4 0.000002 -0.000001 0.000000 0.021034 0.000007 -0.020139
# 5 0.021393 0.005746 0.019091 0.000007 0.105066 0.000001
# 6 0.000004 -0.000007 -0.000011 -0.020139 0.000001 -0.029233
#
#
# Mechanical properties :
#
#
# Convention : Reuss Voigt Hill
#
# Bulk Modulus (GPa) = 17.29426 28.18736 22.74081
# Shear Modulus (GPa) = 28.72785 16.90012 22.81398
#
# Velocity S-wave (km/s) = 3.58763 2.75170 3.19710
# Velocity P-wave (km/s) = 4.99098 4.76704 4.88029
#
# Compressibility (1/GPa) = 0.05782267
#
# Stress axis : x y z
#
# Youngs Moduli (GPa) = 35.78436 75.83314 59.76444
#
# Poissons Ratio (x) = 0.30640 -0.16990
# Poissons Ratio (y) = 0.14459 -0.07033
# Poissons Ratio (z) = -0.10173 -0.08924
#
# Static dielectric constant tensor:
#      x y z
#    x 1.842810 0.000000 0.041960 
#    y 0.000000 1.902700 0.000000 
#    z 0.041960 0.000000 1.830410 
# 
# From -- ./inp_files/245186.got.cif
#   From: 2010.05.17/outbox.cif.g08.bks.cpg/sg15_123_cif.got.tgz:245186.got - 2010.06.03 18:47:42.
