data_PCOD9288410
_publ_section_title
;
Structure prediction by ZEFSAII (Michael W. Deem and Ramdas Pophale) SiO2 
 PCOD9288410
Probable space group: C 2/C
;
_chemical_formula_sum "Si O2"
_cell_formula_units_Z 36
_cell_length_a 10.155771
_cell_length_b 9.840715
_cell_length_c 14.905878
_cell_angle_alpha 90.000000
_cell_angle_beta 106.942379
_cell_angle_gamma 90.000000
_cell_volume 1425.038909
_symmetry_space_group_name_H-M "C 2/C"
_symmetry_group_IT_number 15
_symmetry_cell_setting 'monoclinic'
loop_
_space_group_symop_operation_xyz
x,y,z
-x,y,1/2-z
-x,-y,-z
x,-y,1/2+z
1/2+x,1/2+y,z
1/2-x,1/2+y,1/2-z
1/2-x,1/2-y,-z
1/2+x,1/2-y,1/2+z
loop_
_atom_site_type_symbol
_atom_site_label
_atom_site_fract_x
_atom_site_fract_y
_atom_site_fract_z
Si Si1 0.500000 0.000000 0.000000
Si Si2 0.268347 0.480545 0.452663
Si Si3 0.531065 0.295119 0.493319
Si Si4 0.621467 0.192713 0.702206
Si Si5 0.351451 0.098665 0.255441
O O1 0.537577 0.854834 0.955624
O O2 0.360623 0.930726 0.016235
O O3 0.350301 0.603596 0.518514
O O4 0.216638 0.524865 0.344251
O O5 0.113211 0.129891 0.540165
O O6 0.570298 0.271133 0.604910
O O7 0.500000 0.192598 0.750000
O O8 0.754762 0.275447 0.761746
O O9 0.638533 0.033326 0.675622
O O10 0.500000 0.144660 0.250000
#
# Coordination Sequence:
#
# PCOD9288410 Si02
#       5
#     4   8   8   8   8
#     4  12  20  34  62  86 108 148 190 230 284 338
#     4  10  23  40  57  85 121 151 187 240 290 337
#     4  10  23  40  58  85 118 149 191 240 284 338
#     4  10  22  40  59  83 115 153 193 233 284 344
#     4  10  22  39  58  85 119 150 191 240 285 339
#
# _framework density 25.262468999999999
#
# number of rings (size 3 to 8) (size 9 to 14) (size 15 to 20)
#    0.000    1.778    0.000    4.000    0.000    8.000 
#    0.000    8.889    0.000    0.000    0.000    0.000 
#    0.000    0.000    0.000    0.000    0.000    0.000 
#
# Total GULP energy -100407.027724 kJ/mol
# GULP energy per Si atom -5578.168207 kJ/mol
# Density = 2.520497 g / cm^3
# Si number density = 25.262469 Si / 1000 Ang^3
#
#
#
# Elastic Constant Matrix: (Units=GPa)
#
#
# Indices 1 2 3 4 5 6 
#
# 1 171.0154 59.1495 4.2986 0.0000 21.9271 0.0000
# 2 59.1495 135.5648 -9.0329 0.0000 23.2551 0.0000
# 3 4.2986 -9.0329 42.7741 0.0000 -0.0924 0.0000
# 4 0.0000 0.0000 0.0000 43.9561 0.0000 17.0484
# 5 21.9271 23.2551 -0.0924 0.0000 32.2679 0.0000
# 6 0.0000 0.0000 0.0000 17.0484 0.0000 43.4282
#
#
#
# Elastic Compliance Matrix: (Units=1/GPa)
#
#
# Indices 1 2 3 4 5 6 
#
# 1 0.007199 -0.002725 -0.001305 0.000000 -0.002932 0.000000
# 2 -0.002725 0.009584 0.002287 0.000000 -0.005049 0.000000
# 3 -0.001305 0.002287 0.023991 0.000000 -0.000692 0.000000
# 4 0.000000 0.000000 0.000000 0.026836 0.000000 -0.010535
# 5 -0.002932 -0.005049 -0.000692 0.000000 0.036619 0.000000
# 6 0.000000 0.000000 0.000000 -0.010535 0.000000 0.027162
#
#
# Mechanical properties :
#
#
# Convention : Reuss Voigt Hill
#
# Bulk Modulus (GPa) = 26.81890 50.90941 38.86415
# Shear Modulus (GPa) = 33.94276 43.59305 38.76790
#
# Velocity S-wave (km/s) = 3.66950 4.15855 3.92165
# Velocity P-wave (km/s) = 5.34722 6.57677 5.99361
#
# Compressibility (1/GPa) = 0.03728714
#
# Stress axis : x y z
#
# Youngs Moduli (GPa) = 138.91583 104.34096 41.68186
#
# Poissons Ratio (x) = 0.28433 0.05440
# Poissons Ratio (y) = 0.37854 -0.09532
# Poissons Ratio (z) = 0.18131 -0.23861
#
# Static dielectric constant tensor:
#      x y z
#    x 1.957860 0.000000 0.256520 
#    y 0.000000 2.050410 0.000000 
#    z 0.256520 0.000000 2.189460 
# 
# From -- ./inp_files/267206.got.cif
#   From: 2010.05.17/outbox.cif.g08.bks.cpg/sg15_134_cif.got.tgz:267206.got - 2010.06.03 18:47:42.
