data_PCOD9288037
_publ_section_title
;
Structure prediction by ZEFSAII (Michael W. Deem and Ramdas Pophale) SiO2 
 PCOD9288037
Probable space group: C 2/C
;
_chemical_formula_sum "Si O2"
_cell_formula_units_Z 64
_cell_length_a 9.548636
_cell_length_b 30.384119
_cell_length_c 12.423681
_cell_angle_alpha 90.000000
_cell_angle_beta 83.252861
_cell_angle_gamma 90.000000
_cell_volume 3579.480754
_symmetry_space_group_name_H-M "C 2/C"
_symmetry_group_IT_number 15
_symmetry_cell_setting 'monoclinic'
loop_
_space_group_symop_operation_xyz
x,y,z
-x,y,1/2-z
-x,-y,-z
x,-y,1/2+z
1/2+x,1/2+y,z
1/2-x,1/2+y,1/2-z
1/2-x,1/2-y,-z
1/2+x,1/2-y,1/2+z
loop_
_atom_site_type_symbol
_atom_site_label
_atom_site_fract_x
_atom_site_fract_y
_atom_site_fract_z
Si Si1 0.819870 0.893676 0.637137
Si Si2 0.171802 0.681895 0.008174
Si Si3 0.567359 0.845782 0.132042
Si Si4 0.585541 0.729360 0.629750
Si Si5 0.180362 0.796576 0.479986
Si Si6 0.117445 0.436837 0.033304
Si Si7 0.147723 0.882166 0.613110
Si Si8 0.594936 0.968235 0.632725
O O1 0.743128 0.857303 0.569676
O O2 0.816907 0.883553 0.764408
O O3 0.733899 0.938709 0.631703
O O4 0.986906 0.894829 0.599226
O O5 0.137179 0.721817 0.092856
O O6 0.278834 0.698670 0.904985
O O7 0.027749 0.668883 0.960984
O O8 0.500000 0.832819 0.250000
O O9 0.718326 0.822431 0.111172
O O10 0.575799 0.898279 0.119224
O O11 0.500000 0.728140 0.750000
O O12 0.472437 0.713307 0.552320
O O13 0.250000 0.750000 0.500000
O O14 0.170164 0.831567 0.576663
O O15 0.250190 0.415603 0.959066
O O16 0.999154 0.446873 0.953963
O O17 0.136996 0.482564 0.093660
O O18 0.500000 0.968366 0.750000
#
# Coordination Sequence:
#
# PCOD9288037 Si02
#       8
#     8   8   8   8   8   8   8   8
#     4  11  22  40  64  88 124 158 202 250 300 366
#     4  11  23  40  59  90 120 161 210 255 297 363
#     4  11  22  39  61  85 120 158 199 247 309 358
#     4  11  24  40  59  84 122 164 211 252 304 361
#     4  11  22  40  57  87 123 159 205 253 297 356
#     4  10  22  38  62  91 120 151 198 250 300 367
#     4  10  23  41  62  88 122 166 199 247 306 355
#     4  11  21  38  65  92 119 152 195 252 307 363
#
# _framework density 17.879688000000002
#
# number of rings (size 3 to 8) (size 9 to 14) (size 15 to 20)
#    0.000    1.250    5.000    1.125    1.750    1.000 
#    2.250    0.000    0.000    0.000    0.000    0.000 
#    0.000    0.000    0.000    0.000    0.000    0.000 
#
# Total GULP energy -178516.285120 kJ/mol
# GULP energy per Si atom -5578.633910 kJ/mol
# Density = 1.783899 g / cm^3
# Si number density = 17.879688 Si / 1000 Ang^3
#
#
#
# Elastic Constant Matrix: (Units=GPa)
#
#
# Indices 1 2 3 4 5 6 
#
# 1 66.5422 31.6385 6.3680 0.0000 -1.1630 0.0000
# 2 31.6385 118.5306 15.5913 0.0000 0.1416 0.0000
# 3 6.3680 15.5913 42.8706 0.0000 -6.9883 0.0000
# 4 0.0000 0.0000 0.0000 11.1905 0.0000 4.0403
# 5 -1.1630 0.1416 -6.9883 0.0000 25.6069 0.0000
# 6 0.0000 0.0000 0.0000 4.0403 0.0000 23.4183
#
#
#
# Elastic Compliance Matrix: (Units=1/GPa)
#
#
# Indices 1 2 3 4 5 6 
#
# 1 0.017256 -0.004497 -0.000833 0.000000 0.000581 0.000000
# 2 -0.004497 0.010056 -0.003173 0.000000 -0.001126 0.000000
# 3 -0.000833 -0.003173 0.025746 0.000000 0.007006 0.000000
# 4 0.000000 0.000000 0.000000 0.095298 0.000000 -0.016441
# 5 0.000581 -0.001126 0.007006 0.000000 0.040997 0.000000
# 6 0.000000 0.000000 0.000000 -0.016441 0.000000 0.045538
#
#
# Mechanical properties :
#
#
# Convention : Reuss Voigt Hill
#
# Bulk Modulus (GPa) = 27.73767 37.23767 32.48767
# Shear Modulus (GPa) = 18.94565 23.66617 21.30591
#
# Velocity S-wave (km/s) = 3.25871 3.64213 3.45574
# Velocity P-wave (km/s) = 5.45033 6.20957 5.84230
#
# Compressibility (1/GPa) = 0.03605206
#
# Stress axis : x y z
#
# Youngs Moduli (GPa) = 57.95021 99.44613 38.84167
#
# Poissons Ratio (x) = 0.44723 0.03235
# Poissons Ratio (y) = 0.26061 0.12323
# Poissons Ratio (z) = 0.04827 0.31550
#
# Static dielectric constant tensor:
#      x y z
#    x 1.591130 0.000000 -0.045330 
#    y 0.000000 1.597930 0.000000 
#    z -0.045330 0.000000 1.549410 
# 
# From -- ./inp_files/82609.got.cif
#   From: 2010.05.17/outbox.cif.g08.bks.cpg/sg15_42_cif.got.tgz:82609.got - 2010.06.03 18:47:42.
