data_PCOD9288337
_publ_section_title
;
Structure prediction by ZEFSAII (Michael W. Deem and Ramdas Pophale) SiO2 
 PCOD9288337
Probable space group: C 2/C
;
_chemical_formula_sum "Si O2"
_cell_formula_units_Z 60
_cell_length_a 9.086226
_cell_length_b 22.545255
_cell_length_c 13.153061
_cell_angle_alpha 90.000000
_cell_angle_beta 100.266617
_cell_angle_gamma 90.000000
_cell_volume 2651.281161
_symmetry_space_group_name_H-M "C 2/C"
_symmetry_group_IT_number 15
_symmetry_cell_setting 'monoclinic'
loop_
_space_group_symop_operation_xyz
x,y,z
-x,y,1/2-z
-x,-y,-z
x,-y,1/2+z
1/2+x,1/2+y,z
1/2-x,1/2+y,1/2-z
1/2-x,1/2-y,-z
1/2+x,1/2-y,1/2+z
loop_
_atom_site_type_symbol
_atom_site_label
_atom_site_fract_x
_atom_site_fract_y
_atom_site_fract_z
Si Si1 0.151173 0.499080 0.295405
Si Si2 0.844279 0.126735 0.550771
Si Si3 0.247529 0.081091 0.527660
Si Si4 0.838785 0.711512 0.364817
Si Si5 0.971077 0.399113 0.569098
Si Si6 0.084248 0.807678 0.968372
Si Si7 0.874842 0.997038 0.648602
Si Si8 0.500000 0.700227 0.750000
O O1 0.259238 0.457642 0.373002
O O2 0.100849 0.554007 0.360467
O O3 0.226660 0.513012 0.198206
O O4 0.000000 0.464576 0.250000
O O5 0.668357 0.130152 0.507070
O O6 0.870796 0.057726 0.583479
O O7 0.929430 0.157783 0.465864
O O8 0.918163 0.161276 0.654651
O O9 0.412430 0.074148 0.499140
O O10 0.203644 0.148639 0.540035
O O11 0.128638 0.055694 0.432507
O O12 0.910452 0.745596 0.471756
O O13 0.665304 0.700032 0.370114
O O14 0.873869 0.756398 0.279657
O O15 0.927976 0.650396 0.363239
O O16 0.000000 0.996175 0.750000
#
# Coordination Sequence:
#
# PCOD9288337 Si02
#       8
#     8   8   8   8   8   8   8   4
#     4  12  24  39  64  96 136 177 223 275 342 412
#     4  11  22  41  65  97 131 174 225 273 345 406
#     4  11  23  43  64  95 138 171 218 284 338 415
#     4   9  21  42  66  90 124 172 224 276 338 394
#     4  11  23  41  67  92 130 180 222 273 344 408
#     4   9  21  40  68  90 125 176 216 273 344 402
#     4  12  25  39  64 100 135 175 223 275 348 414
#     4  10  22  38  68  96 130 170 232 294 326 398
#
# _framework density 22.630568
#
# number of rings (size 3 to 8) (size 9 to 14) (size 15 to 20)
#    0.000    1.333    3.333    2.000    4.667    3.200 
#    0.000    0.000    5.867    6.400    0.000    0.000 
#    0.000    0.000    0.000    0.000    0.000    0.000 
#
# Total GULP energy -167504.574105 kJ/mol
# GULP energy per Si atom -5583.485804 kJ/mol
# Density = 2.257906 g / cm^3
# Si number density = 22.630568 Si / 1000 Ang^3
#
#
#
# Elastic Constant Matrix: (Units=GPa)
#
#
# Indices 1 2 3 4 5 6 
#
# 1 89.5623 7.8593 17.4631 0.0000 -10.1994 0.0000
# 2 7.8593 92.3399 8.0698 0.0000 -16.7450 0.0000
# 3 17.4631 8.0698 47.8116 0.0000 -6.4434 0.0000
# 4 0.0000 0.0000 0.0000 5.1913 0.0000 0.2997
# 5 -10.1994 -16.7450 -6.4434 0.0000 29.5114 0.0000
# 6 0.0000 0.0000 0.0000 0.2997 0.0000 27.9993
#
#
#
# Elastic Compliance Matrix: (Units=1/GPa)
#
#
# Indices 1 2 3 4 5 6 
#
# 1 0.012341 -0.000093 -0.004043 0.000000 0.003329 0.000000
# 2 -0.000093 0.012134 -0.001123 0.000000 0.006607 0.000000
# 3 -0.004043 -0.001123 0.022984 0.000000 0.002983 0.000000
# 4 0.000000 0.000000 0.000000 0.192750 0.000000 -0.002063
# 5 0.003329 0.006607 0.002983 0.000000 0.039436 0.000000
# 6 0.000000 0.000000 0.000000 -0.002063 0.000000 0.035737
#
#
# Mechanical properties :
#
#
# Convention : Reuss Voigt Hill
#
# Bulk Modulus (GPa) = 27.07158 32.94424 30.00791
# Shear Modulus (GPa) = 14.78349 25.62850 20.20599
#
# Velocity S-wave (km/s) = 2.55865 3.36887 2.99132
# Velocity P-wave (km/s) = 4.55163 5.45174 5.02189
#
# Compressibility (1/GPa) = 0.03693911
#
# Stress axis : x y z
#
# Youngs Moduli (GPa) = 81.03005 82.41406 43.50879
#
# Poissons Ratio (x) = 0.00769 0.17591
# Poissons Ratio (y) = 0.00756 0.04888
# Poissons Ratio (z) = 0.32761 0.09259
#
# Static dielectric constant tensor:
#      x y z
#    x 1.908430 0.000000 -0.037010 
#    y 0.000000 1.819080 0.000000 
#    z -0.037010 0.000000 1.830670 
# 
# From -- ./inp_files/137412.got.cif
#   From: 2010.05.17/outbox.cif.g08.bks.cpg/sg15_69_cif.got.tgz:137412.got - 2010.06.03 18:47:42.
