data_PCOD9288971
_publ_section_title
;
Structure prediction by ZEFSAII (Michael W. Deem and Ramdas Pophale) SiO2 
 PCOD9288971
Probable space group: C 2/C
;
_chemical_formula_sum "Si O2"
_cell_formula_units_Z 48
_cell_length_a 12.144336
_cell_length_b 14.688787
_cell_length_c 20.622501
_cell_angle_alpha 90.000000
_cell_angle_beta 144.173624
_cell_angle_gamma 90.000000
_cell_volume 2153.290157
_symmetry_space_group_name_H-M "C 2/C"
_symmetry_group_IT_number 15
_symmetry_cell_setting 'monoclinic'
loop_
_space_group_symop_operation_xyz
x,y,z
-x,y,1/2-z
-x,-y,-z
x,-y,1/2+z
1/2+x,1/2+y,z
1/2-x,1/2+y,1/2-z
1/2-x,1/2-y,-z
1/2+x,1/2-y,1/2+z
loop_
_atom_site_type_symbol
_atom_site_label
_atom_site_fract_x
_atom_site_fract_y
_atom_site_fract_z
Si Si1 0.439450 0.605613 0.470760
Si Si2 0.460203 0.672924 0.332903
Si Si3 0.272792 0.097863 0.397401
Si Si4 0.312335 0.683095 0.794414
Si Si5 0.864479 0.275971 0.617406
Si Si6 0.719117 0.897153 0.123933
O O1 0.500000 0.500000 0.500000
O O2 0.457052 0.642041 0.405872
O O3 0.578558 0.655690 0.588682
O O4 0.228712 0.633834 0.396099
O O5 0.661357 0.655035 0.397164
O O6 0.313555 0.621919 0.214144
O O7 0.393710 0.776683 0.293854
O O8 0.494724 0.113238 0.509178
O O9 0.232062 0.990812 0.388052
O O10 0.425548 0.764319 0.810210
O O11 0.288571 0.601843 0.731499
O O12 0.750000 0.250000 0.500000
O O13 0.813874 0.190796 0.638554
#
# Coordination Sequence:
#
# PCOD9288971 Si02
#       6
#     8   8   8   8   8   8
#     4  11  24  43  69 103 140 181 232 292 348 405
#     4  11  24  44  67  99 141 178 228 288 348 412
#     4  10  25  42  68 100 136 182 232 283 342 418
#     4  11  24  43  72 102 139 185 230 283 352 410
#     4  10  22  39  69  97 133 179 230 278 338 411
#     4  11  22  44  70  99 133 184 236 276 337 425
#
# _framework density 22.291468999999999
#
# number of rings (size 3 to 8) (size 9 to 14) (size 15 to 20)
#    0.000    1.333    1.667    3.500    9.333    0.667 
#    3.000    0.000    3.667    0.000    0.000    0.000 
#    0.000    0.000    0.000    0.000    0.000    0.000 
#
# Total GULP energy -133965.522167 kJ/mol
# GULP energy per Si atom -5581.896757 kJ/mol
# Density = 2.224073 g / cm^3
# Si number density = 22.291469 Si / 1000 Ang^3
#
#
#
# Elastic Constant Matrix: (Units=GPa)
#
#
# Indices 1 2 3 4 5 6 
#
# 1 116.9085 43.7922 46.0601 0.0001 -8.0953 0.0000
# 2 43.7922 95.4145 2.4006 0.0001 5.4866 0.0000
# 3 46.0601 2.4006 115.7937 0.0003 -27.5314 0.0000
# 4 0.0001 0.0001 0.0003 31.9687 0.0001 -5.3328
# 5 -8.0953 5.4866 -27.5314 0.0001 51.3707 0.0000
# 6 0.0000 0.0000 0.0000 -5.3328 0.0000 9.2836
#
#
#
# Elastic Compliance Matrix: (Units=1/GPa)
#
#
# Indices 1 2 3 4 5 6 
#
# 1 0.012603 -0.005659 -0.004905 0.000000 -0.000038 0.000000
# 2 -0.005659 0.013118 0.001643 0.000000 -0.001412 0.000000
# 3 -0.004905 0.001643 0.011836 0.000000 0.005395 0.000000
# 4 0.000000 0.000000 0.000000 0.034596 0.000000 0.019873
# 5 -0.000038 -0.001412 0.005395 0.000000 0.022502 0.000000
# 6 0.000000 0.000000 0.000000 0.019873 0.000000 0.119133
#
#
# Mechanical properties :
#
#
# Convention : Reuss Voigt Hill
#
# Bulk Modulus (GPa) = 50.72189 56.95807 53.83998
# Shear Modulus (GPa) = 20.99068 34.24885 27.61976
#
# Velocity S-wave (km/s) = 3.07195 3.92396 3.52380
# Velocity P-wave (km/s) = 5.94860 6.79242 6.38447
#
# Compressibility (1/GPa) = 0.01971536
#
# Stress axis : x y z
#
# Youngs Moduli (GPa) = 79.34410 76.23285 84.48953
#
# Poissons Ratio (x) = 0.43140 0.41443
# Poissons Ratio (y) = 0.44900 -0.13884
# Poissons Ratio (z) = 0.38919 -0.12527
#
# Static dielectric constant tensor:
#      x y z
#    x 1.890880 0.000000 -0.096580 
#    y 0.000000 1.811400 0.000000 
#    z -0.096580 0.000000 2.197940 
# 
# From -- ./inp_files/239039.got.cif
#   From: 2010.05.17/outbox.cif.g08.bks.cpg/sg15_120_cif.got.tgz:239039.got - 2010.06.03 18:47:42.
