data_PCOD9288772
_publ_section_title
;
Structure prediction by ZEFSAII (Michael W. Deem and Ramdas Pophale) SiO2 
 PCOD9288772
Probable space group: C 2/C
;
_chemical_formula_sum "Si O2"
_cell_formula_units_Z 36
_cell_length_a 5.672347
_cell_length_b 20.063263
_cell_length_c 13.485596
_cell_angle_alpha 90.000000
_cell_angle_beta 103.471320
_cell_angle_gamma 90.000000
_cell_volume 1492.513097
_symmetry_space_group_name_H-M "C 2/C"
_symmetry_group_IT_number 15
_symmetry_cell_setting 'monoclinic'
loop_
_space_group_symop_operation_xyz
x,y,z
-x,y,1/2-z
-x,-y,-z
x,-y,1/2+z
1/2+x,1/2+y,z
1/2-x,1/2+y,1/2-z
1/2-x,1/2-y,-z
1/2+x,1/2-y,1/2+z
loop_
_atom_site_type_symbol
_atom_site_label
_atom_site_fract_x
_atom_site_fract_y
_atom_site_fract_z
Si Si1 0.193698 0.499145 0.877038
Si Si2 0.627081 0.360337 0.161563
Si Si3 0.409235 0.685596 0.044351
Si Si4 0.212489 0.046260 0.399272
Si Si5 0.000000 0.753314 0.750000
O O1 0.209330 0.576913 0.851658
O O2 0.425778 0.462717 0.851450
O O3 0.920172 0.473082 0.842260
O O4 0.246988 0.498101 0.001486
O O5 0.500000 0.381089 0.250000
O O6 0.779412 0.295308 0.203531
O O7 0.474471 0.340606 0.047671
O O8 0.250811 0.622945 0.065921
O O9 0.560004 0.705454 0.156453
O O10 0.250000 0.750000 0.000000
#
# Coordination Sequence:
#
# PCOD9288772 Si02
#       5
#     8   8   8   8   4
#     4   9  19  36  64  91 130 164 221 276 342 396
#     4  10  22  39  64  97 129 174 229 285 345 413
#     4   9  20  43  65  96 134 177 228 279 337 413
#     4   9  18  38  62  96 125 170 215 280 335 399
#     4  10  22  42  62  92 130 180 232 278 348 408
#
# _framework density 24.120391000000001
#
# number of rings (size 3 to 8) (size 9 to 14) (size 15 to 20)
#    0.000    2.667    0.000    0.000    3.111    0.889 
#   22.000    0.000    0.000    0.000    0.000    0.000 
#    0.000    0.000    0.000    0.000    0.000    0.000 
#
# Total GULP energy -100426.569369 kJ/mol
# GULP energy per Si atom -5579.253854 kJ/mol
# Density = 2.406549 g / cm^3
# Si number density = 24.120391 Si / 1000 Ang^3
#
#
#
# Elastic Constant Matrix: (Units=GPa)
#
#
# Indices 1 2 3 4 5 6 
#
# 1 151.0130 42.2014 62.8042 0.0000 -18.2703 0.0000
# 2 42.2014 132.4240 39.4395 0.0000 -9.0784 0.0000
# 3 62.8042 39.4395 158.8463 0.0000 -18.5992 0.0000
# 4 0.0000 0.0000 0.0000 192.5784 0.0000 -6.4160
# 5 -18.2703 -9.0784 -18.5992 0.0000 41.6606 0.0000
# 6 0.0000 0.0000 0.0000 -6.4160 0.0000 20.1547
#
#
#
# Elastic Compliance Matrix: (Units=1/GPa)
#
#
# Indices 1 2 3 4 5 6 
#
# 1 0.008482 -0.001762 -0.002665 0.000000 0.002146 0.000000
# 2 -0.001762 0.008554 -0.001371 0.000000 0.000479 0.000000
# 3 -0.002665 -0.001371 0.007932 0.000000 0.002074 0.000000
# 4 0.000000 0.000000 0.000000 0.005248 0.000000 0.001671
# 5 0.002146 0.000479 0.002074 0.000000 0.025975 0.000000
# 6 0.000000 0.000000 0.000000 0.001671 0.000000 0.050148
#
#
# Mechanical properties :
#
#
# Convention : Reuss Voigt Hill
#
# Bulk Modulus (GPa) = 74.78088 81.24151 78.01120
# Shear Modulus (GPa) = 40.85156 70.73463 55.79310
#
# Velocity S-wave (km/s) = 4.11987 5.42119 4.81470
# Velocity P-wave (km/s) = 7.32813 8.54052 7.95745
#
# Compressibility (1/GPa) = 0.01337240
#
# Stress axis : x y z
#
# Youngs Moduli (GPa) = 117.89120 116.89997 126.06750
#
# Poissons Ratio (x) = 0.20602 0.33595
# Poissons Ratio (y) = 0.20777 0.17284
# Poissons Ratio (z) = 0.31416 0.16027
#
# Static dielectric constant tensor:
#      x y z
#    x 1.931720 0.000000 0.010990 
#    y 0.000000 1.862280 0.000000 
#    z 0.010990 0.000000 2.091630 
# 
# From -- ./inp_files/128766.got.cif
#   From: 2010.05.17/outbox.cif.g08.bks.cpg/sg15_65_cif.got.tgz:128766.got - 2010.06.03 18:47:42.
