data_PCOD9288698
_publ_section_title
;
Structure prediction by ZEFSAII (Michael W. Deem and Ramdas Pophale) SiO2 
 PCOD9288698
Probable space group: C 2/C
;
_chemical_formula_sum "Si O2"
_cell_formula_units_Z 48
_cell_length_a 4.887858
_cell_length_b 22.915847
_cell_length_c 20.849543
_cell_angle_alpha 90.000000
_cell_angle_beta 126.776894
_cell_angle_gamma 90.000000
_cell_volume 1870.547947
_symmetry_space_group_name_H-M "C 2/C"
_symmetry_group_IT_number 15
_symmetry_cell_setting 'monoclinic'
loop_
_space_group_symop_operation_xyz
x,y,z
-x,y,1/2-z
-x,-y,-z
x,-y,1/2+z
1/2+x,1/2+y,z
1/2-x,1/2+y,1/2-z
1/2-x,1/2-y,-z
1/2+x,1/2-y,1/2+z
loop_
_atom_site_type_symbol
_atom_site_label
_atom_site_fract_x
_atom_site_fract_y
_atom_site_fract_z
Si Si1 0.999482 0.664232 0.048815
Si Si2 0.239223 0.788987 0.097282
Si Si3 0.058562 0.150231 0.833893
Si Si4 0.906346 0.610694 0.303497
Si Si5 0.916517 0.478207 0.307290
Si Si6 0.971367 0.560004 0.955429
O O1 0.238857 0.720762 0.081752
O O2 0.973723 0.642559 0.117255
O O3 0.618835 0.685549 0.978366
O O4 0.127266 0.610105 0.023125
O O5 0.571256 0.818259 0.114120
O O6 0.202842 0.807347 0.166787
O O7 0.115160 0.092457 0.885630
O O8 0.000000 0.139283 0.750000
O O9 0.500000 0.607119 0.250000
O O10 0.050223 0.544768 0.323521
O O11 0.000000 0.640337 0.250000
O O12 0.500000 0.481852 0.250000
O O13 0.000000 0.449813 0.250000
O O14 0.073105 0.453404 0.395702
O O15 0.000000 0.500000 0.000000
#
# Coordination Sequence:
#
# PCOD9288698 Si02
#       6
#     8   8   8   8   8   8
#     4  10  23  45  71 108 146 182 248 300 365 436
#     4  10  25  45  73 103 140 190 237 311 358 417
#     4  11  25  47  74 104 143 192 247 297 359 436
#     4  10  22  39  63  95 136 184 227 290 353 419
#     4  10  22  43  64  95 138 181 233 282 340 420
#     4  11  23  44  74 108 145 194 236 296 367 433
#
# _framework density 25.660931999999999
#
# number of rings (size 3 to 8) (size 9 to 14) (size 15 to 20)
#    0.000    1.667    1.667    1.000    0.000   16.000 
#    3.000    4.167    0.000    0.000    0.000    0.000 
#    0.000    0.000    0.000    0.000    0.000    0.000 
#
# Total GULP energy -134150.621859 kJ/mol
# GULP energy per Si atom -5589.609244 kJ/mol
# Density = 2.560253 g / cm^3
# Si number density = 25.660932 Si / 1000 Ang^3
#
#
#
# Elastic Constant Matrix: (Units=GPa)
#
#
# Indices 1 2 3 4 5 6 
#
# 1 132.1455 39.0481 55.6287 0.0000 -30.2146 0.0000
# 2 39.0481 174.1128 89.6769 0.0000 -19.7978 0.0000
# 3 55.6287 89.6769 179.7831 0.0000 -49.2180 0.0000
# 4 0.0000 0.0000 0.0000 13.2122 0.0000 -9.7286
# 5 -30.2146 -19.7978 -49.2180 0.0000 51.1281 0.0000
# 6 0.0000 0.0000 0.0000 -9.7286 0.0000 19.5712
#
#
#
# Elastic Compliance Matrix: (Units=1/GPa)
#
#
# Indices 1 2 3 4 5 6 
#
# 1 0.009292 -0.000952 -0.001355 0.000000 0.003818 0.000000
# 2 -0.000952 0.007863 -0.004003 0.000000 -0.001371 0.000000
# 3 -0.001355 -0.004003 0.009959 0.000000 0.007236 0.000000
# 4 0.000000 0.000000 0.000000 0.119386 0.000000 0.059346
# 5 0.003818 -0.001371 0.007236 0.000000 0.028250 0.000000
# 6 0.000000 0.000000 0.000000 0.059346 0.000000 0.080596
#
#
# Mechanical properties :
#
#
# Convention : Reuss Voigt Hill
#
# Bulk Modulus (GPa) = 68.99153 94.97210 81.98181
# Shear Modulus (GPa) = 18.32863 36.89479 27.61171
#
# Velocity S-wave (km/s) = 2.67547 3.79592 3.28384
# Velocity P-wave (km/s) = 6.04056 7.50352 6.81143
#
# Compressibility (1/GPa) = 0.01449453
#
# Stress axis : x y z
#
# Youngs Moduli (GPa) = 107.61758 127.18462 100.40938
#
# Poissons Ratio (x) = 0.12106 0.13607
# Poissons Ratio (y) = 0.10243 0.40192
# Poissons Ratio (z) = 0.14584 0.50909
#
# Static dielectric constant tensor:
#      x y z
#    x 2.032370 0.000000 -0.026550 
#    y 0.000000 2.053280 0.000000 
#    z -0.026550 0.000000 2.071780 
# 
# From -- ./inp_files/228250.got.cif
#   From: 2010.05.17/outbox.cif.g08.bks.cpg/sg15_115_cif.got.tgz:228250.got - 2010.06.03 18:47:42.
