data_PCOD9288089
_publ_section_title
;
Structure prediction by ZEFSAII (Michael W. Deem and Ramdas Pophale) SiO2 
 PCOD9288089
Probable space group: C 2/C
;
_chemical_formula_sum "Si O2"
_cell_formula_units_Z 60
_cell_length_a 24.548864
_cell_length_b 15.500320
_cell_length_c 19.083428
_cell_angle_alpha 90.000000
_cell_angle_beta 156.174979
_cell_angle_gamma 90.000000
_cell_volume 2933.259580
_symmetry_space_group_name_H-M "C 2/C"
_symmetry_group_IT_number 15
_symmetry_cell_setting 'monoclinic'
loop_
_space_group_symop_operation_xyz
x,y,z
-x,y,1/2-z
-x,-y,-z
x,-y,1/2+z
1/2+x,1/2+y,z
1/2-x,1/2+y,1/2-z
1/2-x,1/2-y,-z
1/2+x,1/2-y,1/2+z
loop_
_atom_site_type_symbol
_atom_site_label
_atom_site_fract_x
_atom_site_fract_y
_atom_site_fract_z
Si Si1 0.417279 0.917762 0.978528
Si Si2 0.931462 0.329278 0.855465
Si Si3 0.732068 0.205680 0.707803
Si Si4 0.303205 0.440723 0.612850
Si Si5 0.420221 0.958249 0.728208
Si Si6 0.823527 0.276829 0.959064
Si Si7 0.657963 0.482359 0.196921
Si Si8 0.000000 0.855366 0.750000
O O1 0.467621 0.897818 0.960256
O O2 0.434222 0.830705 0.044580
O O3 0.259003 0.944380 0.785160
O O4 0.483128 0.990378 0.104390
O O5 0.827002 0.265205 0.770521
O O6 0.873715 0.376814 0.719128
O O7 0.075365 0.289958 0.002772
O O8 0.738315 0.234714 0.796408
O O9 0.792230 0.109438 0.772367
O O10 0.199773 0.478282 0.434950
O O11 0.249262 0.351572 0.582878
O O12 0.317517 0.509857 0.691143
O O13 0.443126 0.415765 0.743338
O O14 0.500000 0.937759 0.750000
O O15 0.886203 0.206362 0.083631
O O16 0.500000 0.500000 0.000000
#
# Coordination Sequence:
#
# PCOD9288089 Si02
#       8
#     8   8   8   8   8   8   8   4
#     4  10  22  41  67  99 128 180 229 272 338 405
#     4  11  26  42  69 103 132 180 231 283 336 405
#     4  11  25  43  67 101 136 175 234 283 345 395
#     4  11  25  41  64  98 131 180 221 271 343 405
#     4  12  21  45  70  92 134 176 229 271 330 412
#     4  10  22  38  63  93 137 164 215 280 339 406
#     4  11  23  42  68  95 137 179 225 286 335 399
#     4  12  24  38  58 102 136 180 206 268 362 402
#
# _framework density 20.45506
#
# number of rings (size 3 to 8) (size 9 to 14) (size 15 to 20)
#    0.000    1.067    4.000    2.400   11.200    1.067 
#    0.000    2.667    0.000    0.000    0.000    0.000 
#    0.000    0.000    0.000    0.000    0.000    0.000 
#
# Total GULP energy -167507.467477 kJ/mol
# GULP energy per Si atom -5583.582249 kJ/mol
# Density = 2.040850 g / cm^3
# Si number density = 20.455060 Si / 1000 Ang^3
#
#
#
# Elastic Constant Matrix: (Units=GPa)
#
#
# Indices 1 2 3 4 5 6 
#
# 1 83.9103 29.1618 19.7626 0.0001 -3.6917 0.0001
# 2 29.1618 67.0550 28.0727 0.0006 -3.3300 0.0002
# 3 19.7626 28.0727 87.7705 0.0011 9.3361 0.0005
# 4 0.0001 0.0006 0.0011 36.7702 0.0005 -12.6953
# 5 -3.6917 -3.3300 9.3361 0.0005 24.9081 0.0002
# 6 0.0001 0.0002 0.0005 -12.6953 0.0002 43.8284
#
#
#
# Elastic Compliance Matrix: (Units=1/GPa)
#
#
# Indices 1 2 3 4 5 6 
#
# 1 0.014285 -0.005397 -0.001707 0.000000 0.002035 0.000000
# 2 -0.005397 0.019767 -0.005523 0.000000 0.003913 0.000000
# 3 -0.001707 -0.005523 0.014217 0.000000 -0.006320 0.000000
# 4 0.000000 0.000000 0.000000 0.030218 -0.000001 0.008753
# 5 0.002035 0.003913 -0.006320 -0.000001 0.043341 0.000000
# 6 0.000000 0.000000 0.000000 0.008753 0.000000 0.025352
#
#
# Mechanical properties :
#
#
# Convention : Reuss Voigt Hill
#
# Bulk Modulus (GPa) = 43.45124 43.63666 43.54395
# Shear Modulus (GPa) = 27.76180 31.88394 29.82287
#
# Velocity S-wave (km/s) = 3.68803 3.95236 3.82248
# Velocity P-wave (km/s) = 6.27884 6.49673 6.38871
#
# Compressibility (1/GPa) = 0.02301430
#
# Stress axis : x y z
#
# Youngs Moduli (GPa) = 70.00581 50.58992 70.34072
#
# Poissons Ratio (x) = 0.27301 0.12006
# Poissons Ratio (y) = 0.37780 0.38852
# Poissons Ratio (z) = 0.11948 0.27943
#
# Static dielectric constant tensor:
#      x y z
#    x 1.739190 0.000000 0.007930 
#    y 0.000000 1.743530 0.000000 
#    z 0.007930 0.000000 1.744850 
# 
# From -- ./inp_files/257874.got.cif
#   From: 2010.05.17/outbox.cif.g08.bks.cpg/sg15_129_cif.got.tgz:257874.got - 2010.06.03 18:47:42.
