data_PCOD9288268
_publ_section_title
;
Structure prediction by ZEFSAII (Michael W. Deem and Ramdas Pophale) SiO2 
 PCOD9288268
Probable space group: C 2/C
;
_chemical_formula_sum "Si O2"
_cell_formula_units_Z 44
_cell_length_a 17.788738
_cell_length_b 22.975338
_cell_length_c 11.814310
_cell_angle_alpha 90.000000
_cell_angle_beta 152.043273
_cell_angle_gamma 90.000000
_cell_volume 2263.639447
_symmetry_space_group_name_H-M "C 2/C"
_symmetry_group_IT_number 15
_symmetry_cell_setting 'monoclinic'
loop_
_space_group_symop_operation_xyz
x,y,z
-x,y,1/2-z
-x,-y,-z
x,-y,1/2+z
1/2+x,1/2+y,z
1/2-x,1/2+y,1/2-z
1/2-x,1/2-y,-z
1/2+x,1/2-y,1/2+z
loop_
_atom_site_type_symbol
_atom_site_label
_atom_site_fract_x
_atom_site_fract_y
_atom_site_fract_z
Si Si1 0.500000 0.464590 0.250000
Si Si2 0.243793 0.471164 0.271786
Si Si3 0.493736 0.073223 0.609547
Si Si4 0.335410 0.229045 0.959491
Si Si5 0.572505 0.172794 0.127111
Si Si6 0.257499 0.890661 0.453555
O O1 0.585354 0.505441 0.457409
O O2 0.626121 0.422206 0.356042
O O3 0.230673 0.432668 0.140365
O O4 0.159637 0.438550 0.264892
O O5 0.136659 0.528136 0.109780
O O6 0.500000 0.064196 0.750000
O O7 0.441658 0.137360 0.505864
O O8 0.500000 0.237396 0.250000
O O9 0.412271 0.208648 0.943409
O O10 0.224654 0.284918 0.821712
O O11 0.233569 0.174218 0.871602
O O12 0.599731 0.125347 0.266110
#
# Coordination Sequence:
#
# PCOD9288268 Si02
#       6
#     4   8   8   8   8   8
#     4  12  24  38  62  98 132 172 210 258 326 390
#     4  11  24  41  63  94 132 168 213 260 320 384
#     4  11  24  41  66  90 128 174 213 256 321 393
#     4  10  22  38  66  95 128 160 216 271 323 368
#     4  11  23  41  65  97 128 167 216 270 322 378
#     4  11  22  38  63  96 129 162 209 271 315 375
#
# _framework density 19.437723999999999
#
# number of rings (size 3 to 8) (size 9 to 14) (size 15 to 20)
#    0.000    1.091    3.636    3.818    6.364    0.000 
#    0.000    0.909    2.000    0.000    0.000    0.000 
#    0.000    0.000    0.000    0.000    0.000    0.000 
#
# Total GULP energy -122692.710503 kJ/mol
# GULP energy per Si atom -5576.941387 kJ/mol
# Density = 1.939348 g / cm^3
# Si number density = 19.437724 Si / 1000 Ang^3
#
#
#
# Elastic Constant Matrix: (Units=GPa)
#
#
# Indices 1 2 3 4 5 6 
#
# 1 101.7833 29.0840 19.5643 0.0000 2.4176 0.0000
# 2 29.0840 95.1843 35.4184 0.0000 14.2368 0.0000
# 3 19.5643 35.4184 56.4178 0.0000 7.4572 0.0000
# 4 0.0000 0.0000 0.0000 17.0251 0.0000 2.9728
# 5 2.4176 14.2368 7.4572 0.0000 16.0097 0.0000
# 6 0.0000 0.0000 0.0000 2.9728 0.0000 38.1468
#
#
#
# Elastic Compliance Matrix: (Units=1/GPa)
#
#
# Indices 1 2 3 4 5 6 
#
# 1 0.011023 -0.002787 -0.002323 0.000000 0.001896 0.000000
# 2 -0.002787 0.015659 -0.007543 0.000000 -0.009990 0.000000
# 3 -0.002323 -0.007543 0.023798 0.000000 -0.004026 0.000000
# 4 0.000000 0.000000 0.000000 0.059547 0.000000 -0.004640
# 5 0.001896 -0.009990 -0.004026 0.000000 0.072935 0.000000
# 6 0.000000 0.000000 0.000000 -0.004640 0.000000 0.026576
#
#
# Mechanical properties :
#
#
# Convention : Reuss Voigt Hill
#
# Bulk Modulus (GPa) = 39.72636 46.83543 43.28089
# Shear Modulus (GPa) = 20.55614 25.52424 23.04019
#
# Velocity S-wave (km/s) = 3.25551 3.62764 3.44660
# Velocity P-wave (km/s) = 5.88330 6.45708 6.17686
#
# Compressibility (1/GPa) = 0.02517221
#
# Stress axis : x y z
#
# Youngs Moduli (GPa) = 90.72154 63.86230 42.01970
#
# Poissons Ratio (x) = 0.17799 0.09762
# Poissons Ratio (y) = 0.25285 0.31697
# Poissons Ratio (z) = 0.21077 0.48174
#
# Static dielectric constant tensor:
#      x y z
#    x 1.730740 0.000000 0.006250 
#    y 0.000000 1.687550 0.000000 
#    z 0.006250 0.000000 1.688440 
# 
# From -- ./inp_files/108006.got.cif
#   From: 2010.05.17/outbox.cif.g08.bks.cpg/sg15_55_cif.got.tgz:108006.got - 2010.06.03 18:47:42.
