data_PCOD9288598
_publ_section_title
;
Structure prediction by ZEFSAII (Michael W. Deem and Ramdas Pophale) SiO2 
 PCOD9288598
Probable space group: C 2/C
;
_chemical_formula_sum "Si O2"
_cell_formula_units_Z 56
_cell_length_a 29.627500
_cell_length_b 12.986952
_cell_length_c 8.809065
_cell_angle_alpha 90.000000
_cell_angle_beta 53.533043
_cell_angle_gamma 90.000000
_cell_volume 2725.812630
_symmetry_space_group_name_H-M "C 2/C"
_symmetry_group_IT_number 15
_symmetry_cell_setting 'monoclinic'
loop_
_space_group_symop_operation_xyz
x,y,z
-x,y,1/2-z
-x,-y,-z
x,-y,1/2+z
1/2+x,1/2+y,z
1/2-x,1/2+y,1/2-z
1/2-x,1/2-y,-z
1/2+x,1/2-y,1/2+z
loop_
_atom_site_type_symbol
_atom_site_label
_atom_site_fract_x
_atom_site_fract_y
_atom_site_fract_z
Si Si1 0.119321 0.137778 0.292866
Si Si2 0.708516 0.003208 0.820113
Si Si3 0.508363 0.688779 0.910655
Si Si4 0.513718 0.892311 0.398138
Si Si5 0.354423 0.866834 0.302444
Si Si6 0.770146 0.866017 0.444851
Si Si7 0.879881 0.072553 0.856852
O O1 0.153213 0.243342 0.197105
O O2 0.127240 0.102046 0.452160
O O3 0.052173 0.153850 0.407755
O O4 0.133495 0.046080 0.150567
O O5 0.743714 0.934786 0.632595
O O6 0.665204 0.073684 0.810480
O O7 0.748445 0.078856 0.836368
O O8 0.677658 0.924926 0.997327
O O9 0.500000 0.711422 0.750000
O O10 0.557538 0.605030 0.820259
O O11 0.521336 0.796806 0.964079
O O12 0.500000 0.896962 0.250000
O O13 0.579321 0.875891 0.300809
O O14 0.500000 0.000000 0.500000
O O15 0.750000 0.750000 0.500000
O O16 0.836452 0.866500 0.338638
#
# Coordination Sequence:
#
# PCOD9288598 Si02
#       7
#     8   8   8   8   8   8   8
#     4  10  22  39  62  91 120 157 198 242 301 363
#     4  10  23  42  63  87 119 158 203 249 296 351
#     4   9  21  39  59  86 121 157 194 242 298 358
#     4  11  22  35  58  91 120 154 199 242 298 367
#     4  10  22  42  63  87 122 158 195 250 303 349
#     4  11  24  40  61  90 118 157 206 247 294 351
#     4  11  22  39  61  86 122 159 197 248 298 349
#
# _framework density 20.544333000000002
#
# number of rings (size 3 to 8) (size 9 to 14) (size 15 to 20)
#    0.000    1.714    0.000    3.429    0.000   10.286 
#    0.000    4.286    0.000    0.000    0.000    0.000 
#    0.000    0.000    0.000    0.000    0.000    0.000 
#
# Total GULP energy -156462.011801 kJ/mol
# GULP energy per Si atom -5587.928993 kJ/mol
# Density = 2.049757 g / cm^3
# Si number density = 20.544333 Si / 1000 Ang^3
#
#
#
# Elastic Constant Matrix: (Units=GPa)
#
#
# Indices 1 2 3 4 5 6 
#
# 1 117.3803 51.3168 35.2680 0.0000 17.3867 0.0000
# 2 51.3168 158.1786 38.8505 0.0000 21.6009 0.0000
# 3 35.2680 38.8505 46.6268 0.0000 9.2011 0.0000
# 4 0.0000 0.0000 0.0000 -68.1795 0.0000 -100.5873
# 5 17.3867 21.6009 9.2011 0.0000 16.3302 0.0000
# 6 0.0000 0.0000 0.0000 -100.5873 0.0000 -82.2364
#
#
#
# Elastic Compliance Matrix: (Units=1/GPa)
#
#
# Indices 1 2 3 4 5 6 
#
# 1 0.012203 -0.001294 -0.006667 0.000000 -0.007524 0.000000
# 2 -0.001294 0.009032 -0.005019 0.000000 -0.007741 0.000000
# 3 -0.006667 -0.005019 0.031459 0.000000 -0.003988 0.000000
# 4 0.000000 0.000000 0.000000 0.018230 0.000000 -0.022298
# 5 -0.007524 -0.007741 -0.003988 0.000000 0.081734 0.000000
# 6 0.000000 0.000000 0.000000 -0.022298 0.000000 0.015114
#
#
# Mechanical properties :
#
#
# Convention : Reuss Voigt Hill
#
# Bulk Modulus (GPa) = 37.40708 63.67292 50.54000
# Shear Modulus (GPa) = 24.67401 -13.70045 5.48678
#
# Velocity S-wave (km/s) = 3.46932 -2.58519 1.63600
# Velocity P-wave (km/s) = 5.85626 4.70630 5.31249
#
# Compressibility (1/GPa) = 0.02673291
#
# Stress axis : x y z
#
# Youngs Moduli (GPa) = 81.94940 110.72252 31.78764
#
# Poissons Ratio (x) = 0.14325 0.21193
# Poissons Ratio (y) = 0.10603 0.15955
# Poissons Ratio (z) = 0.54637 0.55573
#
# Static dielectric constant tensor:
#      x y z
#    x 1.766740 0.000000 -0.020870 
#    y 0.000000 1.721430 0.000000 
#    z -0.020870 0.000000 1.726670 
# 
# From -- ./inp_files/69310.got.cif
#   From: 2010.05.17/outbox.cif.g08.bks.cpg/sg15_35_cif.got.tgz:69310.got - 2010.06.03 18:47:42.
