data_PCOD9288653
_publ_section_title
;
Structure prediction by ZEFSAII (Michael W. Deem and Ramdas Pophale) SiO2 
 PCOD9288653
Probable space group: C 2/C
;
_chemical_formula_sum "Si O2"
_cell_formula_units_Z 44
_cell_length_a 13.912334
_cell_length_b 7.859969
_cell_length_c 20.962451
_cell_angle_alpha 90.000000
_cell_angle_beta 59.644185
_cell_angle_gamma 90.000000
_cell_volume 1977.995032
_symmetry_space_group_name_H-M "C 2/C"
_symmetry_group_IT_number 15
_symmetry_cell_setting 'monoclinic'
loop_
_space_group_symop_operation_xyz
x,y,z
-x,y,1/2-z
-x,-y,-z
x,-y,1/2+z
1/2+x,1/2+y,z
1/2-x,1/2+y,1/2-z
1/2-x,1/2-y,-z
1/2+x,1/2-y,1/2+z
loop_
_atom_site_type_symbol
_atom_site_label
_atom_site_fract_x
_atom_site_fract_y
_atom_site_fract_z
Si Si1 0.228182 0.443139 0.484299
Si Si2 0.119246 0.196657 0.294247
Si Si3 0.542679 0.487823 0.557991
Si Si4 0.500000 0.028652 0.750000
Si Si5 0.268151 0.042941 0.666824
Si Si6 0.007051 0.372720 0.615758
O O1 0.250000 0.250000 0.500000
O O2 0.325192 0.548475 0.486106
O O3 0.248505 0.454817 0.402573
O O4 0.099705 0.474961 0.543791
O O5 0.086997 0.343179 0.254544
O O6 0.167312 0.042726 0.237796
O O7 0.212462 0.271560 0.310116
O O8 0.019522 0.142986 0.374453
O O9 0.500000 0.500000 0.500000
O O10 0.518178 0.674595 0.595705
O O11 0.537909 0.912024 0.678703
O O12 0.383278 0.939811 0.642028
#
# Coordination Sequence:
#
# PCOD9288653 Si02
#       6
#     8   8   8   4   8   8
#     4  10  22  39  63  89 123 164 207 256 311 374
#     4  11  23  41  64  95 129 167 215 265 320 383
#     4  11  24  42  66  94 127 169 214 265 318 379
#     4  10  24  42  62  94 128 170 218 262 318 380
#     4  11  23  41  65  94 127 166 209 264 320 381
#     4  10  23  42  65  93 128 166 209 262 318 380
#
# _framework density 22.244747
#
# number of rings (size 3 to 8) (size 9 to 14) (size 15 to 20)
#    0.000    1.455    0.000    4.909    0.000   15.273 
#    0.000    5.455    0.000    0.000    0.000    0.000 
#    0.000    0.000    0.000    0.000    0.000    0.000 
#
# Total GULP energy -122991.490867 kJ/mol
# GULP energy per Si atom -5590.522312 kJ/mol
# Density = 2.219412 g / cm^3
# Si number density = 22.244747 Si / 1000 Ang^3
#
#
#
# Elastic Constant Matrix: (Units=GPa)
#
#
# Indices 1 2 3 4 5 6 
#
# 1 71.1648 1.9109 24.8771 0.0000 22.4120 0.0000
# 2 1.9109 59.0798 22.6468 0.0000 2.0910 0.0000
# 3 24.8771 22.6468 108.7799 0.0000 15.1766 0.0000
# 4 0.0000 0.0000 0.0000 41.1240 0.0000 0.3324
# 5 22.4120 2.0910 15.1766 0.0000 39.7587 0.0000
# 6 0.0000 0.0000 0.0000 0.3324 0.0000 30.0319
#
#
#
# Elastic Compliance Matrix: (Units=1/GPa)
#
#
# Indices 1 2 3 4 5 6 
#
# 1 0.017919 0.000901 -0.003031 0.000000 -0.008991 0.000000
# 2 0.000901 0.018450 -0.004057 0.000000 0.000071 0.000000
# 3 -0.003031 -0.004057 0.011051 0.000000 -0.002296 0.000000
# 4 0.000000 0.000000 0.000000 0.024319 0.000000 -0.000269
# 5 -0.008991 0.000071 -0.002296 0.000000 0.031093 0.000000
# 6 0.000000 0.000000 0.000000 -0.000269 0.000000 0.033301
#
#
# Mechanical properties :
#
#
# Convention : Reuss Voigt Hill
#
# Bulk Modulus (GPa) = 28.53467 37.54379 33.03923
# Shear Modulus (GPa) = 31.21319 34.82223 33.01771
#
# Velocity S-wave (km/s) = 3.74996 3.96082 3.85683
# Velocity P-wave (km/s) = 5.62183 6.15075 5.89223
#
# Compressibility (1/GPa) = 0.03504508
#
# Stress axis : x y z
#
# Youngs Moduli (GPa) = 55.80704 54.20135 90.48944
#
# Poissons Ratio (x) = -0.04881 0.27427
# Poissons Ratio (y) = -0.05025 0.36710
# Poissons Ratio (z) = 0.16915 0.21989
#
# Static dielectric constant tensor:
#      x y z
#    x 1.848280 0.000000 -0.026820 
#    y 0.000000 1.842490 0.000000 
#    z -0.026820 0.000000 1.811670 
# 
# From -- ./inp_files/202926.got.cif
#   From: 2010.05.17/outbox.cif.g08.bks.cpg/sg15_102_cif.got.tgz:202926.got - 2010.06.03 18:47:42.
