data_PCOD9288721
_publ_section_title
;
Structure prediction by ZEFSAII (Michael W. Deem and Ramdas Pophale) SiO2 
 PCOD9288721
Probable space group: C 2/C
;
_chemical_formula_sum "Si O2"
_cell_formula_units_Z 48
_cell_length_a 24.610651
_cell_length_b 21.200629
_cell_length_c 13.130752
_cell_angle_alpha 90.000000
_cell_angle_beta 22.767833
_cell_angle_gamma 90.000000
_cell_volume 2651.368774
_symmetry_space_group_name_H-M "C 2/C"
_symmetry_group_IT_number 15
_symmetry_cell_setting 'monoclinic'
loop_
_space_group_symop_operation_xyz
x,y,z
-x,y,1/2-z
-x,-y,-z
x,-y,1/2+z
1/2+x,1/2+y,z
1/2-x,1/2+y,1/2-z
1/2-x,1/2-y,-z
1/2+x,1/2-y,1/2+z
loop_
_atom_site_type_symbol
_atom_site_label
_atom_site_fract_x
_atom_site_fract_y
_atom_site_fract_z
Si Si1 0.882448 0.762793 0.040084
Si Si2 0.192372 0.616149 0.278447
Si Si3 0.405847 0.169537 0.515445
Si Si4 0.588319 0.727497 0.790073
Si Si5 0.449706 0.055042 0.159953
Si Si6 0.500000 0.641512 0.750000
Si Si7 0.500000 0.026564 0.750000
O O1 0.841896 0.689773 0.137461
O O2 0.744464 0.800525 0.244101
O O3 0.929367 0.795928 0.064388
O O4 0.000000 0.762861 0.750000
O O5 0.158653 0.596782 0.219085
O O6 0.096112 0.571789 0.515040
O O7 0.355990 0.605204 0.019821
O O8 0.485713 0.213452 0.457030
O O9 0.419950 0.099548 0.534314
O O10 0.500000 0.171793 0.250000
O O11 0.750000 0.750000 0.500000
O O12 0.542451 0.683352 0.775526
O O13 0.408254 0.019321 0.335393
O O14 0.500000 0.000000 0.000000
#
# Coordination Sequence:
#
# PCOD9288721 Si02
#       7
#     8   8   8   8   8   4   4
#     4  12  25  38  58  98 136 160 194 267 336 372
#     4  11  21  39  63  93 123 160 211 258 310 374
#     4  12  20  37  65  90 118 163 208 253 312 378
#     4  12  19  36  60  92 126 159 204 242 315 391
#     4  10  22  39  64  86 116 169 217 252 291 373
#     4  12  22  37  62  94 125 162 200 258 322 374
#     4  10  22  41  66  88 121 166 218 254 300 364
#
# _framework density 18.103854999999999
#
# number of rings (size 3 to 8) (size 9 to 14) (size 15 to 20)
#    0.000    0.667    9.167    0.000    0.000    0.667 
#    6.000    0.833    7.333    0.000    0.000    0.000 
#    0.000    0.000    0.000    0.000    0.000    0.000 
#
# Total GULP energy -133765.410771 kJ/mol
# GULP energy per Si atom -5573.558782 kJ/mol
# Density = 1.806265 g / cm^3
# Si number density = 18.103855 Si / 1000 Ang^3
#
#
#
# Elastic Constant Matrix: (Units=GPa)
#
#
# Indices 1 2 3 4 5 6 
#
# 1 128.1963 36.3614 65.3123 0.0002 -12.5699 -0.0001
# 2 36.3614 87.4038 40.1246 0.0006 -12.4905 -0.0002
# 3 65.3123 40.1246 110.1333 0.0008 -6.4222 -0.0004
# 4 0.0002 0.0006 0.0008 17.4193 -0.0002 -8.5979
# 5 -12.5699 -12.4905 -6.4222 -0.0002 32.2088 0.0001
# 6 -0.0001 -0.0002 -0.0004 -8.5979 0.0001 35.2349
#
#
#
# Elastic Compliance Matrix: (Units=1/GPa)
#
#
# Indices 1 2 3 4 5 6 
#
# 1 0.011671 -0.001640 -0.006167 0.000000 0.002689 0.000000
# 2 -0.001640 0.014609 -0.004105 0.000000 0.004207 0.000000
# 3 -0.006167 -0.004105 0.014164 0.000000 -0.001174 0.000000
# 4 0.000000 0.000000 0.000000 0.065269 0.000000 0.015927
# 5 0.002689 0.004207 -0.001174 0.000000 0.033494 0.000000
# 6 0.000000 0.000000 0.000000 0.015927 0.000000 0.032267
#
#
# Mechanical properties :
#
#
# Convention : Reuss Voigt Hill
#
# Bulk Modulus (GPa) = 60.16487 67.70332 63.93410
# Shear Modulus (GPa) = 24.89564 29.23494 27.06529
#
# Velocity S-wave (km/s) = 3.71233 4.02287 3.87072
# Velocity P-wave (km/s) = 7.18892 7.68482 7.44100
#
# Compressibility (1/GPa) = 0.01662099
#
# Stress axis : x y z
#
# Youngs Moduli (GPa) = 85.67962 68.45156 70.60085
#
# Poissons Ratio (x) = 0.11226 0.43541
# Poissons Ratio (y) = 0.14052 0.28978
# Poissons Ratio (z) = 0.52840 0.28096
#
# Static dielectric constant tensor:
#      x y z
#    x 1.752180 0.000000 0.000370 
#    y 0.000000 1.654150 0.000000 
#    z 0.000370 0.000000 1.612950 
# 
# From -- ./inp_files/174518.got.cif
#   From: 2010.05.17/outbox.cif.g08.bks.cpg/sg15_88_cif.got.tgz:174518.got - 2010.06.03 18:47:42.
