data_PCOD9288577
_publ_section_title
;
Structure prediction by ZEFSAII (Michael W. Deem and Ramdas Pophale) SiO2 
 PCOD9288577
Probable space group: C 2/C
;
_chemical_formula_sum "Si O2"
_cell_formula_units_Z 56
_cell_length_a 14.030321
_cell_length_b 20.197347
_cell_length_c 10.079928
_cell_angle_alpha 90.000000
_cell_angle_beta 123.042113
_cell_angle_gamma 90.000000
_cell_volume 2394.436376
_symmetry_space_group_name_H-M "C 2/C"
_symmetry_group_IT_number 15
_symmetry_cell_setting 'monoclinic'
loop_
_space_group_symop_operation_xyz
x,y,z
-x,y,1/2-z
-x,-y,-z
x,-y,1/2+z
1/2+x,1/2+y,z
1/2-x,1/2+y,1/2-z
1/2-x,1/2-y,-z
1/2+x,1/2-y,1/2+z
loop_
_atom_site_type_symbol
_atom_site_label
_atom_site_fract_x
_atom_site_fract_y
_atom_site_fract_z
Si Si1 0.735528 0.378816 0.415405
Si Si2 0.812977 0.831384 0.401105
Si Si3 0.006438 0.057402 0.427259
Si Si4 0.124876 0.302427 0.473279
Si Si5 0.000000 0.955265 0.250000
Si Si6 0.500000 0.094116 0.750000
Si Si7 0.235781 0.878599 0.714446
Si Si8 0.623824 0.991240 0.531726
O O1 0.718278 0.330511 0.278163
O O2 0.614922 0.413558 0.345193
O O3 0.765254 0.357791 0.586927
O O4 0.820155 0.437717 0.439841
O O5 0.898610 0.773899 0.516879
O O6 0.698787 0.817536 0.397789
O O7 0.874409 0.901258 0.478288
O O8 0.009779 0.027845 0.593339
O O9 0.895957 0.104813 0.360298
O O10 0.000000 0.042536 0.250000
O O11 0.212566 0.323016 0.653211
O O12 0.018591 0.352596 0.383998
O O13 0.398186 0.044423 0.628450
O O14 0.299833 0.945130 0.815545
O O15 0.500000 0.000000 0.500000
#
# Coordination Sequence:
#
# PCOD9288577 Si02
#       8
#     8   8   8   8   4   4   8   8
#     4  12  23  38  67 103 138 174 220 291 359 424
#     4  11  24  42  66  93 134 180 228 280 341 424
#     4  12  21  37  66 101 140 173 220 290 367 424
#     4  10  25  45  64  90 129 188 238 278 330 412
#     4  12  22  37  62 106 143 170 212 282 374 424
#     4  10  22  39  62  86 119 172 236 274 312 404
#     4  11  23  40  64  99 137 178 227 287 354 419
#     4  11  22  39  62  95 137 180 223 284 349 420
#
# _framework density 23.387550000000001
#
# number of rings (size 3 to 8) (size 9 to 14) (size 15 to 20)
#    0.000    0.857    4.286    2.571    2.000    3.429 
#    0.000    0.000    0.000    8.571    0.000    0.000 
#    0.000    0.000    0.000    0.000    0.000    0.000 
#
# Total GULP energy -156189.425052 kJ/mol
# GULP energy per Si atom -5578.193752 kJ/mol
# Density = 2.333432 g / cm^3
# Si number density = 23.387550 Si / 1000 Ang^3
#
#
#
# Elastic Constant Matrix: (Units=GPa)
#
#
# Indices 1 2 3 4 5 6 
#
# 1 89.4228 31.9394 29.2485 0.0000 -5.5062 0.0000
# 2 31.9394 86.7895 29.1897 0.0000 -10.1374 0.0000
# 3 29.2485 29.1897 157.1721 0.0000 -27.5400 0.0000
# 4 0.0000 0.0000 0.0000 38.1043 0.0000 -1.0841
# 5 -5.5062 -10.1374 -27.5400 0.0000 51.1345 0.0000
# 6 0.0000 0.0000 0.0000 -1.0841 0.0000 23.9170
#
#
#
# Elastic Compliance Matrix: (Units=1/GPa)
#
#
# Indices 1 2 3 4 5 6 
#
# 1 0.013278 -0.004348 -0.001727 0.000000 -0.000362 0.000000
# 2 -0.004348 0.013796 -0.001497 0.000000 0.001461 0.000000
# 3 -0.001727 -0.001497 0.007594 0.000000 0.003607 0.000000
# 4 0.000000 0.000000 0.000000 0.026278 0.000000 0.001191
# 5 -0.000362 0.001461 0.003607 0.000000 0.021750 0.000000
# 6 0.000000 0.000000 0.000000 0.001191 0.000000 0.041865
#
#
# Mechanical properties :
#
#
# Convention : Reuss Voigt Hill
#
# Bulk Modulus (GPa) = 51.21822 57.12662 54.17242
# Shear Modulus (GPa) = 34.19651 38.83162 36.51407
#
# Velocity S-wave (km/s) = 3.82798 4.07917 3.95557
# Velocity P-wave (km/s) = 6.44090 6.83120 6.63892
#
# Compressibility (1/GPa) = 0.01952430
#
# Stress axis : x y z
#
# Youngs Moduli (GPa) = 75.31033 72.48272 131.68396
#
# Poissons Ratio (x) = 0.31516 0.22742
# Poissons Ratio (y) = 0.32745 0.19715
# Poissons Ratio (z) = 0.13006 0.10852
#
# Static dielectric constant tensor:
#      x y z
#    x 1.873060 0.000000 -0.077010 
#    y 0.000000 1.911500 0.000000 
#    z -0.077010 0.000000 1.960270 
# 
# From -- ./inp_files/42764.got.cif
#   From: 2010.05.17/outbox.cif.g08.bks.cpg/sg15_22_cif.got.tgz:42764.got - 2010.06.03 18:47:42.
