data_PCOD9288148
_publ_section_title
;
Structure prediction by ZEFSAII (Michael W. Deem and Ramdas Pophale) SiO2 
 PCOD9288148
Probable space group: C 2/C
;
_chemical_formula_sum "Si O2"
_cell_formula_units_Z 44
_cell_length_a 11.183647
_cell_length_b 20.719806
_cell_length_c 12.369574
_cell_angle_alpha 90.000000
_cell_angle_beta 140.464407
_cell_angle_gamma 90.000000
_cell_volume 1824.573986
_symmetry_space_group_name_H-M "C 2/C"
_symmetry_group_IT_number 15
_symmetry_cell_setting 'monoclinic'
loop_
_space_group_symop_operation_xyz
x,y,z
-x,y,1/2-z
-x,-y,-z
x,-y,1/2+z
1/2+x,1/2+y,z
1/2-x,1/2+y,1/2-z
1/2-x,1/2-y,-z
1/2+x,1/2-y,1/2+z
loop_
_atom_site_type_symbol
_atom_site_label
_atom_site_fract_x
_atom_site_fract_y
_atom_site_fract_z
Si Si1 0.830359 0.678197 0.049869
Si Si2 0.731938 0.462494 0.214016
Si Si3 0.561683 0.161672 0.620546
Si Si4 0.068634 0.081653 0.170490
Si Si5 0.000000 0.906187 0.250000
Si Si6 0.318988 0.715372 0.195947
O O1 0.000000 0.667465 0.250000
O O2 0.750000 0.750000 0.000000
O O3 0.914674 0.667271 0.990415
O O4 0.647067 0.633555 0.924826
O O5 0.902314 0.412012 0.321288
O O6 0.744985 0.538485 0.248893
O O7 0.622675 0.443195 0.247815
O O8 0.601902 0.445721 0.020571
O O9 0.708564 0.214377 0.770622
O O10 0.352712 0.187742 0.493551
O O11 0.122852 0.155994 0.185881
O O12 0.000000 0.077833 0.250000
O O13 0.500000 0.723488 0.250000
#
# Coordination Sequence:
#
# PCOD9288148 Si02
#       6
#     8   8   8   8   4   8
#     4  11  22  35  59  97 135 174 215 274 336 414
#     4  10  22  42  68  93 136 174 221 278 333 413
#     4  11  24  40  65  99 131 175 225 279 344 402
#     4  10  22  42  68  96 131 183 221 271 341 402
#     4  10  22  38  64  92 136 172 224 272 338 402
#     4  11  24  42  67  95 133 172 228 284 335 404
#
# _framework density 24.115217999999999
#
# number of rings (size 3 to 8) (size 9 to 14) (size 15 to 20)
#    0.000    1.455    1.818    2.727    7.636    2.182 
#    0.000    0.000    0.000    0.000    0.000    0.000 
#    0.000    0.000    0.000    0.000    0.000    0.000 
#
# Total GULP energy -122853.648275 kJ/mol
# GULP energy per Si atom -5584.256740 kJ/mol
# Density = 2.406033 g / cm^3
# Si number density = 24.115218 Si / 1000 Ang^3
#
#
#
# Elastic Constant Matrix: (Units=GPa)
#
#
# Indices 1 2 3 4 5 6 
#
# 1 39.2923 3.5506 13.3488 0.0000 3.5417 0.0000
# 2 3.5506 79.0941 25.9880 0.0000 -4.2350 0.0000
# 3 13.3488 25.9880 109.5322 0.0000 3.3474 0.0000
# 4 0.0000 0.0000 0.0000 28.4274 0.0000 -7.1539
# 5 3.5417 -4.2350 3.3474 0.0000 36.4449 0.0000
# 6 0.0000 0.0000 0.0000 -7.1539 0.0000 16.0970
#
#
#
# Elastic Compliance Matrix: (Units=1/GPa)
#
#
# Indices 1 2 3 4 5 6 
#
# 1 0.026748 -0.000303 -0.003116 0.000000 -0.002348 0.000000
# 2 -0.000303 0.013848 -0.003308 0.000000 0.001942 0.000000
# 3 -0.003116 -0.003308 0.010326 0.000000 -0.001030 0.000000
# 4 0.000000 0.000000 0.000000 0.039607 0.000000 0.017603
# 5 -0.002348 0.001942 -0.001030 0.000000 0.027987 0.000000
# 6 0.000000 0.000000 0.000000 0.017603 0.000000 0.069947
#
#
# Mechanical properties :
#
#
# Convention : Reuss Voigt Hill
#
# Bulk Modulus (GPa) = 26.68959 34.85484 30.77221
# Shear Modulus (GPa) = 23.32031 28.52926 25.92479
#
# Velocity S-wave (km/s) = 3.11310 3.44327 3.28234
# Velocity P-wave (km/s) = 4.90034 5.50390 5.21087
#
# Compressibility (1/GPa) = 0.03746779
#
# Stress axis : x y z
#
# Youngs Moduli (GPa) = 37.38602 72.21431 96.84420
#
# Poissons Ratio (x) = 0.02185 0.30179
# Poissons Ratio (y) = 0.01131 0.32036
# Poissons Ratio (z) = 0.11650 0.23889
#
# Static dielectric constant tensor:
#      x y z
#    x 1.945850 0.000000 0.012940 
#    y 0.000000 1.932010 0.000000 
#    z 0.012940 0.000000 1.960800 
# 
# From -- ./inp_files/91372.got.cif
#   From: 2010.05.17/outbox.cif.g08.bks.cpg/sg15_46_cif.got.tgz:91372.got - 2010.06.03 18:47:42.
