data_PCOD9288858
_publ_section_title
;
Structure prediction by ZEFSAII (Michael W. Deem and Ramdas Pophale) SiO2 
 PCOD9288858
Probable space group: C 2/C
;
_chemical_formula_sum "Si O2"
_cell_formula_units_Z 48
_cell_length_a 11.389328
_cell_length_b 12.840275
_cell_length_c 27.748777
_cell_angle_alpha 90.000000
_cell_angle_beta 148.359518
_cell_angle_gamma 90.000000
_cell_volume 2128.797042
_symmetry_space_group_name_H-M "C 2/C"
_symmetry_group_IT_number 15
_symmetry_cell_setting 'monoclinic'
loop_
_space_group_symop_operation_xyz
x,y,z
-x,y,1/2-z
-x,-y,-z
x,-y,1/2+z
1/2+x,1/2+y,z
1/2-x,1/2+y,1/2-z
1/2-x,1/2-y,-z
1/2+x,1/2-y,1/2+z
loop_
_atom_site_type_symbol
_atom_site_label
_atom_site_fract_x
_atom_site_fract_y
_atom_site_fract_z
Si Si1 0.835885 0.362047 0.475844
Si Si2 0.765741 0.116630 0.693588
Si Si3 0.338891 0.347232 0.825260
Si Si4 0.216568 0.419354 0.292662
Si Si5 0.176266 0.405032 0.521438
Si Si6 0.531223 0.778001 0.635783
O O1 0.747473 0.478642 0.437197
O O2 0.655341 0.277629 0.396136
O O3 0.067318 0.349974 0.529098
O O4 0.893442 0.349183 0.551742
O O5 0.752337 0.242184 0.683130
O O6 0.723670 0.091818 0.736026
O O7 0.538769 0.079325 0.587940
O O8 0.000000 0.080488 0.750000
O O9 0.279113 0.460634 0.824750
O O10 0.607325 0.344065 0.919890
O O11 0.225788 0.336447 0.732458
O O12 0.377694 0.322497 0.361542
O O13 0.000000 0.400268 0.250000
#
# Coordination Sequence:
#
# PCOD9288858 Si02
#       6
#     8   8   8   8   8   8
#     4  10  22  39  66  94 135 168 224 275 327 387
#     4  11  25  44  69  96 135 177 220 269 337 392
#     4  11  23  41  66  95 135 171 222 271 333 390
#     4  11  24  43  66  97 131 174 223 270 327 392
#     4  11  22  40  65 101 128 171 222 276 322 395
#     4  10  22  42  64  95 129 182 216 270 332 391
#
# _framework density 22.547944000000001
#
# number of rings (size 3 to 8) (size 9 to 14) (size 15 to 20)
#    0.000    1.333    1.667    4.000    7.000    0.000 
#    0.000    0.833    0.000    0.000    0.000    0.000 
#    0.000    0.000    0.000    0.000    0.000    0.000 
#
# Total GULP energy -133781.420739 kJ/mol
# GULP energy per Si atom -5574.225864 kJ/mol
# Density = 2.249662 g / cm^3
# Si number density = 22.547944 Si / 1000 Ang^3
#
#
#
# Elastic Constant Matrix: (Units=GPa)
#
#
# Indices 1 2 3 4 5 6 
#
# 1 118.7503 17.5042 47.1376 0.0000 21.6478 0.0000
# 2 17.5042 96.7483 11.6172 -0.0001 15.8077 0.0000
# 3 47.1376 11.6172 127.7705 -0.0005 17.7682 0.0000
# 4 0.0000 -0.0001 -0.0005 28.6876 0.0001 6.8433
# 5 21.6478 15.8077 17.7682 0.0001 36.9456 0.0000
# 6 0.0000 0.0000 0.0000 6.8433 0.0000 18.9361
#
#
#
# Elastic Compliance Matrix: (Units=1/GPa)
#
#
# Indices 1 2 3 4 5 6 
#
# 1 0.010615 -0.000828 -0.003242 0.000000 -0.004306 0.000000
# 2 -0.000828 0.011194 -0.000122 0.000000 -0.004246 0.000000
# 3 -0.003242 -0.000122 0.009390 0.000000 -0.002564 0.000000
# 4 0.000000 0.000000 0.000000 0.038147 0.000000 -0.013786
# 5 -0.004306 -0.004246 -0.002564 0.000000 0.032640 0.000000
# 6 0.000000 0.000000 0.000000 -0.013786 0.000000 0.057791
#
#
# Mechanical properties :
#
#
# Convention : Reuss Voigt Hill
#
# Bulk Modulus (GPa) = 43.82846 55.08747 49.45797
# Shear Modulus (GPa) = 28.44687 34.71454 31.58070
#
# Velocity S-wave (km/s) = 3.55578 3.92801 3.74652
# Velocity P-wave (km/s) = 6.02812 6.71243 6.37945
#
# Compressibility (1/GPa) = 0.02281622
#
# Stress axis : x y z
#
# Youngs Moduli (GPa) = 94.20648 89.33172 106.49322
#
# Poissons Ratio (x) = 0.07393 0.34525
# Poissons Ratio (y) = 0.07797 0.01299
# Poissons Ratio (z) = 0.30542 0.01090
#
# Static dielectric constant tensor:
#      x y z
#    x 1.891160 0.000000 -0.013320 
#    y 0.000000 1.846950 0.000000 
#    z -0.013320 0.000000 1.887510 
# 
# From -- ./inp_files/311258.got.cif
#   From: 2010.05.17/outbox.cif.g08.bks.cpg/sg15_156_cif.got.tgz:311258.got - 2010.06.03 18:47:42.
