data_PCOD9288917
_publ_section_title
;
Structure prediction by ZEFSAII (Michael W. Deem and Ramdas Pophale) SiO2 
 PCOD9288917
Probable space group: C 2/C
;
_chemical_formula_sum "Si O2"
_cell_formula_units_Z 40
_cell_length_a 19.002825
_cell_length_b 13.242129
_cell_length_c 13.160759
_cell_angle_alpha 90.000000
_cell_angle_beta 29.550751
_cell_angle_gamma 90.000000
_cell_volume 1633.333883
_symmetry_space_group_name_H-M "C 2/C"
_symmetry_group_IT_number 15
_symmetry_cell_setting 'monoclinic'
loop_
_space_group_symop_operation_xyz
x,y,z
-x,y,1/2-z
-x,-y,-z
x,-y,1/2+z
1/2+x,1/2+y,z
1/2-x,1/2+y,1/2-z
1/2-x,1/2-y,-z
1/2+x,1/2-y,1/2+z
loop_
_atom_site_type_symbol
_atom_site_label
_atom_site_fract_x
_atom_site_fract_y
_atom_site_fract_z
Si Si1 0.498672 0.162645 0.017322
Si Si2 0.695340 0.533998 0.654478
Si Si3 0.105234 0.807549 0.714103
Si Si4 0.736361 0.001972 0.206920
Si Si5 0.000000 0.927672 0.250000
Si Si6 0.000000 0.379622 0.750000
O O1 0.530692 0.256842 0.905759
O O2 0.615830 0.079777 0.832841
O O3 0.346606 0.109300 0.184232
O O4 0.515545 0.173317 0.119287
O O5 0.631276 0.515409 0.532535
O O6 0.698455 0.537887 0.770721
O O7 0.589764 0.614067 0.732792
O O8 0.857289 0.554596 0.417268
O O9 0.250000 0.750000 0.500000
O O10 0.000000 0.802369 0.750000
O O11 0.145888 0.921130 0.692276
#
# Coordination Sequence:
#
# PCOD9288917 Si02
#       6
#     8   8   8   8   4   4
#     4  10  22  42  68  99 134 191 236 278 351 426
#     4  11  23  40  67 103 137 179 231 292 347 415
#     4  12  26  41  66 101 145 178 225 291 358 416
#     4  10  22  39  67  95 136 181 238 285 342 415
#     4  12  20  40  64 104 132 176 234 302 334 403
#     4  10  22  46  78  98 136 194 242 278 340 433
#
# _framework density 24.489788999999998
#
# number of rings (size 3 to 8) (size 9 to 14) (size 15 to 20)
#    0.000    1.200    3.000    3.000    7.000    0.000 
#    0.000    1.000    0.000    3.600    0.000    0.000 
#    0.000    0.000    0.000    0.000    0.000    0.000 
#
# Total GULP energy -111787.807308 kJ/mol
# GULP energy per Si atom -5589.390365 kJ/mol
# Density = 2.443405 g / cm^3
# Si number density = 24.489789 Si / 1000 Ang^3
#
#
#
# Elastic Constant Matrix: (Units=GPa)
#
#
# Indices 1 2 3 4 5 6 
#
# 1 161.3949 37.3833 59.5176 0.0000 -8.5893 0.0000
# 2 37.3833 100.6129 65.7854 0.0000 -11.7382 0.0000
# 3 59.5176 65.7854 188.8170 0.0000 -0.0041 -0.0001
# 4 0.0000 0.0000 0.0000 34.0485 0.0000 3.5440
# 5 -8.5893 -11.7382 -0.0041 0.0000 54.8741 0.0000
# 6 0.0000 0.0000 -0.0001 3.5440 0.0000 -633.4381
#
#
#
# Elastic Compliance Matrix: (Units=1/GPa)
#
#
# Indices 1 2 3 4 5 6 
#
# 1 0.007227 -0.001424 -0.001782 0.000000 0.000827 0.000000
# 2 -0.001424 0.013581 -0.004283 0.000000 0.002682 0.000000
# 3 -0.001782 -0.004283 0.007350 0.000000 -0.001195 0.000000
# 4 0.000000 0.000000 0.000000 0.029353 0.000000 0.000164
# 5 0.000827 0.002682 -0.001195 0.000000 0.018927 0.000000
# 6 0.000000 0.000000 0.000000 0.000164 0.000000 -0.001578
#
#
# Mechanical properties :
#
#
# Convention : Reuss Voigt Hill
#
# Bulk Modulus (GPa) = 75.86673 86.24416 81.05545
# Shear Modulus (GPa) = 53.06114 -89.69387 -18.31636
#
# Velocity S-wave (km/s) = 4.65979 -6.05843 -2.73778
# Velocity P-wave (km/s) = 7.74582 3.69412 4.81411
#
# Compressibility (1/GPa) = 0.01318101
#
# Stress axis : x y z
#
# Youngs Moduli (GPa) = 138.37270 73.63003 136.05302
#
# Poissons Ratio (x) = 0.10482 0.24245
# Poissons Ratio (y) = 0.19699 0.58273
# Poissons Ratio (z) = 0.24658 0.31536
#
# Static dielectric constant tensor:
#      x y z
#    x 2.134920 0.000000 0.170930 
#    y 0.000000 1.987730 0.000000 
#    z 0.170930 0.000000 2.020060 
# 
# From -- ./inp_files/106267.got.cif
#   From: 2010.05.17/outbox.cif.g08.bks.cpg/sg15_54_cif.got.tgz:106267.got - 2010.06.03 18:47:42.
