data_PCOD9288220
_publ_section_title
;
Structure prediction by ZEFSAII (Michael W. Deem and Ramdas Pophale) SiO2 
 PCOD9288220
Probable space group: C 2/C
;
_chemical_formula_sum "Si O2"
_cell_formula_units_Z 32
_cell_length_a 8.365508
_cell_length_b 10.673660
_cell_length_c 17.967673
_cell_angle_alpha 90.000000
_cell_angle_beta 119.623232
_cell_angle_gamma 90.000000
_cell_volume 1394.647616
_symmetry_space_group_name_H-M "C 2/C"
_symmetry_group_IT_number 15
_symmetry_cell_setting 'monoclinic'
loop_
_space_group_symop_operation_xyz
x,y,z
-x,y,1/2-z
-x,-y,-z
x,-y,1/2+z
1/2+x,1/2+y,z
1/2-x,1/2+y,1/2-z
1/2-x,1/2-y,-z
1/2+x,1/2-y,1/2+z
loop_
_atom_site_type_symbol
_atom_site_label
_atom_site_fract_x
_atom_site_fract_y
_atom_site_fract_z
Si Si1 0.345620 0.562789 0.411259
Si Si2 0.502922 0.168466 0.923907
Si Si3 0.946783 0.402494 0.892668
Si Si4 0.707520 0.174194 0.826458
O O1 0.500000 0.500000 0.500000
O O2 0.413101 0.696383 0.398212
O O3 0.303302 0.459969 0.338006
O O4 0.154845 0.593848 0.409965
O O5 0.677244 0.173715 0.909408
O O6 0.383616 0.046995 0.870852
O O7 0.546268 0.134464 0.018881
O O8 0.824594 0.293529 0.828637
O O9 0.500000 0.178348 0.750000
#
# Coordination Sequence:
#
# PCOD9288220 Si02
#       4
#     8   8   8   8
#     4  11  23  39  69  96 123 162 217 269 314 377
#     4  10  22  38  65  93 120 160 218 260 309 378
#     4  10  22  39  65  94 121 164 216 262 318 378
#     4  11  25  42  60  91 135 168 208 268 322 377
#
# _framework density 22.944866000000001
#
# number of rings (size 3 to 8) (size 9 to 14) (size 15 to 20)
#    0.000    1.500    2.500    1.500    7.000    4.000 
#    0.000    1.250    0.000    0.000    0.000    0.000 
#    0.000    0.000    0.000    0.000    0.000    0.000 
#
# Total GULP energy -89333.629119 kJ/mol
# GULP energy per Si atom -5583.351820 kJ/mol
# Density = 2.289264 g / cm^3
# Si number density = 22.944866 Si / 1000 Ang^3
#
#
#
# Elastic Constant Matrix: (Units=GPa)
#
#
# Indices 1 2 3 4 5 6 
#
# 1 53.4478 58.8211 18.6399 0.0000 18.3255 0.0000
# 2 58.8211 281.4253 49.0987 0.0000 41.2645 0.0000
# 3 18.6399 49.0987 81.4119 0.0000 30.7062 0.0000
# 4 0.0000 0.0000 0.0000 19.3178 0.0000 17.8189
# 5 18.3255 41.2645 30.7062 0.0000 35.5112 0.0000
# 6 0.0000 0.0000 0.0000 17.8189 0.0000 49.1019
#
#
#
# Elastic Compliance Matrix: (Units=1/GPa)
#
#
# Indices 1 2 3 4 5 6 
#
# 1 0.026349 -0.004217 -0.000310 0.000000 -0.008428 0.000000
# 2 -0.004217 0.005019 -0.001013 0.000000 -0.002780 0.000000
# 3 -0.000310 -0.001013 0.018492 0.000000 -0.014652 0.000000
# 4 0.000000 0.000000 0.000000 0.077812 0.000000 -0.028238
# 5 -0.008428 -0.002780 -0.014652 0.000000 0.048410 0.000000
# 6 0.000000 0.000000 0.000000 -0.028238 0.000000 0.030613
#
#
# Mechanical properties :
#
#
# Convention : Reuss Voigt Hill
#
# Bulk Modulus (GPa) = 25.78728 74.37826 50.08277
# Shear Modulus (GPa) = 21.67289 40.10121 30.88705
#
# Velocity S-wave (km/s) = 3.07671 4.18511 3.67296
# Velocity P-wave (km/s) = 4.88720 7.47262 6.31366
#
# Compressibility (1/GPa) = 0.03877881
#
# Stress axis : x y z
#
# Youngs Moduli (GPa) = 37.95177 199.23661 54.07872
#
# Poissons Ratio (x) = 0.84024 0.01679
# Poissons Ratio (y) = 0.16005 0.05477
# Poissons Ratio (z) = 0.01178 0.20178
#
# Static dielectric constant tensor:
#      x y z
#    x 1.847580 0.000000 -0.018390 
#    y 0.000000 1.935540 0.000000 
#    z -0.018390 0.000000 1.931250 
# 
# From -- ./inp_files/187362.got.cif
#   From: 2010.05.17/outbox.cif.g08.bks.cpg/sg15_94_cif.got.tgz:187362.got - 2010.06.03 18:47:42.
