data_PCOD9288595
_publ_section_title
;
Structure prediction by ZEFSAII (Michael W. Deem and Ramdas Pophale) SiO2 
 PCOD9288595
Probable space group: C 2/C
;
_chemical_formula_sum "Si O2"
_cell_formula_units_Z 64
_cell_length_a 18.526422
_cell_length_b 12.746888
_cell_length_c 14.787555
_cell_angle_alpha 90.000000
_cell_angle_beta 64.867917
_cell_angle_gamma 90.000000
_cell_volume 3161.546302
_symmetry_space_group_name_H-M "C 2/C"
_symmetry_group_IT_number 15
_symmetry_cell_setting 'monoclinic'
loop_
_space_group_symop_operation_xyz
x,y,z
-x,y,1/2-z
-x,-y,-z
x,-y,1/2+z
1/2+x,1/2+y,z
1/2-x,1/2+y,1/2-z
1/2-x,1/2-y,-z
1/2+x,1/2-y,1/2+z
loop_
_atom_site_type_symbol
_atom_site_label
_atom_site_fract_x
_atom_site_fract_y
_atom_site_fract_z
Si Si1 0.727833 0.009591 0.595986
Si Si2 0.184850 0.212991 0.878365
Si Si3 0.622332 0.915051 0.996109
Si Si4 0.493446 0.625164 0.510149
Si Si5 0.349955 0.038128 0.685130
Si Si6 0.850687 0.168379 0.976949
Si Si7 0.477348 0.788497 0.158837
Si Si8 0.739632 0.686690 0.653592
O O1 0.760044 0.125332 0.604140
O O2 0.668407 0.013387 0.543262
O O3 0.678278 0.976807 0.711244
O O4 0.802028 0.935030 0.534684
O O5 0.214586 0.238002 0.761492
O O6 0.095924 0.163594 0.921982
O O7 0.179681 0.318822 0.938047
O O8 0.546157 0.863980 0.083351
O O9 0.600905 0.972853 0.914209
O O10 0.500000 0.500000 0.500000
O O11 0.556707 0.660428 0.551827
O O12 0.521526 0.684693 0.403525
O O13 0.397175 0.142479 0.691636
O O14 0.271672 0.074528 0.671134
O O15 0.811152 0.258470 0.060222
O O16 0.830070 0.183915 0.882989
O O17 0.500000 0.764581 0.250000
#
# Coordination Sequence:
#
# PCOD9288595 Si02
#       8
#     8   8   8   8   8   8   8   8
#     4  11  21  37  63  91 125 161 214 263 309 381
#     4  10  23  40  59  89 127 165 207 260 308 378
#     4  11  22  39  62  89 128 163 213 263 319 366
#     4  11  23  43  62  91 129 163 204 259 319 378
#     4  11  21  39  62  94 124 164 214 262 314 378
#     4  11  21  40  65  89 124 165 206 260 316 374
#     4  11  23  43  64  92 124 168 211 262 321 383
#     4  10  22  39  62  90 121 163 212 252 316 373
#
# _framework density 20.243259999999999
#
# number of rings (size 3 to 8) (size 9 to 14) (size 15 to 20)
#    0.000    1.250    5.000    1.500    0.000    0.500 
#    2.250    0.000    0.000    0.000    0.000    0.000 
#    0.000    0.000    0.000    0.000    0.000    0.000 
#
# Total GULP energy -178701.630166 kJ/mol
# GULP energy per Si atom -5584.425943 kJ/mol
# Density = 2.019719 g / cm^3
# Si number density = 20.243260 Si / 1000 Ang^3
#
#
#
# Elastic Constant Matrix: (Units=GPa)
#
#
# Indices 1 2 3 4 5 6 
#
# 1 64.2810 -5.3438 16.2298 0.0000 11.0815 0.0000
# 2 -5.3438 48.0137 0.5898 0.0000 5.5547 0.0000
# 3 16.2298 0.5898 84.1109 0.0000 10.9946 0.0000
# 4 0.0000 0.0000 0.0000 26.4314 0.0000 -0.7436
# 5 11.0815 5.5547 10.9946 0.0000 29.2302 0.0000
# 6 0.0000 0.0000 0.0000 -0.7436 0.0000 26.6462
#
#
#
# Elastic Compliance Matrix: (Units=1/GPa)
#
#
# Indices 1 2 3 4 5 6 
#
# 1 0.017498 0.002693 -0.002589 0.000000 -0.006172 0.000000
# 2 0.002693 0.021723 0.000001 0.000000 -0.005150 0.000000
# 3 -0.002589 0.000001 0.012894 0.000000 -0.003869 0.000000
# 4 0.000000 0.000000 0.000000 0.037864 0.000000 0.001057
# 5 -0.006172 -0.005150 -0.003869 0.000000 0.038985 0.000000
# 6 0.000000 0.000000 0.000000 0.001057 0.000000 0.037558
#
#
# Mechanical properties :
#
#
# Convention : Reuss Voigt Hill
#
# Bulk Modulus (GPa) = 19.11055 24.37303 21.74179
# Shear Modulus (GPa) = 27.21053 28.79023 28.00038
#
# Velocity S-wave (km/s) = 3.67028 3.77532 3.72317
# Velocity P-wave (km/s) = 5.23662 5.57407 5.40798
#
# Compressibility (1/GPa) = 0.05232713
#
# Stress axis : x y z
#
# Youngs Moduli (GPa) = 57.14889 46.03441 77.55394
#
# Poissons Ratio (x) = -0.12399 0.20075
# Poissons Ratio (y) = -0.15392 -0.00009
# Poissons Ratio (z) = 0.14793 -0.00005
#
# Static dielectric constant tensor:
#      x y z
#    x 1.706220 0.000000 -0.006610 
#    y 0.000000 1.735340 0.000000 
#    z -0.006610 0.000000 1.707860 
# 
# From -- ./inp_files/167626.got.cif
#   From: 2010.05.17/outbox.cif.g08.bks.cpg/sg15_84_cif.got.tgz:167626.got - 2010.06.03 18:47:42.
