data_PCOD9288024
_publ_section_title
;
Structure prediction by ZEFSAII (Michael W. Deem and Ramdas Pophale) SiO2 
 PCOD9288024
Probable space group: C 2/C
;
_chemical_formula_sum "Si O2"
_cell_formula_units_Z 48
_cell_length_a 20.182737
_cell_length_b 9.493555
_cell_length_c 18.508660
_cell_angle_alpha 90.000000
_cell_angle_beta 143.438595
_cell_angle_gamma 90.000000
_cell_volume 2112.515047
_symmetry_space_group_name_H-M "C 2/C"
_symmetry_group_IT_number 15
_symmetry_cell_setting 'monoclinic'
loop_
_space_group_symop_operation_xyz
x,y,z
-x,y,1/2-z
-x,-y,-z
x,-y,1/2+z
1/2+x,1/2+y,z
1/2-x,1/2+y,1/2-z
1/2-x,1/2-y,-z
1/2+x,1/2-y,1/2+z
loop_
_atom_site_type_symbol
_atom_site_label
_atom_site_fract_x
_atom_site_fract_y
_atom_site_fract_z
Si Si1 0.709173 0.543041 0.253669
Si Si2 0.843968 0.553147 0.591799
Si Si3 0.587601 0.112005 0.485525
Si Si4 0.132192 0.242913 0.679229
Si Si5 0.764869 0.300607 0.594538
Si Si6 0.613549 0.634037 0.316865
O O1 0.820498 0.472363 0.387410
O O2 0.761281 0.665891 0.251264
O O3 0.644005 0.414126 0.158030
O O4 0.631406 0.611818 0.247299
O O5 0.919931 0.476259 0.597026
O O6 0.815672 0.454542 0.634604
O O7 0.724245 0.569597 0.448767
O O8 0.882649 0.703412 0.653837
O O9 0.474035 0.157625 0.424032
O O10 0.644110 0.263008 0.518272
O O11 0.147380 0.217544 0.778862
O O12 0.750000 0.250000 0.500000
O O13 0.500000 0.572581 0.250000
#
# Coordination Sequence:
#
# PCOD9288024 Si02
#       6
#     8   8   8   8   8   8
#     4  10  24  42  59  97 127 162 218 263 305 394
#     4   9  20  37  58  92 120 157 209 264 302 382
#     4   9  20  40  63  92 121 165 209 261 322 371
#     4  11  23  40  67  87 131 173 201 263 329 370
#     4   9  20  37  58  92 125 151 217 258 300 383
#     4  10  22  38  62  87 126 162 205 264 319 360
#
# _framework density 22.721730000000001
#
# number of rings (size 3 to 8) (size 9 to 14) (size 15 to 20)
#    0.000    2.333    0.000    1.500    7.000    2.000 
#    0.000    8.333    0.000    0.000    0.000    0.000 
#    0.000    0.000    0.000    0.000    0.000    0.000 
#
# Total GULP energy -133711.865560 kJ/mol
# GULP energy per Si atom -5571.327732 kJ/mol
# Density = 2.267001 g / cm^3
# Si number density = 22.721730 Si / 1000 Ang^3
#
#
#
# Elastic Constant Matrix: (Units=GPa)
#
#
# Indices 1 2 3 4 5 6 
#
# 1 111.7248 37.4716 28.1899 0.0000 32.7877 0.0000
# 2 37.4716 84.6793 17.5709 0.0000 10.5634 0.0000
# 3 28.1899 17.5709 33.8826 0.0000 14.9483 0.0000
# 4 0.0000 0.0000 0.0000 18.6248 0.0000 -0.4693
# 5 32.7877 10.5634 14.9483 0.0000 30.0479 0.0000
# 6 0.0000 0.0000 0.0000 -0.4693 0.0000 42.1551
#
#
#
# Elastic Compliance Matrix: (Units=1/GPa)
#
#
# Indices 1 2 3 4 5 6 
#
# 1 0.015367 -0.004170 -0.004961 0.000000 -0.012835 0.000000
# 2 -0.004170 0.014424 -0.004844 0.000000 0.001889 0.000000
# 3 -0.004961 -0.004844 0.042297 0.000000 -0.013926 0.000000
# 4 0.000000 0.000000 0.000000 0.053707 0.000000 0.000598
# 5 -0.012835 0.001889 -0.013926 0.000000 0.053549 0.000000
# 6 0.000000 0.000000 0.000000 0.000598 0.000000 0.023729
#
#
# Mechanical properties :
#
#
# Convention : Reuss Voigt Hill
#
# Bulk Modulus (GPa) = 22.65578 44.08350 33.36964
# Shear Modulus (GPa) = 20.34713 27.96918 24.15815
#
# Velocity S-wave (km/s) = 2.99572 3.51229 3.26424
# Velocity P-wave (km/s) = 4.68598 5.99098 5.37821
#
# Compressibility (1/GPa) = 0.04413885
#
# Stress axis : x y z
#
# Youngs Moduli (GPa) = 65.07294 69.32904 23.64248
#
# Poissons Ratio (x) = 0.28909 0.11728
# Poissons Ratio (y) = 0.27134 0.11453
# Poissons Ratio (z) = 0.32280 0.33584
#
# Static dielectric constant tensor:
#      x y z
#    x 1.911800 0.000000 -0.034190 
#    y 0.000000 1.951550 0.000000 
#    z -0.034190 0.000000 1.898250 
# 
# From -- ./inp_files/252011.got.cif
#   From: 2010.05.17/outbox.cif.g08.bks.cpg/sg15_127_cif.got.tgz:252011.got - 2010.06.03 18:47:42.
