data_PCOD9288505
_publ_section_title
;
Structure prediction by ZEFSAII (Michael W. Deem and Ramdas Pophale) SiO2 
 PCOD9288505
Probable space group: C 2/C
;
_chemical_formula_sum "Si O2"
_cell_formula_units_Z 52
_cell_length_a 27.584640
_cell_length_b 12.230350
_cell_length_c 8.951585
_cell_angle_alpha 90.000000
_cell_angle_beta 58.278815
_cell_angle_gamma 90.000000
_cell_volume 2568.857898
_symmetry_space_group_name_H-M "C 2/C"
_symmetry_group_IT_number 15
_symmetry_cell_setting 'monoclinic'
loop_
_space_group_symop_operation_xyz
x,y,z
-x,y,1/2-z
-x,-y,-z
x,-y,1/2+z
1/2+x,1/2+y,z
1/2-x,1/2+y,1/2-z
1/2-x,1/2-y,-z
1/2+x,1/2-y,1/2+z
loop_
_atom_site_type_symbol
_atom_site_label
_atom_site_fract_x
_atom_site_fract_y
_atom_site_fract_z
Si Si1 0.444873 0.420557 0.734886
Si Si2 0.304209 0.117505 0.209969
Si Si3 0.325300 0.365226 0.072788
Si Si4 0.000000 0.489709 0.250000
Si Si5 0.524213 0.338139 0.372804
Si Si6 0.236112 0.008247 0.572268
Si Si7 0.571818 0.884289 0.873511
O O1 0.500000 0.418998 0.750000
O O2 0.466510 0.347568 0.563518
O O3 0.442985 0.546122 0.683348
O O4 0.389745 0.380317 0.910491
O O5 0.309742 0.241238 0.141158
O O6 0.260055 0.098379 0.417684
O O7 0.364959 0.083944 0.180940
O O8 0.283922 0.041387 0.105547
O O9 0.310503 0.439789 0.240767
O O10 0.288304 0.412462 0.993988
O O11 0.969114 0.418133 0.424639
O O12 0.953215 0.560213 0.235368
O O13 0.500000 0.312470 0.250000
O O14 0.565884 0.244851 0.361054
#
# Coordination Sequence:
#
# PCOD9288505 Si02
#       7
#     8   8   8   4   8   8   8
#     4  10  23  40  63  97 134 161 210 257 326 404
#     4  11  23  44  69  92 128 178 219 275 326 378
#     4  11  24  42  70  96 131 176 211 276 331 379
#     4  10  24  40  60  96 132 164 216 266 306 406
#     4  10  22  39  60  96 134 165 202 260 318 403
#     4  10  25  45  63  97 132 165 235 273 314 387
#     4  11  22  41  65  92 129 169 214 259 331 373
#
# _framework density 20.242459
#
# number of rings (size 3 to 8) (size 9 to 14) (size 15 to 20)
#    0.000    1.538    0.769    2.769   11.846    0.000 
#    0.000    1.538    0.000    0.000    0.000    0.000 
#    0.000    0.000    0.000    0.000    0.000    0.000 
#
# Total GULP energy -145243.269005 kJ/mol
# GULP energy per Si atom -5586.279577 kJ/mol
# Density = 2.019639 g / cm^3
# Si number density = 20.242459 Si / 1000 Ang^3
#
#
#
# Elastic Constant Matrix: (Units=GPa)
#
#
# Indices 1 2 3 4 5 6 
#
# 1 112.6686 14.4045 39.5337 0.0000 7.5285 0.0000
# 2 14.4045 41.7362 31.4708 0.0000 3.6520 0.0000
# 3 39.5337 31.4708 129.4300 0.0000 5.9934 0.0000
# 4 0.0000 0.0000 0.0000 9.1681 0.0000 0.4174
# 5 7.5285 3.6520 5.9934 0.0000 35.1619 0.0000
# 6 0.0000 0.0000 0.0000 0.4174 0.0000 16.9815
#
#
#
# Elastic Compliance Matrix: (Units=1/GPa)
#
#
# Indices 1 2 3 4 5 6 
#
# 1 0.010092 -0.001318 -0.002690 0.000000 -0.001566 0.000000
# 2 -0.001318 0.029631 -0.006726 0.000000 -0.001649 0.000000
# 3 -0.002690 -0.006726 0.010205 0.000000 -0.000465 0.000000
# 4 0.000000 0.000000 0.000000 0.109196 0.000000 -0.002684
# 5 -0.001566 -0.001649 -0.000465 0.000000 0.029026 0.000000
# 6 0.000000 0.000000 0.000000 -0.002684 0.000000 0.058954
#
#
# Mechanical properties :
#
#
# Convention : Reuss Voigt Hill
#
# Bulk Modulus (GPa) = 35.13611 50.51697 42.82654
# Shear Modulus (GPa) = 17.98195 25.49068 21.73632
#
# Velocity S-wave (km/s) = 2.98372 3.55247 3.28044
# Velocity P-wave (km/s) = 5.40975 6.46814 5.96248
#
# Compressibility (1/GPa) = 0.02846075
#
# Stress axis : x y z
#
# Youngs Moduli (GPa) = 99.08354 33.74881 97.99480
#
# Poissons Ratio (x) = 0.04448 0.26358
# Poissons Ratio (y) = 0.13060 0.65908
# Poissons Ratio (z) = 0.26651 0.22698
#
# Static dielectric constant tensor:
#      x y z
#    x 1.519660 0.000000 -0.209110 
#    y 0.000000 1.724920 0.000000 
#    z -0.209110 0.000000 1.457380 
# 
# From -- ./inp_files/65373.got.cif
#   From: 2010.05.17/outbox.cif.g08.bks.cpg/sg15_33_cif.got.tgz:65373.got - 2010.06.03 18:47:42.
