data_PCOD9288651
_publ_section_title
;
Structure prediction by ZEFSAII (Michael W. Deem and Ramdas Pophale) SiO2 
 PCOD9288651
Probable space group: C 2/C
;
_chemical_formula_sum "Si O2"
_cell_formula_units_Z 52
_cell_length_a 19.022027
_cell_length_b 11.572803
_cell_length_c 28.160049
_cell_angle_alpha 90.000000
_cell_angle_beta 156.387118
_cell_angle_gamma 90.000000
_cell_volume 2483.081494
_symmetry_space_group_name_H-M "C 2/C"
_symmetry_group_IT_number 15
_symmetry_cell_setting 'monoclinic'
loop_
_space_group_symop_operation_xyz
x,y,z
-x,y,1/2-z
-x,-y,-z
x,-y,1/2+z
1/2+x,1/2+y,z
1/2-x,1/2+y,1/2-z
1/2-x,1/2-y,-z
1/2+x,1/2-y,1/2+z
loop_
_atom_site_type_symbol
_atom_site_label
_atom_site_fract_x
_atom_site_fract_y
_atom_site_fract_z
Si Si1 0.592848 0.381659 0.074593
Si Si2 0.788968 0.179257 0.948555
Si Si3 0.022524 0.731799 0.408977
Si Si4 0.826142 0.102505 0.072339
Si Si5 0.943482 0.491414 0.818566
Si Si6 0.000000 0.513262 0.250000
Si Si7 0.425163 0.648663 0.653541
O O1 0.606569 0.304754 0.035354
O O2 0.501334 0.309739 0.059546
O O3 0.781992 0.422056 0.212038
O O4 0.500000 0.500000 0.000000
O O5 0.676316 0.290364 0.893583
O O6 0.665888 0.070201 0.860619
O O7 0.887549 0.145307 0.058258
O O8 0.223605 0.690369 0.529061
O O9 0.984772 0.805852 0.338472
O O10 0.915579 0.611551 0.338725
O O11 0.927000 0.990141 0.151392
O O12 0.621512 0.061844 0.939918
O O13 0.973272 0.430711 0.784955
O O14 0.500000 0.687116 0.750000
#
# Coordination Sequence:
#
# PCOD9288651 Si02
#       7
#     8   8   8   8   8   4   8
#     4  11  23  38  59  87 115 160 196 236 298 362
#     4   9  18  34  60  83 119 151 185 239 284 349
#     4  10  23  41  59  89 118 154 204 245 297 356
#     4   9  18  37  57  89 116 148 196 237 291 350
#     4   9  20  37  57  81 119 148 190 243 290 346
#     4   8  16  32  60  84 102 154 194 226 286 336
#     4  10  22  39  63  86 114 156 202 254 292 343
#
# _framework density 20.941721000000001
#
# number of rings (size 3 to 8) (size 9 to 14) (size 15 to 20)
#    0.000    2.462    0.000    0.923    4.308    3.692 
#    2.769    1.538    0.000    0.000    0.000    0.000 
#    0.000    0.000    0.000    0.000    0.000    0.000 
#
# Total GULP energy -145037.473756 kJ/mol
# GULP energy per Si atom -5578.364375 kJ/mol
# Density = 2.089406 g / cm^3
# Si number density = 20.941721 Si / 1000 Ang^3
#
#
#
# Elastic Constant Matrix: (Units=GPa)
#
#
# Indices 1 2 3 4 5 6 
#
# 1 132.5490 47.7623 -3.3034 0.0006 -29.9554 0.0003
# 2 47.7623 80.0876 -0.4069 0.0007 -19.6235 -0.0003
# 3 -3.3034 -0.4069 29.7761 0.0011 -14.7657 -0.0004
# 4 0.0006 0.0007 0.0011 3.5820 0.0008 -12.5574
# 5 -29.9554 -19.6235 -14.7657 0.0008 24.9024 0.0002
# 6 0.0003 -0.0003 -0.0004 -12.5574 0.0002 34.9571
#
#
#
# Elastic Compliance Matrix: (Units=1/GPa)
#
#
# Indices 1 2 3 4 5 6 
#
# 1 0.013722 -0.002874 0.012105 0.000041 0.021420 0.000015
# 2 -0.002874 0.017925 0.007389 0.000032 0.015050 0.000012
# 3 0.012105 0.007389 0.063936 0.000137 0.058295 0.000049
# 4 0.000041 0.000032 0.000137 -1.076601 0.000193 -0.386739
# 5 0.021420 0.015050 0.058295 0.000193 0.112348 0.000069
# 6 0.000015 0.000012 0.000049 -0.386739 0.000069 -0.110319
#
#
# Mechanical properties :
#
#
# Convention : Reuss Voigt Hill
#
# Bulk Modulus (GPa) = 7.76248 36.72405 22.24327
# Shear Modulus (GPa) = -5.15842 25.91236 10.37697
#
# Velocity S-wave (km/s) = -1.57117 3.52142 2.22844
# Velocity P-wave (km/s) = 0.65063 5.84023 4.15521
#
# Compressibility (1/GPa) = 0.12882483
#
# Stress axis : x y z
#
# Youngs Moduli (GPa) = 72.87368 55.78683 15.64070
#
# Poissons Ratio (x) = 0.16032 -0.18933
# Poissons Ratio (y) = 0.20942 -0.11557
# Poissons Ratio (z) = -0.88214 -0.41223
#
# Static dielectric constant tensor:
#      x y z
#    x 1.781390 0.000000 0.008360 
#    y 0.000000 1.769280 0.000000 
#    z 0.008360 0.000000 1.806850 
# 
# From -- ./inp_files/222417.got.cif
#   From: 2010.05.17/outbox.cif.g08.bks.cpg/sg15_112_cif.got.tgz:222417.got - 2010.06.03 18:47:42.
