data_PCOD9288188
_publ_section_title
;
Structure prediction by ZEFSAII (Michael W. Deem and Ramdas Pophale) SiO2 
 PCOD9288188
Probable space group: C 2/C
;
_chemical_formula_sum "Si O2"
_cell_formula_units_Z 52
_cell_length_a 10.900851
_cell_length_b 20.148075
_cell_length_c 12.832338
_cell_angle_alpha 90.000000
_cell_angle_beta 53.482103
_cell_angle_gamma 90.000000
_cell_volume 2265.051399
_symmetry_space_group_name_H-M "C 2/C"
_symmetry_group_IT_number 15
_symmetry_cell_setting 'monoclinic'
loop_
_space_group_symop_operation_xyz
x,y,z
-x,y,1/2-z
-x,-y,-z
x,-y,1/2+z
1/2+x,1/2+y,z
1/2-x,1/2+y,1/2-z
1/2-x,1/2-y,-z
1/2+x,1/2-y,1/2+z
loop_
_atom_site_type_symbol
_atom_site_label
_atom_site_fract_x
_atom_site_fract_y
_atom_site_fract_z
Si Si1 0.168563 0.666227 0.631871
Si Si2 0.943076 0.646229 0.037126
Si Si3 0.265931 0.615518 0.165873
Si Si4 0.984697 0.788039 0.034675
Si Si5 0.209420 0.571985 0.969610
Si Si6 0.317701 0.019072 0.845774
Si Si7 0.500000 0.353638 0.250000
O O1 0.153620 0.648753 0.518473
O O2 0.309169 0.712551 0.586741
O O3 0.203093 0.595507 0.669529
O O4 0.000000 0.690264 0.750000
O O5 0.839219 0.644699 0.191827
O O6 0.044154 0.713651 0.987596
O O7 0.056349 0.583816 0.983497
O O8 0.194773 0.616246 0.084586
O O9 0.271522 0.535287 0.178516
O O10 0.421053 0.656773 0.076862
O O11 0.990454 0.809188 0.151751
O O12 0.230670 0.500412 0.011585
O O13 0.353453 0.599457 0.836570
O O14 0.500000 0.005627 0.750000
#
# Coordination Sequence:
#
# PCOD9288188 Si02
#       7
#     8   8   8   8   8   8   4
#     4  11  26  44  62  92 129 173 204 258 314 377
#     4  12  23  40  69  90 130 172 204 255 315 381
#     4   9  21  41  64  97 123 161 209 270 303 359
#     4  11  26  41  62  96 130 163 213 255 316 376
#     4   9  19  39  61  99 122 157 210 254 314 360
#     4   9  18  43  64  90 130 156 209 266 300 370
#     4  10  22  38  64  98 124 164 198 268 318 348
#
# _framework density 22.957536999999999
#
# number of rings (size 3 to 8) (size 9 to 14) (size 15 to 20)
#    0.923    0.923    1.538    1.846    6.462    3.077 
#    2.769    0.000    0.000    0.000    0.000    0.000 
#    0.000    0.000    0.000    0.000    0.000    0.000 
#
# Total GULP energy -145177.902813 kJ/mol
# GULP energy per Si atom -5583.765493 kJ/mol
# Density = 2.290528 g / cm^3
# Si number density = 22.957537 Si / 1000 Ang^3
#
#
#
# Elastic Constant Matrix: (Units=GPa)
#
#
# Indices 1 2 3 4 5 6 
#
# 1 64.1772 -2.1097 18.2840 0.0000 1.1344 0.0000
# 2 -2.1097 43.2091 -1.9714 0.0000 -9.7260 0.0000
# 3 18.2840 -1.9714 83.9927 0.0000 0.1469 0.0000
# 4 0.0000 0.0000 0.0000 10.9882 0.0000 -0.7166
# 5 1.1344 -9.7260 0.1469 0.0000 25.0779 0.0000
# 6 0.0000 0.0000 0.0000 -0.7166 0.0000 19.6307
#
#
#
# Elastic Compliance Matrix: (Units=1/GPa)
#
#
# Indices 1 2 3 4 5 6 
#
# 1 0.016637 0.000529 -0.003608 0.000000 -0.000526 0.000000
# 2 0.000529 0.025402 0.000464 0.000000 0.009825 0.000000
# 3 -0.003608 0.000464 0.012702 0.000000 0.000269 0.000000
# 4 0.000000 0.000000 0.000000 0.091224 0.000000 0.003330
# 5 -0.000526 0.009825 0.000269 0.000000 0.043708 0.000000
# 6 0.000000 0.000000 0.000000 0.003330 0.000000 0.051062
#
#
# Mechanical properties :
#
#
# Convention : Reuss Voigt Hill
#
# Bulk Modulus (GPa) = 20.19803 24.42051 22.30927
# Shear Modulus (GPa) = 19.04993 22.95111 21.00052
#
# Velocity S-wave (km/s) = 2.88373 3.16527 3.02777
# Velocity P-wave (km/s) = 4.46150 4.90091 4.68636
#
# Compressibility (1/GPa) = 0.04950979
#
# Stress axis : x y z
#
# Youngs Moduli (GPa) = 60.10876 39.36726 78.72987
#
# Poissons Ratio (x) = -0.02083 0.28407
# Poissons Ratio (y) = -0.03181 -0.03652
# Poissons Ratio (z) = 0.21688 -0.01826
#
# Static dielectric constant tensor:
#      x y z
#    x 1.822100 0.000000 0.010260 
#    y 0.000000 1.901500 0.000000 
#    z 0.010260 0.000000 1.848660 
# 
# From -- ./inp_files/91192.got.cif
#   From: 2010.05.17/outbox.cif.g08.bks.cpg/sg15_46_cif.got.tgz:91192.got - 2010.06.03 18:47:42.
