data_PCOD9288716
_publ_section_title
;
Structure prediction by ZEFSAII (Michael W. Deem and Ramdas Pophale) SiO2 
 PCOD9288716
Probable space group: C 2/C
;
_chemical_formula_sum "Si O2"
_cell_formula_units_Z 40
_cell_length_a 5.658169
_cell_length_b 18.697416
_cell_length_c 16.127348
_cell_angle_alpha 90.000000
_cell_angle_beta 79.302200
_cell_angle_gamma 90.000000
_cell_volume 1676.509541
_symmetry_space_group_name_H-M "C 2/C"
_symmetry_group_IT_number 15
_symmetry_cell_setting 'monoclinic'
loop_
_space_group_symop_operation_xyz
x,y,z
-x,y,1/2-z
-x,-y,-z
x,-y,1/2+z
1/2+x,1/2+y,z
1/2-x,1/2+y,1/2-z
1/2-x,1/2-y,-z
1/2+x,1/2-y,1/2+z
loop_
_atom_site_type_symbol
_atom_site_label
_atom_site_fract_x
_atom_site_fract_y
_atom_site_fract_z
Si Si1 0.816498 0.888527 0.860534
Si Si2 0.689585 0.176354 0.116278
Si Si3 0.620071 0.030704 0.830838
Si Si4 0.303110 0.557807 0.539403
Si Si5 0.343695 0.342796 0.413080
O O1 0.574400 0.852223 0.840750
O O2 0.080249 0.851538 0.844675
O O3 0.818768 0.969487 0.826797
O O4 0.751243 0.896419 0.961854
O O5 0.666774 0.262073 0.116693
O O6 0.752550 0.156537 0.015300
O O7 0.500000 0.031809 0.750000
O O8 0.410758 0.011816 0.909686
O O9 0.699861 0.107156 0.859525
O O10 0.500000 0.500000 0.500000
O O11 0.401634 0.615794 0.598259
#
# Coordination Sequence:
#
# PCOD9288716 Si02
#       5
#     8   8   8   8   8
#     4  11  22  42  66  99 128 177 226 282 333 400
#     4  10  23  39  71  97 132 169 232 284 330 401
#     4  12  25  41  65 100 139 180 226 284 354 417
#     4  11  21  40  70  97 132 170 233 288 332 398
#     4  10  22  39  64 102 128 172 221 284 338 401
#
# _framework density 23.859093999999999
#
# number of rings (size 3 to 8) (size 9 to 14) (size 15 to 20)
#    0.000    1.200    4.000    3.000    2.800    3.200 
#    0.000    2.000    0.000    0.000    0.000    0.000 
#    0.000    0.000    0.000    0.000    0.000    0.000 
#
# Total GULP energy -111793.001334 kJ/mol
# GULP energy per Si atom -5589.650067 kJ/mol
# Density = 2.380479 g / cm^3
# Si number density = 23.859094 Si / 1000 Ang^3
#
#
#
# Elastic Constant Matrix: (Units=GPa)
#
#
# Indices 1 2 3 4 5 6 
#
# 1 170.0577 74.4424 42.8346 0.0000 6.4786 0.0000
# 2 74.4424 172.2970 16.6335 0.0000 13.6622 0.0000
# 3 42.8346 16.6335 63.9100 0.0000 10.8725 0.0000
# 4 0.0000 0.0000 0.0000 -2.2682 0.0000 9.5319
# 5 6.4786 13.6622 10.8725 0.0000 50.6629 0.0000
# 6 0.0000 0.0000 0.0000 9.5319 0.0000 40.9402
#
#
#
# Elastic Compliance Matrix: (Units=1/GPa)
#
#
# Indices 1 2 3 4 5 6 
#
# 1 0.008547 -0.003277 -0.005023 0.000000 0.000869 0.000000
# 2 -0.003277 0.007296 0.000582 0.000000 -0.001673 0.000000
# 3 -0.005023 0.000582 0.019491 0.000000 -0.003697 0.000000
# 4 0.000000 0.000000 0.000000 -0.222844 0.000000 0.051884
# 5 0.000869 -0.001673 -0.003697 0.000000 0.020872 0.000000
# 6 0.000000 0.000000 0.000000 0.051884 0.000000 0.012346
#
#
# Mechanical properties :
#
#
# Convention : Reuss Voigt Hill
#
# Bulk Modulus (GPa) = 50.25603 74.89840 62.57722
# Shear Modulus (GPa) = -37.81502 36.02394 -0.89554
#
# Velocity S-wave (km/s) = -3.98544 3.88991 -0.61332
# Velocity P-wave (km/s) = 0.26246 7.18577 5.07772
#
# Compressibility (1/GPa) = 0.01989811
#
# Stress axis : x y z
#
# Youngs Moduli (GPa) = 117.00094 137.05811 51.30461
#
# Poissons Ratio (x) = 0.44910 0.25772
# Poissons Ratio (y) = 0.38338 -0.02985
# Poissons Ratio (z) = 0.58774 -0.07975
#
# Static dielectric constant tensor:
#      x y z
#    x 1.769220 0.000000 -0.102010 
#    y 0.000000 1.863950 0.000000 
#    z -0.102010 0.000000 1.887040 
# 
# From -- ./inp_files/184246.got.cif
#   From: 2010.05.17/outbox.cif.g08.bks.cpg/sg15_93_cif.got.tgz:184246.got - 2010.06.03 18:47:42.
