data_PCOD9288018
_publ_section_title
;
Structure prediction by ZEFSAII (Michael W. Deem and Ramdas Pophale) SiO2 
 PCOD9288018
Probable space group: C 2/C
;
_chemical_formula_sum "Si O2"
_cell_formula_units_Z 56
_cell_length_a 13.920440
_cell_length_b 13.967840
_cell_length_c 21.235995
_cell_angle_alpha 90.000000
_cell_angle_beta 43.199279
_cell_angle_gamma 90.000000
_cell_volume 2826.521854
_symmetry_space_group_name_H-M "C 2/C"
_symmetry_group_IT_number 15
_symmetry_cell_setting 'monoclinic'
loop_
_space_group_symop_operation_xyz
x,y,z
-x,y,1/2-z
-x,-y,-z
x,-y,1/2+z
1/2+x,1/2+y,z
1/2-x,1/2+y,1/2-z
1/2-x,1/2-y,-z
1/2+x,1/2-y,1/2+z
loop_
_atom_site_type_symbol
_atom_site_label
_atom_site_fract_x
_atom_site_fract_y
_atom_site_fract_z
Si Si1 0.461913 0.380036 0.470793
Si Si2 0.863639 0.058610 0.140822
Si Si3 0.115921 0.142666 0.244760
Si Si4 0.781309 0.637515 0.500902
Si Si5 0.332227 0.435961 0.315413
Si Si6 0.946808 0.398023 0.707361
Si Si7 0.331142 0.717556 0.711224
O O1 0.580957 0.461015 0.414757
O O2 0.393484 0.364960 0.571233
O O3 0.339396 0.413308 0.482833
O O4 0.544748 0.294501 0.398870
O O5 0.946457 0.090739 0.163195
O O6 0.700176 0.050464 0.235648
O O7 0.208446 0.227606 0.231533
O O8 0.000000 0.175187 0.250000
O O9 0.195984 0.050677 0.175807
O O10 0.750000 0.750000 0.500000
O O11 0.752770 0.612586 0.586958
O O12 0.929334 0.600993 0.402739
O O13 0.500000 0.427655 0.250000
O O14 0.303144 0.379201 0.263881
O O15 0.894323 0.288270 0.733608
O O16 0.000000 0.428436 0.750000
#
# Coordination Sequence:
#
# PCOD9288018 Si02
#       7
#     8   8   8   8   8   8   8
#     4  11  20  37  62  92 122 162 216 254 322 390
#     4  10  22  38  62  86 122 171 209 263 312 389
#     4  10  22  41  63  85 124 171 218 256 313 382
#     4  12  21  34  64 100 126 157 207 268 330 384
#     4  11  20  38  66  94 124 166 212 258 320 389
#     4  11  21  35  57  94 129 152 197 266 326 370
#     4  11  21  36  63  93 127 162 208 268 318 379
#
# _framework density 19.812335000000001
#
# number of rings (size 3 to 8) (size 9 to 14) (size 15 to 20)
#    0.000    1.143    5.714    2.143    2.000    0.000 
#    0.000    4.286    6.286    0.000    0.000    0.000 
#    0.000    0.000    0.000    0.000    0.000    0.000 
#
# Total GULP energy -155918.966445 kJ/mol
# GULP energy per Si atom -5568.534516 kJ/mol
# Density = 1.976724 g / cm^3
# Si number density = 19.812335 Si / 1000 Ang^3
#
#
#
# Elastic Constant Matrix: (Units=GPa)
#
#
# Indices 1 2 3 4 5 6 
#
# 1 114.7538 29.9580 42.9246 0.0000 8.2190 0.0000
# 2 29.9580 50.6150 24.7690 0.0000 -7.0069 0.0000
# 3 42.9246 24.7690 145.4965 0.0000 1.9947 0.0000
# 4 0.0000 0.0000 0.0000 27.3589 0.0000 4.5120
# 5 8.2190 -7.0069 1.9947 0.0000 36.8798 0.0000
# 6 0.0000 0.0000 0.0000 4.5120 0.0000 27.4061
#
#
#
# Elastic Compliance Matrix: (Units=1/GPa)
#
#
# Indices 1 2 3 4 5 6 
#
# 1 0.011428 -0.006147 -0.002276 0.000000 -0.003592 0.000000
# 2 -0.006147 0.025562 -0.002625 0.000000 0.006369 0.000000
# 3 -0.002276 -0.002625 0.007997 0.000000 -0.000424 0.000000
# 4 0.000000 0.000000 0.000000 0.037571 0.000000 -0.006186
# 5 -0.003592 0.006369 -0.000424 0.000000 0.029148 0.000000
# 6 0.000000 0.000000 0.000000 -0.006186 0.000000 0.037507
#
#
# Mechanical properties :
#
#
# Convention : Reuss Voigt Hill
#
# Bulk Modulus (GPa) = 43.68729 56.24095 49.96412
# Shear Modulus (GPa) = 27.94239 32.54320 30.24279
#
# Velocity S-wave (km/s) = 3.75954 4.05726 3.91124
# Velocity P-wave (km/s) = 6.39875 7.09908 6.75799
#
# Compressibility (1/GPa) = 0.02288995
#
# Stress axis : x y z
#
# Youngs Moduli (GPa) = 87.50723 39.12086 125.04497
#
# Poissons Ratio (x) = 0.24049 0.28456
# Poissons Ratio (y) = 0.53794 0.32828
# Poissons Ratio (z) = 0.19914 0.10270
#
# Static dielectric constant tensor:
#      x y z
#    x 1.747460 0.000000 0.010890 
#    y 0.000000 1.836200 0.000000 
#    z 0.010890 0.000000 1.724190 
# 
# From -- ./inp_files/244521.got.cif
#   From: 2010.05.17/outbox.cif.g08.bks.cpg/sg15_123_cif.got.tgz:244521.got - 2010.06.03 18:47:42.
