data_PCOD9288376
_publ_section_title
;
Structure prediction by ZEFSAII (Michael W. Deem and Ramdas Pophale) SiO2 
 PCOD9288376
Probable space group: C 2/C
;
_chemical_formula_sum "Si O2"
_cell_formula_units_Z 56
_cell_length_a 8.300236
_cell_length_b 21.296297
_cell_length_c 16.848457
_cell_angle_alpha 90.000000
_cell_angle_beta 111.330704
_cell_angle_gamma 90.000000
_cell_volume 2774.187851
_symmetry_space_group_name_H-M "C 2/C"
_symmetry_group_IT_number 15
_symmetry_cell_setting 'monoclinic'
loop_
_space_group_symop_operation_xyz
x,y,z
-x,y,1/2-z
-x,-y,-z
x,-y,1/2+z
1/2+x,1/2+y,z
1/2-x,1/2+y,1/2-z
1/2-x,1/2-y,-z
1/2+x,1/2-y,1/2+z
loop_
_atom_site_type_symbol
_atom_site_label
_atom_site_fract_x
_atom_site_fract_y
_atom_site_fract_z
Si Si1 0.288249 0.939998 0.338731
Si Si2 0.000000 0.836602 0.250000
Si Si3 0.933156 0.099531 0.018578
Si Si4 0.274829 0.970882 0.521755
Si Si5 0.397309 0.063243 0.313310
Si Si6 0.000000 0.375287 0.250000
Si Si7 0.157614 0.168683 0.337364
Si Si8 0.824363 0.201709 0.870064
O O1 0.151295 0.885158 0.299781
O O2 0.296135 0.951865 0.433582
O O3 0.453471 0.916428 0.318526
O O4 0.255226 0.007174 0.291014
O O5 0.044834 0.795569 0.181013
O O6 0.897373 0.155660 0.950291
O O7 0.120608 0.069869 0.033598
O O8 0.916299 0.128483 0.102838
O O9 0.793938 0.042687 0.985503
O O10 0.455704 0.956176 0.596596
O O11 0.500000 0.067055 0.250000
O O12 0.298553 0.126236 0.317705
O O13 0.840743 0.333024 0.196552
O O14 0.257280 0.230713 0.385240
O O15 0.000000 0.185113 0.250000
#
# Coordination Sequence:
#
# PCOD9288376 Si02
#       8
#     8   4   8   8   8   4   8   8
#     4  11  21  40  66  99 128 167 210 279 330 388
#     4  10  24  40  70  98 128 172 220 272 334 378
#     4  11  24  44  71  97 134 174 219 272 337 392
#     4  11  24  44  66 102 138 165 214 282 336 396
#     4  12  26  41  66  99 134 174 218 269 340 397
#     4  10  22  38  72  94 128 166 230 266 324 392
#     4  12  27  46  67  93 136 181 222 271 326 395
#     4  11  23  46  65  96 129 179 224 269 314 394
#
# _framework density 20.186088000000002
#
# number of rings (size 3 to 8) (size 9 to 14) (size 15 to 20)
#    0.000    0.857    4.286    2.571    6.000    0.000 
#    0.000    0.714    0.000    0.000    0.000    0.000 
#    0.000    0.000    0.000    0.000    0.000    0.000 
#
# Total GULP energy -156424.632716 kJ/mol
# GULP energy per Si atom -5586.594026 kJ/mol
# Density = 2.014014 g / cm^3
# Si number density = 20.186088 Si / 1000 Ang^3
#
#
#
# Elastic Constant Matrix: (Units=GPa)
#
#
# Indices 1 2 3 4 5 6 
#
# 1 89.3790 29.3629 34.8982 0.0000 -22.8794 0.0000
# 2 29.3629 105.9765 15.1087 0.0000 -10.2373 0.0000
# 3 34.8982 15.1087 66.7028 0.0000 -28.7008 0.0000
# 4 0.0000 0.0000 0.0000 22.9620 0.0000 2.6925
# 5 -22.8794 -10.2373 -28.7008 0.0000 44.2914 0.0000
# 6 0.0000 0.0000 0.0000 2.6925 0.0000 28.8463
#
#
#
# Elastic Compliance Matrix: (Units=1/GPa)
#
#
# Indices 1 2 3 4 5 6 
#
# 1 0.015372 -0.003092 -0.005869 0.000000 0.003423 0.000000
# 2 -0.003092 0.010414 -0.000545 0.000000 0.000457 0.000000
# 3 -0.005869 -0.000545 0.023333 0.000000 0.011962 0.000000
# 4 0.000000 0.000000 0.000000 0.044032 0.000000 -0.004110
# 5 0.003423 0.000457 0.011962 0.000000 0.032203 0.000000
# 6 0.000000 0.000000 0.000000 -0.004110 0.000000 0.035050
#
#
# Mechanical properties :
#
#
# Convention : Reuss Voigt Hill
#
# Bulk Modulus (GPa) = 33.21410 46.75532 39.98471
# Shear Modulus (GPa) = 26.39190 31.39915 28.89553
#
# Velocity S-wave (km/s) = 3.61976 3.94824 3.78757
# Velocity P-wave (km/s) = 5.82751 6.63304 6.24328
#
# Compressibility (1/GPa) = 0.03010769
#
# Stress axis : x y z
#
# Youngs Moduli (GPa) = 65.05403 96.02017 42.85762
#
# Poissons Ratio (x) = 0.29686 0.25155
# Poissons Ratio (y) = 0.20112 0.02335
# Poissons Ratio (z) = 0.38183 0.05231
#
# Static dielectric constant tensor:
#      x y z
#    x 1.734320 0.000000 -0.011710 
#    y 0.000000 1.722110 0.000000 
#    z -0.011710 0.000000 1.714300 
# 
# From -- ./inp_files/191087.got.cif
#   From: 2010.05.17/outbox.cif.g08.bks.cpg/sg15_96_cif.got.tgz:191087.got - 2010.06.03 18:47:42.
