data_PCOD9288995
_publ_section_title
;
Structure prediction by ZEFSAII (Michael W. Deem and Ramdas Pophale) SiO2 
 PCOD9288995
Probable space group: C 2/C
;
_chemical_formula_sum "Si O2"
_cell_formula_units_Z 44
_cell_length_a 7.423706
_cell_length_b 17.925191
_cell_length_c 12.080510
_cell_angle_alpha 90.000000
_cell_angle_beta 93.954537
_cell_angle_gamma 90.000000
_cell_volume 1603.742265
_symmetry_space_group_name_H-M "C 2/C"
_symmetry_group_IT_number 15
_symmetry_cell_setting 'monoclinic'
loop_
_space_group_symop_operation_xyz
x,y,z
-x,y,1/2-z
-x,-y,-z
x,-y,1/2+z
1/2+x,1/2+y,z
1/2-x,1/2+y,1/2-z
1/2-x,1/2-y,-z
1/2+x,1/2-y,1/2+z
loop_
_atom_site_type_symbol
_atom_site_label
_atom_site_fract_x
_atom_site_fract_y
_atom_site_fract_z
Si Si1 0.500000 0.050498 0.250000
Si Si2 0.606481 0.816485 0.011871
Si Si3 0.239874 0.331365 0.654576
Si Si4 0.600234 0.418548 0.015120
Si Si5 0.677708 0.027696 0.584782
Si Si6 0.000000 0.715212 0.750000
Si Si7 0.500000 0.579431 0.750000
O O1 0.331901 0.105777 0.263962
O O2 0.496154 0.994949 0.352187
O O3 0.434996 0.807944 0.924454
O O4 0.695430 0.899074 0.009524
O O5 0.750000 0.750000 0.000000
O O6 0.533601 0.823562 0.134801
O O7 0.407804 0.356252 0.581138
O O8 0.320935 0.264178 0.726554
O O9 0.790297 0.451261 0.980865
O O10 0.577720 0.386835 0.137611
O O11 0.829652 0.037062 0.688819
O O12 0.000000 0.000000 0.500000
#
# Coordination Sequence:
#
# PCOD9288995 Si02
#       7
#     4   8   8   8   8   4   4
#     4  10  23  44  77 109 147 182 234 320 394 432
#     4  12  29  49  74 105 149 203 252 304 358 455
#     4  11  26  49  77 108 145 191 256 310 378 451
#     4   9  22  41  70 109 143 188 238 318 377 446
#     4  10  24  42  69 110 143 186 248 301 377 445
#     4  12  29  51  74 102 151 199 254 300 372 444
#     4  10  22  39  71 101 150 187 230 300 380 434
#
# _framework density 27.435828999999998
#
# number of rings (size 3 to 8) (size 9 to 14) (size 15 to 20)
#    0.000    1.455    0.000    2.182   12.727    9.455 
#    0.000    0.000    0.000    0.000    0.000    0.000 
#    0.000    0.000    0.000    0.000    0.000    0.000 
#
# Total GULP energy -122749.302732 kJ/mol
# GULP energy per Si atom -5579.513761 kJ/mol
# Density = 2.737338 g / cm^3
# Si number density = 27.435829 Si / 1000 Ang^3
#
#
#
# Elastic Constant Matrix: (Units=GPa)
#
#
# Indices 1 2 3 4 5 6 
#
# 1 93.3683 31.1234 36.3309 0.0000 22.5404 0.0000
# 2 31.1234 109.0399 13.4472 0.0000 0.9341 0.0000
# 3 36.3309 13.4472 132.5189 0.0000 -22.3710 0.0000
# 4 0.0000 0.0000 0.0000 33.5877 0.0000 -23.4245
# 5 22.5404 0.9341 -22.3710 0.0000 74.8521 0.0000
# 6 0.0000 0.0000 0.0000 -23.4245 0.0000 14.5572
#
#
#
# Elastic Compliance Matrix: (Units=1/GPa)
#
#
# Indices 1 2 3 4 5 6 
#
# 1 0.015271 -0.003713 -0.004822 0.000000 -0.005993 0.000000
# 2 -0.003713 0.010202 0.000158 0.000000 0.001038 0.000000
# 3 -0.004822 0.000158 0.009580 0.000000 0.004313 0.000000
# 4 0.000000 0.000000 0.000000 -0.243579 0.000000 -0.391952
# 5 -0.005993 0.001038 0.004313 0.000000 0.016441 0.000000
# 6 0.000000 0.000000 0.000000 -0.391952 0.000000 -0.562010
#
#
# Mechanical properties :
#
#
# Convention : Reuss Voigt Hill
#
# Bulk Modulus (GPa) = 54.64441 55.19224 54.91832
# Shear Modulus (GPa) = -6.83768 41.53443 17.34838
#
# Velocity S-wave (km/s) = -1.58040 3.89508 2.51734
# Velocity P-wave (km/s) = 4.07801 6.35526 5.33945
#
# Compressibility (1/GPa) = 0.01830013
#
# Stress axis : x y z
#
# Youngs Moduli (GPa) = 65.48386 98.01657 104.38326
#
# Poissons Ratio (x) = 0.36392 0.50330
# Poissons Ratio (y) = 0.24313 -0.01648
# Poissons Ratio (z) = 0.31574 -0.01547
#
# Static dielectric constant tensor:
#      x y z
#    x 2.527290 0.000000 -0.182460 
#    y 0.000000 2.164540 0.000000 
#    z -0.182460 0.000000 2.353690 
# 
# From -- ./inp_files/78237.got.cif
#   From: 2010.05.17/outbox.cif.g08.bks.cpg/sg15_40_cif.got.tgz:78237.got - 2010.06.03 18:47:42.
