data_PCOD9288219
_publ_section_title
;
Structure prediction by ZEFSAII (Michael W. Deem and Ramdas Pophale) SiO2 
 PCOD9288219
Probable space group: C 2/C
;
_chemical_formula_sum "Si O2"
_cell_formula_units_Z 44
_cell_length_a 9.913470
_cell_length_b 17.671621
_cell_length_c 16.032045
_cell_angle_alpha 90.000000
_cell_angle_beta 51.729845
_cell_angle_gamma 90.000000
_cell_volume 2205.035012
_symmetry_space_group_name_H-M "C 2/C"
_symmetry_group_IT_number 15
_symmetry_cell_setting 'monoclinic'
loop_
_space_group_symop_operation_xyz
x,y,z
-x,y,1/2-z
-x,-y,-z
x,-y,1/2+z
1/2+x,1/2+y,z
1/2-x,1/2+y,1/2-z
1/2-x,1/2-y,-z
1/2+x,1/2-y,1/2+z
loop_
_atom_site_type_symbol
_atom_site_label
_atom_site_fract_x
_atom_site_fract_y
_atom_site_fract_z
Si Si1 0.128855 0.850740 0.328463
Si Si2 0.915633 0.399650 0.095997
Si Si3 0.771849 0.541062 0.911552
Si Si4 0.116800 0.981307 0.132995
Si Si5 0.431612 0.798062 0.929113
Si Si6 0.000000 0.414079 0.750000
O O1 0.281759 0.854523 0.204328
O O2 0.193418 0.893999 0.385171
O O3 0.971224 0.900185 0.352076
O O4 0.071662 0.766882 0.367445
O O5 0.804428 0.468632 0.100181
O O6 0.065868 0.428948 0.097571
O O7 0.959845 0.345968 0.002120
O O8 0.840016 0.473284 0.824846
O O9 0.637299 0.517453 0.034637
O O10 0.000000 0.018380 0.250000
O O11 0.464178 0.857685 0.841510
O O12 0.250000 0.750000 0.000000
#
# Coordination Sequence:
#
# PCOD9288219 Si02
#       6
#     8   8   8   8   8   4
#     4  11  23  42  64  97 138 173 219 284 339 387
#     4  11  22  40  67  91 136 173 224 273 340 387
#     4  12  23  43  65 102 131 176 225 279 334 405
#     4  10  22  38  65  92 132 177 222 276 326 391
#     4  12  24  41  65  98 134 181 226 277 334 411
#     4  12  24  40  72  98 128 178 234 264 336 414
#
# _framework density 19.954332000000001
#
# number of rings (size 3 to 8) (size 9 to 14) (size 15 to 20)
#    0.000    0.727    5.455    2.182    1.273    0.727 
#    0.000    1.818    0.000    0.000    0.000    0.000 
#    0.000    0.000    0.000    0.000    0.000    0.000 
#
# Total GULP energy -122805.581436 kJ/mol
# GULP energy per Si atom -5582.071883 kJ/mol
# Density = 1.990892 g / cm^3
# Si number density = 19.954332 Si / 1000 Ang^3
#
#
#
# Elastic Constant Matrix: (Units=GPa)
#
#
# Indices 1 2 3 4 5 6 
#
# 1 66.0403 0.0169 -27.9606 0.0000 9.5111 0.0000
# 2 0.0169 65.8151 10.7170 0.0000 -0.6703 0.0000
# 3 -27.9606 10.7170 88.9624 0.0000 7.2320 0.0000
# 4 0.0000 0.0000 0.0000 24.6747 0.0000 4.7774
# 5 9.5111 -0.6703 7.2320 0.0000 26.5762 0.0000
# 6 0.0000 0.0000 0.0000 4.7774 0.0000 26.7961
#
#
#
# Elastic Compliance Matrix: (Units=1/GPa)
#
#
# Indices 1 2 3 4 5 6 
#
# 1 0.019361 -0.001227 0.006953 0.000000 -0.008852 0.000000
# 2 -0.001227 0.015598 -0.002385 0.000000 0.001482 0.000000
# 3 0.006953 -0.002385 0.014235 0.000000 -0.006422 0.000000
# 4 0.000000 0.000000 0.000000 0.041976 0.000000 -0.007484
# 5 -0.008852 0.001482 -0.006422 0.000000 0.042580 0.000000
# 6 0.000000 0.000000 0.000000 -0.007484 0.000000 0.038653
#
#
# Mechanical properties :
#
#
# Convention : Reuss Voigt Hill
#
# Bulk Modulus (GPa) = 17.89728 20.70715 19.30222
# Shear Modulus (GPa) = 27.12250 31.47903 29.30077
#
# Velocity S-wave (km/s) = 3.69077 3.97615 3.83612
# Velocity P-wave (km/s) = 5.21066 5.61066 5.41436
#
# Compressibility (1/GPa) = 0.05587440
#
# Stress axis : x y z
#
# Youngs Moduli (GPa) = 51.65014 64.11126 70.24801
#
# Poissons Ratio (x) = 0.07868 -0.48840
# Poissons Ratio (y) = 0.06339 0.16756
# Poissons Ratio (z) = -0.35910 0.15292
#
# Static dielectric constant tensor:
#      x y z
#    x 1.732090 0.000000 -0.014330 
#    y 0.000000 1.548500 0.000000 
#    z -0.014330 0.000000 1.785540 
# 
# From -- ./inp_files/134740.got.cif
#   From: 2010.05.17/outbox.cif.g08.bks.cpg/sg15_68_cif.got.tgz:134740.got - 2010.06.03 18:47:42.
