data_PCOD9288152
_publ_section_title
;
Structure prediction by ZEFSAII (Michael W. Deem and Ramdas Pophale) SiO2 
 PCOD9288152
Probable space group: C 2/C
;
_chemical_formula_sum "Si O2"
_cell_formula_units_Z 32
_cell_length_a 11.517545
_cell_length_b 7.718330
_cell_length_c 26.116534
_cell_angle_alpha 90.000000
_cell_angle_beta 33.496037
_cell_angle_gamma 90.000000
_cell_volume 1281.276647
_symmetry_space_group_name_H-M "C 2/C"
_symmetry_group_IT_number 15
_symmetry_cell_setting 'monoclinic'
loop_
_space_group_symop_operation_xyz
x,y,z
-x,y,1/2-z
-x,-y,-z
x,-y,1/2+z
1/2+x,1/2+y,z
1/2-x,1/2+y,1/2-z
1/2-x,1/2-y,-z
1/2+x,1/2-y,1/2+z
loop_
_atom_site_type_symbol
_atom_site_label
_atom_site_fract_x
_atom_site_fract_y
_atom_site_fract_z
Si Si1 0.711859 0.782520 0.605224
Si Si2 0.212342 0.205945 0.308351
Si Si3 0.601575 0.579474 0.156740
Si Si4 0.829386 0.616184 0.928273
O O1 0.802643 0.840851 0.626509
O O2 0.456885 0.786768 0.705090
O O3 0.761218 0.925369 0.544527
O O4 0.754905 0.578191 0.585536
O O5 0.079893 0.083505 0.319750
O O6 0.079143 0.383229 0.348726
O O7 0.500000 0.555851 0.250000
O O8 0.697793 0.771984 0.114228
O O9 0.750000 0.750000 0.000000
#
# Coordination Sequence:
#
# PCOD9288152 Si02
#       4
#     8   8   8   8
#     4  11  20  41  67  88 126 165 207 269 303 364
#     4   9  22  39  64  95 119 162 220 250 310 381
#     4  10  22  38  64  94 120 162 218 253 307 383
#     4  10  25  42  62  96 133 165 205 263 325 369
#
# _framework density 24.975090000000002
#
# number of rings (size 3 to 8) (size 9 to 14) (size 15 to 20)
#    1.500    0.500    2.500    1.500    3.500    2.000 
#    0.000    1.250    0.000    0.000    0.000    0.000 
#    0.000    0.000    0.000    0.000    0.000    0.000 
#
# Total GULP energy -89162.870977 kJ/mol
# GULP energy per Si atom -5572.679436 kJ/mol
# Density = 2.491825 g / cm^3
# Si number density = 24.975090 Si / 1000 Ang^3
#
#
#
# Elastic Constant Matrix: (Units=GPa)
#
#
# Indices 1 2 3 4 5 6 
#
# 1 125.8597 44.5634 4.5633 0.0001 -5.3956 0.0002
# 2 44.5634 96.9115 6.7703 0.0000 -2.8643 0.0007
# 3 4.5633 6.7703 39.7596 -0.0001 -7.8666 0.0001
# 4 0.0001 0.0000 -0.0001 25.0985 0.0000 1.3393
# 5 -5.3956 -2.8643 -7.8666 0.0000 21.5028 0.0001
# 6 0.0002 0.0007 0.0001 1.3393 0.0001 31.7639
#
#
#
# Elastic Compliance Matrix: (Units=1/GPa)
#
#
# Indices 1 2 3 4 5 6 
#
# 1 0.009561 -0.004343 0.000003 0.000000 0.001822 0.000000
# 2 -0.004343 0.012428 -0.001623 0.000000 -0.000028 0.000000
# 3 0.000003 -0.001623 0.027365 0.000000 0.009796 0.000000
# 4 0.000000 0.000000 0.000000 0.039933 0.000000 -0.001684
# 5 0.001822 -0.000028 0.009796 0.000000 0.050543 0.000000
# 6 0.000000 0.000000 0.000000 -0.001684 0.000000 0.031553
#
#
# Mechanical properties :
#
#
# Convention : Reuss Voigt Hill
#
# Bulk Modulus (GPa) = 26.71843 41.59165 34.15504
# Shear Modulus (GPa) = 25.53799 29.44862 27.49331
#
# Velocity S-wave (km/s) = 3.20118 3.43756 3.32147
# Velocity P-wave (km/s) = 4.93809 5.69606 5.33056
#
# Compressibility (1/GPa) = 0.03742735
#
# Stress axis : x y z
#
# Youngs Moduli (GPa) = 104.59124 80.46167 36.54240
#
# Poissons Ratio (x) = 0.34943 -0.00009
# Poissons Ratio (y) = 0.45422 0.05932
# Poissons Ratio (z) = -0.00027 0.13062
#
# Static dielectric constant tensor:
#      x y z
#    x 1.946020 0.000000 -0.001490 
#    y 0.000000 2.059230 0.000000 
#    z -0.001490 0.000000 2.110550 
# 
# From -- ./inp_files/194778.got.cif
#   From: 2010.05.17/outbox.cif.g08.bks.cpg/sg15_98_cif.got.tgz:194778.got - 2010.06.03 18:47:42.
