data_PCOD9288395
_publ_section_title
;
Structure prediction by ZEFSAII (Michael W. Deem and Ramdas Pophale) SiO2 
 PCOD9288395
Probable space group: C 2/C
;
_chemical_formula_sum "Si O2"
_cell_formula_units_Z 36
_cell_length_a 11.027390
_cell_length_b 34.143459
_cell_length_c 5.180924
_cell_angle_alpha 90.000000
_cell_angle_beta 115.863575
_cell_angle_gamma 90.000000
_cell_volume 1755.296524
_symmetry_space_group_name_H-M "C 2/C"
_symmetry_group_IT_number 15
_symmetry_cell_setting 'monoclinic'
loop_
_space_group_symop_operation_xyz
x,y,z
-x,y,1/2-z
-x,-y,-z
x,-y,1/2+z
1/2+x,1/2+y,z
1/2-x,1/2+y,1/2-z
1/2-x,1/2-y,-z
1/2+x,1/2-y,1/2+z
loop_
_atom_site_type_symbol
_atom_site_label
_atom_site_fract_x
_atom_site_fract_y
_atom_site_fract_z
Si Si1 0.152135 0.889131 0.278837
Si Si2 0.274295 0.343576 0.669666
Si Si3 0.162981 0.021178 0.873708
Si Si4 0.337819 0.259588 0.834578
Si Si5 0.500000 0.198105 0.750000
O O1 0.238965 0.868070 0.580619
O O2 0.190543 0.934836 0.306874
O O3 0.000000 0.886936 0.250000
O O4 0.166470 0.868301 0.014946
O O5 0.365204 0.305707 0.831888
O O6 0.128597 0.327481 0.445839
O O7 0.000000 0.018324 0.750000
O O8 0.212350 0.990861 0.702657
O O9 0.250000 0.250000 0.500000
O O10 0.458913 0.229011 0.933547
O O11 0.250000 0.250000 0.000000
#
# Coordination Sequence:
#
# PCOD9288395 Si02
#       5
#     8   8   8   8   4
#     4  11  23  37  59  91 127 153 191 244 306 359
#     4  11  23  40  59  87 116 160 199 253 299 346
#     4   9  17  32  55  84 117 154 188 229 289 363
#     4  10  22  39  57  81 109 152 201 250 294 336
#     4  10  24  42  62  84 116 158 214 248 290 370
#
# _framework density 20.509354999999999
#
# number of rings (size 3 to 8) (size 9 to 14) (size 15 to 20)
#    0.000    1.778    0.000    4.667    3.111   11.556 
#    0.000    0.000    0.000    0.000    0.000   15.556 
#    0.000    0.000    0.000    0.000    0.000    0.000 
#
# Total GULP energy -100506.745644 kJ/mol
# GULP energy per Si atom -5583.708091 kJ/mol
# Density = 2.046267 g / cm^3
# Si number density = 20.509355 Si / 1000 Ang^3
#
#
#
# Elastic Constant Matrix: (Units=GPa)
#
#
# Indices 1 2 3 4 5 6 
#
# 1 63.2463 25.6840 19.8252 0.0000 -16.6930 0.0000
# 2 25.6840 124.6060 33.4462 0.0000 -22.2088 0.0000
# 3 19.8252 33.4462 101.3802 0.0000 -35.3630 0.0000
# 4 0.0000 0.0000 0.0000 -2.5048 0.0000 19.7160
# 5 -16.6930 -22.2088 -35.3630 0.0000 45.8068 0.0000
# 6 0.0000 0.0000 0.0000 19.7160 0.0000 -5.5548
#
#
#
# Elastic Compliance Matrix: (Units=1/GPa)
#
#
# Indices 1 2 3 4 5 6 
#
# 1 0.018460 -0.002690 -0.001137 0.000000 0.004545 0.000000
# 2 -0.002690 0.009462 -0.001830 0.000000 0.002194 0.000000
# 3 -0.001137 -0.001830 0.014008 0.000000 0.009513 0.000000
# 4 0.000000 0.000000 0.000000 0.014820 0.000000 0.052603
# 5 0.004545 0.002194 0.009513 0.000000 0.031895 0.000000
# 6 0.000000 0.000000 0.000000 0.052603 0.000000 0.006683
#
#
# Mechanical properties :
#
#
# Convention : Reuss Voigt Hill
#
# Bulk Modulus (GPa) = 32.66257 49.68261 41.17259
# Shear Modulus (GPa) = 42.79106 21.56793 32.17949
#
# Velocity S-wave (km/s) = 4.57269 3.24638 3.96538
# Velocity P-wave (km/s) = 6.62114 6.19103 6.40970
#
# Compressibility (1/GPa) = 0.03061609
#
# Stress axis : x y z
#
# Youngs Moduli (GPa) = 54.17261 105.68523 71.38697
#
# Poissons Ratio (x) = 0.28425 0.08117
# Poissons Ratio (y) = 0.14570 0.13065
# Poissons Ratio (z) = 0.06160 0.19342
#
# Static dielectric constant tensor:
#      x y z
#    x 1.758540 0.000000 0.016480 
#    y 0.000000 1.773210 0.000000 
#    z 0.016480 0.000000 1.741600 
# 
# From -- ./inp_files/5622.got.cif
#   From: 2010.05.17/outbox.cif.g08.bks.cpg/sg15_3_cif.got.tgz:5622.got - 2010.06.03 18:47:42.
