data_PCOD9288077
_publ_section_title
;
Structure prediction by ZEFSAII (Michael W. Deem and Ramdas Pophale) SiO2 
 PCOD9288077
Probable space group: C 2/C
;
_chemical_formula_sum "Si O2"
_cell_formula_units_Z 64
_cell_length_a 21.332238
_cell_length_b 11.658776
_cell_length_c 26.940243
_cell_angle_alpha 90.000000
_cell_angle_beta 30.378869
_cell_angle_gamma 90.000000
_cell_volume 3388.420213
_symmetry_space_group_name_H-M "C 2/C"
_symmetry_group_IT_number 15
_symmetry_cell_setting 'monoclinic'
loop_
_space_group_symop_operation_xyz
x,y,z
-x,y,1/2-z
-x,-y,-z
x,-y,1/2+z
1/2+x,1/2+y,z
1/2-x,1/2+y,1/2-z
1/2-x,1/2-y,-z
1/2+x,1/2-y,1/2+z
loop_
_atom_site_type_symbol
_atom_site_label
_atom_site_fract_x
_atom_site_fract_y
_atom_site_fract_z
Si Si1 0.379556 0.759477 0.771244
Si Si2 0.873361 0.998221 0.305564
Si Si3 0.684533 0.671100 0.243114
Si Si4 0.591118 0.276481 0.563517
Si Si5 0.245338 0.557727 0.489885
Si Si6 0.665176 0.598982 0.366701
Si Si7 0.621609 0.656285 0.929993
Si Si8 0.148273 0.670341 0.095331
O O1 0.382409 0.621943 0.770727
O O2 0.269013 0.815891 0.816422
O O3 0.361080 0.795408 0.841036
O O4 0.513850 0.805945 0.663436
O O5 0.000000 0.018552 0.250000
O O6 0.834202 0.093587 0.292821
O O7 0.774280 0.997652 0.417774
O O8 0.555890 0.740990 0.335349
O O9 0.683494 0.597727 0.294571
O O10 0.803477 0.752479 0.154547
O O11 0.633410 0.385319 0.567808
O O12 0.655937 0.164298 0.540727
O O13 0.637292 0.304987 0.476493
O O14 0.186900 0.461361 0.564238
O O15 0.527492 0.645898 0.474556
O O16 0.673188 0.471181 0.383721
O O17 0.250000 0.750000 0.000000
#
# Coordination Sequence:
#
# PCOD9288077 Si02
#       8
#     8   8   8   8   8   8   8   8
#     4  11  24  42  63  95 128 170 219 260 322 390
#     4  12  21  42  65  94 128 166 218 265 330 385
#     4  11  24  40  67  92 125 171 214 268 316 383
#     4  10  22  38  63  91 127 163 209 256 322 383
#     4  11  21  38  60  95 126 165 201 266 326 373
#     4  10  25  44  65  92 127 175 216 267 318 381
#     4  10  22  46  63  91 126 169 221 260 318 382
#     4  11  22  39  62  95 130 163 208 263 322 388
#
# _framework density 18.887858999999999
#
# number of rings (size 3 to 8) (size 9 to 14) (size 15 to 20)
#    0.000    1.250    5.000    0.750    3.500    1.000 
#    0.000    0.625    0.000    0.000    0.000    0.000 
#    0.000    0.000    0.000    0.000    0.000    0.000 
#
# Total GULP energy -178596.446414 kJ/mol
# GULP energy per Si atom -5581.138950 kJ/mol
# Density = 1.884487 g / cm^3
# Si number density = 18.887859 Si / 1000 Ang^3
#
#
#
# Elastic Constant Matrix: (Units=GPa)
#
#
# Indices 1 2 3 4 5 6 
#
# 1 53.7035 16.6520 18.5988 -0.0001 -6.4350 0.0000
# 2 16.6520 99.4104 35.5379 0.0003 -8.9668 0.0000
# 3 18.5988 35.5379 92.7169 0.0006 1.4481 0.0000
# 4 -0.0001 0.0003 0.0006 18.7480 0.0000 -2.3346
# 5 -6.4350 -8.9668 1.4481 0.0000 22.0214 0.0000
# 6 0.0000 0.0000 0.0000 -2.3346 0.0000 25.5227
#
#
#
# Elastic Compliance Matrix: (Units=1/GPa)
#
#
# Indices 1 2 3 4 5 6 
#
# 1 0.021105 -0.001709 -0.003668 0.000000 0.005713 0.000000
# 2 -0.001709 0.012383 -0.004479 0.000000 0.004837 0.000000
# 3 -0.003668 -0.004479 0.013297 0.000000 -0.003770 0.000000
# 4 0.000000 0.000000 0.000000 0.053954 0.000000 0.004935
# 5 0.005713 0.004837 -0.003770 0.000000 0.049297 0.000000
# 6 0.000000 0.000000 0.000000 0.004935 0.000000 0.039632
#
#
# Mechanical properties :
#
#
# Convention : Reuss Voigt Hill
#
# Bulk Modulus (GPa) = 36.93612 43.04536 39.99074
# Shear Modulus (GPa) = 22.89322 24.92789 23.91055
#
# Velocity S-wave (km/s) = 3.48524 3.63682 3.56184
# Velocity P-wave (km/s) = 5.98279 6.36198 6.17530
#
# Compressibility (1/GPa) = 0.02707377
#
# Stress axis : x y z
#
# Youngs Moduli (GPa) = 47.38112 80.75516 75.20478
#
# Poissons Ratio (x) = 0.13799 0.27585
# Poissons Ratio (y) = 0.08096 0.33685
# Poissons Ratio (z) = 0.17379 0.36171
#
# Static dielectric constant tensor:
#      x y z
#    x 1.665760 0.000000 -0.009660 
#    y 0.000000 1.645960 0.000000 
#    z -0.009660 0.000000 1.660320 
# 
# From -- ./inp_files/300827.got.cif
#   From: 2010.05.17/outbox.cif.g08.bks.cpg/sg15_151_cif.got.tgz:300827.got - 2010.06.03 18:47:42.
