data_PCOD9288078
_publ_section_title
;
Structure prediction by ZEFSAII (Michael W. Deem and Ramdas Pophale) SiO2 
 PCOD9288078
Probable space group: C 2/C
;
_chemical_formula_sum "Si O2"
_cell_formula_units_Z 40
_cell_length_a 8.073628
_cell_length_b 12.924283
_cell_length_c 15.379828
_cell_angle_alpha 90.000000
_cell_angle_beta 74.785852
_cell_angle_gamma 90.000000
_cell_volume 1548.575053
_symmetry_space_group_name_H-M "C 2/C"
_symmetry_group_IT_number 15
_symmetry_cell_setting 'monoclinic'
loop_
_space_group_symop_operation_xyz
x,y,z
-x,y,1/2-z
-x,-y,-z
x,-y,1/2+z
1/2+x,1/2+y,z
1/2-x,1/2+y,1/2-z
1/2-x,1/2-y,-z
1/2+x,1/2-y,1/2+z
loop_
_atom_site_type_symbol
_atom_site_label
_atom_site_fract_x
_atom_site_fract_y
_atom_site_fract_z
Si Si1 0.411801 0.675434 0.481350
Si Si2 0.358470 0.285379 0.706121
Si Si3 0.709890 0.940205 0.269277
Si Si4 0.155593 0.064100 0.560690
Si Si5 0.865018 0.428919 0.861417
O O1 0.250000 0.750000 0.500000
O O2 0.541696 0.728901 0.397135
O O3 0.515425 0.650614 0.554256
O O4 0.376376 0.558005 0.453992
O O5 0.500000 0.341267 0.750000
O O6 0.326697 0.176104 0.754291
O O7 0.179716 0.332260 0.695154
O O8 0.817013 0.930430 0.341110
O O9 0.768180 0.995808 0.172926
O O10 0.544253 0.009060 0.326816
O O11 0.309660 0.086399 0.468575
#
# Coordination Sequence:
#
# PCOD9288078 Si02
#       5
#     8   8   8   8   8
#     4  10  22  38  63  91 127 174 221 276 343 407
#     4  11  22  40  65  90 132 177 221 281 344 408
#     4  11  22  41  65  94 132 174 227 286 343 409
#     4  10  22  40  62  94 132 171 224 284 338 410
#     4  10  22  39  65  93 132 177 221 283 346 404
#
# _framework density 25.830197999999999
#
# number of rings (size 3 to 8) (size 9 to 14) (size 15 to 20)
#    0.000    1.600    2.000    3.000    0.000    4.800 
#    0.000    0.000    4.400    0.000    0.000    0.000 
#    0.000    0.000    0.000    0.000    0.000    0.000 
#
# Total GULP energy -111453.319521 kJ/mol
# GULP energy per Si atom -5572.665976 kJ/mol
# Density = 2.577141 g / cm^3
# Si number density = 25.830198 Si / 1000 Ang^3
#
#
#
# Elastic Constant Matrix: (Units=GPa)
#
#
# Indices 1 2 3 4 5 6 
#
# 1 93.6746 28.7342 25.7935 0.0000 -3.1732 0.0000
# 2 28.7342 94.9442 -6.0061 0.0000 -5.4679 0.0000
# 3 25.7935 -6.0061 104.7731 0.0000 24.9699 0.0000
# 4 0.0000 0.0000 0.0000 27.7608 0.0000 5.4368
# 5 -3.1732 -5.4679 24.9699 0.0000 59.3161 0.0000
# 6 0.0000 0.0000 0.0000 5.4368 0.0000 45.5394
#
#
#
# Elastic Compliance Matrix: (Units=1/GPa)
#
#
# Indices 1 2 3 4 5 6 
#
# 1 0.013078 -0.004093 -0.003925 0.000000 0.001975 0.000000
# 2 -0.004093 0.011886 0.001645 0.000000 0.000184 0.000000
# 3 -0.003925 0.001645 0.011803 0.000000 -0.005027 0.000000
# 4 0.000000 0.000000 0.000000 0.036884 0.000000 -0.004404
# 5 0.001975 0.000184 -0.005027 0.000000 0.019098 0.000000
# 6 0.000000 0.000000 0.000000 -0.004404 0.000000 0.022485
#
#
# Mechanical properties :
#
#
# Convention : Reuss Voigt Hill
#
# Bulk Modulus (GPa) = 41.62843 43.38168 42.50505
# Shear Modulus (GPa) = 36.76844 42.84794 39.80819
#
# Velocity S-wave (km/s) = 3.77698 4.07729 3.93001
# Velocity P-wave (km/s) = 5.93059 6.24477 6.08971
#
# Compressibility (1/GPa) = 0.02402205
#
# Stress axis : x y z
#
# Youngs Moduli (GPa) = 76.46279 84.13415 84.72414
#
# Poissons Ratio (x) = 0.34433 0.33253
# Poissons Ratio (y) = 0.31293 -0.13937
# Poissons Ratio (z) = 0.30011 -0.13840
#
# Static dielectric constant tensor:
#      x y z
#    x 2.254570 0.000000 0.037360 
#    y 0.000000 2.120340 0.000000 
#    z 0.037360 0.000000 2.068350 
# 
# From -- ./inp_files/187895.got.cif
#   From: 2010.05.17/outbox.cif.g08.bks.cpg/sg15_94_cif.got.tgz:187895.got - 2010.06.03 18:47:42.
