data_PCOD9288117
_publ_section_title
;
Structure prediction by ZEFSAII (Michael W. Deem and Ramdas Pophale) SiO2 
 PCOD9288117
Probable space group: C 2/C
;
_chemical_formula_sum "Si O2"
_cell_formula_units_Z 52
_cell_length_a 11.876624
_cell_length_b 8.691962
_cell_length_c 19.307566
_cell_angle_alpha 90.000000
_cell_angle_beta 102.237569
_cell_angle_gamma 90.000000
_cell_volume 1947.852579
_symmetry_space_group_name_H-M "C 2/C"
_symmetry_group_IT_number 15
_symmetry_cell_setting 'monoclinic'
loop_
_space_group_symop_operation_xyz
x,y,z
-x,y,1/2-z
-x,-y,-z
x,-y,1/2+z
1/2+x,1/2+y,z
1/2-x,1/2+y,1/2-z
1/2-x,1/2-y,-z
1/2+x,1/2-y,1/2+z
loop_
_atom_site_type_symbol
_atom_site_label
_atom_site_fract_x
_atom_site_fract_y
_atom_site_fract_z
Si Si1 0.440347 0.992743 0.668621
Si Si2 0.605523 0.859501 0.573801
Si Si3 0.250638 0.091253 0.957843
Si Si4 0.488741 0.563098 0.900854
Si Si5 0.297632 0.691801 0.345981
Si Si6 0.000000 0.072963 0.750000
Si Si7 0.169139 0.800842 0.806611
O O1 0.500000 0.953656 0.750000
O O2 0.414179 0.174987 0.670258
O O3 0.516373 0.946025 0.612831
O O4 0.317243 0.906594 0.653309
O O5 0.551316 0.693338 0.550607
O O6 0.720003 0.820055 0.632342
O O7 0.655087 0.959674 0.516344
O O8 0.291478 0.155434 0.889478
O O9 0.120948 0.029377 0.936024
O O10 0.250000 0.250000 0.000000
O O11 0.404231 0.418270 0.881441
O O12 0.480510 0.645202 0.822902
O O13 0.298130 0.746652 0.266902
O O14 0.104476 0.959644 0.782878
#
# Coordination Sequence:
#
# PCOD9288117 Si02
#       7
#     8   8   8   8   8   4   8
#     4  12  22  37  66 106 143 173 217 278 354 417
#     4  12  25  41  71  99 139 176 227 286 345 403
#     4  12  29  50  69  96 138 192 238 280 339 410
#     4  11  25  44  69 103 135 176 228 286 343 405
#     4  11  25  43  68 103 140 181 227 284 340 413
#     4  10  22  38  64 102 152 164 216 278 350 416
#     4  11  22  38  66 107 142 175 214 277 357 412
#
# _framework density 26.696066999999999
#
# number of rings (size 3 to 8) (size 9 to 14) (size 15 to 20)
#    0.000    0.615    6.923    0.923    5.385    1.231 
#    0.000    0.769    0.000    0.000    0.000    0.000 
#    0.000    0.000    0.000    0.000    0.000    0.000 
#
# Total GULP energy -145785.288345 kJ/mol
# GULP energy per Si atom -5607.126475 kJ/mol
# Density = 2.663531 g / cm^3
# Si number density = 26.696067 Si / 1000 Ang^3
#
#
#
# Elastic Constant Matrix: (Units=GPa)
#
#
# Indices 1 2 3 4 5 6 
#
# 1 166.7272 52.7027 21.2828 0.0000 17.1508 0.0000
# 2 52.7027 92.1402 9.0665 0.0000 -8.5648 0.0000
# 3 21.2828 9.0665 57.5988 0.0000 11.3092 0.0000
# 4 0.0000 0.0000 0.0000 30.4110 0.0000 -9.1701
# 5 17.1508 -8.5648 11.3092 0.0000 24.0856 0.0000
# 6 0.0000 0.0000 0.0000 -9.1701 0.0000 54.9410
#
#
#
# Elastic Compliance Matrix: (Units=1/GPa)
#
#
# Indices 1 2 3 4 5 6 
#
# 1 0.008674 -0.005609 -0.000791 0.000000 -0.007800 0.000000
# 2 -0.005609 0.015279 -0.002405 0.000000 0.010556 0.000000
# 3 -0.000791 -0.002405 0.019927 0.000000 -0.009649 0.000000
# 4 0.000000 0.000000 0.000000 0.034626 0.000000 0.005779
# 5 -0.007800 0.010556 -0.009649 0.000000 0.055357 0.000000
# 6 0.000000 0.000000 0.000000 0.005779 0.000000 0.019166
#
#
# Mechanical properties :
#
#
# Convention : Reuss Voigt Hill
#
# Bulk Modulus (GPa) = 38.06580 53.61891 45.84236
# Shear Modulus (GPa) = 27.87162 37.44848 32.66005
#
# Velocity S-wave (km/s) = 3.23466 3.74942 3.50151
# Velocity P-wave (km/s) = 5.31419 6.23480 5.79281
#
# Compressibility (1/GPa) = 0.02627030
#
# Stress axis : x y z
#
# Youngs Moduli (GPa) = 115.28768 65.44959 50.18384
#
# Poissons Ratio (x) = 0.36708 0.03969
# Poissons Ratio (y) = 0.64660 0.12071
# Poissons Ratio (z) = 0.09117 0.15743
#
# Static dielectric constant tensor:
#      x y z
#    x 2.098710 0.000000 -0.088290 
#    y 0.000000 2.138190 0.000000 
#    z -0.088290 0.000000 2.155960 
# 
# From -- ./inp_files/291217.got.cif
#   From: 2010.05.17/outbox.cif.g08.bks.cpg/sg15_146_cif.got.tgz:291217.got - 2010.06.03 18:47:42.
