data_PCOD9288484
_publ_section_title
;
Structure prediction by ZEFSAII (Michael W. Deem and Ramdas Pophale) SiO2 
 PCOD9288484
Probable space group: C 2/C
;
_chemical_formula_sum "Si O2"
_cell_formula_units_Z 56
_cell_length_a 20.319294
_cell_length_b 18.599118
_cell_length_c 20.679360
_cell_angle_alpha 90.000000
_cell_angle_beta 21.155423
_cell_angle_gamma 90.000000
_cell_volume 2820.485393
_symmetry_space_group_name_H-M "C 2/C"
_symmetry_group_IT_number 15
_symmetry_cell_setting 'monoclinic'
loop_
_space_group_symop_operation_xyz
x,y,z
-x,y,1/2-z
-x,-y,-z
x,-y,1/2+z
1/2+x,1/2+y,z
1/2-x,1/2+y,1/2-z
1/2-x,1/2-y,-z
1/2+x,1/2-y,1/2+z
loop_
_atom_site_type_symbol
_atom_site_label
_atom_site_fract_x
_atom_site_fract_y
_atom_site_fract_z
Si Si1 0.379955 0.969435 0.169726
Si Si2 0.923883 0.967382 0.890334
Si Si3 0.205175 0.333890 0.038244
Si Si4 0.288152 0.344177 0.247421
Si Si5 0.775391 0.403541 0.616283
Si Si6 0.659604 0.584702 0.442242
Si Si7 0.884780 0.319629 0.648224
O O1 0.277008 0.895069 0.251155
O O2 0.227652 0.026311 0.327377
O O3 0.547168 0.952037 0.063733
O O4 0.500000 0.000000 0.000000
O O5 0.000000 0.985751 0.750000
O O6 0.092453 0.950863 0.784409
O O7 0.818729 0.891996 0.976356
O O8 0.815520 0.036162 0.016731
O O9 0.000000 0.343069 0.250000
O O10 0.250000 0.250000 0.000000
O O11 0.241494 0.352900 0.930115
O O12 0.352665 0.265030 0.168662
O O13 0.099311 0.335707 0.459393
O O14 0.454011 0.386263 0.128363
O O15 0.813574 0.360068 0.647881
O O16 0.781541 0.651862 0.306650
#
# Coordination Sequence:
#
# PCOD9288484 Si02
#       7
#     8   8   8   8   8   8   8
#     4  11  21  36  59  95 127 162 208 258 323 387
#     4  10  24  41  63  92 121 166 219 263 316 378
#     4  11  23  43  60  87 124 176 217 255 309 368
#     4  11  23  39  59  93 136 165 213 254 331 403
#     4  10  22  39  60  88 130 155 213 265 300 385
#     4  12  23  39  66  89 130 166 210 270 326 378
#     4  11  24  39  60  98 126 169 207 263 335 387
#
# _framework density 19.854738999999999
#
# number of rings (size 3 to 8) (size 9 to 14) (size 15 to 20)
#    0.000    1.143    4.286    3.429    2.000    5.714 
#    0.000    0.000    0.000    0.857    0.000    0.000 
#    0.000    0.000    0.000    0.000    0.000    0.000 
#
# Total GULP energy -156001.493854 kJ/mol
# GULP energy per Si atom -5571.481923 kJ/mol
# Density = 1.980955 g / cm^3
# Si number density = 19.854739 Si / 1000 Ang^3
#
#
#
# Elastic Constant Matrix: (Units=GPa)
#
#
# Indices 1 2 3 4 5 6 
#
# 1 42.4126 36.3994 27.2881 0.0060 -2.0110 0.0033
# 2 36.3994 134.6860 37.1645 0.0163 -4.2090 -0.0108
# 3 27.2881 37.1645 107.5635 0.0365 -7.7732 -0.0252
# 4 0.0060 0.0163 0.0365 36.4312 -0.0154 1.2684
# 5 -2.0110 -4.2090 -7.7732 -0.0154 27.3290 0.0049
# 6 0.0033 -0.0108 -0.0252 1.2684 0.0049 29.1121
#
#
#
# Elastic Compliance Matrix: (Units=1/GPa)
#
#
# Indices 1 2 3 4 5 6 
#
# 1 0.033880 -0.007504 -0.006030 0.000004 -0.000378 -0.000012
# 2 -0.007504 0.009875 -0.001468 -0.000002 0.000551 0.000003
# 3 -0.006030 -0.001468 0.011522 -0.000009 0.002607 0.000010
# 4 0.000004 -0.000002 -0.000009 0.027491 0.000013 -0.001198
# 5 -0.000378 0.000551 0.002607 0.000013 0.037390 -0.000004
# 6 -0.000012 0.000003 0.000010 -0.001198 -0.000004 0.034402
#
#
# Mechanical properties :
#
#
# Convention : Reuss Voigt Hill
#
# Bulk Modulus (GPa) = 39.56820 54.04068 46.80444
# Shear Modulus (GPa) = 25.90830 30.82845 28.36838
#
# Velocity S-wave (km/s) = 3.61625 3.94471 3.78404
# Velocity P-wave (km/s) = 6.11624 6.92999 6.53579
#
# Compressibility (1/GPa) = 0.02527282
#
# Stress axis : x y z
#
# Youngs Moduli (GPa) = 29.51625 101.26477 86.78838
#
# Poissons Ratio (x) = 0.75991 0.52330
# Poissons Ratio (y) = 0.22149 0.12744
# Poissons Ratio (z) = 0.17797 0.14870
#
# Static dielectric constant tensor:
#      x y z
#    x 1.353180 -0.000590 -0.157320 
#    y -0.000590 1.776440 -0.000190 
#    z -0.157320 -0.000190 1.703080 
# 
# From -- ./inp_files/253323.got.cif
#   From: 2010.05.17/outbox.cif.g08.bks.cpg/sg15_127_cif.got.tgz:253323.got - 2010.06.03 18:47:42.
