data_PCOD9288835
_publ_section_title
;
Structure prediction by ZEFSAII (Michael W. Deem and Ramdas Pophale) SiO2 
 PCOD9288835
Probable space group: C 2/C
;
_chemical_formula_sum "Si O2"
_cell_formula_units_Z 40
_cell_length_a 9.585470
_cell_length_b 16.756229
_cell_length_c 24.870604
_cell_angle_alpha 90.000000
_cell_angle_beta 153.045610
_cell_angle_gamma 90.000000
_cell_volume 1810.687982
_symmetry_space_group_name_H-M "C 2/C"
_symmetry_group_IT_number 15
_symmetry_cell_setting 'monoclinic'
loop_
_space_group_symop_operation_xyz
x,y,z
-x,y,1/2-z
-x,-y,-z
x,-y,1/2+z
1/2+x,1/2+y,z
1/2-x,1/2+y,1/2-z
1/2-x,1/2-y,-z
1/2+x,1/2-y,1/2+z
loop_
_atom_site_type_symbol
_atom_site_label
_atom_site_fract_x
_atom_site_fract_y
_atom_site_fract_z
Si Si1 0.824820 0.544984 0.104359
Si Si2 0.145587 0.927957 0.242965
Si Si3 0.658900 0.342875 0.454503
Si Si4 0.500000 0.791550 0.250000
Si Si5 0.000000 0.335644 0.750000
Si Si6 0.499455 0.768052 0.130845
O O1 0.804533 0.608365 0.145068
O O2 0.147559 0.495557 0.215830
O O3 0.500000 0.500000 0.000000
O O4 0.834340 0.596080 0.052737
O O5 0.404185 0.859931 0.340600
O O6 0.000000 0.954013 0.250000
O O7 0.872610 0.881941 0.115754
O O8 0.750000 0.250000 0.500000
O O9 0.299384 0.344623 0.346158
O O10 0.435806 0.747286 0.171513
O O11 0.201284 0.281258 0.781272
O O12 0.250000 0.750000 0.000000
#
# Coordination Sequence:
#
# PCOD9288835 Si02
#       6
#     8   8   8   4   4   8
#     4  12  24  44  71  99 138 191 231 293 364 423
#     4  11  25  44  67 104 151 181 242 302 357 439
#     4  11  24  45  68 103 143 185 236 292 362 428
#     4  10  22  39  66 105 136 178 234 298 348 433
#     4  12  24  45  68 103 136 178 250 284 344 447
#     4  11  23  42  71 102 139 185 237 297 357 427
#
# _framework density 22.091049999999999
#
# number of rings (size 3 to 8) (size 9 to 14) (size 15 to 20)
#    0.000    0.800    1.000    8.400    2.800    1.600 
#    7.200    0.000    0.000    0.000    0.000    0.000 
#    0.000    0.000    0.000    0.000    0.000    0.000 
#
# Total GULP energy -111509.315496 kJ/mol
# GULP energy per Si atom -5575.465775 kJ/mol
# Density = 2.204077 g / cm^3
# Si number density = 22.091050 Si / 1000 Ang^3
#
#
#
# Elastic Constant Matrix: (Units=GPa)
#
#
# Indices 1 2 3 4 5 6 
#
# 1 115.3317 6.8649 2.6762 -0.0073 -17.7448 -0.0055
# 2 6.8649 67.5142 6.2706 -0.0049 -2.3290 -0.0038
# 3 2.6762 6.2706 63.3623 -0.0218 -22.1869 -0.0153
# 4 -0.0073 -0.0049 -0.0218 -22.9688 -0.0048 -66.4553
# 5 -17.7448 -2.3290 -22.1869 -0.0048 41.3353 -0.0080
# 6 -0.0055 -0.0038 -0.0153 -66.4553 -0.0080 -39.8004
#
#
#
# Elastic Compliance Matrix: (Units=1/GPa)
#
#
# Indices 1 2 3 4 5 6 
#
# 1 0.009419 -0.000920 0.001343 -0.000001 0.004713 -0.000002
# 2 -0.000920 0.015039 -0.001590 0.000000 -0.000401 0.000000
# 3 0.001343 -0.001590 0.019769 -0.000002 0.011098 -0.000007
# 4 -0.000001 0.000000 -0.000002 0.011365 -0.000004 -0.018976
# 5 0.004713 -0.000401 0.011098 -0.000004 0.032150 -0.000005
# 6 -0.000002 0.000000 -0.000007 -0.018976 -0.000005 0.006559
#
#
# Mechanical properties :
#
#
# Convention : Reuss Voigt Hill
#
# Bulk Modulus (GPa) = 23.86935 30.87018 27.36976
# Shear Modulus (GPa) = 45.20867 11.07299 28.14083
#
# Velocity S-wave (km/s) = 4.52870 2.24127 3.57298
# Velocity P-wave (km/s) = 6.17851 4.54996 5.42568
#
# Compressibility (1/GPa) = 0.04189474
#
# Stress axis : x y z
#
# Youngs Moduli (GPa) = 106.16442 66.49346 50.58421
#
# Poissons Ratio (x) = 0.06117 -0.06796
# Poissons Ratio (y) = 0.09767 0.08042
# Poissons Ratio (z) = -0.14263 0.10572
#
# Static dielectric constant tensor:
#      x y z
#    x 2.226630 0.000080 -0.224250 
#    y 0.000080 1.710910 -0.000040 
#    z -0.224250 -0.000040 1.747760 
# 
# From -- ./inp_files/265673.got.cif
#   From: 2010.05.17/outbox.cif.g08.bks.cpg/sg15_133_cif.got.tgz:265673.got - 2010.06.03 18:47:42.
