data_PCOD9288367
_publ_section_title
;
Structure prediction by ZEFSAII (Michael W. Deem and Ramdas Pophale) SiO2 
 PCOD9288367
Probable space group: C 2/C
;
_chemical_formula_sum "Si O2"
_cell_formula_units_Z 52
_cell_length_a 18.720159
_cell_length_b 5.156127
_cell_length_c 27.786173
_cell_angle_alpha 90.000000
_cell_angle_beta 123.686818
_cell_angle_gamma 90.000000
_cell_volume 2231.659195
_symmetry_space_group_name_H-M "C 2/C"
_symmetry_group_IT_number 15
_symmetry_cell_setting 'monoclinic'
loop_
_space_group_symop_operation_xyz
x,y,z
-x,y,1/2-z
-x,-y,-z
x,-y,1/2+z
1/2+x,1/2+y,z
1/2-x,1/2+y,1/2-z
1/2-x,1/2-y,-z
1/2+x,1/2-y,1/2+z
loop_
_atom_site_type_symbol
_atom_site_label
_atom_site_fract_x
_atom_site_fract_y
_atom_site_fract_z
Si Si1 0.500000 0.412675 0.750000
Si Si2 0.174753 0.069855 0.450329
Si Si3 0.436960 0.070933 0.655788
Si Si4 0.324738 0.691274 0.651525
Si Si5 0.722303 0.882224 0.210587
Si Si6 0.540122 0.109151 0.117081
Si Si7 0.482361 0.582983 0.047527
O O1 0.414602 0.562005 0.703339
O O2 0.512452 0.216594 0.710730
O O3 0.250000 0.250000 0.500000
O O4 0.105413 0.246965 0.398474
O O5 0.113579 0.980654 0.471860
O O6 0.201714 0.891459 0.413778
O O7 0.358021 0.985570 0.659293
O O8 0.477706 0.845693 0.639669
O O9 0.259116 0.647383 0.669872
O O10 0.770371 0.109847 0.258523
O O11 0.626692 0.987129 0.168576
O O12 0.549188 0.394735 0.099690
O O13 0.500568 0.887330 0.066246
O O14 0.500000 0.500000 0.000000
#
# Coordination Sequence:
#
# PCOD9288367 Si02
#       7
#     4   8   8   8   8   8   8
#     4  10  22  38  70  96 130 174 232 286 338 416
#     4  10  24  43  67 101 138 176 237 293 347 418
#     4  10  22  41  67  95 130 177 230 280 347 412
#     4  11  24  42  68 102 132 185 232 288 356 420
#     4  12  29  45  69 104 146 184 232 293 370 418
#     4  11  24  46  66  98 137 180 232 287 344 432
#     4  11  24  45  71  98 134 188 233 284 358 413
#
# _framework density 23.301048000000002
#
# number of rings (size 3 to 8) (size 9 to 14) (size 15 to 20)
#    0.000    1.231    1.538    2.769   10.769    1.846 
#    0.000    0.000    0.000    0.000    0.000    0.000 
#    0.000    0.000    0.000    0.000    0.000    0.000 
#
# Total GULP energy -144848.646932 kJ/mol
# GULP energy per Si atom -5571.101805 kJ/mol
# Density = 2.324801 g / cm^3
# Si number density = 23.301048 Si / 1000 Ang^3
#
#
#
# Elastic Constant Matrix: (Units=GPa)
#
#
# Indices 1 2 3 4 5 6 
#
# 1 115.5497 5.0446 22.3953 0.0001 -31.1631 0.0003
# 2 5.0446 67.2171 3.2798 -0.0008 -14.8179 0.0012
# 3 22.3953 3.2798 69.1462 0.0005 -11.7217 0.0004
# 4 0.0001 -0.0008 0.0005 17.0055 0.0002 -6.1201
# 5 -31.1631 -14.8179 -11.7217 0.0002 24.6599 -0.0001
# 6 0.0003 0.0012 0.0004 -6.1201 -0.0001 24.8494
#
#
#
# Elastic Compliance Matrix: (Units=1/GPa)
#
#
# Indices 1 2 3 4 5 6 
#
# 1 0.013841 0.003153 -0.001464 0.000000 0.018689 0.000000
# 2 0.003153 0.017933 0.000686 0.000000 0.015086 -0.000001
# 3 -0.001464 0.000686 0.015945 -0.000001 0.006141 0.000000
# 4 0.000000 0.000000 -0.000001 0.064524 -0.000001 0.015892
# 5 0.018689 0.015086 0.006141 -0.000001 0.076154 -0.000001
# 6 0.000000 -0.000001 0.000000 0.015892 -0.000001 0.044156
#
#
# Mechanical properties :
#
#
# Convention : Reuss Voigt Hill
#
# Bulk Modulus (GPa) = 19.05967 34.81693 26.93830
# Shear Modulus (GPa) = 20.38382 28.04918 24.21650
#
# Velocity S-wave (km/s) = 2.96091 3.47331 3.22730
# Velocity P-wave (km/s) = 4.45947 5.57313 5.04711
#
# Compressibility (1/GPa) = 0.05246681
#
# Stress axis : x y z
#
# Youngs Moduli (GPa) = 72.24989 55.76407 62.71639
#
# Poissons Ratio (x) = -0.17581 0.09182
# Poissons Ratio (y) = -0.22779 -0.04300
# Poissons Ratio (z) = 0.10578 -0.03823
#
# Static dielectric constant tensor:
#      x y z
#    x 1.987640 0.000000 -0.191550 
#    y 0.000000 1.904830 -0.000010 
#    z -0.191550 -0.000010 2.185980 
# 
# From -- ./inp_files/297834.got.cif
#   From: 2010.05.17/outbox.cif.g08.bks.cpg/sg15_149_cif.got.tgz:297834.got - 2010.06.03 18:47:42.
