data_PCOD9288055
_publ_section_title
;
Structure prediction by ZEFSAII (Michael W. Deem and Ramdas Pophale) SiO2 
 PCOD9288055
Probable space group: C 2/C
;
_chemical_formula_sum "Si O2"
_cell_formula_units_Z 40
_cell_length_a 13.512718
_cell_length_b 11.942962
_cell_length_c 11.306320
_cell_angle_alpha 90.000000
_cell_angle_beta 60.520729
_cell_angle_gamma 90.000000
_cell_volume 1588.406557
_symmetry_space_group_name_H-M "C 2/C"
_symmetry_group_IT_number 15
_symmetry_cell_setting 'monoclinic'
loop_
_space_group_symop_operation_xyz
x,y,z
-x,y,1/2-z
-x,-y,-z
x,-y,1/2+z
1/2+x,1/2+y,z
1/2-x,1/2+y,1/2-z
1/2-x,1/2-y,-z
1/2+x,1/2-y,1/2+z
loop_
_atom_site_type_symbol
_atom_site_label
_atom_site_fract_x
_atom_site_fract_y
_atom_site_fract_z
Si Si1 0.581371 0.816934 0.920717
Si Si2 0.402114 0.577742 0.713567
Si Si3 0.728943 0.419757 0.858449
Si Si4 0.627862 0.880571 0.152269
Si Si5 0.331330 0.177904 0.608358
O O1 0.575338 0.692446 0.870871
O O2 0.668899 0.888614 0.792356
O O3 0.622435 0.815361 0.032324
O O4 0.452715 0.864648 0.992155
O O5 0.500000 0.558568 0.750000
O O6 0.379450 0.472917 0.642721
O O7 0.278041 0.601205 0.843347
O O8 0.782769 0.518691 0.903656
O O9 0.692674 0.300312 0.929209
O O10 0.500000 0.924259 0.250000
O O11 0.656749 0.811277 0.254686
#
# Coordination Sequence:
#
# PCOD9288055 Si02
#       5
#     8   8   8   8   8
#     4  10  22  42  65  86 123 162 197 255 306 348
#     4  10  23  39  58  91 127 158 200 248 300 360
#     4  10  22  38  62  95 121 154 208 252 293 358
#     4   9  20  39  63  89 116 157 207 243 292 363
#     4   9  21  40  62  90 123 161 202 243 298 363
#
# _framework density 25.182469000000001
#
# number of rings (size 3 to 8) (size 9 to 14) (size 15 to 20)
#    0.000    2.400    0.000    0.000    0.000   23.200 
#    0.000    0.000    0.000    0.000    0.000    0.000 
#    0.000    0.000    0.000    0.000    0.000    0.000 
#
# Total GULP energy -112029.437246 kJ/mol
# GULP energy per Si atom -5601.471862 kJ/mol
# Density = 2.512515 g / cm^3
# Si number density = 25.182469 Si / 1000 Ang^3
#
#
#
# Elastic Constant Matrix: (Units=GPa)
#
#
# Indices 1 2 3 4 5 6 
#
# 1 185.5532 37.1359 41.5311 0.0000 1.0020 0.0000
# 2 37.1359 87.6936 10.1940 0.0000 14.6606 0.0000
# 3 41.5311 10.1940 93.5058 0.0000 0.3075 0.0000
# 4 0.0000 0.0000 0.0000 28.1942 0.0000 4.1989
# 5 1.0020 14.6606 0.3075 0.0000 46.1402 0.0000
# 6 0.0000 0.0000 0.0000 4.1989 0.0000 30.0186
#
#
#
# Elastic Compliance Matrix: (Units=1/GPa)
#
#
# Indices 1 2 3 4 5 6 
#
# 1 0.006480 -0.002557 -0.002601 0.000000 0.000689 0.000000
# 2 -0.002557 0.013212 -0.000291 0.000000 -0.004141 0.000000
# 3 -0.002601 -0.000291 0.011881 0.000000 0.000070 0.000000
# 4 0.000000 0.000000 0.000000 0.036223 0.000000 -0.005067
# 5 0.000689 -0.004141 0.000070 0.000000 0.022973 0.000000
# 6 0.000000 0.000000 0.000000 -0.005067 0.000000 0.034021
#
#
# Mechanical properties :
#
#
# Convention : Reuss Voigt Hill
#
# Bulk Modulus (GPa) = 48.36890 60.49717 54.43303
# Shear Modulus (GPa) = 35.06783 39.39671 37.23227
#
# Velocity S-wave (km/s) = 3.73574 3.95960 3.84930
# Velocity P-wave (km/s) = 6.15278 6.70673 6.43572
#
# Compressibility (1/GPa) = 0.02067444
#
# Stress axis : x y z
#
# Youngs Moduli (GPa) = 154.33254 75.68825 84.16456
#
# Poissons Ratio (x) = 0.19351 0.21895
# Poissons Ratio (y) = 0.39458 0.02451
# Poissons Ratio (z) = 0.40149 0.02204
#
# Static dielectric constant tensor:
#      x y z
#    x 1.982670 0.000000 0.019700 
#    y 0.000000 1.931060 0.000000 
#    z 0.019700 0.000000 2.054760 
# 
# From -- ./inp_files/94870.got.cif
#   From: 2010.05.17/outbox.cif.g08.bks.cpg/sg15_48_cif.got.tgz:94870.got - 2010.06.03 18:47:42.
