data_PCOD9288070
_publ_section_title
;
Structure prediction by ZEFSAII (Michael W. Deem and Ramdas Pophale) SiO2 
 PCOD9288070
Probable space group: C 2/C
;
_chemical_formula_sum "Si O2"
_cell_formula_units_Z 64
_cell_length_a 16.233690
_cell_length_b 14.691053
_cell_length_c 17.549759
_cell_angle_alpha 90.000000
_cell_angle_beta 46.862380
_cell_angle_gamma 90.000000
_cell_volume 3054.173494
_symmetry_space_group_name_H-M "C 2/C"
_symmetry_group_IT_number 15
_symmetry_cell_setting 'monoclinic'
loop_
_space_group_symop_operation_xyz
x,y,z
-x,y,1/2-z
-x,-y,-z
x,-y,1/2+z
1/2+x,1/2+y,z
1/2-x,1/2+y,1/2-z
1/2-x,1/2-y,-z
1/2+x,1/2-y,1/2+z
loop_
_atom_site_type_symbol
_atom_site_label
_atom_site_fract_x
_atom_site_fract_y
_atom_site_fract_z
Si Si1 0.968014 0.007635 0.610712
Si Si2 0.264931 0.105849 0.745897
Si Si3 0.622366 0.865399 0.602253
Si Si4 0.928162 0.281080 0.067476
Si Si5 0.396981 0.059710 0.216132
Si Si6 0.378293 0.328149 0.448220
Si Si7 0.317025 0.801706 0.643126
Si Si8 0.425831 0.326212 0.725072
O O1 0.839824 0.039927 0.699962
O O2 0.043803 0.084669 0.601355
O O3 0.977188 0.915333 0.652379
O O4 0.000000 0.000000 0.500000
O O5 0.336186 0.138551 0.627743
O O6 0.208080 0.196442 0.818427
O O7 0.353451 0.043124 0.736214
O O8 0.620708 0.906084 0.687299
O O9 0.530280 0.924434 0.614549
O O10 0.580777 0.760578 0.623605
O O11 0.753944 0.856163 0.498928
O O12 0.885291 0.209323 0.031337
O O13 0.924216 0.243653 0.155785
O O14 0.058227 0.304824 0.970887
O O15 0.327145 0.129536 0.207834
O O16 0.206128 0.834476 0.667943
O O17 0.500000 0.298841 0.750000
#
# Coordination Sequence:
#
# PCOD9288070 Si02
#       8
#     8   8   8   8   8   8   8   8
#     4  12  21  43  73  97 132 183 234 273 344 415
#     4  11  23  39  71  99 126 184 235 271 345 416
#     4  10  22  38  62  98 140 169 213 285 337 404
#     4  11  23  44  71  94 135 182 228 279 348 415
#     4  11  21  42  64  96 140 176 222 284 339 409
#     4  11  21  40  67 101 134 182 221 275 352 416
#     4  11  22  46  71  94 134 186 230 285 340 416
#     4  11  25  45  64  99 135 175 236 294 331 399
#
# _framework density 20.954933
#
# number of rings (size 3 to 8) (size 9 to 14) (size 15 to 20)
#    0.000    1.000    5.000    2.250    0.000    2.000 
#   20.250    0.000    0.000    0.000    0.000    0.000 
#    0.000    0.000    0.000    0.000    0.000    0.000 
#
# Total GULP energy -178478.658753 kJ/mol
# GULP energy per Si atom -5577.458086 kJ/mol
# Density = 2.090724 g / cm^3
# Si number density = 20.954933 Si / 1000 Ang^3
#
#
#
# Elastic Constant Matrix: (Units=GPa)
#
#
# Indices 1 2 3 4 5 6 
#
# 1 117.5199 14.4260 25.5432 0.0000 -16.7502 0.0000
# 2 14.4260 70.6234 22.6321 0.0000 -3.7708 0.0000
# 3 25.5432 22.6321 82.5533 0.0000 -21.0464 0.0000
# 4 0.0000 0.0000 0.0000 29.9462 0.0000 -6.6855
# 5 -16.7502 -3.7708 -21.0464 0.0000 34.8387 0.0000
# 6 0.0000 0.0000 0.0000 -6.6855 0.0000 39.5743
#
#
#
# Elastic Compliance Matrix: (Units=1/GPa)
#
#
# Indices 1 2 3 4 5 6 
#
# 1 0.009521 -0.001202 -0.001752 0.000000 0.003389 0.000000
# 2 -0.001202 0.015708 -0.004312 0.000000 -0.001483 0.000000
# 3 -0.001752 -0.004312 0.015962 0.000000 0.008334 0.000000
# 4 0.000000 0.000000 0.000000 0.034702 0.000000 0.005862
# 5 0.003389 -0.001483 0.008334 0.000000 0.035207 0.000000
# 6 0.000000 0.000000 0.000000 0.005862 0.000000 0.026259
#
#
# Mechanical properties :
#
#
# Convention : Reuss Voigt Hill
#
# Bulk Modulus (GPa) = 37.51345 43.98878 40.75112
# Shear Modulus (GPa) = 31.09857 34.74486 32.92172
#
# Velocity S-wave (km/s) = 3.85654 4.07637 3.96798
# Velocity P-wave (km/s) = 6.14584 6.57216 6.36257
#
# Compressibility (1/GPa) = 0.02665711
#
# Stress axis : x y z
#
# Youngs Moduli (GPa) = 105.03490 63.66188 62.64690
#
# Poissons Ratio (x) = 0.07654 0.10977
# Poissons Ratio (y) = 0.12628 0.27016
# Poissons Ratio (z) = 0.18405 0.27454
#
# Static dielectric constant tensor:
#      x y z
#    x 1.809450 0.000000 -0.037910 
#    y 0.000000 1.794600 0.000000 
#    z -0.037910 0.000000 1.798250 
# 
# From -- ./inp_files/205715.got.cif
#   From: 2010.05.17/outbox.cif.g08.bks.cpg/sg15_103_cif.got.tgz:205715.got - 2010.06.03 18:47:42.
