data_PCOD9288626
_publ_section_title
;
Structure prediction by ZEFSAII (Michael W. Deem and Ramdas Pophale) SiO2 
 PCOD9288626
Probable space group: C 2/C
;
_chemical_formula_sum "Si O2"
_cell_formula_units_Z 56
_cell_length_a 22.452528
_cell_length_b 7.739688
_cell_length_c 16.709734
_cell_angle_alpha 90.000000
_cell_angle_beta 86.755483
_cell_angle_gamma 90.000000
_cell_volume 2899.088973
_symmetry_space_group_name_H-M "C 2/C"
_symmetry_group_IT_number 15
_symmetry_cell_setting 'monoclinic'
loop_
_space_group_symop_operation_xyz
x,y,z
-x,y,1/2-z
-x,-y,-z
x,-y,1/2+z
1/2+x,1/2+y,z
1/2-x,1/2+y,1/2-z
1/2-x,1/2-y,-z
1/2+x,1/2-y,1/2+z
loop_
_atom_site_type_symbol
_atom_site_label
_atom_site_fract_x
_atom_site_fract_y
_atom_site_fract_z
Si Si1 0.995244 0.973238 0.154594
Si Si2 0.587071 0.222005 0.897400
Si Si3 0.805130 0.849636 0.034360
Si Si4 0.325195 0.267690 0.282369
Si Si5 0.881383 0.124244 0.934945
Si Si6 0.800546 0.903379 0.686105
Si Si7 0.903253 0.333022 0.630348
O O1 0.059448 0.952418 0.109832
O O2 0.000000 0.965134 0.250000
O O3 0.952807 0.816442 0.128780
O O4 0.963759 0.149606 0.130081
O O5 0.647330 0.273226 0.844481
O O6 0.572199 0.022489 0.887430
O O7 0.600306 0.268015 0.988395
O O8 0.853787 0.719391 0.068335
O O9 0.787391 0.973776 0.110259
O O10 0.750000 0.750000 0.000000
O O11 0.837826 0.972554 0.968225
O O12 0.348388 0.262861 0.370680
O O13 0.258874 0.192676 0.282567
O O14 0.323812 0.466290 0.252348
O O15 0.369283 0.171939 0.218113
#
# Coordination Sequence:
#
# PCOD9288626 Si02
#       7
#     8   8   8   8   8   8   8
#     4  12  23  50  67  94 139 176 229 276 333 400
#     4  11  24  43  68  98 131 175 221 281 336 390
#     4  10  24  42  64 100 136 176 217 278 342 400
#     4  11  22  41  64  98 133 179 220 275 334 403
#     4  11  24  42  71  93 137 180 219 282 339 388
#     4  10  22  39  62  94 136 171 218 273 336 394
#     4  11  24  45  67  98 136 174 224 277 331 404
#
# _framework density 19.316414000000002
#
# number of rings (size 3 to 8) (size 9 to 14) (size 15 to 20)
#    0.000    1.143    5.714    1.286    8.000    2.286 
#    2.571    0.000    0.000    0.000    0.000    0.000 
#    0.000    0.000    0.000    0.000    0.000    0.000 
#
# Total GULP energy -156565.188885 kJ/mol
# GULP energy per Si atom -5591.613889 kJ/mol
# Density = 1.927245 g / cm^3
# Si number density = 19.316414 Si / 1000 Ang^3
#
#
#
# Elastic Constant Matrix: (Units=GPa)
#
#
# Indices 1 2 3 4 5 6 
#
# 1 56.8515 11.4530 24.3929 0.0000 3.8800 0.0000
# 2 11.4530 92.5627 23.1380 0.0000 14.4753 0.0000
# 3 24.3929 23.1380 74.4808 0.0000 7.9781 0.0000
# 4 0.0000 0.0000 0.0000 6.7160 0.0000 -1.0632
# 5 3.8800 14.4753 7.9781 0.0000 41.5849 0.0000
# 6 0.0000 0.0000 0.0000 -1.0632 0.0000 25.1194
#
#
#
# Elastic Compliance Matrix: (Units=1/GPa)
#
#
# Indices 1 2 3 4 5 6 
#
# 1 0.020545 -0.000879 -0.006415 0.000000 -0.000380 0.000000
# 2 -0.000879 0.012256 -0.003136 0.000000 -0.003583 0.000000
# 3 -0.006415 -0.003136 0.016663 0.000000 -0.001507 0.000000
# 4 0.000000 0.000000 0.000000 0.149902 0.000000 0.006344
# 5 -0.000380 -0.003583 -0.001507 0.000000 0.025619 0.000000
# 6 0.000000 0.000000 0.000000 0.006344 0.000000 0.040078
#
#
# Mechanical properties :
#
#
# Convention : Reuss Voigt Hill
#
# Bulk Modulus (GPa) = 34.95931 37.98475 36.47203
# Shear Modulus (GPa) = 16.92288 25.67815 21.30052
#
# Velocity S-wave (km/s) = 2.96309 3.64997 3.32432
# Velocity P-wave (km/s) = 5.46297 6.12129 5.80148
#
# Compressibility (1/GPa) = 0.02860468
#
# Stress axis : x y z
#
# Youngs Moduli (GPa) = 48.67342 81.59001 60.01418
#
# Poissons Ratio (x) = 0.07173 0.38498
# Poissons Ratio (y) = 0.04279 0.18820
# Poissons Ratio (z) = 0.31223 0.25585
#
# Static dielectric constant tensor:
#      x y z
#    x 1.653020 0.000000 0.003150 
#    y 0.000000 1.649420 0.000000 
#    z 0.003150 0.000000 1.671700 
# 
# From -- ./inp_files/213423.got.cif
#   From: 2010.05.17/outbox.cif.g08.bks.cpg/sg15_107_cif.got.tgz:213423.got - 2010.06.03 18:47:42.
