data_PCOD9288499
_publ_section_title
;
Structure prediction by ZEFSAII (Michael W. Deem and Ramdas Pophale) SiO2 
 PCOD9288499
Probable space group: C 2/C
;
_chemical_formula_sum "Si O2"
_cell_formula_units_Z 48
_cell_length_a 26.135551
_cell_length_b 9.653729
_cell_length_c 8.699123
_cell_angle_alpha 90.000000
_cell_angle_beta 106.495250
_cell_angle_gamma 90.000000
_cell_volume 2104.504520
_symmetry_space_group_name_H-M "C 2/C"
_symmetry_group_IT_number 15
_symmetry_cell_setting 'monoclinic'
loop_
_space_group_symop_operation_xyz
x,y,z
-x,y,1/2-z
-x,-y,-z
x,-y,1/2+z
1/2+x,1/2+y,z
1/2-x,1/2+y,1/2-z
1/2-x,1/2-y,-z
1/2+x,1/2-y,1/2+z
loop_
_atom_site_type_symbol
_atom_site_label
_atom_site_fract_x
_atom_site_fract_y
_atom_site_fract_z
Si Si1 0.886412 0.432140 0.679758
Si Si2 0.441608 0.665170 0.636920
Si Si3 0.772035 0.615614 0.933013
Si Si4 0.105294 0.031662 0.614853
Si Si5 0.621592 0.195245 0.988901
Si Si6 0.214466 0.895890 0.079710
O O1 0.929456 0.326783 0.645978
O O2 0.832191 0.403187 0.539497
O O3 0.898077 0.592883 0.659115
O O4 0.878002 0.389187 0.849601
O O5 0.500000 0.634894 0.750000
O O6 0.598676 0.583418 0.782448
O O7 0.428724 0.600554 0.461030
O O8 0.760207 0.631522 0.743589
O O9 0.750000 0.750000 0.000000
O O10 0.738802 0.484208 0.964961
O O11 0.087880 0.166351 0.498099
O O12 0.167350 0.015790 0.624502
O O13 0.680673 0.258551 0.009191
#
# Coordination Sequence:
#
# PCOD9288499 Si02
#       6
#     8   8   8   8   8   8
#     4  11  22  42  57  92 126 165 209 256 303 368
#     4  11  22  41  67  90 121 164 211 265 314 358
#     4  12  21  38  61  90 129 167 203 249 306 372
#     4   9  20  40  59  93 123 151 208 263 303 379
#     4   9  22  39  58  84 128 160 203 255 300 372
#     4  10  22  39  60  93 123 166 202 246 313 373
#
# _framework density 22.808219000000001
#
# number of rings (size 3 to 8) (size 9 to 14) (size 15 to 20)
#    1.000    0.667    1.667    3.500    0.000    2.000 
#    3.000    4.167    0.000    0.000    0.000    0.000 
#    0.000    0.000    0.000    0.000    0.000    0.000 
#
# Total GULP energy -134070.652552 kJ/mol
# GULP energy per Si atom -5586.277190 kJ/mol
# Density = 2.275631 g / cm^3
# Si number density = 22.808219 Si / 1000 Ang^3
#
#
#
# Elastic Constant Matrix: (Units=GPa)
#
#
# Indices 1 2 3 4 5 6 
#
# 1 26.2630 0.6053 7.3842 0.0000 5.8644 0.0000
# 2 0.6053 96.3996 25.9081 0.0000 -24.4500 0.0000
# 3 7.3842 25.9081 45.4402 0.0000 -4.4405 0.0000
# 4 0.0000 0.0000 0.0000 40.8418 0.0000 -15.8152
# 5 5.8644 -24.4500 -4.4405 0.0000 23.6318 0.0000
# 6 0.0000 0.0000 0.0000 -15.8152 0.0000 -64.7507
#
#
#
# Elastic Compliance Matrix: (Units=1/GPa)
#
#
# Indices 1 2 3 4 5 6 
#
# 1 0.043326 -0.001862 -0.007353 0.000000 -0.014060 0.000000
# 2 -0.001862 0.016495 -0.007528 0.000000 0.016114 0.000000
# 3 -0.007353 -0.007528 0.027414 0.000000 -0.000812 0.000000
# 4 0.000000 0.000000 0.000000 0.022369 0.000000 -0.005464
# 5 -0.014060 0.016114 -0.000812 0.000000 0.062324 0.000000
# 6 0.000000 0.000000 0.000000 -0.005464 0.000000 -0.014109
#
#
# Mechanical properties :
#
#
# Convention : Reuss Voigt Hill
#
# Bulk Modulus (GPa) = 18.60438 26.21086 22.40762
# Shear Modulus (GPa) = 23.89813 8.89159 16.39486
#
# Velocity S-wave (km/s) = 3.24046 1.97658 2.68398
# Velocity P-wave (km/s) = 4.70908 4.08974 4.41029
#
# Compressibility (1/GPa) = 0.05375078
#
# Stress axis : x y z
#
# Youngs Moduli (GPa) = 23.08077 60.62339 36.47715
#
# Poissons Ratio (x) = 0.11287 0.26822
# Poissons Ratio (y) = 0.04297 0.27459
# Poissons Ratio (z) = 0.16971 0.45635
#
# Static dielectric constant tensor:
#      x y z
#    x 1.887770 0.000000 -0.036130 
#    y 0.000000 1.905410 0.000000 
#    z -0.036130 0.000000 1.870310 
# 
# From -- ./inp_files/65235.got.cif
#   From: 2010.05.17/outbox.cif.g08.bks.cpg/sg15_33_cif.got.tgz:65235.got - 2010.06.03 18:47:42.
