data_PCOD9288802
_publ_section_title
;
Structure prediction by ZEFSAII (Michael W. Deem and Ramdas Pophale) SiO2 
 PCOD9288802
Probable space group: C 2/C
;
_chemical_formula_sum "Si O2"
_cell_formula_units_Z 36
_cell_length_a 13.719560
_cell_length_b 12.197918
_cell_length_c 9.056738
_cell_angle_alpha 90.000000
_cell_angle_beta 73.412879
_cell_angle_gamma 90.000000
_cell_volume 1452.574801
_symmetry_space_group_name_H-M "C 2/C"
_symmetry_group_IT_number 15
_symmetry_cell_setting 'monoclinic'
loop_
_space_group_symop_operation_xyz
x,y,z
-x,y,1/2-z
-x,-y,-z
x,-y,1/2+z
1/2+x,1/2+y,z
1/2-x,1/2+y,1/2-z
1/2-x,1/2-y,-z
1/2+x,1/2-y,1/2+z
loop_
_atom_site_type_symbol
_atom_site_label
_atom_site_fract_x
_atom_site_fract_y
_atom_site_fract_z
Si Si1 0.648389 0.304542 0.097379
Si Si2 0.948188 0.101319 0.113068
Si Si3 0.902199 0.559132 0.860633
Si Si4 0.500000 0.849300 0.750000
Si Si5 0.253722 0.980746 0.671774
O O1 0.595534 0.228471 0.242347
O O2 0.750000 0.250000 0.000000
O O3 0.562343 0.305985 0.006810
O O4 0.681744 0.425767 0.129936
O O5 0.000000 0.116079 0.250000
O O6 0.829141 0.086922 0.203012
O O7 0.000000 0.000000 0.000000
O O8 0.952012 0.439883 0.882391
O O9 0.828909 0.537865 0.753861
O O10 0.823810 0.585052 0.025394
O O11 0.500000 0.122626 0.750000
#
# Coordination Sequence:
#
# PCOD9288802 Si02
#       5
#     8   8   8   4   8
#     4  12  22  40  64  94 131 165 209 269 334 370
#     4  12  23  41  67  99 128 175 224 267 320 399
#     4  10  22  39  65  93 125 170 221 257 325 393
#     4  10  22  40  62  92 130 168 206 266 328 380
#     4  12  20  40  65  95 124 170 220 263 316 396
#
# _framework density 24.783576
#
# number of rings (size 3 to 8) (size 9 to 14) (size 15 to 20)
#    0.667    0.000    6.667    2.000    0.000    0.000 
#    0.000    3.333    0.000    6.667    0.000    0.000 
#    0.000    0.000    0.000    0.000    0.000    0.000 
#
# Total GULP energy -100321.419245 kJ/mol
# GULP energy per Si atom -5573.412180 kJ/mol
# Density = 2.472717 g / cm^3
# Si number density = 24.783576 Si / 1000 Ang^3
#
#
#
# Elastic Constant Matrix: (Units=GPa)
#
#
# Indices 1 2 3 4 5 6 
#
# 1 145.6753 10.7158 62.4009 0.0000 -11.1289 0.0000
# 2 10.7158 52.0328 16.9263 0.0000 -3.1283 0.0000
# 3 62.4009 16.9263 151.5878 0.0000 -13.4694 0.0000
# 4 0.0000 0.0000 0.0000 23.6582 0.0000 -1.1296
# 5 -11.1289 -3.1283 -13.4694 0.0000 82.2073 0.0000
# 6 0.0000 0.0000 0.0000 -1.1296 0.0000 28.7534
#
#
#
# Elastic Compliance Matrix: (Units=1/GPa)
#
#
# Indices 1 2 3 4 5 6 
#
# 1 0.008379 -0.000608 -0.003331 0.000000 0.000565 0.000000
# 2 -0.000608 0.020000 -0.001951 0.000000 0.000359 0.000000
# 3 -0.003331 -0.001951 0.008260 0.000000 0.000828 0.000000
# 4 0.000000 0.000000 0.000000 0.042348 0.000000 0.001664
# 5 0.000565 0.000359 0.000828 0.000000 0.012390 0.000000
# 6 0.000000 0.000000 0.000000 0.001664 0.000000 0.034844
#
#
# Mechanical properties :
#
#
# Convention : Reuss Voigt Hill
#
# Bulk Modulus (GPa) = 40.22761 58.82020 49.52390
# Shear Modulus (GPa) = 34.17912 44.20732 39.19322
#
# Velocity S-wave (km/s) = 3.71766 4.22801 3.98102
# Velocity P-wave (km/s) = 5.89023 6.90071 6.41540
#
# Compressibility (1/GPa) = 0.02485855
#
# Stress axis : x y z
#
# Youngs Moduli (GPa) = 119.33932 49.99971 121.07160
#
# Poissons Ratio (x) = 0.03040 0.40332
# Poissons Ratio (y) = 0.07256 0.23621
# Poissons Ratio (z) = 0.39755 0.09755
#
# Static dielectric constant tensor:
#      x y z
#    x 1.982750 0.000000 0.053630 
#    y 0.000000 2.171450 0.000000 
#    z 0.053630 0.000000 2.083090 
# 
# From -- ./inp_files/28747.got.cif
#   From: 2010.05.17/outbox.cif.g08.bks.cpg/sg15_15_cif.got.tgz:28747.got - 2010.06.03 18:47:42.
