data_PCOD9288154
_publ_section_title
;
Structure prediction by ZEFSAII (Michael W. Deem and Ramdas Pophale) SiO2 
 PCOD9288154
Probable space group: C 2/C
;
_chemical_formula_sum "Si O2"
_cell_formula_units_Z 40
_cell_length_a 16.891150
_cell_length_b 10.025239
_cell_length_c 8.665078
_cell_angle_alpha 90.000000
_cell_angle_beta 104.464212
_cell_angle_gamma 90.000000
_cell_volume 1420.816807
_symmetry_space_group_name_H-M "C 2/C"
_symmetry_group_IT_number 15
_symmetry_cell_setting 'monoclinic'
loop_
_space_group_symop_operation_xyz
x,y,z
-x,y,1/2-z
-x,-y,-z
x,-y,1/2+z
1/2+x,1/2+y,z
1/2-x,1/2+y,1/2-z
1/2-x,1/2-y,-z
1/2+x,1/2-y,1/2+z
loop_
_atom_site_type_symbol
_atom_site_label
_atom_site_fract_x
_atom_site_fract_y
_atom_site_fract_z
Si Si1 0.754304 0.407099 0.957811
Si Si2 0.606456 0.088803 0.562576
Si Si3 0.892619 0.101519 0.923349
Si Si4 0.253670 0.238921 0.184044
Si Si5 0.000000 0.418538 0.750000
Si Si6 0.000000 0.084581 0.250000
O O1 0.838460 0.485101 0.011016
O O2 0.745710 0.399509 0.769058
O O3 0.750000 0.250000 0.000000
O O4 0.675757 0.468750 0.000627
O O5 0.670922 0.180285 0.682465
O O6 0.553505 0.160446 0.402663
O O7 0.552611 0.011077 0.660455
O O8 0.838235 0.199884 0.791125
O O9 0.949485 0.161657 0.090548
O O10 0.943344 0.008660 0.832252
O O11 0.250000 0.250000 0.000000
#
# Coordination Sequence:
#
# PCOD9288154 Si02
#       6
#     8   8   8   8   4   4
#     4  10  22  42  66  95 127 176 230 274 329 402
#     4  11  22  42  66  91 131 168 215 279 326 395
#     4  10  22  40  63  95 134 168 222 276 334 416
#     4  11  24  42  68 100 131 179 231 276 338 417
#     4  10  22  38  64  94 126 172 214 268 344 378
#     4  10  22  42  68 100 130 176 216 280 370 410
#
# _framework density 28.152819999999998
#
# number of rings (size 3 to 8) (size 9 to 14) (size 15 to 20)
#    0.000    1.600    0.000    4.800    0.000    6.400 
#    0.000   30.000    0.000    0.000    0.000    0.000 
#    0.000    0.000    0.000    0.000    0.000    0.000 
#
# Total GULP energy -111797.525836 kJ/mol
# GULP energy per Si atom -5589.876292 kJ/mol
# Density = 2.808874 g / cm^3
# Si number density = 28.152820 Si / 1000 Ang^3
#
#
#
# Elastic Constant Matrix: (Units=GPa)
#
#
# Indices 1 2 3 4 5 6 
#
# 1 163.6099 14.1390 58.1082 0.0000 -34.2049 0.0000
# 2 14.1390 26.1776 28.9040 0.0000 5.4354 0.0000
# 3 58.1082 28.9040 272.6563 0.0000 32.2578 0.0000
# 4 0.0000 0.0000 0.0000 22.7871 0.0000 -7.2812
# 5 -34.2049 5.4354 32.2578 0.0000 78.3667 0.0000
# 6 0.0000 0.0000 0.0000 -7.2812 0.0000 23.8358
#
#
#
# Elastic Compliance Matrix: (Units=1/GPa)
#
#
# Indices 1 2 3 4 5 6 
#
# 1 0.008000 -0.003153 -0.001902 0.000000 0.004493 0.000000
# 2 -0.003153 0.044610 -0.003709 0.000000 -0.002944 0.000000
# 3 -0.001902 -0.003709 0.004766 0.000000 -0.002535 0.000000
# 4 0.000000 0.000000 0.000000 0.048631 0.000000 0.014856
# 5 0.004493 -0.002944 -0.002535 0.000000 0.015969 0.000000
# 6 0.000000 0.000000 0.000000 0.014856 0.000000 0.046492
#
#
# Mechanical properties :
#
#
# Convention : Reuss Voigt Hill
#
# Bulk Modulus (GPa) = 25.09594 73.86068 49.47831
# Shear Modulus (GPa) = 25.09045 49.08409 37.08727
#
# Velocity S-wave (km/s) = 2.98858 4.18004 3.63348
# Velocity P-wave (km/s) = 4.56534 7.04198 5.93430
#
# Compressibility (1/GPa) = 0.03984708
#
# Stress axis : x y z
#
# Youngs Moduli (GPa) = 125.00648 22.41648 209.81677
#
# Poissons Ratio (x) = 0.07069 0.39911
# Poissons Ratio (y) = 0.39420 0.77815
# Poissons Ratio (z) = 0.23778 0.08314
#
# Static dielectric constant tensor:
#      x y z
#    x 2.300840 0.000000 0.013000 
#    y 0.000000 2.265850 0.000000 
#    z 0.013000 0.000000 2.297990 
# 
# From -- ./inp_files/38113.got.cif
#   From: 2010.05.17/outbox.cif.g08.bks.cpg/sg15_20_cif.got.tgz:38113.got - 2010.06.03 18:47:42.
