data_PCOD9288234
_publ_section_title
;
Structure prediction by ZEFSAII (Michael W. Deem and Ramdas Pophale) SiO2 
 PCOD9288234
Probable space group: C 2/C
;
_chemical_formula_sum "Si O2"
_cell_formula_units_Z 56
_cell_length_a 21.847287
_cell_length_b 11.316988
_cell_length_c 26.525339
_cell_angle_alpha 90.000000
_cell_angle_beta 24.255979
_cell_angle_gamma 90.000000
_cell_volume 2694.229227
_symmetry_space_group_name_H-M "C 2/C"
_symmetry_group_IT_number 15
_symmetry_cell_setting 'monoclinic'
loop_
_space_group_symop_operation_xyz
x,y,z
-x,y,1/2-z
-x,-y,-z
x,-y,1/2+z
1/2+x,1/2+y,z
1/2-x,1/2+y,1/2-z
1/2-x,1/2-y,-z
1/2+x,1/2-y,1/2+z
loop_
_atom_site_type_symbol
_atom_site_label
_atom_site_fract_x
_atom_site_fract_y
_atom_site_fract_z
Si Si1 0.861134 0.919111 0.728304
Si Si2 0.894301 0.996179 0.031604
Si Si3 0.895563 0.353461 0.225334
Si Si4 0.062632 0.467075 0.898321
Si Si5 0.379931 0.977488 0.900054
Si Si6 0.165148 0.655584 0.168307
Si Si7 0.751074 0.583834 0.596013
O O1 0.895881 0.785753 0.718384
O O2 0.002643 0.974375 0.593963
O O3 0.724496 0.915651 0.790256
O O4 0.813756 0.998908 0.811929
O O5 0.765149 0.897581 0.134264
O O6 0.803894 0.118484 0.097652
O O7 0.000000 0.000000 0.000000
O O8 0.920181 0.423258 0.153580
O O9 0.026360 0.401809 0.163982
O O10 0.000000 0.500000 0.000000
O O11 0.925166 0.392377 0.979382
O O12 0.322842 0.932369 0.889105
O O13 0.511543 0.880620 0.809858
O O14 0.258884 0.973863 0.034820
O O15 0.168603 0.792137 0.153732
#
# Coordination Sequence:
#
# PCOD9288234 Si02
#       7
#     8   8   8   8   8   8   8
#     4  11  24  38  63  98 133 172 215 267 322 388
#     4  11  24  40  61  97 125 167 219 259 326 381
#     4  10  22  41  64  88 133 175 210 268 319 392
#     4   9  20  37  56  93 132 173 210 253 334 370
#     4   9  21  44  66  91 126 170 210 262 343 365
#     4  10  22  41  70  89 127 167 217 271 315 396
#     4  10  22  38  65  97 124 168 215 266 323 379
#
# _framework density 20.785164000000002
#
# number of rings (size 3 to 8) (size 9 to 14) (size 15 to 20)
#    0.000    2.000    1.429    0.429   10.000    1.143 
#    0.000    0.714    6.286    0.000    0.000    0.000 
#    0.000    0.000    0.000    0.000    0.000    0.000 
#
# Total GULP energy -156134.436197 kJ/mol
# GULP energy per Si atom -5576.229864 kJ/mol
# Density = 2.073786 g / cm^3
# Si number density = 20.785164 Si / 1000 Ang^3
#
#
#
# Elastic Constant Matrix: (Units=GPa)
#
#
# Indices 1 2 3 4 5 6 
#
# 1 99.2283 32.0847 21.8506 0.0004 19.6940 0.0001
# 2 32.0847 84.1787 17.6552 -0.0018 -7.1623 0.0000
# 3 21.8506 17.6552 96.0574 -0.0040 21.6028 0.0004
# 4 0.0004 -0.0018 -0.0040 9.0204 0.0000 7.0265
# 5 19.6940 -7.1623 21.6028 0.0000 38.1689 0.0000
# 6 0.0001 0.0000 0.0004 7.0265 0.0000 17.0215
#
#
#
# Elastic Compliance Matrix: (Units=1/GPa)
#
#
# Indices 1 2 3 4 5 6 
#
# 1 0.013589 -0.005809 -0.000231 -0.000003 -0.007971 0.000001
# 2 -0.005809 0.015435 -0.003255 0.000003 0.007736 -0.000001
# 3 -0.000231 -0.003255 0.012801 0.000008 -0.007737 -0.000003
# 4 -0.000003 0.000003 0.000008 0.163402 -0.000002 -0.067452
# 5 -0.007971 0.007736 -0.007737 -0.000002 0.036143 0.000001
# 6 0.000001 -0.000001 -0.000003 -0.067452 0.000001 0.086593
#
#
# Mechanical properties :
#
#
# Convention : Reuss Voigt Hill
#
# Bulk Modulus (GPa) = 43.03960 46.96058 45.00009
# Shear Modulus (GPa) = 14.11239 26.70042 20.40641
#
# Velocity S-wave (km/s) = 2.60852 3.58801 3.13673
# Velocity P-wave (km/s) = 5.46117 6.30931 5.90050
#
# Compressibility (1/GPa) = 0.02323441
#
# Stress axis : x y z
#
# Youngs Moduli (GPa) = 73.58912 64.78943 78.11732
#
# Poissons Ratio (x) = 0.37638 0.01803
# Poissons Ratio (y) = 0.42750 0.25429
# Poissons Ratio (z) = 0.01698 0.21090
#
# Static dielectric constant tensor:
#      x y z
#    x 1.824590 0.000000 -0.006300 
#    y 0.000000 1.750510 0.000000 
#    z -0.006300 0.000000 1.763140 
# 
# From -- ./inp_files/318770.got.cif
#   From: 2010.05.17/outbox.cif.g08.bks.cpg/sg15_160_cif.got.tgz:318770.got - 2010.06.03 18:47:42.
