data_PCOD9288952
_publ_section_title
;
Structure prediction by ZEFSAII (Michael W. Deem and Ramdas Pophale) SiO2 
 PCOD9288952
Probable space group: C 2/C
;
_chemical_formula_sum "Si O2"
_cell_formula_units_Z 64
_cell_length_a 31.187318
_cell_length_b 7.896142
_cell_length_c 12.650342
_cell_angle_alpha 90.000000
_cell_angle_beta 54.192914
_cell_angle_gamma 90.000000
_cell_volume 2526.454788
_symmetry_space_group_name_H-M "C 2/C"
_symmetry_group_IT_number 15
_symmetry_cell_setting 'monoclinic'
loop_
_space_group_symop_operation_xyz
x,y,z
-x,y,1/2-z
-x,-y,-z
x,-y,1/2+z
1/2+x,1/2+y,z
1/2-x,1/2+y,1/2-z
1/2-x,1/2-y,-z
1/2+x,1/2-y,1/2+z
loop_
_atom_site_type_symbol
_atom_site_label
_atom_site_fract_x
_atom_site_fract_y
_atom_site_fract_z
Si Si1 0.982942 0.258012 0.614253
Si Si2 0.304667 0.669535 0.384677
Si Si3 0.909739 0.067423 0.999705
Si Si4 0.473369 0.122889 0.891279
Si Si5 0.372583 0.371288 0.267114
Si Si6 0.800416 0.654206 0.236088
Si Si7 0.372971 0.237607 0.952361
Si Si8 0.307552 0.767395 0.151069
O O1 0.977798 0.274314 0.493789
O O2 0.927236 0.191852 0.738453
O O3 0.032145 0.141989 0.573480
O O4 0.997005 0.446353 0.632350
O O5 0.250000 0.750000 0.500000
O O6 0.327508 0.487180 0.386577
O O7 0.351992 0.786706 0.364376
O O8 0.297990 0.657206 0.269992
O O9 0.865718 0.208914 0.033969
O O10 0.893433 0.988234 0.138330
O O11 0.904278 0.911159 0.927420
O O12 0.500000 0.204248 0.750000
O O13 0.412166 0.100785 0.946327
O O14 0.342197 0.208705 0.264313
O O15 0.742295 0.720341 0.348949
O O16 0.803030 0.458881 0.199218
O O17 0.821160 0.750451 0.100620
#
# Coordination Sequence:
#
# PCOD9288952 Si02
#       8
#     8   8   8   8   8   8   8   8
#     4  11  23  45  67  96 140 181 248 291 362 438
#     4  11  24  41  66  98 141 174 228 297 365 428
#     4  10  22  39  68  97 123 180 232 284 348 428
#     4  11  26  40  66  99 138 185 232 302 360 425
#     4  10  23  41  68  96 129 186 229 291 356 436
#     4  11  21  42  66  95 130 178 235 273 343 444
#     4  11  23  42  63  97 137 168 230 288 356 425
#     4  11  23  39  69  94 130 183 225 280 352 430
#
# _framework density 25.331938999999998
#
# number of rings (size 3 to 8) (size 9 to 14) (size 15 to 20)
#    0.000    1.250    3.750    3.375    5.250    1.000 
#    0.000    1.875    0.000    0.000    0.000    0.000 
#    0.000    0.000    0.000    0.000    0.000    0.000 
#
# Total GULP energy -178906.645257 kJ/mol
# GULP energy per Si atom -5590.832664 kJ/mol
# Density = 2.527428 g / cm^3
# Si number density = 25.331939 Si / 1000 Ang^3
#
#
#
# Elastic Constant Matrix: (Units=GPa)
#
#
# Indices 1 2 3 4 5 6 
#
# 1 163.0955 38.8102 42.3844 0.0000 -50.4680 0.0000
# 2 38.8102 129.4066 31.2524 0.0000 -48.4265 0.0000
# 3 42.3844 31.2524 97.8250 0.0000 -27.8017 0.0000
# 4 0.0000 0.0000 0.0000 34.2889 0.0000 -17.8019
# 5 -50.4680 -48.4265 -27.8017 0.0000 53.9345 0.0000
# 6 0.0000 0.0000 0.0000 -17.8019 0.0000 33.3686
#
#
#
# Elastic Compliance Matrix: (Units=1/GPa)
#
#
# Indices 1 2 3 4 5 6 
#
# 1 0.008932 0.000809 -0.001812 0.000000 0.008150 0.000000
# 2 0.000809 0.011776 -0.001046 0.000000 0.010791 0.000000
# 3 -0.001812 -0.001046 0.012411 0.000000 0.003763 0.000000
# 4 0.000000 0.000000 0.000000 0.040336 0.000000 0.021519
# 5 0.008150 0.010791 0.003763 0.000000 0.037795 0.000000
# 6 0.000000 0.000000 0.000000 0.021519 0.000000 0.041449
#
#
# Mechanical properties :
#
#
# Convention : Reuss Voigt Hill
#
# Bulk Modulus (GPa) = 34.45861 68.35792 51.40826
# Shear Modulus (GPa) = 30.03544 42.84373 36.43958
#
# Velocity S-wave (km/s) = 3.44710 4.11699 3.79685
# Velocity P-wave (km/s) = 5.42915 7.04578 6.28962
#
# Compressibility (1/GPa) = 0.02902033
#
# Stress axis : x y z
#
# Youngs Moduli (GPa) = 111.96135 84.92046 80.57405
#
# Poissons Ratio (x) = -0.06867 0.14600
# Poissons Ratio (y) = -0.09054 0.08425
# Poissons Ratio (z) = 0.20288 0.08880
#
# Static dielectric constant tensor:
#      x y z
#    x 2.027150 0.000000 0.014950 
#    y 0.000000 2.027400 0.000000 
#    z 0.014950 0.000000 2.080510 
# 
# From -- ./inp_files/181120.got.cif
#   From: 2010.05.17/outbox.cif.g08.bks.cpg/sg15_91_cif.got.tgz:181120.got - 2010.06.03 18:47:42.
