data_PCOD9288744
_publ_section_title
;
Structure prediction by ZEFSAII (Michael W. Deem and Ramdas Pophale) SiO2 
 PCOD9288744
Probable space group: C 2/C
;
_chemical_formula_sum "Si O2"
_cell_formula_units_Z 40
_cell_length_a 7.120819
_cell_length_b 22.839339
_cell_length_c 11.595027
_cell_angle_alpha 90.000000
_cell_angle_beta 76.089712
_cell_angle_gamma 90.000000
_cell_volume 1830.451977
_symmetry_space_group_name_H-M "C 2/C"
_symmetry_group_IT_number 15
_symmetry_cell_setting 'monoclinic'
loop_
_space_group_symop_operation_xyz
x,y,z
-x,y,1/2-z
-x,-y,-z
x,-y,1/2+z
1/2+x,1/2+y,z
1/2-x,1/2+y,1/2-z
1/2-x,1/2-y,-z
1/2+x,1/2-y,1/2+z
loop_
_atom_site_type_symbol
_atom_site_label
_atom_site_fract_x
_atom_site_fract_y
_atom_site_fract_z
Si Si1 0.281410 0.656472 0.738192
Si Si2 0.723999 0.666483 0.032252
Si Si3 0.570858 0.759020 0.442372
Si Si4 0.220952 0.520513 0.727068
Si Si5 0.281775 0.971805 0.533923
O O1 0.500000 0.660019 0.750000
O O2 0.281519 0.671267 0.604968
O O3 0.147519 0.698639 0.831438
O O4 0.213434 0.589534 0.755404
O O5 0.525497 0.699687 0.094314
O O6 0.764679 0.598561 0.050290
O O7 0.906107 0.706278 0.038679
O O8 0.750000 0.750000 0.500000
O O9 0.307808 0.495232 0.833045
O O10 0.298720 0.513786 0.583752
O O11 0.000000 0.497510 0.750000
O O12 0.500000 0.000000 0.500000
#
# Coordination Sequence:
#
# PCOD9288744 Si02
#       5
#     8   8   8   8   8
#     4  11  20  37  64  92 122 172 219 264 329 401
#     4  10  22  39  64  92 127 170 217 271 333 396
#     4  11  21  37  64  91 123 164 223 274 319 393
#     4   9  18  34  63  90 124 168 215 266 326 396
#     4   9  17  35  65  94 125 172 210 264 333 391
#
# _framework density 21.852526999999998
#
# number of rings (size 3 to 8) (size 9 to 14) (size 15 to 20)
#    0.000    2.000    2.000    4.200    0.000    0.000 
#    0.000    4.000   61.600    0.000    0.000    0.000 
#    0.000    0.000    0.000    0.000    0.000    0.000 
#
# Total GULP energy -111530.048852 kJ/mol
# GULP energy per Si atom -5576.502443 kJ/mol
# Density = 2.180279 g / cm^3
# Si number density = 21.852527 Si / 1000 Ang^3
#
#
#
# Elastic Constant Matrix: (Units=GPa)
#
#
# Indices 1 2 3 4 5 6 
#
# 1 128.8205 38.1253 37.3349 0.0000 12.7768 0.0000
# 2 38.1253 129.7961 87.8398 0.0000 7.4286 0.0000
# 3 37.3349 87.8398 138.9774 0.0000 16.7534 0.0000
# 4 0.0000 0.0000 0.0000 18.0285 0.0000 14.6588
# 5 12.7768 7.4286 16.7534 0.0000 32.3440 0.0000
# 6 0.0000 0.0000 0.0000 14.6588 0.0000 19.7003
#
#
#
# Elastic Compliance Matrix: (Units=1/GPa)
#
#
# Indices 1 2 3 4 5 6 
#
# 1 0.008824 -0.001836 -0.000896 0.000000 -0.002600 0.000000
# 2 -0.001836 0.013905 -0.008530 0.000000 0.001950 0.000000
# 3 -0.000896 -0.008530 0.013385 0.000000 -0.004620 0.000000
# 4 0.000000 0.000000 0.000000 0.140430 0.000000 -0.104493
# 5 -0.002600 0.001950 -0.004620 0.000000 0.033890 0.000000
# 6 0.000000 0.000000 0.000000 -0.104493 0.000000 0.128513
#
#
# Mechanical properties :
#
#
# Convention : Reuss Voigt Hill
#
# Bulk Modulus (GPa) = 73.59839 80.46601 77.03220
# Shear Modulus (GPa) = 13.66111 29.63414 21.64763
#
# Velocity S-wave (km/s) = 2.50301 3.68652 3.15083
# Velocity P-wave (km/s) = 6.48892 7.41773 6.96882
#
# Compressibility (1/GPa) = 0.01358725
#
# Stress axis : x y z
#
# Youngs Moduli (GPa) = 113.32891 71.91548 74.71199
#
# Poissons Ratio (x) = 0.13207 0.06697
# Poissons Ratio (y) = 0.20813 0.63733
# Poissons Ratio (z) = 0.10158 0.61347
#
# Static dielectric constant tensor:
#      x y z
#    x 1.884250 0.000000 -0.010890 
#    y 0.000000 1.840200 0.000000 
#    z -0.010890 0.000000 1.793320 
# 
# From -- ./inp_files/77753.got.cif
#   From: 2010.05.17/outbox.cif.g08.bks.cpg/sg15_39_cif.got.tgz:77753.got - 2010.06.03 18:47:42.
