data_PCOD9288920
_publ_section_title
;
Structure prediction by ZEFSAII (Michael W. Deem and Ramdas Pophale) SiO2 
 PCOD9288920
Probable space group: C 2/C
;
_chemical_formula_sum "Si O2"
_cell_formula_units_Z 60
_cell_length_a 18.920297
_cell_length_b 8.363951
_cell_length_c 17.123989
_cell_angle_alpha 90.000000
_cell_angle_beta 77.913204
_cell_angle_gamma 90.000000
_cell_volume 2649.771356
_symmetry_space_group_name_H-M "C 2/C"
_symmetry_group_IT_number 15
_symmetry_cell_setting 'monoclinic'
loop_
_space_group_symop_operation_xyz
x,y,z
-x,y,1/2-z
-x,-y,-z
x,-y,1/2+z
1/2+x,1/2+y,z
1/2-x,1/2+y,1/2-z
1/2-x,1/2-y,-z
1/2+x,1/2-y,1/2+z
loop_
_atom_site_type_symbol
_atom_site_label
_atom_site_fract_x
_atom_site_fract_y
_atom_site_fract_z
Si Si1 0.559541 0.736294 0.606457
Si Si2 0.586778 0.017265 0.979413
Si Si3 0.605047 0.193981 0.822074
Si Si4 0.685304 0.275601 0.453461
Si Si5 0.845008 0.846601 0.279287
Si Si6 0.074142 0.970579 0.392500
Si Si7 0.500000 0.017350 0.250000
Si Si8 0.748301 0.355176 0.721263
O O1 0.603654 0.840152 0.534574
O O2 0.611702 0.637999 0.651093
O O3 0.500426 0.625025 0.577667
O O4 0.522596 0.866508 0.673489
O O5 0.615141 0.065528 0.887964
O O6 0.624801 0.853093 0.991796
O O7 0.500000 0.000000 0.000000
O O8 0.564536 0.343394 0.873985
O O9 0.561396 0.102368 0.765793
O O10 0.676250 0.271568 0.770168
O O11 0.750000 0.250000 0.500000
O O12 0.636575 0.432592 0.442515
O O13 0.722265 0.229428 0.362696
O O14 0.896855 0.891864 0.195468
O O15 0.810949 0.672045 0.271106
O O16 0.778329 0.968081 0.290928
#
# Coordination Sequence:
#
# PCOD9288920 Si02
#       8
#     8   8   8   8   8   8   4   8
#     4  12  24  42  71  98 143 185 233 286 361 420
#     4  12  25  46  67 105 142 189 233 295 360 435
#     4  11  26  42  70 102 141 178 243 293 355 427
#     4  11  25  45  72  98 144 186 234 289 367 423
#     4  10  22  39  67  96 128 179 228 286 341 411
#     4  10  22  44  66 102 137 178 232 298 347 413
#     4  12  24  38  72 100 134 188 240 280 346 434
#     4  10  24  43  67  96 137 178 232 289 343 422
#
# _framework density 22.643464000000002
#
# number of rings (size 3 to 8) (size 9 to 14) (size 15 to 20)
#    0.000    1.067    4.000    0.800    9.333    3.733 
#    0.000    2.000    0.000    0.000    0.000    0.000 
#    0.000    0.000    0.000    0.000    0.000    0.000 
#
# Total GULP energy -167673.269884 kJ/mol
# GULP energy per Si atom -5589.108996 kJ/mol
# Density = 2.259193 g / cm^3
# Si number density = 22.643464 Si / 1000 Ang^3
#
#
#
# Elastic Constant Matrix: (Units=GPa)
#
#
# Indices 1 2 3 4 5 6 
#
# 1 89.6903 35.9634 17.5068 0.0000 17.1364 0.0000
# 2 35.9634 87.3923 -10.6599 0.0000 14.1580 0.0000
# 3 17.5068 -10.6599 55.8946 0.0000 12.2887 0.0000
# 4 0.0000 0.0000 0.0000 26.3328 0.0000 -6.6176
# 5 17.1364 14.1580 12.2887 0.0000 41.6495 0.0000
# 6 0.0000 0.0000 0.0000 -6.6176 0.0000 27.1269
#
#
#
# Elastic Compliance Matrix: (Units=1/GPa)
#
#
# Indices 1 2 3 4 5 6 
#
# 1 0.015336 -0.006589 -0.005524 0.000000 -0.002440 0.000000
# 2 -0.006589 0.015592 0.005996 0.000000 -0.004358 0.000000
# 3 -0.005524 0.005996 0.022150 0.000000 -0.006301 0.000000
# 4 0.000000 0.000000 0.000000 0.040456 0.000000 0.009869
# 5 -0.002440 -0.004358 -0.006301 0.000000 0.028354 0.000000
# 6 0.000000 0.000000 0.000000 0.009869 0.000000 0.039271
#
#
# Mechanical properties :
#
#
# Convention : Reuss Voigt Hill
#
# Bulk Modulus (GPa) = 24.48454 35.39977 29.94215
# Shear Modulus (GPa) = 26.73685 31.69963 29.21824
#
# Velocity S-wave (km/s) = 3.43997 3.74564 3.59606
# Velocity P-wave (km/s) = 5.15891 5.86293 5.52215
#
# Compressibility (1/GPa) = 0.04084210
#
# Stress axis : x y z
#
# Youngs Moduli (GPa) = 65.20569 64.13687 45.14765
#
# Poissons Ratio (x) = 0.42263 0.24938
# Poissons Ratio (y) = 0.42967 -0.27069
# Poissons Ratio (z) = 0.36017 -0.38454
#
# Static dielectric constant tensor:
#      x y z
#    x 1.863260 0.000000 0.015940 
#    y 0.000000 1.918540 0.000000 
#    z 0.015940 0.000000 1.840830 
# 
# From -- ./inp_files/209595.got.cif
#   From: 2010.05.17/outbox.cif.g08.bks.cpg/sg15_105_cif.got.tgz:209595.got - 2010.06.03 18:47:42.
