data_PCOD9288525
_publ_section_title
;
Structure prediction by ZEFSAII (Michael W. Deem and Ramdas Pophale) SiO2 
 PCOD9288525
Probable space group: C 2/C
;
_chemical_formula_sum "Si O2"
_cell_formula_units_Z 48
_cell_length_a 18.295537
_cell_length_b 8.407581
_cell_length_c 21.887018
_cell_angle_alpha 90.000000
_cell_angle_beta 45.432041
_cell_angle_gamma 90.000000
_cell_volume 2398.490827
_symmetry_space_group_name_H-M "C 2/C"
_symmetry_group_IT_number 15
_symmetry_cell_setting 'monoclinic'
loop_
_space_group_symop_operation_xyz
x,y,z
-x,y,1/2-z
-x,-y,-z
x,-y,1/2+z
1/2+x,1/2+y,z
1/2-x,1/2+y,1/2-z
1/2-x,1/2-y,-z
1/2+x,1/2-y,1/2+z
loop_
_atom_site_type_symbol
_atom_site_label
_atom_site_fract_x
_atom_site_fract_y
_atom_site_fract_z
Si Si1 0.228206 0.939732 0.514055
Si Si2 0.879462 0.457846 0.832774
Si Si3 0.444206 0.607997 0.480992
Si Si4 0.852986 0.101564 0.198391
Si Si5 0.121166 0.906754 0.193147
Si Si6 0.229602 0.154744 0.841854
O O1 0.250000 0.750000 0.500000
O O2 0.136372 0.975533 0.518530
O O3 0.331649 0.025069 0.428836
O O4 0.187475 0.000869 0.602996
O O5 0.852918 0.280567 0.825096
O O6 0.821251 0.598923 0.831547
O O7 0.000000 0.478038 0.750000
O O8 0.500000 0.500000 0.500000
O O9 0.536675 0.672422 0.385619
O O10 0.367046 0.722033 0.563473
O O11 0.772632 0.231179 0.265970
O O12 0.864412 0.983804 0.249143
O O13 0.809977 0.003447 0.167279
O O14 0.000000 0.921659 0.250000
#
# Coordination Sequence:
#
# PCOD9288525 Si02
#       6
#     8   8   8   8   8   8
#     4  11  22  37  62  91 123 156 210 250 305 364
#     4  10  23  39  59  88 125 155 203 254 298 354
#     4   9  20  38  59  85 116 162 197 244 302 370
#     4  11  21  39  64  84 124 154 208 243 308 363
#     4  11  21  37  61  90 117 162 198 243 307 357
#     4  10  22  39  61  88 116 161 202 250 302 358
#
# _framework density 20.012585000000001
#
# number of rings (size 3 to 8) (size 9 to 14) (size 15 to 20)
#    0.000    1.667    1.667    3.500    2.333    1.333 
#    0.000    0.833    0.000    0.000    0.000    0.000 
#    0.000    0.000    0.000    0.000    0.000    0.000 
#
# Total GULP energy -133780.149290 kJ/mol
# GULP energy per Si atom -5574.172887 kJ/mol
# Density = 1.996704 g / cm^3
# Si number density = 20.012585 Si / 1000 Ang^3
#
#
#
# Elastic Constant Matrix: (Units=GPa)
#
#
# Indices 1 2 3 4 5 6 
#
# 1 61.4287 0.7568 16.9481 0.0000 -1.1436 0.0000
# 2 0.7568 50.9509 34.1953 0.0000 -19.2996 0.0000
# 3 16.9481 34.1953 189.8965 0.0000 -27.2666 0.0000
# 4 0.0000 0.0000 0.0000 32.5081 0.0000 0.7449
# 5 -1.1436 -19.2996 -27.2666 0.0000 30.1292 0.0000
# 6 0.0000 0.0000 0.0000 0.7449 0.0000 18.1481
#
#
#
# Elastic Compliance Matrix: (Units=1/GPa)
#
#
# Indices 1 2 3 4 5 6 
#
# 1 0.016727 0.000720 -0.001684 0.000000 -0.000428 0.000000
# 2 0.000720 0.027135 -0.002817 0.000000 0.014860 0.000000
# 3 -0.001684 -0.002817 0.006500 0.000000 0.004014 0.000000
# 4 0.000000 0.000000 0.000000 0.030791 0.000000 -0.001264
# 5 -0.000428 0.014860 0.004014 0.000000 0.046325 0.000000
# 6 0.000000 0.000000 0.000000 -0.001264 0.000000 0.055154
#
#
# Mechanical properties :
#
#
# Convention : Reuss Voigt Hill
#
# Bulk Modulus (GPa) = 23.36477 45.11961 34.24219
# Shear Modulus (GPa) = 24.45453 32.84881 28.65167
#
# Velocity S-wave (km/s) = 3.49944 4.05582 3.78786
# Velocity P-wave (km/s) = 5.29420 6.67289 6.02312
#
# Compressibility (1/GPa) = 0.04279948
#
# Stress axis : x y z
#
# Youngs Moduli (GPa) = 59.78441 36.85233 153.84790
#
# Poissons Ratio (x) = -0.02652 0.25906
# Poissons Ratio (y) = -0.04302 0.43337
# Poissons Ratio (z) = 0.10067 0.10381
#
# Static dielectric constant tensor:
#      x y z
#    x 1.731360 0.000000 0.006100 
#    y 0.000000 1.697170 0.000000 
#    z 0.006100 0.000000 1.763340 
# 
# From -- ./inp_files/159747.got.cif
#   From: 2010.05.17/outbox.cif.g08.bks.cpg/sg15_80_cif.got.tgz:159747.got - 2010.06.03 18:47:42.
