data_PCOD9288479
_publ_section_title
;
Structure prediction by ZEFSAII (Michael W. Deem and Ramdas Pophale) SiO2 
 PCOD9288479
Probable space group: C 2/C
;
_chemical_formula_sum "Si O2"
_cell_formula_units_Z 48
_cell_length_a 16.739265
_cell_length_b 12.611554
_cell_length_c 14.028336
_cell_angle_alpha 90.000000
_cell_angle_beta 144.309210
_cell_angle_gamma 90.000000
_cell_volume 1727.768343
_symmetry_space_group_name_H-M "C 2/C"
_symmetry_group_IT_number 15
_symmetry_cell_setting 'monoclinic'
loop_
_space_group_symop_operation_xyz
x,y,z
-x,y,1/2-z
-x,-y,-z
x,-y,1/2+z
1/2+x,1/2+y,z
1/2-x,1/2+y,1/2-z
1/2-x,1/2-y,-z
1/2+x,1/2-y,1/2+z
loop_
_atom_site_type_symbol
_atom_site_label
_atom_site_fract_x
_atom_site_fract_y
_atom_site_fract_z
Si Si1 0.151364 0.944557 0.869375
Si Si2 0.362582 0.562544 0.838951
Si Si3 0.424739 0.262887 0.950104
Si Si4 0.250083 0.351904 0.932745
Si Si5 0.851241 0.360836 0.207982
Si Si6 0.012117 0.543840 0.404515
O O1 0.188693 0.990211 0.799843
O O2 0.000000 0.903677 0.750000
O O3 0.159531 0.057351 0.932109
O O4 0.262544 0.867846 0.026151
O O5 0.255428 0.580154 0.820616
O O6 0.500000 0.500000 0.000000
O O7 0.429989 0.680256 0.886916
O O8 0.310103 0.333472 0.886784
O O9 0.393717 0.244051 0.808410
O O10 0.406009 0.151826 0.989517
O O11 0.102581 0.400215 0.772560
O O12 0.250000 0.250000 0.000000
O O13 0.992401 0.426922 0.339703
O O14 0.000000 0.500000 0.500000
#
# Coordination Sequence:
#
# PCOD9288479 Si02
#       6
#     8   8   8   8   8   8
#     4  11  20  38  58  86 123 157 199 255 303 364
#     4  12  22  37  64  87 118 163 204 252 307 363
#     4  11  21  37  60  89 120 161 203 250 310 362
#     4  11  21  33  58  93 126 152 202 258 309 364
#     4  10  22  39  60  88 122 160 202 252 310 367
#     4   9  20  37  55  80 122 161 192 241 301 366
#
# _framework density 27.781502
#
# number of rings (size 3 to 8) (size 9 to 14) (size 15 to 20)
#    0.000    1.333    3.333    4.000    0.000    0.000 
#    0.000    2.500    0.000    3.000    0.000    0.000 
#    0.000    0.000    0.000    0.000    0.000    0.000 
#
# Total GULP energy -133799.789143 kJ/mol
# GULP energy per Si atom -5574.991214 kJ/mol
# Density = 2.771827 g / cm^3
# Si number density = 27.781502 Si / 1000 Ang^3
#
#
#
# Elastic Constant Matrix: (Units=GPa)
#
#
# Indices 1 2 3 4 5 6 
#
# 1 150.1411 32.5537 32.7408 0.0000 -13.2304 0.0000
# 2 32.5537 113.9522 10.7600 0.0000 -8.8858 0.0000
# 3 32.7408 10.7600 140.1909 0.0000 -24.3094 0.0000
# 4 0.0000 0.0000 0.0000 53.9957 0.0000 -10.8694
# 5 -13.2304 -8.8858 -24.3094 0.0000 38.4147 0.0000
# 6 0.0000 0.0000 0.0000 -10.8694 0.0000 30.1052
#
#
#
# Elastic Compliance Matrix: (Units=1/GPa)
#
#
# Indices 1 2 3 4 5 6 
#
# 1 0.007487 -0.001910 -0.001383 0.000000 0.001262 0.000000
# 2 -0.001910 0.009441 -0.000016 0.000000 0.001516 0.000000
# 3 -0.001383 -0.000016 0.008283 0.000000 0.004762 0.000000
# 4 0.000000 0.000000 0.000000 0.019971 0.000000 0.007211
# 5 0.001262 0.001516 0.004762 0.000000 0.029830 0.000000
# 6 0.000000 0.000000 0.000000 0.007211 0.000000 0.035820
#
#
# Mechanical properties :
#
#
# Convention : Reuss Voigt Hill
#
# Bulk Modulus (GPa) = 53.78213 61.82145 57.80179
# Shear Modulus (GPa) = 40.43708 46.38510 43.41109
#
# Velocity S-wave (km/s) = 3.81929 4.09056 3.95725
# Velocity P-wave (km/s) = 6.23300 6.67916 6.45994
#
# Compressibility (1/GPa) = 0.01859354
#
# Stress axis : x y z
#
# Youngs Moduli (GPa) = 133.55877 105.92152 120.72835
#
# Poissons Ratio (x) = 0.20231 0.16700
# Poissons Ratio (y) = 0.25509 0.00189
# Poissons Ratio (z) = 0.18475 0.00166
#
# Static dielectric constant tensor:
#      x y z
#    x 1.343900 0.000000 -0.099060 
#    y 0.000000 2.356700 0.000000 
#    z -0.099060 0.000000 2.283670 
# 
# From -- ./inp_files/173711.got.cif
#   From: 2010.05.17/outbox.cif.g08.bks.cpg/sg15_87_cif.got.tgz:173711.got - 2010.06.03 18:47:42.
