data_PCOD9288915
_publ_section_title
;
Structure prediction by ZEFSAII (Michael W. Deem and Ramdas Pophale) SiO2 
 PCOD9288915
Probable space group: C 2/C
;
_chemical_formula_sum "Si O2"
_cell_formula_units_Z 56
_cell_length_a 17.388538
_cell_length_b 7.307419
_cell_length_c 20.820485
_cell_angle_alpha 90.000000
_cell_angle_beta 122.395576
_cell_angle_gamma 90.000000
_cell_volume 2233.831204
_symmetry_space_group_name_H-M "C 2/C"
_symmetry_group_IT_number 15
_symmetry_cell_setting 'monoclinic'
loop_
_space_group_symop_operation_xyz
x,y,z
-x,y,1/2-z
-x,-y,-z
x,-y,1/2+z
1/2+x,1/2+y,z
1/2-x,1/2+y,1/2-z
1/2-x,1/2-y,-z
1/2+x,1/2-y,1/2+z
loop_
_atom_site_type_symbol
_atom_site_label
_atom_site_fract_x
_atom_site_fract_y
_atom_site_fract_z
Si Si1 0.850502 0.489144 0.774631
Si Si2 0.680763 0.054264 0.975226
Si Si3 0.506136 0.094927 0.434233
Si Si4 0.324811 0.570087 0.724927
Si Si5 0.358363 0.582737 0.986488
Si Si6 0.607196 0.740857 0.315967
Si Si7 0.062036 0.994580 0.603178
O O1 0.776260 0.522856 0.796786
O O2 0.840511 0.287214 0.738720
O O3 0.841401 0.637498 0.714864
O O4 0.947333 0.505914 0.853434
O O5 0.780875 0.999582 0.997535
O O6 0.634506 0.164330 0.894772
O O7 0.611210 0.896303 0.961718
O O8 0.676890 0.205987 0.030652
O O9 0.462050 0.292719 0.416854
O O10 0.500000 0.000000 0.500000
O O11 0.357118 0.467721 0.675376
O O12 0.388285 0.476178 0.807889
O O13 0.369771 0.466126 0.926050
O O14 0.463315 0.596633 0.056711
O O15 0.500000 0.747684 0.250000
#
# Coordination Sequence:
#
# PCOD9288915 Si02
#       7
#     8   8   8   8   8   8   8
#     4  11  24  43  69 102 133 179 231 278 334 413
#     4  11  23  41  64  96 133 175 219 273 343 400
#     4  11  23  42  67  96 133 175 225 276 338 406
#     4  11  24  42  70  99 132 178 232 276 338 409
#     4  10  22  39  67  94 130 173 217 273 333 403
#     4  12  24  43  67  97 140 179 220 287 348 391
#     4  10  22  42  67  97 129 172 230 274 331 406
#
# _framework density 25.069039
#
# number of rings (size 3 to 8) (size 9 to 14) (size 15 to 20)
#    0.000    1.143    4.286    1.714    2.000    1.143 
#    5.143    0.000    0.000    0.000    0.000    0.000 
#    0.000    0.000    0.000    0.000    0.000    0.000 
#
# Total GULP energy -156692.563624 kJ/mol
# GULP energy per Si atom -5596.162987 kJ/mol
# Density = 2.501198 g / cm^3
# Si number density = 25.069039 Si / 1000 Ang^3
#
#
#
# Elastic Constant Matrix: (Units=GPa)
#
#
# Indices 1 2 3 4 5 6 
#
# 1 163.6320 22.2898 30.1577 0.0000 17.4149 0.0000
# 2 22.2898 75.3304 26.9694 0.0000 -8.5266 0.0000
# 3 30.1577 26.9694 68.8733 0.0000 -1.3470 0.0000
# 4 0.0000 0.0000 0.0000 24.9576 0.0000 -0.7647
# 5 17.4149 -8.5266 -1.3470 0.0000 38.6420 0.0000
# 6 0.0000 0.0000 0.0000 -0.7647 0.0000 45.0175
#
#
#
# Elastic Compliance Matrix: (Units=1/GPa)
#
#
# Indices 1 2 3 4 5 6 
#
# 1 0.007203 -0.001622 -0.002591 0.000000 -0.003694 0.000000
# 2 -0.001622 0.016210 -0.005557 0.000000 0.004114 0.000000
# 3 -0.002591 -0.005557 0.017841 0.000000 0.000564 0.000000
# 4 0.000000 0.000000 0.000000 0.040089 0.000000 0.000681
# 5 -0.003694 0.004114 0.000564 0.000000 0.028471 0.000000
# 6 0.000000 0.000000 0.000000 0.000681 0.000000 0.022225
#
#
# Mechanical properties :
#
#
# Convention : Reuss Voigt Hill
#
# Bulk Modulus (GPa) = 46.05291 51.85216 48.95254
# Shear Modulus (GPa) = 31.48293 36.95135 34.21714
#
# Velocity S-wave (km/s) = 3.54764 3.84341 3.69849
# Velocity P-wave (km/s) = 5.93223 6.35802 6.14881
#
# Compressibility (1/GPa) = 0.02171415
#
# Stress axis : x y z
#
# Youngs Moduli (GPa) = 138.83242 61.69096 56.05075
#
# Poissons Ratio (x) = 0.10005 0.14524
# Poissons Ratio (y) = 0.22516 0.31147
# Poissons Ratio (z) = 0.35974 0.34281
#
# Static dielectric constant tensor:
#      x y z
#    x 1.962970 0.000000 -0.012880 
#    y 0.000000 2.010970 0.000000 
#    z -0.012880 0.000000 2.061470 
# 
# From -- ./inp_files/273247.got.cif
#   From: 2010.05.17/outbox.cif.g08.bks.cpg/sg15_137_cif.got.tgz:273247.got - 2010.06.03 18:47:42.
