data_PCOD9288964
_publ_section_title
;
Structure prediction by ZEFSAII (Michael W. Deem and Ramdas Pophale) SiO2 
 PCOD9288964
Probable space group: C 2/C
;
_chemical_formula_sum "Si O2"
_cell_formula_units_Z 40
_cell_length_a 10.604866
_cell_length_b 17.912550
_cell_length_c 9.612417
_cell_angle_alpha 90.000000
_cell_angle_beta 83.469667
_cell_angle_gamma 90.000000
_cell_volume 1814.129256
_symmetry_space_group_name_H-M "C 2/C"
_symmetry_group_IT_number 15
_symmetry_cell_setting 'monoclinic'
loop_
_space_group_symop_operation_xyz
x,y,z
-x,y,1/2-z
-x,-y,-z
x,-y,1/2+z
1/2+x,1/2+y,z
1/2-x,1/2+y,1/2-z
1/2-x,1/2-y,-z
1/2+x,1/2-y,1/2+z
loop_
_atom_site_type_symbol
_atom_site_label
_atom_site_fract_x
_atom_site_fract_y
_atom_site_fract_z
Si Si1 0.791429 0.422613 0.908855
Si Si2 0.362876 0.047677 0.712698
Si Si3 0.500000 0.811727 0.750000
Si Si4 0.988092 0.077436 0.083870
Si Si5 0.390518 0.722329 0.511582
Si Si6 0.500000 0.190031 0.750000
O O1 0.772076 0.492702 0.806456
O O2 0.650764 0.389154 0.937101
O O3 0.894114 0.364541 0.836201
O O4 0.839381 0.453413 0.051607
O O5 0.500000 0.018341 0.750000
O O6 0.378837 0.134393 0.751960
O O7 0.432175 0.757655 0.650322
O O8 0.000000 0.070869 0.250000
O O9 0.092864 0.134501 0.012076
O O10 0.000000 0.000000 0.000000
O O11 0.250000 0.750000 0.500000
O O12 0.481870 0.759918 0.385425
#
# Coordination Sequence:
#
# PCOD9288964 Si02
#       6
#     8   8   4   8   8   4
#     4  12  24  43  71 106 145 185 239 299 357 439
#     4  10  22  39  69 103 145 184 236 288 367 430
#     4  12  25  44  75 108 136 186 246 294 361 434
#     4  12  29  50  71 103 146 191 238 297 370 436
#     4  12  28  49  74 102 148 193 244 304 368 427
#     4  10  23  44  69 100 138 186 246 294 361 418
#
# _framework density 22.049144999999999
#
# number of rings (size 3 to 8) (size 9 to 14) (size 15 to 20)
#    0.600    0.000    4.000    3.000    7.000    2.400 
#    0.000    0.000    0.000    0.000    0.000    0.000 
#    0.000    0.000    0.000    0.000    0.000    0.000 
#
# Total GULP energy -111765.304018 kJ/mol
# GULP energy per Si atom -5588.265201 kJ/mol
# Density = 2.199896 g / cm^3
# Si number density = 22.049145 Si / 1000 Ang^3
#
#
#
# Elastic Constant Matrix: (Units=GPa)
#
#
# Indices 1 2 3 4 5 6 
#
# 1 120.8825 31.3414 40.0080 0.0000 16.6282 0.0000
# 2 31.3414 152.5407 64.5283 0.0000 4.9364 0.0000
# 3 40.0080 64.5283 177.0975 0.0000 39.5401 0.0000
# 4 0.0000 0.0000 0.0000 25.4661 0.0000 -2.8025
# 5 16.6282 4.9364 39.5401 0.0000 27.5858 0.0000
# 6 0.0000 0.0000 0.0000 -2.8025 0.0000 25.8409
#
#
#
# Elastic Compliance Matrix: (Units=1/GPa)
#
#
# Indices 1 2 3 4 5 6 
#
# 1 0.009501 -0.001579 -0.000523 0.000000 -0.004695 0.000000
# 2 -0.001579 0.008311 -0.003753 0.000000 0.004844 0.000000
# 3 -0.000523 -0.003753 0.010165 0.000000 -0.013583 0.000000
# 4 0.000000 0.000000 0.000000 0.039742 0.000000 0.004310
# 5 -0.004695 0.004844 -0.013583 0.000000 0.057683 0.000000
# 6 0.000000 0.000000 0.000000 0.004310 0.000000 0.039166
#
#
# Mechanical properties :
#
#
# Convention : Reuss Voigt Hill
#
# Bulk Modulus (GPa) = 61.47397 80.25288 70.86343
# Shear Modulus (GPa) = 27.51802 36.75477 32.13639
#
# Velocity S-wave (km/s) = 3.53658 4.08726 3.82185
# Velocity P-wave (km/s) = 6.67963 7.66489 7.18916
#
# Compressibility (1/GPa) = 0.01626705
#
# Stress axis : x y z
#
# Youngs Moduli (GPa) = 105.25512 120.32404 98.37874
#
# Poissons Ratio (x) = 0.18999 0.05142
# Poissons Ratio (y) = 0.16620 0.36921
# Poissons Ratio (z) = 0.05502 0.45157
#
# Static dielectric constant tensor:
#      x y z
#    x 1.842730 0.000000 -0.054250 
#    y 0.000000 1.811350 0.000000 
#    z -0.054250 0.000000 1.764430 
# 
# From -- ./inp_files/29264.got.cif
#   From: 2010.05.17/outbox.cif.g08.bks.cpg/sg15_15_cif.got.tgz:29264.got - 2010.06.03 18:47:42.
