data_PCOD9288905
_publ_section_title
;
Structure prediction by ZEFSAII (Michael W. Deem and Ramdas Pophale) SiO2 
 PCOD9288905
Probable space group: C 2/C
;
_chemical_formula_sum "Si O2"
_cell_formula_units_Z 44
_cell_length_a 17.020032
_cell_length_b 7.521682
_cell_length_c 15.215716
_cell_angle_alpha 90.000000
_cell_angle_beta 63.723328
_cell_angle_gamma 90.000000
_cell_volume 1746.621498
_symmetry_space_group_name_H-M "C 2/C"
_symmetry_group_IT_number 15
_symmetry_cell_setting 'monoclinic'
loop_
_space_group_symop_operation_xyz
x,y,z
-x,y,1/2-z
-x,-y,-z
x,-y,1/2+z
1/2+x,1/2+y,z
1/2-x,1/2+y,1/2-z
1/2-x,1/2-y,-z
1/2+x,1/2-y,1/2+z
loop_
_atom_site_type_symbol
_atom_site_label
_atom_site_fract_x
_atom_site_fract_y
_atom_site_fract_z
Si Si1 0.205175 0.665949 0.726944
Si Si2 0.871323 0.058282 0.340827
Si Si3 0.614066 0.132546 0.352606
Si Si4 0.244447 0.049417 0.465693
Si Si5 0.566003 0.378423 0.518420
Si Si6 0.000000 0.739199 0.250000
O O1 0.146495 0.838728 0.738491
O O2 0.303375 0.729336 0.702095
O O3 0.160752 0.555384 0.825310
O O4 0.198087 0.540146 0.640772
O O5 0.936962 0.154986 0.376275
O O6 0.774276 0.062002 0.435219
O O7 0.917065 0.867630 0.312273
O O8 0.575913 0.194851 0.463431
O O9 0.537342 0.141703 0.317368
O O10 0.250000 0.250000 0.500000
O O11 0.150162 0.008873 0.471045
O O12 0.500000 0.500000 0.500000
#
# Coordination Sequence:
#
# PCOD9288905 Si02
#       6
#     8   8   8   8   8   4
#     4  11  23  41  64  95 128 174 216 271 321 391
#     4  10  22  39  67  90 132 169 217 259 333 381
#     4  11  23  39  66  94 131 167 221 267 329 387
#     4   9  19  36  64  93 123 161 212 259 328 383
#     4   9  19  40  66  93 125 175 210 267 331 391
#     4  12  22  40  68  90 130 172 212 276 328 392
#
# _framework density 25.191493000000001
#
# number of rings (size 3 to 8) (size 9 to 14) (size 15 to 20)
#    1.091    0.727    1.818    2.727    0.000    0.727 
#    0.000    0.000    4.000    3.273    0.000    0.000 
#    0.000    0.000    0.000    0.000    0.000    0.000 
#
# Total GULP energy -122521.044366 kJ/mol
# GULP energy per Si atom -5569.138380 kJ/mol
# Density = 2.513416 g / cm^3
# Si number density = 25.191493 Si / 1000 Ang^3
#
#
#
# Elastic Constant Matrix: (Units=GPa)
#
#
# Indices 1 2 3 4 5 6 
#
# 1 106.9335 17.4526 6.6303 0.0000 29.8441 0.0000
# 2 17.4526 59.7985 -4.8398 0.0000 9.4188 0.0000
# 3 6.6303 -4.8398 25.9572 0.0000 8.1996 0.0000
# 4 0.0000 0.0000 0.0000 39.1800 0.0000 12.9834
# 5 29.8441 9.4188 8.1996 0.0000 33.4667 0.0000
# 6 0.0000 0.0000 0.0000 12.9834 0.0000 26.2502
#
#
#
# Elastic Compliance Matrix: (Units=1/GPa)
#
#
# Indices 1 2 3 4 5 6 
#
# 1 0.012678 -0.002039 -0.000248 0.000000 -0.010671 0.000000
# 2 -0.002039 0.018505 0.005465 0.000000 -0.004728 0.000000
# 3 -0.000248 0.005465 0.043381 0.000000 -0.011946 0.000000
# 4 0.000000 0.000000 0.000000 0.030526 0.000000 -0.015098
# 5 -0.010671 -0.004728 -0.011946 0.000000 0.043654 0.000000
# 6 0.000000 0.000000 0.000000 -0.015098 0.000000 0.045563
#
#
# Mechanical properties :
#
#
# Convention : Reuss Voigt Hill
#
# Bulk Modulus (GPa) = 12.35802 25.68617 19.02209
# Shear Modulus (GPa) = 23.26399 31.34246 27.30322
#
# Velocity S-wave (km/s) = 3.04219 3.53110 3.29572
# Velocity P-wave (km/s) = 4.15405 5.18106 4.69572
#
# Compressibility (1/GPa) = 0.08091912
#
# Stress axis : x y z
#
# Youngs Moduli (GPa) = 78.87679 54.03914 23.05175
#
# Poissons Ratio (x) = 0.11021 0.00571
# Poissons Ratio (y) = 0.16086 -0.12598
# Poissons Ratio (z) = 0.01954 -0.29532
#
# Static dielectric constant tensor:
#      x y z
#    x 1.962130 0.000000 0.116730 
#    y 0.000000 2.021290 0.000000 
#    z 0.116730 0.000000 1.005330 
# 
# From -- ./inp_files/208492.got.cif
#   From: 2010.05.17/outbox.cif.g08.bks.cpg/sg15_105_cif.got.tgz:208492.got - 2010.06.03 18:47:42.
