data_PCOD9288975
_publ_section_title
;
Structure prediction by ZEFSAII (Michael W. Deem and Ramdas Pophale) SiO2 
 PCOD9288975
Probable space group: C 2/C
;
_chemical_formula_sum "Si O2"
_cell_formula_units_Z 36
_cell_length_a 7.702874
_cell_length_b 15.842548
_cell_length_c 17.212416
_cell_angle_alpha 90.000000
_cell_angle_beta 48.110562
_cell_angle_gamma 90.000000
_cell_volume 1563.674071
_symmetry_space_group_name_H-M "C 2/C"
_symmetry_group_IT_number 15
_symmetry_cell_setting 'monoclinic'
loop_
_space_group_symop_operation_xyz
x,y,z
-x,y,1/2-z
-x,-y,-z
x,-y,1/2+z
1/2+x,1/2+y,z
1/2-x,1/2+y,1/2-z
1/2-x,1/2-y,-z
1/2+x,1/2-y,1/2+z
loop_
_atom_site_type_symbol
_atom_site_label
_atom_site_fract_x
_atom_site_fract_y
_atom_site_fract_z
Si Si1 0.710219 0.338745 0.973060
Si Si2 0.319792 0.132442 0.735114
Si Si3 0.046014 0.010176 0.580482
Si Si4 0.500000 0.226263 0.250000
Si Si5 0.239423 0.848478 0.485159
O O1 0.851623 0.333316 0.851135
O O2 0.750000 0.250000 0.000000
O O3 0.748244 0.418527 0.017196
O O4 0.436729 0.343530 0.035350
O O5 0.500000 0.156015 0.750000
O O6 0.162775 0.051799 0.807311
O O7 0.160856 0.210155 0.752908
O O8 0.506988 0.115840 0.611119
O O9 0.877289 0.084429 0.420896
O O10 0.000000 0.000000 0.500000
O O11 0.250000 0.750000 0.500000
#
# Coordination Sequence:
#
# PCOD9288975 Si02
#       5
#     8   8   8   4   8
#     4  11  21  40  65 101 137 180 235 290 354 423
#     4  12  22  43  69  98 145 183 238 295 352 435
#     4  10  22  39  69  99 133 188 233 282 363 422
#     4  12  24  38  72 106 140 186 240 292 364 424
#     4  11  23  43  68  96 139 184 233 291 357 418
#
# _framework density 23.022701000000001
#
# number of rings (size 3 to 8) (size 9 to 14) (size 15 to 20)
#    0.000    0.889    8.889    0.000    0.000    3.556 
#    0.000    4.444    2.444    0.000    0.000    0.000 
#    0.000    0.000    0.000    0.000    0.000    0.000 
#
# Total GULP energy -100234.571040 kJ/mol
# GULP energy per Si atom -5568.587280 kJ/mol
# Density = 2.297030 g / cm^3
# Si number density = 23.022701 Si / 1000 Ang^3
#
#
#
# Elastic Constant Matrix: (Units=GPa)
#
#
# Indices 1 2 3 4 5 6 
#
# 1 58.6066 32.9162 17.3772 -0.0003 -8.9146 0.0002
# 2 32.9162 184.3949 62.3415 0.0000 -17.9452 0.0002
# 3 17.3772 62.3415 180.2572 -0.0004 -28.8402 0.0002
# 4 -0.0003 0.0000 -0.0004 40.3843 0.0003 -0.2451
# 5 -8.9146 -17.9452 -28.8402 0.0003 23.0165 -0.0002
# 6 0.0002 0.0002 0.0002 -0.2451 -0.0002 24.9841
#
#
#
# Elastic Compliance Matrix: (Units=1/GPa)
#
#
# Indices 1 2 3 4 5 6 
#
# 1 0.019532 -0.002972 -0.000019 0.000000 0.005224 0.000000
# 2 -0.002972 0.006726 -0.001732 0.000000 0.001923 0.000000
# 3 -0.000019 -0.001732 0.007419 0.000000 0.007938 0.000000
# 4 0.000000 0.000000 0.000000 0.024764 0.000000 0.000243
# 5 0.005224 0.001923 0.007938 0.000000 0.056915 0.000000
# 6 0.000000 0.000000 0.000000 0.000243 0.000000 0.040028
#
#
# Mechanical properties :
#
#
# Convention : Reuss Voigt Hill
#
# Bulk Modulus (GPa) = 41.27016 72.05872 56.66444
# Shear Modulus (GPa) = 28.91719 38.38525 33.65122
#
# Velocity S-wave (km/s) = 3.54790 4.08766 3.82731
# Velocity P-wave (km/s) = 5.89476 7.32431 6.64807
#
# Compressibility (1/GPa) = 0.02423058
#
# Stress axis : x y z
#
# Youngs Moduli (GPa) = 51.19715 148.66824 134.79765
#
# Poissons Ratio (x) = 0.44181 0.00262
# Poissons Ratio (y) = 0.15215 0.23349
# Poissons Ratio (z) = 0.00099 0.25752
#
# Static dielectric constant tensor:
#      x y z
#    x 2.180050 0.000000 0.352270 
#    y 0.000000 2.108590 0.000000 
#    z 0.352270 0.000000 2.404970 
# 
# From -- ./inp_files/231959.got.cif
#   From: 2010.05.17/outbox.cif.g08.bks.cpg/sg15_116_cif.got.tgz:231959.got - 2010.06.03 18:47:42.
