data_PCOD9288814
_publ_section_title
;
Structure prediction by ZEFSAII (Michael W. Deem and Ramdas Pophale) SiO2 
 PCOD9288814
Probable space group: C 2/C
;
_chemical_formula_sum "Si O2"
_cell_formula_units_Z 56
_cell_length_a 18.054712
_cell_length_b 21.480923
_cell_length_c 14.647710
_cell_angle_alpha 90.000000
_cell_angle_beta 156.161778
_cell_angle_gamma 90.000000
_cell_volume 2295.946751
_symmetry_space_group_name_H-M "C 2/C"
_symmetry_group_IT_number 15
_symmetry_cell_setting 'monoclinic'
loop_
_space_group_symop_operation_xyz
x,y,z
-x,y,1/2-z
-x,-y,-z
x,-y,1/2+z
1/2+x,1/2+y,z
1/2-x,1/2+y,1/2-z
1/2-x,1/2-y,-z
1/2+x,1/2-y,1/2+z
loop_
_atom_site_type_symbol
_atom_site_label
_atom_site_fract_x
_atom_site_fract_y
_atom_site_fract_z
Si Si1 0.418491 0.077183 0.975707
Si Si2 0.763454 0.483748 0.129910
Si Si3 0.768028 0.679606 0.399734
Si Si4 0.085566 0.173675 0.996179
Si Si5 0.500000 0.289522 0.750000
Si Si6 0.073414 0.963913 0.171937
Si Si7 0.568510 0.197358 0.223611
Si Si8 0.500000 0.077003 0.750000
O O1 0.315965 0.067759 0.764731
O O2 0.291449 0.041009 0.905992
O O3 0.444216 0.148760 0.028052
O O4 0.615355 0.043324 0.199797
O O5 0.845536 0.461668 0.127662
O O6 0.552461 0.501399 0.897089
O O7 0.695803 0.681823 0.215621
O O8 0.610919 0.671984 0.299777
O O9 0.868166 0.743416 0.543287
O O10 0.905639 0.622518 0.569657
O O11 0.224846 0.176816 0.067240
O O12 0.985628 0.108091 0.889702
O O13 0.953352 0.232525 0.835807
O O14 0.000000 0.000000 0.000000
O O15 0.500000 0.192952 0.250000
#
# Coordination Sequence:
#
# PCOD9288814 Si02
#       8
#     8   8   8   8   4   8   8   4
#     4  10  22  43  71  93 136 183 231 289 350 419
#     4  10  22  43  65  97 136 182 232 285 351 412
#     4  10  22  39  65  95 136 177 221 279 351 416
#     4  12  24  44  69  98 140 183 232 291 355 424
#     4   9  20  40  60  98 136 172 221 276 336 430
#     4  10  23  42  70  98 130 182 238 280 341 423
#     4  12  26  44  70 103 140 182 240 299 356 423
#     4  11  24  38  64  98 134 174 229 284 342 414
#
# _framework density 24.390809999999998
#
# number of rings (size 3 to 8) (size 9 to 14) (size 15 to 20)
#    0.000    1.429    1.429    3.000    5.000    4.571 
#    0.000    1.429    0.000    0.000    0.000    0.000 
#    0.000    0.000    0.000    0.000    0.000    0.000 
#
# Total GULP energy -156769.741683 kJ/mol
# GULP energy per Si atom -5598.919346 kJ/mol
# Density = 2.433530 g / cm^3
# Si number density = 24.390810 Si / 1000 Ang^3
#
#
#
# Elastic Constant Matrix: (Units=GPa)
#
#
# Indices 1 2 3 4 5 6 
#
# 1 137.5527 30.6899 28.7944 0.0001 9.2115 0.0000
# 2 30.6899 94.0088 -10.7023 0.0000 -12.7047 0.0000
# 3 28.7944 -10.7023 27.8033 0.0001 3.7981 0.0000
# 4 0.0001 0.0000 0.0001 71.8064 0.0001 14.8393
# 5 9.2115 -12.7047 3.7981 0.0001 51.9537 0.0000
# 6 0.0000 0.0000 0.0000 14.8393 0.0000 31.1870
#
#
#
# Elastic Compliance Matrix: (Units=1/GPa)
#
#
# Indices 1 2 3 4 5 6 
#
# 1 0.011613 -0.005702 -0.013888 0.000000 -0.002438 0.000000
# 2 -0.005702 0.014237 0.010880 0.000000 0.003697 0.000000
# 3 -0.013888 0.010880 0.054381 0.000000 0.001147 0.000000
# 4 0.000000 0.000000 0.000000 0.015445 0.000000 -0.007349
# 5 -0.002438 0.003697 0.001147 0.000000 0.020500 0.000000
# 6 0.000000 0.000000 0.000000 -0.007349 0.000000 0.035561
#
#
# Mechanical properties :
#
#
# Convention : Reuss Voigt Hill
#
# Bulk Modulus (GPa) = 15.92073 39.65876 27.78974
# Shear Modulus (GPa) = 26.30276 45.02829 35.66552
#
# Velocity S-wave (km/s) = 3.28744 4.30131 3.82809
# Velocity P-wave (km/s) = 4.57725 6.40026 5.56393
#
# Compressibility (1/GPa) = 0.06281120
#
# Stress axis : x y z
#
# Youngs Moduli (GPa) = 86.11382 70.24033 18.38866
#
# Poissons Ratio (x) = 0.40048 0.25538
# Poissons Ratio (y) = 0.49098 -0.20007
# Poissons Ratio (z) = 1.19596 -0.76421
#
# Static dielectric constant tensor:
#      x y z
#    x 1.970570 0.000000 0.017600 
#    y 0.000000 1.893870 0.000000 
#    z 0.017600 0.000000 1.941520 
# 
# From -- ./inp_files/163847.got.cif
#   From: 2010.05.17/outbox.cif.g08.bks.cpg/sg15_82_cif.got.tgz:163847.got - 2010.06.03 18:47:42.
