data_PCOD9288566
_publ_section_title
;
Structure prediction by ZEFSAII (Michael W. Deem and Ramdas Pophale) SiO2 
 PCOD9288566
Probable space group: C 2/C
;
_chemical_formula_sum "Si O2"
_cell_formula_units_Z 64
_cell_length_a 17.906629
_cell_length_b 11.446841
_cell_length_c 15.284897
_cell_angle_alpha 90.000000
_cell_angle_beta 91.462839
_cell_angle_gamma 90.000000
_cell_volume 3131.990527
_symmetry_space_group_name_H-M "C 2/C"
_symmetry_group_IT_number 15
_symmetry_cell_setting 'monoclinic'
loop_
_space_group_symop_operation_xyz
x,y,z
-x,y,1/2-z
-x,-y,-z
x,-y,1/2+z
1/2+x,1/2+y,z
1/2-x,1/2+y,1/2-z
1/2-x,1/2-y,-z
1/2+x,1/2-y,1/2+z
loop_
_atom_site_type_symbol
_atom_site_label
_atom_site_fract_x
_atom_site_fract_y
_atom_site_fract_z
Si Si1 0.221082 0.097403 0.843156
Si Si2 0.681214 0.519232 0.159401
Si Si3 0.388321 0.488512 0.524596
Si Si4 0.621073 0.974288 0.198741
Si Si5 0.496523 0.695879 0.479217
Si Si6 0.073514 0.770392 0.703180
Si Si7 0.170079 0.365537 0.852703
Si Si8 0.494195 0.914385 0.580771
O O1 0.309529 0.073311 0.857200
O O2 0.194727 0.230849 0.855538
O O3 0.199390 0.062464 0.742572
O O4 0.177482 0.018376 0.911457
O O5 0.637299 0.631890 0.197140
O O6 0.757400 0.562536 0.115601
O O7 0.633808 0.468237 0.077584
O O8 0.442259 0.601690 0.522931
O O9 0.435325 0.377961 0.557204
O O10 0.598017 0.853000 0.246126
O O11 0.655145 0.079043 0.256822
O O12 0.546949 0.028308 0.154609
O O13 0.451598 0.754219 0.397997
O O14 0.523799 0.789596 0.549386
O O15 0.000000 0.815595 0.750000
O O16 0.092174 0.391510 0.897968
O O17 0.500000 0.000000 0.500000
#
# Coordination Sequence:
#
# PCOD9288566 Si02
#       8
#     8   8   8   8   8   8   8   8
#     4  11  23  45  67  93 132 173 222 275 331 401
#     4  10  24  40  67  99 124 174 226 269 328 398
#     4  10  22  42  66  94 128 170 222 276 324 391
#     4  11  25  41  62  96 131 171 220 270 331 400
#     4  10  22  39  61  96 128 163 222 267 322 404
#     4  11  20  39  62  89 134 174 210 265 331 391
#     4  11  24  44  67  92 131 175 223 272 335 397
#     4  12  24  41  64  98 130 168 217 272 335 399
#
# _framework density 20.434287999999999
#
# number of rings (size 3 to 8) (size 9 to 14) (size 15 to 20)
#    0.000    1.250    3.750    1.875    3.500    0.500 
#    0.000    0.625    0.000    0.000    0.000    0.000 
#    0.000    0.000    0.000    0.000    0.000    0.000 
#
# Total GULP energy -178539.225956 kJ/mol
# GULP energy per Si atom -5579.350811 kJ/mol
# Density = 2.038778 g / cm^3
# Si number density = 20.434288 Si / 1000 Ang^3
#
#
#
# Elastic Constant Matrix: (Units=GPa)
#
#
# Indices 1 2 3 4 5 6 
#
# 1 111.4019 39.7347 15.6866 0.0000 -23.7847 0.0000
# 2 39.7347 54.0268 6.7795 0.0000 -12.6957 0.0000
# 3 15.6866 6.7795 35.5456 0.0000 -7.3367 0.0000
# 4 0.0000 0.0000 0.0000 21.1752 0.0000 -0.2261
# 5 -23.7847 -12.6957 -7.3367 0.0000 33.2694 0.0000
# 6 0.0000 0.0000 0.0000 -0.2261 0.0000 32.5572
#
#
#
# Elastic Compliance Matrix: (Units=1/GPa)
#
#
# Indices 1 2 3 4 5 6 
#
# 1 0.013624 -0.008231 -0.003227 0.000000 0.005887 0.000000
# 2 -0.008231 0.025501 -0.000458 0.000000 0.003745 0.000000
# 3 -0.003227 -0.000458 0.030521 0.000000 0.004249 0.000000
# 4 0.000000 0.000000 0.000000 0.047229 0.000000 0.000328
# 5 0.005887 0.003745 0.004249 0.000000 0.036633 0.000000
# 6 0.000000 0.000000 0.000000 0.000328 0.000000 0.030717
#
#
# Mechanical properties :
#
#
# Convention : Reuss Voigt Hill
#
# Bulk Modulus (GPa) = 21.82804 36.15288 28.99046
# Shear Modulus (GPa) = 22.38847 26.65191 24.52019
#
# Velocity S-wave (km/s) = 3.31363 3.61539 3.46779
# Velocity P-wave (km/s) = 5.03442 5.92948 5.50019
#
# Compressibility (1/GPa) = 0.04581263
#
# Stress axis : x y z
#
# Youngs Moduli (GPa) = 73.40083 39.21430 32.76388
#
# Poissons Ratio (x) = 0.32279 0.10574
# Poissons Ratio (y) = 0.60420 0.01501
# Poissons Ratio (z) = 0.23688 0.01796
#
# Static dielectric constant tensor:
#      x y z
#    x 1.757550 0.000000 0.000040 
#    y 0.000000 1.731680 0.000000 
#    z 0.000040 0.000000 1.697490 
# 
# From -- ./inp_files/161341.got.cif
#   From: 2010.05.17/outbox.cif.g08.bks.cpg/sg15_81_cif.got.tgz:161341.got - 2010.06.03 18:47:42.
