data_PCOD9288541
_publ_section_title
;
Structure prediction by ZEFSAII (Michael W. Deem and Ramdas Pophale) SiO2 
 PCOD9288541
Probable space group: C 2/C
;
_chemical_formula_sum "Si O2"
_cell_formula_units_Z 48
_cell_length_a 16.714784
_cell_length_b 9.894917
_cell_length_c 26.659508
_cell_angle_alpha 90.000000
_cell_angle_beta 147.662285
_cell_angle_gamma 90.000000
_cell_volume 2358.547666
_symmetry_space_group_name_H-M "C 2/C"
_symmetry_group_IT_number 15
_symmetry_cell_setting 'monoclinic'
loop_
_space_group_symop_operation_xyz
x,y,z
-x,y,1/2-z
-x,-y,-z
x,-y,1/2+z
1/2+x,1/2+y,z
1/2-x,1/2+y,1/2-z
1/2-x,1/2-y,-z
1/2+x,1/2-y,1/2+z
loop_
_atom_site_type_symbol
_atom_site_label
_atom_site_fract_x
_atom_site_fract_y
_atom_site_fract_z
Si Si1 0.491891 0.961636 0.804384
Si Si2 0.787931 0.439739 0.280887
Si Si3 0.578151 0.779325 0.471802
Si Si4 0.223942 0.049208 0.489235
Si Si5 0.972225 0.790103 0.111643
Si Si6 0.935301 0.374186 0.932276
O O1 0.500000 0.974366 0.750000
O O2 0.520694 0.808926 0.837417
O O3 0.345252 0.008575 0.757155
O O4 0.628552 0.047341 0.898686
O O5 0.629342 0.369692 0.192790
O O6 0.800022 0.563264 0.327522
O O7 0.917416 0.339124 0.370313
O O8 0.711008 0.884187 0.526754
O O9 0.607353 0.646683 0.454847
O O10 0.591036 0.764218 0.538438
O O11 0.156126 0.900724 0.450611
O O12 0.962774 0.694243 0.057026
O O13 0.000000 0.500000 0.000000
#
# Coordination Sequence:
#
# PCOD9288541 Si02
#       6
#     8   8   8   8   8   8
#     4  10  23  40  57  85 125 156 200 252 301 356
#     4   9  21  39  60  88 121 154 200 253 298 360
#     4   9  20  40  62  85 125 159 199 248 305 361
#     4  10  22  39  61  90 119 162 201 248 304 364
#     4  11  23  37  65  89 121 159 206 252 302 362
#     4   9  20  39  59  87 120 159 198 251 301 359
#
# _framework density 20.351507999999999
#
# number of rings (size 3 to 8) (size 9 to 14) (size 15 to 20)
#    0.000    2.333    0.000    1.500    7.000    4.667 
#    0.000    0.000    0.000    0.000    0.000    0.000 
#    0.000    0.000    0.000    0.000    0.000    0.000 
#
# Total GULP energy -133831.193984 kJ/mol
# GULP energy per Si atom -5576.299749 kJ/mol
# Density = 2.030519 g / cm^3
# Si number density = 20.351508 Si / 1000 Ang^3
#
#
#
# Elastic Constant Matrix: (Units=GPa)
#
#
# Indices 1 2 3 4 5 6 
#
# 1 68.0020 -8.0892 39.5104 0.0000 -19.4794 0.0000
# 2 -8.0892 42.1558 0.5133 0.0000 5.0187 0.0000
# 3 39.5104 0.5133 43.8418 0.0000 -3.8055 0.0000
# 4 0.0000 0.0000 0.0000 28.3734 0.0000 11.0881
# 5 -19.4794 5.0187 -3.8055 0.0000 31.1144 0.0000
# 6 0.0000 0.0000 0.0000 11.0881 0.0000 37.2118
#
#
#
# Elastic Compliance Matrix: (Units=1/GPa)
#
#
# Indices 1 2 3 4 5 6 
#
# 1 0.043138 0.006173 -0.037085 0.000000 0.021476 0.000000
# 2 0.006173 0.025086 -0.005935 0.000000 -0.000908 0.000000
# 3 -0.037085 -0.005935 0.054951 0.000000 -0.015539 0.000000
# 4 0.000000 0.000000 0.000000 0.039889 0.000000 -0.011886
# 5 0.021476 -0.000908 -0.015539 0.000000 0.043830 0.000000
# 6 0.000000 0.000000 0.000000 -0.011886 0.000000 0.030415
#
#
# Mechanical properties :
#
#
# Convention : Reuss Voigt Hill
#
# Bulk Modulus (GPa) = 20.20984 24.20764 22.20874
# Shear Modulus (GPa) = 15.26724 27.47761 21.37243
#
# Velocity S-wave (km/s) = 2.74191 3.67843 3.24414
# Velocity P-wave (km/s) = 4.46946 5.47373 4.99688
#
# Compressibility (1/GPa) = 0.04948084
#
# Stress axis : x y z
#
# Youngs Moduli (GPa) = 23.18118 39.86231 18.19807
#
# Poissons Ratio (x) = -0.24606 0.67487
# Poissons Ratio (y) = -0.14309 0.10801
# Poissons Ratio (z) = 0.85967 0.23660
#
# Static dielectric constant tensor:
#      x y z
#    x 1.740820 0.000000 0.000090 
#    y 0.000000 1.790960 0.000000 
#    z 0.000090 0.000000 1.717620 
# 
# From -- ./inp_files/298795.got.cif
#   From: 2010.05.17/outbox.cif.g08.bks.cpg/sg15_150_cif.got.tgz:298795.got - 2010.06.03 18:47:42.
