data_PCOD9288131
_publ_section_title
;
Structure prediction by ZEFSAII (Michael W. Deem and Ramdas Pophale) SiO2 
 PCOD9288131
Probable space group: C 2/C
;
_chemical_formula_sum "Si O2"
_cell_formula_units_Z 64
_cell_length_a 23.627749
_cell_length_b 15.193148
_cell_length_c 8.387377
_cell_angle_alpha 90.000000
_cell_angle_beta 96.108844
_cell_angle_gamma 90.000000
_cell_volume 2993.802347
_symmetry_space_group_name_H-M "C 2/C"
_symmetry_group_IT_number 15
_symmetry_cell_setting 'monoclinic'
loop_
_space_group_symop_operation_xyz
x,y,z
-x,y,1/2-z
-x,-y,-z
x,-y,1/2+z
1/2+x,1/2+y,z
1/2-x,1/2+y,1/2-z
1/2-x,1/2-y,-z
1/2+x,1/2-y,1/2+z
loop_
_atom_site_type_symbol
_atom_site_label
_atom_site_fract_x
_atom_site_fract_y
_atom_site_fract_z
Si Si1 0.868606 0.867378 0.321145
Si Si2 0.358727 0.525673 0.505160
Si Si3 0.730839 0.077321 0.382944
Si Si4 0.525953 0.243085 0.096617
Si Si5 0.105049 0.615882 0.948545
Si Si6 0.472403 0.589421 0.415106
Si Si7 0.210818 0.276682 0.632864
Si Si8 0.651472 0.951317 0.145088
O O1 0.919879 0.800046 0.329785
O O2 0.811730 0.811414 0.291766
O O3 0.869753 0.922242 0.484586
O O4 0.871255 0.937856 0.182910
O O5 0.292702 0.542288 0.448342
O O6 0.404765 0.575702 0.408941
O O7 0.738256 0.160902 0.271917
O O8 0.689734 0.095992 0.521751
O O9 0.696696 0.005309 0.267601
O O10 0.500000 0.202987 0.250000
O O11 0.548866 0.169269 0.982462
O O12 0.487183 0.319431 0.008732
O O13 0.157493 0.671554 0.039016
O O14 0.111675 0.521300 0.038585
O O15 0.115866 0.604453 0.763071
O O16 0.500000 0.595091 0.250000
O O17 0.500000 0.500000 0.500000
O O18 0.250000 0.250000 0.500000
#
# Coordination Sequence:
#
# PCOD9288131 Si02
#       8
#     8   8   8   8   8   8   8   8
#     4  11  25  39  60  90 124 168 214 255 316 380
#     4  12  24  37  63  91 122 169 221 250 310 384
#     4  10  22  38  64  89 132 168 210 263 316 387
#     4  11  22  45  64  90 130 170 211 272 325 372
#     4   9  21  40  69  93 125 167 208 269 329 388
#     4  12  24  41  63  89 123 171 219 266 313 373
#     4  10  24  40  56  89 131 172 208 263 321 376
#     4   9  19  42  66  96 125 165 212 261 332 390
#
# _framework density 21.377497000000002
#
# number of rings (size 3 to 8) (size 9 to 14) (size 15 to 20)
#    0.000    1.500    2.500    1.875    8.750    1.500 
#    2.250    1.875    0.000    0.000    0.000    0.000 
#    0.000    0.000    0.000    0.000    0.000    0.000 
#
# Total GULP energy -178781.322540 kJ/mol
# GULP energy per Si atom -5586.916329 kJ/mol
# Density = 2.132884 g / cm^3
# Si number density = 21.377497 Si / 1000 Ang^3
#
#
#
# Elastic Constant Matrix: (Units=GPa)
#
#
# Indices 1 2 3 4 5 6 
#
# 1 58.2555 34.8536 17.9729 0.0000 -27.1561 0.0000
# 2 34.8536 54.4598 34.3518 0.0000 -23.8646 0.0000
# 3 17.9729 34.3518 110.0809 0.0000 -37.9274 0.0000
# 4 0.0000 0.0000 0.0000 39.7931 0.0000 -13.9813
# 5 -27.1561 -23.8646 -37.9274 0.0000 31.6236 0.0000
# 6 0.0000 0.0000 0.0000 -13.9813 0.0000 19.7748
#
#
#
# Elastic Compliance Matrix: (Units=1/GPa)
#
#
# Indices 1 2 3 4 5 6 
#
# 1 0.040293 -0.017550 0.010662 0.000000 0.034144 0.000000
# 2 -0.017550 0.035467 -0.007112 0.000000 0.003164 0.000000
# 3 0.010662 -0.007112 0.018522 0.000000 0.026003 0.000000
# 4 0.000000 0.000000 0.000000 0.033436 0.000000 0.023640
# 5 0.034144 0.003164 0.026003 0.000000 0.094516 0.000000
# 6 0.000000 0.000000 0.000000 0.023640 0.000000 0.067284
#
#
# Mechanical properties :
#
#
# Convention : Reuss Voigt Hill
#
# Bulk Modulus (GPa) = 15.08740 44.12809 29.60775
# Shear Modulus (GPa) = 14.72275 27.27949 21.00112
#
# Velocity S-wave (km/s) = 2.62716 3.57611 3.13772
# Velocity P-wave (km/s) = 4.03430 6.14317 5.19683
#
# Compressibility (1/GPa) = 0.06628045
#
# Stress axis : x y z
#
# Youngs Moduli (GPa) = 24.81846 28.19543 53.99035
#
# Poissons Ratio (x) = 0.49484 -0.57565
# Poissons Ratio (y) = 0.43557 0.38399
# Poissons Ratio (z) = -0.26462 0.20053
#
# Static dielectric constant tensor:
#      x y z
#    x 1.791540 0.000000 -0.018410 
#    y 0.000000 1.780010 0.000000 
#    z -0.018410 0.000000 1.811240 
# 
# From -- ./inp_files/61945.got.cif
#   From: 2010.05.17/outbox.cif.g08.bks.cpg/sg15_31_cif.got.tgz:61945.got - 2010.06.03 18:47:42.
