data_PCOD9288342
_publ_section_title
;
Structure prediction by ZEFSAII (Michael W. Deem and Ramdas Pophale) SiO2 
 PCOD9288342
Probable space group: C 2/C
;
_chemical_formula_sum "Si O2"
_cell_formula_units_Z 32
_cell_length_a 12.433587
_cell_length_b 5.929525
_cell_length_c 26.919722
_cell_angle_alpha 90.000000
_cell_angle_beta 136.561570
_cell_angle_gamma 90.000000
_cell_volume 1364.604488
_symmetry_space_group_name_H-M "C 2/C"
_symmetry_group_IT_number 15
_symmetry_cell_setting 'monoclinic'
loop_
_space_group_symop_operation_xyz
x,y,z
-x,y,1/2-z
-x,-y,-z
x,-y,1/2+z
1/2+x,1/2+y,z
1/2-x,1/2+y,1/2-z
1/2-x,1/2-y,-z
1/2+x,1/2-y,1/2+z
loop_
_atom_site_type_symbol
_atom_site_label
_atom_site_fract_x
_atom_site_fract_y
_atom_site_fract_z
Si Si1 0.415934 0.164769 0.171995
Si Si2 0.674392 0.548875 0.435705
Si Si3 0.474733 0.978491 0.095338
Si Si4 0.126877 0.148319 0.572643
O O1 0.500000 0.239044 0.250000
O O2 0.380030 0.363796 0.121436
O O3 0.514490 0.011052 0.166692
O O4 0.262415 0.023108 0.135585
O O5 0.533764 0.703409 0.410250
O O6 0.792451 0.474696 0.518909
O O7 0.787422 0.696859 0.439059
O O8 0.563383 0.164283 0.091142
O O9 0.000000 0.000000 0.500000
#
# Coordination Sequence:
#
# PCOD9288342 Si02
#       4
#     8   8   8   8
#     4  11  25  44  63  96 144 181 230 297 358 423
#     4  10  22  38  68  98 134 177 227 292 351 419
#     4  10  22  40  68  99 130 176 231 284 349 421
#     4  11  23  40  70 103 131 172 240 289 347 431
#
# _framework density 23.450018
#
# number of rings (size 3 to 8) (size 9 to 14) (size 15 to 20)
#    0.000    1.500    2.500    1.500    7.000    4.000 
#    4.500    0.000    0.000    0.000    0.000    0.000 
#    0.000    0.000    0.000    0.000    0.000    0.000 
#
# Total GULP energy -89073.353225 kJ/mol
# GULP energy per Si atom -5567.084577 kJ/mol
# Density = 2.339664 g / cm^3
# Si number density = 23.450018 Si / 1000 Ang^3
#
#
#
# Elastic Constant Matrix: (Units=GPa)
#
#
# Indices 1 2 3 4 5 6 
#
# 1 141.7349 49.3228 26.4987 -0.0001 -18.7214 0.0000
# 2 49.3228 111.7573 33.6714 -0.0001 -8.0496 0.0000
# 3 26.4987 33.6714 107.8635 0.0000 -43.8396 0.0000
# 4 -0.0001 -0.0001 0.0000 18.4222 0.0000 -5.1461
# 5 -18.7214 -8.0496 -43.8396 0.0000 31.7690 0.0000
# 6 0.0000 0.0000 0.0000 -5.1461 0.0000 73.0036
#
#
#
# Elastic Compliance Matrix: (Units=1/GPa)
#
#
# Indices 1 2 3 4 5 6 
#
# 1 0.009017 -0.004033 0.001795 0.000000 0.006769 0.000000
# 2 -0.004033 0.011908 -0.005616 0.000000 -0.007109 0.000000
# 3 0.001795 -0.005616 0.023762 0.000000 0.032424 0.000000
# 4 0.000000 0.000000 0.000000 0.055373 0.000000 0.003903
# 5 0.006769 -0.007109 0.032424 0.000000 0.078409 0.000000
# 6 0.000000 0.000000 0.000000 0.003903 0.000000 0.013973
#
#
# Mechanical properties :
#
#
# Convention : Reuss Voigt Hill
#
# Bulk Modulus (GPa) = 34.50802 64.48237 49.49520
# Shear Modulus (GPa) = 22.95594 41.42983 32.19289
#
# Velocity S-wave (km/s) = 3.13218 4.20781 3.70919
# Velocity P-wave (km/s) = 5.27525 7.15297 6.28463
#
# Compressibility (1/GPa) = 0.02897877
#
# Stress axis : x y z
#
# Youngs Moduli (GPa) = 110.89714 83.97884 42.08478
#
# Poissons Ratio (x) = 0.33868 -0.07553
# Poissons Ratio (y) = 0.44724 0.23634
# Poissons Ratio (z) = -0.19902 0.47160
#
# Static dielectric constant tensor:
#      x y z
#    x 1.987360 0.000000 0.011250 
#    y 0.000000 2.131920 0.000000 
#    z 0.011250 0.000000 1.836240 
# 
# From -- ./inp_files/312207.got.cif
#   From: 2010.05.17/outbox.cif.g08.bks.cpg/sg15_157_cif.got.tgz:312207.got - 2010.06.03 18:47:42.
