data_PCOD9288206
_publ_section_title
;
Structure prediction by ZEFSAII (Michael W. Deem and Ramdas Pophale) SiO2 
 PCOD9288206
Probable space group: C 2/C
;
_chemical_formula_sum "Si O2"
_cell_formula_units_Z 40
_cell_length_a 22.159834
_cell_length_b 5.541237
_cell_length_c 16.044017
_cell_angle_alpha 90.000000
_cell_angle_beta 102.433445
_cell_angle_gamma 90.000000
_cell_volume 1923.886236
_symmetry_space_group_name_H-M "C 2/C"
_symmetry_group_IT_number 15
_symmetry_cell_setting 'monoclinic'
loop_
_space_group_symop_operation_xyz
x,y,z
-x,y,1/2-z
-x,-y,-z
x,-y,1/2+z
1/2+x,1/2+y,z
1/2-x,1/2+y,1/2-z
1/2-x,1/2-y,-z
1/2+x,1/2-y,1/2+z
loop_
_atom_site_type_symbol
_atom_site_label
_atom_site_fract_x
_atom_site_fract_y
_atom_site_fract_z
Si Si1 0.050125 0.162531 0.819367
Si Si2 0.008071 0.808799 0.929922
Si Si3 0.306322 0.893657 0.346371
Si Si4 0.094082 0.429898 0.999641
Si Si5 0.169893 0.895268 0.244261
O O1 0.108908 0.104024 0.781447
O O2 0.000000 0.310708 0.750000
O O3 0.010422 0.937043 0.842611
O O4 0.075171 0.283977 0.911502
O O5 0.952130 0.627639 0.935434
O O6 0.075058 0.695846 0.966629
O O7 0.000000 0.000000 0.000000
O O8 0.337706 0.895312 0.446269
O O9 0.232232 0.894890 0.318352
O O10 0.327253 0.642629 0.308576
O O11 0.327935 0.144147 0.307870
#
# Coordination Sequence:
#
# PCOD9288206 Si02
#       5
#     8   8   8   8   8
#     4  11  24  37  60  94 129 161 208 268 315 367
#     4   9  21  38  56  90 122 164 203 253 317 372
#     4  10  23  44  67  89 125 174 212 252 316 377
#     4  10  22  38  65  88 124 171 210 254 315 381
#     4  10  24  43  65  94 127 165 212 264 310 372
#
# _framework density 20.791249000000001
#
# number of rings (size 3 to 8) (size 9 to 14) (size 15 to 20)
#    0.000    2.000    0.000    1.200   16.800    1.600 
#    0.000    1.000    0.000    0.000    0.000    0.000 
#    0.000    0.000    0.000    0.000    0.000    0.000 
#
# Total GULP energy -111453.428771 kJ/mol
# GULP energy per Si atom -5572.671439 kJ/mol
# Density = 2.074393 g / cm^3
# Si number density = 20.791249 Si / 1000 Ang^3
#
#
#
# Elastic Constant Matrix: (Units=GPa)
#
#
# Indices 1 2 3 4 5 6 
#
# 1 95.2466 24.2363 55.2135 0.0000 2.0853 0.0000
# 2 24.2363 96.1316 31.4534 0.0000 5.0032 0.0000
# 3 55.2135 31.4534 130.1902 0.0000 35.8080 0.0000
# 4 0.0000 0.0000 0.0000 18.4323 0.0000 8.0711
# 5 2.0853 5.0032 35.8080 0.0000 37.4634 0.0000
# 6 0.0000 0.0000 0.0000 8.0711 0.0000 14.1485
#
#
#
# Elastic Compliance Matrix: (Units=1/GPa)
#
#
# Indices 1 2 3 4 5 6 
#
# 1 0.015465 -0.001610 -0.008129 0.000000 0.007124 0.000000
# 2 -0.001610 0.011525 -0.002310 0.000000 0.000759 0.000000
# 3 -0.008129 -0.002310 0.015571 0.000000 -0.014122 0.000000
# 4 0.000000 0.000000 0.000000 0.072317 0.000000 -0.041254
# 5 0.007124 0.000759 -0.014122 0.000000 0.039693 0.000000
# 6 0.000000 0.000000 0.000000 -0.041254 0.000000 0.094213
#
#
# Mechanical properties :
#
#
# Convention : Reuss Voigt Hill
#
# Bulk Modulus (GPa) = 54.16536 60.37497 57.27017
# Shear Modulus (GPa) = 17.91881 28.05318 22.98599
#
# Velocity S-wave (km/s) = 2.93890 3.67724 3.32861
# Velocity P-wave (km/s) = 6.13390 6.86521 6.50983
#
# Compressibility (1/GPa) = 0.01846198
#
# Stress axis : x y z
#
# Youngs Moduli (GPa) = 64.66119 86.77022 64.22215
#
# Poissons Ratio (x) = 0.13970 0.52208
# Poissons Ratio (y) = 0.10410 0.14836
# Poissons Ratio (z) = 0.52565 0.20045
#
# Static dielectric constant tensor:
#      x y z
#    x 1.734810 0.000000 0.037120 
#    y 0.000000 1.848340 0.000000 
#    z 0.037120 0.000000 1.830020 
# 
# From -- ./inp_files/170747.got.cif
#   From: 2010.05.17/outbox.cif.g08.bks.cpg/sg15_86_cif.got.tgz:170747.got - 2010.06.03 18:47:42.
