data_PCOD9288221
_publ_section_title
;
Structure prediction by ZEFSAII (Michael W. Deem and Ramdas Pophale) SiO2 
 PCOD9288221
Probable space group: C 2/C
;
_chemical_formula_sum "Si O2"
_cell_formula_units_Z 56
_cell_length_a 27.487242
_cell_length_b 9.051222
_cell_length_c 16.546587
_cell_angle_alpha 90.000000
_cell_angle_beta 40.359527
_cell_angle_gamma 90.000000
_cell_volume 2665.885201
_symmetry_space_group_name_H-M "C 2/C"
_symmetry_group_IT_number 15
_symmetry_cell_setting 'monoclinic'
loop_
_space_group_symop_operation_xyz
x,y,z
-x,y,1/2-z
-x,-y,-z
x,-y,1/2+z
1/2+x,1/2+y,z
1/2-x,1/2+y,1/2-z
1/2-x,1/2-y,-z
1/2+x,1/2-y,1/2+z
loop_
_atom_site_type_symbol
_atom_site_label
_atom_site_fract_x
_atom_site_fract_y
_atom_site_fract_z
Si Si1 0.475180 0.844596 0.490928
Si Si2 0.923828 0.422558 0.377551
Si Si3 0.748792 0.625269 0.846648
Si Si4 0.115530 0.225907 0.231499
Si Si5 0.804092 0.654068 0.507368
Si Si6 0.329213 0.456066 0.423165
Si Si7 0.311509 0.189950 0.225129
O O1 0.444901 0.856166 0.437127
O O2 0.551187 0.752219 0.380095
O O3 0.400041 0.788399 0.630899
O O4 0.500000 0.000000 0.500000
O O5 0.902502 0.314223 0.329638
O O6 0.857823 0.535880 0.477864
O O7 0.000000 0.500184 0.250000
O O8 0.806580 0.711996 0.831208
O O9 0.714557 0.736990 0.825478
O O10 0.792556 0.484647 0.753048
O O11 0.681465 0.551796 0.982783
O O12 0.125053 0.054752 0.196743
O O13 0.755903 0.569396 0.501023
O O14 0.853332 0.789343 0.410378
O O15 0.741974 0.727367 0.643224
#
# Coordination Sequence:
#
# PCOD9288221 Si02
#       7
#     8   8   8   8   8   8   8
#     4  11  23  41  63  93 133 168 217 265 326 396
#     4  10  22  40  67  93 122 170 217 267 323 388
#     4  11  22  39  65  95 129 161 219 267 324 388
#     4  11  22  40  67  95 123 166 222 270 320 385
#     4  10  22  40  62  95 131 166 212 268 327 393
#     4  10  22  38  65  93 124 164 216 270 320 380
#     4  11  24  39  63  96 130 172 212 267 329 392
#
# _framework density 21.006157000000002
#
# number of rings (size 3 to 8) (size 9 to 14) (size 15 to 20)
#    0.000    1.429    2.857    2.143    4.000    0.000 
#    0.000    5.714    0.000    0.000    0.000    0.000 
#    0.000    0.000    0.000    0.000    0.000    0.000 
#
# Total GULP energy -156235.793383 kJ/mol
# GULP energy per Si atom -5579.849764 kJ/mol
# Density = 2.095835 g / cm^3
# Si number density = 21.006157 Si / 1000 Ang^3
#
#
#
# Elastic Constant Matrix: (Units=GPa)
#
#
# Indices 1 2 3 4 5 6 
#
# 1 62.6215 10.6167 -0.2829 -0.0001 7.8408 0.0002
# 2 10.6167 80.1221 45.2091 0.0000 -1.4342 0.0004
# 3 -0.2829 45.2091 90.7685 -0.0007 -6.6697 0.0005
# 4 -0.0001 0.0000 -0.0007 37.1022 0.0004 1.6630
# 5 7.8408 -1.4342 -6.6697 0.0004 23.4728 -0.0004
# 6 0.0002 0.0004 0.0005 1.6630 -0.0004 27.5543
#
#
#
# Elastic Compliance Matrix: (Units=1/GPa)
#
#
# Indices 1 2 3 4 5 6 
#
# 1 0.017188 -0.003026 0.001149 0.000000 -0.005600 0.000000
# 2 -0.003026 0.017939 -0.008977 0.000000 -0.000444 0.000000
# 3 0.001149 -0.008977 0.015752 0.000000 0.003543 0.000000
# 4 0.000000 0.000000 0.000000 0.027026 0.000000 -0.001631
# 5 -0.005600 -0.000444 0.003543 0.000000 0.045453 0.000001
# 6 0.000000 0.000000 0.000000 -0.001631 0.000001 0.036390
#
#
# Mechanical properties :
#
#
# Convention : Reuss Voigt Hill
#
# Bulk Modulus (GPa) = 34.27958 38.28866 36.28412
# Shear Modulus (GPa) = 26.15323 29.49047 27.82185
#
# Velocity S-wave (km/s) = 3.53232 3.75093 3.64326
# Velocity P-wave (km/s) = 5.74375 6.08491 5.91679
#
# Compressibility (1/GPa) = 0.02917189
#
# Stress axis : x y z
#
# Youngs Moduli (GPa) = 58.17878 55.74325 63.48308
#
# Poissons Ratio (x) = 0.16870 -0.07297
# Poissons Ratio (y) = 0.17607 0.56990
# Poissons Ratio (z) = -0.06687 0.50041
#
# Static dielectric constant tensor:
#      x y z
#    x 1.760320 0.000000 0.035830 
#    y 0.000000 1.764640 0.000000 
#    z 0.035830 0.000000 1.840540 
# 
# From -- ./inp_files/222025.got.cif
#   From: 2010.05.17/outbox.cif.g08.bks.cpg/sg15_112_cif.got.tgz:222025.got - 2010.06.03 18:47:42.
