data_PCOD9288819
_publ_section_title
;
Structure prediction by ZEFSAII (Michael W. Deem and Ramdas Pophale) SiO2 
 PCOD9288819
Probable space group: C 2/C
;
_chemical_formula_sum "Si O2"
_cell_formula_units_Z 60
_cell_length_a 19.524108
_cell_length_b 11.686817
_cell_length_c 14.683732
_cell_angle_alpha 90.000000
_cell_angle_beta 120.798837
_cell_angle_gamma 90.000000
_cell_volume 2877.942000
_symmetry_space_group_name_H-M "C 2/C"
_symmetry_group_IT_number 15
_symmetry_cell_setting 'monoclinic'
loop_
_space_group_symop_operation_xyz
x,y,z
-x,y,1/2-z
-x,-y,-z
x,-y,1/2+z
1/2+x,1/2+y,z
1/2-x,1/2+y,1/2-z
1/2-x,1/2-y,-z
1/2+x,1/2-y,1/2+z
loop_
_atom_site_type_symbol
_atom_site_label
_atom_site_fract_x
_atom_site_fract_y
_atom_site_fract_z
Si Si1 0.500000 0.911288 0.750000
Si Si2 0.014428 0.082367 0.924233
Si Si3 0.880286 0.777804 0.237217
Si Si4 0.905340 0.720459 0.908650
Si Si5 0.304518 0.001025 0.903850
Si Si6 0.678399 0.575674 0.960982
Si Si7 0.036708 0.569763 0.939590
Si Si8 0.261902 0.360789 0.797332
O O1 0.563370 0.829679 0.744574
O O2 0.537936 0.991382 0.851997
O O3 0.088862 0.029252 0.919033
O O4 0.935387 0.120240 0.815185
O O5 0.049360 0.203096 0.985713
O O6 0.000000 0.000000 0.000000
O O7 0.840970 0.814844 0.115209
O O8 0.808550 0.732727 0.250135
O O9 0.852268 0.620478 0.920042
O O10 0.842561 0.802601 0.816972
O O11 0.973192 0.670820 0.889286
O O12 0.263284 0.966206 0.781757
O O13 0.240267 0.007702 0.940188
O O14 0.372454 0.907451 0.972584
O O15 0.718502 0.603116 0.085349
O O16 0.000000 0.500000 0.000000
#
# Coordination Sequence:
#
# PCOD9288819 Si02
#       8
#     4   8   8   8   8   8   8   8
#     4  12  22  38  70  98 126 170 234 288 338 402
#     4  11  25  42  67  98 135 182 223 280 347 410
#     4  12  21  39  65 100 129 164 231 287 340 399
#     4  10  22  41  63  94 135 168 226 276 340 398
#     4  11  22  41  65  98 133 176 224 279 347 402
#     4  11  24  39  64  97 132 166 226 285 332 403
#     4  10  22  39  65  96 132 171 217 279 348 407
#     4  11  24  37  67  95 134 172 217 287 338 403
#
# _framework density 20.848231999999999
#
# number of rings (size 3 to 8) (size 9 to 14) (size 15 to 20)
#    0.000    1.067    2.667    5.200    9.333    0.000 
#    0.000    1.333    0.000    4.800    0.000    0.000 
#    0.000    0.000    0.000    0.000    0.000    0.000 
#
# Total GULP energy -167472.640527 kJ/mol
# GULP energy per Si atom -5582.421351 kJ/mol
# Density = 2.080078 g / cm^3
# Si number density = 20.848232 Si / 1000 Ang^3
#
#
#
# Elastic Constant Matrix: (Units=GPa)
#
#
# Indices 1 2 3 4 5 6 
#
# 1 102.7163 36.5512 40.6314 0.0000 14.9151 0.0000
# 2 36.5512 49.7513 47.2099 0.0000 -1.0999 0.0000
# 3 40.6314 47.2099 133.3397 0.0000 10.0513 0.0000
# 4 0.0000 0.0000 0.0000 42.1045 0.0000 -6.2971
# 5 14.9151 -1.0999 10.0513 0.0000 27.4983 0.0000
# 6 0.0000 0.0000 0.0000 -6.2971 0.0000 23.3426
#
#
#
# Elastic Compliance Matrix: (Units=1/GPa)
#
#
# Indices 1 2 3 4 5 6 
#
# 1 0.014956 -0.011246 0.000072 0.000000 -0.008588 0.000000
# 2 -0.011246 0.039488 -0.011448 0.000000 0.011864 0.000000
# 3 0.000072 -0.011448 0.011896 0.000000 -0.004845 0.000000
# 4 0.000000 0.000000 0.000000 0.024749 0.000000 0.006676
# 5 -0.008588 0.011864 -0.004845 0.000000 0.043270 0.000000
# 6 0.000000 0.000000 0.000000 0.006676 0.000000 0.044641
#
#
# Mechanical properties :
#
#
# Convention : Reuss Voigt Hill
#
# Bulk Modulus (GPa) = 47.40405 59.39915 53.40160
# Shear Modulus (GPa) = 21.61909 29.35007 25.48458
#
# Velocity S-wave (km/s) = 3.22370 3.75613 3.50006
# Velocity P-wave (km/s) = 6.05338 6.88218 6.48104
#
# Compressibility (1/GPa) = 0.02109524
#
# Stress axis : x y z
#
# Youngs Moduli (GPa) = 66.86272 25.32423 84.05845
#
# Poissons Ratio (x) = 0.28479 -0.00602
# Poissons Ratio (y) = 0.75192 0.96234
# Poissons Ratio (z) = -0.00479 0.28992
#
# Static dielectric constant tensor:
#      x y z
#    x 1.804360 0.000000 0.046370 
#    y 0.000000 1.789420 0.000000 
#    z 0.046370 0.000000 1.772280 
# 
# From -- ./inp_files/167699.got.cif
#   From: 2010.05.17/outbox.cif.g08.bks.cpg/sg15_84_cif.got.tgz:167699.got - 2010.06.03 18:47:42.
