data_PCOD9288531
_publ_section_title
;
Structure prediction by ZEFSAII (Michael W. Deem and Ramdas Pophale) SiO2 
 PCOD9288531
Probable space group: C 2/C
;
_chemical_formula_sum "Si O2"
_cell_formula_units_Z 64
_cell_length_a 28.323700
_cell_length_b 19.481352
_cell_length_c 8.806275
_cell_angle_alpha 90.000000
_cell_angle_beta 136.553865
_cell_angle_gamma 90.000000
_cell_volume 3341.510833
_symmetry_space_group_name_H-M "C 2/C"
_symmetry_group_IT_number 15
_symmetry_cell_setting 'monoclinic'
loop_
_space_group_symop_operation_xyz
x,y,z
-x,y,1/2-z
-x,-y,-z
x,-y,1/2+z
1/2+x,1/2+y,z
1/2-x,1/2+y,1/2-z
1/2-x,1/2-y,-z
1/2+x,1/2-y,1/2+z
loop_
_atom_site_type_symbol
_atom_site_label
_atom_site_fract_x
_atom_site_fract_y
_atom_site_fract_z
Si Si1 0.987431 0.895845 0.902272
Si Si2 0.360442 0.241518 0.292010
Si Si3 0.139103 0.271066 0.346293
Si Si4 0.254380 0.646095 0.619410
Si Si5 0.266179 0.653017 0.004671
Si Si6 0.695882 0.501252 0.833485
Si Si7 0.602009 0.479566 0.350040
Si Si8 0.999058 0.750725 0.068081
O O1 0.000000 0.894991 0.750000
O O2 0.923257 0.945786 0.759919
O O3 0.045495 0.927798 0.151270
O O4 0.975832 0.820189 0.930732
O O5 0.372747 0.233593 0.500612
O O6 0.321333 0.315883 0.201029
O O7 0.428144 0.236915 0.344526
O O8 0.308399 0.182807 0.112438
O O9 0.204429 0.318401 0.462079
O O10 0.165489 0.200491 0.324126
O O11 0.066621 0.297915 0.112769
O O12 0.249672 0.663398 0.787333
O O13 0.260348 0.563478 0.632900
O O14 0.274924 0.573713 0.068458
O O15 0.624087 0.489710 0.574459
O O16 0.674423 0.534642 0.943167
O O17 0.000000 0.761442 0.250000
#
# Coordination Sequence:
#
# PCOD9288531 Si02
#       8
#     8   8   8   8   8   8   8   8
#     4  11  23  38  52  77 120 160 200 241 287 349
#     4  10  22  41  63  85 120 158 202 249 302 355
#     4  10  22  40  62  87 118 159 200 252 300 352
#     4  10  22  40  59  88 120 158 200 252 297 353
#     4  10  22  39  61  88 124 153 203 252 296 353
#     4  12  22  37  59  86 119 159 197 243 299 354
#     4  11  24  35  53  82 120 160 196 236 289 355
#     4  12  25  37  61  86 116 159 202 246 299 357
#
# _framework density 19.153013000000001
#
# number of rings (size 3 to 8) (size 9 to 14) (size 15 to 20)
#    0.000    1.250    2.500    3.375    7.000    1.000 
#    0.000    0.000    0.000    0.750    0.000    0.000 
#    0.000    0.000    0.000    0.000    0.000    0.000 
#
# Total GULP energy -178201.550607 kJ/mol
# GULP energy per Si atom -5568.798456 kJ/mol
# Density = 1.910942 g / cm^3
# Si number density = 19.153013 Si / 1000 Ang^3
#
#
#
# Elastic Constant Matrix: (Units=GPa)
#
#
# Indices 1 2 3 4 5 6 
#
# 1 129.6036 16.1081 33.5596 0.0000 3.6703 0.0000
# 2 16.1081 68.4971 32.8998 0.0000 -1.5054 0.0000
# 3 33.5596 32.8998 83.2977 0.0000 1.4527 0.0000
# 4 0.0000 0.0000 0.0000 11.6799 0.0000 -9.2308
# 5 3.6703 -1.5054 1.4527 0.0000 26.6579 0.0000
# 6 0.0000 0.0000 0.0000 -9.2308 0.0000 19.7855
#
#
#
# Elastic Compliance Matrix: (Units=1/GPa)
#
#
# Indices 1 2 3 4 5 6 
#
# 1 0.008654 -0.000484 -0.003277 0.000000 -0.001040 0.000000
# 2 -0.000484 0.018097 -0.006978 0.000000 0.001469 0.000000
# 3 -0.003277 -0.006978 0.016096 0.000000 -0.000820 0.000000
# 4 0.000000 0.000000 0.000000 0.135623 0.000000 0.063274
# 5 -0.001040 0.001469 -0.000820 0.000000 0.037783 0.000000
# 6 0.000000 0.000000 0.000000 0.063274 0.000000 0.080062
#
#
# Mechanical properties :
#
#
# Convention : Reuss Voigt Hill
#
# Bulk Modulus (GPa) = 46.79909 49.61483 48.20696
# Shear Modulus (GPa) = 15.38852 24.88005 20.13428
#
# Velocity S-wave (km/s) = 2.83760 3.60810 3.24579
# Velocity P-wave (km/s) = 5.93492 6.58168 6.26665
#
# Compressibility (1/GPa) = 0.02136794
#
# Stress axis : x y z
#
# Youngs Moduli (GPa) = 115.55248 55.25776 62.12691
#
# Poissons Ratio (x) = 0.02674 0.20361
# Poissons Ratio (y) = 0.05591 0.43355
# Poissons Ratio (z) = 0.37871 0.38561
#
# Static dielectric constant tensor:
#      x y z
#    x 1.728440 0.000000 -0.029130 
#    y 0.000000 1.664070 0.000000 
#    z -0.029130 0.000000 1.737670 
# 
# From -- ./inp_files/70628.got.cif
#   From: 2010.05.17/outbox.cif.g08.bks.cpg/sg15_36_cif.got.tgz:70628.got - 2010.06.03 18:47:42.
