data_PCOD9288396
_publ_section_title
;
Structure prediction by ZEFSAII (Michael W. Deem and Ramdas Pophale) SiO2 
 PCOD9288396
Probable space group: C 2/C
;
_chemical_formula_sum "Si O2"
_cell_formula_units_Z 40
_cell_length_a 28.717650
_cell_length_b 12.049619
_cell_length_c 5.512648
_cell_angle_alpha 90.000000
_cell_angle_beta 81.891107
_cell_angle_gamma 90.000000
_cell_volume 1888.506349
_symmetry_space_group_name_H-M "C 2/C"
_symmetry_group_IT_number 15
_symmetry_cell_setting 'monoclinic'
loop_
_space_group_symop_operation_xyz
x,y,z
-x,y,1/2-z
-x,-y,-z
x,-y,1/2+z
1/2+x,1/2+y,z
1/2-x,1/2+y,1/2-z
1/2-x,1/2-y,-z
1/2+x,1/2-y,1/2+z
loop_
_atom_site_type_symbol
_atom_site_label
_atom_site_fract_x
_atom_site_fract_y
_atom_site_fract_z
Si Si1 0.708663 0.820809 0.400698
Si Si2 0.860944 0.524567 0.985368
Si Si3 0.281121 0.566056 0.557889
Si Si4 0.944393 0.932298 0.788963
Si Si5 0.860291 0.774999 0.882690
O O1 0.750000 0.750000 0.500000
O O2 0.735781 0.858114 0.136519
O O3 0.665501 0.742890 0.358135
O O4 0.683787 0.936863 0.508997
O O5 0.886012 0.485882 0.209178
O O6 0.855132 0.656272 0.013580
O O7 0.280030 0.514664 0.291238
O O8 0.328305 0.636493 0.544004
O O9 0.911827 0.823875 0.820050
O O10 0.000000 0.907516 0.750000
O O11 0.934307 0.997765 0.543767
#
# Coordination Sequence:
#
# PCOD9288396 Si02
#       5
#     8   8   8   8   8
#     4  11  23  41  60  87 127 175 218 258 310 376
#     4  10  22  39  57  83 120 163 209 254 305 361
#     4  12  24  38  56  85 123 164 211 254 302 369
#     4  10  23  45  70  97 127 161 209 269 333 398
#     4  11  23  39  63  91 124 167 213 264 323 379
#
# _framework density 21.180759999999999
#
# number of rings (size 3 to 8) (size 9 to 14) (size 15 to 20)
#    0.000    1.200    0.000    6.600    0.000    8.000 
#    0.000    0.000    0.000    4.800    0.000    0.000 
#    0.000    0.000    0.000    0.000    0.000    0.000 
#
# Total GULP energy -111502.878194 kJ/mol
# GULP energy per Si atom -5575.143910 kJ/mol
# Density = 2.113255 g / cm^3
# Si number density = 21.180760 Si / 1000 Ang^3
#
#
#
# Elastic Constant Matrix: (Units=GPa)
#
#
# Indices 1 2 3 4 5 6 
#
# 1 80.5988 62.6413 26.6733 0.0000 -2.1303 0.0000
# 2 62.6413 118.6004 43.9598 0.0000 -0.7772 0.0000
# 3 26.6733 43.9598 101.7114 0.0000 12.6048 0.0000
# 4 0.0000 0.0000 0.0000 37.8019 0.0000 -9.9786
# 5 -2.1303 -0.7772 12.6048 0.0000 17.7238 0.0000
# 6 0.0000 0.0000 0.0000 -9.9786 0.0000 29.4310
#
#
#
# Elastic Compliance Matrix: (Units=1/GPa)
#
#
# Indices 1 2 3 4 5 6 
#
# 1 0.021252 -0.010717 -0.001315 0.000000 0.003020 0.000000
# 2 -0.010717 0.015692 -0.004274 0.000000 0.002440 0.000000
# 3 -0.001315 -0.004274 0.013233 0.000000 -0.009757 0.000000
# 4 0.000000 0.000000 0.000000 0.029054 0.000000 0.009851
# 5 0.003020 0.002440 -0.009757 0.000000 0.063830 0.000000
# 6 0.000000 0.000000 0.000000 0.009851 0.000000 0.037318
#
#
# Mechanical properties :
#
#
# Convention : Reuss Voigt Hill
#
# Bulk Modulus (GPa) = 56.93535 63.05107 59.99321
# Shear Modulus (GPa) = 22.84707 28.16710 25.50709
#
# Velocity S-wave (km/s) = 3.28788 3.65066 3.47401
# Velocity P-wave (km/s) = 6.43060 6.89945 6.66915
#
# Compressibility (1/GPa) = 0.01756378
#
# Stress axis : x y z
#
# Youngs Moduli (GPa) = 47.05529 63.72533 75.56825
#
# Poissons Ratio (x) = 0.68295 0.09940
# Poissons Ratio (y) = 0.50430 0.32298
# Poissons Ratio (z) = 0.06190 0.27237
#
# Static dielectric constant tensor:
#      x y z
#    x 1.736190 0.000000 0.034910 
#    y 0.000000 1.860640 0.000000 
#    z 0.034910 0.000000 1.857570 
# 
# From -- ./inp_files/16722.got.cif
#   From: 2010.05.17/outbox.cif.g08.bks.cpg/sg15_9_cif.got.tgz:16722.got - 2010.06.03 18:47:42.
