data_PCOD9288925
_publ_section_title
;
Structure prediction by ZEFSAII (Michael W. Deem and Ramdas Pophale) SiO2 
 PCOD9288925
Probable space group: C 2/C
;
_chemical_formula_sum "Si O2"
_cell_formula_units_Z 40
_cell_length_a 9.112672
_cell_length_b 10.185750
_cell_length_c 22.814028
_cell_angle_alpha 90.000000
_cell_angle_beta 46.841771
_cell_angle_gamma 90.000000
_cell_volume 1544.708965
_symmetry_space_group_name_H-M "C 2/C"
_symmetry_group_IT_number 15
_symmetry_cell_setting 'monoclinic'
loop_
_space_group_symop_operation_xyz
x,y,z
-x,y,1/2-z
-x,-y,-z
x,-y,1/2+z
1/2+x,1/2+y,z
1/2-x,1/2+y,1/2-z
1/2-x,1/2-y,-z
1/2+x,1/2-y,1/2+z
loop_
_atom_site_type_symbol
_atom_site_label
_atom_site_fract_x
_atom_site_fract_y
_atom_site_fract_z
Si Si1 0.039306 0.656511 0.613942
Si Si2 0.441061 0.893607 0.588438
Si Si3 0.165815 0.700488 0.255455
Si Si4 0.046286 0.875432 0.446470
Si Si5 0.948448 0.939485 0.877939
O O1 0.927349 0.325847 0.655796
O O2 0.048401 0.533132 0.568068
O O3 0.077579 0.803053 0.577812
O O4 0.210740 0.635429 0.616216
O O5 0.524208 0.774979 0.525239
O O6 0.220627 0.931396 0.624879
O O7 0.318693 0.177156 0.703036
O O8 0.325795 0.582352 0.205692
O O9 0.000000 0.700657 0.250000
O O10 0.950436 0.928655 0.413133
O O11 0.000000 0.000000 0.500000
#
# Coordination Sequence:
#
# PCOD9288925 Si02
#       5
#     8   8   8   8   8
#     4   9  24  41  62  98 129 167 218 265 332 390
#     4  11  23  41  67  98 128 173 216 271 338 397
#     4  10  22  39  67  96 136 165 212 275 343 397
#     4  11  25  45  66  93 134 180 224 271 321 388
#     4   9  23  41  64  92 132 166 218 267 330 386
#
# _framework density 25.894845
#
# number of rings (size 3 to 8) (size 9 to 14) (size 15 to 20)
#    1.200    0.800    0.000    1.800    5.600    4.000 
#    0.000    2.000    0.000    0.000    0.000    0.000 
#    0.000    0.000    0.000    0.000    0.000    0.000 
#
# Total GULP energy -111612.467706 kJ/mol
# GULP energy per Si atom -5580.623385 kJ/mol
# Density = 2.583591 g / cm^3
# Si number density = 25.894845 Si / 1000 Ang^3
#
#
#
# Elastic Constant Matrix: (Units=GPa)
#
#
# Indices 1 2 3 4 5 6 
#
# 1 197.5042 76.7886 30.2225 0.0000 -7.2166 0.0000
# 2 76.7886 224.4798 34.8377 0.0000 -3.4775 0.0000
# 3 30.2225 34.8377 42.3679 0.0000 -5.8722 0.0000
# 4 0.0000 0.0000 0.0000 29.9612 0.0000 -6.4739
# 5 -7.2166 -3.4775 -5.8722 0.0000 32.5846 0.0000
# 6 0.0000 0.0000 0.0000 -6.4739 0.0000 39.1236
#
#
#
# Elastic Compliance Matrix: (Units=1/GPa)
#
#
# Indices 1 2 3 4 5 6 
#
# 1 0.006180 -0.001644 -0.002966 0.000000 0.000659 0.000000
# 2 -0.001644 0.005545 -0.003441 0.000000 -0.000392 0.000000
# 3 -0.002966 -0.003441 0.029134 0.000000 0.004226 0.000000
# 4 0.000000 0.000000 0.000000 0.034614 0.000000 0.005728
# 5 0.000659 -0.000392 0.004226 0.000000 0.031555 0.000000
# 6 0.000000 0.000000 0.000000 0.005728 0.000000 0.026508
#
#
# Mechanical properties :
#
#
# Convention : Reuss Voigt Hill
#
# Bulk Modulus (GPa) = 40.39182 83.11661 61.75421
# Shear Modulus (GPa) = 31.66770 41.83409 36.75090
#
# Velocity S-wave (km/s) = 3.50084 4.02374 3.77136
# Velocity P-wave (km/s) = 5.65451 7.33176 6.54707
#
# Compressibility (1/GPa) = 0.02475749
#
# Stress axis : x y z
#
# Youngs Moduli (GPa) = 161.80992 180.34349 34.32442
#
# Poissons Ratio (x) = 0.29641 0.10180
# Poissons Ratio (y) = 0.26595 0.11812
# Poissons Ratio (z) = 0.47988 0.62064
#
# Static dielectric constant tensor:
#      x y z
#    x 1.968680 0.000000 0.020430 
#    y 0.000000 2.021890 0.000000 
#    z 0.020430 0.000000 2.163160 
# 
# From -- ./inp_files/306427.got.cif
#   From: 2010.05.17/outbox.cif.g08.bks.cpg/sg15_154_cif.got.tgz:306427.got - 2010.06.03 18:47:42.
