data_PCOD9288304
_publ_section_title
;
Structure prediction by ZEFSAII (Michael W. Deem and Ramdas Pophale) SiO2 
 PCOD9288304
Probable space group: C 2/C
;
_chemical_formula_sum "Si O2"
_cell_formula_units_Z 32
_cell_length_a 5.613650
_cell_length_b 12.512486
_cell_length_c 21.527558
_cell_angle_alpha 90.000000
_cell_angle_beta 75.113898
_cell_angle_gamma 90.000000
_cell_volume 1461.362276
_symmetry_space_group_name_H-M "C 2/C"
_symmetry_group_IT_number 15
_symmetry_cell_setting 'monoclinic'
loop_
_space_group_symop_operation_xyz
x,y,z
-x,y,1/2-z
-x,-y,-z
x,-y,1/2+z
1/2+x,1/2+y,z
1/2-x,1/2+y,1/2-z
1/2-x,1/2-y,-z
1/2+x,1/2-y,1/2+z
loop_
_atom_site_type_symbol
_atom_site_label
_atom_site_fract_x
_atom_site_fract_y
_atom_site_fract_z
Si Si1 0.461609 0.918302 0.851791
Si Si2 0.000000 0.400644 0.250000
Si Si3 0.603777 0.351982 0.986924
Si Si4 0.243734 0.464974 0.946644
Si Si5 0.000000 0.230954 0.750000
O O1 0.259711 0.896708 0.917909
O O2 0.701839 0.945290 0.877366
O O3 0.480671 0.811639 0.809811
O O4 0.415501 0.019234 0.810772
O O5 0.243204 0.334784 0.256702
O O6 0.336666 0.357352 0.973525
O O7 0.750000 0.250000 0.000000
O O8 0.588492 0.434066 0.045791
O O9 0.000000 0.500000 0.000000
#
# Coordination Sequence:
#
# PCOD9288304 Si02
#       5
#     8   4   8   8   4
#     4  10  25  42  68  99 135 176 236 284 342 425
#     4  11  28  47  70  98 138 181 234 293 346 406
#     4  10  22  38  68 100 138 179 227 282 357 424
#     4   9  21  40  62  98 137 174 216 286 343 413
#     4  11  28  45  72 100 130 191 232 289 350 410
#
# _framework density 21.897376999999999
#
# number of rings (size 3 to 8) (size 9 to 14) (size 15 to 20)
#    0.000    2.000    0.000    0.000   10.500   10.000 
#    0.000    0.000    0.000    0.000    0.000    0.000 
#    0.000    0.000    0.000    0.000    0.000    0.000 
#
# Total GULP energy -89108.054447 kJ/mol
# GULP energy per Si atom -5569.253403 kJ/mol
# Density = 2.184754 g / cm^3
# Si number density = 21.897377 Si / 1000 Ang^3
#
#
#
# Elastic Constant Matrix: (Units=GPa)
#
#
# Indices 1 2 3 4 5 6 
#
# 1 96.1785 64.8941 53.6640 0.0000 19.4051 0.0000
# 2 64.8941 162.7746 87.6067 0.0000 15.2227 0.0000
# 3 53.6640 87.6067 137.3648 0.0000 26.3222 0.0000
# 4 0.0000 0.0000 0.0000 25.3098 0.0000 12.9045
# 5 19.4051 15.2227 26.3222 0.0000 44.2165 0.0000
# 6 0.0000 0.0000 0.0000 12.9045 0.0000 36.4527
#
#
#
# Elastic Compliance Matrix: (Units=1/GPa)
#
#
# Indices 1 2 3 4 5 6 
#
# 1 0.015607 -0.004533 -0.002475 0.000000 -0.003815 0.000000
# 2 -0.004533 0.010677 -0.005322 0.000000 0.001482 0.000000
# 3 -0.002475 -0.005322 0.012509 0.000000 -0.004528 0.000000
# 4 0.000000 0.000000 0.000000 0.048212 0.000000 -0.017068
# 5 -0.003815 0.001482 -0.004528 0.000000 0.026476 0.000000
# 6 0.000000 0.000000 0.000000 -0.017068 0.000000 0.033475
#
#
# Mechanical properties :
#
#
# Convention : Reuss Voigt Hill
#
# Bulk Modulus (GPa) = 70.76369 89.84972 80.30671
# Shear Modulus (GPa) = 28.35660 33.87267 31.11464
#
# Velocity S-wave (km/s) = 3.60248 3.93731 3.77361
# Velocity P-wave (km/s) = 7.04912 7.86073 7.46596
#
# Compressibility (1/GPa) = 0.01413154
#
# Stress axis : x y z
#
# Youngs Moduli (GPa) = 64.07546 93.66284 79.94434
#
# Poissons Ratio (x) = 0.42459 0.19784
# Poissons Ratio (y) = 0.29047 0.42548
# Poissons Ratio (z) = 0.15857 0.49849
#
# Static dielectric constant tensor:
#      x y z
#    x 2.253680 0.000000 0.079550 
#    y 0.000000 1.887250 0.000000 
#    z 0.079550 0.000000 1.767170 
# 
# From -- ./inp_files/226256.got.cif
#   From: 2010.05.17/outbox.cif.g08.bks.cpg/sg15_114_cif.got.tgz:226256.got - 2010.06.03 18:47:42.
