data_PCOD9288704
_publ_section_title
;
Structure prediction by ZEFSAII (Michael W. Deem and Ramdas Pophale) SiO2 
 PCOD9288704
Probable space group: C 2/C
;
_chemical_formula_sum "Si O2"
_cell_formula_units_Z 56
_cell_length_a 18.676032
_cell_length_b 6.668774
_cell_length_c 22.196631
_cell_angle_alpha 90.000000
_cell_angle_beta 81.008178
_cell_angle_gamma 90.000000
_cell_volume 2730.532889
_symmetry_space_group_name_H-M "C 2/C"
_symmetry_group_IT_number 15
_symmetry_cell_setting 'monoclinic'
loop_
_space_group_symop_operation_xyz
x,y,z
-x,y,1/2-z
-x,-y,-z
x,-y,1/2+z
1/2+x,1/2+y,z
1/2-x,1/2+y,1/2-z
1/2-x,1/2-y,-z
1/2+x,1/2-y,1/2+z
loop_
_atom_site_type_symbol
_atom_site_label
_atom_site_fract_x
_atom_site_fract_y
_atom_site_fract_z
Si Si1 0.078915 0.050826 0.754113
Si Si2 0.319642 0.249021 0.073286
Si Si3 0.707672 0.556170 0.529414
Si Si4 0.442499 0.872550 0.636431
Si Si5 0.266538 0.983515 0.830000
Si Si6 0.893332 0.706325 0.371731
Si Si7 0.835397 0.682640 0.707637
O O1 0.070623 0.196119 0.812666
O O2 0.099179 0.184716 0.693970
O O3 0.000000 0.960340 0.750000
O O4 0.134459 0.875081 0.760574
O O5 0.399570 0.178036 0.081036
O O6 0.285720 0.345886 0.138004
O O7 0.265727 0.074748 0.059034
O O8 0.318876 0.418330 0.022167
O O9 0.750000 0.750000 0.500000
O O10 0.640478 0.635294 0.577537
O O11 0.529165 0.882059 0.619477
O O12 0.402069 0.068196 0.667971
O O13 0.296679 0.038595 0.760498
O O14 0.332813 0.962323 0.867701
O O15 0.222440 0.775410 0.831244
#
# Coordination Sequence:
#
# PCOD9288704 Si02
#       7
#     8   8   8   8   8   8   8
#     4  10  22  39  63  97 133 172 208 260 327 390
#     4  11  24  44  68  95 124 170 222 272 321 386
#     4  11  24  46  72  92 124 171 222 275 323 380
#     4  11  24  42  63  96 136 165 214 268 327 392
#     4  12  22  38  67  95 131 170 219 258 319 388
#     4  11  23  43  64  95 134 171 216 270 321 389
#     4  12  23  38  64  98 135 177 210 262 330 390
#
# _framework density 20.508817000000001
#
# number of rings (size 3 to 8) (size 9 to 14) (size 15 to 20)
#    0.000    0.857    4.286    3.429    2.000    0.571 
#    0.000    0.714    0.000    0.000    0.000    0.000 
#    0.000    0.000    0.000    0.000    0.000    0.000 
#
# Total GULP energy -156583.439069 kJ/mol
# GULP energy per Si atom -5592.265681 kJ/mol
# Density = 2.046214 g / cm^3
# Si number density = 20.508817 Si / 1000 Ang^3
#
#
#
# Elastic Constant Matrix: (Units=GPa)
#
#
# Indices 1 2 3 4 5 6 
#
# 1 153.3900 29.0612 17.1574 0.0000 11.2462 0.0000
# 2 29.0612 60.6225 1.8306 0.0000 3.0262 0.0000
# 3 17.1574 1.8306 43.7887 0.0000 5.1872 0.0000
# 4 0.0000 0.0000 0.0000 31.9297 0.0000 5.3187
# 5 11.2462 3.0262 5.1872 0.0000 22.0919 0.0000
# 6 0.0000 0.0000 0.0000 5.3187 0.0000 34.5237
#
#
#
# Elastic Compliance Matrix: (Units=1/GPa)
#
#
# Indices 1 2 3 4 5 6 
#
# 1 0.007664 -0.003456 -0.002523 0.000000 -0.002836 0.000000
# 2 -0.003456 0.018176 0.000700 0.000000 -0.000895 0.000000
# 3 -0.002523 0.000700 0.024332 0.000000 -0.004525 0.000000
# 4 0.000000 0.000000 0.000000 0.032144 0.000000 -0.004952
# 5 -0.002836 -0.000895 -0.004525 0.000000 0.047894 0.000000
# 6 0.000000 0.000000 0.000000 -0.004952 0.000000 0.029728
#
#
# Mechanical properties :
#
#
# Convention : Reuss Voigt Hill
#
# Bulk Modulus (GPa) = 25.24284 39.32219 32.28251
# Shear Modulus (GPa) = 27.21820 31.69255 29.45537
#
# Velocity S-wave (km/s) = 3.64695 3.93531 3.79387
# Velocity P-wave (km/s) = 5.48349 6.31378 5.91323
#
# Compressibility (1/GPa) = 0.03961519
#
# Stress axis : x y z
#
# Youngs Moduli (GPa) = 130.47594 55.01783 41.09800
#
# Poissons Ratio (x) = 0.19016 0.10367
# Poissons Ratio (y) = 0.45097 -0.02879
# Poissons Ratio (z) = 0.32914 -0.03854
#
# Static dielectric constant tensor:
#      x y z
#    x 1.755690 0.000000 0.019370 
#    y 0.000000 1.704140 0.000000 
#    z 0.019370 0.000000 1.721650 
# 
# From -- ./inp_files/278640.got.cif
#   From: 2010.05.17/outbox.cif.g08.bks.cpg/sg15_140_cif.got.tgz:278640.got - 2010.06.03 18:47:42.
