data_PCOD9288533
_publ_section_title
;
Structure prediction by ZEFSAII (Michael W. Deem and Ramdas Pophale) SiO2 
 PCOD9288533
Probable space group: C 2/C
;
_chemical_formula_sum "Si O2"
_cell_formula_units_Z 56
_cell_length_a 10.951159
_cell_length_b 8.619633
_cell_length_c 29.118425
_cell_angle_alpha 90.000000
_cell_angle_beta 66.282925
_cell_angle_gamma 90.000000
_cell_volume 2516.490967
_symmetry_space_group_name_H-M "C 2/C"
_symmetry_group_IT_number 15
_symmetry_cell_setting 'monoclinic'
loop_
_space_group_symop_operation_xyz
x,y,z
-x,y,1/2-z
-x,-y,-z
x,-y,1/2+z
1/2+x,1/2+y,z
1/2-x,1/2+y,1/2-z
1/2-x,1/2-y,-z
1/2+x,1/2-y,1/2+z
loop_
_atom_site_type_symbol
_atom_site_label
_atom_site_fract_x
_atom_site_fract_y
_atom_site_fract_z
Si Si1 0.556299 0.175890 0.644692
Si Si2 0.237959 0.171092 0.551248
Si Si3 0.075406 0.825229 0.395140
Si Si4 0.254260 0.674885 0.793417
Si Si5 0.219796 0.178196 0.199407
Si Si6 0.730949 0.815554 0.952164
Si Si7 0.236678 0.393818 0.630450
O O1 0.399186 0.171358 0.666361
O O2 0.604247 0.238660 0.687344
O O3 0.632572 0.283726 0.596672
O O4 0.622248 0.006882 0.628406
O O5 0.250000 0.250000 0.500000
O O6 0.293136 0.281817 0.582649
O O7 0.080630 0.161275 0.586223
O O8 0.296933 0.998673 0.542735
O O9 0.148867 0.699443 0.352082
O O10 0.118736 0.777044 0.440296
O O11 0.148618 0.986374 0.371724
O O12 0.250108 0.738617 0.742658
O O13 0.310526 0.502054 0.788179
O O14 0.320333 0.794706 0.818748
O O15 0.750000 0.750000 0.000000
#
# Coordination Sequence:
#
# PCOD9288533 Si02
#       7
#     8   8   8   8   8   8   8
#     4  10  22  41  61  85 121 155 194 244 291 346
#     4  12  24  39  63  90 117 156 199 238 294 353
#     4  10  23  43  60  85 125 153 191 250 290 342
#     4  12  22  39  63  86 120 156 194 245 291 343
#     4  10  22  39  61  89 118 157 197 236 297 352
#     4  10  22  40  62  89 119 157 198 238 294 351
#     4  10  22  39  62  90 114 153 201 239 291 349
#
# _framework density 22.253208999999998
#
# number of rings (size 3 to 8) (size 9 to 14) (size 15 to 20)
#    0.000    1.714    0.000    7.286    0.000    4.000 
#    0.000    6.429    0.000    0.000    0.000    0.000 
#    0.000    0.000    0.000    0.000    0.000    0.000 
#
# Total GULP energy -156664.819415 kJ/mol
# GULP energy per Si atom -5595.172122 kJ/mol
# Density = 2.220256 g / cm^3
# Si number density = 22.253209 Si / 1000 Ang^3
#
#
#
# Elastic Constant Matrix: (Units=GPa)
#
#
# Indices 1 2 3 4 5 6 
#
# 1 16.3562 -5.8736 -10.7561 0.0000 -7.1260 0.0000
# 2 -5.8736 149.3524 22.4245 0.0000 29.8531 0.0000
# 3 -10.7561 22.4245 87.8864 0.0000 39.7940 0.0000
# 4 0.0000 0.0000 0.0000 41.2389 0.0000 11.7880
# 5 -7.1260 29.8531 39.7940 0.0000 39.1537 0.0000
# 6 0.0000 0.0000 0.0000 11.7880 0.0000 24.5423
#
#
#
# Elastic Compliance Matrix: (Units=1/GPa)
#
#
# Indices 1 2 3 4 5 6 
#
# 1 0.067610 0.000554 0.005100 0.000000 0.006699 0.000000
# 2 0.000554 0.007987 0.001374 0.000000 -0.007386 0.000000
# 3 0.005100 0.001374 0.021686 0.000000 -0.022160 0.000000
# 4 0.000000 0.000000 0.000000 0.028108 0.000000 -0.013501
# 5 0.006699 -0.007386 -0.022160 0.000000 0.054913 0.000000
# 6 0.000000 0.000000 0.000000 -0.013501 0.000000 0.047231
#
#
# Mechanical properties :
#
#
# Convention : Reuss Voigt Hill
#
# Bulk Modulus (GPa) = 8.98158 29.46496 19.22327
# Shear Modulus (GPa) = 19.95273 37.50697 28.72985
#
# Velocity S-wave (km/s) = 2.99761 4.10989 3.59701
# Velocity P-wave (km/s) = 4.00322 5.98257 5.09003
#
# Compressibility (1/GPa) = 0.11133899
#
# Stress axis : x y z
#
# Youngs Moduli (GPa) = 14.79064 125.19821 46.11361
#
# Poissons Ratio (x) = -0.06937 -0.23517
# Poissons Ratio (y) = -0.00820 -0.06336
# Poissons Ratio (z) = -0.07543 -0.17201
#
# Static dielectric constant tensor:
#      x y z
#    x 1.829750 0.000000 -0.008990 
#    y 0.000000 1.818390 0.000000 
#    z -0.008990 0.000000 1.792510 
# 
# From -- ./inp_files/310233.got.cif
#   From: 2010.05.17/outbox.cif.g08.bks.cpg/sg15_156_cif.got.tgz:310233.got - 2010.06.03 18:47:42.
