data_PCOD9288269
_publ_section_title
;
Structure prediction by ZEFSAII (Michael W. Deem and Ramdas Pophale) SiO2 
 PCOD9288269
Probable space group: C 2/C
;
_chemical_formula_sum "Si O2"
_cell_formula_units_Z 48
_cell_length_a 10.249623
_cell_length_b 16.759403
_cell_length_c 20.384372
_cell_angle_alpha 90.000000
_cell_angle_beta 35.828476
_cell_angle_gamma 90.000000
_cell_volume 2049.685999
_symmetry_space_group_name_H-M "C 2/C"
_symmetry_group_IT_number 15
_symmetry_cell_setting 'monoclinic'
loop_
_space_group_symop_operation_xyz
x,y,z
-x,y,1/2-z
-x,-y,-z
x,-y,1/2+z
1/2+x,1/2+y,z
1/2-x,1/2+y,1/2-z
1/2-x,1/2-y,-z
1/2+x,1/2-y,1/2+z
loop_
_atom_site_type_symbol
_atom_site_label
_atom_site_fract_x
_atom_site_fract_y
_atom_site_fract_z
Si Si1 0.139003 0.023433 0.134123
Si Si2 0.764775 0.024412 0.686578
Si Si3 0.571553 0.248375 0.824042
Si Si4 0.667441 0.304962 0.401789
Si Si5 0.245506 0.852004 0.857443
Si Si6 0.935133 0.585407 0.604752
O O1 0.266805 0.953019 0.121164
O O2 0.000000 0.064382 0.250000
O O3 0.987914 0.986024 0.138913
O O4 0.323950 0.078351 0.025757
O O5 0.764460 0.104495 0.644416
O O6 0.585429 0.035153 0.818860
O O7 0.746764 0.947751 0.647576
O O8 0.756307 0.245020 0.691885
O O9 0.329599 0.228166 0.892672
O O10 0.609343 0.329005 0.847384
O O11 0.621899 0.175264 0.852697
O O12 0.408071 0.312102 0.524630
O O13 0.500000 0.823242 0.750000
#
# Coordination Sequence:
#
# PCOD9288269 Si02
#       6
#     8   8   8   8   8   8
#     4   9  18  35  58 100 123 163 216 271 316 379
#     4  10  22  38  66  95 130 169 226 269 321 387
#     4  10  23  45  67  92 133 178 217 267 341 393
#     4  10  23  45  71  92 129 186 219 266 334 408
#     4  12  27  41  64 104 134 168 220 286 329 388
#     4   9  19  37  63  90 128 172 213 267 326 392
#
# _framework density 23.418220000000002
#
# number of rings (size 3 to 8) (size 9 to 14) (size 15 to 20)
#    0.000    2.000    0.000    2.000    7.000    4.000 
#   18.000    0.000    0.000    0.000    0.000    0.000 
#    0.000    0.000    0.000    0.000    0.000    0.000 
#
# Total GULP energy -134207.711913 kJ/mol
# GULP energy per Si atom -5591.987996 kJ/mol
# Density = 2.336492 g / cm^3
# Si number density = 23.418220 Si / 1000 Ang^3
#
#
#
# Elastic Constant Matrix: (Units=GPa)
#
#
# Indices 1 2 3 4 5 6 
#
# 1 84.5284 10.8846 21.7467 0.0044 -18.1199 0.0003
# 2 10.8846 51.6758 -5.2385 0.0015 2.8360 0.0025
# 3 21.7467 -5.2385 162.4123 0.0047 -18.7728 0.0030
# 4 0.0044 0.0015 0.0047 7.9252 -0.0031 -2.4560
# 5 -18.1199 2.8360 -18.7728 -0.0031 23.5713 0.0018
# 6 0.0003 0.0025 0.0030 -2.4560 0.0018 26.7880
#
#
#
# Elastic Compliance Matrix: (Units=1/GPa)
#
#
# Indices 1 2 3 4 5 6 
#
# 1 0.014963 -0.003856 -0.000820 -0.000003 0.011313 -0.000001
# 2 -0.003856 0.020496 0.000605 -0.000005 -0.004948 -0.000002
# 3 -0.000820 0.000605 0.006834 -0.000002 0.004740 -0.000001
# 4 -0.000003 -0.000005 -0.000002 0.129870 0.000013 0.011907
# 5 0.011313 -0.004948 0.004740 0.000013 0.055491 -0.000003
# 6 -0.000001 -0.000002 -0.000001 0.011907 -0.000003 0.038422
#
#
# Mechanical properties :
#
#
# Convention : Reuss Voigt Hill
#
# Bulk Modulus (GPa) = 29.28009 39.26689 34.27349
# Shear Modulus (GPa) = 17.50689 29.73848 23.62269
#
# Velocity S-wave (km/s) = 2.73715 3.56741 3.17950
# Velocity P-wave (km/s) = 4.74548 5.81142 5.30529
#
# Compressibility (1/GPa) = 0.03415291
#
# Stress axis : x y z
#
# Youngs Moduli (GPa) = 66.83155 48.78883 146.31917
#
# Poissons Ratio (x) = 0.18812 0.12001
# Poissons Ratio (y) = 0.25768 -0.08859
# Poissons Ratio (z) = 0.05482 -0.02954
#
# Static dielectric constant tensor:
#      x y z
#    x 1.873160 0.000000 0.014460 
#    y 0.000000 1.861730 0.000000 
#    z 0.014460 0.000000 1.934780 
# 
# From -- ./inp_files/270817.got.cif
#   From: 2010.05.17/outbox.cif.g08.bks.cpg/sg15_136_cif.got.tgz:270817.got - 2010.06.03 18:47:42.
