data_PCOD9288036
_publ_section_title
;
Structure prediction by ZEFSAII (Michael W. Deem and Ramdas Pophale) SiO2 
 PCOD9288036
Probable space group: C 2/C
;
_chemical_formula_sum "Si O2"
_cell_formula_units_Z 52
_cell_length_a 5.080969
_cell_length_b 22.779398
_cell_length_c 21.687442
_cell_angle_alpha 90.000000
_cell_angle_beta 70.442617
_cell_angle_gamma 90.000000
_cell_volume 2365.317250
_symmetry_space_group_name_H-M "C 2/C"
_symmetry_group_IT_number 15
_symmetry_cell_setting 'monoclinic'
loop_
_space_group_symop_operation_xyz
x,y,z
-x,y,1/2-z
-x,-y,-z
x,-y,1/2+z
1/2+x,1/2+y,z
1/2-x,1/2+y,1/2-z
1/2-x,1/2-y,-z
1/2+x,1/2-y,1/2+z
loop_
_atom_site_type_symbol
_atom_site_label
_atom_site_fract_x
_atom_site_fract_y
_atom_site_fract_z
Si Si1 0.907089 0.292784 0.574408
Si Si2 0.529731 0.392241 0.873008
Si Si3 0.618628 0.783925 0.419455
Si Si4 0.018904 0.408993 0.415106
Si Si5 0.089972 0.932322 0.002802
Si Si6 0.000000 0.399351 0.750000
Si Si7 0.712672 0.506892 0.183986
O O1 0.744298 0.351797 0.604804
O O2 0.658884 0.246236 0.583820
O O3 0.132201 0.262917 0.601407
O O4 0.058737 0.299237 0.496296
O O5 0.643678 0.400512 0.933304
O O6 0.452453 0.457627 0.855774
O O7 0.752382 0.367676 0.806043
O O8 0.659237 0.847282 0.386134
O O9 0.155885 0.428750 0.469491
O O10 0.086544 0.459763 0.361583
O O11 0.687487 0.401484 0.448232
O O12 0.000000 0.000000 0.000000
O O13 0.132861 0.442115 0.790567
O O14 0.500000 0.479338 0.250000
#
# Coordination Sequence:
#
# PCOD9288036 Si02
#       7
#     8   8   8   8   8   4   8
#     4  10  22  38  62  90 131 167 214 260 319 387
#     4  11  23  40  65  95 129 174 214 273 328 392
#     4  10  22  39  59  95 128 173 207 261 324 384
#     4  12  24  41  65  96 133 167 215 263 331 394
#     4  12  24  36  62 103 133 163 207 270 332 388
#     4  10  24  42  66  92 130 174 224 260 348 386
#     4  10  24  43  63  94 126 174 216 271 328 398
#
# _framework density 21.984366000000001
#
# number of rings (size 3 to 8) (size 9 to 14) (size 15 to 20)
#    0.000    1.231    3.077    2.308   10.769    0.000 
#    0.000    0.000    1.692    0.000    0.000    0.000 
#    0.000    0.000    0.000    0.000    0.000    0.000 
#
# Total GULP energy -145476.708757 kJ/mol
# GULP energy per Si atom -5595.258029 kJ/mol
# Density = 2.193433 g / cm^3
# Si number density = 21.984366 Si / 1000 Ang^3
#
#
#
# Elastic Constant Matrix: (Units=GPa)
#
#
# Indices 1 2 3 4 5 6 
#
# 1 73.2626 -0.9997 30.4863 0.0000 -9.0987 0.0000
# 2 -0.9997 81.8489 29.7039 0.0000 -8.3628 0.0000
# 3 30.4863 29.7039 109.4940 0.0000 -17.6063 0.0000
# 4 0.0000 0.0000 0.0000 15.5051 0.0000 -4.6995
# 5 -9.0987 -8.3628 -17.6063 0.0000 30.9246 0.0000
# 6 0.0000 0.0000 0.0000 -4.6995 0.0000 28.9626
#
#
#
# Elastic Compliance Matrix: (Units=1/GPa)
#
#
# Indices 1 2 3 4 5 6 
#
# 1 0.015914 0.002128 -0.004582 0.000000 0.002649 0.000000
# 2 0.002128 0.013921 -0.004032 0.000000 0.002095 0.000000
# 3 -0.004582 -0.004032 0.012230 0.000000 0.004524 0.000000
# 4 0.000000 0.000000 0.000000 0.067831 0.000000 0.011006
# 5 0.002649 0.002095 0.004524 0.000000 0.036259 0.000000
# 6 0.000000 0.000000 0.000000 0.011006 0.000000 0.036313
#
#
# Mechanical properties :
#
#
# Convention : Reuss Voigt Hill
#
# Bulk Modulus (GPa) = 34.37313 42.55408 38.46361
# Shear Modulus (GPa) = 24.37375 28.77278 26.57327
#
# Velocity S-wave (km/s) = 3.33331 3.62164 3.48046
# Velocity P-wave (km/s) = 5.52121 6.07346 5.80391
#
# Compressibility (1/GPa) = 0.02909249
#
# Stress axis : x y z
#
# Youngs Moduli (GPa) = 62.83627 71.83390 81.76513
#
# Poissons Ratio (x) = -0.15286 0.37468
# Poissons Ratio (y) = -0.13372 0.32969
# Poissons Ratio (z) = 0.28794 0.28965
#
# Static dielectric constant tensor:
#      x y z
#    x 1.855360 0.000000 0.001560 
#    y 0.000000 1.828740 0.000000 
#    z 0.001560 0.000000 1.816650 
# 
# From -- ./inp_files/227974.got.cif
#   From: 2010.05.17/outbox.cif.g08.bks.cpg/sg15_114_cif.got.tgz:227974.got - 2010.06.03 18:47:42.
