data_PCOD9288485
_publ_section_title
;
Structure prediction by ZEFSAII (Michael W. Deem and Ramdas Pophale) SiO2 
 PCOD9288485
Probable space group: C 2/C
;
_chemical_formula_sum "Si O2"
_cell_formula_units_Z 32
_cell_length_a 6.977960
_cell_length_b 12.776033
_cell_length_c 23.414048
_cell_angle_alpha 90.000000
_cell_angle_beta 137.594380
_cell_angle_gamma 90.000000
_cell_volume 1407.674843
_symmetry_space_group_name_H-M "C 2/C"
_symmetry_group_IT_number 15
_symmetry_cell_setting 'monoclinic'
loop_
_space_group_symop_operation_xyz
x,y,z
-x,y,1/2-z
-x,-y,-z
x,-y,1/2+z
1/2+x,1/2+y,z
1/2-x,1/2+y,1/2-z
1/2-x,1/2-y,-z
1/2+x,1/2-y,1/2+z
loop_
_atom_site_type_symbol
_atom_site_label
_atom_site_fract_x
_atom_site_fract_y
_atom_site_fract_z
Si Si1 0.686139 0.005222 0.842186
Si Si2 0.358426 0.700026 0.937874
Si Si3 0.336876 0.159645 0.327850
Si Si4 0.175596 0.782245 0.628462
O O1 0.500000 0.052447 0.750000
O O2 0.480655 0.951593 0.844360
O O3 0.839796 0.901391 0.850999
O O4 0.894270 0.089146 0.914975
O O5 0.418339 0.792961 0.906961
O O6 0.022497 0.706898 0.879469
O O7 0.529055 0.710882 0.033644
O O8 0.493026 0.232996 0.314024
O O9 0.000000 0.158292 0.250000
#
# Coordination Sequence:
#
# PCOD9288485 Si02
#       4
#     8   8   8   8
#     4  10  22  39  60  89 119 156 198 242 296 350
#     4  11  20  43  63  87 119 159 195 246 300 344
#     4  10  22  40  60  86 126 154 194 247 291 348
#     4   9  23  40  62  90 120 150 204 246 287 358
#
# _framework density 22.732521999999999
#
# number of rings (size 3 to 8) (size 9 to 14) (size 15 to 20)
#    1.500    0.500    0.000    3.750    0.000    0.000 
#   13.500    2.500    0.000    0.000    0.000    0.000 
#    0.000    0.000    0.000    0.000    0.000    0.000 
#
# Total GULP energy -89202.864988 kJ/mol
# GULP energy per Si atom -5575.179062 kJ/mol
# Density = 2.268078 g / cm^3
# Si number density = 22.732522 Si / 1000 Ang^3
#
#
#
# Elastic Constant Matrix: (Units=GPa)
#
#
# Indices 1 2 3 4 5 6 
#
# 1 82.0364 8.4306 1.5200 0.0000 15.0440 0.0000
# 2 8.4306 44.7772 16.4303 0.0000 0.1719 0.0000
# 3 1.5200 16.4303 54.1202 0.0000 -7.2393 0.0000
# 4 0.0000 0.0000 0.0000 21.1150 0.0000 3.3182
# 5 15.0440 0.1719 -7.2393 0.0000 41.6976 0.0000
# 6 0.0000 0.0000 0.0000 3.3182 0.0000 24.4421
#
#
#
# Elastic Compliance Matrix: (Units=1/GPa)
#
#
# Indices 1 2 3 4 5 6 
#
# 1 0.013330 -0.002381 -0.000301 0.000000 -0.004852 0.000000
# 2 -0.002381 0.025645 -0.007799 0.000000 -0.000601 0.000000
# 3 -0.000301 -0.007799 0.021369 0.000000 0.003850 0.000000
# 4 0.000000 0.000000 0.000000 0.048392 0.000000 -0.006570
# 5 -0.004852 -0.000601 0.003850 0.000000 0.026404 0.000000
# 6 0.000000 0.000000 0.000000 -0.006570 0.000000 0.041805
#
#
# Mechanical properties :
#
#
# Convention : Reuss Voigt Hill
#
# Bulk Modulus (GPa) = 25.39197 25.96618 25.67908
# Shear Modulus (GPa) = 23.69307 27.75446 25.72376
#
# Velocity S-wave (km/s) = 3.23190 3.49795 3.36755
# Velocity P-wave (km/s) = 5.01209 5.26892 5.14211
#
# Compressibility (1/GPa) = 0.03938253
#
# Stress axis : x y z
#
# Youngs Moduli (GPa) = 75.02081 38.99381 46.79770
#
# Poissons Ratio (x) = 0.09284 0.01407
# Poissons Ratio (y) = 0.17861 0.36498
# Poissons Ratio (z) = 0.02255 0.30411
#
# Static dielectric constant tensor:
#      x y z
#    x 1.873990 0.000000 0.021190 
#    y 0.000000 1.807650 0.000000 
#    z 0.021190 0.000000 1.916880 
# 
# From -- ./inp_files/187352.got.cif
#   From: 2010.05.17/outbox.cif.g08.bks.cpg/sg15_94_cif.got.tgz:187352.got - 2010.06.03 18:47:42.
