data_PCOD9288500
_publ_section_title
;
Structure prediction by ZEFSAII (Michael W. Deem and Ramdas Pophale) SiO2 
 PCOD9288500
Probable space group: C 2/C
;
_chemical_formula_sum "Si O2"
_cell_formula_units_Z 40
_cell_length_a 10.923780
_cell_length_b 13.453785
_cell_length_c 14.392234
_cell_angle_alpha 90.000000
_cell_angle_beta 54.106587
_cell_angle_gamma 90.000000
_cell_volume 1713.519780
_symmetry_space_group_name_H-M "C 2/C"
_symmetry_group_IT_number 15
_symmetry_cell_setting 'monoclinic'
loop_
_space_group_symop_operation_xyz
x,y,z
-x,y,1/2-z
-x,-y,-z
x,-y,1/2+z
1/2+x,1/2+y,z
1/2-x,1/2+y,1/2-z
1/2-x,1/2-y,-z
1/2+x,1/2-y,1/2+z
loop_
_atom_site_type_symbol
_atom_site_label
_atom_site_fract_x
_atom_site_fract_y
_atom_site_fract_z
Si Si1 0.922185 0.662302 0.372754
Si Si2 0.542150 0.208418 0.505248
Si Si3 0.325534 0.514903 0.060460
Si Si4 0.369145 0.368481 0.881785
Si Si5 0.914961 0.448597 0.198153
O O1 0.759058 0.619637 0.416307
O O2 0.000000 0.712854 0.250000
O O3 0.954219 0.725420 0.449172
O O4 0.013990 0.557890 0.347648
O O5 0.556535 0.294972 0.574954
O O6 0.718306 0.181102 0.405626
O O7 0.449800 0.119642 0.596212
O O8 0.249035 0.465546 0.185808
O O9 0.500000 0.500000 0.000000
O O10 0.300818 0.457288 0.974224
O O11 0.500000 0.394236 0.750000
O O12 0.000000 0.401863 0.250000
#
# Coordination Sequence:
#
# PCOD9288500 Si02
#       5
#     8   8   8   8   8
#     4   9  20  37  64  88 117 169 206 252 314 385
#     4  11  21  39  61  90 124 161 209 254 325 381
#     4  10  22  39  60  93 128 157 213 265 311 379
#     4  11  25  35  62  96 124 159 208 272 314 369
#     4   9  17  35  60  89 120 158 201 250 317 379
#
# _framework density 23.343765000000001
#
# number of rings (size 3 to 8) (size 9 to 14) (size 15 to 20)
#    0.000    2.400    4.000    1.200    8.400    0.000 
#    0.000    1.000    0.000    0.000    0.000    0.000 
#    0.000    0.000    0.000    0.000    0.000    0.000 
#
# Total GULP energy -111634.779666 kJ/mol
# GULP energy per Si atom -5581.738983 kJ/mol
# Density = 2.329063 g / cm^3
# Si number density = 23.343765 Si / 1000 Ang^3
#
#
#
# Elastic Constant Matrix: (Units=GPa)
#
#
# Indices 1 2 3 4 5 6 
#
# 1 114.0547 18.4139 47.5686 0.0000 -11.3131 0.0000
# 2 18.4139 31.6563 42.2344 0.0000 -4.2851 0.0000
# 3 47.5686 42.2344 166.1704 0.0000 -22.3462 0.0000
# 4 0.0000 0.0000 0.0000 16.3261 0.0000 -0.8561
# 5 -11.3131 -4.2851 -22.3462 0.0000 51.2967 0.0000
# 6 0.0000 0.0000 0.0000 -0.8561 0.0000 20.3795
#
#
#
# Elastic Compliance Matrix: (Units=1/GPa)
#
#
# Indices 1 2 3 4 5 6 
#
# 1 0.010211 -0.003162 -0.001967 0.000000 0.001131 0.000000
# 2 -0.003162 0.048868 -0.011748 0.000000 -0.001733 0.000000
# 3 -0.001967 -0.011748 0.009960 0.000000 0.002924 0.000000
# 4 0.000000 0.000000 0.000000 0.061387 0.000000 0.002579
# 5 0.001131 -0.001733 0.002924 0.000000 0.020873 0.000000
# 6 0.000000 0.000000 0.000000 0.002579 0.000000 0.049177
#
#
# Mechanical properties :
#
#
# Convention : Reuss Voigt Hill
#
# Bulk Modulus (GPa) = 28.34123 58.70169 43.52146
# Shear Modulus (GPa) = 20.32583 31.17808 25.75196
#
# Velocity S-wave (km/s) = 2.95399 3.65856 3.32499
# Velocity P-wave (km/s) = 4.87872 6.56109 5.78143
#
# Compressibility (1/GPa) = 0.03528429
#
# Stress axis : x y z
#
# Youngs Moduli (GPa) = 97.93510 20.46326 100.39858
#
# Poissons Ratio (x) = 0.06470 0.19752
# Poissons Ratio (y) = 0.30964 1.17953
# Poissons Ratio (z) = 0.19267 0.24041
#
# Static dielectric constant tensor:
#      x y z
#    x 1.969110 0.000000 0.034290 
#    y 0.000000 1.955830 0.000000 
#    z 0.034290 0.000000 1.948830 
# 
# From -- ./inp_files/144917.got.cif
#   From: 2010.05.17/outbox.cif.g08.bks.cpg/sg15_73_cif.got.tgz:144917.got - 2010.06.03 18:47:42.
