data_PCOD9288480
_publ_section_title
;
Structure prediction by ZEFSAII (Michael W. Deem and Ramdas Pophale) SiO2 
 PCOD9288480
Probable space group: C 2/C
;
_chemical_formula_sum "Si O2"
_cell_formula_units_Z 40
_cell_length_a 18.350676
_cell_length_b 18.159890
_cell_length_c 12.458766
_cell_angle_alpha 90.000000
_cell_angle_beta 150.872103
_cell_angle_gamma 90.000000
_cell_volume 2020.951394
_symmetry_space_group_name_H-M "C 2/C"
_symmetry_group_IT_number 15
_symmetry_cell_setting 'monoclinic'
loop_
_space_group_symop_operation_xyz
x,y,z
-x,y,1/2-z
-x,-y,-z
x,-y,1/2+z
1/2+x,1/2+y,z
1/2-x,1/2+y,1/2-z
1/2-x,1/2-y,-z
1/2+x,1/2-y,1/2+z
loop_
_atom_site_type_symbol
_atom_site_label
_atom_site_fract_x
_atom_site_fract_y
_atom_site_fract_z
Si Si1 0.566396 0.580325 0.720870
Si Si2 0.320635 0.808519 0.507837
Si Si3 0.276585 0.699237 0.859744
Si Si4 0.544874 0.406439 0.651123
Si Si5 0.141267 0.336736 0.391408
O O1 0.500000 0.602732 0.750000
O O2 0.555051 0.492193 0.693878
O O3 0.469087 0.607235 0.494509
O O4 0.730960 0.615164 0.916238
O O5 0.500000 0.813872 0.750000
O O6 0.250000 0.750000 0.500000
O O7 0.278868 0.786194 0.331812
O O8 0.138437 0.681375 0.761620
O O9 0.398040 0.633460 0.008959
O O10 0.353575 0.766924 0.021286
O O11 0.698216 0.372129 0.886813
O O12 0.000000 0.382678 0.250000
#
# Coordination Sequence:
#
# PCOD9288480 Si02
#       5
#     8   8   8   8   8
#     4  10  22  41  65  87 122 175 212 255 312 385
#     4  11  26  40  63  93 127 164 209 263 314 377
#     4  10  22  39  60  88 125 161 205 258 309 379
#     4  10  22  41  62  90 126 167 215 253 318 380
#     4  11  22  34  61  92 120 158 203 267 313 361
#
# _framework density 19.792657999999999
#
# number of rings (size 3 to 8) (size 9 to 14) (size 15 to 20)
#    0.000    1.600    0.000    4.800   11.200    0.800 
#    0.000    0.000    0.000    9.600    0.000    0.000 
#    0.000    0.000    0.000    0.000    0.000    0.000 
#
# Total GULP energy -111590.251955 kJ/mol
# GULP energy per Si atom -5579.512598 kJ/mol
# Density = 1.974761 g / cm^3
# Si number density = 19.792658 Si / 1000 Ang^3
#
#
#
# Elastic Constant Matrix: (Units=GPa)
#
#
# Indices 1 2 3 4 5 6 
#
# 1 197.4629 31.5390 82.9029 0.0000 -18.2432 0.0000
# 2 31.5390 50.6508 20.3234 0.0000 -6.6494 0.0000
# 3 82.9029 20.3234 108.0503 0.0000 -5.7908 0.0000
# 4 0.0000 0.0000 0.0000 19.5274 0.0000 -1.1215
# 5 -18.2432 -6.6494 -5.7908 0.0000 35.0967 0.0000
# 6 0.0000 0.0000 0.0000 -1.1215 0.0000 19.9565
#
#
#
# Elastic Compliance Matrix: (Units=1/GPa)
#
#
# Indices 1 2 3 4 5 6 
#
# 1 0.008047 -0.002407 -0.005571 0.000000 0.002808 0.000000
# 2 -0.002407 0.022488 -0.002242 0.000000 0.002640 0.000000
# 3 -0.005571 -0.002242 0.013896 0.000000 -0.001028 0.000000
# 4 0.000000 0.000000 0.000000 0.051376 0.000000 0.002887
# 5 0.002808 0.002640 -0.001028 0.000000 0.030283 0.000000
# 6 0.000000 0.000000 0.000000 0.002887 0.000000 0.050271
#
#
# Mechanical properties :
#
#
# Convention : Reuss Voigt Hill
#
# Bulk Modulus (GPa) = 41.68102 69.52163 55.60132
# Shear Modulus (GPa) = 24.41448 29.67602 27.04525
#
# Velocity S-wave (km/s) = 3.51595 3.87634 3.70053
# Velocity P-wave (km/s) = 6.13083 7.43208 6.81260
#
# Compressibility (1/GPa) = 0.02399174
#
# Stress axis : x y z
#
# Youngs Moduli (GPa) = 124.27064 44.46885 71.96365
#
# Poissons Ratio (x) = 0.10702 0.40091
# Poissons Ratio (y) = 0.29909 0.16132
# Poissons Ratio (z) = 0.69231 0.09969
#
# Static dielectric constant tensor:
#      x y z
#    x 1.805750 0.000000 0.002270 
#    y 0.000000 1.730810 0.000000 
#    z 0.002270 0.000000 1.703160 
# 
# From -- ./inp_files/89309.got.cif
#   From: 2010.05.17/outbox.cif.g08.bks.cpg/sg15_45_cif.got.tgz:89309.got - 2010.06.03 18:47:42.
