data_PCOD9288502
_publ_section_title
;
Structure prediction by ZEFSAII (Michael W. Deem and Ramdas Pophale) SiO2 
 PCOD9288502
Probable space group: C 2/C
;
_chemical_formula_sum "Si O2"
_cell_formula_units_Z 40
_cell_length_a 21.433395
_cell_length_b 18.266182
_cell_length_c 14.604137
_cell_angle_alpha 90.000000
_cell_angle_beta 18.495126
_cell_angle_gamma 90.000000
_cell_volume 1813.763515
_symmetry_space_group_name_H-M "C 2/C"
_symmetry_group_IT_number 15
_symmetry_cell_setting 'monoclinic'
loop_
_space_group_symop_operation_xyz
x,y,z
-x,y,1/2-z
-x,-y,-z
x,-y,1/2+z
1/2+x,1/2+y,z
1/2-x,1/2+y,1/2-z
1/2-x,1/2-y,-z
1/2+x,1/2-y,1/2+z
loop_
_atom_site_type_symbol
_atom_site_label
_atom_site_fract_x
_atom_site_fract_y
_atom_site_fract_z
Si Si1 0.974674 0.990179 0.426645
Si Si2 0.404052 0.029189 0.284783
Si Si3 0.485166 0.660479 0.147237
Si Si4 0.819341 0.724398 0.777002
Si Si5 0.072252 0.407045 0.942367
O O1 0.786933 0.941469 0.662192
O O2 0.975434 0.074961 0.393486
O O3 0.173947 0.955190 0.111581
O O4 0.000000 0.000000 0.500000
O O5 0.500000 0.044093 0.250000
O O6 0.486447 0.068052 0.079277
O O7 0.440636 0.944810 0.205024
O O8 0.335102 0.694513 0.431094
O O9 0.375171 0.690387 0.209203
O O10 0.697308 0.699482 0.858972
O O11 0.015839 0.677374 0.519596
#
# Coordination Sequence:
#
# PCOD9288502 Si02
#       5
#     8   8   8   8   8
#     4  12  24  38  65  98 133 171 221 264 322 388
#     4  11  22  38  60  96 130 164 219 265 325 380
#     4  10  22  39  60  94 129 165 209 269 323 392
#     4  10  22  39  64  90 130 165 208 266 337 383
#     4  11  23  40  65  93 132 171 209 277 322 386
#
# _framework density 22.053591000000001
#
# number of rings (size 3 to 8) (size 9 to 14) (size 15 to 20)
#    0.000    1.200    4.000    3.000    5.600    0.000 
#    0.000    0.000    0.000    1.200    5.200    0.000 
#    0.000    0.000    0.000    0.000    0.000    0.000 
#
# Total GULP energy -111428.120434 kJ/mol
# GULP energy per Si atom -5571.406022 kJ/mol
# Density = 2.200340 g / cm^3
# Si number density = 22.053591 Si / 1000 Ang^3
#
#
#
# Elastic Constant Matrix: (Units=GPa)
#
#
# Indices 1 2 3 4 5 6 
#
# 1 108.3971 17.8885 29.0586 0.0011 -12.9972 -0.0013
# 2 17.8885 79.2665 28.9257 -0.0021 -25.1634 0.0019
# 3 29.0586 28.9257 120.8565 0.0011 -23.9923 0.0023
# 4 0.0011 -0.0021 0.0011 -2.2805 -0.0011 -6.1668
# 5 -12.9972 -25.1634 -23.9923 -0.0011 30.1935 0.0021
# 6 -0.0013 0.0019 0.0023 -6.1668 0.0021 20.2996
#
#
#
# Elastic Compliance Matrix: (Units=1/GPa)
#
#
# Indices 1 2 3 4 5 6 
#
# 1 0.010117 -0.000952 -0.001778 0.000001 0.002148 0.000001
# 2 -0.000952 0.017477 -0.001358 -0.000009 0.013077 -0.000006
# 3 -0.001778 -0.001358 0.010270 0.000004 0.006264 -0.000001
# 4 0.000001 -0.000009 0.000004 -0.240739 -0.000007 -0.073134
# 5 0.002148 0.013077 0.006264 -0.000007 0.049920 -0.000009
# 6 0.000001 -0.000006 -0.000001 -0.073134 -0.000009 0.027045
#
#
# Mechanical properties :
#
#
# Convention : Reuss Voigt Hill
#
# Bulk Modulus (GPa) = 33.68407 51.14065 42.41236
# Shear Modulus (GPa) = -46.36623 25.15236 -10.60693
#
# Velocity S-wave (km/s) = -4.59021 3.38081 -2.19546
# Velocity P-wave (km/s) = 3.57581 6.20318 3.58420
#
# Compressibility (1/GPa) = 0.02968762
#
# Stress axis : x y z
#
# Youngs Moduli (GPa) = 98.84615 57.21682 97.36810
#
# Poissons Ratio (x) = 0.05448 0.17313
# Poissons Ratio (y) = 0.09412 0.13224
# Poissons Ratio (z) = 0.17575 0.07771
#
# Static dielectric constant tensor:
#      x y z
#    x 1.996460 0.000000 -0.031780 
#    y 0.000000 1.849060 0.000010 
#    z -0.031780 0.000010 1.838830 
# 
# From -- ./inp_files/169057.got.cif
#   From: 2010.05.17/outbox.cif.g08.bks.cpg/sg15_85_cif.got.tgz:169057.got - 2010.06.03 18:47:42.
