data_PCOD9288549
_publ_section_title
;
Structure prediction by ZEFSAII (Michael W. Deem and Ramdas Pophale) SiO2 
 PCOD9288549
Probable space group: C 2/C
;
_chemical_formula_sum "Si O2"
_cell_formula_units_Z 48
_cell_length_a 14.895252
_cell_length_b 4.799818
_cell_length_c 26.337988
_cell_angle_alpha 90.000000
_cell_angle_beta 72.444506
_cell_angle_gamma 90.000000
_cell_volume 1795.320011
_symmetry_space_group_name_H-M "C 2/C"
_symmetry_group_IT_number 15
_symmetry_cell_setting 'monoclinic'
loop_
_space_group_symop_operation_xyz
x,y,z
-x,y,1/2-z
-x,-y,-z
x,-y,1/2+z
1/2+x,1/2+y,z
1/2-x,1/2+y,1/2-z
1/2-x,1/2-y,-z
1/2+x,1/2-y,1/2+z
loop_
_atom_site_type_symbol
_atom_site_label
_atom_site_fract_x
_atom_site_fract_y
_atom_site_fract_z
Si Si1 0.793086 0.105390 0.720536
Si Si2 0.043810 0.229827 0.410258
Si Si3 0.502522 0.470698 0.305809
Si Si4 0.155322 0.782863 0.547480
Si Si5 0.176181 0.723200 0.392942
Si Si6 0.330217 0.246716 0.390650
O O1 0.721193 0.282615 0.765744
O O2 0.899314 0.195730 0.714106
O O3 0.773440 0.157865 0.665548
O O4 0.087911 0.529639 0.394850
O O5 0.946639 0.289398 0.456820
O O6 0.016671 0.137942 0.356529
O O7 0.117108 0.002318 0.421436
O O8 0.500000 0.609836 0.250000
O O9 0.407261 0.298837 0.333921
O O10 0.250000 0.750000 0.500000
O O11 0.178388 0.573450 0.591406
O O12 0.135785 0.105639 0.563297
O O13 0.243049 0.460175 0.398635
#
# Coordination Sequence:
#
# PCOD9288549 Si02
#       6
#     8   8   8   8   8   8
#     4  11  22  37  57  84 120 168 211 253 308 369
#     4  10  22  42  64  89 126 168 206 258 321 376
#     4  10  22  39  61  91 126 166 209 253 305 375
#     4  11  23  44  67  92 124 164 208 261 321 382
#     4  11  22  41  62  89 127 163 206 265 317 375
#     4  11  24  41  65  95 124 163 212 260 312 379
#
# _framework density 26.736177999999999
#
# number of rings (size 3 to 8) (size 9 to 14) (size 15 to 20)
#    0.000    1.333    0.000    7.500    0.000    2.667 
#    0.000   22.500    0.000    0.000    0.000    0.000 
#    0.000    0.000    0.000    0.000    0.000    0.000 
#
# Total GULP energy -133666.907427 kJ/mol
# GULP energy per Si atom -5569.454476 kJ/mol
# Density = 2.667533 g / cm^3
# Si number density = 26.736178 Si / 1000 Ang^3
#
#
#
# Elastic Constant Matrix: (Units=GPa)
#
#
# Indices 1 2 3 4 5 6 
#
# 1 79.1415 30.1120 24.6145 0.0032 -29.6054 0.0005
# 2 30.1120 133.0628 23.4007 0.0040 -20.3396 0.0021
# 3 24.6145 23.4007 95.3512 0.0050 -32.6817 0.0014
# 4 0.0032 0.0040 0.0050 21.3853 0.0014 -8.9171
# 5 -29.6054 -20.3396 -32.6817 0.0014 38.7635 0.0007
# 6 0.0005 0.0021 0.0014 -8.9171 0.0007 38.9480
#
#
#
# Elastic Compliance Matrix: (Units=1/GPa)
#
#
# Indices 1 2 3 4 5 6 
#
# 1 0.018256 -0.002190 0.000295 -0.000004 0.013043 -0.000001
# 2 -0.002190 0.008472 -0.000792 -0.000002 0.002105 -0.000001
# 3 0.000295 -0.000792 0.014824 -0.000005 0.012308 -0.000002
# 4 -0.000004 -0.000002 -0.000005 0.051696 -0.000010 0.011836
# 5 0.013043 0.002105 0.012308 -0.000010 0.047240 -0.000004
# 6 -0.000001 -0.000001 -0.000002 0.011836 -0.000004 0.028385
#
#
# Mechanical properties :
#
#
# Convention : Reuss Voigt Hill
#
# Bulk Modulus (GPa) = 27.64067 51.53441 39.58754
# Shear Modulus (GPa) = 26.83736 35.11459 30.97597
#
# Velocity S-wave (km/s) = 3.17169 3.62798 3.40748
# Velocity P-wave (km/s) = 4.87582 6.07179 5.50637
#
# Compressibility (1/GPa) = 0.03617858
#
# Stress axis : x y z
#
# Youngs Moduli (GPa) = 54.77657 118.03800 67.45590
#
# Poissons Ratio (x) = 0.25845 -0.01991
# Poissons Ratio (y) = 0.11993 0.05346
# Poissons Ratio (z) = -0.01616 0.09354
#
# Static dielectric constant tensor:
#      x y z
#    x 2.563000 0.000000 0.047060 
#    y 0.000000 2.024900 0.000000 
#    z 0.047060 0.000000 2.120730 
# 
# From -- ./inp_files/312244.got.cif
#   From: 2010.05.17/outbox.cif.g08.bks.cpg/sg15_157_cif.got.tgz:312244.got - 2010.06.03 18:47:42.
