data_PCOD9288706
_publ_section_title
;
Structure prediction by ZEFSAII (Michael W. Deem and Ramdas Pophale) SiO2 
 PCOD9288706
Probable space group: C 2/C
;
_chemical_formula_sum "Si O2"
_cell_formula_units_Z 60
_cell_length_a 27.235745
_cell_length_b 10.309440
_cell_length_c 23.025562
_cell_angle_alpha 90.000000
_cell_angle_beta 152.165078
_cell_angle_gamma 90.000000
_cell_volume 3018.786235
_symmetry_space_group_name_H-M "C 2/C"
_symmetry_group_IT_number 15
_symmetry_cell_setting 'monoclinic'
loop_
_space_group_symop_operation_xyz
x,y,z
-x,y,1/2-z
-x,-y,-z
x,-y,1/2+z
1/2+x,1/2+y,z
1/2-x,1/2+y,1/2-z
1/2-x,1/2-y,-z
1/2+x,1/2-y,1/2+z
loop_
_atom_site_type_symbol
_atom_site_label
_atom_site_fract_x
_atom_site_fract_y
_atom_site_fract_z
Si Si1 0.000000 0.659056 0.250000
Si Si2 0.690061 0.035972 0.616288
Si Si3 0.388223 0.523677 0.984229
Si Si4 0.929552 0.121576 0.881485
Si Si5 0.852475 0.571636 0.797024
Si Si6 0.401065 0.156337 0.262012
Si Si7 0.053459 0.278401 0.479696
Si Si8 0.167115 0.225814 0.002229
O O1 0.036743 0.596089 0.227665
O O2 0.097918 0.742663 0.374445
O O3 0.818185 0.043068 0.757467
O O4 0.639403 0.072669 0.625277
O O5 0.663478 0.150368 0.542722
O O6 0.634899 0.894836 0.548946
O O7 0.463408 0.462769 0.012954
O O8 0.440531 0.657770 0.057925
O O9 0.373243 0.408010 0.012787
O O10 0.271668 0.571170 0.844592
O O11 0.939530 0.214997 0.835128
O O12 0.921478 0.214761 0.930054
O O13 0.890173 0.443563 0.803235
O O14 0.933100 0.676852 0.857667
O O15 0.288363 0.196440 0.119436
#
# Coordination Sequence:
#
# PCOD9288706 Si02
#       8
#     4   8   8   8   8   8   8   8
#     4  12  20  40  68  86 124 172 222 278 308 356
#     4  11  23  39  63  96 135 169 207 263 322 395
#     4  11  24  39  58  89 130 170 209 257 313 389
#     4  11  22  38  62  92 132 169 214 252 315 386
#     4  11  23  39  60  91 136 167 208 258 329 392
#     4  10  22  39  63  98 122 165 217 277 308 377
#     4  12  24  35  62  91 132 171 201 250 323 396
#     4  10  23  41  65  94 128 164 222 262 324 371
#
# _framework density 19.875537999999999
#
# number of rings (size 3 to 8) (size 9 to 14) (size 15 to 20)
#    0.000    1.067    4.000    2.800    1.867    0.000 
#    0.000    0.000    0.000    3.200    0.000   11.200 
#    0.000    0.000    0.000    0.000    0.000    0.000 
#
# Total GULP energy -167021.155686 kJ/mol
# GULP energy per Si atom -5567.371856 kJ/mol
# Density = 1.983030 g / cm^3
# Si number density = 19.875538 Si / 1000 Ang^3
#
#
#
# Elastic Constant Matrix: (Units=GPa)
#
#
# Indices 1 2 3 4 5 6 
#
# 1 94.8860 38.5645 27.0550 0.0000 18.6229 0.0000
# 2 38.5645 109.7325 38.7615 0.0000 19.7516 0.0000
# 3 27.0550 38.7615 94.5680 0.0000 19.0191 0.0000
# 4 0.0000 0.0000 0.0000 17.8865 0.0000 17.6988
# 5 18.6229 19.7516 19.0191 0.0000 29.5625 0.0000
# 6 0.0000 0.0000 0.0000 17.6988 0.0000 21.3626
#
#
#
# Elastic Compliance Matrix: (Units=1/GPa)
#
#
# Indices 1 2 3 4 5 6 
#
# 1 0.013292 -0.003215 -0.001416 0.000000 -0.005315 0.000000
# 2 -0.003215 0.012104 -0.003242 0.000000 -0.003976 0.000000
# 3 -0.001416 -0.003242 0.013431 0.000000 -0.005583 0.000000
# 4 0.000000 0.000000 0.000000 0.310248 0.000000 -0.257038
# 5 -0.005315 -0.003976 -0.005583 0.000000 0.043423 0.000000
# 6 0.000000 0.000000 0.000000 -0.257038 0.000000 0.259765
#
#
# Mechanical properties :
#
#
# Convention : Reuss Voigt Hill
#
# Bulk Modulus (GPa) = 43.32421 56.43874 49.88147
# Shear Modulus (GPa) = 7.39971 26.74937 17.07454
#
# Velocity S-wave (km/s) = 1.93161 3.67255 2.93417
# Velocity P-wave (km/s) = 5.17879 6.81478 6.05232
#
# Compressibility (1/GPa) = 0.02308178
#
# Stress axis : x y z
#
# Youngs Moduli (GPa) = 75.23097 82.62015 74.45403
#
# Poissons Ratio (x) = 0.26559 0.10546
# Poissons Ratio (y) = 0.24183 0.24136
# Poissons Ratio (z) = 0.10656 0.26783
#
# Static dielectric constant tensor:
#      x y z
#    x 1.734150 0.000000 0.035790 
#    y 0.000000 1.776160 0.000000 
#    z 0.035790 0.000000 1.758090 
# 
# From -- ./inp_files/283412.got.cif
#   From: 2010.05.17/outbox.cif.g08.bks.cpg/sg15_142_cif.got.tgz:283412.got - 2010.06.03 18:47:42.
