data_PCOD9288295
_publ_section_title
;
Structure prediction by ZEFSAII (Michael W. Deem and Ramdas Pophale) SiO2 
 PCOD9288295
Probable space group: C 2/C
;
_chemical_formula_sum "Si O2"
_cell_formula_units_Z 40
_cell_length_a 22.445342
_cell_length_b 5.182225
_cell_length_c 19.627375
_cell_angle_alpha 90.000000
_cell_angle_beta 49.676980
_cell_angle_gamma 90.000000
_cell_volume 1740.573581
_symmetry_space_group_name_H-M "C 2/C"
_symmetry_group_IT_number 15
_symmetry_cell_setting 'monoclinic'
loop_
_space_group_symop_operation_xyz
x,y,z
-x,y,1/2-z
-x,-y,-z
x,-y,1/2+z
1/2+x,1/2+y,z
1/2-x,1/2+y,1/2-z
1/2-x,1/2-y,-z
1/2+x,1/2-y,1/2+z
loop_
_atom_site_type_symbol
_atom_site_label
_atom_site_fract_x
_atom_site_fract_y
_atom_site_fract_z
Si Si1 0.873284 0.059750 0.316283
Si Si2 0.079971 0.441669 0.647875
Si Si3 0.499928 0.568246 0.887189
Si Si4 0.758872 0.480599 0.697986
Si Si5 0.572715 0.811755 0.957676
O O1 0.878509 0.288342 0.367521
O O2 0.803677 0.085133 0.314091
O O3 0.953263 0.047804 0.211644
O O4 0.868654 0.786077 0.357178
O O5 0.000000 0.455543 0.750000
O O6 0.048824 0.319502 0.600406
O O7 0.565394 0.635097 0.895019
O O8 0.443281 0.367332 0.965755
O O9 0.748412 0.764014 0.737571
O O10 0.845456 0.453199 0.603546
O O11 0.500000 0.000000 0.000000
#
# Coordination Sequence:
#
# PCOD9288295 Si02
#       5
#     8   8   8   8   8
#     4  11  22  41  67  98 131 174 229 276 334 397
#     4  10  22  38  67  95 131 176 224 277 323 405
#     4  10  23  43  63 105 133 178 232 284 339 404
#     4  12  25  44  68  99 139 177 230 284 340 413
#     4  11  25  42  72  98 140 182 226 290 348 409
#
# _framework density 22.980927999999999
#
# number of rings (size 3 to 8) (size 9 to 14) (size 15 to 20)
#    0.000    1.200    2.000    4.200   14.000    0.000 
#    0.000    2.000    0.000    0.000    0.000    0.000 
#    0.000    0.000    0.000    0.000    0.000    0.000 
#
# Total GULP energy -111899.132171 kJ/mol
# GULP energy per Si atom -5594.956609 kJ/mol
# Density = 2.292862 g / cm^3
# Si number density = 22.980928 Si / 1000 Ang^3
#
#
#
# Elastic Constant Matrix: (Units=GPa)
#
#
# Indices 1 2 3 4 5 6 
#
# 1 142.7602 29.3305 28.5206 -0.1777 5.8056 -0.0502
# 2 29.3305 120.6157 13.2788 -0.0254 7.3916 -0.0547
# 3 28.5206 13.2788 59.9381 0.1292 -4.9261 0.1997
# 4 -0.1777 -0.0254 0.1292 30.4966 0.0283 7.7332
# 5 5.8056 7.3916 -4.9261 0.0283 39.5983 -0.0994
# 6 -0.0502 -0.0547 0.1997 7.7332 -0.0994 38.6717
#
#
#
# Elastic Compliance Matrix: (Units=1/GPa)
#
#
# Indices 1 2 3 4 5 6 
#
# 1 0.008091 -0.001484 -0.003633 0.000060 -0.001361 0.000012
# 2 -0.001484 0.008905 -0.001400 0.000003 -0.001619 0.000013
# 3 -0.003633 -0.001400 0.018983 -0.000086 0.003155 -0.000079
# 4 0.000060 0.000003 -0.000086 0.034543 -0.000062 -0.006907
# 5 -0.001361 -0.001619 0.003155 -0.000062 0.026148 0.000059
# 6 0.000012 0.000013 -0.000079 -0.006907 0.000059 0.027241
#
#
# Mechanical properties :
#
#
# Convention : Reuss Voigt Hill
#
# Bulk Modulus (GPa) = 43.58356 51.73044 47.65700
# Shear Modulus (GPa) = 34.58003 38.56557 36.57280
#
# Velocity S-wave (km/s) = 3.88329 4.10097 3.99362
# Velocity P-wave (km/s) = 6.25403 6.70694 6.48444
#
# Compressibility (1/GPa) = 0.02294443
#
# Stress axis : x y z
#
# Youngs Moduli (GPa) = 123.59508 112.29657 52.67995
#
# Poissons Ratio (x) = 0.16666 0.19140
# Poissons Ratio (y) = 0.18342 0.07374
# Poissons Ratio (z) = 0.44905 0.15719
#
# Static dielectric constant tensor:
#      x y z
#    x 1.875430 0.000000 0.067350 
#    y 0.000000 1.899510 0.000100 
#    z 0.067350 0.000100 1.875580 
# 
# From -- ./inp_files/217432.got.cif
#   From: 2010.05.17/outbox.cif.g08.bks.cpg/sg15_109_cif.got.tgz:217432.got - 2010.06.03 18:47:42.
