data_PCOD9288384
_publ_section_title
;
Structure prediction by ZEFSAII (Michael W. Deem and Ramdas Pophale) SiO2 
 PCOD9288384
Probable space group: C 2/C
;
_chemical_formula_sum "Si O2"
_cell_formula_units_Z 36
_cell_length_a 20.374322
_cell_length_b 5.078972
_cell_length_c 22.791670
_cell_angle_alpha 90.000000
_cell_angle_beta 143.519775
_cell_angle_gamma 90.000000
_cell_volume 1402.232695
_symmetry_space_group_name_H-M "C 2/C"
_symmetry_group_IT_number 15
_symmetry_cell_setting 'monoclinic'
loop_
_space_group_symop_operation_xyz
x,y,z
-x,y,1/2-z
-x,-y,-z
x,-y,1/2+z
1/2+x,1/2+y,z
1/2-x,1/2+y,1/2-z
1/2-x,1/2-y,-z
1/2+x,1/2-y,1/2+z
loop_
_atom_site_type_symbol
_atom_site_label
_atom_site_fract_x
_atom_site_fract_y
_atom_site_fract_z
Si Si1 0.224057 0.496394 0.021500
Si Si2 0.637567 0.026681 0.160239
Si Si3 0.657602 0.384015 0.272009
Si Si4 0.532050 0.674192 0.419268
Si Si5 0.000000 0.000000 0.000000
O O1 0.295591 0.448673 0.131046
O O2 0.250000 0.750000 0.000000
O O3 0.099244 0.572474 0.949498
O O4 0.250000 0.250000 0.000000
O O5 0.645897 0.089545 0.235956
O O6 0.752267 0.994966 0.209837
O O7 0.573097 0.266329 0.086047
O O8 0.560597 0.765337 0.097254
O O9 0.538258 0.524028 0.179268
O O10 0.595392 0.491402 0.510127
#
# Coordination Sequence:
#
# PCOD9288384 Si02
#       5
#     8   8   8   8   4
#     4  12  32  53  75 105 158 221 265 304 366 473
#     4  11  22  40  74 112 144 183 237 335 397 454
#     4  11  25  44  75 114 151 188 255 321 402 456
#     4  11  25  45  75 109 150 196 253 325 389 461
#     4  10  22  38  74 108 148 182 242 316 412 446
#
# _framework density 25.673342999999999
#
# number of rings (size 3 to 8) (size 9 to 14) (size 15 to 20)
#    0.000    0.889    4.444    0.667    9.333    0.889 
#    0.000    0.000    0.000    0.000    0.000    0.000 
#    0.000    0.000    0.000    0.000    0.000    0.000 
#
# Total GULP energy -100343.605755 kJ/mol
# GULP energy per Si atom -5574.644764 kJ/mol
# Density = 2.561491 g / cm^3
# Si number density = 25.673343 Si / 1000 Ang^3
#
#
#
# Elastic Constant Matrix: (Units=GPa)
#
#
# Indices 1 2 3 4 5 6 
#
# 1 95.0228 46.0108 56.7526 0.0005 -18.8970 0.0037
# 2 46.0108 153.4926 37.7869 -0.0033 -8.7641 0.0178
# 3 56.7526 37.7869 172.6513 -0.0018 -40.4047 -0.0013
# 4 0.0005 -0.0033 -0.0018 41.7573 -0.0017 1.8142
# 5 -18.8970 -8.7641 -40.4047 -0.0017 42.3028 -0.0001
# 6 0.0037 0.0178 -0.0013 1.8142 -0.0001 62.0402
#
#
#
# Elastic Compliance Matrix: (Units=1/GPa)
#
#
# Indices 1 2 3 4 5 6 
#
# 1 0.014786 -0.003421 -0.003518 -0.000001 0.002536 0.000000
# 2 -0.003421 0.007678 -0.000697 0.000001 -0.000603 -0.000002
# 3 -0.003518 -0.000697 0.008628 0.000001 0.006525 0.000001
# 4 -0.000001 0.000001 0.000001 0.023978 0.000001 -0.000701
# 5 0.002536 -0.000603 0.006525 0.000001 0.030879 0.000000
# 6 0.000000 -0.000002 0.000001 -0.000701 0.000000 0.016139
#
#
# Mechanical properties :
#
#
# Convention : Reuss Voigt Hill
#
# Bulk Modulus (GPa) = 63.21521 78.02968 70.62245
# Shear Modulus (GPa) = 40.77187 47.92784 44.34985
#
# Velocity S-wave (km/s) = 3.98942 4.32537 4.16079
# Velocity P-wave (km/s) = 6.77473 7.44341 7.11693
#
# Compressibility (1/GPa) = 0.01581898
#
# Stress axis : x y z
#
# Youngs Moduli (GPa) = 67.63206 130.24798 115.90221
#
# Poissons Ratio (x) = 0.44562 0.40775
# Poissons Ratio (y) = 0.23139 0.08077
# Poissons Ratio (z) = 0.23793 0.09077
#
# Static dielectric constant tensor:
#      x y z
#    x 2.315410 -0.000020 -0.080800 
#    y -0.000020 2.293890 0.000020 
#    z -0.080800 0.000020 2.415130 
# 
# From -- ./inp_files/251175.got.cif
#   From: 2010.05.17/outbox.cif.g08.bks.cpg/sg15_126_cif.got.tgz:251175.got - 2010.06.03 18:47:42.
