data_PCOD9288307
_publ_section_title
;
Structure prediction by ZEFSAII (Michael W. Deem and Ramdas Pophale) SiO2 
 PCOD9288307
Probable space group: C 2/C
;
_chemical_formula_sum "Si O2"
_cell_formula_units_Z 60
_cell_length_a 28.701896
_cell_length_b 13.258878
_cell_length_c 22.635626
_cell_angle_alpha 90.000000
_cell_angle_beta 18.370125
_cell_angle_gamma 90.000000
_cell_volume 2714.769845
_symmetry_space_group_name_H-M "C 2/C"
_symmetry_group_IT_number 15
_symmetry_cell_setting 'monoclinic'
loop_
_space_group_symop_operation_xyz
x,y,z
-x,y,1/2-z
-x,-y,-z
x,-y,1/2+z
1/2+x,1/2+y,z
1/2-x,1/2+y,1/2-z
1/2-x,1/2-y,-z
1/2+x,1/2-y,1/2+z
loop_
_atom_site_type_symbol
_atom_site_label
_atom_site_fract_x
_atom_site_fract_y
_atom_site_fract_z
Si Si1 0.987188 0.043310 0.580835
Si Si2 0.443989 0.369756 0.726158
Si Si3 0.558019 0.814834 0.355733
Si Si4 0.251395 0.705937 0.864938
Si Si5 0.213017 0.651133 0.086355
Si Si6 0.212985 0.940091 0.478203
Si Si7 0.286671 0.282580 0.714597
Si Si8 0.000000 0.351632 0.750000
O O1 0.116610 0.125476 0.427250
O O2 0.837032 0.103749 0.774798
O O3 0.000000 0.000000 0.500000
O O4 0.987113 0.951639 0.625227
O O5 0.412528 0.266879 0.730827
O O6 0.589520 0.375805 0.591706
O O7 0.305915 0.401463 0.932389
O O8 0.637555 0.916193 0.237327
O O9 0.631382 0.769931 0.328097
O O10 0.380189 0.820077 0.572346
O O11 0.341916 0.797376 0.786737
O O12 0.231346 0.709625 0.819669
O O13 0.098510 0.711895 0.084997
O O14 0.318981 0.560419 0.979648
O O15 0.103471 0.593294 0.172755
O O16 0.250000 0.750000 0.000000
#
# Coordination Sequence:
#
# PCOD9288307 Si02
#       8
#     8   8   8   8   8   8   8   4
#     4  12  24  43  72 102 140 196 244 292 371 459
#     4  11  23  46  72 105 144 195 251 297 378 448
#     4  12  25  48  73 106 151 193 255 308 372 445
#     4  11  23  42  69 101 143 190 239 306 371 439
#     4  10  22  43  65 103 144 184 235 304 372 436
#     4  11  25  44  74 107 144 194 246 312 370 453
#     4  12  24  46  73 105 149 197 245 312 374 447
#     4  10  22  38  68 100 142 178 238 302 370 430
#
# _framework density 22.101320000000001
#
# number of rings (size 3 to 8) (size 9 to 14) (size 15 to 20)
#    0.000    0.800    4.000    3.600    0.000    7.467 
#    2.400    4.000    0.000    0.000    0.000    0.000 
#    0.000    0.000    0.000    0.000    0.000    0.000 
#
# Total GULP energy -167180.968950 kJ/mol
# GULP energy per Si atom -5572.698965 kJ/mol
# Density = 2.205102 g / cm^3
# Si number density = 22.101320 Si / 1000 Ang^3
#
#
#
# Elastic Constant Matrix: (Units=GPa)
#
#
# Indices 1 2 3 4 5 6 
#
# 1 99.3772 8.7920 8.6394 -0.0002 7.8806 0.0002
# 2 8.7920 64.2945 12.6419 0.0005 7.5858 -0.0016
# 3 8.6394 12.6419 98.3780 -0.0007 9.5889 -0.0009
# 4 -0.0002 0.0005 -0.0007 31.2397 -0.0002 13.1936
# 5 7.8806 7.5858 9.5889 -0.0002 33.9941 0.0014
# 6 0.0002 -0.0016 -0.0009 13.1936 0.0014 22.1830
#
#
#
# Elastic Compliance Matrix: (Units=1/GPa)
#
#
# Indices 1 2 3 4 5 6 
#
# 1 0.010366 -0.001068 -0.000578 0.000000 -0.002002 0.000000
# 2 -0.001068 0.016384 -0.001727 -0.000001 -0.002921 0.000002
# 3 -0.000578 -0.001727 0.010681 0.000000 -0.002493 0.000000
# 4 0.000000 -0.000001 0.000000 0.042748 0.000001 -0.025425
# 5 -0.002002 -0.002921 -0.002493 0.000001 0.031236 -0.000003
# 6 0.000000 0.000002 0.000000 -0.025425 -0.000003 0.060202
#
#
# Mechanical properties :
#
#
# Convention : Reuss Voigt Hill
#
# Bulk Modulus (GPa) = 32.58891 35.79957 34.19424
# Shear Modulus (GPa) = 26.51253 32.94845 29.73049
#
# Velocity S-wave (km/s) = 3.46727 3.86526 3.67166
# Velocity P-wave (km/s) = 5.55036 6.01277 5.78619
#
# Compressibility (1/GPa) = 0.03068528
#
# Stress axis : x y z
#
# Youngs Moduli (GPa) = 96.46804 61.03641 93.62797
#
# Poissons Ratio (x) = 0.06517 0.05412
# Poissons Ratio (y) = 0.10300 0.16168
# Poissons Ratio (z) = 0.05576 0.10540
#
# Static dielectric constant tensor:
#      x y z
#    x 1.878670 0.000000 -0.085600 
#    y 0.000000 2.003110 0.000000 
#    z -0.085600 0.000000 1.917670 
# 
# From -- ./inp_files/257857.got.cif
#   From: 2010.05.17/outbox.cif.g08.bks.cpg/sg15_129_cif.got.tgz:257857.got - 2010.06.03 18:47:42.
