data_PCOD9288333
_publ_section_title
;
Structure prediction by ZEFSAII (Michael W. Deem and Ramdas Pophale) SiO2 
 PCOD9288333
Probable space group: C 2/C
;
_chemical_formula_sum "Si O2"
_cell_formula_units_Z 56
_cell_length_a 30.295348
_cell_length_b 15.778223
_cell_length_c 8.209426
_cell_angle_alpha 90.000000
_cell_angle_beta 144.391794
_cell_angle_gamma 90.000000
_cell_volume 2284.801272
_symmetry_space_group_name_H-M "C 2/C"
_symmetry_group_IT_number 15
_symmetry_cell_setting 'monoclinic'
loop_
_space_group_symop_operation_xyz
x,y,z
-x,y,1/2-z
-x,-y,-z
x,-y,1/2+z
1/2+x,1/2+y,z
1/2-x,1/2+y,1/2-z
1/2-x,1/2-y,-z
1/2+x,1/2-y,1/2+z
loop_
_atom_site_type_symbol
_atom_site_label
_atom_site_fract_x
_atom_site_fract_y
_atom_site_fract_z
Si Si1 0.567390 0.068722 0.165529
Si Si2 0.500000 0.782710 0.250000
Si Si3 0.756121 0.295759 0.843059
Si Si4 0.390238 0.697854 0.160587
Si Si5 0.500000 0.709668 0.750000
Si Si6 0.675035 0.046686 0.777821
Si Si7 0.108647 0.879079 0.339730
Si Si8 0.343790 0.473113 0.696138
O O1 0.615711 0.086025 0.472030
O O2 0.627363 0.027440 0.220100
O O3 0.533142 0.153564 0.985501
O O4 0.500000 0.000000 0.000000
O O5 0.439122 0.722421 0.152093
O O6 0.808563 0.238929 0.889868
O O7 0.797540 0.384521 0.007627
O O8 0.750000 0.250000 0.000000
O O9 0.673495 0.309125 0.520743
O O10 0.427945 0.745140 0.435200
O O11 0.373922 0.602092 0.169638
O O12 0.465713 0.657400 0.800053
O O13 0.752408 0.017761 0.917548
O O14 0.140497 0.940197 0.576771
O O15 0.109423 0.941443 0.191316
#
# Coordination Sequence:
#
# PCOD9288333 Si02
#       8
#     8   4   8   8   4   8   8   8
#     4  12  24  43  61 100 132 172 215 264 339 399
#     4  12  28  41  63 100 142 170 204 284 338 381
#     4  11  20  42  68  95 127 170 223 272 317 390
#     4  11  25  44  62  96 137 169 216 270 330 391
#     4  10  22  41  67  92 122 176 218 250 330 389
#     4  11  22  39  68  89 128 172 217 269 316 394
#     4  10  22  38  68  95 125 169 220 268 321 385
#     4  10  22  42  63  95 124 171 221 265 319 380
#
# _framework density 24.509792000000001
#
# number of rings (size 3 to 8) (size 9 to 14) (size 15 to 20)
#    0.000    1.143    5.714    2.571    4.000    4.000 
#    0.000    0.714    0.000    0.000    0.000    0.000 
#    0.000    0.000    0.000    0.000    0.000    0.000 
#
# Total GULP energy -156574.190733 kJ/mol
# GULP energy per Si atom -5591.935383 kJ/mol
# Density = 2.445401 g / cm^3
# Si number density = 24.509792 Si / 1000 Ang^3
#
#
#
# Elastic Constant Matrix: (Units=GPa)
#
#
# Indices 1 2 3 4 5 6 
#
# 1 122.0650 42.6813 11.3420 0.0000 41.8845 0.0000
# 2 42.6813 89.2534 16.3319 0.0000 13.1188 0.0000
# 3 11.3420 16.3319 72.6133 0.0000 10.1777 0.0000
# 4 0.0000 0.0000 0.0000 33.4537 0.0000 -2.2740
# 5 41.8845 13.1188 10.1777 0.0000 36.8197 0.0000
# 6 0.0000 0.0000 0.0000 -2.2740 0.0000 49.3627
#
#
#
# Elastic Compliance Matrix: (Units=1/GPa)
#
#
# Indices 1 2 3 4 5 6 
#
# 1 0.015379 -0.005197 0.000998 0.000000 -0.015919 0.000000
# 2 -0.005197 0.013912 -0.002550 0.000000 0.001660 0.000000
# 3 0.000998 -0.002550 0.014794 0.000000 -0.004316 0.000000
# 4 0.000000 0.000000 0.000000 0.029986 0.000000 0.001381
# 5 -0.015919 0.001660 -0.004316 0.000000 0.045869 0.000000
# 6 0.000000 0.000000 0.000000 0.001381 0.000000 0.020322
#
#
# Mechanical properties :
#
#
# Convention : Reuss Voigt Hill
#
# Bulk Modulus (GPa) = 32.69363 47.18246 39.93805
# Shear Modulus (GPa) = 30.49590 38.16563 34.33076
#
# Velocity S-wave (km/s) = 3.53120 3.95037 3.74665
# Velocity P-wave (km/s) = 5.47666 6.33241 5.92002
#
# Compressibility (1/GPa) = 0.03058700
#
# Stress axis : x y z
#
# Youngs Moduli (GPa) = 65.02323 71.88066 67.59415
#
# Poissons Ratio (x) = 0.37358 -0.06746
# Poissons Ratio (y) = 0.33794 0.17236
# Poissons Ratio (z) = -0.06489 0.18329
#
# Static dielectric constant tensor:
#      x y z
#    x 2.345330 0.000000 -0.018720 
#    y 0.000000 1.964810 0.000000 
#    z -0.018720 0.000000 2.030670 
# 
# From -- ./inp_files/49065.got.cif
#   From: 2010.05.17/outbox.cif.g08.bks.cpg/sg15_25_cif.got.tgz:49065.got - 2010.06.03 18:47:42.
