data_PCOD9288172
_publ_section_title
;
Structure prediction by ZEFSAII (Michael W. Deem and Ramdas Pophale) SiO2 
 PCOD9288172
Probable space group: C 2/C
;
_chemical_formula_sum "Si O2"
_cell_formula_units_Z 52
_cell_length_a 25.022359
_cell_length_b 11.752493
_cell_length_c 16.524625
_cell_angle_alpha 90.000000
_cell_angle_beta 33.004998
_cell_angle_gamma 90.000000
_cell_volume 2647.018399
_symmetry_space_group_name_H-M "C 2/C"
_symmetry_group_IT_number 15
_symmetry_cell_setting 'monoclinic'
loop_
_space_group_symop_operation_xyz
x,y,z
-x,y,1/2-z
-x,-y,-z
x,-y,1/2+z
1/2+x,1/2+y,z
1/2-x,1/2+y,1/2-z
1/2-x,1/2-y,-z
1/2+x,1/2-y,1/2+z
loop_
_atom_site_type_symbol
_atom_site_label
_atom_site_fract_x
_atom_site_fract_y
_atom_site_fract_z
Si Si1 0.241616 0.745197 0.711908
Si Si2 0.150659 0.029163 0.980939
Si Si3 0.329138 0.831235 0.442351
Si Si4 0.163124 0.233426 0.731645
Si Si5 0.000000 0.192599 0.250000
Si Si6 0.731496 0.074296 0.028245
Si Si7 0.953643 0.117366 0.020310
O O1 0.261622 0.611388 0.663116
O O2 0.308666 0.815413 0.563615
O O3 0.284654 0.756197 0.748285
O O4 0.132219 0.797456 0.836643
O O5 0.062691 0.114576 0.111909
O O6 0.180903 0.970563 0.026042
O O7 0.108088 0.935357 0.975648
O O8 0.250000 0.750000 0.500000
O O9 0.430014 0.774387 0.289517
O O10 0.324116 0.961195 0.426016
O O11 0.225365 0.137640 0.604498
O O12 0.170443 0.341315 0.662748
O O13 0.051475 0.191160 0.881815
O O14 0.000000 0.000000 0.000000
#
# Coordination Sequence:
#
# PCOD9288172 Si02
#       7
#     8   8   8   8   4   8   8
#     4  11  24  42  64 101 133 167 225 281 328 393
#     4  11  22  42  70  94 133 170 226 278 321 400
#     4  11  23  41  68  92 132 172 222 281 329 388
#     4  11  25  44  66  97 137 175 222 276 335 401
#     4  10  22  38  64  96 118 168 230 268 324 394
#     4  11  23  46  65  96 137 174 217 284 337 380
#     4  12  24  40  72  99 129 183 225 265 342 405
#
# _framework density 19.644743999999999
#
# number of rings (size 3 to 8) (size 9 to 14) (size 15 to 20)
#    0.000    0.923    6.154    1.846    2.154    0.000 
#    2.769    0.769    0.000    0.000    0.000    0.000 
#    0.000    0.000    0.000    0.000    0.000    0.000 
#
# Total GULP energy -144899.372367 kJ/mol
# GULP energy per Si atom -5573.052783 kJ/mol
# Density = 1.960003 g / cm^3
# Si number density = 19.644744 Si / 1000 Ang^3
#
#
#
# Elastic Constant Matrix: (Units=GPa)
#
#
# Indices 1 2 3 4 5 6 
#
# 1 90.8815 34.3047 33.6018 0.0000 4.2947 0.0000
# 2 34.3047 121.2223 58.6351 0.0000 -10.5455 0.0000
# 3 33.6018 58.6351 106.5750 0.0000 -13.1913 0.0000
# 4 0.0000 0.0000 0.0000 41.0792 0.0000 -18.6134
# 5 4.2947 -10.5455 -13.1913 0.0000 31.4658 0.0000
# 6 0.0000 0.0000 0.0000 -18.6134 0.0000 40.7537
#
#
#
# Elastic Compliance Matrix: (Units=1/GPa)
#
#
# Indices 1 2 3 4 5 6 
#
# 1 0.013382 -0.002530 -0.003331 0.000000 -0.004071 0.000000
# 2 -0.002530 0.011765 -0.005426 0.000000 0.002014 0.000000
# 3 -0.003331 -0.005426 0.013975 0.000000 0.004495 0.000000
# 4 0.000000 0.000000 0.000000 0.030696 0.000000 0.014020
# 5 -0.004071 0.002014 0.004495 0.000000 0.034895 0.000000
# 6 0.000000 0.000000 0.000000 0.014020 0.000000 0.030941
#
#
# Mechanical properties :
#
#
# Convention : Reuss Voigt Hill
#
# Bulk Modulus (GPa) = 60.43014 63.52910 61.97962
# Shear Modulus (GPa) = 30.53544 35.46888 33.00216
#
# Velocity S-wave (km/s) = 3.94684 4.25375 4.10316
# Velocity P-wave (km/s) = 7.18320 7.51897 7.35300
#
# Compressibility (1/GPa) = 0.01654803
#
# Stress axis : x y z
#
# Youngs Moduli (GPa) = 74.72532 84.99846 71.55661
#
# Poissons Ratio (x) = 0.21504 0.23838
# Poissons Ratio (y) = 0.18905 0.38826
# Poissons Ratio (z) = 0.24893 0.46120
#
# Static dielectric constant tensor:
#      x y z
#    x 1.800140 0.000000 -0.011980 
#    y 0.000000 1.740950 0.000000 
#    z -0.011980 0.000000 1.709150 
# 
# From -- ./inp_files/160764.got.cif
#   From: 2010.05.17/outbox.cif.g08.bks.cpg/sg15_81_cif.got.tgz:160764.got - 2010.06.03 18:47:42.
