data_PCOD9289312
_publ_section_title
;
Structure prediction by ZEFSAII (Michael W. Deem and Ramdas Pophale) SiO2 
 PCOD9289312
Probable space group: C 2/C
;
_chemical_formula_sum "Si O2"
_cell_formula_units_Z 56
_cell_length_a 8.968646
_cell_length_b 20.676562
_cell_length_c 17.950868
_cell_angle_alpha 90.000000
_cell_angle_beta 45.532241
_cell_angle_gamma 90.000000
_cell_volume 2375.596827
_symmetry_space_group_name_H-M "C 2/C"
_symmetry_group_IT_number 15
_symmetry_cell_setting 'monoclinic'
loop_
_space_group_symop_operation_xyz
x,y,z
-x,y,1/2-z
-x,-y,-z
x,-y,1/2+z
1/2+x,1/2+y,z
1/2-x,1/2+y,1/2-z
1/2-x,1/2-y,-z
1/2+x,1/2-y,1/2+z
loop_
_atom_site_type_symbol
_atom_site_label
_atom_site_fract_x
_atom_site_fract_y
_atom_site_fract_z
Si Si1 0.980061 0.408030 0.060264
Si Si2 0.480904 0.777018 0.676305
Si Si3 0.638001 0.988066 0.128397
Si Si4 0.896687 0.848206 0.866624
Si Si5 0.043038 0.102179 0.470366
Si Si6 0.968435 0.288739 0.179051
Si Si7 0.234996 0.839610 0.037025
O O1 0.000698 0.471515 0.103444
O O2 0.971725 0.346205 0.119137
O O3 0.787947 0.400159 0.070843
O O4 0.194695 0.393529 0.942382
O O5 0.500000 0.810441 0.750000
O O6 0.253137 0.747777 0.746107
O O7 0.556258 0.818853 0.580132
O O8 0.647720 0.718104 0.618019
O O9 0.500000 0.980733 0.250000
O O10 0.756411 0.056232 0.089296
O O11 0.830430 0.937492 0.057451
O O12 0.000000 0.857119 0.750000
O O13 0.031728 0.868767 0.891874
O O14 0.866900 0.770528 0.886544
O O15 0.067243 0.151481 0.530051
O O16 0.000000 0.317249 0.250000
#
# Coordination Sequence:
#
# PCOD9289312 Si02
#       7
#     8   8   8   8   8   8   8
#     4  11  23  39  61  92 130 165 220 265 317 393
#     4  11  23  39  57  95 135 168 213 252 329 388
#     4  10  24  45  67  93 122 171 222 269 331 379
#     4  10  22  40  63  93 127 168 215 262 329 389
#     4  10  24  44  68  93 127 166 222 277 320 387
#     4  11  22  36  61  91 129 173 209 260 321 394
#     4  11  24  38  63  93 131 172 209 268 318 389
#
# _framework density 23.573022999999999
#
# number of rings (size 3 to 8) (size 9 to 14) (size 15 to 20)
#    0.000    1.429    1.429    3.429    8.000    3.429 
#    0.000    2.857    0.000    0.857    0.000    0.000 
#    0.000    0.000    0.000    0.000    0.000    0.000 
#
# Total GULP energy -156615.507406 kJ/mol
# GULP energy per Si atom -5593.410979 kJ/mol
# Density = 2.351937 g / cm^3
# Si number density = 23.573023 Si / 1000 Ang^3
#
#
#
# Elastic Constant Matrix: (Units=GPa)
#
#
# Indices 1 2 3 4 5 6 
#
# 1 101.1550 8.3717 14.3615 0.0000 26.5770 0.0000
# 2 8.3717 51.2836 12.9630 0.0000 8.1104 0.0000
# 3 14.3615 12.9630 108.1432 0.0000 15.0181 0.0000
# 4 0.0000 0.0000 0.0000 15.9708 0.0000 1.8981
# 5 26.5770 8.1104 15.0181 0.0000 33.2175 0.0000
# 6 0.0000 0.0000 0.0000 1.8981 0.0000 37.7383
#
#
#
# Elastic Compliance Matrix: (Units=1/GPa)
#
#
# Indices 1 2 3 4 5 6 
#
# 1 0.012535 -0.000431 -0.000251 0.000000 -0.009810 0.000000
# 2 -0.000431 0.020654 -0.001884 0.000000 -0.003846 0.000000
# 3 -0.000251 -0.001884 0.010045 0.000000 -0.003881 0.000000
# 4 0.000000 0.000000 0.000000 0.062991 0.000000 -0.003168
# 5 -0.009810 -0.003846 -0.003881 0.000000 0.040647 0.000000
# 6 0.000000 0.000000 0.000000 -0.003168 0.000000 0.026658
#
#
# Mechanical properties :
#
#
# Convention : Reuss Voigt Hill
#
# Bulk Modulus (GPa) = 26.24579 36.88600 31.56590
# Shear Modulus (GPa) = 26.12837 32.37770 29.25304
#
# Velocity S-wave (km/s) = 3.33288 3.71011 3.52654
# Velocity P-wave (km/s) = 5.09596 5.83393 5.47738
#
# Compressibility (1/GPa) = 0.03810134
#
# Stress axis : x y z
#
# Youngs Moduli (GPa) = 79.77929 48.41592 99.55084
#
# Poissons Ratio (x) = 0.02089 0.02494
# Poissons Ratio (y) = 0.03442 0.18760
# Poissons Ratio (z) = 0.01999 0.09124
#
# Static dielectric constant tensor:
#      x y z
#    x 1.937680 0.000000 -0.021700 
#    y 0.000000 1.897490 0.000000 
#    z -0.021700 0.000000 1.873190 
# 
# From -- ./inp_files/193205.got.cif
#   From: 2010.05.17/outbox.cif.g08.bks.cpg/sg15_97_cif.got.tgz:193205.got - 2010.06.03 18:47:42.
