data_PCOD9289061
_publ_section_title
;
Structure prediction by ZEFSAII (Michael W. Deem and Ramdas Pophale) SiO2 
 PCOD9289061
Probable space group: C 2/C
;
_chemical_formula_sum "Si O2"
_cell_formula_units_Z 36
_cell_length_a 11.973604
_cell_length_b 17.906994
_cell_length_c 10.491679
_cell_angle_alpha 90.000000
_cell_angle_beta 126.273582
_cell_angle_gamma 90.000000
_cell_volume 1813.576976
_symmetry_space_group_name_H-M "C 2/C"
_symmetry_group_IT_number 15
_symmetry_cell_setting 'monoclinic'
loop_
_space_group_symop_operation_xyz
x,y,z
-x,y,1/2-z
-x,-y,-z
x,-y,1/2+z
1/2+x,1/2+y,z
1/2-x,1/2+y,1/2-z
1/2-x,1/2-y,-z
1/2+x,1/2-y,1/2+z
loop_
_atom_site_type_symbol
_atom_site_label
_atom_site_fract_x
_atom_site_fract_y
_atom_site_fract_z
Si Si1 0.599494 0.713610 0.194343
Si Si2 0.000000 0.587064 0.250000
Si Si3 0.862580 0.479147 0.983502
Si Si4 0.097851 0.321834 0.570704
Si Si5 0.579051 0.460161 0.668061
O O1 0.500000 0.718634 0.250000
O O2 0.761698 0.726343 0.330365
O O3 0.593126 0.627576 0.144931
O O4 0.532987 0.772376 0.053995
O O5 0.937113 0.637937 0.319352
O O6 0.121759 0.532267 0.384251
O O7 0.871392 0.389714 0.008259
O O8 0.729226 0.492757 0.806102
O O9 0.000000 0.500000 0.000000
O O10 0.500000 0.464693 0.750000
O O11 0.500000 0.500000 0.500000
#
# Coordination Sequence:
#
# PCOD9289061 Si02
#       5
#     8   4   8   8   8
#     4  10  22  40  59  91 123 165 210 252 311 376
#     4  10  22  40  64  96 124 162 212 260 314 372
#     4   9  21  38  62  88 122 162 207 253 307 374
#     4  10  22  40  62  89 126 161 210 255 311 374
#     4  10  23  40  62  91 126 163 210 262 315 370
#
# _framework density 19.850273000000001
#
# number of rings (size 3 to 8) (size 9 to 14) (size 15 to 20)
#    0.000    2.222    0.000    0.667   10.889    4.444 
#    2.000    0.000    0.000    0.000    0.000    0.000 
#    0.000    0.000    0.000    0.000    0.000    0.000 
#
# Total GULP energy -100400.608357 kJ/mol
# GULP energy per Si atom -5577.811575 kJ/mol
# Density = 1.980509 g / cm^3
# Si number density = 19.850273 Si / 1000 Ang^3
#
#
#
# Elastic Constant Matrix: (Units=GPa)
#
#
# Indices 1 2 3 4 5 6 
#
# 1 66.3895 19.5062 34.3340 0.0000 12.8868 0.0000
# 2 19.5062 64.2097 73.6337 0.0000 1.2896 0.0000
# 3 34.3340 73.6337 146.5300 0.0000 22.0232 0.0000
# 4 0.0000 0.0000 0.0000 44.2714 0.0000 8.9824
# 5 12.8868 1.2896 22.0232 0.0000 42.3796 0.0000
# 6 0.0000 0.0000 0.0000 8.9824 0.0000 18.6747
#
#
#
# Elastic Compliance Matrix: (Units=1/GPa)
#
#
# Indices 1 2 3 4 5 6 
#
# 1 0.017823 -0.003013 -0.002019 0.000000 -0.004279 0.000000
# 2 -0.003013 0.040896 -0.021473 0.000000 0.010831 0.000000
# 3 -0.002019 -0.021473 0.019414 0.000000 -0.008821 0.000000
# 4 0.000000 0.000000 0.000000 0.025031 0.000000 -0.012040
# 5 -0.004279 0.010831 -0.008821 0.000000 0.029152 0.000000
# 6 0.000000 0.000000 0.000000 -0.012040 0.000000 0.059339
#
#
# Mechanical properties :
#
#
# Convention : Reuss Voigt Hill
#
# Bulk Modulus (GPa) = 39.80430 59.11967 49.46199
# Shear Modulus (GPa) = 19.75985 31.04216 25.40101
#
# Velocity S-wave (km/s) = 3.15849 3.95880 3.58107
# Velocity P-wave (km/s) = 5.77903 7.12345 6.48617
#
# Compressibility (1/GPa) = 0.02512291
#
# Stress axis : x y z
#
# Youngs Moduli (GPa) = 56.10881 24.45215 51.50971
#
# Poissons Ratio (x) = 0.07368 0.10398
# Poissons Ratio (y) = 0.16907 1.10606
# Poissons Ratio (z) = 0.11327 0.52506
#
# Static dielectric constant tensor:
#      x y z
#    x 1.680520 0.000000 0.009030 
#    y 0.000000 1.716930 0.000000 
#    z 0.009030 0.000000 1.717150 
# 
# From -- ./inp_files/30115.got.cif
#   From: 2010.05.17/outbox.cif.g08.bks.cpg/sg15_16_cif.got.tgz:30115.got - 2010.06.03 18:47:42.
