data_PCOD9289965
_publ_section_title
;
Structure prediction by ZEFSAII (Michael W. Deem and Ramdas Pophale) SiO2 
 PCOD9289965
Probable space group: C 2/C
;
_chemical_formula_sum "Si O2"
_cell_formula_units_Z 64
_cell_length_a 12.043579
_cell_length_b 14.830604
_cell_length_c 26.912427
_cell_angle_alpha 90.000000
_cell_angle_beta 138.909379
_cell_angle_gamma 90.000000
_cell_volume 3159.359948
_symmetry_space_group_name_H-M "C 2/C"
_symmetry_group_IT_number 15
_symmetry_cell_setting 'monoclinic'
loop_
_space_group_symop_operation_xyz
x,y,z
-x,y,1/2-z
-x,-y,-z
x,-y,1/2+z
1/2+x,1/2+y,z
1/2-x,1/2+y,1/2-z
1/2-x,1/2-y,-z
1/2+x,1/2-y,1/2+z
loop_
_atom_site_type_symbol
_atom_site_label
_atom_site_fract_x
_atom_site_fract_y
_atom_site_fract_z
Si Si1 0.418400 0.144126 0.405975
Si Si2 0.268958 0.149368 0.830334
Si Si3 0.328729 0.452023 0.926453
Si Si4 0.292789 0.248796 0.937885
Si Si5 0.589528 0.700286 0.667631
Si Si6 0.341904 0.498910 0.322157
Si Si7 0.619213 0.531592 0.332957
Si Si8 0.491213 0.986010 0.356787
O O1 0.558952 0.196348 0.484362
O O2 0.342414 0.214636 0.340233
O O3 0.277323 0.097181 0.392499
O O4 0.497313 0.061975 0.401295
O O5 0.297187 0.222579 0.881555
O O6 0.157914 0.186646 0.747025
O O7 0.183359 0.063382 0.830222
O O8 0.439075 0.108340 0.864028
O O9 0.311602 0.355766 0.947297
O O10 0.332936 0.442890 0.868419
O O11 0.164379 0.510155 0.885567
O O12 0.500000 0.500000 0.000000
O O13 0.111246 0.216912 0.897037
O O14 0.638003 0.606850 0.657511
O O15 0.503572 0.517932 0.341875
O O16 0.170661 0.509040 0.232510
O O17 0.500000 0.571889 0.250000
#
# Coordination Sequence:
#
# PCOD9289965 Si02
#       8
#     8   8   8   8   8   8   8   8
#     4  11  24  37  65 100 131 164 218 273 324 383
#     4  10  22  40  71 101 128 161 225 283 316 379
#     4  12  28  44  64  92 140 181 217 265 329 395
#     4  12  24  40  65 100 129 170 231 267 316 381
#     4  11  21  41  68  96 129 169 226 269 310 387
#     4  11  23  43  71  94 130 170 221 267 329 398
#     4  11  19  42  66 102 126 165 213 275 334 388
#     4  10  23  43  68  96 129 171 223 264 336 389
#
# _framework density 20.257266999999999
#
# number of rings (size 3 to 8) (size 9 to 14) (size 15 to 20)
#    0.000    1.000    6.250    1.875    3.500    4.000 
#    0.000    8.750    0.000    0.000    0.000    0.000 
#    0.000    0.000    0.000    0.000    0.000    0.000 
#
# Total GULP energy -178825.311148 kJ/mol
# GULP energy per Si atom -5588.290973 kJ/mol
# Density = 2.021116 g / cm^3
# Si number density = 20.257267 Si / 1000 Ang^3
#
#
#
# Elastic Constant Matrix: (Units=GPa)
#
#
# Indices 1 2 3 4 5 6 
#
# 1 104.0880 9.5488 28.6254 0.0000 30.0572 0.0000
# 2 9.5488 54.6715 26.8305 0.0000 25.6540 0.0000
# 3 28.6254 26.8305 62.0810 0.0000 20.5499 0.0000
# 4 0.0000 0.0000 0.0000 33.3430 0.0000 -3.1623
# 5 30.0572 25.6540 20.5499 0.0000 23.2676 0.0000
# 6 0.0000 0.0000 0.0000 -3.1623 0.0000 27.5518
#
#
#
# Elastic Compliance Matrix: (Units=1/GPa)
#
#
# Indices 1 2 3 4 5 6 
#
# 1 0.023048 0.021095 -0.003095 0.000000 -0.050299 0.000000
# 2 0.021095 0.057785 -0.006487 0.000000 -0.085232 0.000000
# 3 -0.003095 -0.006487 0.023525 0.000000 -0.009627 0.000000
# 4 0.000000 0.000000 0.000000 0.030321 0.000000 0.003480
# 5 -0.050299 -0.085232 -0.009627 0.000000 0.210430 0.000000
# 6 0.000000 0.000000 0.000000 0.003480 0.000000 0.036695
#
#
# Mechanical properties :
#
#
# Convention : Reuss Voigt Hill
#
# Bulk Modulus (GPa) = 7.85027 38.98334 23.41681
# Shear Modulus (GPa) = 12.46141 27.22154 19.84148
#
# Velocity S-wave (km/s) = 2.48293 3.66975 3.13305
# Velocity P-wave (km/s) = 3.47902 6.10262 4.96717
#
# Compressibility (1/GPa) = 0.12738417
#
# Stress axis : x y z
#
# Youngs Moduli (GPa) = 43.38835 17.30567 42.50725
#
# Poissons Ratio (x) = -0.36507 0.13154
# Poissons Ratio (y) = -0.91529 0.27576
# Poissons Ratio (z) = 0.13427 0.11227
#
# Static dielectric constant tensor:
#      x y z
#    x 1.725910 0.000000 -0.012920 
#    y 0.000000 1.718690 0.000000 
#    z -0.012920 0.000000 1.730820 
# 
# From -- ./inp_files/293094.got.cif
#   From: 2010.05.17/outbox.cif.g08.bks.cpg/sg15_147_cif.got.tgz:293094.got - 2010.06.03 18:47:42.
