data_PCOD9289333
_publ_section_title
;
Structure prediction by ZEFSAII (Michael W. Deem and Ramdas Pophale) SiO2 
 PCOD9289333
Probable space group: C 2/C
;
_chemical_formula_sum "Si O2"
_cell_formula_units_Z 56
_cell_length_a 7.276570
_cell_length_b 16.891710
_cell_length_c 24.067074
_cell_angle_alpha 90.000000
_cell_angle_beta 115.051460
_cell_angle_gamma 90.000000
_cell_volume 2679.891627
_symmetry_space_group_name_H-M "C 2/C"
_symmetry_group_IT_number 15
_symmetry_cell_setting 'monoclinic'
loop_
_space_group_symop_operation_xyz
x,y,z
-x,y,1/2-z
-x,-y,-z
x,-y,1/2+z
1/2+x,1/2+y,z
1/2-x,1/2+y,1/2-z
1/2-x,1/2-y,-z
1/2+x,1/2-y,1/2+z
loop_
_atom_site_type_symbol
_atom_site_label
_atom_site_fract_x
_atom_site_fract_y
_atom_site_fract_z
Si Si1 0.793375 0.898971 0.651911
Si Si2 0.192579 0.399188 0.027688
Si Si3 0.663238 0.787157 0.544979
Si Si4 0.000000 0.773308 0.750000
Si Si5 0.152675 0.868771 0.116361
Si Si6 0.295211 0.337739 0.247205
Si Si7 0.072448 0.507827 0.915115
Si Si8 0.500000 0.486103 0.250000
O O1 0.784010 0.860685 0.589339
O O2 0.830670 0.828458 0.700414
O O3 0.582728 0.945551 0.632931
O O4 0.973382 0.959508 0.692298
O O5 0.417088 0.388378 0.078221
O O6 0.063081 0.439096 0.060470
O O7 0.203164 0.455197 0.974852
O O8 0.062486 0.321622 0.994194
O O9 0.750000 0.750000 0.500000
O O10 0.675748 0.714838 0.588771
O O11 0.103906 0.718246 0.716654
O O12 0.192468 0.855689 0.186138
O O13 0.295433 0.936061 0.107501
O O14 0.500000 0.298129 0.250000
O O15 0.310734 0.425266 0.223393
#
# Coordination Sequence:
#
# PCOD9289333 Si02
#       8
#     8   8   8   4   8   8   8   4
#     4  10  22  41  68  94 136 173 218 285 330 398
#     4  10  22  40  63  95 140 167 225 269 324 404
#     4  11  22  40  65 102 136 182 221 271 345 403
#     4  11  22  46  70  93 136 176 220 281 346 400
#     4  12  22  40  68  97 128 179 226 273 337 406
#     4  10  25  42  68  97 124 171 229 278 336 402
#     4  10  22  40  64  95 132 177 215 272 332 394
#     4   9  22  44  66  93 126 174 228 279 336 380
#
# _framework density 20.896369
#
# number of rings (size 3 to 8) (size 9 to 14) (size 15 to 20)
#    0.429    1.143    2.857    1.714    2.000    1.143 
#    2.571    4.286    0.000    0.000    0.000    0.000 
#    0.000    0.000    0.000    0.000    0.000    0.000 
#
# Total GULP energy -156120.138163 kJ/mol
# GULP energy per Si atom -5575.719220 kJ/mol
# Density = 2.084881 g / cm^3
# Si number density = 20.896369 Si / 1000 Ang^3
#
#
#
# Elastic Constant Matrix: (Units=GPa)
#
#
# Indices 1 2 3 4 5 6 
#
# 1 71.7800 40.7050 23.7195 0.0000 -3.3306 0.0000
# 2 40.7050 105.0595 28.0173 0.0000 0.6147 0.0000
# 3 23.7195 28.0173 74.2104 0.0000 2.2757 0.0000
# 4 0.0000 0.0000 0.0000 31.0139 0.0000 24.0600
# 5 -3.3306 0.6147 2.2757 0.0000 33.9611 0.0000
# 6 0.0000 0.0000 0.0000 24.0600 0.0000 19.6673
#
#
#
# Elastic Compliance Matrix: (Units=1/GPa)
#
#
# Indices 1 2 3 4 5 6 
#
# 1 0.018846 -0.006327 -0.003703 0.000000 0.002211 0.000000
# 2 -0.006327 0.012709 -0.002755 0.000000 -0.000666 0.000000
# 3 -0.003703 -0.002755 0.015741 0.000000 -0.001368 0.000000
# 4 0.000000 0.000000 0.000000 0.632861 0.000000 -0.774211
# 5 0.002211 -0.000666 -0.001368 0.000000 0.029766 0.000000
# 6 0.000000 0.000000 0.000000 -0.774211 0.000000 0.997977
#
#
# Mechanical properties :
#
#
# Convention : Reuss Voigt Hill
#
# Bulk Modulus (GPa) = 46.03003 48.43707 47.23355
# Shear Modulus (GPa) = 2.87239 27.50231 15.18735
#
# Velocity S-wave (km/s) = 1.17370 3.63178 2.69884
# Velocity P-wave (km/s) = 4.89003 6.38878 5.68897
#
# Compressibility (1/GPa) = 0.02172495
#
# Stress axis : x y z
#
# Youngs Moduli (GPa) = 53.06291 78.68731 63.52929
#
# Poissons Ratio (x) = 0.49787 0.23522
# Poissons Ratio (y) = 0.33574 0.17504
# Poissons Ratio (z) = 0.19647 0.21680
#
# Static dielectric constant tensor:
#      x y z
#    x 1.755100 0.000000 0.016880 
#    y 0.000000 1.812350 0.000000 
#    z 0.016880 0.000000 1.772130 
# 
# From -- ./inp_files/286130.got.cif
#   From: 2010.05.17/outbox.cif.g08.bks.cpg/sg15_144_cif.got.tgz:286130.got - 2010.06.03 18:47:42.
