data_PCOD9289714
_publ_section_title
;
Structure prediction by ZEFSAII (Michael W. Deem and Ramdas Pophale) SiO2 
 PCOD9289714
Probable space group: C 2/C
;
_chemical_formula_sum "Si O2"
_cell_formula_units_Z 36
_cell_length_a 14.727354
_cell_length_b 10.700365
_cell_length_c 26.881077
_cell_angle_alpha 90.000000
_cell_angle_beta 157.659284
_cell_angle_gamma 90.000000
_cell_volume 1610.212995
_symmetry_space_group_name_H-M "C 2/C"
_symmetry_group_IT_number 15
_symmetry_cell_setting 'monoclinic'
loop_
_space_group_symop_operation_xyz
x,y,z
-x,y,1/2-z
-x,-y,-z
x,-y,1/2+z
1/2+x,1/2+y,z
1/2-x,1/2+y,1/2-z
1/2-x,1/2-y,-z
1/2+x,1/2-y,1/2+z
loop_
_atom_site_type_symbol
_atom_site_label
_atom_site_fract_x
_atom_site_fract_y
_atom_site_fract_z
Si Si1 0.617152 0.694763 0.189112
Si Si2 0.500000 0.703683 0.750000
Si Si3 0.703171 0.937383 0.181383
Si Si4 0.280995 0.346201 0.607649
Si Si5 0.543080 0.357747 0.534354
O O1 0.700303 0.838583 0.225801
O O2 0.772620 0.579801 0.289300
O O3 0.390128 0.690945 0.110066
O O4 0.576047 0.657269 0.110678
O O5 0.588078 0.620719 0.747902
O O6 0.272862 0.794109 0.624986
O O7 0.454848 0.924788 0.024925
O O8 0.500000 0.398941 0.750000
O O9 0.186451 0.228707 0.591546
O O10 0.500000 0.500000 0.500000
#
# Coordination Sequence:
#
# PCOD9289714 Si02
#       5
#     8   4   8   8   8
#     4  10  23  41  66  95 131 169 221 272 325 387
#     4   8  20  40  58  90 130 160 214 270 320 386
#     4  10  22  44  66  96 130 171 222 270 329 389
#     4  10  23  41  67  93 133 174 218 266 331 395
#     4  10  22  40  67  93 129 176 222 269 322 389
#
# _framework density 22.357291
#
# number of rings (size 3 to 8) (size 9 to 14) (size 15 to 20)
#    0.000    2.667    0.000    2.667    6.222    6.222 
#    4.000    2.222    0.000    0.000    0.000    0.000 
#    0.000    0.000    0.000    0.000    0.000    0.000 
#
# Total GULP energy -100400.533407 kJ/mol
# GULP energy per Si atom -5577.807411 kJ/mol
# Density = 2.230640 g / cm^3
# Si number density = 22.357291 Si / 1000 Ang^3
#
#
#
# Elastic Constant Matrix: (Units=GPa)
#
#
# Indices 1 2 3 4 5 6 
#
# 1 99.7244 20.6628 46.2596 0.0008 23.3880 0.0000
# 2 20.6628 162.9403 67.1246 0.0014 2.3787 0.0004
# 3 46.2596 67.1246 116.6334 0.0070 17.0414 0.0008
# 4 0.0008 0.0014 0.0070 43.3652 -0.0025 -1.8577
# 5 23.3880 2.3787 17.0414 -0.0025 36.7584 -0.0001
# 6 0.0000 0.0004 0.0008 -1.8577 -0.0001 49.6361
#
#
#
# Elastic Compliance Matrix: (Units=1/GPa)
#
#
# Indices 1 2 3 4 5 6 
#
# 1 0.013650 0.000262 -0.004605 0.000000 -0.006567 0.000000
# 2 0.000262 0.008155 -0.005037 0.000001 0.001641 0.000000
# 3 -0.004605 -0.005037 0.013755 -0.000002 -0.003121 0.000000
# 4 0.000000 0.000001 -0.000002 0.023097 0.000002 0.000864
# 5 -0.006567 0.001641 -0.003121 0.000002 0.032724 0.000000
# 6 0.000000 0.000000 0.000000 0.000864 0.000000 0.020179
#
#
# Mechanical properties :
#
#
# Convention : Reuss Voigt Hill
#
# Bulk Modulus (GPa) = 59.52468 71.93246 65.72857
# Shear Modulus (GPa) = 36.78640 42.30201 39.54420
#
# Velocity S-wave (km/s) = 4.06074 4.35454 4.21020
# Velocity P-wave (km/s) = 6.97626 7.58462 7.28679
#
# Compressibility (1/GPa) = 0.01679975
#
# Stress axis : x y z
#
# Youngs Moduli (GPa) = 73.26213 122.62275 72.69926
#
# Poissons Ratio (x) = -0.03213 0.33479
# Poissons Ratio (y) = -0.01920 0.36619
# Poissons Ratio (z) = 0.33738 0.61766
#
# Static dielectric constant tensor:
#      x y z
#    x 1.855890 0.000000 -0.029350 
#    y 0.000000 1.874290 0.000000 
#    z -0.029350 0.000000 1.867040 
# 
# From -- ./inp_files/151171.got.cif
#   From: 2010.05.17/outbox.cif.g08.bks.cpg/sg15_76_cif.got.tgz:151171.got - 2010.06.03 18:47:42.
