data_PCOD9289542
_publ_section_title
;
Structure prediction by ZEFSAII (Michael W. Deem and Ramdas Pophale) SiO2 
 PCOD9289542
Probable space group: C 2/C
;
_chemical_formula_sum "Si O2"
_cell_formula_units_Z 56
_cell_length_a 8.961806
_cell_length_b 23.320936
_cell_length_c 14.001290
_cell_angle_alpha 90.000000
_cell_angle_beta 113.060520
_cell_angle_gamma 90.000000
_cell_volume 2692.406574
_symmetry_space_group_name_H-M "C 2/C"
_symmetry_group_IT_number 15
_symmetry_cell_setting 'monoclinic'
loop_
_space_group_symop_operation_xyz
x,y,z
-x,y,1/2-z
-x,-y,-z
x,-y,1/2+z
1/2+x,1/2+y,z
1/2-x,1/2+y,1/2-z
1/2-x,1/2-y,-z
1/2+x,1/2-y,1/2+z
loop_
_atom_site_type_symbol
_atom_site_label
_atom_site_fract_x
_atom_site_fract_y
_atom_site_fract_z
Si Si1 0.846679 0.683842 0.768152
Si Si2 0.725974 0.047554 0.950452
Si Si3 0.495392 0.141964 0.510123
Si Si4 0.920070 0.089571 0.826815
Si Si5 0.507584 0.607803 0.142261
Si Si6 0.300271 0.284629 0.607348
Si Si7 0.232916 0.085229 0.038438
O O1 0.916257 0.684650 0.892600
O O2 0.683291 0.646421 0.724491
O O3 0.817385 0.741651 0.700236
O O4 0.000000 0.656280 0.750000
O O5 0.577024 0.087790 0.947081
O O6 0.788760 0.054833 0.856908
O O7 0.711973 0.980259 0.962863
O O8 0.875270 0.071002 0.051462
O O9 0.346458 0.171103 0.419025
O O10 0.624492 0.123157 0.465615
O O11 0.000000 0.065175 0.750000
O O12 0.073147 0.098509 0.934605
O O13 0.500000 0.590619 0.250000
O O14 0.453917 0.674607 0.125486
O O15 0.676755 0.597113 0.132141
O O16 0.250000 0.250000 0.500000
#
# Coordination Sequence:
#
# PCOD9289542 Si02
#       7
#     8   8   8   8   8   8   8
#     4  12  21  41  67  96 124 174 217 268 324 383
#     4  10  22  40  65  96 132 178 211 254 339 382
#     4  11  23  42  67  96 134 167 219 275 317 394
#     4  11  21  37  64 101 131 162 224 266 311 393
#     4  10  22  41  64  92 129 169 217 264 320 395
#     4  11  22  40  68  90 124 171 221 259 332 385
#     4  11  23  41  65  95 137 169 210 276 324 381
#
# _framework density 20.799236000000001
#
# number of rings (size 3 to 8) (size 9 to 14) (size 15 to 20)
#    0.000    1.143    4.286    4.286    0.000    2.286 
#    0.000    8.571    3.143    0.000    0.000    0.000 
#    0.000    0.000    0.000    0.000    0.000    0.000 
#
# Total GULP energy -156242.233508 kJ/mol
# GULP energy per Si atom -5580.079768 kJ/mol
# Density = 2.075190 g / cm^3
# Si number density = 20.799236 Si / 1000 Ang^3
#
#
#
# Elastic Constant Matrix: (Units=GPa)
#
#
# Indices 1 2 3 4 5 6 
#
# 1 97.9456 23.5340 35.8529 0.0000 -18.6482 0.0000
# 2 23.5340 74.8381 36.1474 0.0000 3.8627 0.0000
# 3 35.8529 36.1474 90.0286 0.0000 -25.4107 0.0000
# 4 0.0000 0.0000 0.0000 4.5569 0.0000 -6.5984
# 5 -18.6482 3.8627 -25.4107 0.0000 37.7303 0.0000
# 6 0.0000 0.0000 0.0000 -6.5984 0.0000 11.0046
#
#
#
# Elastic Compliance Matrix: (Units=1/GPa)
#
#
# Indices 1 2 3 4 5 6 
#
# 1 0.012801 -0.003106 -0.002439 0.000000 0.005002 0.000000
# 2 -0.003106 0.019323 -0.009277 0.000000 -0.009761 0.000000
# 3 -0.002439 -0.009277 0.019424 0.000000 0.012826 0.000000
# 4 0.000000 0.000000 0.000000 1.665195 0.000000 0.998452
# 5 0.005002 -0.009761 0.012826 0.000000 0.038613 0.000000
# 6 0.000000 0.000000 0.000000 0.998452 0.000000 0.689543
#
#
# Mechanical properties :
#
#
# Convention : Reuss Voigt Hill
#
# Bulk Modulus (GPa) = 45.65116 50.43121 48.04118
# Shear Modulus (GPa) = 2.01463 21.81024 11.91244
#
# Velocity S-wave (km/s) = 0.98525 3.24173 2.39578
# Velocity P-wave (km/s) = 4.82601 6.18960 5.54984
#
# Compressibility (1/GPa) = 0.02190525
#
# Stress axis : x y z
#
# Youngs Moduli (GPa) = 78.11788 51.75089 51.48341
#
# Poissons Ratio (x) = 0.16072 0.12557
# Poissons Ratio (y) = 0.24260 0.47760
# Poissons Ratio (z) = 0.19054 0.48008
#
# Static dielectric constant tensor:
#      x y z
#    x 1.740640 0.000000 -0.011520 
#    y 0.000000 1.785310 0.000000 
#    z -0.011520 0.000000 1.774500 
# 
# From -- ./inp_files/137441.got.cif
#   From: 2010.05.17/outbox.cif.g08.bks.cpg/sg15_69_cif.got.tgz:137441.got - 2010.06.03 18:47:42.
