data_PCOD9289539
_publ_section_title
;
Structure prediction by ZEFSAII (Michael W. Deem and Ramdas Pophale) SiO2 
 PCOD9289539
Probable space group: C 2/C
;
_chemical_formula_sum "Si O2"
_cell_formula_units_Z 40
_cell_length_a 5.351540
_cell_length_b 15.608238
_cell_length_c 20.700353
_cell_angle_alpha 90.000000
_cell_angle_beta 85.714017
_cell_angle_gamma 90.000000
_cell_volume 1724.225950
_symmetry_space_group_name_H-M "C 2/C"
_symmetry_group_IT_number 15
_symmetry_cell_setting 'monoclinic'
loop_
_space_group_symop_operation_xyz
x,y,z
-x,y,1/2-z
-x,-y,-z
x,-y,1/2+z
1/2+x,1/2+y,z
1/2-x,1/2+y,1/2-z
1/2-x,1/2-y,-z
1/2+x,1/2-y,1/2+z
loop_
_atom_site_type_symbol
_atom_site_label
_atom_site_fract_x
_atom_site_fract_y
_atom_site_fract_z
Si Si1 0.489129 0.236026 0.550428
Si Si2 0.245431 0.407435 0.510200
Si Si3 0.028196 0.986335 0.387269
Si Si4 0.500000 0.428706 0.750000
Si Si5 0.453481 0.290710 0.126768
Si Si6 0.500000 0.821291 0.750000
O O1 0.433877 0.326003 0.515860
O O2 0.492384 0.148132 0.508116
O O3 0.738396 0.246423 0.585468
O O4 0.241793 0.221777 0.599108
O O5 0.325238 0.468928 0.449189
O O6 0.264826 0.457650 0.577494
O O7 0.112201 0.890707 0.367958
O O8 0.941760 0.024418 0.320155
O O9 0.249071 0.377344 0.736546
O O10 0.437838 0.240203 0.192519
#
# Coordination Sequence:
#
# PCOD9289539 Si02
#       6
#     8   8   8   4   8   4
#     4  10  22  40  65  96 131 170 214 259 317 387
#     4   9  20  40  66  98 133 170 212 264 321 382
#     4  10  22  41  66  97 132 167 214 271 324 376
#     4  12  27  46  67  92 128 172 218 268 325 388
#     4  11  23  41  65  95 129 169 217 267 318 382
#     4  12  25  44  67  88 126 176 220 262 321 392
#
# _framework density 23.198813999999999
#
# number of rings (size 3 to 8) (size 9 to 14) (size 15 to 20)
#    0.000    1.600    0.000    4.200    0.000   11.200 
#    0.000   10.000    0.000    0.000    0.000    0.000 
#    0.000    0.000    0.000    0.000    0.000    0.000 
#
# Total GULP energy -111599.318427 kJ/mol
# GULP energy per Si atom -5579.965921 kJ/mol
# Density = 2.314601 g / cm^3
# Si number density = 23.198814 Si / 1000 Ang^3
#
#
#
# Elastic Constant Matrix: (Units=GPa)
#
#
# Indices 1 2 3 4 5 6 
#
# 1 80.1350 25.1852 26.2581 0.0000 13.4244 0.0000
# 2 25.1852 97.5471 74.9343 0.0000 1.1955 0.0000
# 3 26.2581 74.9343 160.0176 0.0000 24.0147 0.0000
# 4 0.0000 0.0000 0.0000 465.1325 0.0000 119.0656
# 5 13.4244 1.1955 24.0147 0.0000 22.4805 0.0000
# 6 0.0000 0.0000 0.0000 119.0656 0.0000 103.0032
#
#
#
# Elastic Compliance Matrix: (Units=1/GPa)
#
#
# Indices 1 2 3 4 5 6 
#
# 1 0.015284 -0.004801 0.001276 0.000000 -0.010235 0.000000
# 2 -0.004801 0.019020 -0.010001 0.000000 0.012539 0.000000
# 3 0.001276 -0.010001 0.012812 0.000000 -0.013916 0.000000
# 4 0.000000 0.000000 0.000000 0.003053 0.000000 -0.003530
# 5 -0.010235 0.012539 -0.013916 0.000000 0.064794 0.000000
# 6 0.000000 0.000000 0.000000 -0.003530 0.000000 0.013788
#
#
# Mechanical properties :
#
#
# Convention : Reuss Voigt Hill
#
# Bulk Modulus (GPa) = 49.83906 65.60609 57.72258
# Shear Modulus (GPa) = 30.77102 132.21139 81.49120
#
# Velocity S-wave (km/s) = 3.64594 7.55740 5.93326
# Velocity P-wave (km/s) = 6.26529 10.22222 8.47784
#
# Compressibility (1/GPa) = 0.02006459
#
# Stress axis : x y z
#
# Youngs Moduli (GPa) = 65.42658 52.57704 78.05477
#
# Poissons Ratio (x) = 0.25243 -0.09962
# Poissons Ratio (y) = 0.31413 0.78059
# Poissons Ratio (z) = -0.08351 0.52580
#
# Static dielectric constant tensor:
#      x y z
#    x 1.869900 0.000000 -0.055930 
#    y 0.000000 1.888910 0.000000 
#    z -0.055930 0.000000 1.931320 
# 
# From -- ./inp_files/226746.got.cif
#   From: 2010.05.17/outbox.cif.g08.bks.cpg/sg15_114_cif.got.tgz:226746.got - 2010.06.03 18:47:42.
