data_PCOD9289244
_publ_section_title
;
Structure prediction by ZEFSAII (Michael W. Deem and Ramdas Pophale) SiO2 
 PCOD9289244
Probable space group: C 2/C
;
_chemical_formula_sum "Si O2"
_cell_formula_units_Z 56
_cell_length_a 19.550707
_cell_length_b 21.825702
_cell_length_c 13.035107
_cell_angle_alpha 90.000000
_cell_angle_beta 152.404087
_cell_angle_gamma 90.000000
_cell_volume 2576.585806
_symmetry_space_group_name_H-M "C 2/C"
_symmetry_group_IT_number 15
_symmetry_cell_setting 'monoclinic'
loop_
_space_group_symop_operation_xyz
x,y,z
-x,y,1/2-z
-x,-y,-z
x,-y,1/2+z
1/2+x,1/2+y,z
1/2-x,1/2+y,1/2-z
1/2-x,1/2-y,-z
1/2+x,1/2-y,1/2+z
loop_
_atom_site_type_symbol
_atom_site_label
_atom_site_fract_x
_atom_site_fract_y
_atom_site_fract_z
Si Si1 0.667785 0.262515 0.671878
Si Si2 0.474610 0.624330 0.428961
Si Si3 0.224343 0.539099 0.032583
Si Si4 0.278073 0.898868 0.447314
Si Si5 0.001918 0.244740 0.366183
Si Si6 0.972797 0.652683 0.360982
Si Si7 0.006842 0.439882 0.435715
O O1 0.617915 0.332601 0.614962
O O2 0.636812 0.237449 0.747478
O O3 0.553530 0.218448 0.461735
O O4 0.838294 0.257822 0.870588
O O5 0.382828 0.566670 0.269783
O O6 0.496660 0.670996 0.363801
O O7 0.627762 0.611490 0.687327
O O8 0.225327 0.466948 0.012963
O O9 0.145963 0.568975 0.829814
O O10 0.125281 0.549761 0.002577
O O11 0.409971 0.891534 0.541066
O O12 0.321959 0.852038 0.596274
O O13 0.000000 0.270650 0.250000
O O14 0.957146 0.620092 0.449683
O O15 0.000000 0.500000 0.500000
#
# Coordination Sequence:
#
# PCOD9289244 Si02
#       7
#     8   8   8   8   8   8   8
#     4  10  23  41  62  94 127 166 220 268 325 395
#     4  10  25  39  61  93 134 165 216 268 337 379
#     4  11  23  40  65  96 130 169 213 274 322 393
#     4  11  21  42  65  91 126 173 216 266 323 391
#     4  10  22  40  62  93 130 171 212 268 335 396
#     4  11  21  38  71  90 124 171 218 266 319 395
#     4  11  21  40  65  96 124 166 223 258 324 388
#
# _framework density 21.734189000000001
#
# number of rings (size 3 to 8) (size 9 to 14) (size 15 to 20)
#    0.857    0.571    4.286    1.714    4.000    0.571 
#    0.000    0.714    0.000    0.000    0.000    0.000 
#    0.000    0.000    0.000    0.000    0.000    0.000 
#
# Total GULP energy -156134.057294 kJ/mol
# GULP energy per Si atom -5576.216332 kJ/mol
# Density = 2.168472 g / cm^3
# Si number density = 21.734189 Si / 1000 Ang^3
#
#
#
# Elastic Constant Matrix: (Units=GPa)
#
#
# Indices 1 2 3 4 5 6 
#
# 1 39.3395 -1.1631 13.0832 0.0000 -2.9541 0.0000
# 2 -1.1631 45.5809 12.7170 0.0000 -2.3336 0.0000
# 3 13.0832 12.7170 112.1468 0.0000 -2.1743 0.0000
# 4 0.0000 0.0000 0.0000 14.1227 0.0000 4.9002
# 5 -2.9541 -2.3336 -2.1743 0.0000 32.2544 0.0000
# 6 0.0000 0.0000 0.0000 4.9002 0.0000 24.5316
#
#
#
# Elastic Compliance Matrix: (Units=1/GPa)
#
#
# Indices 1 2 3 4 5 6 
#
# 1 0.026734 0.001714 -0.003268 0.000000 0.002352 0.000000
# 2 0.001714 0.022835 -0.002758 0.000000 0.001623 0.000000
# 3 -0.003268 -0.002758 0.009614 0.000000 0.000149 0.000000
# 4 0.000000 0.000000 0.000000 0.076081 0.000000 -0.015197
# 5 0.002352 0.001623 0.000149 0.000000 0.031347 0.000000
# 6 0.000000 0.000000 0.000000 -0.015197 0.000000 0.043800
#
#
# Mechanical properties :
#
#
# Convention : Reuss Voigt Hill
#
# Bulk Modulus (GPa) = 19.77839 27.37126 23.57483
# Shear Modulus (GPa) = 21.19669 25.67706 23.43688
#
# Velocity S-wave (km/s) = 3.12632 3.44090 3.28737
# Velocity P-wave (km/s) = 4.70656 5.32986 5.02788
#
# Compressibility (1/GPa) = 0.05056022
#
# Stress axis : x y z
#
# Youngs Moduli (GPa) = 37.40590 43.79176 104.01800
#
# Poissons Ratio (x) = -0.07507 0.33989
# Poissons Ratio (y) = -0.06412 0.28688
# Poissons Ratio (z) = 0.12223 0.12078
#
# Static dielectric constant tensor:
#      x y z
#    x 1.816990 0.000000 -0.036290 
#    y 0.000000 1.802770 0.000000 
#    z -0.036290 0.000000 1.812820 
# 
# From -- ./inp_files/114762.got.cif
#   From: 2010.05.17/outbox.cif.g08.bks.cpg/sg15_58_cif.got.tgz:114762.got - 2010.06.03 18:47:42.
