data_PCOD9289635
_publ_section_title
;
Structure prediction by ZEFSAII (Michael W. Deem and Ramdas Pophale) SiO2 
 PCOD9289635
Probable space group: C 2/C
;
_chemical_formula_sum "Si O2"
_cell_formula_units_Z 60
_cell_length_a 12.224553
_cell_length_b 14.875980
_cell_length_c 17.925651
_cell_angle_alpha 90.000000
_cell_angle_beta 120.281388
_cell_angle_gamma 90.000000
_cell_volume 2815.047480
_symmetry_space_group_name_H-M "C 2/C"
_symmetry_group_IT_number 15
_symmetry_cell_setting 'monoclinic'
loop_
_space_group_symop_operation_xyz
x,y,z
-x,y,1/2-z
-x,-y,-z
x,-y,1/2+z
1/2+x,1/2+y,z
1/2-x,1/2+y,1/2-z
1/2-x,1/2-y,-z
1/2+x,1/2-y,1/2+z
loop_
_atom_site_type_symbol
_atom_site_label
_atom_site_fract_x
_atom_site_fract_y
_atom_site_fract_z
Si Si1 0.000000 0.238309 0.250000
Si Si2 0.849824 0.230852 0.329225
Si Si3 0.464611 0.917459 0.405472
Si Si4 0.428622 0.260139 0.303702
Si Si5 0.059422 0.399986 0.927315
Si Si6 0.907708 0.075099 0.897353
Si Si7 0.671065 0.407242 0.561645
Si Si8 0.794120 0.326907 0.071847
O O1 0.942305 0.186809 0.300415
O O2 0.882761 0.292483 0.171289
O O3 0.886113 0.336578 0.341283
O O4 0.707343 0.216916 0.256056
O O5 0.861658 0.189438 0.414970
O O6 0.427331 0.913396 0.479423
O O7 0.611784 0.890009 0.443278
O O8 0.463187 0.018371 0.372652
O O9 0.500000 0.261442 0.250000
O O10 0.503528 0.196897 0.387001
O O11 0.405677 0.359800 0.326372
O O12 0.193494 0.408607 0.931199
O O13 0.828514 0.126347 0.935133
O O14 0.839866 0.978691 0.874332
O O15 0.055828 0.065563 0.968308
O O16 0.750000 0.250000 0.000000
#
# Coordination Sequence:
#
# PCOD9289635 Si02
#       8
#     4   8   8   8   8   8   8   8
#     4  10  22  40  66  94 134 172 226 272 340 404
#     4  11  23  43  64 102 130 176 221 276 344 402
#     4  10  24  41  69  99 131 174 226 282 333 399
#     4  12  25  42  66  98 137 177 219 274 343 408
#     4  11  23  45  68 100 129 175 230 276 332 410
#     4  11  24  43  66  95 133 178 219 281 342 403
#     4  11  24  44  69  95 134 174 229 278 341 407
#     4  11  20  40  67  97 133 174 226 279 339 406
#
# _framework density 21.314028
#
# number of rings (size 3 to 8) (size 9 to 14) (size 15 to 20)
#    0.000    1.067    4.000    3.200    1.867    2.133 
#    6.000    0.000    0.000    0.000    0.000    0.000 
#    0.000    0.000    0.000    0.000    0.000    0.000 
#
# Total GULP energy -167391.567601 kJ/mol
# GULP energy per Si atom -5579.718920 kJ/mol
# Density = 2.126552 g / cm^3
# Si number density = 21.314028 Si / 1000 Ang^3
#
#
#
# Elastic Constant Matrix: (Units=GPa)
#
#
# Indices 1 2 3 4 5 6 
#
# 1 138.8323 20.4579 26.3325 0.0000 -14.4071 0.0000
# 2 20.4579 47.4090 14.8500 0.0000 -5.2098 0.0000
# 3 26.3325 14.8500 53.4690 0.0000 -4.3079 0.0000
# 4 0.0000 0.0000 0.0000 21.1080 0.0000 4.6187
# 5 -14.4071 -5.2098 -4.3079 0.0000 36.1457 0.0000
# 6 0.0000 0.0000 0.0000 4.6187 0.0000 -4.9617
#
#
#
# Elastic Compliance Matrix: (Units=1/GPa)
#
#
# Indices 1 2 3 4 5 6 
#
# 1 0.008445 -0.002320 -0.003302 0.000000 0.002638 0.000000
# 2 -0.002320 0.023983 -0.005366 0.000000 0.001893 0.000000
# 3 -0.003302 -0.005366 0.021860 0.000000 0.000516 0.000000
# 4 0.000000 0.000000 0.000000 0.039359 0.000000 0.036638
# 5 0.002638 0.001893 0.000516 0.000000 0.029052 0.000000
# 6 0.000000 0.000000 0.000000 0.036638 0.000000 -0.167439
#
#
# Mechanical properties :
#
#
# Convention : Reuss Voigt Hill
#
# Bulk Modulus (GPa) = 30.94771 40.33235 35.64003
# Shear Modulus (GPa) = -416.85333 22.32973 -197.26180
#
# Velocity S-wave (km/s) = -14.00006 3.24026 -9.63074
# Velocity P-wave (km/s) = 15.70936 5.74134 10.33975
#
# Compressibility (1/GPa) = 0.03231257
#
# Stress axis : x y z
#
# Youngs Moduli (GPa) = 118.41519 41.69651 45.74472
#
# Poissons Ratio (x) = 0.09673 0.15105
# Poissons Ratio (y) = 0.27471 0.24546
# Poissons Ratio (z) = 0.39102 0.22373
#
# Static dielectric constant tensor:
#      x y z
#    x 2.043770 0.000000 -0.377930 
#    y 0.000000 1.855190 0.000000 
#    z -0.377930 0.000000 2.295560 
# 
# From -- ./inp_files/198377.got.cif
#   From: 2010.05.17/outbox.cif.g08.bks.cpg/sg15_100_cif.got.tgz:198377.got - 2010.06.03 18:47:42.
