data_PCOD9289897
_publ_section_title
;
Structure prediction by ZEFSAII (Michael W. Deem and Ramdas Pophale) SiO2 
 PCOD9289897
Probable space group: C 2/C
;
_chemical_formula_sum "Si O2"
_cell_formula_units_Z 64
_cell_length_a 15.818780
_cell_length_b 11.517907
_cell_length_c 24.433397
_cell_angle_alpha 90.000000
_cell_angle_beta 139.290513
_cell_angle_gamma 90.000000
_cell_volume 2903.535443
_symmetry_space_group_name_H-M "C 2/C"
_symmetry_group_IT_number 15
_symmetry_cell_setting 'monoclinic'
loop_
_space_group_symop_operation_xyz
x,y,z
-x,y,1/2-z
-x,-y,-z
x,-y,1/2+z
1/2+x,1/2+y,z
1/2-x,1/2+y,1/2-z
1/2-x,1/2-y,-z
1/2+x,1/2-y,1/2+z
loop_
_atom_site_type_symbol
_atom_site_label
_atom_site_fract_x
_atom_site_fract_y
_atom_site_fract_z
Si Si1 0.748041 0.163910 0.148101
Si Si2 0.626815 0.882348 0.704591
Si Si3 0.362095 0.288324 0.513053
Si Si4 0.321136 0.515620 0.437166
Si Si5 0.152167 0.648396 0.436798
Si Si6 0.141463 0.548643 0.550360
Si Si7 0.117672 0.608303 0.765639
Si Si8 0.129062 0.215288 0.109401
O O1 0.664093 0.139365 0.160482
O O2 0.675154 0.227967 0.062532
O O3 0.860492 0.252173 0.223382
O O4 0.758467 0.035570 0.127140
O O5 0.493348 0.814787 0.648462
O O6 0.743917 0.831449 0.797950
O O7 0.601838 0.018819 0.707233
O O8 0.250000 0.250000 0.500000
O O9 0.364411 0.426762 0.505298
O O10 0.512605 0.257078 0.594489
O O11 0.208607 0.587499 0.411385
O O12 0.252136 0.439102 0.357077
O O13 0.411793 0.611001 0.452836
O O14 0.250000 0.750000 0.500000
O O15 0.143155 0.565945 0.485866
O O16 0.156116 0.672182 0.586802
O O17 0.000000 0.500000 0.500000
O O18 0.000000 0.587157 0.750000
#
# Coordination Sequence:
#
# PCOD9289897 Si02
#       8
#     8   8   8   8   8   8   8   8
#     4  11  25  42  68 104 132 183 244 289 347 432
#     4  11  25  43  72 101 143 189 237 290 369 421
#     4  11  23  43  71 103 142 186 242 297 355 430
#     4  10  22  40  69  98 137 182 240 287 355 425
#     4  12  23  43  71 105 139 190 239 291 357 433
#     4  12  23  43  70  94 142 186 242 286 356 431
#     4  10  22  44  70  98 139 186 237 293 357 433
#     4  11  24  43  66 103 141 189 233 297 356 426
#
# _framework density 22.042093999999999
#
# number of rings (size 3 to 8) (size 9 to 14) (size 15 to 20)
#    0.000    1.000    5.000    1.125    1.750    2.000 
#    0.000    1.250    0.000    0.000    0.000    0.000 
#    0.000    0.000    0.000    0.000    0.000    0.000 
#
# Total GULP energy -178450.100241 kJ/mol
# GULP energy per Si atom -5576.565633 kJ/mol
# Density = 2.199193 g / cm^3
# Si number density = 22.042094 Si / 1000 Ang^3
#
#
#
# Elastic Constant Matrix: (Units=GPa)
#
#
# Indices 1 2 3 4 5 6 
#
# 1 135.3385 33.8747 33.3203 0.0000 5.8582 0.0000
# 2 33.8747 127.6680 34.7522 0.0000 2.6873 0.0000
# 3 33.3203 34.7522 76.4290 0.0000 4.0960 0.0000
# 4 0.0000 0.0000 0.0000 33.9726 0.0000 -0.3845
# 5 5.8582 2.6873 4.0960 0.0000 27.8307 0.0000
# 6 0.0000 0.0000 0.0000 -0.3845 0.0000 28.8486
#
#
#
# Elastic Compliance Matrix: (Units=1/GPa)
#
#
# Indices 1 2 3 4 5 6 
#
# 1 0.008538 -0.001420 -0.003011 0.000000 -0.001217 0.000000
# 2 -0.001420 0.009177 -0.003550 0.000000 -0.000065 0.000000
# 3 -0.003011 -0.003550 0.016086 0.000000 -0.001391 0.000000
# 4 0.000000 0.000000 0.000000 0.029440 0.000000 0.000392
# 5 -0.001217 -0.000065 -0.001391 0.000000 0.036399 0.000000
# 6 0.000000 0.000000 0.000000 0.000392 0.000000 0.034669
#
#
# Mechanical properties :
#
#
# Convention : Reuss Voigt Hill
#
# Bulk Modulus (GPa) = 56.06118 60.36998 58.21558
# Shear Modulus (GPa) = 32.00632 33.96293 32.98463
#
# Velocity S-wave (km/s) = 3.81472 3.92959 3.87258
# Velocity P-wave (km/s) = 6.70012 6.93086 6.81647
#
# Compressibility (1/GPa) = 0.01783765
#
# Stress axis : x y z
#
# Youngs Moduli (GPa) = 117.11736 108.96286 62.16657
#
# Poissons Ratio (x) = 0.15475 0.18721
# Poissons Ratio (y) = 0.16633 0.22071
# Poissons Ratio (z) = 0.35270 0.38686
#
# Static dielectric constant tensor:
#      x y z
#    x 1.671310 0.000000 0.369240 
#    y 0.000000 1.912560 0.000000 
#    z 0.369240 0.000000 1.240100 
# 
# From -- ./inp_files/296154.got.cif
#   From: 2010.05.17/outbox.cif.g08.bks.cpg/sg15_149_cif.got.tgz:296154.got - 2010.06.03 18:47:42.
