data_PCOD9289633
_publ_section_title
;
Structure prediction by ZEFSAII (Michael W. Deem and Ramdas Pophale) SiO2 
 PCOD9289633
Probable space group: C 2/C
;
_chemical_formula_sum "Si O2"
_cell_formula_units_Z 44
_cell_length_a 9.967682
_cell_length_b 13.062612
_cell_length_c 17.542722
_cell_angle_alpha 90.000000
_cell_angle_beta 120.454994
_cell_angle_gamma 90.000000
_cell_volume 1968.984681
_symmetry_space_group_name_H-M "C 2/C"
_symmetry_group_IT_number 15
_symmetry_cell_setting 'monoclinic'
loop_
_space_group_symop_operation_xyz
x,y,z
-x,y,1/2-z
-x,-y,-z
x,-y,1/2+z
1/2+x,1/2+y,z
1/2-x,1/2+y,1/2-z
1/2-x,1/2-y,-z
1/2+x,1/2-y,1/2+z
loop_
_atom_site_type_symbol
_atom_site_label
_atom_site_fract_x
_atom_site_fract_y
_atom_site_fract_z
Si Si1 0.675762 0.996232 0.291561
Si Si2 0.632372 0.328875 0.927480
Si Si3 0.500000 0.205018 0.750000
Si Si4 0.342247 0.860780 0.469097
Si Si5 0.854142 0.552888 0.379192
Si Si6 0.873243 0.123259 0.463048
O O1 0.500000 0.035790 0.250000
O O2 0.726285 0.042326 0.225479
O O3 0.774482 0.042734 0.386863
O O4 0.647408 0.873585 0.285078
O O5 0.524776 0.271043 0.833570
O O6 0.737521 0.403398 0.907678
O O7 0.540219 0.381249 0.970509
O O8 0.750000 0.250000 0.000000
O O9 0.486830 0.880876 0.569399
O O10 0.180575 0.889176 0.464807
O O11 0.332498 0.744040 0.440204
O O12 0.388683 0.936410 0.414354
#
# Coordination Sequence:
#
# PCOD9289633 Si02
#       6
#     8   8   4   8   8   8
#     4  10  22  40  71  90 127 180 222 275 333 402
#     4  12  25  41  70 101 139 178 222 281 343 408
#     4  10  24  46  66  96 134 182 224 274 348 406
#     4  10  22  40  66  94 131 172 223 270 323 407
#     4  11  22  41  65  95 131 177 216 273 340 394
#     4  11  22  41  66  99 130 171 226 274 329 403
#
# _framework density 22.346540999999998
#
# number of rings (size 3 to 8) (size 9 to 14) (size 15 to 20)
#    0.545    0.727    3.636    2.182    5.091    0.727 
#    0.000    0.000    6.000    0.000    0.000    0.000 
#    0.000    0.000    0.000    0.000    0.000    0.000 
#
# Total GULP energy -122716.849689 kJ/mol
# GULP energy per Si atom -5578.038622 kJ/mol
# Density = 2.229568 g / cm^3
# Si number density = 22.346541 Si / 1000 Ang^3
#
#
#
# Elastic Constant Matrix: (Units=GPa)
#
#
# Indices 1 2 3 4 5 6 
#
# 1 115.1092 5.1150 -2.8926 0.0000 -7.2030 0.0000
# 2 5.1150 92.1272 32.1732 0.0000 6.8935 0.0000
# 3 -2.8926 32.1732 74.1757 0.0000 -6.4577 0.0000
# 4 0.0000 0.0000 0.0000 30.2656 0.0000 3.1833
# 5 -7.2030 6.8935 -6.4577 0.0000 27.4738 0.0000
# 6 0.0000 0.0000 0.0000 3.1833 0.0000 33.8327
#
#
#
# Elastic Compliance Matrix: (Units=1/GPa)
#
#
# Indices 1 2 3 4 5 6 
#
# 1 0.008942 -0.001084 0.001069 0.000000 0.002868 0.000000
# 2 -0.001084 0.013522 -0.006358 0.000000 -0.005171 0.000000
# 3 0.001069 -0.006358 0.016788 0.000000 0.005821 0.000000
# 4 0.000000 0.000000 0.000000 0.033371 0.000000 -0.003140
# 5 0.002868 -0.005171 0.005821 0.000000 0.039816 0.000000
# 6 0.000000 0.000000 0.000000 -0.003140 0.000000 0.029853
#
#
# Mechanical properties :
#
#
# Convention : Reuss Voigt Hill
#
# Bulk Modulus (GPa) = 37.72868 38.91148 38.32008
# Shear Modulus (GPa) = 30.51155 34.78219 32.64687
#
# Velocity S-wave (km/s) = 3.69912 3.94952 3.82637
# Velocity P-wave (km/s) = 5.92998 6.18456 6.05861
#
# Compressibility (1/GPa) = 0.02650504
#
# Stress axis : x y z
#
# Youngs Moduli (GPa) = 111.83338 73.95386 59.56800
#
# Poissons Ratio (x) = 0.08018 -0.06366
# Poissons Ratio (y) = 0.12125 0.37871
# Poissons Ratio (z) = -0.11951 0.47017
#
# Static dielectric constant tensor:
#      x y z
#    x 1.860500 0.000000 -0.011030 
#    y 0.000000 1.836530 0.000000 
#    z -0.011030 0.000000 1.851800 
# 
# From -- ./inp_files/189322.got.cif
#   From: 2010.05.17/outbox.cif.g08.bks.cpg/sg15_95_cif.got.tgz:189322.got - 2010.06.03 18:47:42.
