data_PCOD9289480
_publ_section_title
;
Structure prediction by ZEFSAII (Michael W. Deem and Ramdas Pophale) SiO2 
 PCOD9289480
Probable space group: C 2/C
;
_chemical_formula_sum "Si O2"
_cell_formula_units_Z 40
_cell_length_a 11.729136
_cell_length_b 24.572198
_cell_length_c 8.294267
_cell_angle_alpha 90.000000
_cell_angle_beta 135.009448
_cell_angle_gamma 90.000000
_cell_volume 1690.057246
_symmetry_space_group_name_H-M "C 2/C"
_symmetry_group_IT_number 15
_symmetry_cell_setting 'monoclinic'
loop_
_space_group_symop_operation_xyz
x,y,z
-x,y,1/2-z
-x,-y,-z
x,-y,1/2+z
1/2+x,1/2+y,z
1/2-x,1/2+y,1/2-z
1/2-x,1/2-y,-z
1/2+x,1/2-y,1/2+z
loop_
_atom_site_type_symbol
_atom_site_label
_atom_site_fract_x
_atom_site_fract_y
_atom_site_fract_z
Si Si1 0.659855 0.670224 0.205802
Si Si2 0.169178 0.528574 0.623342
Si Si3 0.163925 0.360485 0.308874
Si Si4 0.841387 0.942349 0.985393
Si Si5 0.489813 0.227830 0.431641
O O1 0.696165 0.653672 0.425457
O O2 0.818938 0.702941 0.308721
O O3 0.648458 0.616966 0.083795
O O4 0.518048 0.712905 0.035018
O O5 0.192902 0.582480 0.752487
O O6 0.195610 0.547864 0.466698
O O7 0.000000 0.500000 0.500000
O O8 0.304748 0.484776 0.807210
O O9 0.000000 0.366397 0.250000
O O10 0.122224 0.313444 0.139094
O O11 0.000000 0.951147 0.250000
O O12 0.500000 0.231069 0.250000
#
# Coordination Sequence:
#
# PCOD9289480 Si02
#       5
#     8   8   8   8   8
#     4  11  24  43  65  96 138 182 232 288 349 414
#     4  12  24  44  73 102 135 184 237 290 349 425
#     4  10  22  40  65 100 135 174 227 290 348 410
#     4  12  26  45  68 103 142 183 230 293 359 419
#     4  11  22  40  64  93 129 177 230 285 343 412
#
# _framework density 23.667839000000001
#
# number of rings (size 3 to 8) (size 9 to 14) (size 15 to 20)
#    0.000    0.800    0.000    9.000    0.000    1.600 
#    0.000    2.000    0.000    0.000    0.000    0.000 
#    0.000    0.000    0.000    0.000    0.000    0.000 
#
# Total GULP energy -112121.624281 kJ/mol
# GULP energy per Si atom -5606.081214 kJ/mol
# Density = 2.361397 g / cm^3
# Si number density = 23.667839 Si / 1000 Ang^3
#
#
#
# Elastic Constant Matrix: (Units=GPa)
#
#
# Indices 1 2 3 4 5 6 
#
# 1 48.8502 33.7954 33.0331 0.0000 1.4484 0.0000
# 2 33.7954 188.9203 52.9667 0.0000 -13.2055 0.0000
# 3 33.0331 52.9667 111.8046 0.0000 -6.4702 0.0000
# 4 0.0000 0.0000 0.0000 42.6414 0.0000 -13.8294
# 5 1.4484 -13.2055 -6.4702 0.0000 37.8015 0.0000
# 6 0.0000 0.0000 0.0000 -13.8294 0.0000 31.2411
#
#
#
# Elastic Compliance Matrix: (Units=1/GPa)
#
#
# Indices 1 2 3 4 5 6 
#
# 1 0.027372 -0.003238 -0.006746 0.000000 -0.003335 0.000000
# 2 -0.003238 0.006591 -0.002046 0.000000 0.002076 0.000000
# 3 -0.006746 -0.002046 0.011999 0.000000 0.001598 0.000000
# 4 0.000000 0.000000 0.000000 0.027383 0.000000 0.012121
# 5 -0.003335 0.002076 0.001598 0.000000 0.027581 0.000000
# 6 0.000000 0.000000 0.000000 0.012121 0.000000 0.037375
#
#
# Mechanical properties :
#
#
# Convention : Reuss Voigt Hill
#
# Bulk Modulus (GPa) = 45.65779 65.46284 55.56031
# Shear Modulus (GPa) = 29.47078 37.65547 33.56313
#
# Velocity S-wave (km/s) = 3.53254 3.99306 3.76984
# Velocity P-wave (km/s) = 5.99762 6.99846 6.51728
#
# Compressibility (1/GPa) = 0.02190207
#
# Stress axis : x y z
#
# Youngs Moduli (GPa) = 36.53430 151.71798 83.34131
#
# Poissons Ratio (x) = 0.49129 0.56222
# Poissons Ratio (y) = 0.11830 0.17049
# Poissons Ratio (z) = 0.24646 0.31036
#
# Static dielectric constant tensor:
#      x y z
#    x 2.016960 0.000000 0.064250 
#    y 0.000000 1.832120 0.000000 
#    z 0.064250 0.000000 1.907980 
# 
# From -- ./inp_files/42440.got.cif
#   From: 2010.05.17/outbox.cif.g08.bks.cpg/sg15_22_cif.got.tgz:42440.got - 2010.06.03 18:47:42.
