data_PCOD9289764
_publ_section_title
;
Structure prediction by ZEFSAII (Michael W. Deem and Ramdas Pophale) SiO2 
 PCOD9289764
Probable space group: C 2/C
;
_chemical_formula_sum "Si O2"
_cell_formula_units_Z 32
_cell_length_a 10.025730
_cell_length_b 26.796080
_cell_length_c 5.280007
_cell_angle_alpha 90.000000
_cell_angle_beta 73.534189
_cell_angle_gamma 90.000000
_cell_volume 1360.302236
_symmetry_space_group_name_H-M "C 2/C"
_symmetry_group_IT_number 15
_symmetry_cell_setting 'monoclinic'
loop_
_space_group_symop_operation_xyz
x,y,z
-x,y,1/2-z
-x,-y,-z
x,-y,1/2+z
1/2+x,1/2+y,z
1/2-x,1/2+y,1/2-z
1/2-x,1/2-y,-z
1/2+x,1/2-y,1/2+z
loop_
_atom_site_type_symbol
_atom_site_label
_atom_site_fract_x
_atom_site_fract_y
_atom_site_fract_z
Si Si1 0.197206 0.966800 0.865270
Si Si2 0.350785 0.221233 0.242467
Si Si3 0.500000 0.603994 0.750000
Si Si4 0.500000 0.965494 0.750000
Si Si5 0.135055 0.824909 0.525287
O O1 0.348297 0.940451 0.820459
O O2 0.191269 0.990496 0.588619
O O3 0.071288 0.930918 0.003150
O O4 0.500000 0.201790 0.250000
O O5 0.250000 0.250000 0.500000
O O6 0.268038 0.179343 0.131786
O O7 0.388595 0.267848 0.043487
O O8 0.376001 0.638831 0.707707
O O9 0.500000 0.000000 0.500000
O O10 0.000000 0.840157 0.750000
#
# Coordination Sequence:
#
# PCOD9289764 Si02
#       5
#     8   8   4   4   8
#     4  10  22  40  68 100 136 188 229 280 347 418
#     4  11  21  42  70  94 127 174 235 270 351 413
#     4  12  24  38  64 100 145 168 236 285 344 402
#     4   8  16  36  64  88 125 178 228 267 334 414
#     4  11  23  39  66  96 132 179 218 288 344 405
#
# _framework density 23.524182
#
# number of rings (size 3 to 8) (size 9 to 14) (size 15 to 20)
#    0.000    1.500    3.750    0.750    3.500    0.000 
#    0.000    0.000   16.500    0.000    0.000    0.000 
#    0.000    0.250    0.000    0.000    0.000    0.000 
#
# Total GULP energy -89332.492000 kJ/mol
# GULP energy per Si atom -5583.280750 kJ/mol
# Density = 2.347064 g / cm^3
# Si number density = 23.524182 Si / 1000 Ang^3
#
#
#
# Elastic Constant Matrix: (Units=GPa)
#
#
# Indices 1 2 3 4 5 6 
#
# 1 205.5141 51.5660 23.6730 0.0000 13.4891 0.0000
# 2 51.5660 52.1105 5.4611 0.0000 3.9478 0.0000
# 3 23.6730 5.4611 82.2027 0.0000 5.7470 0.0000
# 4 0.0000 0.0000 0.0000 14.7800 0.0000 22.7481
# 5 13.4891 3.9478 5.7470 0.0000 38.3921 0.0000
# 6 0.0000 0.0000 0.0000 22.7481 0.0000 13.6026
#
#
#
# Elastic Compliance Matrix: (Units=1/GPa)
#
#
# Indices 1 2 3 4 5 6 
#
# 1 0.006732 -0.006401 -0.001409 0.000000 -0.001496 0.000000
# 2 -0.006401 0.025536 0.000175 0.000000 -0.000403 0.000000
# 3 -0.001409 0.000175 0.012658 0.000000 -0.001418 0.000000
# 4 0.000000 0.000000 0.000000 -0.042988 0.000000 0.071890
# 5 -0.001496 -0.000403 -0.001418 0.000000 0.026826 0.000000
# 6 0.000000 0.000000 0.000000 0.071890 0.000000 -0.046709
#
#
# Mechanical properties :
#
#
# Convention : Reuss Voigt Hill
#
# Bulk Modulus (GPa) = 33.71860 55.69192 44.70526
# Shear Modulus (GPa) = 693.22000 30.63009 361.92505
#
# Velocity S-wave (km/s) = 17.18499 3.61233 12.41718
# Velocity P-wave (km/s) = 20.20222 6.41282 14.98756
#
# Compressibility (1/GPa) = 0.02965722
#
# Stress axis : x y z
#
# Youngs Moduli (GPa) = 148.53379 39.15978 78.99952
#
# Poissons Ratio (x) = 0.25067 0.11131
# Poissons Ratio (y) = 0.95078 -0.01383
# Poissons Ratio (z) = 0.20928 -0.00686
#
# Static dielectric constant tensor:
#      x y z
#    x 2.005610 0.000000 0.075600 
#    y 0.000000 1.830690 0.000000 
#    z 0.075600 0.000000 2.775830 
# 
# From -- ./inp_files/4035.got.cif
#   From: 2010.05.17/outbox.cif.g08.bks.cpg/sg15_3_cif.got.tgz:4035.got - 2010.06.03 18:47:42.
