data_PCOD9289027
_publ_section_title
;
Structure prediction by ZEFSAII (Michael W. Deem and Ramdas Pophale) SiO2 
 PCOD9289027
Probable space group: C 2/C
;
_chemical_formula_sum "Si O2"
_cell_formula_units_Z 64
_cell_length_a 14.118936
_cell_length_b 27.646379
_cell_length_c 8.711391
_cell_angle_alpha 90.000000
_cell_angle_beta 113.836812
_cell_angle_gamma 90.000000
_cell_volume 3110.330294
_symmetry_space_group_name_H-M "C 2/C"
_symmetry_group_IT_number 15
_symmetry_cell_setting 'monoclinic'
loop_
_space_group_symop_operation_xyz
x,y,z
-x,y,1/2-z
-x,-y,-z
x,-y,1/2+z
1/2+x,1/2+y,z
1/2-x,1/2+y,1/2-z
1/2-x,1/2-y,-z
1/2+x,1/2-y,1/2+z
loop_
_atom_site_type_symbol
_atom_site_label
_atom_site_fract_x
_atom_site_fract_y
_atom_site_fract_z
Si Si1 0.014957 0.849497 0.931248
Si Si2 0.421733 0.487262 0.087521
Si Si3 0.748218 0.669110 0.643678
Si Si4 0.544966 0.742292 0.920081
Si Si5 0.460639 0.159349 0.897627
Si Si6 0.652839 0.433054 0.716726
Si Si7 0.326391 0.145376 0.364657
Si Si8 0.794746 0.258844 0.668901
O O1 0.000000 0.827686 0.750000
O O2 0.971295 0.811432 0.023160
O O3 0.944578 0.897164 0.875928
O O4 0.136306 0.856636 0.050994
O O5 0.500000 0.457967 0.250000
O O6 0.623029 0.530803 0.337350
O O7 0.500000 0.500000 0.000000
O O8 0.333253 0.460442 0.936113
O O9 0.838888 0.645311 0.809357
O O10 0.795737 0.671803 0.504632
O O11 0.728813 0.721206 0.706779
O O12 0.532508 0.786095 0.034769
O O13 0.676959 0.744008 0.005508
O O14 0.425924 0.748984 0.756122
O O15 0.500000 0.155963 0.750000
O O16 0.551120 0.133281 0.054260
O O17 0.752853 0.400909 0.813289
O O18 0.299420 0.184004 0.215762
#
# Coordination Sequence:
#
# PCOD9289027 Si02
#       8
#     8   8   8   8   8   8   8   8
#     4  12  23  38  59  92 128 169 218 258 304 390
#     4   9  20  40  65  92 129 154 186 257 347 401
#     4  11  23  37  60  83 127 179 223 252 300 359
#     4  12  22  36  56  85 136 178 216 264 309 343
#     4  10  22  40  57  82 122 184 224 255 295 351
#     4  11  23  42  68  97 126 160 202 266 334 404
#     4  11  23  40  62  87 125 168 226 259 301 388
#     4  12  23  37  55  88 130 181 221 267 308 341
#
# _framework density 20.576592000000002
#
# number of rings (size 3 to 8) (size 9 to 14) (size 15 to 20)
#    0.000    1.000    5.000    2.625    0.000    2.500 
#    2.250    0.000    0.000    0.000    0.000    9.625 
#    0.000    0.000    0.000    0.000    0.000    0.000 
#
# Total GULP energy -178280.364038 kJ/mol
# GULP energy per Si atom -5571.261376 kJ/mol
# Density = 2.052976 g / cm^3
# Si number density = 20.576592 Si / 1000 Ang^3
#
#
#
# Elastic Constant Matrix: (Units=GPa)
#
#
# Indices 1 2 3 4 5 6 
#
# 1 85.6048 30.6338 36.5712 0.0000 36.3706 0.0000
# 2 30.6338 67.3905 40.8936 0.0000 8.0571 0.0000
# 3 36.5712 40.8936 139.3272 0.0000 33.1216 0.0000
# 4 0.0000 0.0000 0.0000 21.3351 0.0000 12.2612
# 5 36.3706 8.0571 33.1216 0.0000 50.2375 0.0000
# 6 0.0000 0.0000 0.0000 12.2612 0.0000 16.8873
#
#
#
# Elastic Compliance Matrix: (Units=1/GPa)
#
#
# Indices 1 2 3 4 5 6 
#
# 1 0.020015 -0.007593 0.000154 0.000000 -0.013374 0.000000
# 2 -0.007593 0.020956 -0.005533 0.000000 0.005784 0.000000
# 3 0.000154 -0.005533 0.010170 0.000000 -0.005930 0.000000
# 4 0.000000 0.000000 0.000000 0.080433 0.000000 -0.058399
# 5 -0.013374 0.005784 -0.005930 0.000000 0.032570 0.000000
# 6 0.000000 0.000000 0.000000 -0.058399 0.000000 0.101617
#
#
# Mechanical properties :
#
#
# Convention : Reuss Voigt Hill
#
# Bulk Modulus (GPa) = 39.68396 56.50219 48.09307
# Shear Modulus (GPa) = 16.66091 29.97358 23.31724
#
# Velocity S-wave (km/s) = 2.84861 3.82079 3.36994
# Velocity P-wave (km/s) = 5.49066 6.85446 6.21011
#
# Compressibility (1/GPa) = 0.02519910
#
# Stress axis : x y z
#
# Youngs Moduli (GPa) = 49.96221 47.71840 98.32454
#
# Poissons Ratio (x) = 0.36232 -0.01518
# Poissons Ratio (y) = 0.37936 0.54401
# Poissons Ratio (z) = -0.00771 0.26402
#
# Static dielectric constant tensor:
#      x y z
#    x 1.787960 0.000000 0.028140 
#    y 0.000000 1.705440 0.000000 
#    z 0.028140 0.000000 1.837670 
# 
# From -- ./inp_files/107962.got.cif
#   From: 2010.05.17/outbox.cif.g08.bks.cpg/sg15_54_cif.got.tgz:107962.got - 2010.06.03 18:47:42.
