data_PCOD9289178
_publ_section_title
;
Structure prediction by ZEFSAII (Michael W. Deem and Ramdas Pophale) SiO2 
 PCOD9289178
Probable space group: C 2/C
;
_chemical_formula_sum "Si O2"
_cell_formula_units_Z 48
_cell_length_a 11.543039
_cell_length_b 16.484318
_cell_length_c 19.924934
_cell_angle_alpha 90.000000
_cell_angle_beta 140.024052
_cell_angle_gamma 90.000000
_cell_volume 2435.780631
_symmetry_space_group_name_H-M "C 2/C"
_symmetry_group_IT_number 15
_symmetry_cell_setting 'monoclinic'
loop_
_space_group_symop_operation_xyz
x,y,z
-x,y,1/2-z
-x,-y,-z
x,-y,1/2+z
1/2+x,1/2+y,z
1/2-x,1/2+y,1/2-z
1/2-x,1/2-y,-z
1/2+x,1/2-y,1/2+z
loop_
_atom_site_type_symbol
_atom_site_label
_atom_site_fract_x
_atom_site_fract_y
_atom_site_fract_z
Si Si1 0.236945 0.359062 0.555125
Si Si2 0.499195 0.414681 0.461834
Si Si3 0.346537 0.804360 0.627490
Si Si4 0.898214 0.653380 0.001112
Si Si5 0.840316 0.323471 0.127691
Si Si6 0.908628 0.029261 0.639231
O O1 0.150714 0.362387 0.442328
O O2 0.332360 0.272612 0.609308
O O3 0.375986 0.433062 0.621602
O O4 0.077807 0.360196 0.538967
O O5 0.500000 0.500000 0.500000
O O6 0.690051 0.371503 0.559546
O O7 0.343624 0.356151 0.420365
O O8 0.482382 0.434843 0.375460
O O9 0.500000 0.815957 0.750000
O O10 0.241437 0.719547 0.591020
O O11 0.431045 0.811277 0.590380
O O12 0.787616 0.570154 0.954304
O O13 0.000000 0.342631 0.250000
O O14 0.000000 0.050423 0.750000
#
# Coordination Sequence:
#
# PCOD9289178 Si02
#       6
#     8   8   8   8   8   8
#     4  11  23  44  63  98 132 166 220 273 318 397
#     4  11  23  45  64  95 134 167 222 275 315 404
#     4  10  22  41  66  93 126 176 214 263 329 384
#     4  10  22  40  61  95 132 161 221 266 316 396
#     4  11  25  43  69  92 129 179 217 264 334 389
#     4  11  24  40  66  97 132 173 216 270 335 384
#
# _framework density 19.706208
#
# number of rings (size 3 to 8) (size 9 to 14) (size 15 to 20)
#    0.000    1.333    3.333    1.500    2.333    3.333 
#    0.000    0.000    0.000    0.000    0.000    0.000 
#    0.000    0.000    0.000    0.000    0.000    0.000 
#
# Total GULP energy -134082.308955 kJ/mol
# GULP energy per Si atom -5586.762873 kJ/mol
# Density = 1.966136 g / cm^3
# Si number density = 19.706208 Si / 1000 Ang^3
#
#
#
# Elastic Constant Matrix: (Units=GPa)
#
#
# Indices 1 2 3 4 5 6 
#
# 1 83.8389 4.2578 27.0477 0.0000 -5.3850 0.0000
# 2 4.2578 85.0443 9.1418 0.0000 -4.0642 0.0000
# 3 27.0477 9.1418 119.0459 0.0001 -18.7170 -0.0002
# 4 0.0000 0.0000 0.0001 16.6514 0.0000 -5.9557
# 5 -5.3850 -4.0642 -18.7170 0.0000 22.2748 -0.0001
# 6 0.0000 0.0000 -0.0002 -5.9557 -0.0001 15.8941
#
#
#
# Elastic Compliance Matrix: (Units=1/GPa)
#
#
# Indices 1 2 3 4 5 6 
#
# 1 0.012890 -0.000311 -0.002793 0.000000 0.000713 0.000000
# 2 -0.000311 0.011914 -0.000593 0.000000 0.001601 0.000000
# 3 -0.002793 -0.000593 0.010320 0.000000 0.007889 0.000000
# 4 0.000000 0.000000 0.000000 0.069350 0.000000 0.025986
# 5 0.000713 0.001601 0.007889 0.000000 0.051987 0.000000
# 6 0.000000 0.000000 0.000000 0.025986 0.000000 0.072654
#
#
# Mechanical properties :
#
#
# Convention : Reuss Voigt Hill
#
# Bulk Modulus (GPa) = 36.05913 40.98040 38.51976
# Shear Modulus (GPa) = 20.34571 27.46284 23.90428
#
# Velocity S-wave (km/s) = 3.21666 3.73716 3.48664
# Velocity P-wave (km/s) = 5.66869 6.28193 5.98317
#
# Compressibility (1/GPa) = 0.02773223
#
# Stress axis : x y z
#
# Youngs Moduli (GPa) = 77.57831 83.93236 96.89496
#
# Poissons Ratio (x) = 0.02611 0.27060
# Poissons Ratio (y) = 0.02413 0.05742
# Poissons Ratio (z) = 0.21666 0.04974
#
# Static dielectric constant tensor:
#      x y z
#    x 1.694740 0.000000 -0.020850 
#    y 0.000000 1.722530 0.000000 
#    z -0.020850 0.000000 1.655070 
# 
# From -- ./inp_files/119353.got.cif
#   From: 2010.05.17/outbox.cif.g08.bks.cpg/sg15_60_cif.got.tgz:119353.got - 2010.06.03 18:47:42.
