data_PCOD9289268
_publ_section_title
;
Structure prediction by ZEFSAII (Michael W. Deem and Ramdas Pophale) SiO2 
 PCOD9289268
Probable space group: C 2/C
;
_chemical_formula_sum "Si O2"
_cell_formula_units_Z 44
_cell_length_a 25.082339
_cell_length_b 8.369415
_cell_length_c 12.871836
_cell_angle_alpha 90.000000
_cell_angle_beta 45.052889
_cell_angle_gamma 90.000000
_cell_volume 1912.445898
_symmetry_space_group_name_H-M "C 2/C"
_symmetry_group_IT_number 15
_symmetry_cell_setting 'monoclinic'
loop_
_space_group_symop_operation_xyz
x,y,z
-x,y,1/2-z
-x,-y,-z
x,-y,1/2+z
1/2+x,1/2+y,z
1/2-x,1/2+y,1/2-z
1/2-x,1/2-y,-z
1/2+x,1/2-y,1/2+z
loop_
_atom_site_type_symbol
_atom_site_label
_atom_site_fract_x
_atom_site_fract_y
_atom_site_fract_z
Si Si1 0.770953 0.017201 0.059197
Si Si2 0.695381 0.778129 0.312579
Si Si3 0.931473 0.944835 0.526641
Si Si4 0.140529 0.482897 0.572284
Si Si5 0.909374 0.156966 0.386453
Si Si6 0.000000 0.728353 0.250000
O O1 0.772869 0.159646 0.141509
O O2 0.745792 0.857747 0.155657
O O3 0.710951 0.047031 0.051393
O O4 0.855962 0.975597 0.903937
O O5 0.632618 0.670227 0.341287
O O6 0.661199 0.922844 0.428043
O O7 0.964538 0.837804 0.387493
O O8 0.896800 0.103744 0.523509
O O9 0.000000 0.000000 0.500000
O O10 0.117600 0.667304 0.603605
O O11 0.066820 0.380698 0.703699
O O12 0.000000 0.150010 0.250000
#
# Coordination Sequence:
#
# PCOD9289268 Si02
#       6
#     8   8   8   8   8   4
#     4  11  24  43  68  94 133 173 210 275 326 383
#     4  10  24  42  64 100 130 165 228 264 321 394
#     4  10  23  41  66  93 133 176 212 270 326 381
#     4  11  23  42  68  94 128 175 213 271 328 379
#     4  11  23  42  65  96 130 166 224 261 316 397
#     4  10  22  40  62  98 132 164 224 272 312 394
#
# _framework density 23.007186999999998
#
# number of rings (size 3 to 8) (size 9 to 14) (size 15 to 20)
#    0.000    1.455    1.818    2.182    2.545    4.364 
#    3.273    3.636    0.000    0.000    0.000    0.000 
#    0.000    0.000    0.000    0.000    0.000    0.000 
#
# Total GULP energy -122930.689809 kJ/mol
# GULP energy per Si atom -5587.758628 kJ/mol
# Density = 2.295482 g / cm^3
# Si number density = 23.007187 Si / 1000 Ang^3
#
#
#
# Elastic Constant Matrix: (Units=GPa)
#
#
# Indices 1 2 3 4 5 6 
#
# 1 161.6735 35.8560 15.1931 0.0000 -33.1908 0.0000
# 2 35.8560 98.1170 15.7864 0.0001 -7.7366 0.0000
# 3 15.1931 15.7864 61.5874 0.0000 -17.6466 0.0000
# 4 0.0000 0.0001 0.0000 37.2412 0.0000 -6.8844
# 5 -33.1908 -7.7366 -17.6466 0.0000 33.2585 0.0000
# 6 0.0000 0.0000 0.0000 -6.8844 0.0000 29.6066
#
#
#
# Elastic Compliance Matrix: (Units=1/GPa)
#
#
# Indices 1 2 3 4 5 6 
#
# 1 0.008357 -0.002557 0.000959 0.000000 0.008254 0.000000
# 2 -0.002557 0.011454 -0.002681 0.000000 -0.001310 0.000000
# 3 0.000959 -0.002681 0.019792 0.000000 0.010835 0.000000
# 4 0.000000 0.000000 0.000000 0.028058 0.000000 0.006524
# 5 0.008254 -0.001310 0.010835 0.000000 0.043749 0.000000
# 6 0.000000 0.000000 0.000000 0.006524 0.000000 0.035293
#
#
# Mechanical properties :
#
#
# Convention : Reuss Voigt Hill
#
# Bulk Modulus (GPa) = 32.21089 50.56099 41.38594
# Shear Modulus (GPa) = 30.19142 36.99074 33.59108
#
# Velocity S-wave (km/s) = 3.62644 4.01408 3.82517
# Velocity P-wave (km/s) = 5.61832 6.59603 6.12671
#
# Compressibility (1/GPa) = 0.03104540
#
# Stress axis : x y z
#
# Youngs Moduli (GPa) = 119.66283 87.30206 50.52513
#
# Poissons Ratio (x) = 0.22327 -0.04845
# Poissons Ratio (y) = 0.30603 0.13543
# Poissons Ratio (z) = -0.11474 0.23401
#
# Static dielectric constant tensor:
#      x y z
#    x 1.907480 0.000000 -0.052230 
#    y 0.000000 1.847760 0.000000 
#    z -0.052230 0.000000 1.939560 
# 
# From -- ./inp_files/171718.got.cif
#   From: 2010.05.17/outbox.cif.g08.bks.cpg/sg15_86_cif.got.tgz:171718.got - 2010.06.03 18:47:42.
