data_PCOD9289563
_publ_section_title
;
Structure prediction by ZEFSAII (Michael W. Deem and Ramdas Pophale) SiO2 
 PCOD9289563
Probable space group: C 2/C
;
_chemical_formula_sum "Si O2"
_cell_formula_units_Z 48
_cell_length_a 5.554737
_cell_length_b 14.272607
_cell_length_c 27.517689
_cell_angle_alpha 90.000000
_cell_angle_beta 71.950530
_cell_angle_gamma 90.000000
_cell_volume 2074.259445
_symmetry_space_group_name_H-M "C 2/C"
_symmetry_group_IT_number 15
_symmetry_cell_setting 'monoclinic'
loop_
_space_group_symop_operation_xyz
x,y,z
-x,y,1/2-z
-x,-y,-z
x,-y,1/2+z
1/2+x,1/2+y,z
1/2-x,1/2+y,1/2-z
1/2-x,1/2-y,-z
1/2+x,1/2-y,1/2+z
loop_
_atom_site_type_symbol
_atom_site_label
_atom_site_fract_x
_atom_site_fract_y
_atom_site_fract_z
Si Si1 0.500000 0.306808 0.250000
Si Si2 0.290578 0.167656 0.051356
Si Si3 0.640787 0.591825 0.647748
Si Si4 0.129482 0.599274 0.344089
Si Si5 0.423803 0.131918 0.944316
Si Si6 0.500000 0.710365 0.250000
Si Si7 0.656074 0.463886 0.908606
O O1 0.516369 0.358825 0.300780
O O2 0.217308 0.260908 0.269076
O O3 0.338935 0.137469 0.103242
O O4 0.261126 0.279405 0.050942
O O5 0.486045 0.134800 0.997698
O O6 0.035245 0.108591 0.054489
O O7 0.793435 0.509010 0.664641
O O8 0.484223 0.539271 0.616155
O O9 0.840968 0.653113 0.605569
O O10 0.311780 0.653169 0.296855
O O11 0.826834 0.596126 0.359905
O O12 0.314666 0.030584 0.935266
#
# Coordination Sequence:
#
# PCOD9289563 Si02
#       7
#     4   8   8   8   8   4   8
#     4  12  29  46  75 104 138 182 236 297 354 427
#     4  10  22  40  65  98 137 180 232 289 350 421
#     4  10  24  44  66  97 136 180 231 289 351 423
#     4  10  24  44  66  97 136 180 231 289 351 423
#     4  10  22  40  65  98 137 180 232 289 350 421
#     4  12  29  46  75 104 138 182 236 297 354 427
#     4  10  23  40  69  92 138 180 232 286 354 428
#
# _framework density 23.140791
#
# number of rings (size 3 to 8) (size 9 to 14) (size 15 to 20)
#    0.000    1.667    0.000    2.000   14.000    7.333 
#    0.000    3.333    0.000    0.000    0.000    0.000 
#    0.000    0.000    0.000    0.000    0.000    0.000 
#
# Total GULP energy -133827.710015 kJ/mol
# GULP energy per Si atom -5576.154584 kJ/mol
# Density = 2.308812 g / cm^3
# Si number density = 23.140791 Si / 1000 Ang^3
#
#
#
# Elastic Constant Matrix: (Units=GPa)
#
#
# Indices 1 2 3 4 5 6 
#
# 1 28.5666 8.1405 -11.9096 0.0000 -2.8703 0.0000
# 2 8.1405 76.3577 31.2771 0.0000 -3.7740 0.0000
# 3 -11.9096 31.2771 120.4783 0.0000 -7.8226 0.0000
# 4 0.0000 0.0000 0.0000 37.4860 0.0000 -4.2319
# 5 -2.8703 -3.7740 -7.8226 0.0000 18.1428 0.0000
# 6 0.0000 0.0000 0.0000 -4.2319 0.0000 13.6678
#
#
#
# Elastic Compliance Matrix: (Units=1/GPa)
#
#
# Indices 1 2 3 4 5 6 
#
# 1 0.040161 -0.006415 0.006133 0.000000 0.007664 0.000000
# 2 -0.006415 0.015716 -0.004699 0.000000 0.000228 0.000000
# 3 0.006133 -0.004699 0.010418 0.000000 0.004484 0.000000
# 4 0.000000 0.000000 0.000000 0.027643 0.000000 0.008559
# 5 0.007664 0.000228 0.004484 0.000000 0.058312 0.000000
# 6 0.000000 0.000000 0.000000 0.008559 0.000000 0.075814
#
#
# Mechanical properties :
#
#
# Convention : Reuss Voigt Hill
#
# Bulk Modulus (GPa) = 17.75183 31.15760 24.45471
# Shear Modulus (GPa) = 19.47012 27.05232 23.26122
#
# Velocity S-wave (km/s) = 2.90380 3.42282 3.17394
# Velocity P-wave (km/s) = 4.35093 5.39579 4.90128
#
# Compressibility (1/GPa) = 0.05633222
#
# Stress axis : x y z
#
# Youngs Moduli (GPa) = 24.89988 63.62799 95.99060
#
# Poissons Ratio (x) = 0.40817 -0.58871
# Poissons Ratio (y) = 0.15973 0.45110
# Poissons Ratio (z) = -0.15271 0.29901
#
# Static dielectric constant tensor:
#      x y z
#    x 2.015990 0.000000 -0.006820 
#    y 0.000000 1.867420 0.000000 
#    z -0.006820 0.000000 1.886620 
# 
# From -- ./inp_files/285587.got.cif
#   From: 2010.05.17/outbox.cif.g08.bks.cpg/sg15_143_cif.got.tgz:285587.got - 2010.06.03 18:47:42.
