data_PCOD9289359
_publ_section_title
;
Structure prediction by ZEFSAII (Michael W. Deem and Ramdas Pophale) SiO2 
 PCOD9289359
Probable space group: C 2/C
;
_chemical_formula_sum "Si O2"
_cell_formula_units_Z 28
_cell_length_a 19.091586
_cell_length_b 4.766450
_cell_length_c 12.389035
_cell_angle_alpha 90.000000
_cell_angle_beta 64.891393
_cell_angle_gamma 90.000000
_cell_volume 1020.858182
_symmetry_space_group_name_H-M "C 2/C"
_symmetry_group_IT_number 15
_symmetry_cell_setting 'monoclinic'
loop_
_space_group_symop_operation_xyz
x,y,z
-x,y,1/2-z
-x,-y,-z
x,-y,1/2+z
1/2+x,1/2+y,z
1/2-x,1/2+y,1/2-z
1/2-x,1/2-y,-z
1/2+x,1/2-y,1/2+z
loop_
_atom_site_type_symbol
_atom_site_label
_atom_site_fract_x
_atom_site_fract_y
_atom_site_fract_z
Si Si1 0.647344 0.392141 0.263189
Si Si2 0.688055 0.069195 0.606251
Si Si3 0.000000 0.047352 0.750000
Si Si4 0.430813 0.159989 0.983030
O O1 0.656040 0.707987 0.216366
O O2 0.569089 0.280982 0.256304
O O3 0.625238 0.334212 0.399921
O O4 0.711659 0.195979 0.164708
O O5 0.750000 0.250000 0.500000
O O6 0.628491 0.980689 0.550234
O O7 0.030441 0.863322 0.630290
O O8 0.500000 0.000000 0.000000
#
# Coordination Sequence:
#
# PCOD9289359 Si02
#       4
#     8   8   4   8
#     4  11  23  41  66  94 130 173 217 272 332 393
#     4  11  26  44  64  95 133 173 222 274 327 396
#     4  10  22  40  64 104 136 166 220 284 334 392
#     4  11  22  41  69  98 132 173 220 273 335 397
#
# _framework density 27.427900999999999
#
# number of rings (size 3 to 8) (size 9 to 14) (size 15 to 20)
#    0.000    1.143    0.000    6.857    0.000   10.286 
#    0.000    0.000    0.000    0.000    0.000    0.000 
#    0.000    0.000    0.000    0.000    0.000    0.000 
#
# Total GULP energy -78333.138909 kJ/mol
# GULP energy per Si atom -5595.224208 kJ/mol
# Density = 2.736547 g / cm^3
# Si number density = 27.427901 Si / 1000 Ang^3
#
#
#
# Elastic Constant Matrix: (Units=GPa)
#
#
# Indices 1 2 3 4 5 6 
#
# 1 71.6771 3.6647 32.4889 0.0001 13.8753 0.0001
# 2 3.6647 113.1762 62.6847 -0.0001 6.3596 -0.0034
# 3 32.4889 62.6847 219.3333 0.0001 11.2526 0.0000
# 4 0.0001 -0.0001 0.0001 60.5418 0.0000 -0.8648
# 5 13.8753 6.3596 11.2526 0.0000 38.3472 0.0000
# 6 0.0001 -0.0034 0.0000 -0.8648 0.0000 34.1058
#
#
#
# Elastic Compliance Matrix: (Units=1/GPa)
#
#
# Indices 1 2 3 4 5 6 
#
# 1 0.016012 0.001119 -0.002421 0.000000 -0.005269 0.000000
# 2 0.001119 0.010605 -0.003133 0.000000 -0.001244 0.000001
# 3 -0.002421 -0.003133 0.005829 0.000000 -0.000315 0.000000
# 4 0.000000 0.000000 0.000000 0.016523 0.000000 0.000419
# 5 -0.005269 -0.001244 -0.000315 0.000000 0.028283 0.000000
# 6 0.000000 0.000001 0.000000 0.000419 0.000000 0.029331
#
#
# Mechanical properties :
#
#
# Convention : Reuss Voigt Hill
#
# Bulk Modulus (GPa) = 42.41755 66.87370 54.64563
# Shear Modulus (GPa) = 40.54776 46.95552 43.75164
#
# Velocity S-wave (km/s) = 3.84909 4.14207 3.99827
# Velocity P-wave (km/s) = 5.93740 6.87825 6.42507
#
# Compressibility (1/GPa) = 0.02357515
#
# Stress axis : x y z
#
# Youngs Moduli (GPa) = 62.45487 94.29948 171.54593
#
# Poissons Ratio (x) = -0.10548 0.41533
# Poissons Ratio (y) = -0.06986 0.53738
# Poissons Ratio (z) = 0.15121 0.29540
#
# Static dielectric constant tensor:
#      x y z
#    x 2.292740 0.000000 -0.107690 
#    y 0.000000 2.116920 0.000000 
#    z -0.107690 0.000000 2.209440 
# 
# From -- ./inp_files/108814.got.cif
#   From: 2010.05.17/outbox.cif.g08.bks.cpg/sg15_55_cif.got.tgz:108814.got - 2010.06.03 18:47:42.
