data_PCOD9289374
_publ_section_title
;
Structure prediction by ZEFSAII (Michael W. Deem and Ramdas Pophale) SiO2 
 PCOD9289374
Probable space group: C 2/C
;
_chemical_formula_sum "Si O2"
_cell_formula_units_Z 28
_cell_length_a 8.721303
_cell_length_b 29.936016
_cell_length_c 8.502009
_cell_angle_alpha 90.000000
_cell_angle_beta 35.060333
_cell_angle_gamma 90.000000
_cell_volume 1275.089365
_symmetry_space_group_name_H-M "C 2/C"
_symmetry_group_IT_number 15
_symmetry_cell_setting 'monoclinic'
loop_
_space_group_symop_operation_xyz
x,y,z
-x,y,1/2-z
-x,-y,-z
x,-y,1/2+z
1/2+x,1/2+y,z
1/2-x,1/2+y,1/2-z
1/2-x,1/2-y,-z
1/2+x,1/2-y,1/2+z
loop_
_atom_site_type_symbol
_atom_site_label
_atom_site_fract_x
_atom_site_fract_y
_atom_site_fract_z
Si Si1 0.174130 0.459510 0.778177
Si Si2 0.500000 0.503142 0.750000
Si Si3 0.801792 0.628820 0.062872
Si Si4 0.071518 0.278997 0.872736
O O1 0.440890 0.469656 0.657800
O O2 0.267602 0.465855 0.519225
O O3 0.111763 0.409892 0.885966
O O4 0.000000 0.500000 0.000000
O O5 0.500000 0.625275 0.250000
O O6 0.841190 0.676429 0.112488
O O7 0.000000 0.624241 0.750000
O O8 0.312058 0.243392 0.668189
O O9 0.000000 0.288702 0.750000
#
# Coordination Sequence:
#
# PCOD9289374 Si02
#       4
#     8   4   8   8
#     4  11  23  42  63  96 132 178 225 277 331 404
#     4  10  22  40  64  88 132 174 222 274 334 384
#     4  12  26  44  69 102 139 179 228 283 340 409
#     4  10  23  46  70 100 135 174 225 283 341 411
#
# _framework density 21.959246
#
# number of rings (size 3 to 8) (size 9 to 14) (size 15 to 20)
#    0.000    1.143    1.429    4.286    4.000    5.714 
#    7.714    0.000    0.000    0.000    0.000    0.000 
#    0.000    0.000    0.000    0.000    0.000    0.000 
#
# Total GULP energy -78115.041184 kJ/mol
# GULP energy per Si atom -5579.645799 kJ/mol
# Density = 2.190927 g / cm^3
# Si number density = 21.959246 Si / 1000 Ang^3
#
#
#
# Elastic Constant Matrix: (Units=GPa)
#
#
# Indices 1 2 3 4 5 6 
#
# 1 56.5616 52.8157 26.5006 0.0000 10.2812 0.0000
# 2 52.8157 139.5201 29.4651 0.0000 11.0957 0.0000
# 3 26.5006 29.4651 134.3427 0.0000 -3.0702 0.0000
# 4 0.0000 0.0000 0.0000 20.6400 0.0000 5.2576
# 5 10.2812 11.0957 -3.0702 0.0000 39.3470 0.0000
# 6 0.0000 0.0000 0.0000 5.2576 0.0000 44.1677
#
#
#
# Elastic Compliance Matrix: (Units=1/GPa)
#
#
# Indices 1 2 3 4 5 6 
#
# 1 0.029810 -0.010067 -0.003792 0.000000 -0.005246 0.000000
# 2 -0.010067 0.011120 -0.000465 0.000000 -0.000542 0.000000
# 3 -0.003792 -0.000465 0.008334 0.000000 0.001773 0.000000
# 4 0.000000 0.000000 0.000000 0.049965 0.000000 -0.005948
# 5 -0.005246 -0.000542 0.001773 0.000000 0.027077 0.000000
# 6 0.000000 0.000000 0.000000 -0.005948 0.000000 0.023349
#
#
# Mechanical properties :
#
#
# Convention : Reuss Voigt Hill
#
# Bulk Modulus (GPa) = 48.50791 60.88747 54.69769
# Shear Modulus (GPa) = 27.00148 35.60716 31.30432
#
# Velocity S-wave (km/s) = 3.51039 4.03117 3.77976
# Velocity P-wave (km/s) = 6.21035 7.03241 6.63412
#
# Compressibility (1/GPa) = 0.02061519
#
# Stress axis : x y z
#
# Youngs Moduli (GPa) = 33.54554 89.93186 119.98553
#
# Poissons Ratio (x) = 0.90531 0.45503
# Poissons Ratio (y) = 0.33769 0.05585
# Poissons Ratio (z) = 0.12722 0.04186
#
# Static dielectric constant tensor:
#      x y z
#    x 2.161430 0.000000 -0.017430 
#    y 0.000000 1.791160 0.000000 
#    z -0.017430 0.000000 1.908460 
# 
# From -- ./inp_files/2280.got.cif
#   From: 2010.05.17/outbox.cif.g08.bks.cpg/sg15_2_cif.got.tgz:2280.got - 2010.06.03 18:47:42.
