data_PCOD9289505
_publ_section_title
;
Structure prediction by ZEFSAII (Michael W. Deem and Ramdas Pophale) SiO2 
 PCOD9289505
Probable space group: C 2/C
;
_chemical_formula_sum "Si O2"
_cell_formula_units_Z 48
_cell_length_a 8.119494
_cell_length_b 17.677218
_cell_length_c 14.980205
_cell_angle_alpha 90.000000
_cell_angle_beta 67.027586
_cell_angle_gamma 90.000000
_cell_volume 1979.590768
_symmetry_space_group_name_H-M "C 2/C"
_symmetry_group_IT_number 15
_symmetry_cell_setting 'monoclinic'
loop_
_space_group_symop_operation_xyz
x,y,z
-x,y,1/2-z
-x,-y,-z
x,-y,1/2+z
1/2+x,1/2+y,z
1/2-x,1/2+y,1/2-z
1/2-x,1/2-y,-z
1/2+x,1/2-y,1/2+z
loop_
_atom_site_type_symbol
_atom_site_label
_atom_site_fract_x
_atom_site_fract_y
_atom_site_fract_z
Si Si1 0.705789 0.227219 0.805074
Si Si2 0.191312 0.038895 0.948764
Si Si3 0.792063 0.935621 0.265859
Si Si4 0.089893 0.192185 0.043890
Si Si5 0.523715 0.935595 0.853463
Si Si6 0.498299 0.764055 0.609684
O O1 0.676482 0.137320 0.821088
O O2 0.810958 0.238007 0.691396
O O3 0.849482 0.249690 0.849950
O O4 0.538221 0.282341 0.849542
O O5 0.212747 0.063016 0.840664
O O6 0.172865 0.110056 0.017856
O O7 0.356783 0.982794 0.927503
O O8 0.000000 0.000000 0.000000
O O9 0.000000 0.927431 0.250000
O O10 0.699765 0.011851 0.321763
O O11 0.969878 0.211366 0.981873
O O12 0.250000 0.250000 0.000000
O O13 0.500000 0.923192 0.750000
O O14 0.521448 0.853700 0.899352
#
# Coordination Sequence:
#
# PCOD9289505 Si02
#       6
#     8   8   8   8   8   8
#     4  11  21  42  70  90 128 171 228 255 322 394
#     4  11  24  43  66  97 133 172 217 270 329 388
#     4  11  22  42  67  96 128 176 217 270 326 388
#     4  12  26  41  65 101 133 168 215 276 332 379
#     4  10  22  40  65  92 130 170 214 262 328 385
#     4  11  22  44  66  96 125 177 221 266 318 396
#
# _framework density 24.247436
#
# number of rings (size 3 to 8) (size 9 to 14) (size 15 to 20)
#    0.000    1.000    5.000    2.500    2.333    3.333 
#    0.000    2.500    0.000    0.000    0.000    0.000 
#    0.000    0.000    0.000    0.000    0.000    0.000 
#
# Total GULP energy -134365.928862 kJ/mol
# GULP energy per Si atom -5598.580369 kJ/mol
# Density = 2.419225 g / cm^3
# Si number density = 24.247436 Si / 1000 Ang^3
#
#
#
# Elastic Constant Matrix: (Units=GPa)
#
#
# Indices 1 2 3 4 5 6 
#
# 1 40.2438 -9.9717 -0.3183 0.0000 7.5997 0.0000
# 2 -9.9717 120.7877 -5.7556 0.0000 8.1645 0.0000
# 3 -0.3183 -5.7556 83.4034 0.0000 -10.5396 0.0000
# 4 0.0000 0.0000 0.0000 6.5103 0.0000 26.2431
# 5 7.5997 8.1645 -10.5396 0.0000 29.6084 0.0000
# 6 0.0000 0.0000 0.0000 26.2431 0.0000 -11.0533
#
#
#
# Elastic Compliance Matrix: (Units=1/GPa)
#
#
# Indices 1 2 3 4 5 6 
#
# 1 0.027020 0.002734 -0.000712 0.000000 -0.007943 0.000000
# 2 0.002734 0.008720 0.000230 0.000000 -0.003024 0.000000
# 3 -0.000712 0.000230 0.012584 0.000000 0.004599 0.000000
# 4 0.000000 0.000000 0.000000 0.014531 0.000000 0.034500
# 5 -0.007943 -0.003024 0.004599 0.000000 0.038284 0.000000
# 6 0.000000 0.000000 0.000000 0.034500 0.000000 -0.008559
#
#
# Mechanical properties :
#
#
# Convention : Reuss Voigt Hill
#
# Bulk Modulus (GPa) = 18.92941 23.59374 21.26158
# Shear Modulus (GPa) = 47.30969 22.37845 34.84407
#
# Velocity S-wave (km/s) = 4.42194 3.04126 3.79492
# Velocity P-wave (km/s) = 5.82195 4.69935 5.29051
#
# Compressibility (1/GPa) = 0.05282785
#
# Stress axis : x y z
#
# Youngs Moduli (GPa) = 37.00938 114.67829 79.46448
#
# Poissons Ratio (x) = -0.31349 0.05657
# Poissons Ratio (y) = -0.10117 -0.01828
# Poissons Ratio (z) = 0.02635 -0.02638
#
# Static dielectric constant tensor:
#      x y z
#    x 2.084680 0.000000 0.068890 
#    y 0.000000 1.849920 0.000000 
#    z 0.068890 0.000000 2.092790 
# 
# From -- ./inp_files/190242.got.cif
#   From: 2010.05.17/outbox.cif.g08.bks.cpg/sg15_96_cif.got.tgz:190242.got - 2010.06.03 18:47:42.
