data_PCOD9289497
_publ_section_title
;
Structure prediction by ZEFSAII (Michael W. Deem and Ramdas Pophale) SiO2 
 PCOD9289497
Probable space group: C 2/C
;
_chemical_formula_sum "Si O2"
_cell_formula_units_Z 56
_cell_length_a 26.187382
_cell_length_b 7.976976
_cell_length_c 18.808584
_cell_angle_alpha 90.000000
_cell_angle_beta 41.416185
_cell_angle_gamma 90.000000
_cell_volume 2599.153319
_symmetry_space_group_name_H-M "C 2/C"
_symmetry_group_IT_number 15
_symmetry_cell_setting 'monoclinic'
loop_
_space_group_symop_operation_xyz
x,y,z
-x,y,1/2-z
-x,-y,-z
x,-y,1/2+z
1/2+x,1/2+y,z
1/2-x,1/2+y,1/2-z
1/2-x,1/2-y,-z
1/2+x,1/2-y,1/2+z
loop_
_atom_site_type_symbol
_atom_site_label
_atom_site_fract_x
_atom_site_fract_y
_atom_site_fract_z
Si Si1 0.057294 0.388501 0.892847
Si Si2 0.734999 0.117035 0.860691
Si Si3 0.987020 0.142019 0.848311
Si Si4 0.869358 0.949766 0.791494
Si Si5 0.805069 0.397973 0.323047
Si Si6 0.180029 0.128327 0.514888
Si Si7 0.809084 0.291319 0.664426
O O1 0.124344 0.507635 0.789300
O O2 0.105286 0.262542 0.894564
O O3 0.015349 0.287189 0.872794
O O4 0.000000 0.500000 0.000000
O O5 0.700540 0.182760 0.970261
O O6 0.751485 0.274318 0.792416
O O7 0.817275 0.026174 0.783597
O O8 0.685034 0.975588 0.875694
O O9 0.000000 0.187175 0.750000
O O10 0.897260 0.097674 0.950827
O O11 0.040274 0.981250 0.810074
O O12 0.841873 0.759326 0.826712
O O13 0.846744 0.069729 0.880346
O O14 0.757810 0.526229 0.420024
O O15 0.736862 0.323973 0.343445
#
# Coordination Sequence:
#
# PCOD9289497 Si02
#       7
#     8   8   8   8   8   8   8
#     4  12  24  41  63  96 130 168 218 268 322 382
#     4  11  19  36  62  90 123 164 211 258 311 373
#     4  10  23  42  64  92 130 172 211 259 324 388
#     4  10  22  40  65  91 123 172 213 262 321 375
#     4  11  24  41  65  93 128 165 216 270 314 378
#     4  11  21  40  64  93 126 165 215 259 315 388
#     4  11  21  38  61  91 126 167 207 260 318 373
#
# _framework density 21.545477000000002
#
# number of rings (size 3 to 8) (size 9 to 14) (size 15 to 20)
#    0.000    1.143    4.286    1.714    0.000    2.286 
#    0.000    5.000    0.000    0.000    0.000    0.000 
#    0.000    0.000    0.000    0.000    0.000    0.000 
#
# Total GULP energy -155972.496895 kJ/mol
# GULP energy per Si atom -5570.446318 kJ/mol
# Density = 2.149644 g / cm^3
# Si number density = 21.545477 Si / 1000 Ang^3
#
#
#
# Elastic Constant Matrix: (Units=GPa)
#
#
# Indices 1 2 3 4 5 6 
#
# 1 118.8275 23.2472 19.5183 -0.0039 -15.3630 -0.0006
# 2 23.2472 57.3807 12.7751 -0.0043 4.5368 -0.0030
# 3 19.5183 12.7751 72.5153 0.0025 -20.4393 -0.0013
# 4 -0.0039 -0.0043 0.0025 19.4931 -0.0030 -7.8629
# 5 -15.3630 4.5368 -20.4393 -0.0030 37.7310 -0.0024
# 6 -0.0006 -0.0030 -0.0013 -7.8629 -0.0024 30.8260
#
#
#
# Elastic Compliance Matrix: (Units=1/GPa)
#
#
# Indices 1 2 3 4 5 6 
#
# 1 0.009887 -0.004159 -0.000771 0.000002 0.004108 0.000001
# 2 -0.004159 0.020596 -0.004348 0.000004 -0.006525 0.000002
# 3 -0.000771 -0.004348 0.017494 -0.000002 0.009686 0.000001
# 4 0.000002 0.000004 -0.000002 0.057184 0.000005 0.014586
# 5 0.004108 -0.006525 0.009686 0.000005 0.034208 0.000004
# 6 0.000001 0.000002 0.000001 0.014586 0.000004 0.036161
#
#
# Mechanical properties :
#
#
# Convention : Reuss Voigt Hill
#
# Bulk Modulus (GPa) = 33.98876 39.97832 36.98354
# Shear Modulus (GPa) = 24.52279 30.48886 27.50582
#
# Velocity S-wave (km/s) = 3.37736 3.76585 3.57689
# Velocity P-wave (km/s) = 5.56941 6.12409 5.85333
#
# Compressibility (1/GPa) = 0.02942149
#
# Stress axis : x y z
#
# Youngs Moduli (GPa) = 101.14368 48.55205 57.16353
#
# Poissons Ratio (x) = 0.20192 0.04405
# Poissons Ratio (y) = 0.42064 0.24857
# Poissons Ratio (z) = 0.07793 0.21112
#
# Static dielectric constant tensor:
#      x y z
#    x 1.861960 0.000000 0.022410 
#    y 0.000000 1.819840 0.000000 
#    z 0.022410 0.000000 1.814590 
# 
# From -- ./inp_files/222003.got.cif
#   From: 2010.05.17/outbox.cif.g08.bks.cpg/sg15_112_cif.got.tgz:222003.got - 2010.06.03 18:47:42.
