data_PCOD9289217
_publ_section_title
;
Structure prediction by ZEFSAII (Michael W. Deem and Ramdas Pophale) SiO2 
 PCOD9289217
Probable space group: C 2/C
;
_chemical_formula_sum "Si O2"
_cell_formula_units_Z 48
_cell_length_a 14.887701
_cell_length_b 8.587167
_cell_length_c 20.137557
_cell_angle_alpha 90.000000
_cell_angle_beta 114.947513
_cell_angle_gamma 90.000000
_cell_volume 2334.239088
_symmetry_space_group_name_H-M "C 2/C"
_symmetry_group_IT_number 15
_symmetry_cell_setting 'monoclinic'
loop_
_space_group_symop_operation_xyz
x,y,z
-x,y,1/2-z
-x,-y,-z
x,-y,1/2+z
1/2+x,1/2+y,z
1/2-x,1/2+y,1/2-z
1/2-x,1/2-y,-z
1/2+x,1/2-y,1/2+z
loop_
_atom_site_type_symbol
_atom_site_label
_atom_site_fract_x
_atom_site_fract_y
_atom_site_fract_z
Si Si1 0.248169 0.295994 0.423455
Si Si2 0.217554 0.402018 0.190683
Si Si3 0.789015 0.039949 0.342932
Si Si4 0.599040 0.569283 0.326472
Si Si5 0.061552 0.603151 0.070804
Si Si6 0.494352 0.567470 0.574333
O O1 0.250000 0.250000 0.500000
O O2 0.263006 0.475646 0.407875
O O3 0.343811 0.201750 0.426151
O O4 0.147237 0.235689 0.358623
O O5 0.228152 0.438533 0.271372
O O6 0.312631 0.479718 0.184309
O O7 0.115098 0.482004 0.136271
O O8 0.221515 0.221003 0.174040
O O9 0.901629 0.992610 0.364852
O O10 0.500000 0.571620 0.250000
O O11 0.581622 0.495059 0.394340
O O12 0.992421 0.744729 0.073754
O O13 0.000000 0.500000 0.000000
O O14 0.500000 0.500000 0.500000
#
# Coordination Sequence:
#
# PCOD9289217 Si02
#       6
#     8   8   8   8   8   8
#     4  10  23  42  62  90 127 164 209 260 316 385
#     4  11  23  40  64  92 128 167 213 271 317 386
#     4  11  22  41  63  91 126 170 214 259 327 379
#     4  11  22  39  64  93 130 165 213 266 321 377
#     4  10  22  40  62  90 124 162 209 256 315 380
#     4  11  22  39  65  93 126 170 213 260 324 387
#
# _framework density 20.563445000000002
#
# number of rings (size 3 to 8) (size 9 to 14) (size 15 to 20)
#    0.000    1.333    1.667    6.000    0.000    1.333 
#    0.000    5.000    0.000    0.000    0.000    0.000 
#    0.000    0.000    0.000    0.000    0.000    0.000 
#
# Total GULP energy -133813.404775 kJ/mol
# GULP energy per Si atom -5575.558532 kJ/mol
# Density = 2.051664 g / cm^3
# Si number density = 20.563445 Si / 1000 Ang^3
#
#
#
# Elastic Constant Matrix: (Units=GPa)
#
#
# Indices 1 2 3 4 5 6 
#
# 1 43.8300 11.1879 24.5848 0.0000 -0.8638 0.0000
# 2 11.1879 122.4850 31.8757 0.0000 1.1864 0.0000
# 3 24.5848 31.8757 122.2065 0.0000 4.4134 0.0000
# 4 0.0000 0.0000 0.0000 27.7090 0.0000 2.0522
# 5 -0.8638 1.1864 4.4134 0.0000 45.0945 0.0000
# 6 0.0000 0.0000 0.0000 2.0522 0.0000 26.5990
#
#
#
# Elastic Compliance Matrix: (Units=1/GPa)
#
#
# Indices 1 2 3 4 5 6 
#
# 1 0.025896 -0.001083 -0.004963 0.000000 0.001010 0.000000
# 2 -0.001083 0.008804 -0.002077 0.000000 -0.000049 0.000000
# 3 -0.004963 -0.002077 0.009759 0.000000 -0.000996 0.000000
# 4 0.000000 0.000000 0.000000 0.036297 0.000000 -0.002800
# 5 0.001010 -0.000049 -0.000996 0.000000 0.022294 0.000000
# 6 0.000000 0.000000 0.000000 -0.002800 0.000000 0.037812
#
#
# Mechanical properties :
#
#
# Convention : Reuss Voigt Hill
#
# Bulk Modulus (GPa) = 35.44603 47.09093 41.26848
# Shear Modulus (GPa) = 30.02781 34.60538 32.31659
#
# Velocity S-wave (km/s) = 3.82547 4.10672 3.96859
# Velocity P-wave (km/s) = 6.06524 6.74069 6.41186
#
# Compressibility (1/GPa) = 0.02821190
#
# Stress axis : x y z
#
# Youngs Moduli (GPa) = 38.61603 113.58289 102.46933
#
# Poissons Ratio (x) = 0.12306 0.50860
# Poissons Ratio (y) = 0.04184 0.21280
# Poissons Ratio (z) = 0.19167 0.23588
#
# Static dielectric constant tensor:
#      x y z
#    x 1.738740 0.000000 -0.083560 
#    y 0.000000 1.731500 0.000000 
#    z -0.083560 0.000000 1.592220 
# 
# From -- ./inp_files/209290.got.cif
#   From: 2010.05.17/outbox.cif.g08.bks.cpg/sg15_105_cif.got.tgz:209290.got - 2010.06.03 18:47:42.
