data_PCOD9289140
_publ_section_title
;
Structure prediction by ZEFSAII (Michael W. Deem and Ramdas Pophale) SiO2 
 PCOD9289140
Probable space group: C 2/C
;
_chemical_formula_sum "Si O2"
_cell_formula_units_Z 56
_cell_length_a 19.541905
_cell_length_b 17.118316
_cell_length_c 18.897579
_cell_angle_alpha 90.000000
_cell_angle_beta 159.041065
_cell_angle_gamma 90.000000
_cell_volume 2261.265306
_symmetry_space_group_name_H-M "C 2/C"
_symmetry_group_IT_number 15
_symmetry_cell_setting 'monoclinic'
loop_
_space_group_symop_operation_xyz
x,y,z
-x,y,1/2-z
-x,-y,-z
x,-y,1/2+z
1/2+x,1/2+y,z
1/2-x,1/2+y,1/2-z
1/2-x,1/2-y,-z
1/2+x,1/2-y,1/2+z
loop_
_atom_site_type_symbol
_atom_site_label
_atom_site_fract_x
_atom_site_fract_y
_atom_site_fract_z
Si Si1 0.819230 0.160918 0.657983
Si Si2 0.000000 0.695158 0.250000
Si Si3 0.104899 0.822733 0.108028
Si Si4 0.505891 0.494351 0.132070
Si Si5 0.268504 0.450299 0.783233
Si Si6 0.317515 0.647547 0.140732
Si Si7 0.500000 0.212722 0.750000
Si Si8 0.999221 0.652528 0.954754
O O1 0.636264 0.145446 0.432298
O O2 0.800011 0.175762 0.722643
O O3 0.956949 0.085470 0.789651
O O4 0.894095 0.243192 0.699355
O O5 0.918214 0.876968 0.925607
O O6 0.039398 0.736776 0.026208
O O7 0.275586 0.849624 0.221439
O O8 0.307266 0.487427 0.897308
O O9 0.553176 0.571469 0.222418
O O10 0.656533 0.498433 0.210590
O O11 0.061377 0.415467 0.569072
O O12 0.445177 0.726407 0.260420
O O13 0.154353 0.643843 0.042758
O O14 0.183652 0.659969 0.942870
#
# Coordination Sequence:
#
# PCOD9289140 Si02
#       8
#     8   4   8   8   8   8   4   8
#     4  10  22  40  61  89 121 161 204 251 300 359
#     4  10  22  40  64  84 120 164 214 246 282 362
#     4  11  20  34  63  97 121 154 201 254 311 359
#     4   9  20  40  62  84 129 155 194 253 313 360
#     4   9  20  38  58  90 128 159 188 249 318 372
#     4  10  22  40  61  89 121 161 204 251 300 359
#     4  10  22  40  64  84 120 164 214 246 282 362
#     4  11  20  34  63  97 121 154 201 254 311 359
#
# _framework density 24.764897999999999
#
# number of rings (size 3 to 8) (size 9 to 14) (size 15 to 20)
#    0.000    2.000    1.429    1.714    4.000    1.143 
#    0.000   17.857    0.000    0.000    0.000    0.000 
#    0.000    0.000    0.000    0.000    0.000    0.000 
#
# Total GULP energy -156470.378045 kJ/mol
# GULP energy per Si atom -5588.227787 kJ/mol
# Density = 2.470853 g / cm^3
# Si number density = 24.764898 Si / 1000 Ang^3
#
#
#
# Elastic Constant Matrix: (Units=GPa)
#
#
# Indices 1 2 3 4 5 6 
#
# 1 72.1654 6.0374 9.0704 0.0046 -4.2861 -0.0001
# 2 6.0374 116.3173 23.0124 -0.0087 -15.8809 -0.0070
# 3 9.0704 23.0124 67.0161 0.0135 -12.1837 0.0067
# 4 0.0046 -0.0087 0.0135 51.6867 0.0023 -9.6460
# 5 -4.2861 -15.8809 -12.1837 0.0023 32.8482 0.0023
# 6 -0.0001 -0.0070 0.0067 -9.6460 0.0023 23.8974
#
#
#
# Elastic Compliance Matrix: (Units=1/GPa)
#
#
# Indices 1 2 3 4 5 6 
#
# 1 0.014149 -0.000261 -0.001622 -0.000001 0.001118 0.000000
# 2 -0.000261 0.009625 -0.002606 0.000003 0.003653 0.000004
# 3 -0.001622 -0.002606 0.016909 -0.000007 0.004800 -0.000009
# 4 -0.000001 0.000003 -0.000007 0.020923 -0.000003 0.008446
# 5 0.001118 0.003653 0.004800 -0.000003 0.034135 -0.000005
# 6 0.000000 0.000004 -0.000009 0.008446 -0.000005 0.045255
#
#
# Mechanical properties :
#
#
# Convention : Reuss Voigt Hill
#
# Bulk Modulus (GPa) = 31.54006 36.85990 34.19998
# Shear Modulus (GPa) = 31.14444 36.17836 33.66140
#
# Velocity S-wave (km/s) = 3.55012 3.82628 3.69078
# Velocity P-wave (km/s) = 5.43764 5.86829 5.65706
#
# Compressibility (1/GPa) = 0.03170571
#
# Stress axis : x y z
#
# Youngs Moduli (GPa) = 70.67538 103.89670 59.14083
#
# Poissons Ratio (x) = 0.02709 0.09594
# Poissons Ratio (y) = 0.01843 0.15410
# Poissons Ratio (z) = 0.11465 0.27072
#
# Static dielectric constant tensor:
#      x y z
#    x 2.072140 -0.000010 0.001830 
#    y -0.000010 1.976250 -0.000010 
#    z 0.001830 -0.000010 2.007090 
# 
# From -- ./inp_files/255948.got.cif
#   From: 2010.05.17/outbox.cif.g08.bks.cpg/sg15_128_cif.got.tgz:255948.got - 2010.06.03 18:47:42.
