data_PCOD9289003
_publ_section_title
;
Structure prediction by ZEFSAII (Michael W. Deem and Ramdas Pophale) SiO2 
 PCOD9289003
Probable space group: C 2/C
;
_chemical_formula_sum "Si O2"
_cell_formula_units_Z 40
_cell_length_a 17.518576
_cell_length_b 10.435238
_cell_length_c 20.525317
_cell_angle_alpha 90.000000
_cell_angle_beta 29.113335
_cell_angle_gamma 90.000000
_cell_volume 1825.611864
_symmetry_space_group_name_H-M "C 2/C"
_symmetry_group_IT_number 15
_symmetry_cell_setting 'monoclinic'
loop_
_space_group_symop_operation_xyz
x,y,z
-x,y,1/2-z
-x,-y,-z
x,-y,1/2+z
1/2+x,1/2+y,z
1/2-x,1/2+y,1/2-z
1/2-x,1/2-y,-z
1/2+x,1/2-y,1/2+z
loop_
_atom_site_type_symbol
_atom_site_label
_atom_site_fract_x
_atom_site_fract_y
_atom_site_fract_z
Si Si1 0.818685 0.641450 0.364735
Si Si2 0.179544 0.925972 0.105380
Si Si3 0.181487 0.993652 0.842031
Si Si4 0.702840 0.803608 0.964603
Si Si5 0.345989 0.253902 0.725019
O O1 0.794154 0.794348 0.375099
O O2 0.710003 0.602855 0.506655
O O3 0.776738 0.560184 0.333146
O O4 0.000000 0.623864 0.250000
O O5 0.000000 0.966387 0.250000
O O6 0.289648 0.043032 0.040964
O O7 0.246105 0.132948 0.774411
O O8 0.202941 0.888683 0.769618
O O9 0.000000 0.000000 0.000000
O O10 0.820303 0.755278 0.821699
O O11 0.750000 0.750000 0.000000
O O12 0.529282 0.761593 0.074891
#
# Coordination Sequence:
#
# PCOD9289003 Si02
#       5
#     8   8   8   8   8
#     4  10  23  45  71 103 141 189 243 307 360 441
#     4  10  22  39  72 103 137 184 249 297 366 429
#     4  12  28  49  72 109 158 190 251 311 376 453
#     4  12  25  46  73 109 144 192 254 305 369 450
#     4  12  28  48  76 105 151 205 236 314 383 431
#
# _framework density 21.910464000000001
#
# number of rings (size 3 to 8) (size 9 to 14) (size 15 to 20)
#    0.000    0.800    2.000    4.200    5.600    5.600 
#    0.000    0.000    0.000    0.000    0.000    0.000 
#    0.000    0.000    0.000    0.000    0.000    0.000 
#
# Total GULP energy -111988.600776 kJ/mol
# GULP energy per Si atom -5599.430039 kJ/mol
# Density = 2.186059 g / cm^3
# Si number density = 21.910464 Si / 1000 Ang^3
#
#
#
# Elastic Constant Matrix: (Units=GPa)
#
#
# Indices 1 2 3 4 5 6 
#
# 1 57.2481 38.7245 11.0849 -0.0001 3.8558 0.0000
# 2 38.7245 112.9642 10.7826 -0.0005 5.9939 0.0002
# 3 11.0849 10.7826 72.0580 0.0007 10.0069 0.0000
# 4 -0.0001 -0.0005 0.0007 31.1100 0.0000 -7.0705
# 5 3.8558 5.9939 10.0069 0.0000 28.9351 0.0000
# 6 0.0000 0.0002 0.0000 -7.0705 0.0000 23.5246
#
#
#
# Elastic Compliance Matrix: (Units=1/GPa)
#
#
# Indices 1 2 3 4 5 6 
#
# 1 0.023159 -0.007681 -0.002317 0.000000 -0.000694 0.000000
# 2 -0.007681 0.011588 -0.000379 0.000000 -0.001246 0.000000
# 3 -0.002317 -0.000379 0.014955 0.000000 -0.004785 0.000000
# 4 0.000000 0.000000 0.000000 0.034501 0.000000 0.010369
# 5 -0.000694 -0.001246 -0.004785 0.000000 0.036565 0.000000
# 6 0.000000 0.000000 0.000000 0.010369 0.000000 0.045625
#
#
# Mechanical properties :
#
#
# Convention : Reuss Voigt Hill
#
# Bulk Modulus (GPa) = 34.54534 40.38380 37.46457
# Shear Modulus (GPa) = 25.40689 28.82582 27.11635
#
# Velocity S-wave (km/s) = 3.40895 3.63108 3.52177
# Velocity P-wave (km/s) = 5.59423 6.00425 5.80286
#
# Compressibility (1/GPa) = 0.02894746
#
# Stress axis : x y z
#
# Youngs Moduli (GPa) = 43.18006 86.29807 66.86553
#
# Poissons Ratio (x) = 0.66285 0.15492
# Poissons Ratio (y) = 0.33167 0.02537
# Poissons Ratio (z) = 0.10004 0.03274
#
# Static dielectric constant tensor:
#      x y z
#    x 1.791130 0.000000 -0.007740 
#    y 0.000000 1.824630 0.000000 
#    z -0.007740 0.000000 1.829660 
# 
# From -- ./inp_files/210766.got.cif
#   From: 2010.05.17/outbox.cif.g08.bks.cpg/sg15_106_cif.got.tgz:210766.got - 2010.06.03 18:47:42.
