data_PCOD9289845
_publ_section_title
;
Structure prediction by ZEFSAII (Michael W. Deem and Ramdas Pophale) SiO2 
 PCOD9289845
Probable space group: C 2/C
;
_chemical_formula_sum "Si O2"
_cell_formula_units_Z 32
_cell_length_a 5.247299
_cell_length_b 12.686152
_cell_length_c 21.404140
_cell_angle_alpha 90.000000
_cell_angle_beta 98.303477
_cell_angle_gamma 90.000000
_cell_volume 1409.895021
_symmetry_space_group_name_H-M "C 2/C"
_symmetry_group_IT_number 15
_symmetry_cell_setting 'monoclinic'
loop_
_space_group_symop_operation_xyz
x,y,z
-x,y,1/2-z
-x,-y,-z
x,-y,1/2+z
1/2+x,1/2+y,z
1/2-x,1/2+y,1/2-z
1/2-x,1/2-y,-z
1/2+x,1/2-y,1/2+z
loop_
_atom_site_type_symbol
_atom_site_label
_atom_site_fract_x
_atom_site_fract_y
_atom_site_fract_z
Si Si1 0.441354 0.296298 0.411933
Si Si2 0.963270 0.969409 0.608571
Si Si3 0.010265 0.614599 0.176214
Si Si4 0.388640 0.116880 0.500979
O O1 0.575842 0.408167 0.409547
O O2 0.455189 0.234499 0.347392
O O3 0.523998 0.204507 0.463159
O O4 0.170961 0.336089 0.433273
O O5 0.758831 0.941596 0.655104
O O6 0.883878 0.901333 0.545114
O O7 0.249671 0.938440 0.639916
O O8 0.000000 0.609273 0.250000
O O9 0.500000 0.000000 0.500000
#
# Coordination Sequence:
#
# PCOD9289845 Si02
#       4
#     8   8   8   8
#     4  10  22  40  68  98 130 175 214 263 333 393
#     4  11  24  43  66  95 132 171 216 271 328 390
#     4  11  26  45  65  94 130 173 228 277 319 380
#     4  10  22  41  67 102 138 167 210 270 331 399
#
# _framework density 22.696728
#
# number of rings (size 3 to 8) (size 9 to 14) (size 15 to 20)
#    0.000    1.500    0.000    4.500    0.000   14.000 
#    0.000    0.000    0.000    0.000    0.000    0.000 
#    0.000    0.000    0.000    0.000    0.000    0.000 
#
# Total GULP energy -89323.630781 kJ/mol
# GULP energy per Si atom -5582.726924 kJ/mol
# Density = 2.264507 g / cm^3
# Si number density = 22.696728 Si / 1000 Ang^3
#
#
#
# Elastic Constant Matrix: (Units=GPa)
#
#
# Indices 1 2 3 4 5 6 
#
# 1 113.0855 49.0838 46.0594 0.0000 -14.0460 0.0000
# 2 49.0838 204.6597 38.7516 0.0000 -7.7841 0.0000
# 3 46.0594 38.7516 88.4214 0.0000 -17.5170 0.0000
# 4 0.0000 0.0000 0.0000 24.8543 0.0000 -4.9151
# 5 -14.0460 -7.7841 -17.5170 0.0000 37.9719 0.0000
# 6 0.0000 0.0000 0.0000 -4.9151 0.0000 44.2560
#
#
#
# Elastic Compliance Matrix: (Units=1/GPa)
#
#
# Indices 1 2 3 4 5 6 
#
# 1 0.011912 -0.001833 -0.005066 0.000000 0.001693 0.000000
# 2 -0.001833 0.005610 -0.001552 0.000000 -0.000244 0.000000
# 3 -0.005066 -0.001552 0.015622 0.000000 0.005015 0.000000
# 4 0.000000 0.000000 0.000000 0.041138 0.000000 0.004569
# 5 0.001693 -0.000244 0.005015 0.000000 0.029225 0.000000
# 6 0.000000 0.000000 0.000000 0.004569 0.000000 0.023103
#
#
# Mechanical properties :
#
#
# Convention : Reuss Voigt Hill
#
# Bulk Modulus (GPa) = 61.57071 74.88401 68.22736
# Shear Modulus (GPa) = 33.57312 39.56791 36.57051
#
# Velocity S-wave (km/s) = 3.85022 4.17985 4.01842
# Velocity P-wave (km/s) = 6.85215 7.50732 7.18720
#
# Compressibility (1/GPa) = 0.01624149
#
# Stress axis : x y z
#
# Youngs Moduli (GPa) = 83.94595 178.23847 64.01124
#
# Poissons Ratio (x) = 0.32676 0.32430
# Poissons Ratio (y) = 0.15390 0.09936
# Poissons Ratio (z) = 0.42530 0.27667
#
# Static dielectric constant tensor:
#      x y z
#    x 1.943250 0.000000 0.019980 
#    y 0.000000 1.824390 0.000000 
#    z 0.019980 0.000000 1.846950 
# 
# From -- ./inp_files/226367.got.cif
#   From: 2010.05.17/outbox.cif.g08.bks.cpg/sg15_114_cif.got.tgz:226367.got - 2010.06.03 18:47:42.
