data_PCOD9289794
_publ_section_title
;
Structure prediction by ZEFSAII (Michael W. Deem and Ramdas Pophale) SiO2 
 PCOD9289794
Probable space group: C 2/C
;
_chemical_formula_sum "Si O2"
_cell_formula_units_Z 64
_cell_length_a 9.093299
_cell_length_b 12.791060
_cell_length_c 30.741110
_cell_angle_alpha 90.000000
_cell_angle_beta 137.900283
_cell_angle_gamma 90.000000
_cell_volume 2397.156720
_symmetry_space_group_name_H-M "C 2/C"
_symmetry_group_IT_number 15
_symmetry_cell_setting 'monoclinic'
loop_
_space_group_symop_operation_xyz
x,y,z
-x,y,1/2-z
-x,-y,-z
x,-y,1/2+z
1/2+x,1/2+y,z
1/2-x,1/2+y,1/2-z
1/2-x,1/2-y,-z
1/2+x,1/2-y,1/2+z
loop_
_atom_site_type_symbol
_atom_site_label
_atom_site_fract_x
_atom_site_fract_y
_atom_site_fract_z
Si Si1 0.911346 0.909512 0.012726
Si Si2 0.106162 0.723397 0.165053
Si Si3 0.134879 0.633516 0.737928
Si Si4 0.891462 0.583238 0.406767
Si Si5 0.429603 0.551255 0.089437
Si Si6 0.244338 0.880174 0.326896
Si Si7 0.685883 0.101581 0.260935
Si Si8 0.389546 0.280701 0.931734
O O1 0.951456 0.798924 0.996559
O O2 0.652793 0.924959 0.964099
O O3 0.994878 0.944360 0.078525
O O4 0.000000 0.000000 0.000000
O O5 0.123604 0.839028 0.189340
O O6 0.159567 0.694735 0.127649
O O7 0.250820 0.664276 0.232758
O O8 0.862871 0.678124 0.121104
O O9 0.115196 0.664242 0.683412
O O10 0.092669 0.510261 0.726688
O O11 0.000000 0.673965 0.750000
O O12 0.791929 0.558743 0.431808
O O13 0.792781 0.498748 0.351393
O O14 0.612248 0.578821 0.164461
O O15 0.445767 0.644702 0.058002
O O16 0.341825 0.819087 0.390852
O O17 0.000000 0.879914 0.250000
O O18 0.500000 0.155865 0.250000
#
# Coordination Sequence:
#
# PCOD9289794 Si02
#       8
#     8   8   8   8   8   8   8   8
#     4   9  22  46  68  91 123 182 227 264 325 402
#     4  11  22  40  58  91 132 170 212 256 336 400
#     4  11  25  36  57  92 136 166 214 264 320 400
#     4  11  25  40  69  94 133 166 221 281 334 381
#     4  11  22  39  69  95 126 168 225 275 318 384
#     4  12  23  42  61 101 137 171 209 275 339 400
#     4  11  22  39  62  95 128 176 212 262 336 401
#     4  10  22  40  68  88 129 178 212 257 327 401
#
# _framework density 26.698297
#
# number of rings (size 3 to 8) (size 9 to 14) (size 15 to 20)
#    0.000    1.250    3.750    1.875    3.500    0.000 
#    0.000    3.125    2.750    0.000    0.000    0.000 
#    0.000    0.000    0.000    0.000    0.000    0.000 
#
# Total GULP energy -178491.758968 kJ/mol
# GULP energy per Si atom -5577.867468 kJ/mol
# Density = 2.663753 g / cm^3
# Si number density = 26.698297 Si / 1000 Ang^3
#
#
#
# Elastic Constant Matrix: (Units=GPa)
#
#
# Indices 1 2 3 4 5 6 
#
# 1 141.8110 6.5821 19.6332 0.0000 -28.2020 0.0000
# 2 6.5821 61.3003 8.7970 0.0000 -17.9402 0.0000
# 3 19.6332 8.7970 66.8924 0.0000 -28.7981 -0.0001
# 4 0.0000 0.0000 0.0000 28.1913 0.0000 -9.3536
# 5 -28.2020 -17.9402 -28.7981 0.0000 41.0613 0.0000
# 6 0.0000 0.0000 -0.0001 -9.3536 0.0000 -3.9096
#
#
#
# Elastic Compliance Matrix: (Units=1/GPa)
#
#
# Indices 1 2 3 4 5 6 
#
# 1 0.008209 0.000888 0.000098 0.000000 0.006095 0.000000
# 2 0.000888 0.018909 0.001536 0.000000 0.009949 0.000000
# 3 0.000098 0.001536 0.021540 0.000000 0.015845 0.000000
# 4 0.000000 0.000000 0.000000 0.019775 0.000000 -0.047311
# 5 0.006095 0.009949 0.015845 0.000000 0.043999 0.000000
# 6 0.000000 0.000000 0.000000 -0.047311 0.000000 -0.142592
#
#
# Mechanical properties :
#
#
# Convention : Reuss Voigt Hill
#
# Bulk Modulus (GPa) = 18.62154 37.78094 28.20124
# Shear Modulus (GPa) = -288.98253 28.73470 -130.12392
#
# Velocity S-wave (km/s) = -10.41514 3.28422 -6.98888
# Velocity P-wave (km/s) = 11.73215 5.34446 7.38513
#
# Compressibility (1/GPa) = 0.05370125
#
# Stress axis : x y z
#
# Youngs Moduli (GPa) = 121.81838 52.88502 46.42450
#
# Poissons Ratio (x) = -0.04697 -0.00454
# Poissons Ratio (y) = -0.10820 -0.07129
# Poissons Ratio (z) = -0.01190 -0.08121
#
# Static dielectric constant tensor:
#      x y z
#    x 2.330050 0.000000 0.086020 
#    y 0.000000 2.280570 0.000000 
#    z 0.086020 0.000000 2.134740 
# 
# From -- ./inp_files/308289.got.cif
#   From: 2010.05.17/outbox.cif.g08.bks.cpg/sg15_155_cif.got.tgz:308289.got - 2010.06.03 18:47:42.
