data_PCOD9289523
_publ_section_title
;
Structure prediction by ZEFSAII (Michael W. Deem and Ramdas Pophale) SiO2 
 PCOD9289523
Probable space group: C 2/C
;
_chemical_formula_sum "Si O2"
_cell_formula_units_Z 52
_cell_length_a 12.025640
_cell_length_b 27.107978
_cell_length_c 9.602747
_cell_angle_alpha 90.000000
_cell_angle_beta 37.964394
_cell_angle_gamma 90.000000
_cell_volume 1925.737668
_symmetry_space_group_name_H-M "C 2/C"
_symmetry_group_IT_number 15
_symmetry_cell_setting 'monoclinic'
loop_
_space_group_symop_operation_xyz
x,y,z
-x,y,1/2-z
-x,-y,-z
x,-y,1/2+z
1/2+x,1/2+y,z
1/2-x,1/2+y,1/2-z
1/2-x,1/2-y,-z
1/2+x,1/2-y,1/2+z
loop_
_atom_site_type_symbol
_atom_site_label
_atom_site_fract_x
_atom_site_fract_y
_atom_site_fract_z
Si Si1 0.728333 0.638818 0.902992
Si Si2 0.764491 0.100584 0.113587
Si Si3 0.818970 0.820485 0.759701
Si Si4 0.174449 0.938421 0.229972
Si Si5 0.000000 0.781863 0.250000
Si Si6 0.289792 0.217583 0.673642
Si Si7 0.886935 0.532412 0.004973
O O1 0.721914 0.585749 0.834709
O O2 0.868246 0.672571 0.682388
O O3 0.756122 0.646998 0.037820
O O4 0.536781 0.668666 0.064758
O O5 0.777960 0.156897 0.148270
O O6 0.659260 0.076682 0.346065
O O7 0.713227 0.088290 0.005793
O O8 0.964885 0.076278 0.925142
O O9 0.756266 0.763523 0.815120
O O10 0.211811 0.996196 0.162414
O O11 0.149864 0.806368 0.199354
O O12 0.921968 0.744921 0.440958
O O13 0.000000 0.540037 0.750000
O O14 0.000000 0.500000 0.000000
#
# Coordination Sequence:
#
# PCOD9289523 Si02
#       7
#     8   8   8   8   4   8   8
#     4  10  22  40  65  94 131 169 216 269 317 382
#     4  10  23  43  69  95 126 173 224 265 311 399
#     4  10  22  40  65  95 128 170 217 268 318 380
#     4  10  23  43  69  96 124 173 225 261 317 394
#     4  10  24  34  64  90 122 174 214 266 318 378
#     4  11  21  42  60  94 129 173 215 268 322 377
#     4  12  25  46  66  96 138 168 205 272 342 390
#
# _framework density 27.00264
#
# number of rings (size 3 to 8) (size 9 to 14) (size 15 to 20)
#    0.000    1.538    3.077    0.923    6.462    0.000 
#    4.154    0.000    0.000    0.000    0.000    0.000 
#    0.000    0.000    0.000    0.000    0.000    0.000 
#
# Total GULP energy -145013.808711 kJ/mol
# GULP energy per Si atom -5577.454181 kJ/mol
# Density = 2.694118 g / cm^3
# Si number density = 27.002640 Si / 1000 Ang^3
#
#
#
# Elastic Constant Matrix: (Units=GPa)
#
#
# Indices 1 2 3 4 5 6 
#
# 1 94.0292 18.9880 41.2553 0.0000 33.2107 0.0000
# 2 18.9880 83.1543 26.1787 0.0000 2.7506 0.0000
# 3 41.2553 26.1787 146.8216 0.0000 42.0736 0.0000
# 4 0.0000 0.0000 0.0000 24.7115 0.0000 41.4637
# 5 33.2107 2.7506 42.0736 0.0000 48.4977 0.0000
# 6 0.0000 0.0000 0.0000 41.4637 0.0000 -30.6229
#
#
#
# Elastic Compliance Matrix: (Units=1/GPa)
#
#
# Indices 1 2 3 4 5 6 
#
# 1 0.014878 -0.002755 -0.001084 0.000000 -0.009092 0.000000
# 2 -0.002755 0.013353 -0.002569 0.000000 0.003358 0.000000
# 3 -0.001084 -0.002569 0.009741 0.000000 -0.007562 0.000000
# 4 0.000000 0.000000 0.000000 0.012368 0.000000 0.016746
# 5 -0.009092 0.003358 -0.007562 0.000000 0.033216 0.000000
# 6 0.000000 0.000000 0.000000 0.016746 0.000000 -0.009981
#
#
# Mechanical properties :
#
#
# Convention : Reuss Voigt Hill
#
# Bulk Modulus (GPa) = 39.75340 55.20546 47.47943
# Shear Modulus (GPa) = 52.75581 24.35616 38.55599
#
# Velocity S-wave (km/s) = 4.42489 3.00658 3.78280
# Velocity P-wave (km/s) = 6.39220 5.70452 6.05813
#
# Compressibility (1/GPa) = 0.02515508
#
# Stress axis : x y z
#
# Youngs Moduli (GPa) = 67.21262 74.89139 102.66166
#
# Poissons Ratio (x) = 0.20635 0.11128
# Poissons Ratio (y) = 0.18520 0.26373
# Poissons Ratio (z) = 0.07286 0.19239
#
# Static dielectric constant tensor:
#      x y z
#    x 1.040720 0.000000 -0.333040 
#    y 0.000000 2.379330 0.000000 
#    z -0.333040 0.000000 2.251810 
# 
# From -- ./inp_files/44769.got.cif
#   From: 2010.05.17/outbox.cif.g08.bks.cpg/sg15_23_cif.got.tgz:44769.got - 2010.06.03 18:47:42.
