data_PCOD9289589
_publ_section_title
;
Structure prediction by ZEFSAII (Michael W. Deem and Ramdas Pophale) SiO2 
 PCOD9289589
Probable space group: C 2/C
;
_chemical_formula_sum "Si O2"
_cell_formula_units_Z 32
_cell_length_a 28.563957
_cell_length_b 5.207957
_cell_length_c 8.895985
_cell_angle_alpha 90.000000
_cell_angle_beta 61.853122
_cell_angle_gamma 90.000000
_cell_volume 1166.865868
_symmetry_space_group_name_H-M "C 2/C"
_symmetry_group_IT_number 15
_symmetry_cell_setting 'monoclinic'
loop_
_space_group_symop_operation_xyz
x,y,z
-x,y,1/2-z
-x,-y,-z
x,-y,1/2+z
1/2+x,1/2+y,z
1/2-x,1/2+y,1/2-z
1/2-x,1/2-y,-z
1/2+x,1/2-y,1/2+z
loop_
_atom_site_type_symbol
_atom_site_label
_atom_site_fract_x
_atom_site_fract_y
_atom_site_fract_z
Si Si1 0.300273 0.978912 0.803306
Si Si2 0.896102 0.724134 0.808135
Si Si3 0.814625 0.977233 0.580231
Si Si4 0.462856 0.868070 0.930877
O O1 0.345910 0.036560 0.853575
O O2 0.238366 0.991333 0.942522
O O3 0.307795 0.217527 0.679999
O O4 0.311427 0.717051 0.698809
O O5 0.932458 0.583520 0.877264
O O6 0.923770 0.775844 0.605336
O O7 0.869166 0.981284 0.910100
O O8 0.500000 0.726566 0.750000
O O9 0.500000 0.000000 0.000000
#
# Coordination Sequence:
#
# PCOD9289589 Si02
#       4
#     8   8   8   8
#     4  10  22  40  66 105 146 184 232 277 343 423
#     4  11  19  40  68 101 139 183 233 285 360 405
#     4  10  22  40  66 105 145 186 229 281 339 425
#     4   9  20  38  70 103 134 180 238 300 349 412
#
# _framework density 27.423888000000002
#
# number of rings (size 3 to 8) (size 9 to 14) (size 15 to 20)
#    0.000    2.000    2.500    0.750    0.000    2.000 
#    0.000    7.500    0.000   19.500    0.000    0.000 
#    0.000    0.000    0.000    0.000    0.000    0.000 
#
# Total GULP energy -89706.189181 kJ/mol
# GULP energy per Si atom -5606.636824 kJ/mol
# Density = 2.736147 g / cm^3
# Si number density = 27.423888 Si / 1000 Ang^3
#
#
#
# Elastic Constant Matrix: (Units=GPa)
#
#
# Indices 1 2 3 4 5 6 
#
# 1 175.3041 15.6878 56.0987 0.0000 24.8370 0.0000
# 2 15.6878 138.8127 60.6554 0.0000 15.0556 0.0000
# 3 56.0987 60.6554 252.9605 0.0000 -24.9792 0.0000
# 4 0.0000 0.0000 0.0000 47.5183 0.0000 5.9056
# 5 24.8370 15.0556 -24.9792 0.0000 56.5340 0.0000
# 6 0.0000 0.0000 0.0000 5.9056 0.0000 26.2142
#
#
#
# Elastic Compliance Matrix: (Units=1/GPa)
#
#
# Indices 1 2 3 4 5 6 
#
# 1 0.006896 0.000570 -0.002070 0.000000 -0.004096 0.000000
# 2 0.000570 0.008662 -0.002568 0.000000 -0.003692 0.000000
# 3 -0.002070 -0.002568 0.005422 0.000000 0.003989 0.000000
# 4 0.000000 0.000000 0.000000 0.021651 0.000000 -0.004877
# 5 -0.004096 -0.003692 0.003989 0.000000 0.022234 0.000000
# 6 0.000000 0.000000 0.000000 -0.004877 0.000000 0.039246
#
#
# Mechanical properties :
#
#
# Convention : Reuss Voigt Hill
#
# Bulk Modulus (GPa) = 77.86401 92.44013 85.15207
# Shear Modulus (GPa) = 42.90769 55.02899 48.96834
#
# Velocity S-wave (km/s) = 3.95981 4.48438 4.23023
# Velocity P-wave (km/s) = 7.02575 7.78421 7.41468
#
# Compressibility (1/GPa) = 0.01284290
#
# Stress axis : x y z
#
# Youngs Moduli (GPa) = 145.00485 115.44651 184.43400
#
# Poissons Ratio (x) = -0.06576 0.38186
# Poissons Ratio (y) = -0.08260 0.47360
# Poissons Ratio (z) = 0.30023 0.29645
#
# Static dielectric constant tensor:
#      x y z
#    x 2.241330 0.000000 -0.036660 
#    y 0.000000 2.100470 0.000000 
#    z -0.036660 0.000000 2.159620 
# 
# From -- ./inp_files/67986.got.cif
#   From: 2010.05.17/outbox.cif.g08.bks.cpg/sg15_34_cif.got.tgz:67986.got - 2010.06.03 18:47:42.
