data_PCOD9289317
_publ_section_title
;
Structure prediction by ZEFSAII (Michael W. Deem and Ramdas Pophale) SiO2 
 PCOD9289317
Probable space group: C 2/C
;
_chemical_formula_sum "Si O2"
_cell_formula_units_Z 36
_cell_length_a 11.487420
_cell_length_b 21.120415
_cell_length_c 15.502335
_cell_angle_alpha 90.000000
_cell_angle_beta 151.191394
_cell_angle_gamma 90.000000
_cell_volume 1812.448757
_symmetry_space_group_name_H-M "C 2/C"
_symmetry_group_IT_number 15
_symmetry_cell_setting 'monoclinic'
loop_
_space_group_symop_operation_xyz
x,y,z
-x,y,1/2-z
-x,-y,-z
x,-y,1/2+z
1/2+x,1/2+y,z
1/2-x,1/2+y,1/2-z
1/2-x,1/2-y,-z
1/2+x,1/2-y,1/2+z
loop_
_atom_site_type_symbol
_atom_site_label
_atom_site_fract_x
_atom_site_fract_y
_atom_site_fract_z
Si Si1 0.287650 0.302198 0.177031
Si Si2 0.000000 0.957901 0.750000
Si Si3 0.879012 0.161303 0.460019
Si Si4 0.160144 0.610714 0.152928
Si Si5 0.830377 0.457160 0.569779
O O1 0.500000 0.325164 0.250000
O O2 0.260978 0.227668 0.141255
O O3 0.377459 0.320303 0.331102
O O4 0.031917 0.334180 0.991356
O O5 0.212438 0.915911 0.848399
O O6 0.895584 0.002513 0.607159
O O7 0.863733 0.132263 0.354335
O O8 0.752546 0.108329 0.438285
O O9 0.995349 0.558897 0.094657
O O10 0.000000 0.490914 0.750000
#
# Coordination Sequence:
#
# PCOD9289317 Si02
#       5
#     8   4   8   8   8
#     4  12  20  36  67 100 130 152 198 274 328 364
#     4  12  26  44  62  86 134 178 214 244 296 386
#     4  11  22  37  68 101 126 154 206 268 328 364
#     4  11  24  41  62  96 126 169 210 252 315 375
#     4  10  22  40  63  94 123 159 212 268 315 358
#
# _framework density 19.862631
#
# number of rings (size 3 to 8) (size 9 to 14) (size 15 to 20)
#    0.000    0.889    4.444    4.667    0.000    5.333 
#    0.000    1.111    0.000    0.000    0.000    0.000 
#    0.000    0.000    0.000    0.000    0.000    0.000 
#
# Total GULP energy -100458.141760 kJ/mol
# GULP energy per Si atom -5581.007876 kJ/mol
# Density = 1.981742 g / cm^3
# Si number density = 19.862631 Si / 1000 Ang^3
#
#
#
# Elastic Constant Matrix: (Units=GPa)
#
#
# Indices 1 2 3 4 5 6 
#
# 1 50.8741 34.5088 4.7298 0.0042 7.3277 -0.0032
# 2 34.5088 73.2943 34.9376 0.0031 3.2898 -0.0008
# 3 4.7298 34.9376 113.7113 0.0064 -22.0802 -0.0044
# 4 0.0042 0.0031 0.0064 16.4117 0.0020 -3.9070
# 5 7.3277 3.2898 -22.0802 0.0020 20.8812 -0.0023
# 6 -0.0032 -0.0008 -0.0044 -3.9070 -0.0023 5.3417
#
#
#
# Elastic Compliance Matrix: (Units=1/GPa)
#
#
# Indices 1 2 3 4 5 6 
#
# 1 0.030637 -0.015225 0.002242 -0.000002 -0.005982 0.000014
# 2 -0.015225 0.025282 -0.008646 0.000000 -0.007783 -0.000016
# 3 0.002242 -0.008646 0.014433 -0.000002 0.015837 0.000017
# 4 -0.000002 0.000000 -0.000002 0.073778 -0.000003 0.053962
# 5 -0.005982 -0.007783 0.015837 -0.000003 0.067962 0.000035
# 6 0.000014 -0.000016 0.000017 0.053962 0.000035 0.226673
#
#
# Mechanical properties :
#
#
# Convention : Reuss Voigt Hill
#
# Bulk Modulus (GPa) = 36.90840 42.91468 39.91154
# Shear Modulus (GPa) = 10.18219 19.44050 14.81135
#
# Velocity S-wave (km/s) = 2.26659 3.13189 2.73369
# Velocity P-wave (km/s) = 5.04699 5.89330 5.48648
#
# Compressibility (1/GPa) = 0.02709410
#
# Stress axis : x y z
#
# Youngs Moduli (GPa) = 32.64064 39.55314 69.28772
#
# Poissons Ratio (x) = 0.60218 -0.15533
# Poissons Ratio (y) = 0.49694 0.59906
# Poissons Ratio (z) = -0.07318 0.34198
#
# Static dielectric constant tensor:
#      x y z
#    x 1.672440 0.000000 -0.030710 
#    y 0.000000 1.705060 0.000000 
#    z -0.030710 0.000000 1.733170 
# 
# From -- ./inp_files/28945.got.cif
#   From: 2010.05.17/outbox.cif.g08.bks.cpg/sg15_15_cif.got.tgz:28945.got - 2010.06.03 18:47:42.
