data_PCOD9289677
_publ_section_title
;
Structure prediction by ZEFSAII (Michael W. Deem and Ramdas Pophale) SiO2 
 PCOD9289677
Probable space group: C 2/C
;
_chemical_formula_sum "Si O2"
_cell_formula_units_Z 48
_cell_length_a 13.879633
_cell_length_b 15.814008
_cell_length_c 12.634203
_cell_angle_alpha 90.000000
_cell_angle_beta 59.822153
_cell_angle_gamma 90.000000
_cell_volume 2397.272069
_symmetry_space_group_name_H-M "C 2/C"
_symmetry_group_IT_number 15
_symmetry_cell_setting 'monoclinic'
loop_
_space_group_symop_operation_xyz
x,y,z
-x,y,1/2-z
-x,-y,-z
x,-y,1/2+z
1/2+x,1/2+y,z
1/2-x,1/2+y,1/2-z
1/2-x,1/2-y,-z
1/2+x,1/2-y,1/2+z
loop_
_atom_site_type_symbol
_atom_site_label
_atom_site_fract_x
_atom_site_fract_y
_atom_site_fract_z
Si Si1 0.134483 0.894344 0.360729
Si Si2 0.729870 0.651347 0.030327
Si Si3 0.278102 0.145207 0.592353
Si Si4 0.899908 0.193708 0.982945
Si Si5 0.681266 0.581380 0.278636
Si Si6 0.623331 0.031106 0.448946
O O1 0.167782 0.888814 0.464697
O O2 0.235366 0.856009 0.236137
O O3 0.024546 0.839349 0.401603
O O4 0.120277 0.991549 0.330453
O O5 0.662964 0.626572 0.174975
O O6 0.849651 0.606931 0.986100
O O7 0.750000 0.750000 0.000000
O O8 0.174696 0.174354 0.578236
O O9 0.381328 0.207614 0.517464
O O10 0.308733 0.049830 0.546560
O O11 0.847354 0.142486 0.110226
O O12 0.812960 0.558199 0.194444
O O13 0.500000 0.000000 0.500000
#
# Coordination Sequence:
#
# PCOD9289677 Si02
#       6
#     8   8   8   8   8   8
#     4  11  22  41  65  90 138 173 214 290 346 393
#     4  10  22  40  66  98 134 169 234 281 330 422
#     4  10  23  40  60  97 126 164 231 267 334 417
#     4  11  22  39  66  89 128 176 217 278 335 405
#     4   9  22  39  62  97 130 167 228 273 337 416
#     4   9  21  41  64  87 131 170 206 277 337 396
#
# _framework density 20.022759000000001
#
# number of rings (size 3 to 8) (size 9 to 14) (size 15 to 20)
#    1.000    1.000    0.000    3.000    2.333    0.667 
#    6.000    9.167    0.000    0.000    0.000    0.000 
#    0.000    0.000    0.000    0.000    0.000    0.000 
#
# Total GULP energy -133783.855661 kJ/mol
# GULP energy per Si atom -5574.327319 kJ/mol
# Density = 1.997719 g / cm^3
# Si number density = 20.022759 Si / 1000 Ang^3
#
#
#
# Elastic Constant Matrix: (Units=GPa)
#
#
# Indices 1 2 3 4 5 6 
#
# 1 55.7170 17.8296 7.6107 0.0000 -8.0648 0.0000
# 2 17.8296 123.7380 29.9048 0.0000 -2.4806 0.0000
# 3 7.6107 29.9048 60.8797 0.0000 11.5121 0.0000
# 4 0.0000 0.0000 0.0000 37.2137 0.0000 0.0822
# 5 -8.0648 -2.4806 11.5121 0.0000 27.9074 0.0000
# 6 0.0000 0.0000 0.0000 0.0822 0.0000 29.1553
#
#
#
# Elastic Compliance Matrix: (Units=1/GPa)
#
#
# Indices 1 2 3 4 5 6 
#
# 1 0.019960 -0.002078 -0.002744 0.000000 0.006715 0.000000
# 2 -0.002078 0.009608 -0.004889 0.000000 0.002270 0.000000
# 3 -0.002744 -0.004889 0.021044 0.000000 -0.009909 0.000000
# 4 0.000000 0.000000 0.000000 0.026872 0.000000 -0.000076
# 5 0.006715 0.002270 -0.009909 0.000000 0.042063 0.000000
# 6 0.000000 0.000000 0.000000 -0.000076 0.000000 0.034299
#
#
# Mechanical properties :
#
#
# Convention : Reuss Voigt Hill
#
# Bulk Modulus (GPa) = 32.06265 39.00278 35.53271
# Shear Modulus (GPa) = 27.22341 31.18793 29.20567
#
# Velocity S-wave (km/s) = 3.69131 3.95096 3.82334
# Velocity P-wave (km/s) = 5.84940 6.35098 6.10534
#
# Compressibility (1/GPa) = 0.03118894
#
# Stress axis : x y z
#
# Youngs Moduli (GPa) = 50.10089 104.07821 47.51901
#
# Poissons Ratio (x) = 0.21629 0.13040
# Poissons Ratio (y) = 0.10412 0.23233
# Poissons Ratio (z) = 0.13749 0.50885
#
# Static dielectric constant tensor:
#      x y z
#    x 1.690650 0.000000 -0.007740 
#    y 0.000000 4.391240 0.000000 
#    z -0.007740 0.000000 1.715800 
# 
# From -- ./inp_files/144082.got.cif
#   From: 2010.05.17/outbox.cif.g08.bks.cpg/sg15_73_cif.got.tgz:144082.got - 2010.06.03 18:47:42.
