data_PCOD9289974
_publ_section_title
;
Structure prediction by ZEFSAII (Michael W. Deem and Ramdas Pophale) SiO2 
 PCOD9289974
Probable space group: C 2/C
;
_chemical_formula_sum "Si O2"
_cell_formula_units_Z 48
_cell_length_a 23.911931
_cell_length_b 11.010674
_cell_length_c 12.883704
_cell_angle_alpha 90.000000
_cell_angle_beta 140.949043
_cell_angle_gamma 90.000000
_cell_volume 2137.064539
_symmetry_space_group_name_H-M "C 2/C"
_symmetry_group_IT_number 15
_symmetry_cell_setting 'monoclinic'
loop_
_space_group_symop_operation_xyz
x,y,z
-x,y,1/2-z
-x,-y,-z
x,-y,1/2+z
1/2+x,1/2+y,z
1/2-x,1/2+y,1/2-z
1/2-x,1/2-y,-z
1/2+x,1/2-y,1/2+z
loop_
_atom_site_type_symbol
_atom_site_label
_atom_site_fract_x
_atom_site_fract_y
_atom_site_fract_z
Si Si1 0.803930 0.348005 0.147642
Si Si2 0.104616 0.139428 0.114343
Si Si3 0.236016 0.071524 0.760745
Si Si4 0.655470 0.715137 0.819971
Si Si5 0.538011 0.511055 0.707322
Si Si6 0.598472 0.947011 0.847286
O O1 0.870725 0.272519 0.316996
O O2 0.742542 0.409668 0.147109
O O3 0.856742 0.442938 0.152860
O O4 0.750000 0.250000 0.000000
O O5 0.192040 0.059057 0.220410
O O6 0.053435 0.081640 0.137918
O O7 0.038217 0.111081 0.925915
O O8 0.171438 0.170804 0.724421
O O9 0.330446 0.078051 0.957001
O O10 0.624517 0.593713 0.834342
O O11 0.596338 0.830409 0.766265
O O12 0.750000 0.750000 0.000000
O O13 0.500000 0.441931 0.750000
O O14 0.500000 0.970362 0.750000
#
# Coordination Sequence:
#
# PCOD9289974 Si02
#       6
#     8   8   8   8   8   8
#     4  12  27  45  70  97 142 178 229 280 348 412
#     4  10  24  44  63 104 126 177 232 275 344 395
#     4  10  24  45  71  97 135 184 229 284 336 413
#     4   9  21  40  69 101 131 173 227 272 339 405
#     4  10  22  40  71  95 132 171 225 284 327 403
#     4  11  25  45  68 105 139 181 226 285 351 414
#
# _framework density 22.460715
#
# number of rings (size 3 to 8) (size 9 to 14) (size 15 to 20)
#    0.000    1.667    1.667    0.500   11.667    1.333 
#    6.000    0.000    0.000    0.000    0.000    0.000 
#    0.000    0.000    0.000    0.000    0.000    0.000 
#
# Total GULP energy -133976.830345 kJ/mol
# GULP energy per Si atom -5582.367931 kJ/mol
# Density = 2.240959 g / cm^3
# Si number density = 22.460715 Si / 1000 Ang^3
#
#
#
# Elastic Constant Matrix: (Units=GPa)
#
#
# Indices 1 2 3 4 5 6 
#
# 1 191.3906 49.7201 39.7576 0.0000 -19.3692 0.0000
# 2 49.7201 77.7622 12.4359 0.0000 -12.0463 0.0000
# 3 39.7576 12.4359 49.1528 0.0000 1.9687 0.0000
# 4 0.0000 0.0000 0.0000 26.9537 0.0000 5.7767
# 5 -19.3692 -12.0463 1.9687 0.0000 28.8703 0.0000
# 6 0.0000 0.0000 0.0000 5.7767 0.0000 20.4446
#
#
#
# Elastic Compliance Matrix: (Units=1/GPa)
#
#
# Indices 1 2 3 4 5 6 
#
# 1 0.007663 -0.003383 -0.005507 0.000000 0.004105 0.000000
# 2 -0.003383 0.015955 -0.001480 0.000000 0.004488 0.000000
# 3 -0.005507 -0.001480 0.025416 0.000000 -0.006045 0.000000
# 4 0.000000 0.000000 0.000000 0.039492 0.000000 -0.011159
# 5 0.004105 0.004488 -0.006045 0.000000 0.039677 0.000000
# 6 0.000000 0.000000 0.000000 -0.011159 0.000000 0.052066
#
#
# Mechanical properties :
#
#
# Convention : Reuss Voigt Hill
#
# Bulk Modulus (GPa) = 35.34366 58.01474 46.67920
# Shear Modulus (GPa) = 23.75980 29.67987 26.71983
#
# Velocity S-wave (km/s) = 3.25597 3.63907 3.45284
# Velocity P-wave (km/s) = 5.46855 6.59868 6.06002
#
# Compressibility (1/GPa) = 0.02829362
#
# Stress axis : x y z
#
# Youngs Moduli (GPa) = 130.49378 62.67696 39.34593
#
# Poissons Ratio (x) = 0.21204 0.21667
# Poissons Ratio (y) = 0.44148 0.05823
# Poissons Ratio (z) = 0.71862 0.09276
#
# Static dielectric constant tensor:
#      x y z
#    x 1.977280 0.000000 0.057580 
#    y 0.000000 1.835850 0.000000 
#    z 0.057580 0.000000 1.927090 
# 
# From -- ./inp_files/111819.got.cif
#   From: 2010.05.17/outbox.cif.g08.bks.cpg/sg15_56_cif.got.tgz:111819.got - 2010.06.03 18:47:42.
