data_PCOD9289167
_publ_section_title
;
Structure prediction by ZEFSAII (Michael W. Deem and Ramdas Pophale) SiO2 
 PCOD9289167
Probable space group: C 2/C
;
_chemical_formula_sum "Si O2"
_cell_formula_units_Z 40
_cell_length_a 22.393430
_cell_length_b 12.109910
_cell_length_c 17.569250
_cell_angle_alpha 90.000000
_cell_angle_beta 19.655753
_cell_angle_gamma 90.000000
_cell_volume 1602.616324
_symmetry_space_group_name_H-M "C 2/C"
_symmetry_group_IT_number 15
_symmetry_cell_setting 'monoclinic'
loop_
_space_group_symop_operation_xyz
x,y,z
-x,y,1/2-z
-x,-y,-z
x,-y,1/2+z
1/2+x,1/2+y,z
1/2-x,1/2+y,1/2-z
1/2-x,1/2-y,-z
1/2+x,1/2-y,1/2+z
loop_
_atom_site_type_symbol
_atom_site_label
_atom_site_fract_x
_atom_site_fract_y
_atom_site_fract_z
Si Si1 0.749211 0.947502 0.936421
Si Si2 0.641444 0.615315 0.976363
Si Si3 0.738265 0.117008 0.212837
Si Si4 0.619302 0.346188 0.322973
Si Si5 0.039137 0.597214 0.823935
O O1 0.794536 0.053041 0.828054
O O2 0.932037 0.889639 0.743314
O O3 0.621180 0.868516 0.040055
O O4 0.638666 0.982406 0.143784
O O5 0.703240 0.487359 0.905692
O O6 0.654737 0.644388 0.870845
O O7 0.795388 0.667559 0.843308
O O8 0.686390 0.223111 0.225315
O O9 0.576311 0.080506 0.461440
O O10 0.910490 0.145043 0.057042
#
# Coordination Sequence:
#
# PCOD9289167 Si02
#       5
#     8   8   8   8   8
#     4  10  22  40  61  92 133 167 213 272 328 377
#     4  11  21  41  64  91 126 178 223 268 317 400
#     4  11  22  38  66  97 126 171 227 266 318 396
#     4  11  22  40  65  97 132 169 224 272 317 397
#     4  11  21  38  67  89 128 174 214 264 337 374
#
# _framework density 24.959187
#
# number of rings (size 3 to 8) (size 9 to 14) (size 15 to 20)
#    0.000    1.200    4.000    3.600    2.800    0.000 
#    0.000    2.000    8.800    0.000    0.000    0.000 
#    0.000    0.000    0.000    0.000    0.000    0.000 
#
# Total GULP energy -111484.622358 kJ/mol
# GULP energy per Si atom -5574.231118 kJ/mol
# Density = 2.490238 g / cm^3
# Si number density = 24.959187 Si / 1000 Ang^3
#
#
#
# Elastic Constant Matrix: (Units=GPa)
#
#
# Indices 1 2 3 4 5 6 
#
# 1 141.3767 29.5425 69.0103 0.0001 -31.3275 -0.0002
# 2 29.5425 85.6590 38.0972 0.0002 -11.1438 -0.0001
# 3 69.0103 38.0972 166.9091 0.0002 -42.0180 0.0003
# 4 0.0001 0.0002 0.0002 13.3936 -0.0001 -22.9107
# 5 -31.3275 -11.1438 -42.0180 -0.0001 28.4537 0.0001
# 6 -0.0002 -0.0001 0.0003 -22.9107 0.0001 17.5380
#
#
#
# Elastic Compliance Matrix: (Units=1/GPa)
#
#
# Indices 1 2 3 4 5 6 
#
# 1 0.010011 -0.001639 -0.001834 0.000000 0.007673 0.000000
# 2 -0.001639 0.013284 -0.002386 0.000000 -0.000125 0.000000
# 3 -0.001834 -0.002386 0.010427 0.000000 0.012444 0.000000
# 4 0.000000 0.000000 0.000000 -0.060475 0.000001 -0.079002
# 5 0.007673 -0.000125 0.012444 0.000001 0.061919 0.000000
# 6 0.000000 0.000000 0.000000 -0.079002 0.000000 -0.046185
#
#
# Mechanical properties :
#
#
# Convention : Reuss Voigt Hill
#
# Bulk Modulus (GPa) = 45.44454 74.13831 59.79142
# Shear Modulus (GPa) = 622.38227 29.03005 325.70616
#
# Velocity S-wave (km/s) = 15.80827 3.41413 11.43586
# Velocity P-wave (km/s) = 18.74697 6.73127 14.08472
#
# Compressibility (1/GPa) = 0.02200485
#
# Stress axis : x y z
#
# Youngs Moduli (GPa) = 99.89072 75.27641 95.90793
#
# Poissons Ratio (x) = 0.12338 0.17585
# Poissons Ratio (y) = 0.16372 0.22884
# Poissons Ratio (z) = 0.18315 0.17961
#
# Static dielectric constant tensor:
#      x y z
#    x 2.067920 0.000000 -0.072630 
#    y 0.000000 2.056420 0.000000 
#    z -0.072630 0.000000 1.988870 
# 
# From -- ./inp_files/46198.got.cif
#   From: 2010.05.17/outbox.cif.g08.bks.cpg/sg15_24_cif.got.tgz:46198.got - 2010.06.03 18:47:42.
