data_PCOD9289107
_publ_section_title
;
Structure prediction by ZEFSAII (Michael W. Deem and Ramdas Pophale) SiO2 
 PCOD9289107
Probable space group: C 2/C
;
_chemical_formula_sum "Si O2"
_cell_formula_units_Z 40
_cell_length_a 13.311547
_cell_length_b 13.409667
_cell_length_c 13.674270
_cell_angle_alpha 90.000000
_cell_angle_beta 44.110644
_cell_angle_gamma 90.000000
_cell_volume 1698.981838
_symmetry_space_group_name_H-M "C 2/C"
_symmetry_group_IT_number 15
_symmetry_cell_setting 'monoclinic'
loop_
_space_group_symop_operation_xyz
x,y,z
-x,y,1/2-z
-x,-y,-z
x,-y,1/2+z
1/2+x,1/2+y,z
1/2-x,1/2+y,1/2-z
1/2-x,1/2-y,-z
1/2+x,1/2-y,1/2+z
loop_
_atom_site_type_symbol
_atom_site_label
_atom_site_fract_x
_atom_site_fract_y
_atom_site_fract_z
Si Si1 0.382483 0.875999 0.744931
Si Si2 0.888919 0.056804 0.947464
Si Si3 0.782751 0.635505 0.956119
Si Si4 0.331796 0.650310 0.778309
Si Si5 0.066345 0.417717 0.358253
O O1 0.500000 0.887519 0.750000
O O2 0.380263 0.761404 0.716975
O O3 0.419525 0.963077 0.644144
O O4 0.223251 0.903569 0.894879
O O5 0.853292 0.125136 0.877286
O O6 0.056513 0.075404 0.853511
O O7 0.848948 0.943113 0.948759
O O8 0.854685 0.616327 0.799482
O O9 0.901444 0.606949 0.953710
O O10 0.750000 0.750000 0.000000
O O11 0.165961 0.634737 0.868006
#
# Coordination Sequence:
#
# PCOD9289107 Si02
#       5
#     8   8   8   8   8
#     4  11  20  42  65  82 127 168 192 253 316 361
#     4  10  22  40  60  90 123 158 207 251 303 363
#     4  10  22  41  62  80 126 170 199 253 309 363
#     4  11  24  35  65  98 119 154 211 261 295 365
#     4  10  23  41  58  92 121 162 210 245 311 373
#
# _framework density 23.543513000000001
#
# number of rings (size 3 to 8) (size 9 to 14) (size 15 to 20)
#    0.000    1.600    6.000    0.600    0.000   12.000 
#    0.000    0.000    0.000    0.000    0.000    0.000 
#    0.000    0.000    0.000    0.000    0.000    0.000 
#
# Total GULP energy -111886.863866 kJ/mol
# GULP energy per Si atom -5594.343193 kJ/mol
# Density = 2.348993 g / cm^3
# Si number density = 23.543513 Si / 1000 Ang^3
#
#
#
# Elastic Constant Matrix: (Units=GPa)
#
#
# Indices 1 2 3 4 5 6 
#
# 1 63.7108 14.9112 -2.7183 0.0000 -2.5212 0.0000
# 2 14.9112 202.0874 29.0281 0.0000 -11.8390 0.0000
# 3 -2.7183 29.0281 67.6081 0.0000 -17.8939 0.0000
# 4 0.0000 0.0000 0.0000 28.9402 0.0000 -9.6939
# 5 -2.5212 -11.8390 -17.8939 0.0000 22.9615 0.0000
# 6 0.0000 0.0000 0.0000 -9.6939 0.0000 19.5637
#
#
#
# Elastic Compliance Matrix: (Units=1/GPa)
#
#
# Indices 1 2 3 4 5 6 
#
# 1 0.016187 -0.001316 0.001898 0.000000 0.002578 0.000000
# 2 -0.001316 0.005407 -0.002110 0.000000 0.000999 0.000000
# 3 0.001898 -0.002110 0.019579 0.000000 0.014378 0.000000
# 4 0.000000 0.000000 0.000000 0.041431 0.000000 0.020529
# 5 0.002578 0.000999 0.014378 0.000000 0.055554 0.000000
# 6 0.000000 0.000000 0.000000 0.020529 0.000000 0.061287
#
#
# Mechanical properties :
#
#
# Convention : Reuss Voigt Hill
#
# Bulk Modulus (GPa) = 26.23482 46.20536 36.22009
# Shear Modulus (GPa) = 23.23347 33.77210 28.50278
#
# Velocity S-wave (km/s) = 3.14479 3.79153 3.48320
# Velocity P-wave (km/s) = 4.93494 6.23183 5.62091
#
# Compressibility (1/GPa) = 0.03811728
#
# Stress axis : x y z
#
# Youngs Moduli (GPa) = 61.77823 184.94277 51.07516
#
# Poissons Ratio (x) = 0.24338 -0.09695
# Poissons Ratio (y) = 0.08130 0.10777
# Poissons Ratio (z) = -0.11727 0.39024
#
# Static dielectric constant tensor:
#      x y z
#    x 1.867880 0.000000 0.046190 
#    y 0.000000 1.845690 0.000000 
#    z 0.046190 0.000000 2.015210 
# 
# From -- ./inp_files/94510.got.cif
#   From: 2010.05.17/outbox.cif.g08.bks.cpg/sg15_48_cif.got.tgz:94510.got - 2010.06.03 18:47:42.
