data_PCOD9289092
_publ_section_title
;
Structure prediction by ZEFSAII (Michael W. Deem and Ramdas Pophale) SiO2 
 PCOD9289092
Probable space group: C 2/C
;
_chemical_formula_sum "Si O2"
_cell_formula_units_Z 56
_cell_length_a 24.776528
_cell_length_b 16.352184
_cell_length_c 15.007241
_cell_angle_alpha 90.000000
_cell_angle_beta 26.146477
_cell_angle_gamma 90.000000
_cell_volume 2679.341530
_symmetry_space_group_name_H-M "C 2/C"
_symmetry_group_IT_number 15
_symmetry_cell_setting 'monoclinic'
loop_
_space_group_symop_operation_xyz
x,y,z
-x,y,1/2-z
-x,-y,-z
x,-y,1/2+z
1/2+x,1/2+y,z
1/2-x,1/2+y,1/2-z
1/2-x,1/2-y,-z
1/2+x,1/2-y,1/2+z
loop_
_atom_site_type_symbol
_atom_site_label
_atom_site_fract_x
_atom_site_fract_y
_atom_site_fract_z
Si Si1 0.956112 0.466741 0.220841
Si Si2 0.770164 0.547887 0.388517
Si Si3 0.249924 0.327945 0.932776
Si Si4 0.158257 0.340781 0.866974
Si Si5 0.030152 0.177399 0.004607
Si Si6 0.959550 0.943172 0.144983
Si Si7 0.388950 0.561482 0.475479
O O1 0.902131 0.534572 0.236090
O O2 0.849580 0.397137 0.393776
O O3 0.000000 0.501811 0.250000
O O4 0.073830 0.418982 0.011668
O O5 0.763936 0.626395 0.332724
O O6 0.671743 0.546433 0.614848
O O7 0.734129 0.464221 0.389722
O O8 0.222196 0.315255 0.866928
O O9 0.392281 0.351079 0.732071
O O10 0.250000 0.250000 0.000000
O O11 0.066986 0.268622 0.972364
O O12 0.122999 0.122488 0.925237
O O13 0.038353 0.149445 0.890920
O O14 0.057192 0.974734 0.071089
O O15 0.000000 0.000000 0.000000
O O16 0.500000 0.596017 0.250000
#
# Coordination Sequence:
#
# PCOD9289092 Si02
#       7
#     8   8   8   8   8   8   8
#     4  10  22  40  60  88 122 171 211 258 317 386
#     4  11  22  40  61  87 132 168 204 262 323 385
#     4  11  22  39  63  89 128 158 209 275 323 366
#     4  11  25  38  58  96 126 163 211 260 323 391
#     4  11  22  36  61  90 121 156 209 258 321 386
#     4   9  19  38  60  91 119 157 213 264 308 380
#     4   9  19  33  62  89 113 154 207 260 314 362
#
# _framework density 20.900658
#
# number of rings (size 3 to 8) (size 9 to 14) (size 15 to 20)
#    0.000    1.714    1.429    3.857    4.000    4.000 
#    0.000    1.429    0.000    2.571    0.000    0.000 
#    0.000    0.000    0.000    0.000    0.000    0.000 
#
# Total GULP energy -155869.392385 kJ/mol
# GULP energy per Si atom -5566.764014 kJ/mol
# Density = 2.085309 g / cm^3
# Si number density = 20.900658 Si / 1000 Ang^3
#
#
#
# Elastic Constant Matrix: (Units=GPa)
#
#
# Indices 1 2 3 4 5 6 
#
# 1 108.8216 26.4337 31.5161 0.0000 0.7893 0.0000
# 2 26.4337 27.6025 1.4586 -0.0001 10.7867 0.0000
# 3 31.5161 1.4586 51.5961 0.0000 5.9221 0.0000
# 4 0.0000 -0.0001 0.0000 15.0206 0.0000 9.0479
# 5 0.7893 10.7867 5.9221 0.0000 28.3286 0.0000
# 6 0.0000 0.0000 0.0000 9.0479 0.0000 29.8273
#
#
#
# Elastic Compliance Matrix: (Units=1/GPa)
#
#
# Indices 1 2 3 4 5 6 
#
# 1 0.016925 -0.019192 -0.010840 0.000000 0.009102 0.000000
# 2 -0.019192 0.064348 0.012966 0.000000 -0.026678 0.000000
# 3 -0.010840 0.012966 0.026812 0.000000 -0.010240 0.000000
# 4 0.000000 0.000000 0.000000 0.081460 0.000000 -0.024710
# 5 0.009102 -0.026678 -0.010240 0.000000 0.047345 0.000000
# 6 0.000000 0.000000 0.000000 -0.024710 0.000000 0.041022
#
#
# Mechanical properties :
#
#
# Convention : Reuss Voigt Hill
#
# Bulk Modulus (GPa) = 13.52237 34.09299 23.80768
# Shear Modulus (GPa) = 14.85023 23.20941 19.02982
#
# Velocity S-wave (km/s) = 2.66844 3.33598 3.02070
# Velocity P-wave (km/s) = 3.99725 5.58441 4.85611
#
# Compressibility (1/GPa) = 0.07395155
#
# Stress axis : x y z
#
# Youngs Moduli (GPa) = 59.08493 15.54044 37.29730
#
# Poissons Ratio (x) = 0.29826 0.40431
# Poissons Ratio (y) = 1.13398 -0.48360
# Poissons Ratio (z) = 0.64050 -0.20150
#
# Static dielectric constant tensor:
#      x y z
#    x 1.863670 0.000000 0.061230 
#    y 0.000000 1.773400 0.000000 
#    z 0.061230 0.000000 1.835800 
# 
# From -- ./inp_files/173792.got.cif
#   From: 2010.05.17/outbox.cif.g08.bks.cpg/sg15_87_cif.got.tgz:173792.got - 2010.06.03 18:47:42.
