data_PCOD9289917
_publ_section_title
;
Structure prediction by ZEFSAII (Michael W. Deem and Ramdas Pophale) SiO2 
 PCOD9289917
Probable space group: C 2/C
;
_chemical_formula_sum "Si O2"
_cell_formula_units_Z 44
_cell_length_a 23.474252
_cell_length_b 15.257243
_cell_length_c 16.196754
_cell_angle_alpha 90.000000
_cell_angle_beta 19.422498
_cell_angle_gamma 90.000000
_cell_volume 1928.983762
_symmetry_space_group_name_H-M "C 2/C"
_symmetry_group_IT_number 15
_symmetry_cell_setting 'monoclinic'
loop_
_space_group_symop_operation_xyz
x,y,z
-x,y,1/2-z
-x,-y,-z
x,-y,1/2+z
1/2+x,1/2+y,z
1/2-x,1/2+y,1/2-z
1/2-x,1/2-y,-z
1/2+x,1/2-y,1/2+z
loop_
_atom_site_type_symbol
_atom_site_label
_atom_site_fract_x
_atom_site_fract_y
_atom_site_fract_z
Si Si1 0.724773 0.336033 0.706725
Si Si2 0.751646 0.899026 0.645137
Si Si3 0.545211 0.899026 0.558006
Si Si4 0.500000 0.452089 0.750000
Si Si5 0.000000 0.250000 0.750000
Si Si6 0.587769 0.663968 0.980733
Si Si7 0.500000 0.047910 0.750000
O O1 0.706744 0.392007 0.815270
O O2 0.828628 0.250001 0.592744
O O3 0.837860 0.390660 0.487775
O O4 0.542659 0.314961 0.914683
O O5 0.551844 0.899189 0.896312
O O6 0.840757 0.983297 0.483117
O O7 0.839911 0.813886 0.483346
O O8 0.486422 0.813886 0.690321
O O9 0.749227 0.892005 0.272787
O O10 0.488505 0.983297 0.687621
O O11 0.489131 0.390660 0.685233
#
# Coordination Sequence:
#
# PCOD9289917 Si02
#       7
#     8   8   8   4   4   8   4
#     4  12  27  47  72 104 143 186 235 289 347 415
#     4  11  24  44  72 104 141 183 233 287 347 415
#     4  11  24  44  72 104 141 183 233 287 347 415
#     4  11  27  45  71 106 142 184 235 287 349 413
#     4  10  22  40  70 104 140 180 232 284 342 412
#     4  12  27  47  72 104 143 186 235 289 347 415
#     4  11  27  45  71 106 142 184 235 287 349 413
#
# _framework density 22.809937999999999
#
# number of rings (size 3 to 8) (size 9 to 14) (size 15 to 20)
#    0.000    0.727    1.818    4.364    0.000   17.455 
#    0.000    0.000    0.000    0.000    0.000    0.000 
#    0.000    0.000    0.000    0.000    0.000    0.000 
#
# Total GULP energy -123203.868492 kJ/mol
# GULP energy per Si atom -5600.175841 kJ/mol
# Density = 2.275802 g / cm^3
# Si number density = 22.809938 Si / 1000 Ang^3
#
#
#
# Elastic Constant Matrix: (Units=GPa)
#
#
# Indices 1 2 3 4 5 6 
#
# 1 146.7233 53.6736 83.1300 0.0000 -29.2386 0.0001
# 2 53.6736 112.3470 52.9385 -0.0006 -1.9483 0.0005
# 3 83.1300 52.9385 128.5077 -0.0019 -18.9579 0.0009
# 4 0.0000 -0.0006 -0.0019 35.1875 0.0004 25.0894
# 5 -29.2386 -1.9483 -18.9579 0.0004 53.4635 0.0000
# 6 0.0001 0.0005 0.0009 25.0894 0.0000 25.6998
#
#
#
# Elastic Compliance Matrix: (Units=1/GPa)
#
#
# Indices 1 2 3 4 5 6 
#
# 1 0.012170 -0.002897 -0.006028 -0.000002 0.004413 0.000002
# 2 -0.002897 0.011818 -0.003339 0.000000 -0.002338 0.000000
# 3 -0.006028 -0.003339 0.013245 0.000003 0.001278 -0.000003
# 4 -0.000002 0.000000 0.000003 0.093511 -0.000001 -0.091290
# 5 0.004413 -0.002338 0.001278 -0.000001 0.021486 0.000001
# 6 0.000002 0.000000 -0.000003 -0.091290 0.000001 0.128032
#
#
# Mechanical properties :
#
#
# Convention : Reuss Voigt Hill
#
# Bulk Modulus (GPa) = 78.71330 85.22917 81.97123
# Shear Modulus (GPa) = 16.17987 36.05921 26.11954
#
# Velocity S-wave (km/s) = 2.66622 3.98031 3.38760
# Velocity P-wave (km/s) = 6.63789 7.65310 7.16350
#
# Compressibility (1/GPa) = 0.01270433
#
# Stress axis : x y z
#
# Youngs Moduli (GPa) = 82.16781 84.61663 75.49804
#
# Poissons Ratio (x) = 0.24515 0.45512
# Poissons Ratio (y) = 0.23806 0.25210
# Poissons Ratio (z) = 0.49533 0.28255
#
# Static dielectric constant tensor:
#      x y z
#    x 1.817990 0.000000 0.020380 
#    y 0.000000 1.848590 0.000000 
#    z 0.020380 0.000000 1.825700 
# 
# From -- ./inp_files/219684.got.cif
#   From: 2010.05.17/outbox.cif.g08.bks.cpg/sg15_110_cif.got.tgz:219684.got - 2010.06.03 18:47:42.
