data_PCOD9289236
_publ_section_title
;
Structure prediction by ZEFSAII (Michael W. Deem and Ramdas Pophale) SiO2 
 PCOD9289236
Probable space group: C 2/C
;
_chemical_formula_sum "Si O2"
_cell_formula_units_Z 32
_cell_length_a 18.067968
_cell_length_b 5.241035
_cell_length_c 11.279205
_cell_angle_alpha 90.000000
_cell_angle_beta 92.607659
_cell_angle_gamma 90.000000
_cell_volume 1066.976653
_symmetry_space_group_name_H-M "C 2/C"
_symmetry_group_IT_number 15
_symmetry_cell_setting 'monoclinic'
loop_
_space_group_symop_operation_xyz
x,y,z
-x,y,1/2-z
-x,-y,-z
x,-y,1/2+z
1/2+x,1/2+y,z
1/2-x,1/2+y,1/2-z
1/2-x,1/2-y,-z
1/2+x,1/2-y,1/2+z
loop_
_atom_site_type_symbol
_atom_site_label
_atom_site_fract_x
_atom_site_fract_y
_atom_site_fract_z
Si Si1 0.031751 0.118235 0.624101
Si Si2 0.092071 0.473050 0.897595
Si Si3 0.718497 0.998494 0.562116
Si Si4 0.155709 0.973816 0.774336
O O1 0.994408 0.401770 0.617484
O O2 0.755940 0.980762 0.694523
O O3 0.117753 0.033656 0.645351
O O4 0.000000 0.000000 0.500000
O O5 0.121217 0.715322 0.826270
O O6 0.126932 0.217481 0.845392
O O7 0.131336 0.500175 0.028510
O O8 0.750000 0.750000 0.500000
O O9 0.750000 0.250000 0.500000
O O10 0.000000 0.019767 0.750000
#
# Coordination Sequence:
#
# PCOD9289236 Si02
#       4
#     8   8   8   8
#     4  10  22  40  62  92 130 172 217 268 326 391
#     4   9  18  34  57  87 118 158 209 266 320 379
#     4   8  14  28  54  82 113 150 200 257 312 369
#     4   9  18  34  57  87 119 160 209 263 319 379
#
# _framework density 29.991284
#
# number of rings (size 3 to 8) (size 9 to 14) (size 15 to 20)
#    0.000    3.000    0.000    0.000    0.000    9.000 
#    0.000   20.000    0.000   27.000    0.000    3.500 
#    0.000    0.000    0.000    7.500    0.000    0.000 
#
# Total GULP energy -89410.034300 kJ/mol
# GULP energy per Si atom -5588.127144 kJ/mol
# Density = 2.992302 g / cm^3
# Si number density = 29.991284 Si / 1000 Ang^3
#
#
#
# Elastic Constant Matrix: (Units=GPa)
#
#
# Indices 1 2 3 4 5 6 
#
# 1 184.7827 48.5732 98.5554 0.0000 52.3504 0.0000
# 2 48.5732 244.0975 69.5090 0.0000 -10.0790 0.0000
# 3 98.5554 69.5090 241.4366 0.0000 76.0853 0.0000
# 4 0.0000 0.0000 0.0000 74.9887 0.0000 -22.0773
# 5 52.3504 -10.0790 76.0853 0.0000 94.5632 0.0000
# 6 0.0000 0.0000 0.0000 -22.0773 0.0000 39.8840
#
#
#
# Elastic Compliance Matrix: (Units=1/GPa)
#
#
# Indices 1 2 3 4 5 6 
#
# 1 0.007469 -0.001064 -0.001881 0.000000 -0.002735 0.000000
# 2 -0.001064 0.004923 -0.001787 0.000000 0.002551 0.000000
# 3 -0.001881 -0.001787 0.006907 0.000000 -0.004707 0.000000
# 4 0.000000 0.000000 0.000000 0.015932 0.000000 0.008819
# 5 -0.002735 0.002551 -0.004707 0.000000 0.016148 0.000000
# 6 0.000000 0.000000 0.000000 0.008819 0.000000 0.029954
#
#
# Mechanical properties :
#
#
# Convention : Reuss Voigt Hill
#
# Bulk Modulus (GPa) = 101.66435 122.62132 112.14284
# Shear Modulus (GPa) = 53.14874 72.13246 62.64060
#
# Velocity S-wave (km/s) = 4.21425 4.90952 4.57511
# Velocity P-wave (km/s) = 7.59285 8.55057 8.08590
#
# Compressibility (1/GPa) = 0.00983629
#
# Stress axis : x y z
#
# Youngs Moduli (GPa) = 133.87895 203.14423 144.77091
#
# Poissons Ratio (x) = 0.21608 0.27230
# Poissons Ratio (y) = 0.14240 0.25871
# Poissons Ratio (z) = 0.25181 0.36303
#
# Static dielectric constant tensor:
#      x y z
#    x 2.468530 0.000000 0.110070 
#    y 0.000000 2.288420 0.000000 
#    z 0.110070 0.000000 2.361970 
# 
# From -- ./inp_files/212438.got.cif
#   From: 2010.05.17/outbox.cif.g08.bks.cpg/sg15_107_cif.got.tgz:212438.got - 2010.06.03 18:47:42.
