data_PCOD9289241
_publ_section_title
;
Structure prediction by ZEFSAII (Michael W. Deem and Ramdas Pophale) SiO2 
 PCOD9289241
Probable space group: C 2/C
;
_chemical_formula_sum "Si O2"
_cell_formula_units_Z 52
_cell_length_a 12.068977
_cell_length_b 19.891383
_cell_length_c 11.632992
_cell_angle_alpha 90.000000
_cell_angle_beta 63.534801
_cell_angle_gamma 90.000000
_cell_volume 2500.054473
_symmetry_space_group_name_H-M "C 2/C"
_symmetry_group_IT_number 15
_symmetry_cell_setting 'monoclinic'
loop_
_space_group_symop_operation_xyz
x,y,z
-x,y,1/2-z
-x,-y,-z
x,-y,1/2+z
1/2+x,1/2+y,z
1/2-x,1/2+y,1/2-z
1/2-x,1/2-y,-z
1/2+x,1/2-y,1/2+z
loop_
_atom_site_type_symbol
_atom_site_label
_atom_site_fract_x
_atom_site_fract_y
_atom_site_fract_z
Si Si1 0.617676 0.714607 0.061064
Si Si2 0.500000 0.175910 0.750000
Si Si3 0.136302 0.567786 0.208729
Si Si4 0.527591 0.597223 0.976789
Si Si5 0.185236 0.948448 0.090000
Si Si6 0.712286 0.924121 0.222154
Si Si7 0.656806 0.406124 0.723748
O O1 0.521256 0.772913 0.135670
O O2 0.571482 0.674353 0.970785
O O3 0.629635 0.656526 0.153658
O O4 0.750000 0.750000 0.000000
O O5 0.377685 0.131292 0.789383
O O6 0.132629 0.492220 0.262375
O O7 0.217996 0.607773 0.262982
O O8 0.000000 0.593967 0.250000
O O9 0.210798 0.559703 0.055734
O O10 0.445666 0.583024 0.128602
O O11 0.441676 0.577390 0.909508
O O12 0.660726 0.561047 0.906576
O O13 0.234791 0.907024 0.176956
O O14 0.170462 0.024020 0.147948
#
# Coordination Sequence:
#
# PCOD9289241 Si02
#       7
#     8   4   8   8   8   8   8
#     4  12  24  40  65  88 123 169 211 252 301 374
#     4  12  24  42  62  90 124 166 214 248 304 372
#     4  10  22  40  62  93 128 163 202 256 323 372
#     4  11  22  41  63  94 127 163 206 259 315 364
#     4  10  24  40  66  98 125 158 205 266 319 362
#     4  11  23  39  65  93 128 162 207 258 309 373
#     4  10  23  40  65  93 126 161 207 263 311 368
#
# _framework density 20.799547
#
# number of rings (size 3 to 8) (size 9 to 14) (size 15 to 20)
#    0.000    1.231    3.846    1.385    0.000   17.231 
#    0.000    0.769    3.385    0.000    0.000    0.000 
#    0.000    0.000    0.000    0.000    0.000    0.000 
#
# Total GULP energy -145156.413450 kJ/mol
# GULP energy per Si atom -5582.938979 kJ/mol
# Density = 2.075221 g / cm^3
# Si number density = 20.799547 Si / 1000 Ang^3
#
#
#
# Elastic Constant Matrix: (Units=GPa)
#
#
# Indices 1 2 3 4 5 6 
#
# 1 179.0068 37.8461 53.7758 0.0000 0.6859 0.0000
# 2 37.8461 67.9595 18.4996 0.0000 7.8088 0.0000
# 3 53.7758 18.4996 78.3027 0.0000 13.5529 0.0000
# 4 0.0000 0.0000 0.0000 24.1788 0.0000 -3.5109
# 5 0.6859 7.8088 13.5529 0.0000 35.3155 0.0000
# 6 0.0000 0.0000 0.0000 -3.5109 0.0000 30.0548
#
#
#
# Elastic Compliance Matrix: (Units=1/GPa)
#
#
# Indices 1 2 3 4 5 6 
#
# 1 0.007764 -0.003250 -0.004995 0.000000 0.002485 0.000000
# 2 -0.003250 0.017247 -0.001279 0.000000 -0.003260 0.000000
# 3 -0.004995 -0.001279 0.017607 0.000000 -0.006377 0.000000
# 4 0.000000 0.000000 0.000000 0.042072 0.000000 0.004915
# 5 0.002485 -0.003260 -0.006377 0.000000 0.031436 0.000000
# 6 0.000000 0.000000 0.000000 0.004915 0.000000 0.033847
#
#
# Mechanical properties :
#
#
# Convention : Reuss Voigt Hill
#
# Bulk Modulus (GPa) = 42.42265 60.61243 51.51754
# Shear Modulus (GPa) = 28.26828 32.25301 30.26064
#
# Velocity S-wave (km/s) = 3.69057 3.94211 3.81841
# Velocity P-wave (km/s) = 6.21294 7.06575 6.65303
#
# Compressibility (1/GPa) = 0.02357231
#
# Stress axis : x y z
#
# Youngs Moduli (GPa) = 128.79339 57.98088 56.79571
#
# Poissons Ratio (x) = 0.18843 0.28367
# Poissons Ratio (y) = 0.41855 0.07262
# Poissons Ratio (z) = 0.64327 0.07414
#
# Static dielectric constant tensor:
#      x y z
#    x 1.772160 0.000000 -0.006320 
#    y 0.000000 1.747440 0.000000 
#    z -0.006320 0.000000 1.831340 
# 
# From -- ./inp_files/88826.got.cif
#   From: 2010.05.17/outbox.cif.g08.bks.cpg/sg15_45_cif.got.tgz:88826.got - 2010.06.03 18:47:42.
