data_PCOD9289024
_publ_section_title
;
Structure prediction by ZEFSAII (Michael W. Deem and Ramdas Pophale) SiO2 
 PCOD9289024
Probable space group: C 2/C
;
_chemical_formula_sum "Si O2"
_cell_formula_units_Z 52
_cell_length_a 23.893975
_cell_length_b 15.924556
_cell_length_c 9.803568
_cell_angle_alpha 90.000000
_cell_angle_beta 133.617036
_cell_angle_gamma 90.000000
_cell_volume 2700.589300
_symmetry_space_group_name_H-M "C 2/C"
_symmetry_group_IT_number 15
_symmetry_cell_setting 'monoclinic'
loop_
_space_group_symop_operation_xyz
x,y,z
-x,y,1/2-z
-x,-y,-z
x,-y,1/2+z
1/2+x,1/2+y,z
1/2-x,1/2+y,1/2-z
1/2-x,1/2-y,-z
1/2+x,1/2-y,1/2+z
loop_
_atom_site_type_symbol
_atom_site_label
_atom_site_fract_x
_atom_site_fract_y
_atom_site_fract_z
Si Si1 0.255490 0.033365 0.453135
Si Si2 0.677155 0.196792 0.824732
Si Si3 0.364911 0.708399 0.712119
Si Si4 0.979015 0.209406 0.365411
Si Si5 0.284187 0.850922 0.414252
Si Si6 0.500000 0.453861 0.750000
Si Si7 0.154756 0.946792 0.520743
O O1 0.315022 0.106629 0.588909
O O2 0.200066 0.064144 0.237866
O O3 0.294454 0.948297 0.463935
O O4 0.205639 0.004690 0.502255
O O5 0.599605 0.248298 0.720886
O O6 0.685786 0.177430 0.680261
O O7 0.750000 0.250000 0.000000
O O8 0.326629 0.794703 0.598743
O O9 0.307698 0.669205 0.730135
O O10 0.360477 0.640734 0.582571
O O11 0.450062 0.721305 0.912665
O O12 0.974385 0.109400 0.327974
O O13 0.000000 0.244157 0.250000
O O14 0.426527 0.508660 0.588067
#
# Coordination Sequence:
#
# PCOD9289024 Si02
#       7
#     8   8   8   8   8   4   8
#     4  11  23  40  64  98 128 169 223 275 319 387
#     4  12  23  40  69  93 127 175 228 268 328 399
#     4  10  22  41  65  93 134 173 208 275 333 390
#     4  10  24  41  61  93 134 169 213 271 333 388
#     4  10  22  42  65  96 128 171 225 270 323 397
#     4  10  22  40  56  96 140 162 206 272 334 404
#     4  11  22  38  65  96 133 169 212 267 339 393
#
# _framework density 19.255057000000001
#
# number of rings (size 3 to 8) (size 9 to 14) (size 15 to 20)
#    0.462    0.923    1.538    4.615    0.000    8.000 
#    0.000    0.769    0.000    0.000    0.000    0.000 
#    0.000    0.000    0.000    0.000    0.000    0.000 
#
# Total GULP energy -145313.404738 kJ/mol
# GULP energy per Si atom -5588.977105 kJ/mol
# Density = 1.921123 g / cm^3
# Si number density = 19.255057 Si / 1000 Ang^3
#
#
#
# Elastic Constant Matrix: (Units=GPa)
#
#
# Indices 1 2 3 4 5 6 
#
# 1 84.8253 36.9805 21.7865 0.0000 5.2565 0.0000
# 2 36.9805 98.7365 16.5115 0.0000 17.0099 0.0000
# 3 21.7865 16.5115 78.7289 0.0000 12.4895 0.0000
# 4 0.0000 0.0000 0.0000 15.8695 0.0000 6.9718
# 5 5.2565 17.0099 12.4895 0.0000 35.6767 0.0000
# 6 0.0000 0.0000 0.0000 6.9718 0.0000 28.7845
#
#
#
# Elastic Compliance Matrix: (Units=1/GPa)
#
#
# Indices 1 2 3 4 5 6 
#
# 1 0.014822 -0.005262 -0.003229 0.000000 0.001455 0.000000
# 2 -0.005262 0.013088 -0.000447 0.000000 -0.005308 0.000000
# 3 -0.003229 -0.000447 0.014378 0.000000 -0.004345 0.000000
# 4 0.000000 0.000000 0.000000 0.070518 0.000000 -0.017080
# 5 0.001455 -0.005308 -0.004345 0.000000 0.031867 0.000000
# 6 0.000000 0.000000 0.000000 -0.017080 0.000000 0.038878
#
#
# Mechanical properties :
#
#
# Convention : Reuss Voigt Hill
#
# Bulk Modulus (GPa) = 40.96179 45.87195 43.41687
# Shear Modulus (GPa) = 23.85901 28.53360 26.19631
#
# Velocity S-wave (km/s) = 3.52391 3.85369 3.69248
# Velocity P-wave (km/s) = 6.15440 6.60880 6.38565
#
# Compressibility (1/GPa) = 0.02441300
#
# Stress axis : x y z
#
# Youngs Moduli (GPa) = 67.46638 76.40551 69.54933
#
# Poissons Ratio (x) = 0.40206 0.22457
# Poissons Ratio (y) = 0.35502 0.03106
# Poissons Ratio (z) = 0.21785 0.03412
#
# Static dielectric constant tensor:
#      x y z
#    x 1.675630 0.000000 -0.025090 
#    y 0.000000 1.672220 0.000000 
#    z -0.025090 0.000000 1.662240 
# 
# From -- ./inp_files/67073.got.cif
#   From: 2010.05.17/outbox.cif.g08.bks.cpg/sg15_34_cif.got.tgz:67073.got - 2010.06.03 18:47:42.
