data_PCOD9289843
_publ_section_title
;
Structure prediction by ZEFSAII (Michael W. Deem and Ramdas Pophale) SiO2 
 PCOD9289843
Probable space group: C 2/C
;
_chemical_formula_sum "Si O2"
_cell_formula_units_Z 48
_cell_length_a 13.768378
_cell_length_b 11.886652
_cell_length_c 15.106785
_cell_angle_alpha 90.000000
_cell_angle_beta 99.715397
_cell_angle_gamma 90.000000
_cell_volume 2436.916772
_symmetry_space_group_name_H-M "C 2/C"
_symmetry_group_IT_number 15
_symmetry_cell_setting 'monoclinic'
loop_
_space_group_symop_operation_xyz
x,y,z
-x,y,1/2-z
-x,-y,-z
x,-y,1/2+z
1/2+x,1/2+y,z
1/2-x,1/2+y,1/2-z
1/2-x,1/2-y,-z
1/2+x,1/2-y,1/2+z
loop_
_atom_site_type_symbol
_atom_site_label
_atom_site_fract_x
_atom_site_fract_y
_atom_site_fract_z
Si Si1 0.276936 0.513965 0.356472
Si Si2 0.124519 0.416111 0.684248
Si Si3 0.215363 0.266014 0.095359
Si Si4 0.890162 0.164076 0.758056
Si Si5 0.689415 0.135297 0.996314
Si Si6 0.982382 0.588671 0.919050
O O1 0.192925 0.534118 0.270478
O O2 0.314193 0.640732 0.376989
O O3 0.348887 0.422948 0.323757
O O4 0.236046 0.460917 0.441170
O O5 0.095812 0.288860 0.700382
O O6 0.178763 0.406427 0.596305
O O7 0.034199 0.501624 0.662166
O O8 0.306042 0.316795 0.168511
O O9 0.117811 0.342008 0.086072
O O10 0.250000 0.250000 0.000000
O O11 0.000000 0.125196 0.750000
O O12 0.581290 0.160050 0.938111
O O13 0.750000 0.250000 0.000000
O O14 0.000000 0.500000 0.000000
#
# Coordination Sequence:
#
# PCOD9289843 Si02
#       6
#     8   8   8   8   8   8
#     4  11  24  44  66 100 137 180 218 287 350 396
#     4  10  22  43  67  96 132 174 227 275 328 417
#     4  11  24  44  69 101 138 178 230 284 341 415
#     4  11  25  43  68  98 141 181 227 276 346 410
#     4  11  23  42  68  97 134 171 230 281 338 400
#     4  10  22  40  68  98 128 170 227 275 334 400
#
# _framework density 19.697019999999998
#
# number of rings (size 3 to 8) (size 9 to 14) (size 15 to 20)
#    0.000    1.333    3.333    2.000    9.333    0.000 
#    3.000    1.667    0.000    0.000    0.000    0.000 
#    0.000    0.000    0.000    0.000    0.000    0.000 
#
# Total GULP energy -133861.644312 kJ/mol
# GULP energy per Si atom -5577.568513 kJ/mol
# Density = 1.965219 g / cm^3
# Si number density = 19.697020 Si / 1000 Ang^3
#
#
#
# Elastic Constant Matrix: (Units=GPa)
#
#
# Indices 1 2 3 4 5 6 
#
# 1 117.7761 55.0790 34.3548 0.0000 11.1019 0.0000
# 2 55.0790 97.3524 39.3419 0.0000 20.7398 0.0000
# 3 34.3548 39.3419 100.5173 0.0000 -8.1945 0.0000
# 4 0.0000 0.0000 0.0000 35.5586 0.0000 9.7251
# 5 11.1019 20.7398 -8.1945 0.0000 29.0268 0.0000
# 6 0.0000 0.0000 0.0000 9.7251 0.0000 23.1580
#
#
#
# Elastic Compliance Matrix: (Units=1/GPa)
#
#
# Indices 1 2 3 4 5 6 
#
# 1 0.011800 -0.005714 -0.001875 0.000000 -0.000960 0.000000
# 2 -0.005714 0.018966 -0.006547 0.000000 -0.013214 0.000000
# 3 -0.001875 -0.006547 0.013912 0.000000 0.009323 0.000000
# 4 0.000000 0.000000 0.000000 0.031772 0.000000 -0.013342
# 5 -0.000960 -0.013214 0.009323 0.000000 0.046891 0.000000
# 6 0.000000 0.000000 0.000000 -0.013342 0.000000 0.048785
#
#
# Mechanical properties :
#
#
# Convention : Reuss Voigt Hill
#
# Bulk Modulus (GPa) = 60.95579 63.68857 62.32218
# Shear Modulus (GPa) = 24.28748 30.00668 27.14708
#
# Velocity S-wave (km/s) = 3.51530 3.90733 3.71648
# Velocity P-wave (km/s) = 6.89132 7.26365 7.07993
#
# Compressibility (1/GPa) = 0.01640533
#
# Stress axis : x y z
#
# Youngs Moduli (GPa) = 84.74359 52.72622 71.88038
#
# Poissons Ratio (x) = 0.30128 0.13477
# Poissons Ratio (y) = 0.48423 0.47063
# Poissons Ratio (z) = 0.15889 0.34522
#
# Static dielectric constant tensor:
#      x y z
#    x 1.713540 0.000000 -0.020860 
#    y 0.000000 1.696330 0.000000 
#    z -0.020860 0.000000 1.689720 
# 
# From -- ./inp_files/152080.got.cif
#   From: 2010.05.17/outbox.cif.g08.bks.cpg/sg15_77_cif.got.tgz:152080.got - 2010.06.03 18:47:42.
