data_PCOD9289798
_publ_section_title
;
Structure prediction by ZEFSAII (Michael W. Deem and Ramdas Pophale) SiO2 
 PCOD9289798
Probable space group: C 2/C
;
_chemical_formula_sum "Si O2"
_cell_formula_units_Z 48
_cell_length_a 30.325971
_cell_length_b 16.403045
_cell_length_c 9.911091
_cell_angle_alpha 90.000000
_cell_angle_beta 27.598879
_cell_angle_gamma 90.000000
_cell_volume 2284.036212
_symmetry_space_group_name_H-M "C 2/C"
_symmetry_group_IT_number 15
_symmetry_cell_setting 'monoclinic'
loop_
_space_group_symop_operation_xyz
x,y,z
-x,y,1/2-z
-x,-y,-z
x,-y,1/2+z
1/2+x,1/2+y,z
1/2-x,1/2+y,1/2-z
1/2-x,1/2-y,-z
1/2+x,1/2-y,1/2+z
loop_
_atom_site_type_symbol
_atom_site_label
_atom_site_fract_x
_atom_site_fract_y
_atom_site_fract_z
Si Si1 0.259264 0.798410 0.835616
Si Si2 0.088573 0.906717 0.203986
Si Si3 0.424538 0.921016 0.334291
Si Si4 0.444037 0.105595 0.262388
Si Si5 0.886242 0.059782 0.173550
Si Si6 0.744099 0.190218 0.644631
O O1 0.332274 0.873757 0.636422
O O2 0.297102 0.735195 0.622051
O O3 0.250000 0.750000 0.000000
O O4 0.159038 0.834392 0.053333
O O5 0.977408 0.887759 0.478954
O O6 0.099801 0.973605 0.291288
O O7 0.115825 0.943969 0.983189
O O8 0.500000 0.924611 0.250000
O O9 0.403590 0.014031 0.345332
O O10 0.479867 0.877550 0.061299
O O11 0.500000 0.102499 0.250000
O O12 0.359478 0.168530 0.515971
O O13 0.792243 0.105691 0.473982
O O14 0.750000 0.250000 0.500000
#
# Coordination Sequence:
#
# PCOD9289798 Si02
#       6
#     8   8   8   8   8   8
#     4  12  26  41  64 100 139 171 213 270 338 403
#     4  10  23  45  68  96 125 174 227 273 325 387
#     4  10  22  44  64  93 126 167 220 266 318 382
#     4  10  22  40  68  90 122 169 218 268 313 381
#     4  10  23  44  70  93 128 172 228 276 323 391
#     4  12  24  41  62  97 133 173 212 267 340 395
#
# _framework density 21.015429000000001
#
# number of rings (size 3 to 8) (size 9 to 14) (size 15 to 20)
#    0.000    1.333    1.667    3.000    2.333    4.000 
#    6.000    0.000    0.000    0.000    0.000    0.000 
#    0.000    0.000    0.000    0.000    0.000    0.000 
#
# Total GULP energy -134024.619885 kJ/mol
# GULP energy per Si atom -5584.359162 kJ/mol
# Density = 2.096760 g / cm^3
# Si number density = 21.015429 Si / 1000 Ang^3
#
#
#
# Elastic Constant Matrix: (Units=GPa)
#
#
# Indices 1 2 3 4 5 6 
#
# 1 93.4728 24.4510 35.9175 0.0000 28.4062 0.0000
# 2 24.4510 61.0654 43.2190 0.0000 -1.4339 0.0000
# 3 35.9175 43.2190 99.7042 0.0000 8.5955 0.0000
# 4 0.0000 0.0000 0.0000 42.6047 0.0000 -3.7440
# 5 28.4062 -1.4339 8.5955 0.0000 38.9708 0.0000
# 6 0.0000 0.0000 0.0000 -3.7440 0.0000 37.6968
#
#
#
# Elastic Compliance Matrix: (Units=1/GPa)
#
#
# Indices 1 2 3 4 5 6 
#
# 1 0.016626 -0.004911 -0.002855 0.000000 -0.011670 0.000000
# 2 -0.004911 0.025469 -0.009848 0.000000 0.006689 0.000000
# 3 -0.002855 -0.009848 0.015473 0.000000 -0.001694 0.000000
# 4 0.000000 0.000000 0.000000 0.023678 0.000000 0.002352
# 5 -0.011670 0.006689 -0.001694 0.000000 0.034787 0.000000
# 6 0.000000 0.000000 0.000000 0.002352 0.000000 0.026761
#
#
# Mechanical properties :
#
#
# Convention : Reuss Voigt Hill
#
# Bulk Modulus (GPa) = 44.75941 51.26860 48.01401
# Shear Modulus (GPa) = 26.95889 33.89812 30.42851
#
# Velocity S-wave (km/s) = 3.58553 4.02059 3.80927
# Velocity P-wave (km/s) = 6.20370 6.78249 6.49954
#
# Compressibility (1/GPa) = 0.02234167
#
# Stress axis : x y z
#
# Youngs Moduli (GPa) = 60.14540 39.26346 64.62971
#
# Poissons Ratio (x) = 0.19282 0.18449
# Poissons Ratio (y) = 0.29537 0.63645
# Poissons Ratio (z) = 0.17169 0.38665
#
# Static dielectric constant tensor:
#      x y z
#    x 1.699410 0.000000 0.021310 
#    y 0.000000 1.785280 0.000000 
#    z 0.021310 0.000000 1.764850 
# 
# From -- ./inp_files/70547.got.cif
#   From: 2010.05.17/outbox.cif.g08.bks.cpg/sg15_36_cif.got.tgz:70547.got - 2010.06.03 18:47:42.
