data_PCOD9289073
_publ_section_title
;
Structure prediction by ZEFSAII (Michael W. Deem and Ramdas Pophale) SiO2 
 PCOD9289073
Probable space group: C 2/C
;
_chemical_formula_sum "Si O2"
_cell_formula_units_Z 44
_cell_length_a 22.975147
_cell_length_b 11.284938
_cell_length_c 15.228789
_cell_angle_alpha 90.000000
_cell_angle_beta 150.351213
_cell_angle_gamma 90.000000
_cell_volume 1953.210290
_symmetry_space_group_name_H-M "C 2/C"
_symmetry_group_IT_number 15
_symmetry_cell_setting 'monoclinic'
loop_
_space_group_symop_operation_xyz
x,y,z
-x,y,1/2-z
-x,-y,-z
x,-y,1/2+z
1/2+x,1/2+y,z
1/2-x,1/2+y,1/2-z
1/2-x,1/2-y,-z
1/2+x,1/2-y,1/2+z
loop_
_atom_site_type_symbol
_atom_site_label
_atom_site_fract_x
_atom_site_fract_y
_atom_site_fract_z
Si Si1 0.551344 0.617837 0.414477
Si Si2 0.799185 0.901482 0.876011
Si Si3 0.381770 0.289133 0.813405
Si Si4 0.000000 0.234434 0.750000
Si Si5 0.054487 0.624273 0.154199
Si Si6 0.984908 0.627485 0.831164
O O1 0.500000 0.597038 0.250000
O O2 0.663086 0.538767 0.580490
O O3 0.448229 0.602266 0.351371
O O4 0.570468 0.758570 0.448423
O O5 0.799758 0.845558 0.779470
O O6 0.679315 0.885429 0.770777
O O7 0.904723 0.842361 0.071431
O O8 0.364900 0.194173 0.710290
O O9 0.471344 0.209653 0.988795
O O10 0.064981 0.315760 0.763471
O O11 0.000199 0.493570 0.097057
O O12 0.000000 0.593116 0.750000
#
# Coordination Sequence:
#
# PCOD9289073 Si02
#       6
#     8   8   8   4   8   8
#     4   9  19  39  63  81 122 164 190 246 306 350
#     4  11  21  37  63  89 117 160 207 245 302 367
#     4   9  21  37  61  88 124 158 191 263 303 339
#     4  10  22  40  60  82 126 152 200 262 300 348
#     4  11  21  37  63  89 117 160 207 245 302 367
#     4   9  19  39  63  81 122 164 190 246 306 350
#
# _framework density 22.527016
#
# number of rings (size 3 to 8) (size 9 to 14) (size 15 to 20)
#    1.091    1.091    1.818    1.636    0.000    1.455 
#    0.000    5.455    0.000    0.000    0.000    0.000 
#    0.000    0.000    0.000    0.000    0.000    0.000 
#
# Total GULP energy -122496.266867 kJ/mol
# GULP energy per Si atom -5568.012130 kJ/mol
# Density = 2.247574 g / cm^3
# Si number density = 22.527016 Si / 1000 Ang^3
#
#
#
# Elastic Constant Matrix: (Units=GPa)
#
#
# Indices 1 2 3 4 5 6 
#
# 1 206.6832 58.3391 44.0868 0.0000 -11.4264 0.0000
# 2 58.3391 106.3343 21.7038 0.0000 7.8298 0.0000
# 3 44.0868 21.7038 44.8061 0.0000 5.9894 0.0000
# 4 0.0000 0.0000 0.0000 15.0203 0.0000 1.1818
# 5 -11.4264 7.8298 5.9894 0.0000 31.0092 0.0000
# 6 0.0000 0.0000 0.0000 1.1818 0.0000 38.8682
#
#
#
# Elastic Compliance Matrix: (Units=1/GPa)
#
#
# Indices 1 2 3 4 5 6 
#
# 1 0.007316 -0.003065 -0.006341 0.000000 0.004694 0.000000
# 2 -0.003065 0.011809 -0.002212 0.000000 -0.003684 0.000000
# 3 -0.006341 -0.002212 0.030658 0.000000 -0.007700 0.000000
# 4 0.000000 0.000000 0.000000 0.066736 0.000000 -0.002029
# 5 0.004694 -0.003684 -0.007700 0.000000 0.036396 0.000000
# 6 0.000000 0.000000 0.000000 -0.002029 0.000000 0.025790
#
#
# Mechanical properties :
#
#
# Convention : Reuss Voigt Hill
#
# Bulk Modulus (GPa) = 37.66925 67.34256 52.50591
# Shear Modulus (GPa) = 23.72045 32.55910 28.13978
#
# Velocity S-wave (km/s) = 3.24848 3.80588 3.53818
# Velocity P-wave (km/s) = 5.55232 7.01940 6.32852
#
# Compressibility (1/GPa) = 0.02654685
#
# Stress axis : x y z
#
# Youngs Moduli (GPa) = 136.69501 84.68414 32.61769
#
# Poissons Ratio (x) = 0.25956 0.20683
# Poissons Ratio (y) = 0.41897 0.07214
# Poissons Ratio (z) = 0.86678 0.18730
#
# Static dielectric constant tensor:
#      x y z
#    x 1.931590 0.000000 -0.029920 
#    y 0.000000 1.846350 0.000000 
#    z -0.029920 0.000000 1.851180 
# 
# From -- ./inp_files/167764.got.cif
#   From: 2010.05.17/outbox.cif.g08.bks.cpg/sg15_84_cif.got.tgz:167764.got - 2010.06.03 18:47:42.
