data_PCOD9289619
_publ_section_title
;
Structure prediction by ZEFSAII (Michael W. Deem and Ramdas Pophale) SiO2 
 PCOD9289619
Probable space group: C 2/C
;
_chemical_formula_sum "Si O2"
_cell_formula_units_Z 44
_cell_length_a 7.846174
_cell_length_b 15.393578
_cell_length_c 14.527646
_cell_angle_alpha 90.000000
_cell_angle_beta 68.820326
_cell_angle_gamma 90.000000
_cell_volume 1636.135469
_symmetry_space_group_name_H-M "C 2/C"
_symmetry_group_IT_number 15
_symmetry_cell_setting 'monoclinic'
loop_
_space_group_symop_operation_xyz
x,y,z
-x,y,1/2-z
-x,-y,-z
x,-y,1/2+z
1/2+x,1/2+y,z
1/2-x,1/2+y,1/2-z
1/2-x,1/2-y,-z
1/2+x,1/2-y,1/2+z
loop_
_atom_site_type_symbol
_atom_site_label
_atom_site_fract_x
_atom_site_fract_y
_atom_site_fract_z
Si Si1 0.219521 0.677436 0.130709
Si Si2 0.699617 0.505822 0.852362
Si Si3 0.327258 0.412032 0.942600
Si Si4 0.000000 0.809095 0.250000
Si Si5 0.475853 0.786127 0.501430
Si Si6 0.789546 0.572556 0.640089
O O1 0.175867 0.577045 0.149222
O O2 0.428028 0.699299 0.059471
O O3 0.166364 0.739696 0.226462
O O4 0.084782 0.707621 0.075883
O O5 0.517113 0.449767 0.863679
O O6 0.777810 0.556800 0.750927
O O7 0.672425 0.562750 0.948917
O O8 0.197396 0.483205 0.916571
O O9 0.232037 0.318313 0.943642
O O10 0.903876 0.875690 0.340656
O O11 0.554846 0.861864 0.420462
#
# Coordination Sequence:
#
# PCOD9289619 Si02
#       6
#     8   8   8   4   8   8
#     4  10  23  41  66 101 127 176 224 276 338 405
#     4  11  24  39  68  98 131 173 230 274 339 399
#     4  11  23  41  66  97 131 177 220 281 331 400
#     4  10  22  40  66  92 132 178 214 272 334 404
#     4  10  23  42  66  94 136 174 223 275 341 394
#     4  11  21  43  65  94 134 177 219 274 329 402
#
# _framework density 26.89264
#
# number of rings (size 3 to 8) (size 9 to 14) (size 15 to 20)
#    0.000    1.455    3.636    0.545    2.545    1.455 
#    0.000    0.000    4.000    0.000    0.000    0.000 
#    0.000    0.000    0.000    0.000    0.000    0.000 
#
# Total GULP energy -122743.659273 kJ/mol
# GULP energy per Si atom -5579.257240 kJ/mol
# Density = 2.683143 g / cm^3
# Si number density = 26.892640 Si / 1000 Ang^3
#
#
#
# Elastic Constant Matrix: (Units=GPa)
#
#
# Indices 1 2 3 4 5 6 
#
# 1 109.0716 -23.5146 22.2336 0.0000 -17.3437 0.0000
# 2 -23.5146 101.2374 18.2893 0.0000 9.7801 0.0000
# 3 22.2336 18.2893 130.3657 0.0000 1.4636 0.0000
# 4 0.0000 0.0000 0.0000 58.6907 0.0000 -13.5624
# 5 -17.3437 9.7801 1.4636 0.0000 31.6210 0.0000
# 6 0.0000 0.0000 0.0000 -13.5624 0.0000 30.7414
#
#
#
# Elastic Compliance Matrix: (Units=1/GPa)
#
#
# Indices 1 2 3 4 5 6 
#
# 1 0.011020 0.002451 -0.002284 0.000000 0.005392 0.000000
# 2 0.002451 0.010987 -0.001937 0.000000 -0.001964 0.000000
# 3 -0.002284 -0.001937 0.008344 0.000000 -0.001040 0.000000
# 4 0.000000 0.000000 0.000000 0.018973 0.000000 0.008370
# 5 0.005392 -0.001964 -0.001040 0.000000 0.035237 0.000000
# 6 0.000000 0.000000 0.000000 0.008370 0.000000 0.036222
#
#
# Mechanical properties :
#
#
# Convention : Reuss Voigt Hill
#
# Bulk Modulus (GPa) = 37.29899 41.63237 39.46568
# Shear Modulus (GPa) = 37.52088 45.78837 41.65463
#
# Velocity S-wave (km/s) = 3.73930 4.13078 3.93991
# Velocity P-wave (km/s) = 5.70464 6.18592 5.95015
#
# Compressibility (1/GPa) = 0.02681038
#
# Stress axis : x y z
#
# Youngs Moduli (GPa) = 90.74706 91.01774 119.85095
#
# Poissons Ratio (x) = -0.22311 0.27372
# Poissons Ratio (y) = -0.22245 0.23220
# Poissons Ratio (z) = 0.20725 0.17634
#
# Static dielectric constant tensor:
#      x y z
#    x 2.337850 0.000000 -0.030180 
#    y 0.000000 2.136250 0.000000 
#    z -0.030180 0.000000 2.082760 
# 
# From -- ./inp_files/134267.got.cif
#   From: 2010.05.17/outbox.cif.g08.bks.cpg/sg15_68_cif.got.tgz:134267.got - 2010.06.03 18:47:42.
