data_PCOD9289553
_publ_section_title
;
Structure prediction by ZEFSAII (Michael W. Deem and Ramdas Pophale) SiO2 
 PCOD9289553
Probable space group: C 2/C
;
_chemical_formula_sum "Si O2"
_cell_formula_units_Z 52
_cell_length_a 8.652965
_cell_length_b 19.358820
_cell_length_c 20.289113
_cell_angle_alpha 90.000000
_cell_angle_beta 127.618223
_cell_angle_gamma 90.000000
_cell_volume 2692.058300
_symmetry_space_group_name_H-M "C 2/C"
_symmetry_group_IT_number 15
_symmetry_cell_setting 'monoclinic'
loop_
_space_group_symop_operation_xyz
x,y,z
-x,y,1/2-z
-x,-y,-z
x,-y,1/2+z
1/2+x,1/2+y,z
1/2-x,1/2+y,1/2-z
1/2-x,1/2-y,-z
1/2+x,1/2-y,1/2+z
loop_
_atom_site_type_symbol
_atom_site_label
_atom_site_fract_x
_atom_site_fract_y
_atom_site_fract_z
Si Si1 0.977340 0.677054 0.926515
Si Si2 0.426370 0.678456 0.090831
Si Si3 0.925752 0.410259 0.807370
Si Si4 0.500000 0.631980 0.250000
Si Si5 0.698003 0.168858 0.480554
Si Si6 0.531576 0.419495 0.007106
Si Si7 0.970270 0.570333 0.665076
O O1 0.879386 0.651269 0.967388
O O2 0.943014 0.756755 0.897720
O O3 0.921221 0.625129 0.853413
O O4 0.207395 0.680725 0.005220
O O5 0.420193 0.675039 0.167409
O O6 0.503013 0.609461 0.075518
O O7 0.694487 0.403961 0.767628
O O8 0.000000 0.399263 0.750000
O O9 0.985441 0.489907 0.838616
O O10 0.042619 0.356243 0.884694
O O11 0.750000 0.250000 0.500000
O O12 0.889231 0.125092 0.514601
O O13 0.748631 0.411835 0.089963
O O14 0.500000 0.500000 0.000000
O O15 0.000000 0.581022 0.750000
#
# Coordination Sequence:
#
# PCOD9289553 Si02
#       7
#     8   8   8   4   8   8   8
#     4  10  22  42  63  95 135 169 231 282 340 415
#     4  10  22  40  65  97 128 178 223 277 343 413
#     4  11  25  45  67 102 140 180 232 286 347 418
#     4  12  24  40  74  98 136 184 232 286 352 418
#     4  12  23  43  68 101 133 178 234 288 341 425
#     4  11  22  41  72  93 132 183 220 274 354 405
#     4  10  24  44  65  95 136 178 225 285 343 412
#
# _framework density 19.316074
#
# number of rings (size 3 to 8) (size 9 to 14) (size 15 to 20)
#    0.000    1.231    4.615    0.923    3.231    1.846 
#    0.000    0.000    0.000    0.000    0.000    0.000 
#    0.000    0.000    0.000    0.000    0.000    0.000 
#
# Total GULP energy -144790.420415 kJ/mol
# GULP energy per Si atom -5568.862324 kJ/mol
# Density = 1.927211 g / cm^3
# Si number density = 19.316074 Si / 1000 Ang^3
#
#
#
# Elastic Constant Matrix: (Units=GPa)
#
#
# Indices 1 2 3 4 5 6 
#
# 1 88.5804 28.6551 28.9352 0.0000 -9.6880 0.0000
# 2 28.6551 127.2355 56.9210 0.0000 -20.3522 0.0000
# 3 28.9352 56.9210 117.5884 0.0000 -26.1808 0.0000
# 4 0.0000 0.0000 0.0000 22.9813 0.0000 -6.4247
# 5 -9.6880 -20.3522 -26.1808 0.0000 40.7101 0.0000
# 6 0.0000 0.0000 0.0000 -6.4247 0.0000 31.5540
#
#
#
# Elastic Compliance Matrix: (Units=1/GPa)
#
#
# Indices 1 2 3 4 5 6 
#
# 1 0.012630 -0.001796 -0.002065 0.000000 0.000780 0.000000
# 2 -0.001796 0.010460 -0.004146 0.000000 0.002136 0.000000
# 3 -0.002065 -0.004146 0.012195 0.000000 0.005278 0.000000
# 4 0.000000 0.000000 0.000000 0.046140 0.000000 0.009395
# 5 0.000780 0.002136 0.005278 0.000000 0.029212 0.000000
# 6 0.000000 0.000000 0.000000 0.009395 0.000000 0.033605
#
#
# Mechanical properties :
#
#
# Convention : Reuss Voigt Hill
#
# Bulk Modulus (GPa) = 51.89148 62.49189 57.19168
# Shear Modulus (GPa) = 29.99785 33.64195 31.81990
#
# Velocity S-wave (km/s) = 3.94509 4.17784 4.06313
# Velocity P-wave (km/s) = 6.90466 7.46291 7.18920
#
# Compressibility (1/GPa) = 0.01927099
#
# Stress axis : x y z
#
# Youngs Moduli (GPa) = 79.17692 95.59904 82.00393
#
# Poissons Ratio (x) = 0.17169 0.16933
# Poissons Ratio (y) = 0.14220 0.34000
# Poissons Ratio (z) = 0.16349 0.39636
#
# Static dielectric constant tensor:
#      x y z
#    x 1.554870 0.000000 -0.181480 
#    y 0.000000 1.699320 0.000000 
#    z -0.181480 0.000000 1.535530 
# 
# From -- ./inp_files/191135.got.cif
#   From: 2010.05.17/outbox.cif.g08.bks.cpg/sg15_96_cif.got.tgz:191135.got - 2010.06.03 18:47:42.
