data_PCOD9289182
_publ_section_title
;
Structure prediction by ZEFSAII (Michael W. Deem and Ramdas Pophale) SiO2 
 PCOD9289182
Probable space group: C 2/C
;
_chemical_formula_sum "Si O2"
_cell_formula_units_Z 56
_cell_length_a 25.137839
_cell_length_b 12.231696
_cell_length_c 8.525847
_cell_angle_alpha 90.000000
_cell_angle_beta 113.229353
_cell_angle_gamma 90.000000
_cell_volume 2408.996620
_symmetry_space_group_name_H-M "C 2/C"
_symmetry_group_IT_number 15
_symmetry_cell_setting 'monoclinic'
loop_
_space_group_symop_operation_xyz
x,y,z
-x,y,1/2-z
-x,-y,-z
x,-y,1/2+z
1/2+x,1/2+y,z
1/2-x,1/2+y,1/2-z
1/2-x,1/2-y,-z
1/2+x,1/2-y,1/2+z
loop_
_atom_site_type_symbol
_atom_site_label
_atom_site_fract_x
_atom_site_fract_y
_atom_site_fract_z
Si Si1 0.434713 0.378873 0.963989
Si Si2 0.326727 0.486778 0.245615
Si Si3 0.302631 0.724719 0.857690
Si Si4 0.000000 0.037116 0.250000
Si Si5 0.568859 0.870615 0.037485
Si Si6 0.000000 0.536276 0.750000
Si Si7 0.247196 0.592353 0.388989
Si Si8 0.815126 0.616205 0.643774
O O1 0.376018 0.422898 0.814693
O O2 0.481104 0.394570 0.878684
O O3 0.435993 0.254721 0.019934
O O4 0.449999 0.456932 0.127161
O O5 0.342018 0.379701 0.366210
O O6 0.270345 0.548572 0.248620
O O7 0.303930 0.430848 0.060094
O O8 0.280806 0.791469 0.680414
O O9 0.244159 0.670888 0.860667
O O10 0.330287 0.810636 0.010176
O O11 0.528876 0.894402 0.144169
O O12 0.634504 0.881145 0.171106
O O13 0.548207 0.956925 0.883817
O O14 0.198948 0.510631 0.398415
#
# Coordination Sequence:
#
# PCOD9289182 Si02
#       8
#     8   8   8   4   8   4   8   8
#     4  11  23  42  66  95 126 175 208 281 328 399
#     4  11  23  37  65  93 135 171 218 255 329 400
#     4  10  22  40  61  98 136 174 217 266 322 407
#     4  10  24  42  62  92 130 158 226 258 334 398
#     4  11  24  44  71  91 133 168 222 283 337 378
#     4  10  26  48  66 102 122 172 238 282 326 406
#     4  11  21  40  58  95 135 170 215 265 313 407
#     4  10  23  38  65  94 130 174 209 273 333 387
#
# _framework density 23.246193000000002
#
# number of rings (size 3 to 8) (size 9 to 14) (size 15 to 20)
#    0.000    1.429    1.429    3.000    8.000    0.000 
#    0.000    2.857    0.000    0.000    0.000    0.000 
#    0.000    0.000    0.000    0.000    0.000    0.000 
#
# Total GULP energy -156486.464524 kJ/mol
# GULP energy per Si atom -5588.802304 kJ/mol
# Density = 2.319328 g / cm^3
# Si number density = 23.246193 Si / 1000 Ang^3
#
#
#
# Elastic Constant Matrix: (Units=GPa)
#
#
# Indices 1 2 3 4 5 6 
#
# 1 17.2556 5.3320 -6.9390 0.0000 6.9925 0.0000
# 2 5.3320 102.6388 0.5337 0.0000 1.5484 0.0000
# 3 -6.9390 0.5337 71.3398 0.0000 16.1671 0.0000
# 4 0.0000 0.0000 0.0000 32.4032 0.0000 3.3895
# 5 6.9925 1.5484 16.1671 0.0000 25.7152 0.0000
# 6 0.0000 0.0000 0.0000 3.3895 0.0000 19.6116
#
#
#
# Elastic Compliance Matrix: (Units=1/GPa)
#
#
# Indices 1 2 3 4 5 6 
#
# 1 0.076767 -0.003616 0.014198 0.000000 -0.029583 0.000000
# 2 -0.003616 0.009922 -0.000599 0.000000 0.000762 0.000000
# 3 0.014198 -0.000599 0.018973 0.000000 -0.015753 0.000000
# 4 0.000000 0.000000 0.000000 0.031429 0.000000 -0.005432
# 5 -0.029583 0.000762 -0.015753 0.000000 0.056790 0.000000
# 6 0.000000 0.000000 0.000000 -0.005432 0.000000 0.051929
#
#
# Mechanical properties :
#
#
# Convention : Reuss Voigt Hill
#
# Bulk Modulus (GPa) = 7.95991 21.00974 14.48483
# Shear Modulus (GPa) = 18.67634 28.36653 23.52143
#
# Velocity S-wave (km/s) = 2.83753 3.49702 3.18439
# Velocity P-wave (km/s) = 3.76392 5.03618 4.44579
#
# Compressibility (1/GPa) = 0.12562953
#
# Stress axis : x y z
#
# Youngs Moduli (GPa) = 13.02650 100.78263 52.70707
#
# Poissons Ratio (x) = 0.36438 -0.74833
# Poissons Ratio (y) = 0.04710 0.03155
# Poissons Ratio (z) = -0.18495 0.06033
#
# Static dielectric constant tensor:
#      x y z
#    x 1.877950 0.000000 -0.031560 
#    y 0.000000 1.854240 0.000000 
#    z -0.031560 0.000000 1.944980 
# 
# From -- ./inp_files/65580.got.cif
#   From: 2010.05.17/outbox.cif.g08.bks.cpg/sg15_33_cif.got.tgz:65580.got - 2010.06.03 18:47:42.
