data_PCOD9289144
_publ_section_title
;
Structure prediction by ZEFSAII (Michael W. Deem and Ramdas Pophale) SiO2 
 PCOD9289144
Probable space group: C 2/C
;
_chemical_formula_sum "Si O2"
_cell_formula_units_Z 56
_cell_length_a 19.637014
_cell_length_b 12.519839
_cell_length_c 12.067620
_cell_angle_alpha 90.000000
_cell_angle_beta 75.029024
_cell_angle_gamma 90.000000
_cell_volume 2866.147170
_symmetry_space_group_name_H-M "C 2/C"
_symmetry_group_IT_number 15
_symmetry_cell_setting 'monoclinic'
loop_
_space_group_symop_operation_xyz
x,y,z
-x,y,1/2-z
-x,-y,-z
x,-y,1/2+z
1/2+x,1/2+y,z
1/2-x,1/2+y,1/2-z
1/2-x,1/2-y,-z
1/2+x,1/2-y,1/2+z
loop_
_atom_site_type_symbol
_atom_site_label
_atom_site_fract_x
_atom_site_fract_y
_atom_site_fract_z
Si Si1 0.376785 0.835940 0.157520
Si Si2 0.311354 0.344575 0.984901
Si Si3 0.500000 0.722916 0.750000
Si Si4 0.161319 0.108361 0.278195
Si Si5 0.084458 0.409384 0.600513
Si Si6 0.500000 0.915187 0.250000
Si Si7 0.716745 0.007954 0.668361
Si Si8 0.438014 0.573839 0.583707
O O1 0.359764 0.713113 0.145312
O O2 0.439119 0.845949 0.221056
O O3 0.311725 0.897593 0.241113
O O4 0.399053 0.889994 0.033993
O O5 0.266470 0.442109 0.053701
O O6 0.383961 0.353180 0.029973
O O7 0.250000 0.250000 0.000000
O O8 0.339428 0.362962 0.850070
O O9 0.556831 0.802567 0.671103
O O10 0.471423 0.650618 0.662086
O O11 0.239753 0.073999 0.276712
O O12 0.111250 0.011295 0.332269
O O13 0.028702 0.504507 0.643783
O O14 0.152378 0.450281 0.637124
O O15 0.500000 0.500000 0.500000
#
# Coordination Sequence:
#
# PCOD9289144 Si02
#       8
#     8   8   4   8   8   4   8   8
#     4  11  21  39  61  88 121 162 211 263 322 384
#     4  11  23  43  66  96 129 176 221 275 331 394
#     4  11  24  41  64  94 134 173 210 271 340 390
#     4  11  24  39  66  93 126 166 218 265 330 392
#     4  10  22  40  61  89 123 168 210 262 328 390
#     4   9  22  39  58  88 122 159 210 265 316 384
#     4  10  23  41  62  91 128 165 214 271 321 394
#     4  11  25  45  67  98 136 175 224 278 337 409
#
# _framework density 19.538425
#
# number of rings (size 3 to 8) (size 9 to 14) (size 15 to 20)
#    0.000    1.429    1.429    3.000    2.000    4.571 
#    2.571    0.000    0.000    0.000    0.000    0.000 
#    0.000    0.000    0.000    0.000    0.000    0.000 
#
# Total GULP energy -156165.641785 kJ/mol
# GULP energy per Si atom -5577.344349 kJ/mol
# Density = 1.949395 g / cm^3
# Si number density = 19.538425 Si / 1000 Ang^3
#
#
#
# Elastic Constant Matrix: (Units=GPa)
#
#
# Indices 1 2 3 4 5 6 
#
# 1 87.2775 41.6982 7.8365 0.0000 8.3967 0.0000
# 2 41.6982 67.4037 -6.2319 0.0000 15.1582 0.0000
# 3 7.8365 -6.2319 69.0134 0.0000 -0.0925 0.0000
# 4 0.0000 0.0000 0.0000 24.6443 0.0000 -1.7540
# 5 8.3967 15.1582 -0.0925 0.0000 27.4674 0.0000
# 6 0.0000 0.0000 0.0000 -1.7540 0.0000 22.9926
#
#
#
# Elastic Compliance Matrix: (Units=1/GPa)
#
#
# Indices 1 2 3 4 5 6 
#
# 1 0.016828 -0.010867 -0.002891 0.000000 0.000843 0.000000
# 2 -0.010867 0.024116 0.003398 0.000000 -0.009975 0.000000
# 3 -0.002891 0.003398 0.015124 0.000000 -0.000941 0.000000
# 4 0.000000 0.000000 0.000000 0.040799 0.000000 0.003112
# 5 0.000843 -0.009975 -0.000941 0.000000 0.041651 0.000000
# 6 0.000000 0.000000 0.000000 0.003112 0.000000 0.043730
#
#
# Mechanical properties :
#
#
# Convention : Reuss Voigt Hill
#
# Bulk Modulus (GPa) = 28.28993 34.47780 31.38386
# Shear Modulus (GPa) = 23.28277 27.04698 25.16488
#
# Velocity S-wave (km/s) = 3.45576 3.72465 3.59272
# Velocity P-wave (km/s) = 5.51666 6.01513 5.77128
#
# Compressibility (1/GPa) = 0.03534827
#
# Stress axis : x y z
#
# Youngs Moduli (GPa) = 59.42393 41.46541 66.12082
#
# Poissons Ratio (x) = 0.45062 0.19116
# Poissons Ratio (y) = 0.64579 -0.22470
# Poissons Ratio (z) = 0.17180 -0.14091
#
# Static dielectric constant tensor:
#      x y z
#    x 1.721290 0.000000 0.000100 
#    y 0.000000 1.677340 0.000000 
#    z 0.000100 0.000000 1.668170 
# 
# From -- ./inp_files/111148.got.cif
#   From: 2010.05.17/outbox.cif.g08.bks.cpg/sg15_56_cif.got.tgz:111148.got - 2010.06.03 18:47:42.
