data_PCOD9289640
_publ_section_title
;
Structure prediction by ZEFSAII (Michael W. Deem and Ramdas Pophale) SiO2 
 PCOD9289640
Probable space group: C 2/C
;
_chemical_formula_sum "Si O2"
_cell_formula_units_Z 44
_cell_length_a 27.193182
_cell_length_b 8.906803
_cell_length_c 21.773672
_cell_angle_alpha 90.000000
_cell_angle_beta 18.175994
_cell_angle_gamma 90.000000
_cell_volume 1645.054385
_symmetry_space_group_name_H-M "C 2/C"
_symmetry_group_IT_number 15
_symmetry_cell_setting 'monoclinic'
loop_
_space_group_symop_operation_xyz
x,y,z
-x,y,1/2-z
-x,-y,-z
x,-y,1/2+z
1/2+x,1/2+y,z
1/2-x,1/2+y,1/2-z
1/2-x,1/2-y,-z
1/2+x,1/2-y,1/2+z
loop_
_atom_site_type_symbol
_atom_site_label
_atom_site_fract_x
_atom_site_fract_y
_atom_site_fract_z
Si Si1 0.000000 0.965983 0.250000
Si Si2 0.276696 0.755857 0.796005
Si Si3 0.922098 0.255857 0.505202
Si Si4 0.762685 0.779646 0.074856
Si Si5 0.062234 0.279646 0.775307
Si Si6 0.500000 0.034017 0.750000
Si Si7 0.500000 0.500000 0.000000
O O1 0.923313 0.860273 0.288288
O O2 0.870675 0.078681 0.431393
O O3 0.369972 0.838659 0.630028
O O4 0.303475 0.806196 0.833829
O O5 0.348691 0.589838 0.708930
O O6 0.093507 0.751969 0.998864
O O7 0.778248 0.251969 0.629382
O O8 0.078084 0.306196 0.284612
O O9 0.963931 0.089838 0.478448
O O10 0.846513 0.639728 0.941886
O O11 0.025190 0.421319 0.776877
#
# Coordination Sequence:
#
# PCOD9289640 Si02
#       7
#     4   8   8   8   8   4   4
#     4  10  26  40  68  92 130 180 210 268 310 382
#     4  10  22  40  66  95 127 169 205 274 319 380
#     4  10  22  40  66  95 127 169 205 274 319 380
#     4  11  23  44  64  96 131 167 222 258 322 381
#     4  11  23  44  64  96 131 167 222 258 322 381
#     4  10  26  40  68  92 130 180 210 268 310 382
#     4   8  20  36  64  92 124 164 200 256 334 352
#
# _framework density 26.746838
#
# number of rings (size 3 to 8) (size 9 to 14) (size 15 to 20)
#    1.091    0.727    0.000    3.273    0.000   10.182 
#    0.000    1.818    0.000    0.000    0.000    0.000 
#    0.000    0.000    0.000    0.000    0.000    0.000 
#
# Total GULP energy -122782.882110 kJ/mol
# GULP energy per Si atom -5581.040096 kJ/mol
# Density = 2.668596 g / cm^3
# Si number density = 26.746838 Si / 1000 Ang^3
#
#
#
# Elastic Constant Matrix: (Units=GPa)
#
#
# Indices 1 2 3 4 5 6 
#
# 1 96.1870 23.7103 18.0287 0.0002 16.3175 -0.0001
# 2 23.7103 123.3498 23.4904 0.0006 12.6793 -0.0003
# 3 18.0287 23.4904 95.6254 0.0008 16.1335 -0.0005
# 4 0.0002 0.0006 0.0008 38.5032 -0.0004 3.2521
# 5 16.3175 12.6793 16.1335 -0.0004 49.6179 0.0003
# 6 -0.0001 -0.0003 -0.0005 3.2521 0.0003 38.5595
#
#
#
# Elastic Compliance Matrix: (Units=1/GPa)
#
#
# Indices 1 2 3 4 5 6 
#
# 1 0.011548 -0.001675 -0.001267 0.000000 -0.002958 0.000000
# 2 -0.001675 0.008867 -0.001664 0.000000 -0.001174 0.000000
# 3 -0.001267 -0.001664 0.011599 0.000000 -0.002930 0.000000
# 4 0.000000 0.000000 0.000000 0.026158 0.000000 -0.002206
# 5 -0.002958 -0.001174 -0.002930 0.000000 0.022379 0.000000
# 6 0.000000 0.000000 0.000000 -0.002206 0.000000 0.026120
#
#
# Mechanical properties :
#
#
# Convention : Reuss Voigt Hill
#
# Bulk Modulus (GPa) = 43.85382 49.51343 46.68362
# Shear Modulus (GPa) = 40.49095 41.99832 41.24464
#
# Velocity S-wave (km/s) = 3.89506 3.96689 3.93114
# Velocity P-wave (km/s) = 6.05476 6.28759 6.17227
#
# Compressibility (1/GPa) = 0.02280303
#
# Stress axis : x y z
#
# Youngs Moduli (GPa) = 86.59169 112.78391 86.21098
#
# Poissons Ratio (x) = 0.18886 0.10922
# Poissons Ratio (y) = 0.14500 0.14348
# Poissons Ratio (z) = 0.10970 0.18771
#
# Static dielectric constant tensor:
#      x y z
#    x 2.058420 0.000000 0.056120 
#    y 0.000000 2.070980 0.000000 
#    z 0.056120 0.000000 2.057450 
# 
# From -- ./inp_files/284396.got.cif
#   From: 2010.05.17/outbox.cif.g08.bks.cpg/sg15_143_cif.got.tgz:284396.got - 2010.06.03 18:47:42.
