data_PCOD9289822
_publ_section_title
;
Structure prediction by ZEFSAII (Michael W. Deem and Ramdas Pophale) SiO2 
 PCOD9289822
Probable space group: C 2/C
;
_chemical_formula_sum "Si O2"
_cell_formula_units_Z 44
_cell_length_a 18.655008
_cell_length_b 13.215906
_cell_length_c 24.416876
_cell_angle_alpha 90.000000
_cell_angle_beta 160.311384
_cell_angle_gamma 90.000000
_cell_volume 2028.121879
_symmetry_space_group_name_H-M "C 2/C"
_symmetry_group_IT_number 15
_symmetry_cell_setting 'monoclinic'
loop_
_space_group_symop_operation_xyz
x,y,z
-x,y,1/2-z
-x,-y,-z
x,-y,1/2+z
1/2+x,1/2+y,z
1/2-x,1/2+y,1/2-z
1/2-x,1/2-y,-z
1/2+x,1/2-y,1/2+z
loop_
_atom_site_type_symbol
_atom_site_label
_atom_site_fract_x
_atom_site_fract_y
_atom_site_fract_z
Si Si1 0.260145 0.630468 0.503042
Si Si2 0.640330 0.043739 0.217808
Si Si3 0.731021 0.970314 0.396856
Si Si4 0.000000 0.994577 0.750000
Si Si5 0.115594 0.172506 0.188362
Si Si6 0.398828 0.875214 0.995589
O O1 0.250000 0.750000 0.500000
O O2 0.242151 0.583554 0.429718
O O3 0.464984 0.573396 0.675244
O O4 0.064748 0.589961 0.399245
O O5 0.778993 0.131954 0.291691
O O6 0.747891 0.978866 0.343709
O O7 0.565580 0.968138 0.115722
O O8 0.500000 0.930111 0.250000
O O9 0.916640 0.902363 0.555284
O O10 0.201187 0.921801 0.887248
O O11 0.292370 0.162485 0.362795
O O12 0.017160 0.282923 0.110091
#
# Coordination Sequence:
#
# PCOD9289822 Si02
#       6
#     8   8   8   4   8   8
#     4  10  22  40  68  95 129 173 220 271 333 383
#     4  10  24  43  62  97 134 164 225 275 322 397
#     4  10  22  42  65  97 127 175 226 273 322 398
#     4  10  22  44  64 100 132 164 226 288 304 404
#     4  12  24  43  67  95 134 180 214 275 340 397
#     4  11  25  43  67  99 130 176 222 271 342 386
#
# _framework density 21.694949000000001
#
# number of rings (size 3 to 8) (size 9 to 14) (size 15 to 20)
#    0.000    1.455    1.818    2.182    5.091    3.636 
#    3.273    0.000    0.000    0.000    0.000    0.000 
#    0.000    0.000    0.000    0.000    0.000    0.000 
#
# Total GULP energy -122846.985011 kJ/mol
# GULP energy per Si atom -5583.953864 kJ/mol
# Density = 2.164557 g / cm^3
# Si number density = 21.694949 Si / 1000 Ang^3
#
#
#
# Elastic Constant Matrix: (Units=GPa)
#
#
# Indices 1 2 3 4 5 6 
#
# 1 57.5338 18.3944 25.8647 0.0018 -13.7517 -0.0008
# 2 18.3944 141.6748 46.5304 0.0219 -4.7508 -0.0007
# 3 25.8647 46.5304 80.7236 0.0305 -25.4808 -0.0037
# 4 0.0018 0.0219 0.0305 31.1142 -0.0089 0.3326
# 5 -13.7517 -4.7508 -25.4808 -0.0089 37.3824 -0.0033
# 6 -0.0008 -0.0007 -0.0037 0.3326 -0.0033 21.5801
#
#
#
# Elastic Compliance Matrix: (Units=1/GPa)
#
#
# Indices 1 2 3 4 5 6 
#
# 1 0.020867 -0.001007 -0.004744 0.000005 0.004315 0.000000
# 2 -0.001007 0.009018 -0.005900 -0.000001 -0.003246 -0.000001
# 3 -0.004744 -0.005900 0.021051 -0.000013 0.011854 0.000005
# 4 0.000005 -0.000001 -0.000013 0.032145 0.000001 -0.000495
# 5 0.004315 -0.003246 0.011854 0.000001 0.036005 0.000008
# 6 0.000000 -0.000001 0.000005 -0.000495 0.000008 0.046347
#
#
# Mechanical properties :
#
#
# Convention : Reuss Voigt Hill
#
# Bulk Modulus (GPa) = 36.18689 51.27901 43.73295
# Shear Modulus (GPa) = 25.25955 30.62485 27.94220
#
# Velocity S-wave (km/s) = 3.41589 3.76122 3.59271
# Velocity P-wave (km/s) = 5.68101 6.52304 6.11653
#
# Compressibility (1/GPa) = 0.02763432
#
# Stress axis : x y z
#
# Youngs Moduli (GPa) = 47.92294 110.88821 47.50455
#
# Poissons Ratio (x) = 0.11162 0.22535
# Poissons Ratio (y) = 0.04824 0.28029
# Poissons Ratio (z) = 0.22734 0.65427
#
# Static dielectric constant tensor:
#      x y z
#    x 1.806430 0.000000 -0.054370 
#    y 0.000000 1.744710 -0.000020 
#    z -0.054370 -0.000020 1.880140 
# 
# From -- ./inp_files/54354.got.cif
#   From: 2010.05.17/outbox.cif.g08.bks.cpg/sg15_28_cif.got.tgz:54354.got - 2010.06.03 18:47:42.
