data_PCOD9289139
_publ_section_title
;
Structure prediction by ZEFSAII (Michael W. Deem and Ramdas Pophale) SiO2 
 PCOD9289139
Probable space group: C 2/C
;
_chemical_formula_sum "Si O2"
_cell_formula_units_Z 56
_cell_length_a 22.214752
_cell_length_b 10.121474
_cell_length_c 27.150888
_cell_angle_alpha 90.000000
_cell_angle_beta 25.467078
_cell_angle_gamma 90.000000
_cell_volume 2625.004509
_symmetry_space_group_name_H-M "C 2/C"
_symmetry_group_IT_number 15
_symmetry_cell_setting 'monoclinic'
loop_
_space_group_symop_operation_xyz
x,y,z
-x,y,1/2-z
-x,-y,-z
x,-y,1/2+z
1/2+x,1/2+y,z
1/2-x,1/2+y,1/2-z
1/2-x,1/2-y,-z
1/2+x,1/2-y,1/2+z
loop_
_atom_site_type_symbol
_atom_site_label
_atom_site_fract_x
_atom_site_fract_y
_atom_site_fract_z
Si Si1 0.433230 0.808325 0.049252
Si Si2 0.233854 0.993126 0.727841
Si Si3 0.694120 0.920271 0.718955
Si Si4 0.602141 0.175398 0.627322
Si Si5 0.998211 0.780060 0.106119
Si Si6 0.782951 0.992421 0.549154
Si Si7 0.016271 0.222366 0.380779
O O1 0.357577 0.950091 0.103247
O O2 0.315027 0.692572 0.134039
O O3 0.501614 0.785419 0.052017
O O4 0.515502 0.779899 0.938734
O O5 0.111466 0.100237 0.811328
O O6 0.285381 0.001045 0.746158
O O7 0.166697 0.851134 0.766760
O O8 0.550758 0.838589 0.823424
O O9 0.722755 0.997117 0.648446
O O10 0.500000 0.221647 0.750000
O O11 0.750000 0.250000 0.500000
O O12 0.511000 0.183028 0.645167
O O13 0.663735 0.035676 0.599465
O O14 0.145458 0.848965 0.009312
O O15 0.903737 0.103732 0.458717
#
# Coordination Sequence:
#
# PCOD9289139 Si02
#       7
#     8   8   8   8   8   8   8
#     4   9  17  29  48  79 117 150 190 235 299 360
#     4   9  17  29  48  76 117 152 188 234 304 357
#     4   9  17  29  49  80 113 157 190 237 295 372
#     4  10  22  40  61  89 118 159 210 256 303 356
#     4   9  17  31  50  79 117 154 198 241 297 361
#     4   9  18  34  57  77 114 163 203 248 300 353
#     4   9  18  34  53  83 117 157 199 252 298 362
#
# _framework density 21.333297000000002
#
# number of rings (size 3 to 8) (size 9 to 14) (size 15 to 20)
#    0.000    2.857    0.000    0.857    2.000    4.000 
#    7.714    1.429    0.000    0.857    0.000   14.000 
#    0.000    0.000    0.000    0.000    0.000    0.000 
#
# Total GULP energy -155964.831418 kJ/mol
# GULP energy per Si atom -5570.172551 kJ/mol
# Density = 2.128474 g / cm^3
# Si number density = 21.333297 Si / 1000 Ang^3
#
#
#
# Elastic Constant Matrix: (Units=GPa)
#
#
# Indices 1 2 3 4 5 6 
#
# 1 113.9043 31.4366 21.8656 0.0001 6.1492 0.0000
# 2 31.4366 38.2096 18.7328 0.0002 -6.1076 0.0000
# 3 21.8656 18.7328 88.3398 0.0004 -2.6234 0.0000
# 4 0.0001 0.0002 0.0004 12.4106 -0.0001 5.7705
# 5 6.1492 -6.1076 -2.6234 -0.0001 15.7081 0.0000
# 6 0.0000 0.0000 0.0000 5.7705 0.0000 27.0686
#
#
#
# Elastic Compliance Matrix: (Units=1/GPa)
#
#
# Indices 1 2 3 4 5 6 
#
# 1 0.012645 -0.011449 -0.000986 0.000000 -0.009567 0.000000
# 2 -0.011449 0.041359 -0.005352 0.000000 0.019670 0.000000
# 3 -0.000986 -0.005352 0.012712 0.000000 0.000428 0.000000
# 4 0.000000 0.000000 0.000000 0.089442 0.000000 -0.019067
# 5 -0.009567 0.019670 0.000428 0.000000 0.075126 0.000000
# 6 0.000000 0.000000 0.000000 -0.019067 0.000000 0.041008
#
#
# Mechanical properties :
#
#
# Convention : Reuss Voigt Hill
#
# Bulk Modulus (GPa) = 32.11246 42.72486 37.41866
# Shear Modulus (GPa) = 15.71105 22.26536 18.98820
#
# Velocity S-wave (km/s) = 2.71672 3.23412 2.98665
# Velocity P-wave (km/s) = 4.99261 5.83240 5.42877
#
# Compressibility (1/GPa) = 0.03114056
#
# Stress axis : x y z
#
# Youngs Moduli (GPa) = 79.08297 24.17827 78.66760
#
# Poissons Ratio (x) = 0.27682 0.07757
# Poissons Ratio (y) = 0.90544 0.42106
# Poissons Ratio (z) = 0.07798 0.12941
#
# Static dielectric constant tensor:
#      x y z
#    x 1.750550 0.000000 -0.052790 
#    y 0.000000 1.804800 0.000000 
#    z -0.052790 0.000000 1.908550 
# 
# From -- ./inp_files/111005.got.cif
#   From: 2010.05.17/outbox.cif.g08.bks.cpg/sg15_56_cif.got.tgz:111005.got - 2010.06.03 18:47:42.
