data_PCOD9289856
_publ_section_title
;
Structure prediction by ZEFSAII (Michael W. Deem and Ramdas Pophale) SiO2 
 PCOD9289856
Probable space group: C 2/C
;
_chemical_formula_sum "Si O2"
_cell_formula_units_Z 56
_cell_length_a 9.337393
_cell_length_b 12.971976
_cell_length_c 25.006318
_cell_angle_alpha 90.000000
_cell_angle_beta 61.379664
_cell_angle_gamma 90.000000
_cell_volume 2658.786968
_symmetry_space_group_name_H-M "C 2/C"
_symmetry_group_IT_number 15
_symmetry_cell_setting 'monoclinic'
loop_
_space_group_symop_operation_xyz
x,y,z
-x,y,1/2-z
-x,-y,-z
x,-y,1/2+z
1/2+x,1/2+y,z
1/2-x,1/2+y,1/2-z
1/2-x,1/2-y,-z
1/2+x,1/2-y,1/2+z
loop_
_atom_site_type_symbol
_atom_site_label
_atom_site_fract_x
_atom_site_fract_y
_atom_site_fract_z
Si Si1 0.179699 0.150125 0.074827
Si Si2 0.516096 0.854332 0.052908
Si Si3 0.461132 0.478531 0.069276
Si Si4 0.917144 0.463805 0.349691
Si Si5 0.971460 0.315894 0.693412
Si Si6 0.824662 0.203705 0.932435
Si Si7 0.346945 0.746984 0.307128
O O1 0.082811 0.243214 0.062202
O O2 0.202409 0.186015 0.130890
O O3 0.064203 0.053545 0.087931
O O4 0.351973 0.123382 0.016714
O O5 0.531108 0.930706 0.100048
O O6 0.331972 0.852428 0.065334
O O7 0.271726 0.496034 0.112640
O O8 0.524276 0.365859 0.074406
O O9 0.500000 0.500000 0.000000
O O10 0.907074 0.359852 0.316010
O O11 0.025657 0.559125 0.310544
O O12 0.805537 0.260697 0.704804
O O13 0.000000 0.287753 0.750000
O O14 0.106165 0.278534 0.626013
O O15 0.750000 0.250000 0.000000
O O16 0.500000 0.696952 0.250000
#
# Coordination Sequence:
#
# PCOD9289856 Si02
#       7
#     8   8   8   8   8   8   8
#     4  10  22  40  68  98 143 178 239 291 363 421
#     4  10  22  40  71 102 134 185 231 298 353 426
#     4  12  23  42  67 106 141 185 233 301 361 430
#     4  11  24  46  73 101 142 185 237 290 366 428
#     4  12  28  49  73 107 144 188 241 301 366 433
#     4  12  26  44  71 105 145 186 246 295 359 436
#     4  11  26  48  70 100 142 191 241 292 360 438
#
# _framework density 21.062235999999999
#
# number of rings (size 3 to 8) (size 9 to 14) (size 15 to 20)
#    0.000    0.857    2.857    3.857   10.000    0.571 
#    0.000    0.714    0.000    0.000    0.000    0.000 
#    0.000    0.000    0.000    0.000    0.000    0.000 
#
# Total GULP energy -156531.238273 kJ/mol
# GULP energy per Si atom -5590.401367 kJ/mol
# Density = 2.101430 g / cm^3
# Si number density = 21.062236 Si / 1000 Ang^3
#
#
#
# Elastic Constant Matrix: (Units=GPa)
#
#
# Indices 1 2 3 4 5 6 
#
# 1 111.4649 11.5628 46.3248 0.0000 14.5681 0.0000
# 2 11.5628 56.5946 23.4084 0.0000 20.9124 0.0000
# 3 46.3248 23.4084 122.5473 0.0000 26.7288 0.0000
# 4 0.0000 0.0000 0.0000 22.5679 0.0000 -4.4601
# 5 14.5681 20.9124 26.7288 0.0000 38.2596 0.0000
# 6 0.0000 0.0000 0.0000 -4.4601 0.0000 23.0691
#
#
#
# Elastic Compliance Matrix: (Units=1/GPa)
#
#
# Indices 1 2 3 4 5 6 
#
# 1 0.010714 -0.000130 -0.003718 0.000000 -0.001412 0.000000
# 2 -0.000130 0.022515 -0.001862 0.000000 -0.010956 0.000000
# 3 -0.003718 -0.001862 0.011078 0.000000 -0.005306 0.000000
# 4 0.000000 0.000000 0.000000 0.046071 0.000000 0.008907
# 5 -0.001412 -0.010956 -0.005306 0.000000 0.036370 0.000000
# 6 0.000000 0.000000 0.000000 0.008907 0.000000 0.045070
#
#
# Mechanical properties :
#
#
# Convention : Reuss Voigt Hill
#
# Bulk Modulus (GPa) = 30.40541 50.35540 40.38041
# Shear Modulus (GPa) = 25.74659 30.73337 28.23998
#
# Velocity S-wave (km/s) = 3.50008 3.82405 3.66565
# Velocity P-wave (km/s) = 5.54991 6.59224 6.09340
#
# Compressibility (1/GPa) = 0.03288888
#
# Stress axis : x y z
#
# Youngs Moduli (GPa) = 93.33233 44.41573 90.26553
#
# Poissons Ratio (x) = 0.00577 0.33556
# Poissons Ratio (y) = 0.01212 0.16807
# Poissons Ratio (z) = 0.34696 0.08270
#
# Static dielectric constant tensor:
#      x y z
#    x 1.714830 0.000000 0.018880 
#    y 0.000000 1.783560 0.000000 
#    z 0.018880 0.000000 1.676590 
# 
# From -- ./inp_files/264568.got.cif
#   From: 2010.05.17/outbox.cif.g08.bks.cpg/sg15_133_cif.got.tgz:264568.got - 2010.06.03 18:47:42.
