data_PCOD9289535
_publ_section_title
;
Structure prediction by ZEFSAII (Michael W. Deem and Ramdas Pophale) SiO2 
 PCOD9289535
Probable space group: C 2/C
;
_chemical_formula_sum "Si O2"
_cell_formula_units_Z 32
_cell_length_a 10.919309
_cell_length_b 23.982408
_cell_length_c 4.962584
_cell_angle_alpha 90.000000
_cell_angle_beta 88.352984
_cell_angle_gamma 90.000000
_cell_volume 1299.021549
_symmetry_space_group_name_H-M "C 2/C"
_symmetry_group_IT_number 15
_symmetry_cell_setting 'monoclinic'
loop_
_space_group_symop_operation_xyz
x,y,z
-x,y,1/2-z
-x,-y,-z
x,-y,1/2+z
1/2+x,1/2+y,z
1/2-x,1/2+y,1/2-z
1/2-x,1/2-y,-z
1/2+x,1/2-y,1/2+z
loop_
_atom_site_type_symbol
_atom_site_label
_atom_site_fract_x
_atom_site_fract_y
_atom_site_fract_z
Si Si1 0.500000 0.919224 0.750000
Si Si2 0.000000 0.769700 0.750000
Si Si3 0.758088 0.035058 0.111598
Si Si4 0.657058 0.824260 0.958664
Si Si5 0.186784 0.157847 0.548863
O O1 0.388982 0.953511 0.886776
O O2 0.432606 0.877598 0.544715
O O3 0.910396 0.729116 0.921482
O O4 0.928869 0.808153 0.543003
O O5 0.820555 0.092815 0.026630
O O6 0.788662 0.014356 0.406349
O O7 0.770773 0.836515 0.147476
O O8 0.703505 0.818376 0.649928
#
# Coordination Sequence:
#
# PCOD9289535 Si02
#       5
#     4   4   8   8   8
#     4  10  22  40  65  96 125 160 200 256 328 380
#     4  12  24  44  69  90 127 178 202 250 324 370
#     4  11  22  39  61  90 124 163 207 260 308 361
#     4  11  24  42  64  98 131 158 204 263 311 381
#     4  11  26  43  63  96 128 162 215 259 304 378
#
# _framework density 24.633924
#
# number of rings (size 3 to 8) (size 9 to 14) (size 15 to 20)
#    0.000    1.000    0.000    8.250    0.000    9.000 
#    0.000    1.250    0.000    0.000    0.000    0.000 
#    0.000    0.000    0.000    0.000    0.000    0.000 
#
# Total GULP energy -89775.744017 kJ/mol
# GULP energy per Si atom -5610.984001 kJ/mol
# Density = 2.457786 g / cm^3
# Si number density = 24.633924 Si / 1000 Ang^3
#
#
#
# Elastic Constant Matrix: (Units=GPa)
#
#
# Indices 1 2 3 4 5 6 
#
# 1 17.6100 23.8013 7.4977 0.0000 4.5610 0.0000
# 2 23.8013 126.1779 13.5029 0.0000 5.2363 0.0000
# 3 7.4977 13.5029 92.4871 0.0000 8.1464 0.0000
# 4 0.0000 0.0000 0.0000 29.4529 0.0000 19.2138
# 5 4.5610 5.2363 8.1464 0.0000 30.7714 0.0000
# 6 0.0000 0.0000 0.0000 19.2138 0.0000 17.8094
#
#
#
# Elastic Compliance Matrix: (Units=1/GPa)
#
#
# Indices 1 2 3 4 5 6 
#
# 1 0.079890 -0.014330 -0.003641 0.000000 -0.008439 0.000000
# 2 -0.014330 0.010657 -0.000432 0.000000 0.000425 0.000000
# 3 -0.003641 -0.000432 0.011382 0.000000 -0.002400 0.000000
# 4 0.000000 0.000000 0.000000 0.114628 0.000000 -0.123668
# 5 -0.008439 0.000425 -0.002400 0.000000 0.034312 0.000000
# 6 0.000000 0.000000 0.000000 -0.123668 0.000000 0.189571
#
#
# Mechanical properties :
#
#
# Convention : Reuss Voigt Hill
#
# Bulk Modulus (GPa) = 15.35545 36.20877 25.78211
# Shear Modulus (GPa) = 10.02099 28.37162 19.19630
#
# Velocity S-wave (km/s) = 2.01911 3.39740 2.79456
# Velocity P-wave (km/s) = 3.41800 5.48820 4.57182
#
# Compressibility (1/GPa) = 0.06512344
#
# Stress axis : x y z
#
# Youngs Moduli (GPa) = 12.51724 93.83525 87.85874
#
# Poissons Ratio (x) = 1.34466 0.31990
# Poissons Ratio (y) = 0.17937 0.03792
# Poissons Ratio (z) = 0.04558 0.04050
#
# Static dielectric constant tensor:
#      x y z
#    x 1.997120 0.000000 -0.031270 
#    y 0.000000 1.928370 0.000000 
#    z -0.031270 0.000000 1.880740 
# 
# From -- ./inp_files/4026.got.cif
#   From: 2010.05.17/outbox.cif.g08.bks.cpg/sg15_3_cif.got.tgz:4026.got - 2010.06.03 18:47:42.
