data_PCOD9289753
_publ_section_title
;
Structure prediction by ZEFSAII (Michael W. Deem and Ramdas Pophale) SiO2 
 PCOD9289753
Probable space group: C 2/C
;
_chemical_formula_sum "Si O2"
_cell_formula_units_Z 40
_cell_length_a 15.394158
_cell_length_b 7.238290
_cell_length_c 14.087456
_cell_angle_alpha 90.000000
_cell_angle_beta 101.211469
_cell_angle_gamma 90.000000
_cell_volume 1539.772018
_symmetry_space_group_name_H-M "C 2/C"
_symmetry_group_IT_number 15
_symmetry_cell_setting 'monoclinic'
loop_
_space_group_symop_operation_xyz
x,y,z
-x,y,1/2-z
-x,-y,-z
x,-y,1/2+z
1/2+x,1/2+y,z
1/2-x,1/2+y,1/2-z
1/2-x,1/2-y,-z
1/2+x,1/2-y,1/2+z
loop_
_atom_site_type_symbol
_atom_site_label
_atom_site_fract_x
_atom_site_fract_y
_atom_site_fract_z
Si Si1 0.288341 0.660784 0.361430
Si Si2 0.724731 0.504727 0.451909
Si Si3 0.934561 0.794547 0.656963
Si Si4 0.371917 0.007527 0.773365
Si Si5 0.575010 0.848907 0.534008
O O1 0.313256 0.516579 0.449320
O O2 0.225880 0.803239 0.405323
O O3 0.359790 0.800023 0.330943
O O4 0.225818 0.556958 0.274972
O O5 0.662287 0.619454 0.369635
O O6 0.824609 0.586449 0.475118
O O7 0.920043 0.582171 0.689343
O O8 0.958061 0.800059 0.550521
O O9 0.000000 0.878520 0.750000
O O10 0.414543 0.850586 0.849279
O O11 0.500000 0.000000 0.500000
#
# Coordination Sequence:
#
# PCOD9289753 Si02
#       5
#     8   8   8   8   8
#     4  10  22  40  67  99 128 178 231 278 351 409
#     4  10  23  43  67  96 139 180 227 293 341 409
#     4  12  24  44  67 101 139 185 230 280 344 411
#     4  11  22  39  67  98 135 178 229 279 349 411
#     4  11  22  40  67 103 132 177 234 280 337 413
#
# _framework density 25.977872999999999
#
# number of rings (size 3 to 8) (size 9 to 14) (size 15 to 20)
#    0.000    1.200    4.000    3.000    2.800    0.000 
#    0.000    8.000    0.000    0.000    0.000    0.000 
#    0.000    0.000    0.000    0.000    0.000    0.000 
#
# Total GULP energy -111470.455856 kJ/mol
# GULP energy per Si atom -5573.522793 kJ/mol
# Density = 2.591875 g / cm^3
# Si number density = 25.977873 Si / 1000 Ang^3
#
#
#
# Elastic Constant Matrix: (Units=GPa)
#
#
# Indices 1 2 3 4 5 6 
#
# 1 53.5497 8.2783 41.6667 0.0000 27.4532 0.0000
# 2 8.2783 45.0988 40.8113 0.0000 8.7273 0.0000
# 3 41.6667 40.8113 203.6574 0.0000 34.2491 0.0000
# 4 0.0000 0.0000 0.0000 41.1147 0.0000 -2.1689
# 5 27.4532 8.7273 34.2491 0.0000 55.6949 0.0000
# 6 0.0000 0.0000 0.0000 -2.1689 0.0000 25.8056
#
#
#
# Elastic Compliance Matrix: (Units=1/GPa)
#
#
# Indices 1 2 3 4 5 6 
#
# 1 0.027297 0.000618 -0.003825 0.000000 -0.011200 0.000000
# 2 0.000618 0.027150 -0.005354 0.000000 -0.001267 0.000000
# 3 -0.003825 -0.005354 0.007035 0.000000 -0.001602 0.000000
# 4 0.000000 0.000000 0.000000 0.024430 0.000000 0.002053
# 5 -0.011200 -0.001267 -0.001602 0.000000 0.024659 0.000000
# 6 0.000000 0.000000 0.000000 0.002053 0.000000 0.038924
#
#
# Mechanical properties :
#
#
# Convention : Reuss Voigt Hill
#
# Bulk Modulus (GPa) = 22.54284 53.75761 38.15023
# Shear Modulus (GPa) = 27.56273 38.62635 33.09454
#
# Velocity S-wave (km/s) = 3.26085 3.86021 3.57312
# Velocity P-wave (km/s) = 4.78268 6.37235 5.63387
#
# Compressibility (1/GPa) = 0.04435998
#
# Stress axis : x y z
#
# Youngs Moduli (GPa) = 36.63444 36.83196 142.14464
#
# Poissons Ratio (x) = -0.02277 0.54372
# Poissons Ratio (y) = -0.02265 0.76107
# Poissons Ratio (z) = 0.14013 0.19721
#
# Static dielectric constant tensor:
#      x y z
#    x 2.100690 0.000000 -0.096180 
#    y 0.000000 2.105920 0.000000 
#    z -0.096180 0.000000 2.119910 
# 
# From -- ./inp_files/159491.got.cif
#   From: 2010.05.17/outbox.cif.g08.bks.cpg/sg15_80_cif.got.tgz:159491.got - 2010.06.03 18:47:42.
