data_PCOD9289733
_publ_section_title
;
Structure prediction by ZEFSAII (Michael W. Deem and Ramdas Pophale) SiO2 
 PCOD9289733
Probable space group: C 2/C
;
_chemical_formula_sum "Si O2"
_cell_formula_units_Z 56
_cell_length_a 13.060297
_cell_length_b 9.716188
_cell_length_c 23.295239
_cell_angle_alpha 90.000000
_cell_angle_beta 56.160463
_cell_angle_gamma 90.000000
_cell_volume 2455.320945
_symmetry_space_group_name_H-M "C 2/C"
_symmetry_group_IT_number 15
_symmetry_cell_setting 'monoclinic'
loop_
_space_group_symop_operation_xyz
x,y,z
-x,y,1/2-z
-x,-y,-z
x,-y,1/2+z
1/2+x,1/2+y,z
1/2-x,1/2+y,1/2-z
1/2-x,1/2-y,-z
1/2+x,1/2-y,1/2+z
loop_
_atom_site_type_symbol
_atom_site_label
_atom_site_fract_x
_atom_site_fract_y
_atom_site_fract_z
Si Si1 0.606825 0.358994 0.265081
Si Si2 0.694446 0.341030 0.751721
Si Si3 0.685640 0.521145 0.487006
Si Si4 0.955442 0.803885 0.901637
Si Si5 0.995759 0.229097 0.916383
Si Si6 0.441019 0.985554 0.456781
Si Si7 0.243776 0.687846 0.620504
O O1 0.500000 0.355845 0.250000
O O2 0.692874 0.497212 0.232829
O O3 0.695238 0.223831 0.243941
O O4 0.532478 0.357609 0.348932
O O5 0.568034 0.337334 0.825798
O O6 0.691016 0.234918 0.698621
O O7 0.577840 0.417215 0.540849
O O8 0.622111 0.668527 0.513712
O O9 0.793750 0.499046 0.499430
O O10 0.743208 0.468083 0.408690
O O11 0.984888 0.659067 0.920623
O O12 0.835009 0.769950 0.901206
O O13 0.978934 0.387002 0.904765
O O14 0.114748 0.230744 0.919377
O O15 0.500000 0.000000 0.500000
#
# Coordination Sequence:
#
# PCOD9289733 Si02
#       7
#     8   8   8   8   8   8   8
#     4  11  26  50  73 107 149 192 247 306 363 441
#     4  11  25  46  75 102 142 192 240 298 374 431
#     4  11  22  42  67  98 137 180 233 293 365 428
#     4  11  22  42  68 100 132 184 236 288 363 428
#     4  11  23  43  65 101 141 182 238 296 373 427
#     4  11  24  41  65 100 140 181 233 297 358 441
#     4  10  22  40  67  96 133 177 236 289 347 440
#
# _framework density 22.80761
#
# number of rings (size 3 to 8) (size 9 to 14) (size 15 to 20)
#    0.000    1.143    1.429    5.571    4.000    1.143 
#   10.286    0.714    0.000    0.000    0.000    0.000 
#    0.000    0.000    0.000    0.000    0.000    0.000 
#
# Total GULP energy -156219.833764 kJ/mol
# GULP energy per Si atom -5579.279777 kJ/mol
# Density = 2.275570 g / cm^3
# Si number density = 22.807610 Si / 1000 Ang^3
#
#
#
# Elastic Constant Matrix: (Units=GPa)
#
#
# Indices 1 2 3 4 5 6 
#
# 1 82.6639 30.7968 19.6161 0.0000 2.2711 0.0000
# 2 30.7968 101.3789 27.7792 0.0000 11.5000 0.0000
# 3 19.6161 27.7792 83.5946 0.0000 5.3486 0.0000
# 4 0.0000 0.0000 0.0000 36.7619 0.0000 -11.3325
# 5 2.2711 11.5000 5.3486 0.0000 20.9465 0.0000
# 6 0.0000 0.0000 0.0000 -11.3325 0.0000 26.3724
#
#
#
# Elastic Compliance Matrix: (Units=1/GPa)
#
#
# Indices 1 2 3 4 5 6 
#
# 1 0.013978 -0.003799 -0.002088 0.000000 0.001104 0.000000
# 2 -0.003799 0.012453 -0.002883 0.000000 -0.005689 0.000000
# 3 -0.002088 -0.002883 0.013516 0.000000 -0.001642 0.000000
# 4 0.000000 0.000000 0.000000 0.031356 0.000000 0.013474
# 5 0.001104 -0.005689 -0.001642 0.000000 0.051164 0.000000
# 6 0.000000 0.000000 0.000000 0.013474 0.000000 0.043708
#
#
# Mechanical properties :
#
#
# Convention : Reuss Voigt Hill
#
# Bulk Modulus (GPa) = 44.63003 47.11352 45.87177
# Shear Modulus (GPa) = 26.15290 29.44583 27.79937
#
# Velocity S-wave (km/s) = 3.38993 3.59702 3.49501
# Velocity P-wave (km/s) = 5.91039 6.16062 6.03680
#
# Compressibility (1/GPa) = 0.02240644
#
# Stress axis : x y z
#
# Youngs Moduli (GPa) = 71.54214 80.29946 73.98885
#
# Poissons Ratio (x) = 0.30507 0.15450
# Poissons Ratio (y) = 0.27180 0.21330
# Poissons Ratio (z) = 0.14939 0.23149
#
# Static dielectric constant tensor:
#      x y z
#    x 1.876310 0.000000 0.017080 
#    y 0.000000 1.950290 0.000000 
#    z 0.017080 0.000000 1.866720 
# 
# From -- ./inp_files/273077.got.cif
#   From: 2010.05.17/outbox.cif.g08.bks.cpg/sg15_137_cif.got.tgz:273077.got - 2010.06.03 18:47:42.
