data_PCOD9289756
_publ_section_title
;
Structure prediction by ZEFSAII (Michael W. Deem and Ramdas Pophale) SiO2 
 PCOD9289756
Probable space group: C 2/C
;
_chemical_formula_sum "Si O2"
_cell_formula_units_Z 64
_cell_length_a 12.679819
_cell_length_b 16.665600
_cell_length_c 11.874129
_cell_angle_alpha 90.000000
_cell_angle_beta 102.830553
_cell_angle_gamma 90.000000
_cell_volume 2446.550744
_symmetry_space_group_name_H-M "C 2/C"
_symmetry_group_IT_number 15
_symmetry_cell_setting 'monoclinic'
loop_
_space_group_symop_operation_xyz
x,y,z
-x,y,1/2-z
-x,-y,-z
x,-y,1/2+z
1/2+x,1/2+y,z
1/2-x,1/2+y,1/2-z
1/2-x,1/2-y,-z
1/2+x,1/2-y,1/2+z
loop_
_atom_site_type_symbol
_atom_site_label
_atom_site_fract_x
_atom_site_fract_y
_atom_site_fract_z
Si Si1 0.594074 0.879250 0.867958
Si Si2 0.689208 0.274594 0.283707
Si Si3 0.124225 0.795564 0.802421
Si Si4 0.952477 0.587801 0.519283
Si Si5 0.106588 0.843526 0.051536
Si Si6 0.419309 0.582231 0.622679
Si Si7 0.311272 0.046453 0.660757
Si Si8 0.263568 0.546547 0.150114
O O1 0.500000 0.894938 0.750000
O O2 0.663732 0.806032 0.842489
O O3 0.537565 0.858554 0.973458
O O4 0.667309 0.959093 0.891516
O O5 0.803806 0.267663 0.248724
O O6 0.606930 0.283512 0.158320
O O7 0.662666 0.347351 0.360192
O O8 0.000000 0.785624 0.750000
O O9 0.167754 0.883556 0.774518
O O10 0.132443 0.800011 0.940750
O O11 0.916681 0.593456 0.639803
O O12 0.835301 0.591746 0.432303
O O13 0.000000 0.500000 0.500000
O O14 0.204113 0.904535 0.104503
O O15 0.993239 0.890697 0.035772
O O16 0.500000 0.571201 0.750000
O O17 0.350334 0.501767 0.596966
O O18 0.293833 0.018815 0.783981
#
# Coordination Sequence:
#
# PCOD9289756 Si02
#       8
#     8   8   8   8   8   8   8   8
#     4  11  20  37  68  98 137 178 227 279 345 402
#     4  11  23  45  71  94 141 181 227 284 345 428
#     4  12  27  45  72 102 139 178 236 292 344 413
#     4  10  23  38  62 104 137 179 230 283 344 405
#     4  11  24  46  70 104 130 186 233 283 351 414
#     4  10  22  40  67  99 135 177 227 281 351 411
#     4  11  21  39  67 101 135 171 233 291 333 407
#     4  12  21  41  69  98 140 182 230 294 342 402
#
# _framework density 26.159275999999998
#
# number of rings (size 3 to 8) (size 9 to 14) (size 15 to 20)
#    0.000    1.000    6.250    1.875    0.000    1.500 
#    2.250    3.750    2.750    0.000    0.000    0.000 
#    0.000    0.000    0.000    0.000    0.000    0.000 
#
# Total GULP energy -179083.565708 kJ/mol
# GULP energy per Si atom -5596.361428 kJ/mol
# Density = 2.609974 g / cm^3
# Si number density = 26.159276 Si / 1000 Ang^3
#
#
#
# Elastic Constant Matrix: (Units=GPa)
#
#
# Indices 1 2 3 4 5 6 
#
# 1 149.6916 49.6129 43.8099 0.0000 -40.6237 0.0000
# 2 49.6129 90.3924 14.2224 0.0000 -8.4850 0.0000
# 3 43.8099 14.2224 84.9373 0.0000 -29.6346 0.0000
# 4 0.0000 0.0000 0.0000 22.1132 0.0000 -8.6247
# 5 -40.6237 -8.4850 -29.6346 0.0000 60.7414 0.0000
# 6 0.0000 0.0000 0.0000 -8.6247 0.0000 45.9462
#
#
#
# Elastic Compliance Matrix: (Units=1/GPa)
#
#
# Indices 1 2 3 4 5 6 
#
# 1 0.010454 -0.004825 -0.002868 0.000000 0.004918 0.000000
# 2 -0.004825 0.013621 -0.000306 0.000000 -0.001473 0.000000
# 3 -0.002868 -0.000306 0.015209 0.000000 0.005459 0.000000
# 4 0.000000 0.000000 0.000000 0.048794 0.000000 0.009159
# 5 0.004918 -0.001473 0.005459 0.000000 0.022210 0.000000
# 6 0.000000 0.000000 0.000000 0.009159 0.000000 0.023484
#
#
# Mechanical properties :
#
#
# Convention : Reuss Voigt Hill
#
# Bulk Modulus (GPa) = 42.94618 60.03464 51.49041
# Shear Modulus (GPa) = 31.73984 40.25191 35.99587
#
# Velocity S-wave (km/s) = 3.48707 3.92691 3.71351
# Velocity P-wave (km/s) = 5.71539 6.60003 6.17357
#
# Compressibility (1/GPa) = 0.02328496
#
# Stress axis : x y z
#
# Youngs Moduli (GPa) = 95.66168 73.41701 65.75197
#
# Poissons Ratio (x) = 0.35421 0.18858
# Poissons Ratio (y) = 0.46153 0.02014
# Poissons Ratio (z) = 0.27436 0.02249
#
# Static dielectric constant tensor:
#      x y z
#    x 2.005330 0.000000 -0.032300 
#    y 0.000000 2.058070 0.000000 
#    z -0.032300 0.000000 2.179610 
# 
# From -- ./inp_files/146064.got.cif
#   From: 2010.05.17/outbox.cif.g08.bks.cpg/sg15_74_cif.got.tgz:146064.got - 2010.06.03 18:47:42.
