data_PCOD9289064
_publ_section_title
;
Structure prediction by ZEFSAII (Michael W. Deem and Ramdas Pophale) SiO2 
 PCOD9289064
Probable space group: C 2/C
;
_chemical_formula_sum "Si O2"
_cell_formula_units_Z 56
_cell_length_a 25.523901
_cell_length_b 13.752254
_cell_length_c 14.455501
_cell_angle_alpha 90.000000
_cell_angle_beta 26.694352
_cell_angle_gamma 90.000000
_cell_volume 2279.416754
_symmetry_space_group_name_H-M "C 2/C"
_symmetry_group_IT_number 15
_symmetry_cell_setting 'monoclinic'
loop_
_space_group_symop_operation_xyz
x,y,z
-x,y,1/2-z
-x,-y,-z
x,-y,1/2+z
1/2+x,1/2+y,z
1/2-x,1/2+y,1/2-z
1/2-x,1/2-y,-z
1/2+x,1/2-y,1/2+z
loop_
_atom_site_type_symbol
_atom_site_label
_atom_site_fract_x
_atom_site_fract_y
_atom_site_fract_z
Si Si1 0.154341 0.818297 0.749977
Si Si2 0.125387 0.551884 0.002914
Si Si3 0.230623 0.982986 0.059768
Si Si4 0.430471 0.849152 0.457478
Si Si5 0.556023 0.643922 0.059978
Si Si6 0.472858 0.570804 0.899394
Si Si7 0.864703 0.607677 0.719509
O O1 0.234428 0.907438 0.594558
O O2 0.203777 0.710393 0.661914
O O3 0.047380 0.832122 0.847425
O O4 0.096417 0.845219 0.939457
O O5 0.149389 0.442013 0.929640
O O6 0.000000 0.550433 0.250000
O O7 0.209666 0.581007 0.954827
O O8 0.115957 0.606378 0.920805
O O9 0.099898 0.948614 0.245527
O O10 0.301653 0.008990 0.854189
O O11 0.500000 0.839749 0.250000
O O12 0.370942 0.743517 0.563711
O O13 0.520035 0.877329 0.399069
O O14 0.500000 0.636859 0.250000
O O15 0.595499 0.533044 0.981486
O O16 0.500000 0.590599 0.750000
#
# Coordination Sequence:
#
# PCOD9289064 Si02
#       7
#     8   8   8   8   8   8   8
#     4  10  22  40  59  92 128 165 211 267 320 381
#     4  11  23  39  63  91 132 164 209 264 320 387
#     4  11  22  40  66  96 126 162 225 265 320 378
#     4   9  16  33  56  86 119 158 203 256 310 363
#     4   8  15  30  57  85 114 154 205 249 310 360
#     4  10  22  41  65  90 129 173 209 265 328 391
#     4  11  22  39  64  92 126 170 211 265 320 376
#
# _framework density 24.567688
#
# number of rings (size 3 to 8) (size 9 to 14) (size 15 to 20)
#    0.000    2.000    2.857    2.571    2.000    0.571 
#    5.143    1.429    0.000    1.714    0.000    0.000 
#    0.000    0.000    0.000    0.000    0.000    0.000 
#
# Total GULP energy -156269.939935 kJ/mol
# GULP energy per Si atom -5581.069283 kJ/mol
# Density = 2.451177 g / cm^3
# Si number density = 24.567688 Si / 1000 Ang^3
#
#
#
# Elastic Constant Matrix: (Units=GPa)
#
#
# Indices 1 2 3 4 5 6 
#
# 1 138.9334 25.6250 48.4711 0.0000 20.6852 0.0000
# 2 25.6250 61.7692 12.3800 0.0000 2.9265 0.0000
# 3 48.4711 12.3800 76.1434 0.0000 20.3499 0.0000
# 4 0.0000 0.0000 0.0000 34.4437 0.0000 14.6706
# 5 20.6852 2.9265 20.3499 0.0000 44.0699 0.0000
# 6 0.0000 0.0000 0.0000 14.6706 0.0000 44.0024
#
#
#
# Elastic Compliance Matrix: (Units=1/GPa)
#
#
# Indices 1 2 3 4 5 6 
#
# 1 0.009880 -0.002947 -0.005274 0.000000 -0.002006 0.000000
# 2 -0.002947 0.017614 -0.001192 0.000000 0.000764 0.000000
# 3 -0.005274 -0.001192 0.018254 0.000000 -0.005875 0.000000
# 4 0.000000 0.000000 0.000000 0.033838 0.000000 -0.011282
# 5 -0.002006 0.000764 -0.005875 0.000000 0.026295 0.000000
# 6 0.000000 0.000000 0.000000 -0.011282 0.000000 0.026487
#
#
# Mechanical properties :
#
#
# Convention : Reuss Voigt Hill
#
# Bulk Modulus (GPa) = 37.14328 49.97759 43.56044
# Shear Modulus (GPa) = 31.21698 37.19452 34.20575
#
# Velocity S-wave (km/s) = 3.56849 3.89519 3.73541
# Velocity P-wave (km/s) = 5.66837 6.37314 6.03106
#
# Compressibility (1/GPa) = 0.02692277
#
# Stress axis : x y z
#
# Youngs Moduli (GPa) = 101.21584 56.77156 54.78160
#
# Poissons Ratio (x) = 0.16728 0.28892
# Poissons Ratio (y) = 0.29824 0.06532
# Poissons Ratio (z) = 0.53381 0.06769
#
# Static dielectric constant tensor:
#      x y z
#    x 2.227970 0.000000 -0.980250 
#    y 0.000000 2.012910 0.000000 
#    z -0.980250 0.000000 7.271220 
# 
# From -- ./inp_files/178352.got.cif
#   From: 2010.05.17/outbox.cif.g08.bks.cpg/sg15_90_cif.got.tgz:178352.got - 2010.06.03 18:47:42.
