data_PCOD9289164
_publ_section_title
;
Structure prediction by ZEFSAII (Michael W. Deem and Ramdas Pophale) SiO2 
 PCOD9289164
Probable space group: C 2/C
;
_chemical_formula_sum "Si O2"
_cell_formula_units_Z 40
_cell_length_a 5.077149
_cell_length_b 22.713296
_cell_length_c 14.600418
_cell_angle_alpha 90.000000
_cell_angle_beta 76.860836
_cell_angle_gamma 90.000000
_cell_volume 1639.624549
_symmetry_space_group_name_H-M "C 2/C"
_symmetry_group_IT_number 15
_symmetry_cell_setting 'monoclinic'
loop_
_space_group_symop_operation_xyz
x,y,z
-x,y,1/2-z
-x,-y,-z
x,-y,1/2+z
1/2+x,1/2+y,z
1/2-x,1/2+y,1/2-z
1/2-x,1/2-y,-z
1/2+x,1/2-y,1/2+z
loop_
_atom_site_type_symbol
_atom_site_label
_atom_site_fract_x
_atom_site_fract_y
_atom_site_fract_z
Si Si1 0.625888 0.226921 0.645424
Si Si2 0.623998 0.191283 0.145457
Si Si3 0.387432 0.124540 0.000693
Si Si4 0.441164 0.974652 0.156674
Si Si5 0.471883 0.463761 0.596216
O O1 0.500000 0.202459 0.750000
O O2 0.416336 0.279063 0.634985
O O3 0.653072 0.178379 0.565403
O O4 0.917021 0.254885 0.641170
O O5 0.500000 0.165584 0.250000
O O6 0.586179 0.147972 0.063343
O O7 0.500099 0.071018 0.929972
O O8 0.118667 0.098219 0.069420
O O9 0.500000 0.944976 0.250000
O O10 0.153171 0.001753 0.155759
O O11 0.658059 0.028060 0.141793
O O12 0.500000 0.500000 0.500000
#
# Coordination Sequence:
#
# PCOD9289164 Si02
#       5
#     8   8   8   8   8
#     4  10  22  40  61  92 128 164 207 261 316 378
#     4  10  23  40  60  91 130 165 209 262 317 378
#     4  11  22  40  67  93 122 169 215 258 317 383
#     4  11  24  43  64  93 130 168 213 269 322 380
#     4  10  23  41  62  91 127 164 211 266 320 379
#
# _framework density 24.395827000000001
#
# number of rings (size 3 to 8) (size 9 to 14) (size 15 to 20)
#    0.000    1.600    0.000    4.800    0.000   10.400 
#    0.000   12.000    0.000    0.000    0.000    0.000 
#    0.000    0.000    0.000    0.000    0.000    0.000 
#
# Total GULP energy -111957.128412 kJ/mol
# GULP energy per Si atom -5597.856421 kJ/mol
# Density = 2.434030 g / cm^3
# Si number density = 24.395827 Si / 1000 Ang^3
#
#
#
# Elastic Constant Matrix: (Units=GPa)
#
#
# Indices 1 2 3 4 5 6 
#
# 1 77.6772 9.1466 24.1622 0.0000 18.7919 0.0000
# 2 9.1466 95.7288 51.3828 0.0000 3.2494 0.0000
# 3 24.1622 51.3828 151.2682 0.0000 23.9254 0.0000
# 4 0.0000 0.0000 0.0000 29.0723 0.0000 8.2630
# 5 18.7919 3.2494 23.9254 0.0000 36.9084 0.0000
# 6 0.0000 0.0000 0.0000 8.2630 0.0000 15.4374
#
#
#
# Elastic Compliance Matrix: (Units=1/GPa)
#
#
# Indices 1 2 3 4 5 6 
#
# 1 0.014942 -0.000606 -0.001099 0.000000 -0.006842 0.000000
# 2 -0.000606 0.012918 -0.004636 0.000000 0.002176 0.000000
# 3 -0.001099 -0.004636 0.009146 0.000000 -0.004961 0.000000
# 4 0.000000 0.000000 0.000000 0.040569 0.000000 -0.021715
# 5 -0.006842 0.002176 -0.004961 0.000000 0.033602 0.000000
# 6 0.000000 0.000000 0.000000 -0.021715 0.000000 0.076400
#
#
# Mechanical properties :
#
#
# Convention : Reuss Voigt Hill
#
# Bulk Modulus (GPa) = 41.10814 54.89526 48.00170
# Shear Modulus (GPa) = 23.99626 32.28249 28.13937
#
# Velocity S-wave (km/s) = 3.13968 3.64164 3.39993
# Velocity P-wave (km/s) = 5.48001 6.34293 5.92719
#
# Compressibility (1/GPa) = 0.02432608
#
# Stress axis : x y z
#
# Youngs Moduli (GPa) = 66.92466 77.40950 109.34315
#
# Poissons Ratio (x) = 0.04688 0.12015
# Poissons Ratio (y) = 0.04053 0.50686
# Poissons Ratio (z) = 0.07354 0.35883
#
# Static dielectric constant tensor:
#      x y z
#    x 1.923010 0.000000 -0.051900 
#    y 0.000000 1.921240 0.000000 
#    z -0.051900 0.000000 2.011200 
# 
# From -- ./inp_files/129122.got.cif
#   From: 2010.05.17/outbox.cif.g08.bks.cpg/sg15_65_cif.got.tgz:129122.got - 2010.06.03 18:47:42.
