data_PCOD9289072
_publ_section_title
;
Structure prediction by ZEFSAII (Michael W. Deem and Ramdas Pophale) SiO2 
 PCOD9289072
Probable space group: C 2/C
;
_chemical_formula_sum "Si O2"
_cell_formula_units_Z 60
_cell_length_a 8.860781
_cell_length_b 16.086407
_cell_length_c 24.459738
_cell_angle_alpha 90.000000
_cell_angle_beta 108.735382
_cell_angle_gamma 90.000000
_cell_volume 3301.705916
_symmetry_space_group_name_H-M "C 2/C"
_symmetry_group_IT_number 15
_symmetry_cell_setting 'monoclinic'
loop_
_space_group_symop_operation_xyz
x,y,z
-x,y,1/2-z
-x,-y,-z
x,-y,1/2+z
1/2+x,1/2+y,z
1/2-x,1/2+y,1/2-z
1/2-x,1/2-y,-z
1/2+x,1/2-y,1/2+z
loop_
_atom_site_type_symbol
_atom_site_label
_atom_site_fract_x
_atom_site_fract_y
_atom_site_fract_z
Si Si1 0.301348 0.121090 0.373987
Si Si2 0.500000 0.642451 0.750000
Si Si3 0.387672 0.303208 0.352910
Si Si4 0.163968 0.464291 0.334456
Si Si5 0.208235 0.483106 0.216930
Si Si6 0.665639 0.561898 0.467265
Si Si7 0.350024 0.942793 0.556910
Si Si8 0.557737 0.380982 0.468504
O O1 0.308613 0.215144 0.355221
O O2 0.190039 0.105803 0.412985
O O3 0.475679 0.092858 0.415634
O O4 0.261840 0.060255 0.319303
O O5 0.539049 0.692385 0.699281
O O6 0.654986 0.584537 0.777544
O O7 0.261049 0.378234 0.346023
O O8 0.520984 0.321185 0.414465
O O9 0.206781 0.505070 0.281096
O O10 0.203105 0.522944 0.390091
O O11 0.972359 0.450610 0.314791
O O12 0.824908 0.522240 0.513587
O O13 0.562902 0.477125 0.447779
O O14 0.579315 0.619334 0.501672
O O15 0.227304 0.875290 0.518419
#
# Coordination Sequence:
#
# PCOD9289072 Si02
#       8
#     8   4   8   8   8   8   8   8
#     4  11  22  33  55  87 114 134 184 233 276 308
#     4  10  22  40  60  74 108 142 182 224 280 326
#     4  11  21  36  54  84 114 140 176 237 279 317
#     4   9  17  37  58  77 104 147 188 214 272 334
#     4   9  20  36  60  78  98 147 187 221 262 343
#     4   9  17  34  55  76 105 150 186 214 251 335
#     4   9  18  34  57  79 108 150 185 218 257 335
#     4   9  18  34  57  77 111 151 188 213 264 329
#
# _framework density 18.172423999999999
#
# number of rings (size 3 to 8) (size 9 to 14) (size 15 to 20)
#    0.800    1.600    1.333    1.200    0.000    4.267 
#    0.000    4.000    0.000    0.000    0.000    0.000 
#    0.000    0.000    0.000    0.000    0.000    0.000 
#
# Total GULP energy -167076.284921 kJ/mol
# GULP energy per Si atom -5569.209497 kJ/mol
# Density = 1.813106 g / cm^3
# Si number density = 18.172424 Si / 1000 Ang^3
#
#
#
# Elastic Constant Matrix: (Units=GPa)
#
#
# Indices 1 2 3 4 5 6 
#
# 1 52.9867 14.8754 39.2599 0.0000 -20.6680 0.0000
# 2 14.8754 47.9286 56.1446 0.0000 -19.8515 0.0000
# 3 39.2599 56.1446 120.1429 0.0000 -26.4759 0.0000
# 4 0.0000 0.0000 0.0000 5.3895 0.0000 -0.3604
# 5 -20.6680 -19.8515 -26.4759 0.0000 34.3961 0.0000
# 6 0.0000 0.0000 0.0000 -0.3604 0.0000 7.8874
#
#
#
# Elastic Compliance Matrix: (Units=1/GPa)
#
#
# Indices 1 2 3 4 5 6 
#
# 1 0.030411 0.010199 -0.011296 0.000000 0.015465 0.000000
# 2 0.010199 0.054097 -0.024546 0.000000 0.018456 0.000000
# 3 -0.011296 -0.024546 0.022722 0.000000 -0.003464 0.000000
# 4 0.000000 0.000000 0.000000 0.186114 0.000000 0.008503
# 5 0.015465 0.018456 -0.003464 0.000000 0.046351 0.000000
# 6 0.000000 0.000000 0.000000 0.008503 0.000000 0.127173
#
#
# Mechanical properties :
#
#
# Convention : Reuss Voigt Hill
#
# Bulk Modulus (GPa) = 17.87480 49.06867 33.47173
# Shear Modulus (GPa) = 9.31441 16.91981 13.11711
#
# Velocity S-wave (km/s) = 2.26643 3.05466 2.68957
# Velocity P-wave (km/s) = 4.08736 6.28503 5.30132
#
# Compressibility (1/GPa) = 0.05594469
#
# Stress axis : x y z
#
# Youngs Moduli (GPa) = 32.88258 18.48532 44.01031
#
# Poissons Ratio (x) = -0.18853 0.49713
# Poissons Ratio (y) = -0.33537 1.08028
# Poissons Ratio (z) = 0.37143 0.45374
#
# Static dielectric constant tensor:
#      x y z
#    x 1.645520 0.000000 0.019020 
#    y 0.000000 1.586460 0.000000 
#    z 0.019020 0.000000 1.646210 
# 
# From -- ./inp_files/288451.got.cif
#   From: 2010.05.17/outbox.cif.g08.bks.cpg/sg15_145_cif.got.tgz:288451.got - 2010.06.03 18:47:42.
