data_PCOD9289900
_publ_section_title
;
Structure prediction by ZEFSAII (Michael W. Deem and Ramdas Pophale) SiO2 
 PCOD9289900
Probable space group: C 2/C
;
_chemical_formula_sum "Si O2"
_cell_formula_units_Z 60
_cell_length_a 25.530777
_cell_length_b 8.494608
_cell_length_c 14.470581
_cell_angle_alpha 90.000000
_cell_angle_beta 67.391479
_cell_angle_gamma 90.000000
_cell_volume 2897.123802
_symmetry_space_group_name_H-M "C 2/C"
_symmetry_group_IT_number 15
_symmetry_cell_setting 'monoclinic'
loop_
_space_group_symop_operation_xyz
x,y,z
-x,y,1/2-z
-x,-y,-z
x,-y,1/2+z
1/2+x,1/2+y,z
1/2-x,1/2+y,1/2-z
1/2-x,1/2-y,-z
1/2+x,1/2-y,1/2+z
loop_
_atom_site_type_symbol
_atom_site_label
_atom_site_fract_x
_atom_site_fract_y
_atom_site_fract_z
Si Si1 0.610270 0.434335 0.634519
Si Si2 0.088126 0.125823 0.460038
Si Si3 0.185766 0.643854 0.949597
Si Si4 0.371893 0.312796 0.129825
Si Si5 0.192552 0.281323 0.984223
Si Si6 0.000000 0.229052 0.250000
Si Si7 0.015884 0.331945 0.032194
Si Si8 0.313891 0.287601 0.348760
O O1 0.589700 0.532326 0.557334
O O2 0.642008 0.273880 0.584995
O O3 0.554540 0.382719 0.725993
O O4 0.658459 0.543195 0.646437
O O5 0.135150 0.263976 0.433803
O O6 0.028288 0.203475 0.477693
O O7 0.105287 0.990181 0.376278
O O8 0.185804 0.456192 0.950200
O O9 0.247338 0.699511 0.872475
O O10 0.181243 0.688620 0.061166
O O11 0.317618 0.327102 0.098630
O O12 0.351029 0.232161 0.237354
O O13 0.421878 0.216660 0.045965
O O14 0.250000 0.250000 0.000000
O O15 0.989471 0.324755 0.352409
O O16 0.000000 0.500000 0.000000
#
# Coordination Sequence:
#
# PCOD9289900 Si02
#       8
#     8   8   8   8   8   4   8   8
#     4  10  22  40  69  99 127 178 220 269 335 399
#     4  10  22  42  69  95 133 172 217 278 324 399
#     4  10  22  41  65  96 134 172 219 269 328 393
#     4  11  24  43  64  97 131 170 225 270 331 398
#     4  11  21  42  65  90 134 173 217 272 326 392
#     4  12  24  44  72  94 136 174 226 272 338 404
#     4  12  26  46  68  97 136 172 225 280 334 404
#     4  10  22  41  65  98 131 169 219 272 329 391
#
# _framework density 20.710194000000001
#
# number of rings (size 3 to 8) (size 9 to 14) (size 15 to 20)
#    0.000    1.333    4.000    2.000    3.733    2.133 
#    4.800    0.000    0.000    0.000    0.000    0.000 
#    0.000    0.000    0.000    0.000    0.000    0.000 
#
# Total GULP energy -167424.333978 kJ/mol
# GULP energy per Si atom -5580.811133 kJ/mol
# Density = 2.066306 g / cm^3
# Si number density = 20.710194 Si / 1000 Ang^3
#
#
#
# Elastic Constant Matrix: (Units=GPa)
#
#
# Indices 1 2 3 4 5 6 
#
# 1 113.5869 21.3936 44.3194 0.0000 -9.5796 0.0000
# 2 21.3936 75.3638 17.5412 0.0000 -0.3825 0.0000
# 3 44.3194 17.5412 125.1408 0.0000 -15.4342 0.0000
# 4 0.0000 0.0000 0.0000 19.2882 0.0000 1.1037
# 5 -9.5796 -0.3825 -15.4342 0.0000 21.8039 0.0000
# 6 0.0000 0.0000 0.0000 1.1037 0.0000 31.6584
#
#
#
# Elastic Compliance Matrix: (Units=1/GPa)
#
#
# Indices 1 2 3 4 5 6 
#
# 1 0.010670 -0.002281 -0.003162 0.000000 0.002410 0.000000
# 2 -0.002281 0.014234 -0.001403 0.000000 -0.001745 0.000000
# 3 -0.003162 -0.001403 0.010007 0.000000 0.005669 0.000000
# 4 0.000000 0.000000 0.000000 0.051949 0.000000 -0.001811
# 5 0.002410 -0.001745 0.005669 0.000000 0.050905 0.000000
# 6 0.000000 0.000000 0.000000 -0.001811 0.000000 0.031650
#
#
# Mechanical properties :
#
#
# Convention : Reuss Voigt Hill
#
# Bulk Modulus (GPa) = 47.12531 53.39998 50.26264
# Shear Modulus (GPa) = 26.29094 29.93926 28.11510
#
# Velocity S-wave (km/s) = 3.56683 3.80627 3.68849
# Velocity P-wave (km/s) = 6.30611 6.71992 6.51630
#
# Compressibility (1/GPa) = 0.02122002
#
# Stress axis : x y z
#
# Youngs Moduli (GPa) = 93.71698 70.25410 99.93275
#
# Poissons Ratio (x) = 0.16024 0.31600
# Poissons Ratio (y) = 0.21375 0.14018
# Poissons Ratio (z) = 0.29634 0.09855
#
# Static dielectric constant tensor:
#      x y z
#    x 1.735550 0.000000 0.024130 
#    y 0.000000 1.737430 0.000000 
#    z 0.024130 0.000000 1.772660 
# 
# From -- ./inp_files/172350.got.cif
#   From: 2010.05.17/outbox.cif.g08.bks.cpg/sg15_87_cif.got.tgz:172350.got - 2010.06.03 18:47:42.
