data_PCOD9289883
_publ_section_title
;
Structure prediction by ZEFSAII (Michael W. Deem and Ramdas Pophale) SiO2 
 PCOD9289883
Probable space group: C 2/C
;
_chemical_formula_sum "Si O2"
_cell_formula_units_Z 44
_cell_length_a 8.052964
_cell_length_b 22.249322
_cell_length_c 11.562526
_cell_angle_alpha 90.000000
_cell_angle_beta 113.887575
_cell_angle_gamma 90.000000
_cell_volume 1894.234890
_symmetry_space_group_name_H-M "C 2/C"
_symmetry_group_IT_number 15
_symmetry_cell_setting 'monoclinic'
loop_
_space_group_symop_operation_xyz
x,y,z
-x,y,1/2-z
-x,-y,-z
x,-y,1/2+z
1/2+x,1/2+y,z
1/2-x,1/2+y,1/2-z
1/2-x,1/2-y,-z
1/2+x,1/2-y,1/2+z
loop_
_atom_site_type_symbol
_atom_site_label
_atom_site_fract_x
_atom_site_fract_y
_atom_site_fract_z
Si Si1 0.784394 0.156853 0.180331
Si Si2 0.523051 0.742757 0.618916
Si Si3 0.322018 0.960958 0.980546
Si Si4 0.267877 0.655460 0.438192
Si Si5 0.696287 0.427993 0.346030
Si Si6 0.500000 0.931277 0.250000
O O1 0.712739 0.225170 0.143844
O O2 0.704619 0.107190 0.070644
O O3 0.725080 0.141152 0.294548
O O4 0.000000 0.154976 0.250000
O O5 0.500000 0.727673 0.750000
O O6 0.459829 0.689065 0.518015
O O7 0.381100 0.797157 0.560352
O O8 0.181946 0.000816 0.867818
O O9 0.344058 0.961499 0.125257
O O10 0.500000 0.000000 0.000000
O O11 0.263561 0.598480 0.517076
O O12 0.500000 0.406661 0.250000
O O13 0.860939 0.405873 0.308634
#
# Coordination Sequence:
#
# PCOD9289883 Si02
#       6
#     8   8   8   8   8   4
#     4  11  24  41  69 106 139 180 230 296 359 422
#     4   9  19  41  67  93 130 178 235 283 348 411
#     4  10  23  42  65  99 140 184 236 282 351 419
#     4  10  22  40  69  95 132 185 229 286 344 414
#     4  11  24  40  67  98 139 184 228 287 345 422
#     4  10  24  42  62  96 136 182 228 286 338 420
#
# _framework density 23.228376999999998
#
# number of rings (size 3 to 8) (size 9 to 14) (size 15 to 20)
#    0.000    1.818    0.000    3.273    7.636    1.455 
#    1.636    0.000   26.000    0.000    0.000    0.000 
#    0.000    0.000    0.000    0.000    0.000    0.000 
#
# Total GULP energy -122510.804555 kJ/mol
# GULP energy per Si atom -5568.672934 kJ/mol
# Density = 2.317551 g / cm^3
# Si number density = 23.228377 Si / 1000 Ang^3
#
#
#
# Elastic Constant Matrix: (Units=GPa)
#
#
# Indices 1 2 3 4 5 6 
#
# 1 83.7797 18.7498 10.7705 0.0000 19.3762 0.0000
# 2 18.7498 66.9809 22.5674 0.0000 2.8901 0.0000
# 3 10.7705 22.5674 99.8547 0.0000 9.3633 0.0000
# 4 0.0000 0.0000 0.0000 26.4076 0.0000 4.5573
# 5 19.3762 2.8901 9.3633 0.0000 32.5265 0.0000
# 6 0.0000 0.0000 0.0000 4.5573 0.0000 12.9340
#
#
#
# Elastic Compliance Matrix: (Units=1/GPa)
#
#
# Indices 1 2 3 4 5 6 
#
# 1 0.014730 -0.003778 0.000058 0.000000 -0.008456 0.000000
# 2 -0.003778 0.017134 -0.003631 0.000000 0.001773 0.000000
# 3 0.000058 -0.003631 0.011102 0.000000 -0.002908 0.000000
# 4 0.000000 0.000000 0.000000 0.040320 0.000000 -0.014207
# 5 -0.008456 0.001773 -0.002908 0.000000 0.036461 0.000000
# 6 0.000000 0.000000 0.000000 -0.014207 0.000000 0.082321
#
#
# Mechanical properties :
#
#
# Convention : Reuss Voigt Hill
#
# Bulk Modulus (GPa) = 35.38183 39.42119 37.40151
# Shear Modulus (GPa) = 22.10529 27.60880 24.85704
#
# Velocity S-wave (km/s) = 3.08823 3.45132 3.27481
# Velocity P-wave (km/s) = 5.28975 5.73499 5.51686
#
# Compressibility (1/GPa) = 0.02826309
#
# Stress axis : x y z
#
# Youngs Moduli (GPa) = 67.89021 58.36324 90.07713
#
# Poissons Ratio (x) = 0.22049 -0.00522
# Poissons Ratio (y) = 0.25648 0.32708
# Poissons Ratio (z) = -0.00393 0.21193
#
# Static dielectric constant tensor:
#      x y z
#    x 2.024670 0.000000 0.064520 
#    y 0.000000 1.907570 0.000000 
#    z 0.064520 0.000000 1.965950 
# 
# From -- ./inp_files/78356.got.cif
#   From: 2010.05.17/outbox.cif.g08.bks.cpg/sg15_40_cif.got.tgz:78356.got - 2010.06.03 18:47:42.
