data_PCOD9289905
_publ_section_title
;
Structure prediction by ZEFSAII (Michael W. Deem and Ramdas Pophale) SiO2 
 PCOD9289905
Probable space group: C 2/C
;
_chemical_formula_sum "Si O2"
_cell_formula_units_Z 52
_cell_length_a 25.996598
_cell_length_b 5.258794
_cell_length_c 18.597216
_cell_angle_alpha 90.000000
_cell_angle_beta 126.156917
_cell_angle_gamma 90.000000
_cell_volume 2052.776221
_symmetry_space_group_name_H-M "C 2/C"
_symmetry_group_IT_number 15
_symmetry_cell_setting 'monoclinic'
loop_
_space_group_symop_operation_xyz
x,y,z
-x,y,1/2-z
-x,-y,-z
x,-y,1/2+z
1/2+x,1/2+y,z
1/2-x,1/2+y,1/2-z
1/2-x,1/2-y,-z
1/2+x,1/2-y,1/2+z
loop_
_atom_site_type_symbol
_atom_site_label
_atom_site_fract_x
_atom_site_fract_y
_atom_site_fract_z
Si Si1 0.839627 0.818964 0.759095
Si Si2 0.140926 0.905019 0.891209
Si Si3 0.500000 0.707729 0.250000
Si Si4 0.423373 0.337143 0.421996
Si Si5 0.351580 0.108991 0.013961
Si Si6 0.491753 0.063925 0.594321
Si Si7 0.802668 0.450267 0.832221
O O1 0.900766 0.938614 0.849880
O O2 0.772109 0.918843 0.733699
O O3 0.839494 0.866720 0.674955
O O4 0.831246 0.531159 0.778864
O O5 0.063857 0.934757 0.824949
O O6 0.159006 0.654538 0.951571
O O7 0.165085 0.158529 0.948341
O O8 0.482497 0.870955 0.305741
O O9 0.468998 0.317042 0.530353
O O10 0.459154 0.115295 0.406815
O O11 0.353492 0.265402 0.395787
O O12 0.426148 0.093118 0.052443
O O13 0.314088 0.137848 0.908562
#
# Coordination Sequence:
#
# PCOD9289905 Si02
#       7
#     8   8   4   8   8   8   8
#     4  12  26  41  75  99 142 187 241 295 349 427
#     4  11  27  44  71 105 142 186 232 297 356 424
#     4  10  22  40  70 100 140 178 230 292 354 434
#     4  10  22  44  66 101 137 179 235 292 354 420
#     4  10  26  47  71 103 144 185 233 292 361 423
#     4   9  21  42  71 100 139 182 232 292 360 421
#     4  11  25  45  70 100 140 187 243 287 352 418
#
# _framework density 25.331547
#
# number of rings (size 3 to 8) (size 9 to 14) (size 15 to 20)
#    0.000    1.538    1.538    0.923   15.077    1.846 
#    0.000    3.077    0.000    0.000    0.000    0.000 
#    0.000    0.000    0.000    0.000    0.000    0.000 
#
# Total GULP energy -145265.486265 kJ/mol
# GULP energy per Si atom -5587.134087 kJ/mol
# Density = 2.527389 g / cm^3
# Si number density = 25.331547 Si / 1000 Ang^3
#
#
#
# Elastic Constant Matrix: (Units=GPa)
#
#
# Indices 1 2 3 4 5 6 
#
# 1 92.6118 17.7855 32.2894 0.0006 -3.9643 0.0006
# 2 17.7855 71.8108 20.6882 0.0010 -4.1062 0.0041
# 3 32.2894 20.6882 115.4969 0.0003 -11.8704 0.0017
# 4 0.0006 0.0010 0.0003 25.5449 0.0010 -5.6858
# 5 -3.9643 -4.1062 -11.8704 0.0010 57.8711 0.0001
# 6 0.0006 0.0041 0.0017 -5.6858 0.0001 27.6144
#
#
#
# Elastic Compliance Matrix: (Units=1/GPa)
#
#
# Indices 1 2 3 4 5 6 
#
# 1 0.012275 -0.002161 -0.003038 0.000000 0.000064 0.000000
# 2 -0.002161 0.015079 -0.002045 -0.000001 0.000502 -0.000002
# 3 -0.003038 -0.002045 0.010049 0.000000 0.001708 0.000000
# 4 0.000000 -0.000001 0.000000 0.041027 -0.000001 0.008448
# 5 0.000064 0.000502 0.001708 -0.000001 0.017670 0.000000
# 6 0.000000 -0.000002 0.000000 0.008448 0.000000 0.037952
#
#
# Mechanical properties :
#
#
# Convention : Reuss Voigt Hill
#
# Bulk Modulus (GPa) = 43.64072 46.82730 45.23401
# Shear Modulus (GPa) = 32.01457 36.14985 34.08221
#
# Velocity S-wave (km/s) = 3.55888 3.78175 3.67201
# Velocity P-wave (km/s) = 5.84404 6.13146 5.98947
#
# Compressibility (1/GPa) = 0.02291438
#
# Stress axis : x y z
#
# Youngs Moduli (GPa) = 81.46811 66.31889 99.50825
#
# Poissons Ratio (x) = 0.14333 0.30230
# Poissons Ratio (y) = 0.17607 0.20350
# Poissons Ratio (z) = 0.24749 0.13563
#
# Static dielectric constant tensor:
#      x y z
#    x 2.040480 0.000000 0.002540 
#    y 0.000000 2.165000 0.000000 
#    z 0.002540 0.000000 2.005920 
# 
# From -- ./inp_files/221368.got.cif
#   From: 2010.05.17/outbox.cif.g08.bks.cpg/sg15_111_cif.got.tgz:221368.got - 2010.06.03 18:47:42.
