data_PCOD9289112
_publ_section_title
;
Structure prediction by ZEFSAII (Michael W. Deem and Ramdas Pophale) SiO2 
 PCOD9289112
Probable space group: C 2/C
;
_chemical_formula_sum "Si O2"
_cell_formula_units_Z 60
_cell_length_a 18.036861
_cell_length_b 19.176955
_cell_length_c 18.987164
_cell_angle_alpha 90.000000
_cell_angle_beta 28.667165
_cell_angle_gamma 90.000000
_cell_volume 3150.570544
_symmetry_space_group_name_H-M "C 2/C"
_symmetry_group_IT_number 15
_symmetry_cell_setting 'monoclinic'
loop_
_space_group_symop_operation_xyz
x,y,z
-x,y,1/2-z
-x,-y,-z
x,-y,1/2+z
1/2+x,1/2+y,z
1/2-x,1/2+y,1/2-z
1/2-x,1/2-y,-z
1/2+x,1/2-y,1/2+z
loop_
_atom_site_type_symbol
_atom_site_label
_atom_site_fract_x
_atom_site_fract_y
_atom_site_fract_z
Si Si1 0.583454 0.066173 0.830618
Si Si2 0.500000 0.053079 0.750000
Si Si3 0.844667 0.567623 0.152869
Si Si4 0.333830 0.659543 0.676039
Si Si5 0.182606 0.203972 0.349749
Si Si6 0.867017 0.039417 0.757879
Si Si7 0.292485 0.542046 0.984527
Si Si8 0.681925 0.804634 0.611175
O O1 0.503617 0.087951 0.824121
O O2 0.749520 0.103354 0.696087
O O3 0.597825 0.982127 0.830813
O O4 0.483741 0.086083 0.983331
O O5 0.653308 0.006719 0.622770
O O6 0.761317 0.636438 0.249080
O O7 0.728940 0.517293 0.206019
O O8 0.219856 0.725532 0.776681
O O9 0.502453 0.686711 0.512633
O O10 0.350829 0.614758 0.734059
O O11 0.270335 0.216281 0.350329
O O12 0.809036 0.040740 0.886286
O O13 0.047386 0.020719 0.612543
O O14 0.256223 0.620431 0.036325
O O15 0.500000 0.809168 0.750000
O O16 0.750000 0.750000 0.500000
#
# Coordination Sequence:
#
# PCOD9289112 Si02
#       8
#     8   4   8   8   8   8   8   8
#     4  10  23  40  64  94 126 162 206 271 316 381
#     4  12  22  40  64  94 120 160 212 264 328 368
#     4  10  22  41  63  91 125 166 213 257 315 369
#     4  11  24  41  62  88 126 167 215 259 313 374
#     4  12  24  41  63  90 123 172 214 259 310 380
#     4  10  22  40  60  91 128 165 206 260 309 377
#     4  11  22  37  59  89 128 162 203 253 319 371
#     4  12  25  37  56  87 126 168 207 249 303 376
#
# _framework density 19.044170000000001
#
# number of rings (size 3 to 8) (size 9 to 14) (size 15 to 20)
#    0.000    1.067    3.333    3.200    3.733    1.067 
#    0.000    0.000    0.000    4.800    0.000    0.000 
#    0.000    0.000    0.000    0.000    0.000    0.000 
#
# Total GULP energy -167596.102396 kJ/mol
# GULP energy per Si atom -5586.536747 kJ/mol
# Density = 1.900082 g / cm^3
# Si number density = 19.044170 Si / 1000 Ang^3
#
#
#
# Elastic Constant Matrix: (Units=GPa)
#
#
# Indices 1 2 3 4 5 6 
#
# 1 75.5648 -4.4063 11.9012 0.0034 0.2459 0.0007
# 2 -4.4063 59.3805 16.5730 0.0092 2.8195 -0.0052
# 3 11.9012 16.5730 86.0281 0.0052 -12.5026 -0.0013
# 4 0.0034 0.0092 0.0052 29.7879 -0.0013 0.6329
# 5 0.2459 2.8195 -12.5026 -0.0013 25.1819 0.0006
# 6 0.0007 -0.0052 -0.0013 0.6329 0.0006 14.6556
#
#
#
# Elastic Compliance Matrix: (Units=1/GPa)
#
#
# Indices 1 2 3 4 5 6 
#
# 1 0.013732 0.001782 -0.002470 -0.000002 -0.001560 0.000000
# 2 0.001782 0.018407 -0.004413 -0.000005 -0.004269 0.000006
# 3 -0.002470 -0.004413 0.013894 0.000000 0.007416 0.000000
# 4 -0.000002 -0.000005 0.000000 0.033601 0.000002 -0.001451
# 5 -0.001560 -0.004269 0.007416 0.000002 0.043886 -0.000003
# 6 0.000000 0.000006 0.000000 -0.001451 -0.000003 0.068296
#
#
# Mechanical properties :
#
#
# Convention : Reuss Voigt Hill
#
# Bulk Modulus (GPa) = 27.90835 29.90104 28.90469
# Shear Modulus (GPa) = 23.36868 27.05212 25.21040
#
# Velocity S-wave (km/s) = 3.50677 3.77303 3.64233
# Velocity P-wave (km/s) = 5.57520 5.89203 5.73580
#
# Compressibility (1/GPa) = 0.03583158
#
# Stress axis : x y z
#
# Youngs Moduli (GPa) = 72.82446 54.32652 71.97472
#
# Poissons Ratio (x) = -0.09683 0.17776
# Poissons Ratio (y) = -0.12980 0.31763
# Poissons Ratio (z) = 0.17985 0.23975
#
# Static dielectric constant tensor:
#      x y z
#    x 1.589360 0.000000 -0.045560 
#    y 0.000000 1.630270 0.000000 
#    z -0.045560 0.000000 1.609930 
# 
# From -- ./inp_files/211731.got.cif
#   From: 2010.05.17/outbox.cif.g08.bks.cpg/sg15_106_cif.got.tgz:211731.got - 2010.06.03 18:47:42.
