data_PCOD9289056
_publ_section_title
;
Structure prediction by ZEFSAII (Michael W. Deem and Ramdas Pophale) SiO2 
 PCOD9289056
Probable space group: C 2/C
;
_chemical_formula_sum "Si O2"
_cell_formula_units_Z 64
_cell_length_a 11.919512
_cell_length_b 7.136357
_cell_length_c 30.686783
_cell_angle_alpha 90.000000
_cell_angle_beta 98.279615
_cell_angle_gamma 90.000000
_cell_volume 2583.069169
_symmetry_space_group_name_H-M "C 2/C"
_symmetry_group_IT_number 15
_symmetry_cell_setting 'monoclinic'
loop_
_space_group_symop_operation_xyz
x,y,z
-x,y,1/2-z
-x,-y,-z
x,-y,1/2+z
1/2+x,1/2+y,z
1/2-x,1/2+y,1/2-z
1/2-x,1/2-y,-z
1/2+x,1/2-y,1/2+z
loop_
_atom_site_type_symbol
_atom_site_label
_atom_site_fract_x
_atom_site_fract_y
_atom_site_fract_z
Si Si1 0.635308 0.769957 0.433585
Si Si2 0.382414 0.227375 0.467286
Si Si3 0.802677 0.314031 0.457530
Si Si4 0.120952 0.240956 0.743293
Si Si5 0.732228 0.001244 0.814994
Si Si6 0.418981 0.664246 0.385491
Si Si7 0.424825 0.791172 0.585999
Si Si8 0.486697 0.994386 0.832838
O O1 0.624188 0.703963 0.483496
O O2 0.769194 0.772806 0.434118
O O3 0.554736 0.645713 0.398371
O O4 0.599686 0.988257 0.426774
O O5 0.492486 0.280838 0.446845
O O6 0.371781 0.001987 0.468998
O O7 0.750000 0.250000 0.500000
O O8 0.882898 0.182805 0.433906
O O9 0.692152 0.319344 0.420699
O O10 0.189041 0.311448 0.789096
O O11 0.000000 0.147584 0.750000
O O12 0.079653 0.422266 0.713001
O O13 0.204680 0.123324 0.717852
O O14 0.828438 0.964061 0.856369
O O15 0.611740 0.075280 0.827103
O O16 0.415933 0.859748 0.357893
O O17 0.486541 0.812749 0.635559
#
# Coordination Sequence:
#
# PCOD9289056 Si02
#       8
#     8   8   8   8   8   8   8   8
#     4  10  22  40  59  89 123 169 221 271 323 374
#     4  11  22  41  60  85 127 170 221 277 321 377
#     4  12  22  38  65  89 126 179 221 268 327 370
#     4  10  24  44  71 101 130 165 207 256 327 399
#     4  11  23  44  68  97 133 164 206 266 320 393
#     4  11  23  42  63  95 134 169 222 270 318 386
#     4  11  21  40  62  87 126 167 211 267 325 374
#     4  10  22  41  64  95 129 168 212 260 318 388
#
# _framework density 24.776727999999999
#
# number of rings (size 3 to 8) (size 9 to 14) (size 15 to 20)
#    0.000    1.250    5.000    1.875    0.000    4.000 
#    2.250    1.875    0.000    0.000    0.000    0.000 
#    0.000    0.000    0.000    0.000    0.000    0.000 
#
# Total GULP energy -178918.515847 kJ/mol
# GULP energy per Si atom -5591.203620 kJ/mol
# Density = 2.472033 g / cm^3
# Si number density = 24.776728 Si / 1000 Ang^3
#
#
#
# Elastic Constant Matrix: (Units=GPa)
#
#
# Indices 1 2 3 4 5 6 
#
# 1 141.6179 25.8180 18.7045 0.0000 2.6729 0.0000
# 2 25.8180 39.7481 9.4184 0.0000 -4.0945 0.0000
# 3 18.7045 9.4184 86.2118 0.0000 0.9579 0.0000
# 4 0.0000 0.0000 0.0000 26.2842 0.0000 3.5906
# 5 2.6729 -4.0945 0.9579 0.0000 59.9845 0.0000
# 6 0.0000 0.0000 0.0000 3.5906 0.0000 32.5294
#
#
#
# Elastic Compliance Matrix: (Units=1/GPa)
#
#
# Indices 1 2 3 4 5 6 
#
# 1 0.008161 -0.005086 -0.001207 0.000000 -0.000692 0.000000
# 2 -0.005086 0.029194 -0.002111 0.000000 0.002253 0.000000
# 3 -0.001207 -0.002111 0.012095 0.000000 -0.000283 0.000000
# 4 0.000000 0.000000 0.000000 0.038628 0.000000 -0.004264
# 5 -0.000692 0.002253 -0.000283 0.000000 0.016860 0.000000
# 6 0.000000 0.000000 0.000000 -0.004264 0.000000 0.031212
#
#
# Mechanical properties :
#
#
# Convention : Reuss Voigt Hill
#
# Bulk Modulus (GPa) = 30.63560 41.71774 36.17667
# Shear Modulus (GPa) = 30.51759 38.00209 34.25984
#
# Velocity S-wave (km/s) = 3.51337 3.92060 3.72256
# Velocity P-wave (km/s) = 5.37121 6.11301 5.75407
#
# Compressibility (1/GPa) = 0.03264176
#
# Stress axis : x y z
#
# Youngs Moduli (GPa) = 122.53415 34.25317 82.67853
#
# Poissons Ratio (x) = 0.17421 0.09982
# Poissons Ratio (y) = 0.62322 0.17453
# Poissons Ratio (z) = 0.14793 0.07231
#
# Static dielectric constant tensor:
#      x y z
#    x 1.957940 0.000000 0.010820 
#    y 0.000000 2.046470 0.000000 
#    z 0.010820 0.000000 1.997000 
# 
# From -- ./inp_files/310317.got.cif
#   From: 2010.05.17/outbox.cif.g08.bks.cpg/sg15_156_cif.got.tgz:310317.got - 2010.06.03 18:47:42.
