data_PCOD9289514
_publ_section_title
;
Structure prediction by ZEFSAII (Michael W. Deem and Ramdas Pophale) SiO2 
 PCOD9289514
Probable space group: C 2/C
;
_chemical_formula_sum "Si O2"
_cell_formula_units_Z 56
_cell_length_a 27.904879
_cell_length_b 7.691493
_cell_length_c 18.062230
_cell_angle_alpha 90.000000
_cell_angle_beta 43.258787
_cell_angle_gamma 90.000000
_cell_volume 2656.681709
_symmetry_space_group_name_H-M "C 2/C"
_symmetry_group_IT_number 15
_symmetry_cell_setting 'monoclinic'
loop_
_space_group_symop_operation_xyz
x,y,z
-x,y,1/2-z
-x,-y,-z
x,-y,1/2+z
1/2+x,1/2+y,z
1/2-x,1/2+y,1/2-z
1/2-x,1/2-y,-z
1/2+x,1/2-y,1/2+z
loop_
_atom_site_type_symbol
_atom_site_label
_atom_site_fract_x
_atom_site_fract_y
_atom_site_fract_z
Si Si1 0.337167 0.076918 0.536093
Si Si2 0.572435 0.358463 0.330055
Si Si3 0.795398 0.073141 0.726334
Si Si4 0.950086 0.659547 0.534526
Si Si5 0.424365 0.918143 0.800131
Si Si6 0.609916 0.262331 0.739369
Si Si7 0.253211 0.752925 0.637448
O O1 0.264265 0.149570 0.650767
O O2 0.395335 0.101523 0.533549
O O3 0.367069 0.139168 0.424918
O O4 0.318668 0.873075 0.543652
O O5 0.629725 0.361141 0.331283
O O6 0.496505 0.319463 0.450627
O O7 0.585236 0.535698 0.267977
O O8 0.585600 0.195027 0.261982
O O9 0.778939 0.096352 0.658805
O O10 0.786848 0.872933 0.756816
O O11 0.913398 0.704447 0.652477
O O12 0.000000 0.500000 0.500000
O O13 0.500000 0.881508 0.750000
O O14 0.421077 0.122326 0.782490
O O15 0.694388 0.237249 0.641571
#
# Coordination Sequence:
#
# PCOD9289514 Si02
#       7
#     8   8   8   8   8   8   8
#     4  10  22  40  65  93 134 172 220 263 332 393
#     4  11  24  40  67  97 134 170 220 271 328 388
#     4   9  20  37  62  94 127 160 213 269 323 383
#     4  12  20  40  72  99 127 177 218 276 328 380
#     4  12  25  44  64  93 137 181 217 267 332 401
#     4  11  23  42  66  98 130 170 222 274 323 389
#     4   9  19  37  62  94 126 158 216 266 319 383
#
# _framework density 21.078927
#
# number of rings (size 3 to 8) (size 9 to 14) (size 15 to 20)
#    0.857    0.571    4.286    1.286    2.000    1.714 
#    0.000    1.429    0.000    0.000    0.000    0.000 
#    0.000    0.000    0.000    0.000    0.000    0.000 
#
# Total GULP energy -155972.067260 kJ/mol
# GULP energy per Si atom -5570.430974 kJ/mol
# Density = 2.103095 g / cm^3
# Si number density = 21.078927 Si / 1000 Ang^3
#
#
#
# Elastic Constant Matrix: (Units=GPa)
#
#
# Indices 1 2 3 4 5 6 
#
# 1 43.1903 13.1007 1.1158 -0.0141 -17.1273 -0.0046
# 2 13.1007 62.7885 -4.5691 0.0020 -7.8874 -0.0124
# 3 1.1158 -4.5691 72.9707 -0.0069 -2.4767 -0.0043
# 4 -0.0141 0.0020 -0.0069 24.5513 0.0019 3.1472
# 5 -17.1273 -7.8874 -2.4767 0.0019 24.0532 0.0035
# 6 -0.0046 -0.0124 -0.0043 3.1472 0.0035 26.0750
#
#
#
# Elastic Compliance Matrix: (Units=1/GPa)
#
#
# Indices 1 2 3 4 5 6 
#
# 1 0.033262 -0.004136 -0.000010 0.000018 0.022327 -0.000001
# 2 -0.004136 0.017236 0.001239 -0.000005 0.002834 0.000008
# 3 -0.000010 0.001239 0.013844 0.000003 0.001825 0.000002
# 4 0.000018 -0.000005 0.000003 0.041371 0.000009 -0.004993
# 5 0.022327 0.002834 0.001825 0.000009 0.058590 -0.000003
# 6 -0.000001 0.000008 0.000002 -0.004993 -0.000003 0.038954
#
#
# Mechanical properties :
#
#
# Convention : Reuss Voigt Hill
#
# Bulk Modulus (GPa) = 17.08609 22.02715 19.55662
# Shear Modulus (GPa) = 21.87419 26.22271 24.04845
#
# Velocity S-wave (km/s) = 3.22487 3.53090 3.38135
# Velocity P-wave (km/s) = 4.68933 5.20534 4.95405
#
# Compressibility (1/GPa) = 0.05852713
#
# Stress axis : x y z
#
# Youngs Moduli (GPa) = 30.06418 58.01930 72.23467
#
# Poissons Ratio (x) = 0.23997 0.00071
# Poissons Ratio (y) = 0.12435 -0.08947
# Poissons Ratio (z) = 0.00029 -0.07187
#
# Static dielectric constant tensor:
#      x y z
#    x 1.782920 0.000000 -0.045250 
#    y 0.000000 1.801440 -0.000010 
#    z -0.045250 -0.000010 1.793580 
# 
# From -- ./inp_files/221650.got.cif
#   From: 2010.05.17/outbox.cif.g08.bks.cpg/sg15_111_cif.got.tgz:221650.got - 2010.06.03 18:47:42.
