data_PCOD9289981
_publ_section_title
;
Structure prediction by ZEFSAII (Michael W. Deem and Ramdas Pophale) SiO2 
 PCOD9289981
Probable space group: C 2/C
;
_chemical_formula_sum "Si O2"
_cell_formula_units_Z 44
_cell_length_a 23.022916
_cell_length_b 14.594394
_cell_length_c 5.316133
_cell_angle_alpha 90.000000
_cell_angle_beta 97.839053
_cell_angle_gamma 90.000000
_cell_volume 1769.557648
_symmetry_space_group_name_H-M "C 2/C"
_symmetry_group_IT_number 15
_symmetry_cell_setting 'monoclinic'
loop_
_space_group_symop_operation_xyz
x,y,z
-x,y,1/2-z
-x,-y,-z
x,-y,1/2+z
1/2+x,1/2+y,z
1/2-x,1/2+y,1/2-z
1/2-x,1/2-y,-z
1/2+x,1/2-y,1/2+z
loop_
_atom_site_type_symbol
_atom_site_label
_atom_site_fract_x
_atom_site_fract_y
_atom_site_fract_z
Si Si1 0.149647 0.768282 0.343789
Si Si2 0.461550 0.233443 0.480193
Si Si3 0.425701 0.966983 0.864203
Si Si4 0.250000 0.250000 0.500000
Si Si5 0.694743 0.552583 0.015283
Si Si6 0.182859 0.405702 0.148447
O O1 0.095254 0.792430 0.132673
O O2 0.206726 0.761524 0.208261
O O3 0.165817 0.848679 0.547980
O O4 0.143827 0.673295 0.488027
O O5 0.500000 0.235354 0.250000
O O6 0.433172 0.132485 0.490462
O O7 0.500000 0.255454 0.750000
O O8 0.450538 0.967706 0.596999
O O9 0.361218 0.013989 0.792380
O O10 0.214642 0.348320 0.390315
O O11 0.677281 0.511109 0.735943
O O12 0.764341 0.564759 0.008841
#
# Coordination Sequence:
#
# PCOD9289981 Si02
#       6
#     8   8   8   4   8   8
#     4  11  26  47  73 101 149 197 245 307 369 439
#     4  12  29  50  73 108 147 206 254 298 356 442
#     4  12  24  43  67 100 147 197 241 290 350 419
#     4  10  22  40  72 100 134 194 248 288 364 428
#     4  11  26  42  70 106 143 177 238 304 375 436
#     4  11  24  41  68 105 147 202 234 295 363 441
#
# _framework density 24.864971000000001
#
# number of rings (size 3 to 8) (size 9 to 14) (size 15 to 20)
#    0.000    0.727    1.818    5.455   12.727    2.182 
#    0.000    0.000    0.000    3.273    0.000    0.000 
#    0.000    0.000    0.000    0.000    0.000    0.000 
#
# Total GULP energy -122591.953487 kJ/mol
# GULP energy per Si atom -5572.361522 kJ/mol
# Density = 2.480838 g / cm^3
# Si number density = 24.864971 Si / 1000 Ang^3
#
#
#
# Elastic Constant Matrix: (Units=GPa)
#
#
# Indices 1 2 3 4 5 6 
#
# 1 61.9074 28.4642 30.8538 0.0000 3.2679 0.0000
# 2 28.4642 66.4603 1.3854 0.0000 -7.5035 0.0000
# 3 30.8538 1.3854 115.4808 0.0000 -10.4003 0.0000
# 4 0.0000 0.0000 0.0000 41.9089 0.0000 2.7252
# 5 3.2679 -7.5035 -10.4003 0.0000 34.9103 0.0000
# 6 0.0000 0.0000 0.0000 2.7252 0.0000 34.3391
#
#
#
# Elastic Compliance Matrix: (Units=1/GPa)
#
#
# Indices 1 2 3 4 5 6 
#
# 1 0.025477 -0.011555 -0.007303 0.000000 -0.007044 0.000000
# 2 -0.011555 0.020663 0.003429 0.000000 0.006544 0.000000
# 3 -0.007303 0.003429 0.010992 0.000000 0.004695 0.000000
# 4 0.000000 0.000000 0.000000 0.023985 0.000000 -0.001904
# 5 -0.007044 0.006544 0.004695 0.000000 0.032110 0.000000
# 6 0.000000 0.000000 0.000000 -0.001904 0.000000 0.029272
#
#
# Mechanical properties :
#
#
# Convention : Reuss Voigt Hill
#
# Bulk Modulus (GPa) = 38.05935 40.58394 39.32165
# Shear Modulus (GPa) = 27.45517 34.44132 30.94825
#
# Velocity S-wave (km/s) = 3.32651 3.72578 3.53179
# Velocity P-wave (km/s) = 5.48579 5.90472 5.69911
#
# Compressibility (1/GPa) = 0.02627475
#
# Stress axis : x y z
#
# Youngs Moduli (GPa) = 39.25074 48.39636 90.97288
#
# Poissons Ratio (x) = 0.55920 0.66435
# Poissons Ratio (y) = 0.45353 -0.31191
# Poissons Ratio (z) = 0.28664 -0.16593
#
# Static dielectric constant tensor:
#      x y z
#    x 2.063030 0.000000 0.084210 
#    y 0.000000 2.073860 0.000000 
#    z 0.084210 0.000000 2.109030 
# 
# From -- ./inp_files/15132.got.cif
#   From: 2010.05.17/outbox.cif.g08.bks.cpg/sg15_8_cif.got.tgz:15132.got - 2010.06.03 18:47:42.
