data_PCOD9289430
_publ_section_title
;
Structure prediction by ZEFSAII (Michael W. Deem and Ramdas Pophale) SiO2 
 PCOD9289430
Probable space group: C 2/C
;
_chemical_formula_sum "Si O2"
_cell_formula_units_Z 40
_cell_length_a 13.773894
_cell_length_b 4.778990
_cell_length_c 23.371365
_cell_angle_alpha 90.000000
_cell_angle_beta 113.736872
_cell_angle_gamma 90.000000
_cell_volume 1408.281961
_symmetry_space_group_name_H-M "C 2/C"
_symmetry_group_IT_number 15
_symmetry_cell_setting 'monoclinic'
loop_
_space_group_symop_operation_xyz
x,y,z
-x,y,1/2-z
-x,-y,-z
x,-y,1/2+z
1/2+x,1/2+y,z
1/2-x,1/2+y,1/2-z
1/2-x,1/2-y,-z
1/2+x,1/2-y,1/2+z
loop_
_atom_site_type_symbol
_atom_site_label
_atom_site_fract_x
_atom_site_fract_y
_atom_site_fract_z
Si Si1 0.250000 0.750000 0.000000
Si Si2 0.222921 0.469941 0.281109
Si Si3 0.704870 0.253869 0.582873
Si Si4 0.515153 0.036639 0.926052
Si Si5 0.568173 0.477491 0.371853
Si Si6 0.500000 0.096040 0.250000
O O1 0.372238 0.865683 0.024009
O O2 0.220090 0.015700 0.038231
O O3 0.278842 0.197899 0.270115
O O4 0.269644 0.604084 0.349463
O O5 0.102085 0.405562 0.265410
O O6 0.588650 0.127436 0.564924
O O7 0.801299 0.025572 0.592541
O O8 0.518944 0.219168 0.867950
O O9 0.521495 0.712072 0.912141
O O10 0.534397 0.309655 0.308338
#
# Coordination Sequence:
#
# PCOD9289430 Si02
#       6
#     4   8   8   8   8   4
#     4  10  24  44  66  96 128 172 220 264 322 380
#     4  11  24  41  66  97 128 169 214 261 324 386
#     4  10  23  42  67  94 131 169 214 268 320 382
#     4  11  23  43  64  91 128 169 214 267 319 378
#     4  10  24  40  64  96 127 167 215 260 322 386
#     4  10  22  40  64  94 132 166 208 268 318 382
#
# _framework density 28.403403000000001
#
# number of rings (size 3 to 8) (size 9 to 14) (size 15 to 20)
#    0.000    1.600    0.000    3.000    0.000   17.600 
#    0.000    6.000    0.000    0.000    0.000    0.000 
#    0.000    0.000    0.000    0.000    0.000    0.000 
#
# Total GULP energy -111999.799966 kJ/mol
# GULP energy per Si atom -5599.989998 kJ/mol
# Density = 2.833876 g / cm^3
# Si number density = 28.403403 Si / 1000 Ang^3
#
#
#
# Elastic Constant Matrix: (Units=GPa)
#
#
# Indices 1 2 3 4 5 6 
#
# 1 278.1905 53.9455 70.4046 0.0000 9.0517 0.0000
# 2 53.9455 121.7855 9.6291 0.0000 -23.3999 0.0002
# 3 70.4046 9.6291 104.4859 0.0000 -6.0773 0.0000
# 4 0.0000 0.0000 0.0000 23.7339 0.0000 2.2366
# 5 9.0517 -23.3999 -6.0773 0.0000 45.5827 0.0000
# 6 0.0000 0.0002 0.0000 2.2366 0.0000 39.4668
#
#
#
# Elastic Compliance Matrix: (Units=1/GPa)
#
#
# Indices 1 2 3 4 5 6 
#
# 1 0.004996 -0.002471 -0.003296 0.000000 -0.002700 0.000000
# 2 -0.002471 0.010366 0.001056 0.000000 0.005953 0.000000
# 3 -0.003296 0.001056 0.011855 0.000000 0.002777 0.000000
# 4 0.000000 0.000000 0.000000 0.042360 0.000000 -0.002401
# 5 -0.002700 0.005953 0.002777 0.000000 0.025901 0.000000
# 6 0.000000 0.000000 0.000000 -0.002401 0.000000 0.025474
#
#
# Mechanical properties :
#
#
# Convention : Reuss Voigt Hill
#
# Bulk Modulus (GPa) = 56.19233 85.82448 71.00841
# Shear Modulus (GPa) = 36.68248 46.45552 41.56900
#
# Velocity S-wave (km/s) = 3.59762 4.04860 3.82975
# Velocity P-wave (km/s) = 6.08964 7.22057 6.67909
#
# Compressibility (1/GPa) = 0.01779602
#
# Stress axis : x y z
#
# Youngs Moduli (GPa) = 200.17104 96.46886 84.34923
#
# Poissons Ratio (x) = 0.23838 0.27798
# Poissons Ratio (y) = 0.49464 -0.08907
# Poissons Ratio (z) = 0.65967 -0.10187
#
# Static dielectric constant tensor:
#      x y z
#    x 2.066700 0.000000 -0.107270 
#    y 0.000000 2.078220 0.000000 
#    z -0.107270 0.000000 1.813420 
# 
# From -- ./inp_files/271749.got.cif
#   From: 2010.05.17/outbox.cif.g08.bks.cpg/sg15_136_cif.got.tgz:271749.got - 2010.06.03 18:47:42.
