data_PCOD9289803
_publ_section_title
;
Structure prediction by ZEFSAII (Michael W. Deem and Ramdas Pophale) SiO2 
 PCOD9289803
Probable space group: C 2/C
;
_chemical_formula_sum "Si O2"
_cell_formula_units_Z 56
_cell_length_a 25.318566
_cell_length_b 6.485444
_cell_length_c 19.532046
_cell_angle_alpha 90.000000
_cell_angle_beta 108.391004
_cell_angle_gamma 90.000000
_cell_volume 3043.397652
_symmetry_space_group_name_H-M "C 2/C"
_symmetry_group_IT_number 15
_symmetry_cell_setting 'monoclinic'
loop_
_space_group_symop_operation_xyz
x,y,z
-x,y,1/2-z
-x,-y,-z
x,-y,1/2+z
1/2+x,1/2+y,z
1/2-x,1/2+y,1/2-z
1/2-x,1/2-y,-z
1/2+x,1/2-y,1/2+z
loop_
_atom_site_type_symbol
_atom_site_label
_atom_site_fract_x
_atom_site_fract_y
_atom_site_fract_z
Si Si1 0.334048 0.448998 0.270842
Si Si2 0.826586 0.785876 0.639188
Si Si3 0.768176 0.401144 0.685593
Si Si4 0.922025 0.070131 0.928388
Si Si5 0.029291 0.687934 0.472244
Si Si6 0.381566 0.115397 0.531044
Si Si7 0.766549 0.602948 0.944457
O O1 0.351155 0.595454 0.215022
O O2 0.273925 0.526072 0.273298
O O3 0.320607 0.221799 0.237366
O O4 0.376291 0.445900 0.350839
O O5 0.791781 0.590427 0.651877
O O6 0.869943 0.719245 0.599194
O O7 0.782192 0.938128 0.586196
O O8 0.734030 0.246082 0.622861
O O9 0.978561 0.175590 0.922568
O O10 0.900944 0.215829 0.982473
O O11 0.937976 0.846590 0.965034
O O12 0.073744 0.569244 0.443957
O O13 0.000000 0.500000 0.500000
O O14 0.324155 0.012431 0.481726
O O15 0.750000 0.750000 0.000000
#
# Coordination Sequence:
#
# PCOD9289803 Si02
#       7
#     8   8   8   8   8   8   8
#     4  11  23  37  60  86 128 170 199 245 311 377
#     4  11  24  37  54  91 130 163 209 249 307 380
#     4  11  22  37  54  86 129 168 206 243 299 385
#     4  10  22  40  68  91 121 157 212 265 313 368
#     4   9  21  41  65  95 112 152 212 266 310 364
#     4  11  22  36  64  90 124 159 206 266 313 355
#     4  11  23  35  58  92 124 163 206 249 313 372
#
# _framework density 18.400486000000001
#
# number of rings (size 3 to 8) (size 9 to 14) (size 15 to 20)
#    0.000    1.429    2.857    2.143    6.000    2.286 
#    0.000    0.000    0.000   20.571    0.000    0.000 
#    0.000    0.000    0.000    0.000    0.000    0.000 
#
# Total GULP energy -156338.936450 kJ/mol
# GULP energy per Si atom -5583.533445 kJ/mol
# Density = 1.835861 g / cm^3
# Si number density = 18.400486 Si / 1000 Ang^3
#
#
#
# Elastic Constant Matrix: (Units=GPa)
#
#
# Indices 1 2 3 4 5 6 
#
# 1 76.4291 45.4388 50.5829 0.0000 -13.2761 0.0000
# 2 45.4388 126.8437 54.1773 0.0000 -7.0892 0.0000
# 3 50.5829 54.1773 99.2956 0.0000 -6.8029 0.0000
# 4 0.0000 0.0000 0.0000 26.6065 0.0000 -12.0967
# 5 -13.2761 -7.0892 -6.8029 0.0000 21.5999 0.0000
# 6 0.0000 0.0000 0.0000 -12.0967 0.0000 34.5587
#
#
#
# Elastic Compliance Matrix: (Units=1/GPa)
#
#
# Indices 1 2 3 4 5 6 
#
# 1 0.023057 -0.003878 -0.008939 0.000000 0.010084 0.000000
# 2 -0.003878 0.010989 -0.004023 0.000000 -0.000044 0.000000
# 3 -0.008939 -0.004023 0.016713 0.000000 -0.001551 0.000000
# 4 0.000000 0.000000 0.000000 0.044698 0.000000 0.015646
# 5 0.010084 -0.000044 -0.001551 0.000000 0.051991 0.000000
# 6 0.000000 0.000000 0.000000 0.015646 0.000000 0.034413
#
#
# Mechanical properties :
#
#
# Convention : Reuss Voigt Hill
#
# Bulk Modulus (GPa) = 58.55101 66.99624 62.77363
# Shear Modulus (GPa) = 22.60034 26.71098 24.65566
#
# Velocity S-wave (km/s) = 3.50844 3.81418 3.66450
# Velocity P-wave (km/s) = 6.94994 7.47572 7.21762
#
# Compressibility (1/GPa) = 0.01707912
#
# Stress axis : x y z
#
# Youngs Moduli (GPa) = 43.37023 91.00120 59.83217
#
# Poissons Ratio (x) = 0.35292 0.53484
# Poissons Ratio (y) = 0.16820 0.24071
# Poissons Ratio (z) = 0.38768 0.36611
#
# Static dielectric constant tensor:
#      x y z
#    x 1.634980 0.000000 -0.006860 
#    y 0.000000 1.659680 0.000000 
#    z -0.006860 0.000000 1.623300 
# 
# From -- ./inp_files/221283.got.cif
#   From: 2010.05.17/outbox.cif.g08.bks.cpg/sg15_111_cif.got.tgz:221283.got - 2010.06.03 18:47:42.
