data_PCOD9289732
_publ_section_title
;
Structure prediction by ZEFSAII (Michael W. Deem and Ramdas Pophale) SiO2 
 PCOD9289732
Probable space group: C 2/C
;
_chemical_formula_sum "Si O2"
_cell_formula_units_Z 52
_cell_length_a 8.613414
_cell_length_b 16.082338
_cell_length_c 30.125616
_cell_angle_alpha 90.000000
_cell_angle_beta 35.506884
_cell_angle_gamma 90.000000
_cell_volume 2423.748894
_symmetry_space_group_name_H-M "C 2/C"
_symmetry_group_IT_number 15
_symmetry_cell_setting 'monoclinic'
loop_
_space_group_symop_operation_xyz
x,y,z
-x,y,1/2-z
-x,-y,-z
x,-y,1/2+z
1/2+x,1/2+y,z
1/2-x,1/2+y,1/2-z
1/2-x,1/2-y,-z
1/2+x,1/2-y,1/2+z
loop_
_atom_site_type_symbol
_atom_site_label
_atom_site_fract_x
_atom_site_fract_y
_atom_site_fract_z
Si Si1 0.366159 0.049400 0.327211
Si Si2 0.842903 0.267312 0.552151
Si Si3 0.500000 0.679596 0.750000
Si Si4 0.426878 0.597775 0.570348
Si Si5 0.339996 0.724677 0.105753
Si Si6 0.923988 0.540968 0.646116
Si Si7 0.970734 0.446757 0.551383
O O1 0.500000 0.071527 0.250000
O O2 0.190501 0.125325 0.386007
O O3 0.199253 0.962930 0.362826
O O4 0.584125 0.028764 0.314094
O O5 0.880448 0.196482 0.580566
O O6 0.582387 0.252851 0.582512
O O7 0.086532 0.257780 0.460051
O O8 0.829102 0.359858 0.574208
O O9 0.419518 0.734825 0.811094
O O10 0.747084 0.618447 0.701398
O O11 0.737946 0.578475 0.497255
O O12 0.238100 0.568083 0.573143
O O13 0.838476 0.504739 0.619195
O O14 0.000000 0.500000 0.500000
#
# Coordination Sequence:
#
# PCOD9289732 Si02
#       7
#     8   8   4   8   8   8   8
#     4  10  22  40  67  96 130 182 221 267 336 410
#     4  11  24  40  69 102 134 176 225 290 329 396
#     4  12  22  44  66  96 134 182 226 272 334 410
#     4  10  23  44  68  96 140 173 222 280 346 392
#     4  11  22  40  69 100 134 176 232 269 339 408
#     4  10  25  43  66  94 140 174 215 279 342 399
#     4  12  24  41  69 105 130 173 229 281 339 403
#
# _framework density 21.454367999999999
#
# number of rings (size 3 to 8) (size 9 to 14) (size 15 to 20)
#    0.923    0.308    2.308    3.692    4.308    3.692 
#    0.000    0.000    1.692    0.000    0.000    0.000 
#    0.000    0.000    0.000    0.000    0.000    0.000 
#
# Total GULP energy -145063.150384 kJ/mol
# GULP energy per Si atom -5579.351938 kJ/mol
# Density = 2.140554 g / cm^3
# Si number density = 21.454368 Si / 1000 Ang^3
#
#
#
# Elastic Constant Matrix: (Units=GPa)
#
#
# Indices 1 2 3 4 5 6 
#
# 1 49.7663 17.0197 11.3106 -0.0050 1.7381 0.0028
# 2 17.0197 108.5550 18.8834 -0.0001 7.1617 0.0005
# 3 11.3106 18.8834 62.6416 -0.0029 10.4106 0.0055
# 4 -0.0050 -0.0001 -0.0029 37.4785 0.0057 -5.3527
# 5 1.7381 7.1617 10.4106 0.0057 26.1745 -0.0040
# 6 0.0028 0.0005 0.0055 -5.3527 -0.0040 37.6489
#
#
#
# Elastic Compliance Matrix: (Units=1/GPa)
#
#
# Indices 1 2 3 4 5 6 
#
# 1 0.021784 -0.002906 -0.003158 0.000002 0.000605 -0.000001
# 2 -0.002906 0.010172 -0.002261 0.000000 -0.001691 0.000000
# 3 -0.003158 -0.002261 0.018287 0.000002 -0.006445 -0.000003
# 4 0.000002 0.000000 0.000002 0.027235 -0.000006 0.003872
# 5 0.000605 -0.001691 -0.006445 -0.000006 0.041191 0.000004
# 6 -0.000001 0.000000 -0.000003 0.003872 0.000004 0.027112
#
#
# Mechanical properties :
#
#
# Convention : Reuss Voigt Hill
#
# Bulk Modulus (GPa) = 29.76702 35.04335 32.40518
# Shear Modulus (GPa) = 28.79716 31.84369 30.32042
#
# Velocity S-wave (km/s) = 3.66765 3.85678 3.76340
# Velocity P-wave (km/s) = 5.64271 6.01684 5.83278
#
# Compressibility (1/GPa) = 0.03359423
#
# Stress axis : x y z
#
# Youngs Moduli (GPa) = 45.90461 98.30567 54.68479
#
# Poissons Ratio (x) = 0.28568 0.17269
# Poissons Ratio (y) = 0.13340 0.12363
# Poissons Ratio (z) = 0.14496 0.22224
#
# Static dielectric constant tensor:
#      x y z
#    x 1.776910 0.000000 -0.024520 
#    y 0.000000 1.805430 0.000010 
#    z -0.024520 0.000010 1.810200 
# 
# From -- ./inp_files/308502.got.cif
#   From: 2010.05.17/outbox.cif.g08.bks.cpg/sg15_155_cif.got.tgz:308502.got - 2010.06.03 18:47:42.
