data_PCOD9289449
_publ_section_title
;
Structure prediction by ZEFSAII (Michael W. Deem and Ramdas Pophale) SiO2 
 PCOD9289449
Probable space group: C 2/C
;
_chemical_formula_sum "Si O2"
_cell_formula_units_Z 56
_cell_length_a 18.511677
_cell_length_b 7.939619
_cell_length_c 21.607614
_cell_angle_alpha 90.000000
_cell_angle_beta 57.694840
_cell_angle_gamma 90.000000
_cell_volume 2684.224095
_symmetry_space_group_name_H-M "C 2/C"
_symmetry_group_IT_number 15
_symmetry_cell_setting 'monoclinic'
loop_
_space_group_symop_operation_xyz
x,y,z
-x,y,1/2-z
-x,-y,-z
x,-y,1/2+z
1/2+x,1/2+y,z
1/2-x,1/2+y,1/2-z
1/2-x,1/2-y,-z
1/2+x,1/2-y,1/2+z
loop_
_atom_site_type_symbol
_atom_site_label
_atom_site_fract_x
_atom_site_fract_y
_atom_site_fract_z
Si Si1 0.593750 0.600489 0.221728
Si Si2 0.789159 0.300049 0.047199
Si Si3 0.152906 0.168728 0.860495
Si Si4 0.222906 0.194591 0.700239
Si Si5 0.517301 0.803757 0.503832
Si Si6 0.240306 0.809460 0.574678
Si Si7 0.103874 0.209725 0.349241
O O1 0.500000 0.534269 0.250000
O O2 0.657556 0.453426 0.213809
O O3 0.641776 0.684766 0.142179
O O4 0.584517 0.718351 0.285987
O O5 0.734964 0.214867 0.128129
O O6 0.890007 0.265872 0.008440
O O7 0.776929 0.500667 0.060178
O O8 0.750000 0.250000 0.000000
O O9 0.190099 0.259915 0.781776
O O10 0.209862 0.206123 0.894865
O O11 0.146491 0.971283 0.846139
O O12 0.058256 0.229242 0.920908
O O13 0.322925 0.154135 0.667759
O O14 0.524567 0.726741 0.431480
O O15 0.500000 0.000000 0.500000
O O16 0.250000 0.750000 0.500000
#
# Coordination Sequence:
#
# PCOD9289449 Si02
#       7
#     8   8   8   8   8   8   8
#     4  10  22  40  64  96 130 166 212 274 325 374
#     4  10  23  43  63  91 130 171 206 268 331 383
#     4  11  22  40  66  96 122 172 223 264 314 389
#     4   9  21  41  66  88 124 169 215 256 317 390
#     4  11  23  40  64  94 129 165 219 274 314 385
#     4  11  24  39  63  93 133 168 213 262 331 382
#     4  10  22  40  68  91 125 173 223 260 324 395
#
# _framework density 20.862639000000001
#
# number of rings (size 3 to 8) (size 9 to 14) (size 15 to 20)
#    0.000    1.714    2.857    0.429    6.000    4.571 
#    0.000    0.000    0.000    0.000    0.000    0.000 
#    0.000    0.000    0.000    0.000    0.000    0.000 
#
# Total GULP energy -156065.730162 kJ/mol
# GULP energy per Si atom -5573.776077 kJ/mol
# Density = 2.081515 g / cm^3
# Si number density = 20.862639 Si / 1000 Ang^3
#
#
#
# Elastic Constant Matrix: (Units=GPa)
#
#
# Indices 1 2 3 4 5 6 
#
# 1 77.6709 16.3367 67.3923 0.0001 -0.0791 0.0009
# 2 16.3367 55.3410 21.0195 0.0001 4.2347 0.0018
# 3 67.3923 21.0195 214.1982 0.0000 12.0944 0.0000
# 4 0.0001 0.0001 0.0000 25.6115 -0.0001 0.4556
# 5 -0.0791 4.2347 12.0944 -0.0001 40.7173 0.0000
# 6 0.0009 0.0018 0.0000 0.4556 0.0000 29.7754
#
#
#
# Elastic Compliance Matrix: (Units=1/GPa)
#
#
# Indices 1 2 3 4 5 6 
#
# 1 0.018451 -0.003485 -0.005579 0.000000 0.002055 0.000000
# 2 -0.003485 0.019510 -0.000715 0.000000 -0.001823 -0.000001
# 3 -0.005579 -0.000715 0.006601 0.000000 -0.001897 0.000000
# 4 0.000000 0.000000 0.000000 0.039056 0.000000 -0.000598
# 5 0.002055 -0.001823 -0.001897 0.000000 0.025317 0.000000
# 6 0.000000 -0.000001 0.000000 -0.000598 0.000000 0.033594
#
#
# Mechanical properties :
#
#
# Convention : Reuss Voigt Hill
#
# Bulk Modulus (GPa) = 39.99471 61.85634 50.92553
# Shear Modulus (GPa) = 29.33918 35.38496 32.36207
#
# Velocity S-wave (km/s) = 3.75414 4.12283 3.94280
# Velocity P-wave (km/s) = 6.16470 7.23722 6.72238
#
# Compressibility (1/GPa) = 0.02500331
#
# Stress axis : x y z
#
# Youngs Moduli (GPa) = 54.19836 51.25665 151.48709
#
# Poissons Ratio (x) = 0.17862 0.84517
# Poissons Ratio (y) = 0.18887 0.10833
# Poissons Ratio (z) = 0.30238 0.03665
#
# Static dielectric constant tensor:
#      x y z
#    x 1.743280 0.000000 0.018830 
#    y 0.000000 1.799150 0.000000 
#    z 0.018830 0.000000 1.808700 
# 
# From -- ./inp_files/247352.got.cif
#   From: 2010.05.17/outbox.cif.g08.bks.cpg/sg15_124_cif.got.tgz:247352.got - 2010.06.03 18:47:42.
