data_PCOD9289630
_publ_section_title
;
Structure prediction by ZEFSAII (Michael W. Deem and Ramdas Pophale) SiO2 
 PCOD9289630
Probable space group: C 2/C
;
_chemical_formula_sum "Si O2"
_cell_formula_units_Z 52
_cell_length_a 15.021135
_cell_length_b 19.943793
_cell_length_c 19.754351
_cell_angle_alpha 90.000000
_cell_angle_beta 153.277726
_cell_angle_gamma 90.000000
_cell_volume 2661.114628
_symmetry_space_group_name_H-M "C 2/C"
_symmetry_group_IT_number 15
_symmetry_cell_setting 'monoclinic'
loop_
_space_group_symop_operation_xyz
x,y,z
-x,y,1/2-z
-x,-y,-z
x,-y,1/2+z
1/2+x,1/2+y,z
1/2-x,1/2+y,1/2-z
1/2-x,1/2-y,-z
1/2+x,1/2-y,1/2+z
loop_
_atom_site_type_symbol
_atom_site_label
_atom_site_fract_x
_atom_site_fract_y
_atom_site_fract_z
Si Si1 0.865229 0.643951 0.845834
Si Si2 0.380230 0.169485 0.226541
Si Si3 0.052378 0.198979 0.897001
Si Si4 0.231921 0.488842 0.169915
Si Si5 0.737339 0.862680 0.701471
Si Si6 0.982139 0.741381 0.659080
Si Si7 0.500000 0.592229 0.750000
O O1 0.678097 0.687395 0.741323
O O2 0.775290 0.569124 0.778121
O O3 0.951623 0.676653 0.837811
O O4 0.038665 0.646056 0.020485
O O5 0.500000 0.127968 0.250000
O O6 0.537281 0.228842 0.351213
O O7 0.321063 0.140624 0.259056
O O8 0.181284 0.193459 0.052525
O O9 0.097668 0.141369 0.872282
O O10 0.317840 0.562105 0.242768
O O11 0.342049 0.453601 0.181883
O O12 0.000000 0.500000 0.000000
O O13 0.891341 0.804622 0.784082
O O14 0.750000 0.750000 0.500000
O O15 0.000000 0.732197 0.750000
#
# Coordination Sequence:
#
# PCOD9289630 Si02
#       7
#     8   8   8   8   8   8   4
#     4  10  22  44  65  95 130 171 222 273 335 392
#     4  12  25  37  64  95 135 167 215 269 335 389
#     4  11  23  38  62  96 129 168 207 275 328 389
#     4   9  22  41  71  89 130 179 219 277 332 403
#     4  11  24  43  67  99 135 171 230 273 336 403
#     4  12  25  40  68  99 133 175 222 279 334 400
#     4  10  22  40  66  94 126 168 232 262 334 404
#
# _framework density 19.540683000000001
#
# number of rings (size 3 to 8) (size 9 to 14) (size 15 to 20)
#    0.000    1.231    3.846    1.385    9.692    0.000 
#    0.000    3.846    0.000    0.000    0.000    0.000 
#    0.000    0.000    0.000    0.000    0.000    0.000 
#
# Total GULP energy -144921.969878 kJ/mol
# GULP energy per Si atom -5573.921918 kJ/mol
# Density = 1.949621 g / cm^3
# Si number density = 19.540683 Si / 1000 Ang^3
#
#
#
# Elastic Constant Matrix: (Units=GPa)
#
#
# Indices 1 2 3 4 5 6 
#
# 1 172.4454 71.4724 41.9990 0.0023 -13.9634 -0.0006
# 2 71.4724 87.4522 22.6004 0.0056 -9.8119 0.0070
# 3 41.9990 22.6004 106.9435 0.0272 -15.4627 0.0099
# 4 0.0023 0.0056 0.0272 15.6361 0.0112 6.9191
# 5 -13.9634 -9.8119 -15.4627 0.0112 36.3748 0.0049
# 6 -0.0006 0.0070 0.0099 6.9191 0.0049 36.9070
#
#
#
# Elastic Compliance Matrix: (Units=1/GPa)
#
#
# Indices 1 2 3 4 5 6 
#
# 1 0.009234 -0.006927 -0.002046 0.000004 0.000806 0.000001
# 2 -0.006927 0.017479 -0.000720 -0.000004 0.001749 -0.000003
# 3 -0.002046 -0.000720 0.010830 -0.000021 0.003624 0.000001
# 4 0.000004 -0.000004 -0.000021 0.069740 -0.000028 -0.013075
# 5 0.000806 0.001749 0.003624 -0.000028 0.029814 0.000000
# 6 0.000001 -0.000003 0.000001 -0.013075 0.000000 0.029546
#
#
# Mechanical properties :
#
#
# Convention : Reuss Voigt Hill
#
# Bulk Modulus (GPa) = 55.07798 70.99830 63.03814
# Shear Modulus (GPa) = 26.03065 33.16820 29.59942
#
# Velocity S-wave (km/s) = 3.65379 4.12441 3.89621
# Velocity P-wave (km/s) = 6.78585 7.68723 7.25056
#
# Compressibility (1/GPa) = 0.01815608
#
# Stress axis : x y z
#
# Youngs Moduli (GPa) = 108.30116 57.21267 92.33267
#
# Poissons Ratio (x) = 0.39632 0.18888
# Poissons Ratio (y) = 0.75022 0.06652
# Poissons Ratio (z) = 0.22155 0.04122
#
# Static dielectric constant tensor:
#      x y z
#    x 1.716710 0.000020 0.035580 
#    y 0.000020 1.768470 0.000010 
#    z 0.035580 0.000010 1.690880 
# 
# From -- ./inp_files/206841.got.cif
#   From: 2010.05.17/outbox.cif.g08.bks.cpg/sg15_104_cif.got.tgz:206841.got - 2010.06.03 18:47:42.
