data_PCOD9289662
_publ_section_title
;
Structure prediction by ZEFSAII (Michael W. Deem and Ramdas Pophale) SiO2 
 PCOD9289662
Probable space group: C 2/C
;
_chemical_formula_sum "Si O2"
_cell_formula_units_Z 56
_cell_length_a 9.076855
_cell_length_b 31.034518
_cell_length_c 11.746567
_cell_angle_alpha 90.000000
_cell_angle_beta 57.164668
_cell_angle_gamma 90.000000
_cell_volume 2780.294393
_symmetry_space_group_name_H-M "C 2/C"
_symmetry_group_IT_number 15
_symmetry_cell_setting 'monoclinic'
loop_
_space_group_symop_operation_xyz
x,y,z
-x,y,1/2-z
-x,-y,-z
x,-y,1/2+z
1/2+x,1/2+y,z
1/2-x,1/2+y,1/2-z
1/2-x,1/2-y,-z
1/2+x,1/2-y,1/2+z
loop_
_atom_site_type_symbol
_atom_site_label
_atom_site_fract_x
_atom_site_fract_y
_atom_site_fract_z
Si Si1 0.361524 0.980000 0.646366
Si Si2 0.580312 0.704706 0.039605
Si Si3 0.000000 0.675017 0.250000
Si Si4 0.987189 0.889789 0.518850
Si Si5 0.245385 0.772927 0.692667
Si Si6 0.000000 0.064526 0.250000
Si Si7 0.815563 0.064669 0.757997
Si Si8 0.372242 0.094937 0.442033
O O1 0.179580 0.962312 0.673023
O O2 0.471800 0.939147 0.645105
O O3 0.500000 0.000000 0.500000
O O4 0.285737 0.021884 0.744383
O O5 0.493494 0.661740 0.026014
O O6 0.430190 0.734111 0.160250
O O7 0.701638 0.696595 0.100811
O O8 0.678739 0.730603 0.899795
O O9 0.872523 0.704914 0.229935
O O10 0.925773 0.642116 0.376714
O O11 0.806964 0.911807 0.552599
O O12 0.010763 0.906602 0.634747
O O13 0.131806 0.905764 0.369401
O O14 0.000000 0.055065 0.750000
O O15 0.689908 0.088713 0.901426
#
# Coordination Sequence:
#
# PCOD9289662 Si02
#       8
#     8   8   4   8   8   4   8   8
#     4  10  22  43  65  94 137 173 232 288 343 405
#     4  10  22  45  66  96 132 179 218 280 339 427
#     4  12  22  40  66 103 130 174 227 282 338 412
#     4  11  23  42  69  95 131 180 227 277 343 413
#     4  10  23  41  69  94 135 170 227 275 348 407
#     4  12  24  40  68  95 126 182 231 272 344 416
#     4   9  20  43  62  94 134 177 227 280 346 399
#     4  10  22  40  66  97 130 175 222 290 331 401
#
# _framework density 20.141753000000001
#
# number of rings (size 3 to 8) (size 9 to 14) (size 15 to 20)
#    0.000    1.714    2.143    1.714    2.000    2.286 
#   11.571    2.143    0.000    0.000    0.000    0.000 
#    0.000    0.000    0.000    0.000    0.000    0.000 
#
# Total GULP energy -155957.516020 kJ/mol
# GULP energy per Si atom -5569.911286 kJ/mol
# Density = 2.009591 g / cm^3
# Si number density = 20.141753 Si / 1000 Ang^3
#
#
#
# Elastic Constant Matrix: (Units=GPa)
#
#
# Indices 1 2 3 4 5 6 
#
# 1 101.3142 44.3027 49.8439 0.0000 -2.1232 0.0000
# 2 44.3027 70.9819 46.4244 0.0000 -4.9016 0.0000
# 3 49.8439 46.4244 128.7269 0.0000 -10.4430 0.0000
# 4 0.0000 0.0000 0.0000 11.8252 0.0000 -46.5867
# 5 -2.1232 -4.9016 -10.4430 0.0000 30.5404 0.0000
# 6 0.0000 0.0000 0.0000 -46.5867 0.0000 -31.5912
#
#
#
# Elastic Compliance Matrix: (Units=1/GPa)
#
#
# Indices 1 2 3 4 5 6 
#
# 1 0.014486 -0.007057 -0.003162 0.000000 -0.001207 0.000000
# 2 -0.007057 0.021889 -0.005057 0.000000 0.001293 0.000000
# 3 -0.003162 -0.005057 0.011039 0.000000 0.002743 0.000000
# 4 0.000000 0.000000 0.000000 0.012418 0.000000 -0.018313
# 5 -0.001207 0.001293 0.002743 0.000000 0.033805 0.000000
# 6 0.000000 0.000000 0.000000 -0.018313 0.000000 -0.004648
#
#
# Mechanical properties :
#
#
# Convention : Reuss Voigt Hill
#
# Bulk Modulus (GPa) = 59.30089 64.68502 61.99295
# Shear Modulus (GPa) = 39.94810 12.85169 26.39990
#
# Velocity S-wave (km/s) = 4.45831 2.52873 3.62429
# Velocity P-wave (km/s) = 7.48383 6.38048 6.95407
#
# Compressibility (1/GPa) = 0.01686315
#
# Stress axis : x y z
#
# Youngs Moduli (GPa) = 69.02984 45.68480 90.58748
#
# Poissons Ratio (x) = 0.32239 0.28646
# Poissons Ratio (y) = 0.48713 0.45808
# Poissons Ratio (z) = 0.21829 0.23102
#
# Static dielectric constant tensor:
#      x y z
#    x 1.801960 0.000000 -0.010990 
#    y 0.000000 1.711550 0.000000 
#    z -0.010990 0.000000 1.703630 
# 
# From -- ./inp_files/82502.got.cif
#   From: 2010.05.17/outbox.cif.g08.bks.cpg/sg15_42_cif.got.tgz:82502.got - 2010.06.03 18:47:42.
