data_PCOD9289989
_publ_section_title
;
Structure prediction by ZEFSAII (Michael W. Deem and Ramdas Pophale) SiO2 
 PCOD9289989
Probable space group: C 2/C
;
_chemical_formula_sum "Si O2"
_cell_formula_units_Z 60
_cell_length_a 9.489813
_cell_length_b 10.920175
_cell_length_c 27.020488
_cell_angle_alpha 90.000000
_cell_angle_beta 94.373889
_cell_angle_gamma 90.000000
_cell_volume 2791.989375
_symmetry_space_group_name_H-M "C 2/C"
_symmetry_group_IT_number 15
_symmetry_cell_setting 'monoclinic'
loop_
_space_group_symop_operation_xyz
x,y,z
-x,y,1/2-z
-x,-y,-z
x,-y,1/2+z
1/2+x,1/2+y,z
1/2-x,1/2+y,1/2-z
1/2-x,1/2-y,-z
1/2+x,1/2-y,1/2+z
loop_
_atom_site_type_symbol
_atom_site_label
_atom_site_fract_x
_atom_site_fract_y
_atom_site_fract_z
Si Si1 0.156346 0.035934 0.522197
Si Si2 0.440538 0.731753 0.340734
Si Si3 0.000000 0.591378 0.750000
Si Si4 0.243838 0.223541 0.070398
Si Si5 0.378411 0.969298 0.458662
Si Si6 0.992066 0.633376 0.381308
Si Si7 0.259361 0.800507 0.114274
Si Si8 0.222050 0.466139 0.814170
O O1 0.201179 0.913334 0.553980
O O2 0.246057 0.048354 0.473939
O O3 0.203709 0.147294 0.559673
O O4 0.000000 0.000000 0.500000
O O5 0.468870 0.825114 0.296988
O O6 0.320401 0.759535 0.377943
O O7 0.586134 0.737452 0.376683
O O8 0.368267 0.609311 0.315108
O O9 0.141998 0.512722 0.763221
O O10 0.175067 0.330728 0.036714
O O11 0.412328 0.217502 0.079576
O O12 0.500000 0.000000 0.500000
O O13 0.443269 0.010345 0.408264
O O14 0.095405 0.605946 0.339012
O O15 0.851515 0.705239 0.366677
O O16 0.254280 0.917820 0.149876
#
# Coordination Sequence:
#
# PCOD9289989 Si02
#       8
#     8   8   4   8   8   8   8   8
#     4  12  25  39  62  96 137 180 233 291 320 378
#     4  10  22  42  71  93 132 172 208 274 337 401
#     4  10  22  40  72 102 124 162 214 268 336 414
#     4  11  23  44  61  88 137 176 219 275 340 385
#     4  12  23  38  59  89 124 174 232 273 321 383
#     4  11  24  41  66  90 125 181 216 265 337 386
#     4  11  23  43  65  96 132 179 226 265 332 391
#     4  10  22  47  67  97 138 164 212 275 334 406
#
# _framework density 21.490054000000001
#
# number of rings (size 3 to 8) (size 9 to 14) (size 15 to 20)
#    0.000    1.067    4.000    3.600    3.733    3.733 
#    0.000    2.667    0.000    0.000    0.000    0.000 
#    0.000    0.000    0.000    0.000    0.000    0.000 
#
# Total GULP energy -167214.768028 kJ/mol
# GULP energy per Si atom -5573.825601 kJ/mol
# Density = 2.144114 g / cm^3
# Si number density = 21.490054 Si / 1000 Ang^3
#
#
#
# Elastic Constant Matrix: (Units=GPa)
#
#
# Indices 1 2 3 4 5 6 
#
# 1 149.2724 38.0204 19.3277 0.0000 7.9829 0.0000
# 2 38.0204 76.4303 4.7453 0.0000 -4.4396 0.0000
# 3 19.3277 4.7453 59.0503 0.0000 -2.3985 0.0000
# 4 0.0000 0.0000 0.0000 8.8152 0.0000 -2.1036
# 5 7.9829 -4.4396 -2.3985 0.0000 19.8941 0.0000
# 6 0.0000 0.0000 0.0000 -2.1036 0.0000 39.7914
#
#
#
# Elastic Compliance Matrix: (Units=1/GPa)
#
#
# Indices 1 2 3 4 5 6 
#
# 1 0.008369 -0.004271 -0.002584 0.000000 -0.004623 0.000000
# 2 -0.004271 0.015489 0.000365 0.000000 0.005214 0.000000
# 3 -0.002584 0.000365 0.017884 0.000000 0.003274 0.000000
# 4 0.000000 0.000000 0.000000 0.114890 0.000000 0.006074
# 5 -0.004623 0.005214 0.003274 0.000000 0.053680 0.000000
# 6 0.000000 0.000000 0.000000 0.006074 0.000000 0.025452
#
#
# Mechanical properties :
#
#
# Convention : Reuss Voigt Hill
#
# Bulk Modulus (GPa) = 34.76807 45.43774 40.10291
# Shear Modulus (GPa) = 19.35509 28.54412 23.94960
#
# Velocity S-wave (km/s) = 3.00434 3.64847 3.34196
# Velocity P-wave (km/s) = 5.31494 6.24003 5.79597
#
# Compressibility (1/GPa) = 0.02876202
#
# Stress axis : x y z
#
# Youngs Moduli (GPa) = 119.49123 64.56301 55.91577
#
# Poissons Ratio (x) = 0.27576 0.14447
# Poissons Ratio (y) = 0.51037 -0.02042
# Poissons Ratio (z) = 0.30873 -0.02357
#
# Static dielectric constant tensor:
#      x y z
#    x 1.804580 0.000000 0.029450 
#    y 0.000000 1.833920 0.000000 
#    z 0.029450 0.000000 1.871760 
# 
# From -- ./inp_files/288020.got.cif
#   From: 2010.05.17/outbox.cif.g08.bks.cpg/sg15_145_cif.got.tgz:288020.got - 2010.06.03 18:47:42.
