data_PCOD9289573
_publ_section_title
;
Structure prediction by ZEFSAII (Michael W. Deem and Ramdas Pophale) SiO2 
 PCOD9289573
Probable space group: C 2/C
;
_chemical_formula_sum "Si O2"
_cell_formula_units_Z 44
_cell_length_a 5.546132
_cell_length_b 21.718948
_cell_length_c 17.373215
_cell_angle_alpha 90.000000
_cell_angle_beta 60.977357
_cell_angle_gamma 90.000000
_cell_volume 1829.924869
_symmetry_space_group_name_H-M "C 2/C"
_symmetry_group_IT_number 15
_symmetry_cell_setting 'monoclinic'
loop_
_space_group_symop_operation_xyz
x,y,z
-x,y,1/2-z
-x,-y,-z
x,-y,1/2+z
1/2+x,1/2+y,z
1/2-x,1/2+y,1/2-z
1/2-x,1/2-y,-z
1/2+x,1/2-y,1/2+z
loop_
_atom_site_type_symbol
_atom_site_label
_atom_site_fract_x
_atom_site_fract_y
_atom_site_fract_z
Si Si1 0.500000 0.764848 0.750000
Si Si2 0.381317 0.369542 0.694222
Si Si3 0.342300 0.682922 0.904042
Si Si4 0.165235 0.041658 0.643122
Si Si5 0.831271 0.277738 0.568345
Si Si6 0.837368 0.515451 0.351843
O O1 0.698065 0.814733 0.759541
O O2 0.302738 0.723620 0.832884
O O3 0.500000 0.406199 0.750000
O O4 0.624952 0.333289 0.615944
O O5 0.219922 0.412533 0.658886
O O6 0.316315 0.612840 0.883630
O O7 0.627349 0.716791 0.885149
O O8 0.133525 0.693081 0.006811
O O9 0.000000 0.040790 0.750000
O O10 0.457969 0.006662 0.612264
O O11 0.968940 0.012098 0.607938
O O12 0.750000 0.250000 0.500000
O O13 0.000000 0.493148 0.250000
#
# Coordination Sequence:
#
# PCOD9289573 Si02
#       6
#     4   8   8   8   8   8
#     4  12  22  38  70 102 126 176 238 286 352 440
#     4  12  23  41  69  99 136 184 238 287 353 438
#     4  11  24  43  65 103 135 180 233 291 366 425
#     4  10  22  41  69  99 134 178 232 293 342 418
#     4  11  25  42  64  97 146 180 224 298 364 416
#     4  10  22  40  66 100 133 178 234 291 344 405
#
# _framework density 24.044703999999999
#
# number of rings (size 3 to 8) (size 9 to 14) (size 15 to 20)
#    0.000    1.091    5.455    1.636    2.545    0.000 
#    3.273    1.818    0.000    0.000    0.000    0.000 
#    0.000    0.000    0.000    0.000    0.000    0.000 
#
# Total GULP energy -122588.565773 kJ/mol
# GULP energy per Si atom -5572.207535 kJ/mol
# Density = 2.398998 g / cm^3
# Si number density = 24.044704 Si / 1000 Ang^3
#
#
#
# Elastic Constant Matrix: (Units=GPa)
#
#
# Indices 1 2 3 4 5 6 
#
# 1 165.2981 86.9414 18.1560 0.0000 -4.5889 0.0000
# 2 86.9414 183.9379 37.4881 0.0000 -8.9885 0.0000
# 3 18.1560 37.4881 32.1145 0.0000 -13.0516 0.0000
# 4 0.0000 0.0000 0.0000 17.8905 0.0000 4.7211
# 5 -4.5889 -8.9885 -13.0516 0.0000 30.2299 0.0000
# 6 0.0000 0.0000 0.0000 4.7211 0.0000 33.7991
#
#
#
# Elastic Compliance Matrix: (Units=1/GPa)
#
#
# Indices 1 2 3 4 5 6 
#
# 1 0.008052 -0.003779 -0.000123 0.000000 0.000046 0.000000
# 2 -0.003779 0.008988 -0.009099 0.000000 -0.001830 0.000000
# 3 -0.000123 -0.009099 0.049388 0.000000 0.018599 0.000000
# 4 0.000000 0.000000 0.000000 0.058035 0.000000 -0.008106
# 5 0.000046 -0.001830 0.018599 0.000000 0.040573 0.000000
# 6 0.000000 0.000000 0.000000 -0.008106 0.000000 0.030719
#
#
# Mechanical properties :
#
#
# Convention : Reuss Voigt Hill
#
# Bulk Modulus (GPa) = 24.73576 74.05796 49.39686
# Shear Modulus (GPa) = 21.25579 32.30155 26.77867
#
# Velocity S-wave (km/s) = 2.97646 3.66921 3.34084
# Velocity P-wave (km/s) = 4.70342 6.98697 5.95567
#
# Compressibility (1/GPa) = 0.04042730
#
# Stress axis : x y z
#
# Youngs Moduli (GPa) = 124.19517 111.26377 20.24784
#
# Poissons Ratio (x) = 0.42042 0.00248
# Poissons Ratio (y) = 0.46928 0.18423
# Poissons Ratio (z) = 0.01523 1.01237
#
# Static dielectric constant tensor:
#      x y z
#    x 2.118280 0.000000 -0.032130 
#    y 0.000000 1.907900 0.000000 
#    z -0.032130 0.000000 1.985970 
# 
# From -- ./inp_files/227238.got.cif
#   From: 2010.05.17/outbox.cif.g08.bks.cpg/sg15_114_cif.got.tgz:227238.got - 2010.06.03 18:47:42.
