data_PCOD9289272
_publ_section_title
;
Structure prediction by ZEFSAII (Michael W. Deem and Ramdas Pophale) SiO2 
 PCOD9289272
Probable space group: C 2/C
;
_chemical_formula_sum "Si O2"
_cell_formula_units_Z 44
_cell_length_a 17.019803
_cell_length_b 17.011104
_cell_length_c 5.772211
_cell_angle_alpha 90.000000
_cell_angle_beta 109.672648
_cell_angle_gamma 90.000000
_cell_volume 1573.657228
_symmetry_space_group_name_H-M "C 2/C"
_symmetry_group_IT_number 15
_symmetry_cell_setting 'monoclinic'
loop_
_space_group_symop_operation_xyz
x,y,z
-x,y,1/2-z
-x,-y,-z
x,-y,1/2+z
1/2+x,1/2+y,z
1/2-x,1/2+y,1/2-z
1/2-x,1/2-y,-z
1/2+x,1/2-y,1/2+z
loop_
_atom_site_type_symbol
_atom_site_label
_atom_site_fract_x
_atom_site_fract_y
_atom_site_fract_z
Si Si1 0.164612 0.091594 0.176721
Si Si2 0.602230 0.903178 0.101534
Si Si3 0.250000 0.250000 0.500000
Si Si4 0.500000 0.198046 0.250000
Si Si5 0.656976 0.074543 0.148453
Si Si6 0.500000 0.606129 0.250000
Si Si7 0.875189 0.184373 0.775148
O O1 0.194917 0.175639 0.315996
O O2 0.248754 0.042203 0.285574
O O3 0.077736 0.063424 0.202061
O O4 0.149007 0.108765 0.893489
O O5 0.642284 0.877901 0.389101
O O6 0.599794 0.997150 0.104688
O O7 0.513720 0.860380 0.979878
O O8 0.647674 0.888631 0.896576
O O9 0.203081 0.226555 0.690843
O O10 0.578418 0.253950 0.341554
O O11 0.550148 0.660515 0.478537
#
# Coordination Sequence:
#
# PCOD9289272 Si02
#       7
#     8   8   4   4   8   4   8
#     4  11  22  39  65  94 138 179 235 298 346 426
#     4  10  25  45  68 103 132 194 231 292 347 412
#     4  10  24  36  62  94 132 182 228 274 360 414
#     4  12  24  42  70  97 157 176 234 290 354 436
#     4  10  24  45  69  96 138 182 253 280 345 416
#     4  10  22  40  62  99 137 180 230 284 378 412
#     4  11  23  41  60 104 139 184 226 288 363 432
#
# _framework density 27.960348
#
# number of rings (size 3 to 8) (size 9 to 14) (size 15 to 20)
#    0.000    1.455    1.818    1.636    7.636    5.091 
#    0.000    0.000    0.000    4.364    0.000    0.000 
#    0.000    0.000    0.000    0.000    0.000    0.000 
#
# Total GULP energy -122510.832048 kJ/mol
# GULP energy per Si atom -5568.674184 kJ/mol
# Density = 2.789671 g / cm^3
# Si number density = 27.960348 Si / 1000 Ang^3
#
#
#
# Elastic Constant Matrix: (Units=GPa)
#
#
# Indices 1 2 3 4 5 6 
#
# 1 173.5006 19.3079 50.0836 0.0000 -19.4809 0.0000
# 2 19.3079 63.6150 22.6895 0.0000 6.6500 0.0000
# 3 50.0836 22.6895 172.0729 0.0000 0.2116 0.0000
# 4 0.0000 0.0000 0.0000 23.4049 0.0000 3.9489
# 5 -19.4809 6.6500 0.2116 0.0000 58.0554 0.0000
# 6 0.0000 0.0000 0.0000 3.9489 0.0000 15.7289
#
#
#
# Elastic Compliance Matrix: (Units=1/GPa)
#
#
# Indices 1 2 3 4 5 6 
#
# 1 0.006729 -0.001678 -0.001740 0.000000 0.002456 0.000000
# 2 -0.001678 0.017122 -0.001766 0.000000 -0.002518 0.000000
# 3 -0.001740 -0.001766 0.006551 0.000000 -0.000405 0.000000
# 4 0.000000 0.000000 0.000000 0.044616 0.000000 -0.011201
# 5 0.002456 -0.002518 -0.000405 0.000000 0.018339 0.000000
# 6 0.000000 0.000000 0.000000 -0.011201 0.000000 0.066389
#
#
# Mechanical properties :
#
#
# Convention : Reuss Voigt Hill
#
# Bulk Modulus (GPa) = 49.91804 65.92783 57.92294
# Shear Modulus (GPa) = 28.28167 40.57836 34.43001
#
# Velocity S-wave (km/s) = 3.18385 3.81370 3.51292
# Velocity P-wave (km/s) = 5.60426 6.55917 6.10043
#
# Compressibility (1/GPa) = 0.02003284
#
# Stress axis : x y z
#
# Youngs Moduli (GPa) = 148.62018 58.40408 152.64022
#
# Poissons Ratio (x) = 0.09802 0.26561
# Poissons Ratio (y) = 0.24943 0.26958
# Poissons Ratio (z) = 0.25862 0.10315
#
# Static dielectric constant tensor:
#      x y z
#    x 2.288410 0.000000 -0.048350 
#    y 0.000000 2.380290 0.000000 
#    z -0.048350 0.000000 2.162020 
# 
# From -- ./inp_files/10430.got.cif
#   From: 2010.05.17/outbox.cif.g08.bks.cpg/sg15_6_cif.got.tgz:10430.got - 2010.06.03 18:47:42.
