data_PCOD9289818
_publ_section_title
;
Structure prediction by ZEFSAII (Michael W. Deem and Ramdas Pophale) SiO2 
 PCOD9289818
Probable space group: C 2/C
;
_chemical_formula_sum "Si O2"
_cell_formula_units_Z 44
_cell_length_a 5.064569
_cell_length_b 13.213213
_cell_length_c 30.544203
_cell_angle_alpha 90.000000
_cell_angle_beta 95.697432
_cell_angle_gamma 90.000000
_cell_volume 2033.897223
_symmetry_space_group_name_H-M "C 2/C"
_symmetry_group_IT_number 15
_symmetry_cell_setting 'monoclinic'
loop_
_space_group_symop_operation_xyz
x,y,z
-x,y,1/2-z
-x,-y,-z
x,-y,1/2+z
1/2+x,1/2+y,z
1/2-x,1/2+y,1/2-z
1/2-x,1/2-y,-z
1/2+x,1/2-y,1/2+z
loop_
_atom_site_type_symbol
_atom_site_label
_atom_site_fract_x
_atom_site_fract_y
_atom_site_fract_z
Si Si1 0.500000 0.025654 0.750000
Si Si2 0.501564 0.823892 0.001112
Si Si3 0.609211 0.879715 0.679360
Si Si4 0.312151 0.499698 0.540763
Si Si5 0.559838 0.471128 0.636284
Si Si6 0.093630 0.146796 0.701606
O O1 0.390109 0.103010 0.711983
O O2 0.670615 0.944886 0.724439
O O3 0.390855 0.905068 0.964141
O O4 0.750000 0.750000 0.000000
O O5 0.250000 0.750000 0.000000
O O6 0.621053 0.902014 0.039065
O O7 0.562423 0.763347 0.690359
O O8 0.853929 0.888495 0.650790
O O9 0.349769 0.929662 0.653151
O O10 0.500000 0.500000 0.500000
O O11 0.505447 0.491622 0.584931
O O12 0.486229 0.572577 0.662496
O O13 0.000000 0.128992 0.750000
#
# Coordination Sequence:
#
# PCOD9289818 Si02
#       6
#     4   8   8   8   8   8
#     4  10  22  40  68  94 136 174 232 274 344 412
#     4  11  24  44  74 103 134 184 236 291 358 423
#     4  11  25  42  67 101 135 180 224 287 340 409
#     4  11  26  47  75 104 144 190 238 295 356 419
#     4  11  28  44  67 103 143 172 237 285 340 409
#     4  11  23  42  70  95 134 183 228 279 348 408
#
# _framework density 21.633344000000001
#
# number of rings (size 3 to 8) (size 9 to 14) (size 15 to 20)
#    0.000    1.091    4.545    0.000    7.636    2.909 
#    0.000    0.000    0.000    0.000    0.000    0.000 
#    0.000    0.000    0.000    0.000    0.000    0.000 
#
# Total GULP energy -122549.974510 kJ/mol
# GULP energy per Si atom -5570.453387 kJ/mol
# Density = 2.158411 g / cm^3
# Si number density = 21.633344 Si / 1000 Ang^3
#
#
#
# Elastic Constant Matrix: (Units=GPa)
#
#
# Indices 1 2 3 4 5 6 
#
# 1 101.7182 22.2885 18.2237 0.0000 20.5847 0.0000
# 2 22.2885 161.1703 35.7155 0.0000 29.0698 0.0000
# 3 18.2237 35.7155 128.0250 0.0000 13.6192 0.0000
# 4 0.0000 0.0000 0.0000 7.6953 0.0000 7.4062
# 5 20.5847 29.0698 13.6192 0.0000 28.1258 0.0000
# 6 0.0000 0.0000 0.0000 7.4062 0.0000 29.0787
#
#
#
# Elastic Compliance Matrix: (Units=1/GPa)
#
#
# Indices 1 2 3 4 5 6 
#
# 1 0.011616 0.000042 -0.000797 0.000000 -0.008159 0.000000
# 2 0.000042 0.007858 -0.001403 0.000000 -0.007472 0.000000
# 3 -0.000797 -0.001403 0.008539 0.000000 -0.002101 0.000000
# 4 0.000000 0.000000 0.000000 0.172148 0.000000 -0.043845
# 5 -0.008159 -0.007472 -0.002101 0.000000 0.050266 0.000000
# 6 0.000000 0.000000 0.000000 -0.043845 0.000000 0.045557
#
#
# Mechanical properties :
#
#
# Convention : Reuss Voigt Hill
#
# Bulk Modulus (GPa) = 42.20152 60.37433 51.28792
# Shear Modulus (GPa) = 16.22326 33.95902 25.09114
#
# Velocity S-wave (km/s) = 2.74144 3.96631 3.40933
# Velocity P-wave (km/s) = 5.43789 6.99600 6.26557
#
# Compressibility (1/GPa) = 0.02369583
#
# Stress axis : x y z
#
# Youngs Moduli (GPa) = 86.08971 127.26623 117.10404
#
# Poissons Ratio (x) = -0.00532 0.09336
# Poissons Ratio (y) = -0.00360 0.16431
# Poissons Ratio (z) = 0.06863 0.17856
#
# Static dielectric constant tensor:
#      x y z
#    x 1.948910 0.000000 0.008070 
#    y 0.000000 1.782160 0.000000 
#    z 0.008070 0.000000 1.823950 
# 
# From -- ./inp_files/304966.got.cif
#   From: 2010.05.17/outbox.cif.g08.bks.cpg/sg15_153_cif.got.tgz:304966.got - 2010.06.03 18:47:42.
