data_PCOD9289760
_publ_section_title
;
Structure prediction by ZEFSAII (Michael W. Deem and Ramdas Pophale) SiO2 
 PCOD9289760
Probable space group: C 2/C
;
_chemical_formula_sum "Si O2"
_cell_formula_units_Z 48
_cell_length_a 24.791961
_cell_length_b 8.939923
_cell_length_c 10.594342
_cell_angle_alpha 90.000000
_cell_angle_beta 112.422073
_cell_angle_gamma 90.000000
_cell_volume 2170.591952
_symmetry_space_group_name_H-M "C 2/C"
_symmetry_group_IT_number 15
_symmetry_cell_setting 'monoclinic'
loop_
_space_group_symop_operation_xyz
x,y,z
-x,y,1/2-z
-x,-y,-z
x,-y,1/2+z
1/2+x,1/2+y,z
1/2-x,1/2+y,1/2-z
1/2-x,1/2-y,-z
1/2+x,1/2-y,1/2+z
loop_
_atom_site_type_symbol
_atom_site_label
_atom_site_fract_x
_atom_site_fract_y
_atom_site_fract_z
Si Si1 0.000000 0.912864 0.250000
Si Si2 0.309850 0.825670 0.602356
Si Si3 0.767220 0.918348 0.488303
Si Si4 0.833539 0.054402 0.786869
Si Si5 0.050455 0.146180 0.134702
Si Si6 0.500000 0.897460 0.250000
Si Si7 0.570838 0.826935 0.907281
O O1 0.947539 0.795288 0.215271
O O2 0.999400 0.029946 0.365042
O O3 0.250000 0.750000 0.500000
O O4 0.333090 0.727106 0.739361
O O5 0.359824 0.833671 0.540820
O O6 0.289697 0.992894 0.611837
O O7 0.750000 0.750000 0.500000
O O8 0.813243 0.944745 0.414966
O O9 0.790261 0.980736 0.643531
O O10 0.891667 0.954973 0.822198
O O11 0.046457 0.283351 0.230267
O O12 0.046186 0.240262 0.004493
O O13 0.461313 0.014879 0.134591
#
# Coordination Sequence:
#
# PCOD9289760 Si02
#       7
#     4   8   8   8   8   4   8
#     4  10  22  40  68 100 128 182 240 284 354 422
#     4  10  22  43  66  98 135 179 230 286 348 416
#     4  11  25  44  70 106 141 184 230 286 359 425
#     4  11  23  44  72 104 138 182 236 292 347 425
#     4  11  22  42  70  96 137 182 238 287 355 425
#     4  10  26  42  62 102 142 180 240 286 366 420
#     4  11  22  44  65  99 141 182 231 298 358 417
#
# _framework density 22.113783000000002
#
# number of rings (size 3 to 8) (size 9 to 14) (size 15 to 20)
#    0.000    1.333    1.667    4.000    2.333    1.333 
#    3.000    0.000    0.000    0.000    0.000    0.000 
#    0.000    0.000    0.000    0.000    0.000    0.000 
#
# Total GULP energy -133638.570704 kJ/mol
# GULP energy per Si atom -5568.273779 kJ/mol
# Density = 2.206345 g / cm^3
# Si number density = 22.113783 Si / 1000 Ang^3
#
#
#
# Elastic Constant Matrix: (Units=GPa)
#
#
# Indices 1 2 3 4 5 6 
#
# 1 111.7974 57.2379 21.0940 0.0000 -4.1624 0.0000
# 2 57.2379 194.1318 30.4279 0.0000 -5.5969 0.0000
# 3 21.0940 30.4279 47.8972 0.0000 -10.2106 0.0000
# 4 0.0000 0.0000 0.0000 37.2753 0.0000 -2.6422
# 5 -4.1624 -5.5969 -10.2106 0.0000 27.0133 0.0000
# 6 0.0000 0.0000 0.0000 -2.6422 0.0000 25.0217
#
#
#
# Elastic Compliance Matrix: (Units=1/GPa)
#
#
# Indices 1 2 3 4 5 6 
#
# 1 0.010927 -0.002740 -0.003082 0.000000 -0.000049 0.000000
# 2 -0.002740 0.006409 -0.002906 0.000000 -0.000193 0.000000
# 3 -0.003082 -0.002906 0.025942 0.000000 0.008729 0.000000
# 4 0.000000 0.000000 0.000000 0.027030 0.000000 0.002854
# 5 -0.000049 -0.000193 0.008729 0.000000 0.040271 0.000000
# 6 0.000000 0.000000 0.000000 0.002854 0.000000 0.040267
#
#
# Mechanical properties :
#
#
# Convention : Reuss Voigt Hill
#
# Bulk Modulus (GPa) = 38.72602 63.48289 51.10446
# Shear Modulus (GPa) = 28.26309 34.19982 31.23145
#
# Velocity S-wave (km/s) = 3.57890 3.93687 3.76214
# Velocity P-wave (km/s) = 5.88457 7.03100 6.48318
#
# Compressibility (1/GPa) = 0.02582243
#
# Stress axis : x y z
#
# Youngs Moduli (GPa) = 91.51336 156.03208 38.54727
#
# Poissons Ratio (x) = 0.42755 0.11881
# Poissons Ratio (y) = 0.25076 0.11201
# Poissons Ratio (z) = 0.28205 0.45339
#
# Static dielectric constant tensor:
#      x y z
#    x 1.856180 0.000000 0.030800 
#    y 0.000000 5.222150 0.000000 
#    z 0.030800 0.000000 1.820430 
# 
# From -- ./inp_files/116481.got.cif
#   From: 2010.05.17/outbox.cif.g08.bks.cpg/sg15_59_cif.got.tgz:116481.got - 2010.06.03 18:47:42.
