data_PCOD9289808
_publ_section_title
;
Structure prediction by ZEFSAII (Michael W. Deem and Ramdas Pophale) SiO2 
 PCOD9289808
Probable space group: C 2/C
;
_chemical_formula_sum "Si O2"
_cell_formula_units_Z 36
_cell_length_a 14.336133
_cell_length_b 16.083448
_cell_length_c 6.637654
_cell_angle_alpha 90.000000
_cell_angle_beta 69.761521
_cell_angle_gamma 90.000000
_cell_volume 1435.983388
_symmetry_space_group_name_H-M "C 2/C"
_symmetry_group_IT_number 15
_symmetry_cell_setting 'monoclinic'
loop_
_space_group_symop_operation_xyz
x,y,z
-x,y,1/2-z
-x,-y,-z
x,-y,1/2+z
1/2+x,1/2+y,z
1/2-x,1/2+y,1/2-z
1/2-x,1/2-y,-z
1/2+x,1/2-y,1/2+z
loop_
_atom_site_type_symbol
_atom_site_label
_atom_site_fract_x
_atom_site_fract_y
_atom_site_fract_z
Si Si1 0.801725 0.006741 0.983410
Si Si2 0.934881 0.245418 0.107641
Si Si3 0.605383 0.103062 0.159584
Si Si4 0.500000 0.391690 0.250000
Si Si5 0.757153 0.135663 0.359219
O O1 0.904038 0.050078 0.833730
O O2 0.780181 0.907786 0.051851
O O3 0.692809 0.045972 0.012380
O O4 0.802775 0.051820 0.215091
O O5 0.826735 0.212311 0.260857
O O6 0.000000 0.268691 0.250000
O O7 0.915373 0.319843 0.970286
O O8 0.989459 0.170185 0.948967
O O9 0.500000 0.057334 0.250000
O O10 0.649967 0.140066 0.337157
#
# Coordination Sequence:
#
# PCOD9289808 Si02
#       5
#     8   8   8   4   8
#     4   9  22  39  64  95 122 175 206 268 332 369
#     4  11  23  39  68 100 125 175 213 266 331 380
#     4  10  22  44  63  88 140 173 213 265 314 387
#     4  10  22  40  68  92 142 154 214 284 324 380
#     4   9  22  40  64  92 132 160 218 266 320 383
#
# _framework density 25.069928999999998
#
# number of rings (size 3 to 8) (size 9 to 14) (size 15 to 20)
#    1.333    0.889    1.111    0.667    4.667    2.667 
#    4.000    2.222    0.000    0.000    0.000    0.000 
#    0.000    0.000    0.000    0.000    0.000    0.000 
#
# Total GULP energy -100309.788476 kJ/mol
# GULP energy per Si atom -5572.766026 kJ/mol
# Density = 2.501287 g / cm^3
# Si number density = 25.069929 Si / 1000 Ang^3
#
#
#
# Elastic Constant Matrix: (Units=GPa)
#
#
# Indices 1 2 3 4 5 6 
#
# 1 167.3447 38.1144 42.8578 0.0000 -26.0513 0.0000
# 2 38.1144 72.8529 10.6785 0.0000 -4.2043 0.0000
# 3 42.8578 10.6785 56.0914 0.0000 -18.5049 0.0000
# 4 0.0000 0.0000 0.0000 45.2725 0.0000 0.5559
# 5 -26.0513 -4.2043 -18.5049 0.0000 49.2341 0.0000
# 6 0.0000 0.0000 0.0000 0.5559 0.0000 36.5917
#
#
#
# Elastic Compliance Matrix: (Units=1/GPa)
#
#
# Indices 1 2 3 4 5 6 
#
# 1 0.008418 -0.003539 -0.005010 0.000000 0.002269 0.000000
# 2 -0.003539 0.015610 -0.000509 0.000000 -0.000731 0.000000
# 3 -0.005010 -0.000509 0.023817 0.000000 0.006258 0.000000
# 4 0.000000 0.000000 0.000000 0.022093 0.000000 -0.000336
# 5 0.002269 -0.000731 0.006258 0.000000 0.023801 0.000000
# 6 0.000000 0.000000 0.000000 -0.000336 0.000000 0.027334
#
#
# Mechanical properties :
#
#
# Convention : Reuss Voigt Hill
#
# Bulk Modulus (GPa) = 33.63575 53.28784 43.46180
# Shear Modulus (GPa) = 33.53510 39.86220 36.69865
#
# Velocity S-wave (km/s) = 3.66137 3.99186 3.83018
# Velocity P-wave (km/s) = 5.59644 6.52291 6.07736
#
# Compressibility (1/GPa) = 0.02973028
#
# Stress axis : x y z
#
# Youngs Moduli (GPa) = 118.79453 64.06116 41.98674
#
# Poissons Ratio (x) = 0.22670 0.21034
# Poissons Ratio (y) = 0.42038 0.02137
# Poissons Ratio (z) = 0.59511 0.03261
#
# Static dielectric constant tensor:
#      x y z
#    x 1.987910 0.000000 0.262600 
#    y 0.000000 2.317550 0.000000 
#    z 0.262600 0.000000 2.706020 
# 
# From -- ./inp_files/28750.got.cif
#   From: 2010.05.17/outbox.cif.g08.bks.cpg/sg15_15_cif.got.tgz:28750.got - 2010.06.03 18:47:42.
