data_PCOD9289489
_publ_section_title
;
Structure prediction by ZEFSAII (Michael W. Deem and Ramdas Pophale) SiO2 
 PCOD9289489
Probable space group: C 2/C
;
_chemical_formula_sum "Si O2"
_cell_formula_units_Z 40
_cell_length_a 15.684825
_cell_length_b 11.033409
_cell_length_c 15.863807
_cell_angle_alpha 90.000000
_cell_angle_beta 130.956494
_cell_angle_gamma 90.000000
_cell_volume 2073.304643
_symmetry_space_group_name_H-M "C 2/C"
_symmetry_group_IT_number 15
_symmetry_cell_setting 'monoclinic'
loop_
_space_group_symop_operation_xyz
x,y,z
-x,y,1/2-z
-x,-y,-z
x,-y,1/2+z
1/2+x,1/2+y,z
1/2-x,1/2+y,1/2-z
1/2-x,1/2-y,-z
1/2+x,1/2-y,1/2+z
loop_
_atom_site_type_symbol
_atom_site_label
_atom_site_fract_x
_atom_site_fract_y
_atom_site_fract_z
Si Si1 0.472181 0.471123 0.383806
Si Si2 0.468558 0.137603 0.471027
Si Si3 0.952164 0.242486 0.310793
Si Si4 0.339169 0.709846 0.489213
Si Si5 0.221068 0.764913 0.238400
O O1 0.500000 0.500000 0.500000
O O2 0.448277 0.596965 0.321658
O O3 0.589279 0.406037 0.432922
O O4 0.366662 0.377299 0.307510
O O5 0.473832 0.205073 0.564282
O O6 0.561188 0.196498 0.469009
O O7 0.348249 0.160671 0.352863
O O8 0.500000 0.000000 0.500000
O O9 0.828486 0.297012 0.250242
O O10 0.000000 0.271299 0.250000
O O11 0.250000 0.750000 0.500000
O O12 0.271012 0.708641 0.356800
#
# Coordination Sequence:
#
# PCOD9289489 Si02
#       5
#     8   8   8   8   8
#     4  11  21  44  64  90 130 168 216 264 317 389
#     4  10  23  43  59  91 131 161 207 262 322 383
#     4  11  25  42  66  99 124 169 220 264 323 382
#     4  10  23  39  63  96 119 164 219 257 314 378
#     4  10  22  40  65  84 128 171 206 261 324 368
#
# _framework density 19.292871999999999
#
# number of rings (size 3 to 8) (size 9 to 14) (size 15 to 20)
#    0.000    1.600    6.000    0.000    8.400    3.200 
#    7.200    0.000    0.000    0.000    0.000    0.000 
#    0.000    0.000    0.000    0.000    0.000    0.000 
#
# Total GULP energy -111542.580674 kJ/mol
# GULP energy per Si atom -5577.129034 kJ/mol
# Density = 1.924896 g / cm^3
# Si number density = 19.292872 Si / 1000 Ang^3
#
#
#
# Elastic Constant Matrix: (Units=GPa)
#
#
# Indices 1 2 3 4 5 6 
#
# 1 134.1781 3.4278 55.1810 0.0000 -14.3515 0.0000
# 2 3.4278 77.4933 16.0750 0.0000 1.9871 0.0000
# 3 55.1810 16.0750 77.5489 0.0000 27.4317 0.0000
# 4 0.0000 0.0000 0.0000 15.4527 0.0000 -3.9570
# 5 -14.3515 1.9871 27.4317 0.0000 27.3102 0.0000
# 6 0.0000 0.0000 0.0000 -3.9570 0.0000 19.3755
#
#
#
# Elastic Compliance Matrix: (Units=1/GPa)
#
#
# Indices 1 2 3 4 5 6 
#
# 1 0.037543 0.007739 -0.054441 0.000000 0.073849 0.000000
# 2 0.007739 0.015222 -0.015060 0.000000 0.018086 0.000000
# 3 -0.054441 -0.015060 0.100028 0.000000 -0.127986 0.000000
# 4 0.000000 0.000000 0.000000 0.068285 0.000000 0.013946
# 5 0.073849 0.018086 -0.127986 0.000000 0.202663 0.000000
# 6 0.000000 0.000000 0.000000 0.013946 0.000000 0.054460
#
#
# Mechanical properties :
#
#
# Convention : Reuss Voigt Hill
#
# Bulk Modulus (GPa) = 34.16546 48.73198 41.44872
# Shear Modulus (GPa) = 8.17686 26.73011 17.45348
#
# Velocity S-wave (km/s) = 2.06094 3.72626 3.01102
# Velocity P-wave (km/s) = 4.83845 6.62021 5.79818
#
# Compressibility (1/GPa) = 0.02926933
#
# Stress axis : x y z
#
# Youngs Moduli (GPa) = 26.63617 65.69359 9.99717
#
# Poissons Ratio (x) = -0.50839 0.54426
# Poissons Ratio (y) = -0.20613 0.15055
# Poissons Ratio (z) = 1.45011 0.98932
#
# Static dielectric constant tensor:
#      x y z
#    x 1.654000 0.000000 0.005570 
#    y 0.000000 1.713030 0.000000 
#    z 0.005570 0.000000 1.635280 
# 
# From -- ./inp_files/94879.got.cif
#   From: 2010.05.17/outbox.cif.g08.bks.cpg/sg15_48_cif.got.tgz:94879.got - 2010.06.03 18:47:42.
