data_PCOD9289160
_publ_section_title
;
Structure prediction by ZEFSAII (Michael W. Deem and Ramdas Pophale) SiO2 
 PCOD9289160
Probable space group: C 2/C
;
_chemical_formula_sum "Si O2"
_cell_formula_units_Z 60
_cell_length_a 12.044840
_cell_length_b 28.705020
_cell_length_c 8.095025
_cell_angle_alpha 90.000000
_cell_angle_beta 97.036330
_cell_angle_gamma 90.000000
_cell_volume 2777.754710
_symmetry_space_group_name_H-M "C 2/C"
_symmetry_group_IT_number 15
_symmetry_cell_setting 'monoclinic'
loop_
_space_group_symop_operation_xyz
x,y,z
-x,y,1/2-z
-x,-y,-z
x,-y,1/2+z
1/2+x,1/2+y,z
1/2-x,1/2+y,1/2-z
1/2-x,1/2-y,-z
1/2+x,1/2-y,1/2+z
loop_
_atom_site_type_symbol
_atom_site_label
_atom_site_fract_x
_atom_site_fract_y
_atom_site_fract_z
Si Si1 0.260389 0.555809 0.299209
Si Si2 0.544656 0.049906 0.445325
Si Si3 0.500000 0.258328 0.750000
Si Si4 0.527106 0.422644 0.480998
Si Si5 0.314700 0.450661 0.295198
Si Si6 0.203585 0.293901 0.387527
Si Si7 0.645894 0.892521 0.473259
Si Si8 0.051072 0.817141 0.089696
O O1 0.176694 0.557670 0.443148
O O2 0.387761 0.570851 0.353577
O O3 0.262957 0.501243 0.256747
O O4 0.208069 0.587406 0.147019
O O5 0.500000 0.053558 0.250000
O O6 0.479711 0.087852 0.541638
O O7 0.500000 0.000000 0.500000
O O8 0.389584 0.226695 0.750235
O O9 0.479284 0.288296 0.580612
O O10 0.413203 0.452829 0.454672
O O11 0.609186 0.434696 0.343141
O O12 0.488613 0.369511 0.452662
O O13 0.217659 0.416070 0.339043
O O14 0.250000 0.250000 0.500000
O O15 0.147691 0.336798 0.474262
O O16 0.317514 0.316680 0.346379
O O17 0.000000 0.798224 0.250000
#
# Coordination Sequence:
#
# PCOD9289160 Si02
#       8
#     8   8   4   8   8   8   8   8
#     4  11  24  37  63  96 135 185 233 272 343 420
#     4  10  22  40  61  91 132 177 229 273 337 405
#     4  10  26  46  78 104 128 188 236 282 386 422
#     4  11  23  38  60  99 133 177 230 271 344 417
#     4  11  21  40  59  93 139 175 227 277 331 414
#     4  10  23  47  71 101 136 174 240 298 355 434
#     4  11  22  42  66  91 133 181 220 298 341 401
#     4  11  22  46  72 103 143 174 227 300 349 427
#
# _framework density 21.600179000000001
#
# number of rings (size 3 to 8) (size 9 to 14) (size 15 to 20)
#    0.000    1.333    4.000    1.200    5.600    2.133 
#    6.000    8.000    0.000    0.000    0.000    0.000 
#    0.000    0.000    0.000    0.000    0.000    0.000 
#
# Total GULP energy -167542.497159 kJ/mol
# GULP energy per Si atom -5584.749905 kJ/mol
# Density = 2.155102 g / cm^3
# Si number density = 21.600179 Si / 1000 Ang^3
#
#
#
# Elastic Constant Matrix: (Units=GPa)
#
#
# Indices 1 2 3 4 5 6 
#
# 1 108.0202 27.9950 6.9717 0.0000 -2.2378 0.0000
# 2 27.9950 120.6608 15.2087 0.0000 -8.6376 0.0000
# 3 6.9717 15.2087 63.6369 0.0000 -2.2645 0.0000
# 4 0.0000 0.0000 0.0000 33.0641 0.0000 -4.7435
# 5 -2.2378 -8.6376 -2.2645 0.0000 39.2469 0.0000
# 6 0.0000 0.0000 0.0000 -4.7435 0.0000 36.0541
#
#
#
# Elastic Compliance Matrix: (Units=1/GPa)
#
#
# Indices 1 2 3 4 5 6 
#
# 1 0.009869 -0.002217 -0.000550 0.000000 0.000043 0.000000
# 2 -0.002217 0.009167 -0.001885 0.000000 0.001782 0.000000
# 3 -0.000550 -0.001885 0.016242 0.000000 0.000491 0.000000
# 4 0.000000 0.000000 0.000000 0.030826 0.000000 0.004056
# 5 0.000043 0.001782 0.000491 0.000000 0.025903 0.000000
# 6 0.000000 0.000000 0.000000 0.004056 0.000000 0.028270
#
#
# Mechanical properties :
#
#
# Convention : Reuss Voigt Hill
#
# Bulk Modulus (GPa) = 38.49859 43.62985 41.06422
# Shear Modulus (GPa) = 36.16951 37.81587 36.99269
#
# Velocity S-wave (km/s) = 4.09651 4.18870 4.14286
# Velocity P-wave (km/s) = 6.34327 6.60578 6.47586
#
# Compressibility (1/GPa) = 0.02597498
#
# Stress axis : x y z
#
# Youngs Moduli (GPa) = 101.33221 109.08378 61.56783
#
# Poissons Ratio (x) = 0.24187 0.03384
# Poissons Ratio (y) = 0.22468 0.11603
# Poissons Ratio (z) = 0.05570 0.20557
#
# Static dielectric constant tensor:
#      x y z
#    x 1.876820 0.000000 0.044460 
#    y 0.000000 1.777560 0.000000 
#    z 0.044460 0.000000 1.892650 
# 
# From -- ./inp_files/35250.got.cif
#   From: 2010.05.17/outbox.cif.g08.bks.cpg/sg15_18_cif.got.tgz:35250.got - 2010.06.03 18:47:42.
