data_PCOD9289224
_publ_section_title
;
Structure prediction by ZEFSAII (Michael W. Deem and Ramdas Pophale) SiO2 
 PCOD9289224
Probable space group: C 2/C
;
_chemical_formula_sum "Si O2"
_cell_formula_units_Z 64
_cell_length_a 28.920816
_cell_length_b 13.530664
_cell_length_c 20.361446
_cell_angle_alpha 90.000000
_cell_angle_beta 159.067585
_cell_angle_gamma 90.000000
_cell_volume 2846.626736
_symmetry_space_group_name_H-M "C 2/C"
_symmetry_group_IT_number 15
_symmetry_cell_setting 'monoclinic'
loop_
_space_group_symop_operation_xyz
x,y,z
-x,y,1/2-z
-x,-y,-z
x,-y,1/2+z
1/2+x,1/2+y,z
1/2-x,1/2+y,1/2-z
1/2-x,1/2-y,-z
1/2+x,1/2-y,1/2+z
loop_
_atom_site_type_symbol
_atom_site_label
_atom_site_fract_x
_atom_site_fract_y
_atom_site_fract_z
Si Si1 0.320388 0.472286 0.193780
Si Si2 0.172100 0.704317 0.162157
Si Si3 0.490241 0.635043 0.349762
Si Si4 0.646830 0.986429 0.088514
Si Si5 0.866369 0.302310 0.335696
Si Si6 0.700059 0.612155 0.516116
Si Si7 0.358049 0.059014 0.161954
Si Si8 0.858123 0.252454 0.745148
O O1 0.425948 0.553328 0.312191
O O2 0.263554 0.484845 0.191095
O O3 0.374424 0.362126 0.252579
O O4 0.195170 0.470448 0.979752
O O5 0.064913 0.780255 0.989612
O O6 0.131888 0.590680 0.104945
O O7 0.288425 0.713612 0.264203
O O8 0.236272 0.735816 0.317311
O O9 0.597408 0.597572 0.439038
O O10 0.373308 0.658721 0.143751
O O11 0.669120 0.900948 0.170928
O O12 0.508943 0.964280 0.871150
O O13 0.812855 0.317157 0.192284
O O14 0.015549 0.288836 0.547783
O O15 0.768905 0.509553 0.589888
O O16 0.337238 0.172555 0.157774
#
# Coordination Sequence:
#
# PCOD9289224 Si02
#       8
#     8   8   8   8   8   8   8   8
#     4  11  23  43  63  95 131 163 208 270 314 370
#     4  11  23  40  63  96 124 169 208 255 322 374
#     4   9  22  40  64  92 125 166 212 260 316 370
#     4  11  23  42  63  92 129 164 208 264 317 378
#     4  10  22  40  62  91 124 163 208 261 308 374
#     4   9  18  42  63  87 127 162 215 258 306 374
#     4  10  22  42  65  92 124 169 211 259 314 374
#     4  11  23  39  65  92 125 166 216 250 315 379
#
# _framework density 22.482749999999999
#
# number of rings (size 3 to 8) (size 9 to 14) (size 15 to 20)
#    0.000    1.750    1.250    2.250    1.750    5.500 
#    9.000    1.875    0.000    0.000    0.000    0.000 
#    0.000    0.000    0.000    0.000    0.000    0.000 
#
# Total GULP energy -178645.087022 kJ/mol
# GULP energy per Si atom -5582.658969 kJ/mol
# Density = 2.243158 g / cm^3
# Si number density = 22.482750 Si / 1000 Ang^3
#
#
#
# Elastic Constant Matrix: (Units=GPa)
#
#
# Indices 1 2 3 4 5 6 
#
# 1 54.2244 5.1859 -5.2259 0.0000 8.4637 0.0000
# 2 5.1859 46.3385 -6.5378 0.0000 11.6928 0.0000
# 3 -5.2259 -6.5378 48.3989 0.0000 1.9252 0.0000
# 4 0.0000 0.0000 0.0000 17.8932 0.0000 -1.2284
# 5 8.4637 11.6928 1.9252 0.0000 17.8962 0.0000
# 6 0.0000 0.0000 0.0000 -1.2284 0.0000 25.6083
#
#
#
# Elastic Compliance Matrix: (Units=1/GPa)
#
#
# Indices 1 2 3 4 5 6 
#
# 1 0.020246 0.000723 0.002695 0.000000 -0.010337 0.000000
# 2 0.000723 0.026737 0.004417 0.000000 -0.018286 0.000000
# 3 0.002695 0.004417 0.021808 0.000000 -0.006506 0.000000
# 4 0.000000 0.000000 0.000000 0.056072 0.000000 0.002690
# 5 -0.010337 -0.018286 -0.006506 0.000000 0.073414 0.000000
# 6 0.000000 0.000000 0.000000 0.002690 0.000000 0.039179
#
#
# Mechanical properties :
#
#
# Convention : Reuss Voigt Hill
#
# Bulk Modulus (GPa) = 11.83986 15.08958 13.46472
# Shear Modulus (GPa) = 20.00485 22.64885 21.32685
#
# Velocity S-wave (km/s) = 2.98617 3.17738 3.08326
# Velocity P-wave (km/s) = 4.14333 4.49302 4.32171
#
# Compressibility (1/GPa) = 0.08446048
#
# Stress axis : x y z
#
# Youngs Moduli (GPa) = 49.39254 37.40163 45.85455
#
# Poissons Ratio (x) = -0.02704 -0.12357
# Poissons Ratio (y) = -0.03570 -0.20254
# Poissons Ratio (z) = -0.13311 -0.16521
#
# Static dielectric constant tensor:
#      x y z
#    x 2.024970 0.000000 0.069060 
#    y 0.000000 1.807170 0.000000 
#    z 0.069060 0.000000 1.865750 
# 
# From -- ./inp_files/259459.got.cif
#   From: 2010.05.17/outbox.cif.g08.bks.cpg/sg15_130_cif.got.tgz:259459.got - 2010.06.03 18:47:42.
