data_PCOD9289988
_publ_section_title
;
Structure prediction by ZEFSAII (Michael W. Deem and Ramdas Pophale) SiO2 
 PCOD9289988
Probable space group: C 2/C
;
_chemical_formula_sum "Si O2"
_cell_formula_units_Z 44
_cell_length_a 29.120475
_cell_length_b 8.744740
_cell_length_c 28.394678
_cell_angle_alpha 90.000000
_cell_angle_beta 162.741323
_cell_angle_gamma 90.000000
_cell_volume 2145.258608
_symmetry_space_group_name_H-M "C 2/C"
_symmetry_group_IT_number 15
_symmetry_cell_setting 'monoclinic'
loop_
_space_group_symop_operation_xyz
x,y,z
-x,y,1/2-z
-x,-y,-z
x,-y,1/2+z
1/2+x,1/2+y,z
1/2-x,1/2+y,1/2-z
1/2-x,1/2-y,-z
1/2+x,1/2-y,1/2+z
loop_
_atom_site_type_symbol
_atom_site_label
_atom_site_fract_x
_atom_site_fract_y
_atom_site_fract_z
Si Si1 0.500000 0.199707 0.750000
Si Si2 0.642272 0.874304 0.182341
Si Si3 0.911022 0.199310 0.011786
Si Si4 0.859795 0.085408 0.749463
Si Si5 0.538816 0.835937 0.984402
Si Si6 0.746053 0.388296 0.931698
O O1 0.601697 0.308521 0.815933
O O2 0.383079 0.101237 0.603915
O O3 0.807999 0.842675 0.365808
O O4 0.525984 0.832604 0.110160
O O5 0.598752 0.050880 0.133231
O O6 0.601417 0.775928 0.096205
O O7 0.807698 0.266374 0.952788
O O8 0.022376 0.056231 0.129648
O O9 0.697926 0.089474 0.619902
O O10 0.960828 0.226334 0.869051
O O11 0.799877 0.048482 0.637825
#
# Coordination Sequence:
#
# PCOD9289988 Si02
#       6
#     4   8   8   8   8   8
#     4  10  22  40  72 102 124 150 224 290 342 410
#     4  11  22  39  62  93 134 181 231 263 307 372
#     4  12  21  39  67  95 129 171 227 276 319 383
#     4  12  24  42  64  96 135 178 220 271 330 390
#     4  11  25  40  58  95 137 188 218 260 320 383
#     4  11  21  41  68 104 120 164 213 287 342 396
#
# _framework density 20.510346999999999
#
# number of rings (size 3 to 8) (size 9 to 14) (size 15 to 20)
#    0.000    0.727    5.455    2.182    0.000    5.818 
#    0.000    0.000    0.000    3.273    0.000    0.000 
#    0.000    0.000    0.000    0.000    0.000    0.000 
#
# Total GULP energy -122521.943987 kJ/mol
# GULP energy per Si atom -5569.179272 kJ/mol
# Density = 2.046366 g / cm^3
# Si number density = 20.510347 Si / 1000 Ang^3
#
#
#
# Elastic Constant Matrix: (Units=GPa)
#
#
# Indices 1 2 3 4 5 6 
#
# 1 101.5057 15.6232 38.2247 0.0008 0.1503 0.0000
# 2 15.6232 44.3733 22.8972 0.0005 -7.8888 -0.0001
# 3 38.2247 22.8972 128.2391 0.0033 -18.6747 0.0003
# 4 0.0008 0.0005 0.0033 33.4467 0.0008 -8.3070
# 5 0.1503 -7.8888 -18.6747 0.0008 47.1900 -0.0001
# 6 0.0000 -0.0001 0.0003 -8.3070 -0.0001 28.3375
#
#
#
# Elastic Compliance Matrix: (Units=1/GPa)
#
#
# Indices 1 2 3 4 5 6 
#
# 1 0.011472 -0.002704 -0.003192 0.000000 -0.001752 0.000000
# 2 -0.002704 0.025751 -0.003357 0.000000 0.002985 0.000000
# 3 -0.003192 -0.003357 0.009835 -0.000001 0.003341 0.000000
# 4 0.000000 0.000000 -0.000001 0.032246 -0.000001 0.009453
# 5 -0.001752 0.002985 0.003341 -0.000001 0.023018 0.000000
# 6 0.000000 0.000000 0.000000 0.009453 0.000000 0.038060
#
#
# Mechanical properties :
#
#
# Convention : Reuss Voigt Hill
#
# Bulk Modulus (GPa) = 35.02259 47.51204 41.26731
# Shear Modulus (GPa) = 29.69016 34.95305 32.32161
#
# Velocity S-wave (km/s) = 3.80882 4.13263 3.97403
# Velocity P-wave (km/s) = 6.03784 6.78135 6.42037
#
# Compressibility (1/GPa) = 0.02855300
#
# Stress axis : x y z
#
# Youngs Moduli (GPa) = 87.16572 38.83342 101.67376
#
# Poissons Ratio (x) = 0.10499 0.32454
# Poissons Ratio (y) = 0.23566 0.34135
# Poissons Ratio (z) = 0.27823 0.13038
#
# Static dielectric constant tensor:
#      x y z
#    x 1.756410 0.000000 -0.036800 
#    y 0.000000 1.789720 0.000000 
#    z -0.036800 0.000000 1.774170 
# 
# From -- ./inp_files/68288.got.cif
#   From: 2010.05.17/outbox.cif.g08.bks.cpg/sg15_35_cif.got.tgz:68288.got - 2010.06.03 18:47:42.
