data_PCOD9289032
_publ_section_title
;
Structure prediction by ZEFSAII (Michael W. Deem and Ramdas Pophale) SiO2 
 PCOD9289032
Probable space group: C 2/C
;
_chemical_formula_sum "Si O2"
_cell_formula_units_Z 44
_cell_length_a 11.943934
_cell_length_b 32.266294
_cell_length_c 5.942112
_cell_angle_alpha 90.000000
_cell_angle_beta 88.263365
_cell_angle_gamma 90.000000
_cell_volume 2288.957832
_symmetry_space_group_name_H-M "C 2/C"
_symmetry_group_IT_number 15
_symmetry_cell_setting 'monoclinic'
loop_
_space_group_symop_operation_xyz
x,y,z
-x,y,1/2-z
-x,-y,-z
x,-y,1/2+z
1/2+x,1/2+y,z
1/2-x,1/2+y,1/2-z
1/2-x,1/2-y,-z
1/2+x,1/2-y,1/2+z
loop_
_atom_site_type_symbol
_atom_site_label
_atom_site_fract_x
_atom_site_fract_y
_atom_site_fract_z
Si Si1 0.871561 0.512554 0.215942
Si Si2 0.500000 0.326867 0.250000
Si Si3 0.129360 0.681354 0.673099
Si Si4 0.615525 0.727311 0.106047
Si Si5 0.795799 0.838676 0.547839
Si Si6 0.873552 0.610441 0.179631
O O1 0.825487 0.507383 0.480564
O O2 0.873673 0.561254 0.154744
O O3 0.000000 0.497308 0.250000
O O4 0.581535 0.297447 0.387013
O O5 0.414431 0.349910 0.423057
O O6 0.152532 0.725675 0.554300
O O7 0.151335 0.639704 0.531558
O O8 0.000000 0.678957 0.750000
O O9 0.209368 0.681723 0.881060
O O10 0.500000 0.733738 0.250000
O O11 0.680560 0.695570 0.263407
O O12 0.725706 0.877239 0.645247
O O13 0.000000 0.622265 0.250000
#
# Coordination Sequence:
#
# PCOD9289032 Si02
#       6
#     8   4   8   8   8   8
#     4   9  20  37  60  85 122 162 196 240 306 387
#     4  10  22  40  58  74 112 158 214 244 300 348
#     4  11  22  35  57  84 123 156 197 253 308 357
#     4   9  21  37  56  78 112 163 206 251 300 353
#     4  11  22  38  56  83 115 156 206 253 295 355
#     4  11  23  35  57  89 120 151 197 247 307 362
#
# _framework density 19.222723999999999
#
# number of rings (size 3 to 8) (size 9 to 14) (size 15 to 20)
#    0.000    1.818    1.818    1.636    3.818    5.091 
#    0.000    0.000    0.000    0.000    0.000    1.273 
#    0.000    0.000    0.000    0.000    0.000    0.000 
#
# Total GULP energy -122503.389426 kJ/mol
# GULP energy per Si atom -5568.335883 kJ/mol
# Density = 1.917897 g / cm^3
# Si number density = 19.222724 Si / 1000 Ang^3
#
#
#
# Elastic Constant Matrix: (Units=GPa)
#
#
# Indices 1 2 3 4 5 6 
#
# 1 81.2546 24.7252 32.7161 0.0000 -7.0290 0.0000
# 2 24.7252 85.0779 38.5877 0.0000 2.5085 0.0000
# 3 32.7161 38.5877 112.4051 0.0000 15.4430 0.0000
# 4 0.0000 0.0000 0.0000 -19.1844 0.0000 -32.0709
# 5 -7.0290 2.5085 15.4430 0.0000 42.5568 0.0000
# 6 0.0000 0.0000 0.0000 -32.0709 0.0000 -72.7800
#
#
#
# Elastic Compliance Matrix: (Units=1/GPa)
#
#
# Indices 1 2 3 4 5 6 
#
# 1 0.015106 -0.002678 -0.004044 0.000000 0.004120 0.000000
# 2 -0.002678 0.014434 -0.004208 0.000000 0.000234 0.000000
# 3 -0.004044 -0.004208 0.012183 0.000000 -0.004841 0.000000
# 4 0.000000 0.000000 0.000000 -0.197934 0.000000 0.087221
# 5 0.004120 0.000234 -0.004841 0.000000 0.025921 0.000000
# 6 0.000000 0.000000 0.000000 0.087221 0.000000 -0.052174
#
#
# Mechanical properties :
#
#
# Convention : Reuss Voigt Hill
#
# Bulk Modulus (GPa) = 50.34028 52.31063 51.32545
# Shear Modulus (GPa) = -32.47082 2.29903 -15.08590
#
# Velocity S-wave (km/s) = -4.11443 1.09480 -2.80446
# Velocity P-wave (km/s) = 1.91659 5.37309 4.03382
#
# Compressibility (1/GPa) = 0.01986481
#
# Stress axis : x y z
#
# Youngs Moduli (GPa) = 66.19738 69.28248 82.08247
#
# Poissons Ratio (x) = 0.18551 0.33191
# Poissons Ratio (y) = 0.17725 0.34538
# Poissons Ratio (z) = 0.26768 0.29152
#
# Static dielectric constant tensor:
#      x y z
#    x 1.745300 0.000000 -0.068210 
#    y 0.000000 1.637680 0.000000 
#    z -0.068210 0.000000 1.789900 
# 
# From -- ./inp_files/5782.got.cif
#   From: 2010.05.17/outbox.cif.g08.bks.cpg/sg15_3_cif.got.tgz:5782.got - 2010.06.03 18:47:42.
