data_PCOD9289030
_publ_section_title
;
Structure prediction by ZEFSAII (Michael W. Deem and Ramdas Pophale) SiO2 
 PCOD9289030
Probable space group: C 2/C
;
_chemical_formula_sum "Si O2"
_cell_formula_units_Z 40
_cell_length_a 26.530110
_cell_length_b 6.628257
_cell_length_c 10.403892
_cell_angle_alpha 90.000000
_cell_angle_beta 101.447366
_cell_angle_gamma 90.000000
_cell_volume 1793.114036
_symmetry_space_group_name_H-M "C 2/C"
_symmetry_group_IT_number 15
_symmetry_cell_setting 'monoclinic'
loop_
_space_group_symop_operation_xyz
x,y,z
-x,y,1/2-z
-x,-y,-z
x,-y,1/2+z
1/2+x,1/2+y,z
1/2-x,1/2+y,1/2-z
1/2-x,1/2-y,-z
1/2+x,1/2-y,1/2+z
loop_
_atom_site_type_symbol
_atom_site_label
_atom_site_fract_x
_atom_site_fract_y
_atom_site_fract_z
Si Si1 0.793417 0.301333 0.123269
Si Si2 0.799504 0.330198 0.781877
Si Si3 0.626887 0.539598 0.233127
Si Si4 0.612776 0.927816 0.057193
Si Si5 0.439309 0.173142 0.237100
O O1 0.803746 0.533116 0.157635
O O2 0.759939 0.223838 0.229826
O O3 0.844876 0.171209 0.142432
O O4 0.750000 0.250000 0.000000
O O5 0.831621 0.127123 0.787366
O O6 0.831060 0.464617 0.902650
O O7 0.615959 0.701396 0.116346
O O8 0.579174 0.405279 0.254731
O O9 0.579079 0.053327 0.144574
O O10 0.588193 0.916671 0.904161
O O11 0.500000 0.159446 0.250000
#
# Coordination Sequence:
#
# PCOD9289030 Si02
#       5
#     8   8   8   8   8
#     4  11  23  36  63  91 132 178 213 266 323 394
#     4  10  22  40  57  94 133 171 220 264 327 394
#     4  10  24  41  61  99 133 175 222 272 327 401
#     4  10  25  43  69  97 136 174 223 281 337 407
#     4  11  25  46  72  99 131 175 227 285 345 403
#
# _framework density 22.307562000000001
#
# number of rings (size 3 to 8) (size 9 to 14) (size 15 to 20)
#    0.000    1.600    2.000    0.600   11.200    4.000 
#    0.000    0.000    0.000    0.000    0.000    0.000 
#    0.000    0.000    0.000    0.000    0.000    0.000 
#
# Total GULP energy -111701.999101 kJ/mol
# GULP energy per Si atom -5585.099955 kJ/mol
# Density = 2.225679 g / cm^3
# Si number density = 22.307562 Si / 1000 Ang^3
#
#
#
# Elastic Constant Matrix: (Units=GPa)
#
#
# Indices 1 2 3 4 5 6 
#
# 1 111.3229 34.4794 4.7464 0.0000 11.6073 0.0000
# 2 34.4794 121.1712 11.7455 0.0000 -0.0056 0.0000
# 3 4.7464 11.7455 74.9013 0.0000 7.1200 0.0000
# 4 0.0000 0.0000 0.0000 13.2210 0.0000 -3.6603
# 5 11.6073 -0.0056 7.1200 0.0000 25.7997 0.0000
# 6 0.0000 0.0000 0.0000 -3.6603 0.0000 36.6338
#
#
#
# Elastic Compliance Matrix: (Units=1/GPa)
#
#
# Indices 1 2 3 4 5 6 
#
# 1 0.010390 -0.002982 0.000260 0.000000 -0.004747 0.000000
# 2 -0.002982 0.009240 -0.001425 0.000000 0.001737 0.000000
# 3 0.000260 -0.001425 0.013935 0.000000 -0.003963 0.000000
# 4 0.000000 0.000000 0.000000 0.077789 0.000000 0.007772
# 5 -0.004747 0.001737 -0.003963 0.000000 0.041990 0.000000
# 6 0.000000 0.000000 0.000000 0.007772 0.000000 0.028074
#
#
# Mechanical properties :
#
#
# Convention : Reuss Voigt Hill
#
# Bulk Modulus (GPa) = 39.57066 45.48200 42.52633
# Shear Modulus (GPa) = 25.23541 32.22584 28.73063
#
# Velocity S-wave (km/s) = 3.36705 3.80493 3.59267
# Velocity P-wave (km/s) = 5.73526 6.30367 6.02617
#
# Compressibility (1/GPa) = 0.02527125
#
# Stress axis : x y z
#
# Youngs Moduli (GPa) = 96.24305 108.23041 71.76397
#
# Poissons Ratio (x) = 0.32275 -0.01869
# Poissons Ratio (y) = 0.28700 0.10226
# Poissons Ratio (z) = -0.02507 0.15423
#
# Static dielectric constant tensor:
#      x y z
#    x 1.861280 0.000000 -0.099470 
#    y 0.000000 1.834300 0.000000 
#    z -0.099470 0.000000 1.951460 
# 
# From -- ./inp_files/120740.got.cif
#   From: 2010.05.17/outbox.cif.g08.bks.cpg/sg15_61_cif.got.tgz:120740.got - 2010.06.03 18:47:42.
