data_PCOD9289698
_publ_section_title
;
Structure prediction by ZEFSAII (Michael W. Deem and Ramdas Pophale) SiO2 
 PCOD9289698
Probable space group: C 2/C
;
_chemical_formula_sum "Si O2"
_cell_formula_units_Z 52
_cell_length_a 10.765367
_cell_length_b 26.489043
_cell_length_c 9.123395
_cell_angle_alpha 90.000000
_cell_angle_beta 111.792124
_cell_angle_gamma 90.000000
_cell_volume 2415.743047
_symmetry_space_group_name_H-M "C 2/C"
_symmetry_group_IT_number 15
_symmetry_cell_setting 'monoclinic'
loop_
_space_group_symop_operation_xyz
x,y,z
-x,y,1/2-z
-x,-y,-z
x,-y,1/2+z
1/2+x,1/2+y,z
1/2-x,1/2+y,1/2-z
1/2-x,1/2-y,-z
1/2+x,1/2-y,1/2+z
loop_
_atom_site_type_symbol
_atom_site_label
_atom_site_fract_x
_atom_site_fract_y
_atom_site_fract_z
Si Si1 0.298083 0.829782 0.612119
Si Si2 0.000000 0.375202 0.250000
Si Si3 0.283380 0.038858 0.715979
Si Si4 0.035235 0.300013 0.533265
Si Si5 0.496656 0.691766 0.073415
Si Si6 0.252462 0.944829 0.541256
Si Si7 0.031701 0.922087 0.936649
O O1 0.382929 0.800263 0.527631
O O2 0.370667 0.820559 0.797974
O O3 0.144493 0.814376 0.567937
O O4 0.311033 0.888551 0.576277
O O5 0.881166 0.413884 0.237091
O O6 0.040096 0.337812 0.399169
O O7 0.153942 0.047756 0.557621
O O8 0.331283 0.984649 0.677191
O O9 0.250070 0.036904 0.872812
O O10 0.071618 0.242045 0.516655
O O11 0.500000 0.698235 0.250000
O O12 0.433153 0.636902 0.020391
O O13 0.102849 0.937116 0.537952
O O14 0.000000 0.928599 0.750000
#
# Coordination Sequence:
#
# PCOD9289698 Si02
#       7
#     8   4   8   8   8   8   8
#     4  10  24  44  67  91 136 173 222 273 326 400
#     4  12  28  40  68  98 138 176 222 264 330 394
#     4  12  26  44  67  99 133 173 223 274 329 400
#     4  11  23  45  64  95 135 181 215 270 325 397
#     4  10  22  40  67 102 125 172 224 269 335 378
#     4  11  24  45  68  97 129 172 221 276 337 382
#     4  10  23  44  71 100 132 172 220 277 331 384
#
# _framework density 21.525469000000001
#
# number of rings (size 3 to 8) (size 9 to 14) (size 15 to 20)
#    0.000    1.231    2.308    2.308    8.615    3.692 
#   11.077    0.000    0.000    0.000    0.000    0.000 
#    0.000    0.000    0.000    0.000    0.000    0.000 
#
# Total GULP energy -145354.513263 kJ/mol
# GULP energy per Si atom -5590.558202 kJ/mol
# Density = 2.147648 g / cm^3
# Si number density = 21.525469 Si / 1000 Ang^3
#
#
#
# Elastic Constant Matrix: (Units=GPa)
#
#
# Indices 1 2 3 4 5 6 
#
# 1 33.3934 -2.8744 21.6463 0.0000 -18.7667 0.0000
# 2 -2.8744 145.1913 63.4853 0.0000 -8.0365 0.0000
# 3 21.6463 63.4853 93.0280 0.0000 -30.0752 0.0000
# 4 0.0000 0.0000 0.0000 48.9786 0.0000 -14.8468
# 5 -18.7667 -8.0365 -30.0752 0.0000 27.8703 0.0000
# 6 0.0000 0.0000 0.0000 -14.8468 0.0000 16.2233
#
#
#
# Elastic Compliance Matrix: (Units=1/GPa)
#
#
# Indices 1 2 3 4 5 6 
#
# 1 0.050640 0.005184 -0.005857 0.000000 0.029274 0.000000
# 2 0.005184 0.011252 -0.010301 0.000000 -0.004381 0.000000
# 3 -0.005857 -0.010301 0.025965 0.000000 0.021105 0.000000
# 4 0.000000 0.000000 0.000000 0.028255 0.000000 0.025858
# 5 0.029274 -0.004381 0.021105 0.000000 0.077104 0.000000
# 6 0.000000 0.000000 0.000000 0.025858 0.000000 0.085304
#
#
# Mechanical properties :
#
#
# Convention : Reuss Voigt Hill
#
# Bulk Modulus (GPa) = 15.17247 48.45857 31.81552
# Shear Modulus (GPa) = 15.50682 31.23814 23.37248
#
# Velocity S-wave (km/s) = 2.68693 3.81362 3.29873
# Velocity P-wave (km/s) = 4.08534 6.47709 5.41492
#
# Compressibility (1/GPa) = 0.06590884
#
# Stress axis : x y z
#
# Youngs Moduli (GPa) = 19.74708 88.87470 38.51298
#
# Poissons Ratio (x) = -0.46071 0.22557
# Poissons Ratio (y) = -0.10237 0.39673
# Poissons Ratio (z) = 0.11566 0.91551
#
# Static dielectric constant tensor:
#      x y z
#    x 1.784320 0.000000 -0.008220 
#    y 0.000000 1.806860 0.000000 
#    z -0.008220 0.000000 1.712710 
# 
# From -- ./inp_files/33736.got.cif
#   From: 2010.05.17/outbox.cif.g08.bks.cpg/sg15_17_cif.got.tgz:33736.got - 2010.06.03 18:47:42.
