data_PCOD9289385
_publ_section_title
;
Structure prediction by ZEFSAII (Michael W. Deem and Ramdas Pophale) SiO2 
 PCOD9289385
Probable space group: C 2/C
;
_chemical_formula_sum "Si O2"
_cell_formula_units_Z 48
_cell_length_a 9.378803
_cell_length_b 11.780128
_cell_length_c 15.483842
_cell_angle_alpha 90.000000
_cell_angle_beta 92.223091
_cell_angle_gamma 90.000000
_cell_volume 1709.421514
_symmetry_space_group_name_H-M "C 2/C"
_symmetry_group_IT_number 15
_symmetry_cell_setting 'monoclinic'
loop_
_space_group_symop_operation_xyz
x,y,z
-x,y,1/2-z
-x,-y,-z
x,-y,1/2+z
1/2+x,1/2+y,z
1/2-x,1/2+y,1/2-z
1/2-x,1/2-y,-z
1/2+x,1/2-y,1/2+z
loop_
_atom_site_type_symbol
_atom_site_label
_atom_site_fract_x
_atom_site_fract_y
_atom_site_fract_z
Si Si1 0.825903 0.439864 0.349008
Si Si2 0.634431 0.940901 0.958781
Si Si3 0.507698 0.600962 0.432375
Si Si4 0.230501 0.310202 0.645907
Si Si5 0.839568 0.064808 0.830271
Si Si6 0.500000 0.223884 0.750000
Si Si7 0.250000 0.750000 0.500000
O O1 0.780353 0.404557 0.446273
O O2 0.858181 0.574359 0.345087
O O3 0.713772 0.425974 0.269249
O O4 0.957566 0.362136 0.325462
O O5 0.633804 0.813172 0.927859
O O6 0.500000 0.000000 0.000000
O O7 0.716397 0.016510 0.892427
O O8 0.500000 0.500000 0.500000
O O9 0.663689 0.656158 0.430620
O O10 0.463706 0.526477 0.347416
O O11 0.387175 0.691638 0.447927
O O12 0.143088 0.194876 0.639781
O O13 0.355939 0.288748 0.720299
#
# Coordination Sequence:
#
# PCOD9289385 Si02
#       7
#     8   8   8   8   8   4   4
#     4  11  23  42  66  94 126 166 215 263 317 389
#     4  11  22  39  65  93 124 164 211 259 316 383
#     4  11  23  40  64  97 129 168 217 263 320 393
#     4  11  22  41  67  89 131 173 205 269 331 372
#     4  10  24  41  62  96 127 163 218 261 316 393
#     4  10  22  42  64  92 126 168 216 262 322 388
#     4  10  22  40  64  90 130 168 206 264 320 370
#
# _framework density 28.079674000000001
#
# number of rings (size 3 to 8) (size 9 to 14) (size 15 to 20)
#    0.000    1.333    0.000    7.000    0.000    8.000 
#    0.000    3.333    0.000    0.000    0.000    0.000 
#    0.000    0.000    0.000    0.000    0.000    0.000 
#
# Total GULP energy -133850.367874 kJ/mol
# GULP energy per Si atom -5577.098661 kJ/mol
# Density = 2.801576 g / cm^3
# Si number density = 28.079674 Si / 1000 Ang^3
#
#
#
# Elastic Constant Matrix: (Units=GPa)
#
#
# Indices 1 2 3 4 5 6 
#
# 1 82.8063 40.1201 27.0343 0.0000 -16.0928 0.0000
# 2 40.1201 181.3432 13.6314 0.0000 -9.8571 0.0000
# 3 27.0343 13.6314 132.8891 0.0000 -5.6034 0.0000
# 4 0.0000 0.0000 0.0000 53.0245 0.0000 -4.6798
# 5 -16.0928 -9.8571 -5.6034 0.0000 47.7813 0.0000
# 6 0.0000 0.0000 0.0000 -4.6798 0.0000 36.5515
#
#
#
# Elastic Compliance Matrix: (Units=1/GPa)
#
#
# Indices 1 2 3 4 5 6 
#
# 1 0.015163 -0.002931 -0.002607 0.000000 0.004197 0.000000
# 2 -0.002931 0.006180 -0.000026 0.000000 0.000285 0.000000
# 3 -0.002607 -0.000026 0.008061 0.000000 0.000062 0.000000
# 4 0.000000 0.000000 0.000000 0.019075 0.000000 0.002442
# 5 0.004197 0.000285 0.000062 0.000000 0.022408 0.000000
# 6 0.000000 0.000000 0.000000 0.002442 0.000000 0.027671
#
#
# Mechanical properties :
#
#
# Convention : Reuss Voigt Hill
#
# Bulk Modulus (GPa) = 54.71353 62.06780 58.39067
# Shear Modulus (GPa) = 43.18638 48.55500 45.87069
#
# Velocity S-wave (km/s) = 3.92598 4.16286 4.04615
# Velocity P-wave (km/s) = 6.33076 6.72741 6.53210
#
# Compressibility (1/GPa) = 0.01827701
#
# Stress axis : x y z
#
# Youngs Moduli (GPa) = 65.95012 161.80768 124.05862
#
# Poissons Ratio (x) = 0.47418 0.32344
# Poissons Ratio (y) = 0.19327 0.00320
# Poissons Ratio (z) = 0.17194 0.00417
#
# Static dielectric constant tensor:
#      x y z
#    x 2.468930 0.000000 0.051880 
#    y 0.000000 6.000360 0.000000 
#    z 0.051880 0.000000 2.603410 
# 
# From -- ./inp_files/196160.got.cif
#   From: 2010.05.17/outbox.cif.g08.bks.cpg/sg15_99_cif.got.tgz:196160.got - 2010.06.03 18:47:42.
