data_PCOD9289033
_publ_section_title
;
Structure prediction by ZEFSAII (Michael W. Deem and Ramdas Pophale) SiO2 
 PCOD9289033
Probable space group: C 2/C
;
_chemical_formula_sum "Si O2"
_cell_formula_units_Z 60
_cell_length_a 24.322709
_cell_length_b 14.037263
_cell_length_c 26.173251
_cell_angle_alpha 90.000000
_cell_angle_beta 162.464806
_cell_angle_gamma 90.000000
_cell_volume 2692.396537
_symmetry_space_group_name_H-M "C 2/C"
_symmetry_group_IT_number 15
_symmetry_cell_setting 'monoclinic'
loop_
_space_group_symop_operation_xyz
x,y,z
-x,y,1/2-z
-x,-y,-z
x,-y,1/2+z
1/2+x,1/2+y,z
1/2-x,1/2+y,1/2-z
1/2-x,1/2-y,-z
1/2+x,1/2-y,1/2+z
loop_
_atom_site_type_symbol
_atom_site_label
_atom_site_fract_x
_atom_site_fract_y
_atom_site_fract_z
Si Si1 0.084383 0.723862 0.995942
Si Si2 0.500000 0.511827 0.750000
Si Si3 0.760054 0.097251 0.842623
Si Si4 0.591982 0.401488 0.140977
Si Si5 0.836603 0.049133 0.209673
Si Si6 0.156504 0.649868 0.429241
Si Si7 0.557386 0.218475 0.516179
Si Si8 0.524564 0.922732 0.635344
O O1 0.125354 0.833820 0.018199
O O2 0.257957 0.654817 0.146029
O O3 0.036612 0.733905 0.013102
O O4 0.915549 0.666029 0.823083
O O5 0.545169 0.457742 0.737254
O O6 0.321915 0.575559 0.580168
O O7 0.850402 0.075850 0.866732
O O8 0.678596 0.996979 0.788788
O O9 0.580807 0.493621 0.167505
O O10 0.430781 0.322952 0.998404
O O11 0.754663 0.335592 0.307667
O O12 0.650593 0.987862 0.034287
O O13 0.250000 0.750000 0.500000
O O14 0.000000 0.625188 0.250000
O O15 0.048526 0.649013 0.386807
O O16 0.434387 0.142040 0.377023
#
# Coordination Sequence:
#
# PCOD9289033 Si02
#       8
#     8   4   8   8   8   8   8   8
#     4   9  17  32  54  75 105 139 180 223 272 325
#     4  10  22  40  58  82 112 148 190 230 276 324
#     4   9  17  33  52  77 106 140 177 223 275 328
#     4   9  17  29  50  76 108 139 177 217 268 332
#     4   9  18  34  55  75 104 144 184 224 271 325
#     4  11  23  39  60  83 113 148 184 227 275 330
#     4   9  17  29  49  78 105 141 175 214 271 333
#     4   9  19  33  54  75 108 141 180 222 273 330
#
# _framework density 22.284979
#
# number of rings (size 3 to 8) (size 9 to 14) (size 15 to 20)
#    0.000    2.667    0.667    0.800    1.867    4.267 
#    2.400    0.000    1.467    8.800    0.000    0.000 
#    0.000    0.000    0.000    0.000    0.000    0.000 
#
# Total GULP energy -167410.332881 kJ/mol
# GULP energy per Si atom -5580.344429 kJ/mol
# Density = 2.223426 g / cm^3
# Si number density = 22.284979 Si / 1000 Ang^3
#
#
#
# Elastic Constant Matrix: (Units=GPa)
#
#
# Indices 1 2 3 4 5 6 
#
# 1 28.7337 32.3359 3.9496 0.0426 6.8614 0.0212
# 2 32.3359 125.6243 16.6482 0.0499 22.4368 0.0432
# 3 3.9496 16.6482 97.9010 0.0612 -0.7374 0.0386
# 4 0.0426 0.0499 0.0612 35.2066 0.0144 -3.5917
# 5 6.8614 22.4368 -0.7374 0.0144 16.6605 0.0003
# 6 0.0212 0.0432 0.0386 -3.5917 0.0003 7.2081
#
#
#
# Elastic Compliance Matrix: (Units=1/GPa)
#
#
# Indices 1 2 3 4 5 6 
#
# 1 0.049220 -0.011916 0.000009 -0.000051 -0.004223 -0.000099
# 2 -0.011916 0.013728 -0.001957 0.000000 -0.013666 -0.000036
# 3 0.000009 -0.001957 0.010570 -0.000023 0.003099 -0.000056
# 4 -0.000051 0.000000 -0.000023 0.029925 -0.000007 0.014911
# 5 -0.004223 -0.013666 0.003099 -0.000007 0.080302 0.000071
# 6 -0.000099 -0.000036 -0.000056 0.014911 0.000071 0.146163
#
#
# Mechanical properties :
#
#
# Convention : Reuss Voigt Hill
#
# Bulk Modulus (GPa) = 21.83896 39.79180 30.81538
# Shear Modulus (GPa) = 13.40847 25.10341 19.25594
#
# Velocity S-wave (km/s) = 2.45558 3.35994 2.94271
# Velocity P-wave (km/s) = 4.22622 5.73994 5.04023
#
# Compressibility (1/GPa) = 0.04578972
#
# Stress axis : x y z
#
# Youngs Moduli (GPa) = 20.31714 72.84614 94.60620
#
# Poissons Ratio (x) = 0.86805 -0.00085
# Poissons Ratio (y) = 0.24210 0.18510
# Poissons Ratio (z) = -0.00018 0.14253
#
# Static dielectric constant tensor:
#      x y z
#    x 1.817860 -0.000050 -0.033530 
#    y -0.000050 1.911220 0.000080 
#    z -0.033530 0.000080 1.930500 
# 
# From -- ./inp_files/302372.got.cif
#   From: 2010.05.17/outbox.cif.g08.bks.cpg/sg15_152_cif.got.tgz:302372.got - 2010.06.03 18:47:42.
