data_PCOD9289439
_publ_section_title
;
Structure prediction by ZEFSAII (Michael W. Deem and Ramdas Pophale) SiO2 
 PCOD9289439
Probable space group: C 2/C
;
_chemical_formula_sum "Si O2"
_cell_formula_units_Z 40
_cell_length_a 11.991228
_cell_length_b 6.986790
_cell_length_c 24.429604
_cell_angle_alpha 90.000000
_cell_angle_beta 67.508222
_cell_angle_gamma 90.000000
_cell_volume 1891.032239
_symmetry_space_group_name_H-M "C 2/C"
_symmetry_group_IT_number 15
_symmetry_cell_setting 'monoclinic'
loop_
_space_group_symop_operation_xyz
x,y,z
-x,y,1/2-z
-x,-y,-z
x,-y,1/2+z
1/2+x,1/2+y,z
1/2-x,1/2+y,1/2-z
1/2-x,1/2-y,-z
1/2+x,1/2-y,1/2+z
loop_
_atom_site_type_symbol
_atom_site_label
_atom_site_fract_x
_atom_site_fract_y
_atom_site_fract_z
Si Si1 0.058183 0.946951 0.561152
Si Si2 0.709691 0.695487 0.135398
Si Si3 0.299096 0.436571 0.659587
Si Si4 0.542809 0.809429 0.962279
Si Si5 0.135698 0.899071 0.236079
O O1 0.138654 0.884063 0.596658
O O2 0.093714 0.830478 0.500384
O O3 0.919096 0.894951 0.602190
O O4 0.055847 0.174234 0.548847
O O5 0.710536 0.924032 0.142432
O O6 0.850299 0.645262 0.099819
O O7 0.655402 0.594170 0.198594
O O8 0.230186 0.252226 0.694303
O O9 0.342323 0.557465 0.704533
O O10 0.500000 0.000000 0.000000
O O11 0.000000 0.831019 0.250000
#
# Coordination Sequence:
#
# PCOD9289439 Si02
#       5
#     8   8   8   8   8
#     4  10  22  41  63  91 131 163 211 268 312 377
#     4  11  23  41  65  93 128 170 212 262 320 378
#     4  11  24  41  62  91 128 167 213 265 318 378
#     4  10  22  40  64  95 128 166 212 260 317 380
#     4  12  24  40  63  91 125 169 214 263 321 380
#
# _framework density 21.152469
#
# number of rings (size 3 to 8) (size 9 to 14) (size 15 to 20)
#    0.000    1.200    4.000    1.800    0.000    4.800 
#    0.000    0.000    0.000    0.000    0.000    0.000 
#    0.000    0.000    0.000    0.000    0.000    0.000 
#
# Total GULP energy -111783.008899 kJ/mol
# GULP energy per Si atom -5589.150445 kJ/mol
# Density = 2.110432 g / cm^3
# Si number density = 21.152469 Si / 1000 Ang^3
#
#
#
# Elastic Constant Matrix: (Units=GPa)
#
#
# Indices 1 2 3 4 5 6 
#
# 1 48.9562 22.9738 3.4303 0.0000 13.3623 0.0000
# 2 22.9738 56.7323 -1.5186 0.0000 -1.7538 0.0000
# 3 3.4303 -1.5186 75.6212 0.0000 1.3230 0.0000
# 4 0.0000 0.0000 0.0000 44.6628 0.0000 0.7180
# 5 13.3623 -1.7538 1.3230 0.0000 41.7119 0.0000
# 6 0.0000 0.0000 0.0000 0.7180 0.0000 25.0649
#
#
#
# Elastic Compliance Matrix: (Units=1/GPa)
#
#
# Indices 1 2 3 4 5 6 
#
# 1 0.028797 -0.011998 -0.001378 0.000000 -0.009686 0.000000
# 2 -0.011998 0.022657 0.000916 0.000000 0.004767 0.000000
# 3 -0.001378 0.000916 0.013304 0.000000 0.000058 0.000000
# 4 0.000000 0.000000 0.000000 0.022400 0.000000 -0.000642
# 5 -0.009686 0.004767 0.000058 0.000000 0.027275 0.000000
# 6 0.000000 0.000000 0.000000 -0.000642 0.000000 0.039915
#
#
# Mechanical properties :
#
#
# Convention : Reuss Voigt Hill
#
# Bulk Modulus (GPa) = 25.10140 25.67563 25.38852
# Shear Modulus (GPa) = 25.96780 32.71621 29.34200
#
# Velocity S-wave (km/s) = 3.50758 3.93706 3.72851
# Velocity P-wave (km/s) = 5.31948 5.72992 5.52851
#
# Compressibility (1/GPa) = 0.03983841
#
# Stress axis : x y z
#
# Youngs Moduli (GPa) = 34.72613 44.13664 75.16716
#
# Poissons Ratio (x) = 0.52953 0.10356
# Poissons Ratio (y) = 0.41663 -0.06884
# Poissons Ratio (z) = 0.04784 -0.04042
#
# Static dielectric constant tensor:
#      x y z
#    x 1.750620 0.000000 0.005530 
#    y 0.000000 1.761600 0.000000 
#    z 0.005530 0.000000 1.737990 
# 
# From -- ./inp_files/271822.got.cif
#   From: 2010.05.17/outbox.cif.g08.bks.cpg/sg15_136_cif.got.tgz:271822.got - 2010.06.03 18:47:42.
