data_PCOD9289782
_publ_section_title
;
Structure prediction by ZEFSAII (Michael W. Deem and Ramdas Pophale) SiO2 
 PCOD9289782
Probable space group: C 2/C
;
_chemical_formula_sum "Si O2"
_cell_formula_units_Z 28
_cell_length_a 12.941311
_cell_length_b 6.468341
_cell_length_c 21.231799
_cell_angle_alpha 90.000000
_cell_angle_beta 31.809054
_cell_angle_gamma 90.000000
_cell_volume 936.791253
_symmetry_space_group_name_H-M "C 2/C"
_symmetry_group_IT_number 15
_symmetry_cell_setting 'monoclinic'
loop_
_space_group_symop_operation_xyz
x,y,z
-x,y,1/2-z
-x,-y,-z
x,-y,1/2+z
1/2+x,1/2+y,z
1/2-x,1/2+y,1/2-z
1/2-x,1/2-y,-z
1/2+x,1/2-y,1/2+z
loop_
_atom_site_type_symbol
_atom_site_label
_atom_site_fract_x
_atom_site_fract_y
_atom_site_fract_z
Si Si1 0.500000 0.173955 0.750000
Si Si2 0.515803 0.400975 0.062369
Si Si3 0.725409 0.423784 0.129241
Si Si4 0.097737 0.322774 0.330052
O O1 0.316473 0.331619 0.854760
O O2 0.482542 0.065292 0.691467
O O3 0.321975 0.295261 0.191186
O O4 0.521758 0.607060 0.102722
O O5 0.500000 0.500000 0.000000
O O6 0.674077 0.220078 0.974585
O O7 0.500000 0.347509 0.250000
O O8 0.863002 0.395078 0.119345
#
# Coordination Sequence:
#
# PCOD9289782 Si02
#       4
#     4   8   8   8
#     4  10  22  40  68 104 134 182 224 276 348 402
#     4  10  22  43  70  99 137 182 227 284 344 406
#     4   9  21  43  68  96 139 181 220 281 347 396
#     4  11  21  43  67 100 140 173 234 276 340 414
#
# _framework density 29.889265000000002
#
# number of rings (size 3 to 8) (size 9 to 14) (size 15 to 20)
#    0.857    1.143    2.857    0.000    0.000    5.714 
#   10.286    5.714    0.000    0.000    0.000    0.000 
#    0.000    0.000    0.000    0.000    0.000    0.000 
#
# Total GULP energy -78183.420143 kJ/mol
# GULP energy per Si atom -5584.530010 kJ/mol
# Density = 2.982124 g / cm^3
# Si number density = 29.889265 Si / 1000 Ang^3
#
#
#
# Elastic Constant Matrix: (Units=GPa)
#
#
# Indices 1 2 3 4 5 6 
#
# 1 238.3434 52.1436 17.9826 0.0000 51.8918 0.0000
# 2 52.1436 91.7807 46.1139 -0.0001 4.2640 0.0001
# 3 17.9826 46.1139 187.3107 0.0000 7.9195 0.0001
# 4 0.0000 -0.0001 0.0000 34.0685 0.0000 8.0295
# 5 51.8918 4.2640 7.9195 0.0000 51.5496 0.0000
# 6 0.0000 0.0001 0.0001 8.0295 0.0000 49.0725
#
#
#
# Elastic Compliance Matrix: (Units=1/GPa)
#
#
# Indices 1 2 3 4 5 6 
#
# 1 0.006254 -0.003535 0.000527 0.000000 -0.006084 0.000000
# 2 -0.003535 0.014448 -0.003339 0.000000 0.002877 0.000000
# 3 0.000527 -0.003339 0.006161 0.000000 -0.001201 0.000000
# 4 0.000000 0.000000 0.000000 0.030530 0.000000 -0.004995
# 5 -0.006084 0.002877 -0.001201 0.000000 0.025470 0.000000
# 6 0.000000 0.000000 0.000000 -0.004995 0.000000 0.021195
#
#
# Mechanical properties :
#
#
# Convention : Reuss Voigt Hill
#
# Bulk Modulus (GPa) = 70.57957 83.32389 76.95173
# Shear Modulus (GPa) = 41.16060 53.68442 47.42251
#
# Velocity S-wave (km/s) = 3.71496 4.24265 3.98754
# Velocity P-wave (km/s) = 6.48584 7.20681 6.85581
#
# Compressibility (1/GPa) = 0.01416841
#
# Stress axis : x y z
#
# Youngs Moduli (GPa) = 159.90112 69.21322 162.31225
#
# Poissons Ratio (x) = 0.24469 -0.08557
# Poissons Ratio (y) = 0.56529 0.54199
# Poissons Ratio (z) = -0.08429 0.23112
#
# Static dielectric constant tensor:
#      x y z
#    x 2.338060 0.000000 -0.038700 
#    y 0.000000 2.403540 0.000000 
#    z -0.038700 0.000000 2.347840 
# 
# From -- ./inp_files/125212.got.cif
#   From: 2010.05.17/outbox.cif.g08.bks.cpg/sg15_63_cif.got.tgz:125212.got - 2010.06.03 18:47:42.
