data_PCOD9289663
_publ_section_title
;
Structure prediction by ZEFSAII (Michael W. Deem and Ramdas Pophale) SiO2 
 PCOD9289663
Probable space group: C 2/C
;
_chemical_formula_sum "Si O2"
_cell_formula_units_Z 60
_cell_length_a 26.858752
_cell_length_b 13.423069
_cell_length_c 14.612930
_cell_angle_alpha 90.000000
_cell_angle_beta 30.334705
_cell_angle_gamma 90.000000
_cell_volume 2660.784884
_symmetry_space_group_name_H-M "C 2/C"
_symmetry_group_IT_number 15
_symmetry_cell_setting 'monoclinic'
loop_
_space_group_symop_operation_xyz
x,y,z
-x,y,1/2-z
-x,-y,-z
x,-y,1/2+z
1/2+x,1/2+y,z
1/2-x,1/2+y,1/2-z
1/2-x,1/2-y,-z
1/2+x,1/2-y,1/2+z
loop_
_atom_site_type_symbol
_atom_site_label
_atom_site_fract_x
_atom_site_fract_y
_atom_site_fract_z
Si Si1 0.074863 0.744770 0.559682
Si Si2 0.409388 0.887021 0.079080
Si Si3 0.003895 0.040693 0.351098
Si Si4 0.668783 0.492043 0.738622
Si Si5 0.739962 0.728249 0.122599
Si Si6 0.193039 0.333326 0.535387
Si Si7 0.609569 0.907733 0.853222
Si Si8 0.000000 0.672321 0.250000
O O1 0.016113 0.839755 0.614258
O O2 0.166464 0.776249 0.476241
O O3 0.124270 0.680189 0.401565
O O4 0.000000 0.690783 0.750000
O O5 0.353615 0.785458 0.187252
O O6 0.348157 0.988344 0.178288
O O7 0.490659 0.901525 0.029576
O O8 0.461280 0.886703 0.898898
O O9 0.000000 0.012548 0.250000
O O10 0.103913 0.013396 0.247146
O O11 0.912871 0.994617 0.551941
O O12 0.731063 0.390557 0.648366
O O13 0.736763 0.591135 0.631396
O O14 0.750000 0.750000 0.000000
O O15 0.250000 0.250000 0.500000
O O16 0.149182 0.396276 0.688820
O O17 0.102604 0.281856 0.623944
#
# Coordination Sequence:
#
# PCOD9289663 Si02
#       8
#     8   8   8   8   8   8   8   4
#     4  11  24  39  68  96 136 181 228 286 346 409
#     4  10  23  43  65  94 140 172 226 287 337 409
#     4  10  23  46  68  98 140 181 236 298 347 422
#     4  11  25  45  72 101 139 187 235 292 355 426
#     4  12  25  41  67 100 136 178 232 285 349 412
#     4  11  25  46  71 103 147 181 232 289 353 421
#     4  10  22  40  66  97 131 182 224 279 346 407
#     4  10  26  44  68 102 142 182 226 288 350 418
#
# _framework density 22.549737
#
# number of rings (size 3 to 8) (size 9 to 14) (size 15 to 20)
#    0.000    1.333    0.000    4.800    6.533    5.333 
#    2.400    0.000    0.000    0.000    0.000    0.000 
#    0.000    0.000    0.000    0.000    0.000    0.000 
#
# Total GULP energy -167425.065104 kJ/mol
# GULP energy per Si atom -5580.835503 kJ/mol
# Density = 2.249841 g / cm^3
# Si number density = 22.549737 Si / 1000 Ang^3
#
#
#
# Elastic Constant Matrix: (Units=GPa)
#
#
# Indices 1 2 3 4 5 6 
#
# 1 105.5547 9.3205 18.0435 0.0000 -2.4004 0.0000
# 2 9.3205 68.5949 10.5792 0.0000 -11.6898 0.0000
# 3 18.0435 10.5792 64.8795 0.0000 2.4751 0.0000
# 4 0.0000 0.0000 0.0000 15.5795 0.0000 5.8083
# 5 -2.4004 -11.6898 2.4751 0.0000 49.4597 0.0000
# 6 0.0000 0.0000 0.0000 5.8083 0.0000 18.6650
#
#
#
# Elastic Compliance Matrix: (Units=1/GPa)
#
#
# Indices 1 2 3 4 5 6 
#
# 1 0.010015 -0.000881 -0.002657 0.000000 0.000411 0.000000
# 2 -0.000881 0.015725 -0.002464 0.000000 0.003797 0.000000
# 3 -0.002657 -0.002464 0.016613 0.000000 -0.001543 0.000000
# 4 0.000000 0.000000 0.000000 0.072611 0.000000 -0.022595
# 5 0.000411 0.003797 -0.001543 0.000000 0.021213 0.000000
# 6 0.000000 0.000000 0.000000 -0.022595 0.000000 0.060608
#
#
# Mechanical properties :
#
#
# Convention : Reuss Voigt Hill
#
# Bulk Modulus (GPa) = 32.95048 34.99061 33.97054
# Shear Modulus (GPa) = 22.84094 30.14657 26.49376
#
# Velocity S-wave (km/s) = 3.18608 3.66032 3.43140
# Velocity P-wave (km/s) = 5.30838 5.78054 5.54949
#
# Compressibility (1/GPa) = 0.03034857
#
# Stress axis : x y z
#
# Youngs Moduli (GPa) = 99.84888 63.59235 60.19440
#
# Poissons Ratio (x) = 0.05602 0.15995
# Poissons Ratio (y) = 0.08797 0.14832
# Poissons Ratio (z) = 0.26533 0.15669
#
# Static dielectric constant tensor:
#      x y z
#    x 1.888720 0.000000 -0.055000 
#    y 0.000000 1.950630 0.000000 
#    z -0.055000 0.000000 1.915520 
# 
# From -- ./inp_files/178518.got.cif
#   From: 2010.05.17/outbox.cif.g08.bks.cpg/sg15_90_cif.got.tgz:178518.got - 2010.06.03 18:47:42.
