data_PCOD9289491
_publ_section_title
;
Structure prediction by ZEFSAII (Michael W. Deem and Ramdas Pophale) SiO2 
 PCOD9289491
Probable space group: C 2/C
;
_chemical_formula_sum "Si O2"
_cell_formula_units_Z 64
_cell_length_a 22.031896
_cell_length_b 16.548186
_cell_length_c 9.300349
_cell_angle_alpha 90.000000
_cell_angle_beta 102.386691
_cell_angle_gamma 90.000000
_cell_volume 3311.864357
_symmetry_space_group_name_H-M "C 2/C"
_symmetry_group_IT_number 15
_symmetry_cell_setting 'monoclinic'
loop_
_space_group_symop_operation_xyz
x,y,z
-x,y,1/2-z
-x,-y,-z
x,-y,1/2+z
1/2+x,1/2+y,z
1/2-x,1/2+y,1/2-z
1/2-x,1/2-y,-z
1/2+x,1/2-y,1/2+z
loop_
_atom_site_type_symbol
_atom_site_label
_atom_site_fract_x
_atom_site_fract_y
_atom_site_fract_z
Si Si1 0.140079 0.736718 0.483530
Si Si2 0.539085 0.554373 0.126628
Si Si3 0.744390 0.649184 0.077354
Si Si4 0.784089 0.685220 0.414465
Si Si5 0.651421 0.560456 0.672835
Si Si6 0.230539 0.015235 0.460242
Si Si7 0.595547 0.259363 0.147357
Si Si8 0.026454 0.241292 0.100741
O O1 0.202640 0.683207 0.502309
O O2 0.173872 0.824819 0.505087
O O3 0.103298 0.728675 0.314525
O O4 0.091671 0.717903 0.586203
O O5 0.500000 0.553104 0.250000
O O6 0.604518 0.512256 0.177090
O O7 0.543428 0.647166 0.087885
O O8 0.500000 0.500000 0.000000
O O9 0.755547 0.687211 0.239548
O O10 0.754512 0.553731 0.080477
O O11 0.750000 0.750000 0.500000
O O12 0.774782 0.591600 0.454425
O O13 0.854349 0.714100 0.427585
O O14 0.673950 0.554903 0.519951
O O15 0.706766 0.538799 0.812963
O O16 0.616487 0.646235 0.667670
O O17 0.529023 0.245510 0.041229
O O18 0.000000 0.254531 0.250000
#
# Coordination Sequence:
#
# PCOD9289491 Si02
#       8
#     8   8   8   8   8   8   8   8
#     4  10  22  40  65  86 125 162 210 260 305 377
#     4  11  23  34  49  77 120 161 204 241 286 362
#     4  10  22  41  64  96 121 163 213 259 316 366
#     4  11  24  39  62  91 130 166 204 267 313 371
#     4  12  23  36  58  87 122 169 205 253 305 372
#     4  12  23  39  62  91 125 158 212 259 313 370
#     4  11  23  40  59  88 123 173 208 245 323 367
#     4  11  25  39  57  88 123 168 209 258 310 374
#
# _framework density 19.324462
#
# number of rings (size 3 to 8) (size 9 to 14) (size 15 to 20)
#    0.000    1.000    5.000    1.875    5.250    0.000 
#    0.000    0.000    0.000    0.750    0.000    0.000 
#    0.000    0.000    0.000    0.000    0.000    0.000 
#
# Total GULP energy -178398.819690 kJ/mol
# GULP energy per Si atom -5574.963115 kJ/mol
# Density = 1.928048 g / cm^3
# Si number density = 19.324462 Si / 1000 Ang^3
#
#
#
# Elastic Constant Matrix: (Units=GPa)
#
#
# Indices 1 2 3 4 5 6 
#
# 1 115.3271 21.7291 38.5310 0.0000 -14.2956 0.0000
# 2 21.7291 44.1974 9.4248 0.0000 -2.2379 0.0000
# 3 38.5310 9.4248 51.8968 0.0000 0.4145 0.0000
# 4 0.0000 0.0000 0.0000 25.0195 0.0000 -2.0874
# 5 -14.2956 -2.2379 0.4145 0.0000 27.3844 0.0000
# 6 0.0000 0.0000 0.0000 -2.0874 0.0000 35.8942
#
#
#
# Elastic Compliance Matrix: (Units=1/GPa)
#
#
# Indices 1 2 3 4 5 6 
#
# 1 0.013401 -0.004277 -0.009227 0.000000 0.006786 0.000000
# 2 -0.004277 0.025011 -0.001365 0.000000 -0.000168 0.000000
# 3 -0.009227 -0.001365 0.026410 0.000000 -0.005328 0.000000
# 4 0.000000 0.000000 0.000000 0.040164 0.000000 0.002336
# 5 0.006786 -0.000168 -0.005328 0.000000 0.040127 0.000000
# 6 0.000000 0.000000 0.000000 0.002336 0.000000 0.027996
#
#
# Mechanical properties :
#
#
# Convention : Reuss Voigt Hill
#
# Bulk Modulus (GPa) = 28.50352 38.97677 33.74015
# Shear Modulus (GPa) = 23.30561 27.10870 25.20716
#
# Velocity S-wave (km/s) = 3.47654 3.74948 3.61559
# Velocity P-wave (km/s) = 5.55852 6.24166 5.90997
#
# Compressibility (1/GPa) = 0.03508338
#
# Stress axis : x y z
#
# Youngs Moduli (GPa) = 74.62298 39.98212 37.86441
#
# Poissons Ratio (x) = 0.17101 0.34937
# Poissons Ratio (y) = 0.31917 0.05170
# Poissons Ratio (z) = 0.68853 0.05459
#
# Static dielectric constant tensor:
#      x y z
#    x 1.715910 0.000000 0.032600 
#    y 0.000000 1.739180 0.000000 
#    z 0.032600 0.000000 1.780870 
# 
# From -- ./inp_files/56620.got.cif
#   From: 2010.05.17/outbox.cif.g08.bks.cpg/sg15_29_cif.got.tgz:56620.got - 2010.06.03 18:47:42.
