data_PCOD9289515
_publ_section_title
;
Structure prediction by ZEFSAII (Michael W. Deem and Ramdas Pophale) SiO2 
 PCOD9289515
Probable space group: C 2/C
;
_chemical_formula_sum "Si O2"
_cell_formula_units_Z 40
_cell_length_a 11.552055
_cell_length_b 16.116939
_cell_length_c 9.058209
_cell_angle_alpha 90.000000
_cell_angle_beta 94.972683
_cell_angle_gamma 90.000000
_cell_volume 1680.143742
_symmetry_space_group_name_H-M "C 2/C"
_symmetry_group_IT_number 15
_symmetry_cell_setting 'monoclinic'
loop_
_space_group_symop_operation_xyz
x,y,z
-x,y,1/2-z
-x,-y,-z
x,-y,1/2+z
1/2+x,1/2+y,z
1/2-x,1/2+y,1/2-z
1/2-x,1/2-y,-z
1/2+x,1/2-y,1/2+z
loop_
_atom_site_type_symbol
_atom_site_label
_atom_site_fract_x
_atom_site_fract_y
_atom_site_fract_z
Si Si1 0.462272 0.124019 0.403527
Si Si2 0.832458 0.551525 0.883250
Si Si3 0.720604 0.827678 0.381516
Si Si4 0.376128 0.334827 0.667822
Si Si5 0.917083 0.982084 0.126338
O O1 0.500000 0.160065 0.250000
O O2 0.576926 0.099443 0.505573
O O3 0.382330 0.174611 0.507488
O O4 0.387694 0.039541 0.367088
O O5 0.812232 0.596216 0.725144
O O6 0.704174 0.555056 0.938210
O O7 0.709585 0.740257 0.293657
O O8 0.837167 0.840962 0.489603
O O9 0.500000 0.308542 0.750000
O O10 0.374954 0.432828 0.704538
O O11 0.000000 0.934183 0.250000
O O12 0.000000 0.000000 0.000000
#
# Coordination Sequence:
#
# PCOD9289515 Si02
#       5
#     8   8   8   8   8
#     4  11  23  36  65  99 129 160 216 282 323 380
#     4  11  22  40  64  97 126 168 221 268 326 385
#     4  11  22  43  67  95 131 175 217 270 334 392
#     4  10  22  40  65  93 134 177 215 265 332 391
#     4  11  24  40  65  93 127 172 218 264 318 391
#
# _framework density 23.807487999999999
#
# number of rings (size 3 to 8) (size 9 to 14) (size 15 to 20)
#    0.000    1.200    2.000    5.400    2.800    0.000 
#    0.000    5.000    0.000    9.600    0.000    0.000 
#    0.000    0.000    0.000    0.000    0.000    0.000 
#
# Total GULP energy -111478.026298 kJ/mol
# GULP energy per Si atom -5573.901315 kJ/mol
# Density = 2.375330 g / cm^3
# Si number density = 23.807488 Si / 1000 Ang^3
#
#
#
# Elastic Constant Matrix: (Units=GPa)
#
#
# Indices 1 2 3 4 5 6 
#
# 1 175.1917 6.1253 71.3660 0.0000 31.8655 0.0000
# 2 6.1253 50.8833 -4.6482 0.0000 11.3846 0.0000
# 3 71.3660 -4.6482 107.4492 0.0000 15.8721 0.0000
# 4 0.0000 0.0000 0.0000 -1.5263 0.0000 17.2582
# 5 31.8655 11.3846 15.8721 0.0000 69.4550 0.0000
# 6 0.0000 0.0000 0.0000 17.2582 0.0000 24.6508
#
#
#
# Elastic Compliance Matrix: (Units=1/GPa)
#
#
# Indices 1 2 3 4 5 6 
#
# 1 0.008304 -0.000920 -0.005190 0.000000 -0.002473 0.000000
# 2 -0.000920 0.020716 0.002015 0.000000 -0.003434 0.000000
# 3 -0.005190 0.002015 0.012976 0.000000 -0.000914 0.000000
# 4 0.000000 0.000000 0.000000 -0.073481 0.000000 0.051445
# 5 -0.002473 -0.003434 -0.000914 0.000000 0.016304 0.000000
# 6 0.000000 0.000000 0.000000 0.051445 0.000000 0.004550
#
#
# Mechanical properties :
#
#
# Convention : Reuss Voigt Hill
#
# Bulk Modulus (GPa) = 29.58169 53.24561 41.41365
# Shear Modulus (GPa) = 566.31085 35.89463 301.10274
#
# Velocity S-wave (km/s) = 15.43980 3.88713 11.25826
# Velocity P-wave (km/s) = 18.17421 6.52380 13.65397
#
# Compressibility (1/GPa) = 0.03380470
#
# Stress axis : x y z
#
# Youngs Moduli (GPa) = 120.42035 48.27206 77.06478
#
# Poissons Ratio (x) = 0.04443 0.39997
# Poissons Ratio (y) = 0.11084 -0.15526
# Poissons Ratio (z) = 0.62499 -0.09726
#
# Static dielectric constant tensor:
#      x y z
#    x 1.934050 0.000000 -0.006000 
#    y 0.000000 1.995000 0.000000 
#    z -0.006000 0.000000 1.916440 
# 
# From -- ./inp_files/30423.got.cif
#   From: 2010.05.17/outbox.cif.g08.bks.cpg/sg15_16_cif.got.tgz:30423.got - 2010.06.03 18:47:42.
