data_PCOD9289937
_publ_section_title
;
Structure prediction by ZEFSAII (Michael W. Deem and Ramdas Pophale) SiO2 
 PCOD9289937
Probable space group: C 2/C
;
_chemical_formula_sum "Si O2"
_cell_formula_units_Z 44
_cell_length_a 9.582754
_cell_length_b 20.642704
_cell_length_c 11.326764
_cell_angle_alpha 90.000000
_cell_angle_beta 109.343610
_cell_angle_gamma 90.000000
_cell_volume 2114.108568
_symmetry_space_group_name_H-M "C 2/C"
_symmetry_group_IT_number 15
_symmetry_cell_setting 'monoclinic'
loop_
_space_group_symop_operation_xyz
x,y,z
-x,y,1/2-z
-x,-y,-z
x,-y,1/2+z
1/2+x,1/2+y,z
1/2-x,1/2+y,1/2-z
1/2-x,1/2-y,-z
1/2+x,1/2-y,1/2+z
loop_
_atom_site_type_symbol
_atom_site_label
_atom_site_fract_x
_atom_site_fract_y
_atom_site_fract_z
Si Si1 0.500000 0.804724 0.750000
Si Si2 0.502393 0.108812 0.573842
Si Si3 0.514573 0.372934 0.391469
Si Si4 0.275670 0.051277 0.670339
Si Si5 0.909193 0.747247 0.477582
Si Si6 0.317993 0.086449 0.087756
O O1 0.575255 0.771559 0.657010
O O2 0.634578 0.849050 0.832724
O O3 0.344640 0.083570 0.572487
O O4 0.625074 0.083840 0.700113
O O5 0.497486 0.187273 0.563307
O O6 0.544668 0.077090 0.461952
O O7 0.500000 0.349766 0.250000
O O8 0.392725 0.428878 0.364913
O O9 0.477142 0.319088 0.481595
O O10 0.675209 0.399946 0.467732
O O11 0.296892 0.974860 0.664936
O O12 0.750000 0.750000 0.500000
#
# Coordination Sequence:
#
# PCOD9289937 Si02
#       6
#     4   8   8   8   8   8
#     4  10  24  44  70  98 134 182 230 284 340 406
#     4  10  22  40  70  94 130 182 222 280 334 404
#     4  12  24  44  67 100 140 180 220 286 349 406
#     4  11  22  42  66  99 132 174 227 273 343 411
#     4  11  23  44  68 100 139 173 236 280 343 410
#     4  11  24  43  68  98 135 179 227 284 340 407
#
# _framework density 20.812553999999999
#
# number of rings (size 3 to 8) (size 9 to 14) (size 15 to 20)
#    0.000    1.091    4.545    2.182    0.000    5.818 
#    0.000    0.000    0.000    0.000    0.000    0.000 
#    0.000    0.000    0.000    0.000    0.000    0.000 
#
# Total GULP energy -122607.069311 kJ/mol
# GULP energy per Si atom -5573.048605 kJ/mol
# Density = 2.076518 g / cm^3
# Si number density = 20.812554 Si / 1000 Ang^3
#
#
#
# Elastic Constant Matrix: (Units=GPa)
#
#
# Indices 1 2 3 4 5 6 
#
# 1 107.9473 32.2446 40.2124 0.0000 -14.5078 0.0000
# 2 32.2446 72.6932 22.8166 0.0000 -10.9328 0.0000
# 3 40.2124 22.8166 74.7204 0.0000 2.4189 0.0000
# 4 0.0000 0.0000 0.0000 18.0898 0.0000 -15.7611
# 5 -14.5078 -10.9328 2.4189 0.0000 34.6583 0.0000
# 6 0.0000 0.0000 0.0000 -15.7611 0.0000 32.5258
#
#
#
# Elastic Compliance Matrix: (Units=1/GPa)
#
#
# Indices 1 2 3 4 5 6 
#
# 1 0.013225 -0.003131 -0.006323 0.000000 0.004989 0.000000
# 2 -0.003131 0.016926 -0.003622 0.000000 0.004281 0.000000
# 3 -0.006323 -0.003622 0.018055 0.000000 -0.005049 0.000000
# 4 0.000000 0.000000 0.000000 0.095672 0.000000 0.046360
# 5 0.004989 0.004281 -0.005049 0.000000 0.032645 0.000000
# 6 0.000000 0.000000 0.000000 0.046360 0.000000 0.053210
#
#
# Mechanical properties :
#
#
# Convention : Reuss Voigt Hill
#
# Bulk Modulus (GPa) = 45.34200 49.54534 47.44367
# Shear Modulus (GPa) = 18.99430 27.72725 23.36077
#
# Velocity S-wave (km/s) = 3.02426 3.65394 3.35391
# Velocity P-wave (km/s) = 5.83336 6.45437 6.15171
#
# Compressibility (1/GPa) = 0.02205461
#
# Stress axis : x y z
#
# Youngs Moduli (GPa) = 75.61436 59.08023 55.38521
#
# Poissons Ratio (x) = 0.18500 0.35018
# Poissons Ratio (y) = 0.23677 0.20060
# Poissons Ratio (z) = 0.47808 0.21399
#
# Static dielectric constant tensor:
#      x y z
#    x 1.731200 0.000000 -0.033600 
#    y 0.000000 1.815660 0.000000 
#    z -0.033600 0.000000 1.790370 
# 
# From -- ./inp_files/78371.got.cif
#   From: 2010.05.17/outbox.cif.g08.bks.cpg/sg15_40_cif.got.tgz:78371.got - 2010.06.03 18:47:42.
