data_PCOD9289807
_publ_section_title
;
Structure prediction by ZEFSAII (Michael W. Deem and Ramdas Pophale) SiO2 
 PCOD9289807
Probable space group: C 2/C
;
_chemical_formula_sum "Si O2"
_cell_formula_units_Z 60
_cell_length_a 22.291172
_cell_length_b 10.762615
_cell_length_c 20.762477
_cell_angle_alpha 90.000000
_cell_angle_beta 145.400010
_cell_angle_gamma 90.000000
_cell_volume 2828.515798
_symmetry_space_group_name_H-M "C 2/C"
_symmetry_group_IT_number 15
_symmetry_cell_setting 'monoclinic'
loop_
_space_group_symop_operation_xyz
x,y,z
-x,y,1/2-z
-x,-y,-z
x,-y,1/2+z
1/2+x,1/2+y,z
1/2-x,1/2+y,1/2-z
1/2-x,1/2-y,-z
1/2+x,1/2-y,1/2+z
loop_
_atom_site_type_symbol
_atom_site_label
_atom_site_fract_x
_atom_site_fract_y
_atom_site_fract_z
Si Si1 0.655215 0.100909 0.790391
Si Si2 0.500000 0.247289 0.750000
Si Si3 0.914681 0.268315 0.529866
Si Si4 0.363455 0.261117 0.509724
Si Si5 0.218037 0.508809 0.537263
Si Si6 0.076615 0.867643 0.264908
Si Si7 0.976219 0.638107 0.949442
Si Si8 0.293133 0.864607 0.607051
O O1 0.580707 0.165039 0.778261
O O2 0.775071 0.143044 0.908705
O O3 0.616900 0.131196 0.685265
O O4 0.644649 0.953881 0.790379
O O5 0.432017 0.309063 0.631702
O O6 0.879408 0.406875 0.523048
O O7 0.943992 0.280625 0.481807
O O8 0.808856 0.190051 0.449010
O O9 0.007702 0.196098 0.648820
O O10 0.432401 0.207455 0.511047
O O11 0.305292 0.135530 0.481754
O O12 0.326978 0.543686 0.670008
O O13 0.233950 0.553548 0.478505
O O14 0.134547 0.750213 0.350190
O O15 0.000000 0.926913 0.250000
O O16 0.000000 0.500000 0.000000
#
# Coordination Sequence:
#
# PCOD9289807 Si02
#       8
#     8   4   8   8   8   8   8   8
#     4  11  25  42  64  96 128 170 221 266 322 384
#     4  10  22  40  68  92 120 176 210 266 314 386
#     4  11  22  41  61  95 129 161 215 266 328 389
#     4  11  24  44  64  96 130 165 222 267 319 397
#     4  11  21  37  64  96 127 160 211 269 331 382
#     4  11  20  35  61  95 126 158 202 273 339 382
#     4  11  24  44  68  89 124 182 226 259 319 397
#     4  11  22  36  65  96 124 160 208 275 324 384
#
# _framework density 21.212539
#
# number of rings (size 3 to 8) (size 9 to 14) (size 15 to 20)
#    0.000    1.067    5.333    2.000    2.800    3.200 
#    6.000    0.667    0.000    0.000    0.000    0.000 
#    0.000    0.000    0.000    0.000    0.000    0.000 
#
# Total GULP energy -167611.874972 kJ/mol
# GULP energy per Si atom -5587.062499 kJ/mol
# Density = 2.116426 g / cm^3
# Si number density = 21.212539 Si / 1000 Ang^3
#
#
#
# Elastic Constant Matrix: (Units=GPa)
#
#
# Indices 1 2 3 4 5 6 
#
# 1 115.3740 24.0275 54.3457 0.0000 -17.5084 0.0000
# 2 24.0275 42.5427 20.2175 0.0000 -2.9648 0.0000
# 3 54.3457 20.2175 128.2666 0.0000 -4.0466 0.0000
# 4 0.0000 0.0000 0.0000 28.5218 0.0000 -7.6247
# 5 -17.5084 -2.9648 -4.0466 0.0000 36.4727 0.0000
# 6 0.0000 0.0000 0.0000 -7.6247 0.0000 12.4446
#
#
#
# Elastic Compliance Matrix: (Units=1/GPa)
#
#
# Indices 1 2 3 4 5 6 
#
# 1 0.012475 -0.004598 -0.004399 0.000000 0.005127 0.000000
# 2 -0.004598 0.027200 -0.002347 0.000000 -0.000257 0.000000
# 3 -0.004399 -0.002347 0.009992 0.000000 -0.001194 0.000000
# 4 0.000000 0.000000 0.000000 0.041928 0.000000 0.025689
# 5 0.005127 -0.000257 -0.001194 0.000000 0.029726 0.000000
# 6 0.000000 0.000000 0.000000 0.025689 0.000000 0.096095
#
#
# Mechanical properties :
#
#
# Convention : Reuss Voigt Hill
#
# Bulk Modulus (GPa) = 37.06573 53.70721 45.38647
# Shear Modulus (GPa) = 20.07233 27.99398 24.03315
#
# Velocity S-wave (km/s) = 3.07945 3.63670 3.36961
# Velocity P-wave (km/s) = 5.49140 6.55802 6.04827
#
# Compressibility (1/GPa) = 0.02697910
#
# Stress axis : x y z
#
# Youngs Moduli (GPa) = 80.15897 36.76435 100.07513
#
# Poissons Ratio (x) = 0.16904 0.44025
# Poissons Ratio (y) = 0.36856 0.23491
# Poissons Ratio (z) = 0.35263 0.08630
#
# Static dielectric constant tensor:
#      x y z
#    x 1.745480 0.000000 0.031420 
#    y 0.000000 1.796170 0.000000 
#    z 0.031420 0.000000 2.010060 
# 
# From -- ./inp_files/215227.got.cif
#   From: 2010.05.17/outbox.cif.g08.bks.cpg/sg15_108_cif.got.tgz:215227.got - 2010.06.03 18:47:42.
