data_PCOD9289417
_publ_section_title
;
Structure prediction by ZEFSAII (Michael W. Deem and Ramdas Pophale) SiO2 
 PCOD9289417
Probable space group: C 2/C
;
_chemical_formula_sum "Si O2"
_cell_formula_units_Z 52
_cell_length_a 9.477392
_cell_length_b 26.821241
_cell_length_c 11.529169
_cell_angle_alpha 90.000000
_cell_angle_beta 91.370763
_cell_angle_gamma 90.000000
_cell_volume 2929.823221
_symmetry_space_group_name_H-M "C 2/C"
_symmetry_group_IT_number 15
_symmetry_cell_setting 'monoclinic'
loop_
_space_group_symop_operation_xyz
x,y,z
-x,y,1/2-z
-x,-y,-z
x,-y,1/2+z
1/2+x,1/2+y,z
1/2-x,1/2+y,1/2-z
1/2-x,1/2-y,-z
1/2+x,1/2-y,1/2+z
loop_
_atom_site_type_symbol
_atom_site_label
_atom_site_fract_x
_atom_site_fract_y
_atom_site_fract_z
Si Si1 0.166981 0.855342 0.242748
Si Si2 0.178757 0.680256 0.985011
Si Si3 0.059229 0.218874 0.383358
Si Si4 0.288450 0.307883 0.008855
Si Si5 0.573876 0.889383 0.953094
Si Si6 0.858920 0.439390 0.308433
Si Si7 0.500000 0.963086 0.750000
O O1 0.227051 0.832209 0.125984
O O2 0.220883 0.825469 0.357496
O O3 0.225994 0.911652 0.251759
O O4 0.000000 0.853960 0.250000
O O5 0.081150 0.726675 0.942319
O O6 0.285875 0.694824 0.091332
O O7 0.076063 0.635390 0.017503
O O8 0.000000 0.222015 0.250000
O O9 0.943923 0.188776 0.456419
O O10 0.181646 0.343684 0.937852
O O11 0.250000 0.250000 0.000000
O O12 0.557971 0.926984 0.848297
O O13 0.630821 0.922645 0.059718
O O14 0.879710 0.498247 0.291926
O O15 0.000000 0.417287 0.250000
#
# Coordination Sequence:
#
# PCOD9289417 Si02
#       7
#     8   8   8   8   8   8   4
#     4  11  21  38  63  87 115 159 214 250 298 372
#     4  11  22  39  58  87 116 169 203 244 298 363
#     4  11  24  38  55  82 133 166 196 245 301 355
#     4  11  22  38  57  90 126 161 200 250 294 360
#     4  11  22  37  66  90 118 157 208 247 311 366
#     4   9  20  37  65  85 113 151 198 258 307 355
#     4  10  22  40  64  94 116 150 204 268 310 364
#
# _framework density 17.748511000000001
#
# number of rings (size 3 to 8) (size 9 to 14) (size 15 to 20)
#    0.462    0.923    4.615    1.385    4.308    0.000 
#    1.385    0.000    3.385    2.769    0.000    0.000 
#    0.000    0.000    0.000    0.000    0.000    0.000 
#
# Total GULP energy -144942.273754 kJ/mol
# GULP energy per Si atom -5574.702837 kJ/mol
# Density = 1.770812 g / cm^3
# Si number density = 17.748511 Si / 1000 Ang^3
#
#
#
# Elastic Constant Matrix: (Units=GPa)
#
#
# Indices 1 2 3 4 5 6 
#
# 1 80.3192 38.5016 25.1122 0.0000 -2.1477 0.0000
# 2 38.5016 121.6218 42.3452 0.0000 2.4537 0.0000
# 3 25.1122 42.3452 77.3277 0.0000 18.7367 0.0000
# 4 0.0000 0.0000 0.0000 23.7656 0.0000 -2.9494
# 5 -2.1477 2.4537 18.7367 0.0000 20.1463 0.0000
# 6 0.0000 0.0000 0.0000 -2.9494 0.0000 16.5082
#
#
#
# Elastic Compliance Matrix: (Units=1/GPa)
#
#
# Indices 1 2 3 4 5 6 
#
# 1 0.015793 -0.003447 -0.004842 0.000000 0.006607 0.000000
# 2 -0.003447 0.011331 -0.006018 0.000000 0.003850 0.000000
# 3 -0.004842 -0.006018 0.022910 0.000000 -0.021091 0.000000
# 4 0.000000 0.000000 0.000000 0.043032 0.000000 0.007688
# 5 0.006607 0.003850 -0.021091 0.000000 0.069487 0.000000
# 6 0.000000 0.000000 0.000000 0.007688 0.000000 0.061949
#
#
# Mechanical properties :
#
#
# Convention : Reuss Voigt Hill
#
# Bulk Modulus (GPa) = 46.68565 54.57630 50.63098
# Shear Modulus (GPa) = 19.21167 23.63801 21.42484
#
# Velocity S-wave (km/s) = 3.29361 3.65338 3.47815
# Velocity P-wave (km/s) = 6.38944 6.97229 6.68722
#
# Compressibility (1/GPa) = 0.02141986
#
# Stress axis : x y z
#
# Youngs Moduli (GPa) = 63.31821 88.25177 43.64814
#
# Poissons Ratio (x) = 0.30421 0.21135
# Poissons Ratio (y) = 0.21826 0.26269
# Poissons Ratio (z) = 0.30659 0.53114
#
# Static dielectric constant tensor:
#      x y z
#    x 1.624490 0.000000 0.017330 
#    y 0.000000 1.589200 0.000000 
#    z 0.017330 0.000000 1.640010 
# 
# From -- ./inp_files/80734.got.cif
#   From: 2010.05.17/outbox.cif.g08.bks.cpg/sg15_41_cif.got.tgz:80734.got - 2010.06.03 18:47:42.
