data_PCOD9289940
_publ_section_title
;
Structure prediction by ZEFSAII (Michael W. Deem and Ramdas Pophale) SiO2 
 PCOD9289940
Probable space group: C 2/C
;
_chemical_formula_sum "Si O2"
_cell_formula_units_Z 64
_cell_length_a 29.295886
_cell_length_b 18.931227
_cell_length_c 8.546074
_cell_angle_alpha 90.000000
_cell_angle_beta 40.125248
_cell_angle_gamma 90.000000
_cell_volume 3054.558493
_symmetry_space_group_name_H-M "C 2/C"
_symmetry_group_IT_number 15
_symmetry_cell_setting 'monoclinic'
loop_
_space_group_symop_operation_xyz
x,y,z
-x,y,1/2-z
-x,-y,-z
x,-y,1/2+z
1/2+x,1/2+y,z
1/2-x,1/2+y,1/2-z
1/2-x,1/2-y,-z
1/2+x,1/2-y,1/2+z
loop_
_atom_site_type_symbol
_atom_site_label
_atom_site_fract_x
_atom_site_fract_y
_atom_site_fract_z
Si Si1 0.699615 0.794443 0.745463
Si Si2 0.948443 0.305585 0.535080
Si Si3 0.678541 0.595023 0.564704
Si Si4 0.225848 0.972699 0.239956
Si Si5 0.550060 0.042974 0.477710
Si Si6 0.329602 0.226175 0.830185
Si Si7 0.566193 0.310423 0.173700
Si Si8 0.823839 0.562978 0.759567
O O1 0.750000 0.750000 0.500000
O O2 0.630111 0.803601 0.827433
O O3 0.746870 0.863629 0.661832
O O4 0.670286 0.762939 0.983894
O O5 0.942068 0.382870 0.630460
O O6 0.963048 0.248474 0.629664
O O7 0.000000 0.295046 0.250000
O O8 0.678841 0.519187 0.479509
O O9 0.683075 0.580243 0.739323
O O10 0.615082 0.639258 0.654210
O O11 0.288285 0.937823 0.180468
O O12 0.263654 0.030175 0.029526
O O13 0.500000 0.065054 0.750000
O O14 0.500000 0.000000 0.500000
O O15 0.613247 0.994504 0.379260
O O16 0.382225 0.272479 0.587264
O O17 0.341940 0.142831 0.761332
O O18 0.250000 0.250000 0.000000
O O19 0.500000 0.342055 0.250000
#
# Coordination Sequence:
#
# PCOD9289940 Si02
#       8
#     8   8   8   8   8   8   8   8
#     4  12  23  43  69 100 139 179 234 288 343 414
#     4  11  25  44  65  97 140 190 231 278 343 411
#     4  11  23  46  67 105 134 176 235 291 358 418
#     4  10  22  40  70  95 131 170 225 296 349 414
#     4  11  26  38  57  90 141 190 234 268 325 416
#     4  12  25  41  69 103 138 180 235 293 349 410
#     4  12  27  46  70 101 143 181 235 293 353 425
#     4  11  23  38  64  97 135 180 231 285 347 397
#
# _framework density 20.952290000000001
#
# number of rings (size 3 to 8) (size 9 to 14) (size 15 to 20)
#    0.000    0.750    3.750    3.000   12.250    0.000 
#    0.000    0.625    0.000    0.000    0.000    0.000 
#    0.000    0.000    0.000    0.000    0.000    0.000 
#
# Total GULP energy -178491.320147 kJ/mol
# GULP energy per Si atom -5577.853755 kJ/mol
# Density = 2.090460 g / cm^3
# Si number density = 20.952290 Si / 1000 Ang^3
#
#
#
# Elastic Constant Matrix: (Units=GPa)
#
#
# Indices 1 2 3 4 5 6 
#
# 1 145.9669 39.6625 19.5965 0.0000 1.6965 0.0000
# 2 39.6625 69.8097 23.7470 0.0000 0.0962 0.0000
# 3 19.5965 23.7470 70.5266 0.0000 6.9574 0.0000
# 4 0.0000 0.0000 0.0000 935.2896 0.0000 -875.2092
# 5 1.6965 0.0962 6.9574 0.0000 42.2253 0.0000
# 6 0.0000 0.0000 0.0000 -875.2092 0.0000 893.1688
#
#
#
# Elastic Compliance Matrix: (Units=1/GPa)
#
#
# Indices 1 2 3 4 5 6 
#
# 1 0.008142 -0.004362 -0.000775 0.000000 -0.000190 0.000000
# 2 -0.004362 0.018547 -0.005129 0.000000 0.000978 0.000000
# 3 -0.000775 -0.005129 0.016384 0.000000 -0.002657 0.000000
# 4 0.000000 0.000000 0.000000 0.012874 0.000000 0.012615
# 5 -0.000190 0.000978 -0.002657 0.000000 0.024126 0.000000
# 6 0.000000 0.000000 0.000000 0.012615 0.000000 0.013481
#
#
# Mechanical properties :
#
#
# Convention : Reuss Voigt Hill
#
# Bulk Modulus (GPa) = 44.36622 50.25723 47.31173
# Shear Modulus (GPa) = 41.11905 387.68989 214.40447
#
# Velocity S-wave (km/s) = 4.43483 13.61750 10.12680
# Velocity P-wave (km/s) = 6.88799 16.47079 12.62401
#
# Compressibility (1/GPa) = 0.02253967
#
# Stress axis : x y z
#
# Youngs Moduli (GPa) = 122.81346 53.91851 61.03700
#
# Poissons Ratio (x) = 0.23521 0.04730
# Poissons Ratio (y) = 0.53574 0.31307
# Poissons Ratio (z) = 0.09517 0.27656
#
# Static dielectric constant tensor:
#      x y z
#    x 1.709220 0.000000 -0.001220 
#    y 0.000000 1.670680 0.000000 
#    z -0.001220 0.000000 1.759170 
# 
# From -- ./inp_files/70599.got.cif
#   From: 2010.05.17/outbox.cif.g08.bks.cpg/sg15_36_cif.got.tgz:70599.got - 2010.06.03 18:47:42.
