data_PCOD9289734
_publ_section_title
;
Structure prediction by ZEFSAII (Michael W. Deem and Ramdas Pophale) SiO2 
 PCOD9289734
Probable space group: C 2/C
;
_chemical_formula_sum "Si O2"
_cell_formula_units_Z 44
_cell_length_a 21.864266
_cell_length_b 10.597894
_cell_length_c 8.049434
_cell_angle_alpha 90.000000
_cell_angle_beta 64.772850
_cell_angle_gamma 90.000000
_cell_volume 1687.285194
_symmetry_space_group_name_H-M "C 2/C"
_symmetry_group_IT_number 15
_symmetry_cell_setting 'monoclinic'
loop_
_space_group_symop_operation_xyz
x,y,z
-x,y,1/2-z
-x,-y,-z
x,-y,1/2+z
1/2+x,1/2+y,z
1/2-x,1/2+y,1/2-z
1/2-x,1/2-y,-z
1/2+x,1/2-y,1/2+z
loop_
_atom_site_type_symbol
_atom_site_label
_atom_site_fract_x
_atom_site_fract_y
_atom_site_fract_z
Si Si1 0.000000 0.538894 0.750000
Si Si2 0.911942 0.371442 0.640124
Si Si3 0.579287 0.619437 0.965880
Si Si4 0.916839 0.151502 0.154313
Si Si5 0.779134 0.564334 0.099421
Si Si6 0.800285 0.687851 0.713433
O O1 0.060685 0.451360 0.740987
O O2 0.027219 0.619666 0.565949
O O3 0.896415 0.225680 0.689598
O O4 0.848486 0.426936 0.621159
O O5 0.497686 0.630891 0.047275
O O6 0.599824 0.654471 0.129798
O O7 0.606680 0.482220 0.893050
O O8 0.879918 0.271762 0.116831
O O9 0.768722 0.412191 0.119493
O O10 0.733095 0.672884 0.237642
O O11 0.786675 0.616638 0.904409
#
# Coordination Sequence:
#
# PCOD9289734 Si02
#       6
#     4   8   8   8   8   8
#     4  10  24  36  66 100 140 168 218 276 350 394
#     4  11  22  41  64 101 131 176 216 280 333 414
#     4  10  22  40  67  96 135 177 218 279 334 404
#     4  10  22  42  65  97 135 175 224 273 339 396
#     4  11  26  45  72  98 137 179 229 278 339 401
#     4  11  26  48  70 100 136 182 228 284 335 404
#
# _framework density 26.077392
#
# number of rings (size 3 to 8) (size 9 to 14) (size 15 to 20)
#    0.000    1.455    1.818    2.182    7.636    3.636 
#    3.273    0.000    0.000    0.000    0.000    0.000 
#    0.000    0.000    0.000    0.000    0.000    0.000 
#
# Total GULP energy -123040.371887 kJ/mol
# GULP energy per Si atom -5592.744177 kJ/mol
# Density = 2.601804 g / cm^3
# Si number density = 26.077392 Si / 1000 Ang^3
#
#
#
# Elastic Constant Matrix: (Units=GPa)
#
#
# Indices 1 2 3 4 5 6 
#
# 1 78.0117 33.0260 28.7676 0.0000 -3.1628 0.0000
# 2 33.0260 208.1383 56.3903 0.0000 1.6898 0.0000
# 3 28.7676 56.3903 51.1122 0.0000 3.0630 0.0000
# 4 0.0000 0.0000 0.0000 12.6736 0.0000 7.4940
# 5 -3.1628 1.6898 3.0630 0.0000 19.3227 0.0000
# 6 0.0000 0.0000 0.0000 7.4940 0.0000 45.4626
#
#
#
# Elastic Compliance Matrix: (Units=1/GPa)
#
#
# Indices 1 2 3 4 5 6 
#
# 1 0.016510 -0.000097 -0.009438 0.000000 0.004207 0.000000
# 2 -0.000097 0.006860 -0.007549 0.000000 0.000581 0.000000
# 3 -0.009438 -0.007549 0.033577 0.000000 -0.006207 0.000000
# 4 0.000000 0.000000 0.000000 0.087426 0.000000 -0.014411
# 5 0.004207 0.000581 -0.006207 0.000000 0.053374 0.000000
# 6 0.000000 0.000000 0.000000 -0.014411 0.000000 0.024372
#
#
# Mechanical properties :
#
#
# Convention : Reuss Voigt Hill
#
# Bulk Modulus (GPa) = 43.89707 63.73668 53.81687
# Shear Modulus (GPa) = 18.94790 30.09698 24.52244
#
# Velocity S-wave (km/s) = 2.69848 3.40095 3.06987
# Velocity P-wave (km/s) = 5.15548 6.31794 5.76608
#
# Compressibility (1/GPa) = 0.02278057
#
# Stress axis : x y z
#
# Youngs Moduli (GPa) = 60.56752 145.76354 29.78196
#
# Poissons Ratio (x) = 0.01414 0.28108
# Poissons Ratio (y) = 0.00587 0.22483
# Poissons Ratio (z) = 0.57162 1.10038
#
# Static dielectric constant tensor:
#      x y z
#    x 2.062730 0.000000 -0.070670 
#    y 0.000000 2.123020 0.000000 
#    z -0.070670 0.000000 2.104850 
# 
# From -- ./inp_files/54375.got.cif
#   From: 2010.05.17/outbox.cif.g08.bks.cpg/sg15_28_cif.got.tgz:54375.got - 2010.06.03 18:47:42.
