data_PCOD9289347
_publ_section_title
;
Structure prediction by ZEFSAII (Michael W. Deem and Ramdas Pophale) SiO2 
 PCOD9289347
Probable space group: C 2/C
;
_chemical_formula_sum "Si O2"
_cell_formula_units_Z 52
_cell_length_a 10.605026
_cell_length_b 8.830215
_cell_length_c 25.566324
_cell_angle_alpha 90.000000
_cell_angle_beta 73.670519
_cell_angle_gamma 90.000000
_cell_volume 2297.571507
_symmetry_space_group_name_H-M "C 2/C"
_symmetry_group_IT_number 15
_symmetry_cell_setting 'monoclinic'
loop_
_space_group_symop_operation_xyz
x,y,z
-x,y,1/2-z
-x,-y,-z
x,-y,1/2+z
1/2+x,1/2+y,z
1/2-x,1/2+y,1/2-z
1/2-x,1/2-y,-z
1/2+x,1/2-y,1/2+z
loop_
_atom_site_type_symbol
_atom_site_label
_atom_site_fract_x
_atom_site_fract_y
_atom_site_fract_z
Si Si1 0.000000 0.566556 0.250000
Si Si2 0.584015 0.642009 0.164844
Si Si3 0.365715 0.701962 0.825723
Si Si4 0.534648 0.837273 0.520019
Si Si5 0.326191 0.789859 0.245028
Si Si6 0.215860 0.140075 0.432990
Si Si7 0.234966 0.214968 0.939368
O O1 0.973517 0.668755 0.303834
O O2 0.877679 0.454882 0.256042
O O3 0.581817 0.460511 0.162703
O O4 0.443833 0.711539 0.197736
O O5 0.680209 0.692138 0.201360
O O6 0.642587 0.715283 0.105835
O O7 0.299219 0.690787 0.776379
O O8 0.256664 0.765974 0.877495
O O9 0.658880 0.841930 0.543317
O O10 0.583483 0.712972 0.472024
O O11 0.400181 0.791372 0.562921
O O12 0.500000 0.000000 0.500000
O O13 0.212527 0.960195 0.428246
O O14 0.250000 0.250000 0.000000
#
# Coordination Sequence:
#
# PCOD9289347 Si02
#       7
#     4   8   8   8   8   8   8
#     4  10  22  40  64 100 124 170 224 258 332 402
#     4  10  24  42  66 102 129 176 223 268 339 395
#     4  12  24  40  71  96 134 171 219 276 330 402
#     4  11  24  45  66  92 136 170 225 278 321 400
#     4  10  23  45  68  93 140 170 214 275 332 401
#     4  11  26  42  66 101 127 181 222 266 345 394
#     4  12  25  43  72  94 134 180 223 279 333 390
#
# _framework density 22.632593
#
# number of rings (size 3 to 8) (size 9 to 14) (size 15 to 20)
#    0.000    1.231    1.538    5.077    4.308    6.154 
#    0.000    0.000    0.000    0.000    0.000    0.000 
#    0.000    0.000    0.000    0.000    0.000    0.000 
#
# Total GULP energy -145396.706709 kJ/mol
# GULP energy per Si atom -5592.181027 kJ/mol
# Density = 2.258108 g / cm^3
# Si number density = 22.632593 Si / 1000 Ang^3
#
#
#
# Elastic Constant Matrix: (Units=GPa)
#
#
# Indices 1 2 3 4 5 6 
#
# 1 52.6392 -8.4149 -7.2481 0.0000 6.6590 0.0000
# 2 -8.4149 162.6128 27.8489 0.0000 -3.6657 0.0000
# 3 -7.2481 27.8489 98.0261 0.0000 -6.1871 0.0000
# 4 0.0000 0.0000 0.0000 33.3214 0.0000 -7.6436
# 5 6.6590 -3.6657 -6.1871 0.0000 24.9958 0.0000
# 6 0.0000 0.0000 0.0000 -7.6436 0.0000 21.0513
#
#
#
# Elastic Compliance Matrix: (Units=1/GPa)
#
#
# Indices 1 2 3 4 5 6 
#
# 1 0.019874 0.000755 0.000942 0.000000 -0.004950 0.000000
# 2 0.000755 0.006499 -0.001771 0.000000 0.000314 0.000000
# 3 0.000942 -0.001771 0.010912 0.000000 0.002190 0.000000
# 4 0.000000 0.000000 0.000000 0.032737 0.000000 0.011887
# 5 -0.004950 0.000314 0.002190 0.000000 0.041914 0.000000
# 6 0.000000 0.000000 0.000000 0.011887 0.000000 0.051819
#
#
# Mechanical properties :
#
#
# Convention : Reuss Voigt Hill
#
# Bulk Modulus (GPa) = 26.92536 37.51665 32.22100
# Shear Modulus (GPa) = 28.36377 35.94649 32.15513
#
# Velocity S-wave (km/s) = 3.54393 3.98962 3.77337
# Velocity P-wave (km/s) = 5.35430 6.15103 5.76644
#
# Compressibility (1/GPa) = 0.03713971
#
# Stress axis : x y z
#
# Youngs Moduli (GPa) = 50.31691 153.87019 91.63940
#
# Poissons Ratio (x) = -0.11624 -0.08636
# Poissons Ratio (y) = -0.03801 0.16226
# Poissons Ratio (z) = -0.04742 0.27246
#
# Static dielectric constant tensor:
#      x y z
#    x 1.863450 0.000000 0.023320 
#    y 0.000000 1.827780 0.000000 
#    z 0.023320 0.000000 1.830040 
# 
# From -- ./inp_files/291462.got.cif
#   From: 2010.05.17/outbox.cif.g08.bks.cpg/sg15_146_cif.got.tgz:291462.got - 2010.06.03 18:47:42.
