data_PCOD9289859
_publ_section_title
;
Structure prediction by ZEFSAII (Michael W. Deem and Ramdas Pophale) SiO2 
 PCOD9289859
Probable space group: C 2/C
;
_chemical_formula_sum "Si O2"
_cell_formula_units_Z 44
_cell_length_a 5.297556
_cell_length_b 19.081357
_cell_length_c 19.728074
_cell_angle_alpha 90.000000
_cell_angle_beta 63.537211
_cell_angle_gamma 90.000000
_cell_volume 1785.258863
_symmetry_space_group_name_H-M "C 2/C"
_symmetry_group_IT_number 15
_symmetry_cell_setting 'monoclinic'
loop_
_space_group_symop_operation_xyz
x,y,z
-x,y,1/2-z
-x,-y,-z
x,-y,1/2+z
1/2+x,1/2+y,z
1/2-x,1/2+y,1/2-z
1/2-x,1/2-y,-z
1/2+x,1/2-y,1/2+z
loop_
_atom_site_type_symbol
_atom_site_label
_atom_site_fract_x
_atom_site_fract_y
_atom_site_fract_z
Si Si1 0.779109 0.996266 0.330466
Si Si2 0.883164 0.958180 0.078281
Si Si3 0.500000 0.772481 0.250000
Si Si4 0.639103 0.817400 0.092351
Si Si5 0.474003 0.809877 0.967561
Si Si6 0.902816 0.642757 0.186138
O O1 0.786601 0.079958 0.319080
O O2 0.000000 0.964449 0.250000
O O3 0.447613 0.976169 0.366436
O O4 0.913391 0.979531 0.385861
O O5 0.886235 0.874194 0.070194
O O6 0.000000 0.000000 0.000000
O O7 0.478520 0.816762 0.183539
O O8 0.761210 0.718533 0.214079
O O9 0.733984 0.735924 0.074180
O O10 0.496245 0.842794 0.039534
O O11 0.408791 0.848089 0.904349
O O12 0.250000 0.750000 0.000000
O O13 0.000000 0.621221 0.250000
#
# Coordination Sequence:
#
# PCOD9289859 Si02
#       6
#     8   8   4   8   8   8
#     4  12  27  47  75 105 144 196 247 307 371 447
#     4  12  28  48  74 108 149 199 248 308 377 453
#     4  10  22  42  66  98 140 186 246 310 378 438
#     4  10  24  42  66 102 143 189 249 305 376 448
#     4  10  22  40  68  99 139 188 238 309 374 441
#     4  11  22  41  69 100 138 185 251 305 374 449
#
# _framework density 24.646287999999998
#
# number of rings (size 3 to 8) (size 9 to 14) (size 15 to 20)
#    0.000    1.091    0.909    4.364    7.636    0.000 
#    0.000    0.000    0.000    0.000    0.000    0.000 
#    0.000    0.000    0.000    0.000    0.000    0.000 
#
# Total GULP energy -122767.668713 kJ/mol
# GULP energy per Si atom -5580.348578 kJ/mol
# Density = 2.459019 g / cm^3
# Si number density = 24.646288 Si / 1000 Ang^3
#
#
#
# Elastic Constant Matrix: (Units=GPa)
#
#
# Indices 1 2 3 4 5 6 
#
# 1 92.7602 18.6792 42.9081 0.0000 16.2324 0.0000
# 2 18.6792 97.8721 38.9382 0.0000 11.1431 0.0000
# 3 42.9081 38.9382 183.8528 0.0000 39.6468 0.0000
# 4 0.0000 0.0000 0.0000 -34.0010 0.0000 -17.4561
# 5 16.2324 11.1431 39.6468 0.0000 63.2721 0.0000
# 6 0.0000 0.0000 0.0000 -17.4561 0.0000 41.3756
#
#
#
# Elastic Compliance Matrix: (Units=1/GPa)
#
#
# Indices 1 2 3 4 5 6 
#
# 1 0.012361 -0.001276 -0.002288 0.000000 -0.001512 0.000000
# 2 -0.001276 0.011307 -0.002009 0.000000 -0.000405 0.000000
# 3 -0.002288 -0.002009 0.007164 0.000000 -0.003548 0.000000
# 4 0.000000 0.000000 0.000000 -0.024175 0.000000 -0.010199
# 5 -0.001512 -0.000405 -0.003548 0.000000 0.018487 0.000000
# 6 0.000000 0.000000 0.000000 -0.010199 0.000000 0.019866
#
#
# Mechanical properties :
#
#
# Convention : Reuss Voigt Hill
#
# Bulk Modulus (GPa) = 50.80607 63.94847 57.37727
# Shear Modulus (GPa) = 79.72085 32.39332 56.05709
#
# Velocity S-wave (km/s) = 5.69352 3.62930 4.77431
# Velocity P-wave (km/s) = 7.99252 6.60040 7.32959
#
# Compressibility (1/GPa) = 0.01968269
#
# Stress axis : x y z
#
# Youngs Moduli (GPa) = 80.90162 88.44423 139.58953
#
# Poissons Ratio (x) = 0.11290 0.31942
# Poissons Ratio (y) = 0.10327 0.28050
# Poissons Ratio (z) = 0.18512 0.17772
#
# Static dielectric constant tensor:
#      x y z
#    x 2.018630 0.000000 -0.071560 
#    y 0.000000 1.983170 0.000000 
#    z -0.071560 0.000000 2.295080 
# 
# From -- ./inp_files/184806.got.cif
#   From: 2010.05.17/outbox.cif.g08.bks.cpg/sg15_93_cif.got.tgz:184806.got - 2010.06.03 18:47:42.
