data_PCOD9289294
_publ_section_title
;
Structure prediction by ZEFSAII (Michael W. Deem and Ramdas Pophale) SiO2 
 PCOD9289294
Probable space group: C 2/C
;
_chemical_formula_sum "Si O2"
_cell_formula_units_Z 48
_cell_length_a 11.985676
_cell_length_b 9.823610
_cell_length_c 14.567507
_cell_angle_alpha 90.000000
_cell_angle_beta 97.111575
_cell_angle_gamma 90.000000
_cell_volume 1702.020997
_symmetry_space_group_name_H-M "C 2/C"
_symmetry_group_IT_number 15
_symmetry_cell_setting 'monoclinic'
loop_
_space_group_symop_operation_xyz
x,y,z
-x,y,1/2-z
-x,-y,-z
x,-y,1/2+z
1/2+x,1/2+y,z
1/2-x,1/2+y,1/2-z
1/2-x,1/2-y,-z
1/2+x,1/2-y,1/2+z
loop_
_atom_site_type_symbol
_atom_site_label
_atom_site_fract_x
_atom_site_fract_y
_atom_site_fract_z
Si Si1 0.033976 0.886643 0.371133
Si Si2 0.341201 0.016499 0.136412
Si Si3 0.526547 0.334963 0.584689
Si Si4 0.778041 0.230875 0.122409
Si Si5 0.577255 0.094072 0.150687
Si Si6 0.764142 0.713447 0.836218
O O1 0.047594 0.869430 0.481416
O O2 0.159420 0.888662 0.339190
O O3 0.966648 0.750392 0.335026
O O4 0.963239 0.026129 0.353231
O O5 0.464418 0.022698 0.105581
O O6 0.374819 0.024712 0.250301
O O7 0.279478 0.156159 0.111105
O O8 0.264481 0.890929 0.101087
O O9 0.396676 0.302713 0.590670
O O10 0.607697 0.208933 0.617597
O O11 0.679464 0.124238 0.092847
O O12 0.779203 0.238503 0.233088
#
# Coordination Sequence:
#
# PCOD9289294 Si02
#       6
#     8   8   8   8   8   8
#     4  10  23  44  63  86 134 173 206 255 322 388
#     4   9  20  38  61  88 123 158 210 261 314 372
#     4  11  24  39  63  98 125 167 213 259 316 388
#     4  11  23  37  64  98 122 158 216 268 314 370
#     4   9  20  39  60  87 125 166 201 256 320 370
#     4  10  22  40  63  91 125 166 212 262 318 370
#
# _framework density 28.201765999999999
#
# number of rings (size 3 to 8) (size 9 to 14) (size 15 to 20)
#    0.000    2.000    0.000    3.000    9.333    0.667 
#   12.000    3.333    0.000    0.000    0.000    0.000 
#    0.000    0.000    0.000    0.000    0.000    0.000 
#
# Total GULP energy -134195.511657 kJ/mol
# GULP energy per Si atom -5591.479652 kJ/mol
# Density = 2.813758 g / cm^3
# Si number density = 28.201766 Si / 1000 Ang^3
#
#
#
# Elastic Constant Matrix: (Units=GPa)
#
#
# Indices 1 2 3 4 5 6 
#
# 1 179.3187 25.6190 47.9435 0.0000 -32.9882 0.0000
# 2 25.6190 56.8318 -6.3751 0.0000 -11.4622 0.0000
# 3 47.9435 -6.3751 141.2190 0.0000 -20.7584 0.0000
# 4 0.0000 0.0000 0.0000 15.6564 0.0000 -7.1510
# 5 -32.9882 -11.4622 -20.7584 0.0000 28.4683 0.0000
# 6 0.0000 0.0000 0.0000 -7.1510 0.0000 49.9273
#
#
#
# Elastic Compliance Matrix: (Units=1/GPa)
#
#
# Indices 1 2 3 4 5 6 
#
# 1 0.007574 -0.002269 -0.001700 0.000000 0.006623 0.000000
# 2 -0.002269 0.020484 0.002824 0.000000 0.007677 0.000000
# 3 -0.001700 0.002824 0.008583 0.000000 0.005426 0.000000
# 4 0.000000 0.000000 0.000000 0.068343 0.000000 0.009789
# 5 0.006623 0.007677 0.005426 0.000000 0.049848 0.000000
# 6 0.000000 0.000000 0.000000 0.009789 0.000000 0.021431
#
#
# Mechanical properties :
#
#
# Convention : Reuss Voigt Hill
#
# Bulk Modulus (GPa) = 29.11265 56.86049 42.98657
# Shear Modulus (GPa) = 26.31516 39.48919 32.90218
#
# Velocity S-wave (km/s) = 3.05799 3.74604 3.41936
# Velocity P-wave (km/s) = 4.77638 6.23828 5.55563
#
# Compressibility (1/GPa) = 0.03434933
#
# Stress axis : x y z
#
# Youngs Moduli (GPa) = 132.03399 48.81926 116.50401
#
# Poissons Ratio (x) = 0.11078 0.19808
# Poissons Ratio (y) = 0.29960 -0.32895
# Poissons Ratio (z) = 0.22448 -0.13784
#
# Static dielectric constant tensor:
#      x y z
#    x 2.251300 0.000000 -0.019650 
#    y 0.000000 2.268550 0.000000 
#    z -0.019650 0.000000 2.195070 
# 
# From -- ./inp_files/196010.got.cif
#   From: 2010.05.17/outbox.cif.g08.bks.cpg/sg15_99_cif.got.tgz:196010.got - 2010.06.03 18:47:42.
