data_PCOD9289152
_publ_section_title
;
Structure prediction by ZEFSAII (Michael W. Deem and Ramdas Pophale) SiO2 
 PCOD9289152
Probable space group: C 2/C
;
_chemical_formula_sum "Si O2"
_cell_formula_units_Z 56
_cell_length_a 23.714054
_cell_length_b 11.429796
_cell_length_c 20.807942
_cell_angle_alpha 90.000000
_cell_angle_beta 28.081919
_cell_angle_gamma 90.000000
_cell_volume 2654.902046
_symmetry_space_group_name_H-M "C 2/C"
_symmetry_group_IT_number 15
_symmetry_cell_setting 'monoclinic'
loop_
_space_group_symop_operation_xyz
x,y,z
-x,y,1/2-z
-x,-y,-z
x,-y,1/2+z
1/2+x,1/2+y,z
1/2-x,1/2+y,1/2-z
1/2-x,1/2-y,-z
1/2+x,1/2-y,1/2+z
loop_
_atom_site_type_symbol
_atom_site_label
_atom_site_fract_x
_atom_site_fract_y
_atom_site_fract_z
Si Si1 0.279937 0.757599 0.636807
Si Si2 0.342268 0.905723 0.159761
Si Si3 0.622229 0.435448 0.554363
Si Si4 0.159784 0.924664 0.656545
Si Si5 0.277768 0.659818 0.841771
Si Si6 0.399497 0.142949 0.143207
Si Si7 0.372456 0.710300 0.916423
O O1 0.165173 0.711576 0.791324
O O2 0.327411 0.641501 0.554023
O O3 0.241553 0.852692 0.623226
O O4 0.366087 0.804833 0.606336
O O5 0.240882 0.903506 0.207649
O O6 0.329489 0.020452 0.215600
O O7 0.464925 0.898927 0.997492
O O8 0.688061 0.397328 0.554159
O O9 0.481687 0.402704 0.695575
O O10 0.629714 0.576968 0.554130
O O11 0.173219 0.062326 0.659299
O O12 0.362060 0.768972 0.737276
O O13 0.153359 0.709008 0.995444
O O14 0.500000 0.728081 0.750000
O O15 0.250000 0.750000 0.000000
#
# Coordination Sequence:
#
# PCOD9289152 Si02
#       7
#     8   8   8   8   8   8   8
#     4  11  22  41  63  93 124 173 213 266 332 396
#     4  10  22  40  61  90 129 164 215 271 316 390
#     4  11  23  41  66  91 131 171 215 276 329 393
#     4  11  22  43  63  95 130 171 221 277 328 402
#     4  11  23  40  66  91 128 173 213 271 335 392
#     4  10  22  41  62  93 127 168 214 269 323 387
#     4  12  24  44  68  98 135 174 225 277 329 397
#
# _framework density 21.093056000000001
#
# number of rings (size 3 to 8) (size 9 to 14) (size 15 to 20)
#    0.000    1.143    4.286    2.143    4.000    0.000 
#    0.000    2.143    0.000    0.000    0.000    0.000 
#    0.000    0.000    0.000    0.000    0.000    0.000 
#
# Total GULP energy -155955.928857 kJ/mol
# GULP energy per Si atom -5569.854602 kJ/mol
# Density = 2.104505 g / cm^3
# Si number density = 21.093056 Si / 1000 Ang^3
#
#
#
# Elastic Constant Matrix: (Units=GPa)
#
#
# Indices 1 2 3 4 5 6 
#
# 1 58.7101 15.6342 -3.7538 0.0000 0.0601 0.0000
# 2 15.6342 71.2952 17.7636 0.0000 0.2080 0.0000
# 3 -3.7538 17.7636 57.1356 0.0000 -3.2254 0.0000
# 4 0.0000 0.0000 0.0000 29.9837 0.0000 12.8116
# 5 0.0601 0.2080 -3.2254 0.0000 17.1093 0.0000
# 6 0.0000 0.0000 0.0000 12.8116 0.0000 40.7981
#
#
#
# Elastic Compliance Matrix: (Units=1/GPa)
#
#
# Indices 1 2 3 4 5 6 
#
# 1 0.018464 -0.004726 0.002711 0.000000 0.000504 0.000000
# 2 -0.004726 0.016434 -0.005488 0.000000 -0.001218 0.000000
# 3 0.002711 -0.005488 0.019599 0.000000 0.003752 0.000000
# 4 0.000000 0.000000 0.000000 0.038520 0.000000 -0.012096
# 5 0.000504 -0.001218 0.003752 0.000000 0.059168 0.000000
# 6 0.000000 0.000000 0.000000 -0.012096 0.000000 0.028309
#
#
# Mechanical properties :
#
#
# Convention : Reuss Voigt Hill
#
# Bulk Modulus (GPa) = 25.32343 27.38100 26.35221
# Shear Modulus (GPa) = 23.96202 28.07802 26.02002
#
# Velocity S-wave (km/s) = 3.37414 3.65245 3.51605
# Velocity P-wave (km/s) = 5.21645 5.54945 5.38553
#
# Compressibility (1/GPa) = 0.03948912
#
# Stress axis : x y z
#
# Youngs Moduli (GPa) = 54.15912 60.85111 51.02428
#
# Poissons Ratio (x) = 0.28757 -0.13832
# Poissons Ratio (y) = 0.25595 0.28005
# Poissons Ratio (z) = -0.14681 0.33398
#
# Static dielectric constant tensor:
#      x y z
#    x 1.834490 0.000000 0.004700 
#    y 0.000000 1.788640 0.000000 
#    z 0.004700 0.000000 1.745890 
# 
# From -- ./inp_files/255436.got.cif
#   From: 2010.05.17/outbox.cif.g08.bks.cpg/sg15_128_cif.got.tgz:255436.got - 2010.06.03 18:47:42.
