data_PCOD9289599
_publ_section_title
;
Structure prediction by ZEFSAII (Michael W. Deem and Ramdas Pophale) SiO2 
 PCOD9289599
Probable space group: C 2/C
;
_chemical_formula_sum "Si O2"
_cell_formula_units_Z 52
_cell_length_a 24.491694
_cell_length_b 8.033807
_cell_length_c 17.269463
_cell_angle_alpha 90.000000
_cell_angle_beta 134.343380
_cell_angle_gamma 90.000000
_cell_volume 2430.102209
_symmetry_space_group_name_H-M "C 2/C"
_symmetry_group_IT_number 15
_symmetry_cell_setting 'monoclinic'
loop_
_space_group_symop_operation_xyz
x,y,z
-x,y,1/2-z
-x,-y,-z
x,-y,1/2+z
1/2+x,1/2+y,z
1/2-x,1/2+y,1/2-z
1/2-x,1/2-y,-z
1/2+x,1/2-y,1/2+z
loop_
_atom_site_type_symbol
_atom_site_label
_atom_site_fract_x
_atom_site_fract_y
_atom_site_fract_z
Si Si1 0.000000 0.885452 0.250000
Si Si2 0.251198 0.211680 0.876746
Si Si3 0.408220 0.390428 0.020443
Si Si4 0.168717 0.808969 0.139943
Si Si5 0.208620 0.626493 0.018760
Si Si6 0.114970 0.591535 0.317914
Si Si7 0.033378 0.623991 0.093188
O O1 0.932924 0.757299 0.208534
O O2 0.042871 0.979392 0.362276
O O3 0.335872 0.280404 0.975353
O O4 0.236758 0.182051 0.770603
O O5 0.193730 0.344454 0.857535
O O6 0.240977 0.034528 0.908404
O O7 0.370515 0.517959 0.923256
O O8 0.470443 0.262970 0.049293
O O9 0.190491 0.719885 0.081117
O O10 0.105685 0.709300 0.125329
O O11 0.250000 0.750000 0.000000
O O12 0.135627 0.541883 0.903719
O O13 0.061896 0.523776 0.196675
O O14 0.000000 0.500000 0.000000
#
# Coordination Sequence:
#
# PCOD9289599 Si02
#       7
#     4   8   8   8   8   8   8
#     4  10  22  40  66  88 128 184 212 262 334 388
#     4  11  23  44  71  92 133 176 220 275 337 395
#     4  11  22  42  68  92 132 171 224 265 332 396
#     4  11  25  42  65 101 131 172 221 277 334 395
#     4  12  25  40  66 102 132 164 223 280 329 386
#     4  10  23  42  67  93 130 177 221 267 329 394
#     4  10  23  43  67  93 131 178 219 265 330 402
#
# _framework density 21.398275999999999
#
# number of rings (size 3 to 8) (size 9 to 14) (size 15 to 20)
#    0.000    1.231    1.538    3.692    4.308    4.923 
#    2.769    0.000    0.000    0.000    0.000    0.000 
#    0.000    0.000    0.000    0.000    0.000    0.000 
#
# Total GULP energy -145120.835821 kJ/mol
# GULP energy per Si atom -5581.570608 kJ/mol
# Density = 2.134957 g / cm^3
# Si number density = 21.398276 Si / 1000 Ang^3
#
#
#
# Elastic Constant Matrix: (Units=GPa)
#
#
# Indices 1 2 3 4 5 6 
#
# 1 73.2311 -3.2910 26.2245 0.0000 0.8850 0.0000
# 2 -3.2910 48.6351 38.8873 0.0000 -7.3626 0.0000
# 3 26.2245 38.8873 168.2528 0.0000 -17.9798 0.0000
# 4 0.0000 0.0000 0.0000 137.4871 0.0000 4.8499
# 5 0.8850 -7.3626 -17.9798 0.0000 27.4985 0.0000
# 6 0.0000 0.0000 0.0000 4.8499 0.0000 28.2622
#
#
#
# Elastic Compliance Matrix: (Units=1/GPa)
#
#
# Indices 1 2 3 4 5 6 
#
# 1 0.015015 0.003401 -0.003312 0.000000 -0.001738 0.000000
# 2 0.003401 0.026251 -0.006298 0.000000 0.002801 0.000000
# 3 -0.003312 -0.006298 0.008328 0.000000 0.003866 0.000000
# 4 0.000000 0.000000 0.000000 0.007318 0.000000 -0.001256
# 5 -0.001738 0.002801 0.003866 0.000000 0.039699 0.000000
# 6 0.000000 0.000000 0.000000 -0.001256 0.000000 0.035598
#
#
# Mechanical properties :
#
#
# Convention : Reuss Voigt Hill
#
# Bulk Modulus (GPa) = 26.89835 45.97340 36.43587
# Shear Modulus (GPa) = 31.84288 53.86943 42.85616
#
# Velocity S-wave (km/s) = 3.86178 5.02288 4.48010
# Velocity P-wave (km/s) = 5.69931 7.42767 6.62014
#
# Compressibility (1/GPa) = 0.03717700
#
# Stress axis : x y z
#
# Youngs Moduli (GPa) = 66.59837 38.09334 120.07035
#
# Poissons Ratio (x) = -0.12956 0.39770
# Poissons Ratio (y) = -0.22652 0.75622
# Poissons Ratio (z) = 0.22059 0.23992
#
# Static dielectric constant tensor:
#      x y z
#    x 1.783400 0.000000 -0.069230 
#    y 0.000000 1.765600 0.000000 
#    z -0.069230 0.000000 1.828740 
# 
# From -- ./inp_files/221944.got.cif
#   From: 2010.05.17/outbox.cif.g08.bks.cpg/sg15_111_cif.got.tgz:221944.got - 2010.06.03 18:47:42.
