data_PCOD9289438
_publ_section_title
;
Structure prediction by ZEFSAII (Michael W. Deem and Ramdas Pophale) SiO2 
 PCOD9289438
Probable space group: C 2/C
;
_chemical_formula_sum "Si O2"
_cell_formula_units_Z 60
_cell_length_a 9.262378
_cell_length_b 10.899782
_cell_length_c 29.611051
_cell_angle_alpha 90.000000
_cell_angle_beta 98.151366
_cell_angle_gamma 90.000000
_cell_volume 2959.266768
_symmetry_space_group_name_H-M "C 2/C"
_symmetry_group_IT_number 15
_symmetry_cell_setting 'monoclinic'
loop_
_space_group_symop_operation_xyz
x,y,z
-x,y,1/2-z
-x,-y,-z
x,-y,1/2+z
1/2+x,1/2+y,z
1/2-x,1/2+y,1/2-z
1/2-x,1/2-y,-z
1/2+x,1/2-y,1/2+z
loop_
_atom_site_type_symbol
_atom_site_label
_atom_site_fract_x
_atom_site_fract_y
_atom_site_fract_z
Si Si1 0.130597 0.304122 0.392802
Si Si2 0.332397 0.396707 0.170466
Si Si3 0.500000 0.541421 0.250000
Si Si4 0.664841 0.073523 0.093367
Si Si5 0.579036 0.248828 0.439915
Si Si6 0.107516 0.811293 0.669252
Si Si7 0.416498 0.553658 0.886272
Si Si8 0.891261 0.343896 0.457681
O O1 0.217985 0.180068 0.407432
O O2 0.252289 0.402071 0.385248
O O3 0.025748 0.280796 0.345899
O O4 0.027016 0.334069 0.430102
O O5 0.379374 0.460175 0.218987
O O6 0.225285 0.486473 0.136361
O O7 0.253394 0.267805 0.173666
O O8 0.483800 0.387687 0.149239
O O9 0.421208 0.621504 0.284941
O O10 0.512995 0.147632 0.092179
O O11 0.653947 0.985964 0.049352
O O12 0.501822 0.382736 0.431865
O O13 0.748266 0.268013 0.435214
O O14 0.574263 0.201940 0.491034
O O15 0.090725 0.912245 0.628489
#
# Coordination Sequence:
#
# PCOD9289438 Si02
#       8
#     8   8   4   8   8   8   8   8
#     4  11  22  38  68  92 125 172 220 256 324 376
#     4  11  22  46  67  92 134 164 212 261 335 388
#     4  10  24  42  68 100 124 160 206 276 318 388
#     4  11  21  41  63  91 129 172 209 269 317 380
#     4  10  22  40  66  93 136 169 226 264 322 368
#     4  11  22  45  68  91 129 165 206 266 324 392
#     4  10  22  40  64  95 125 176 210 262 318 382
#     4  11  22  41  61  99 129 177 220 274 309 377
#
# _framework density 20.275293999999999
#
# number of rings (size 3 to 8) (size 9 to 14) (size 15 to 20)
#    0.000    1.333    5.333    0.400    0.000    7.467 
#    0.000    7.333    0.000    0.000    0.000    0.000 
#    0.000    0.000    0.000    0.000    0.000    0.000 
#
# Total GULP energy -167334.043740 kJ/mol
# GULP energy per Si atom -5577.801458 kJ/mol
# Density = 2.022915 g / cm^3
# Si number density = 20.275294 Si / 1000 Ang^3
#
#
#
# Elastic Constant Matrix: (Units=GPa)
#
#
# Indices 1 2 3 4 5 6 
#
# 1 135.0824 51.9446 34.2183 0.0000 -2.0357 0.0000
# 2 51.9446 63.8219 19.1622 0.0000 -3.1093 0.0000
# 3 34.2183 19.1622 63.5942 0.0000 12.2241 0.0000
# 4 0.0000 0.0000 0.0000 17.1229 0.0000 -2.8376
# 5 -2.0357 -3.1093 12.2241 0.0000 16.6172 0.0000
# 6 0.0000 0.0000 0.0000 -2.8376 0.0000 31.6165
#
#
#
# Elastic Compliance Matrix: (Units=1/GPa)
#
#
# Indices 1 2 3 4 5 6 
#
# 1 0.011659 -0.007983 -0.004490 0.000000 0.003238 0.000000
# 2 -0.007983 0.023710 -0.004092 0.000000 0.006469 0.000000
# 3 -0.004490 -0.004092 0.022859 0.000000 -0.018132 0.000000
# 4 0.000000 0.000000 0.000000 0.059283 0.000000 0.005321
# 5 0.003238 0.006469 -0.018132 0.000000 0.075124 0.000000
# 6 0.000000 0.000000 0.000000 0.005321 0.000000 0.032107
#
#
# Mechanical properties :
#
#
# Convention : Reuss Voigt Hill
#
# Bulk Modulus (GPa) = 39.84572 52.57209 46.20890
# Shear Modulus (GPa) = 18.78016 23.54956 21.16486
#
# Velocity S-wave (km/s) = 3.04675 3.41176 3.23441
# Velocity P-wave (km/s) = 5.66321 6.44248 6.06537
#
# Compressibility (1/GPa) = 0.02509680
#
# Stress axis : x y z
#
# Youngs Moduli (GPa) = 85.77032 42.17619 43.74638
#
# Poissons Ratio (x) = 0.33671 0.19643
# Poissons Ratio (y) = 0.68474 0.17901
# Poissons Ratio (z) = 0.38512 0.17259
#
# Static dielectric constant tensor:
#      x y z
#    x 1.741180 0.000000 0.024590 
#    y 0.000000 1.766430 0.000000 
#    z 0.024590 0.000000 1.731450 
# 
# From -- ./inp_files/307200.got.cif
#   From: 2010.05.17/outbox.cif.g08.bks.cpg/sg15_154_cif.got.tgz:307200.got - 2010.06.03 18:47:42.
