data_PCOD9289546
_publ_section_title
;
Structure prediction by ZEFSAII (Michael W. Deem and Ramdas Pophale) SiO2 
 PCOD9289546
Probable space group: C 2/C
;
_chemical_formula_sum "Si O2"
_cell_formula_units_Z 40
_cell_length_a 16.929162
_cell_length_b 8.691676
_cell_length_c 27.427707
_cell_angle_alpha 90.000000
_cell_angle_beta 153.714242
_cell_angle_gamma 90.000000
_cell_volume 1787.242609
_symmetry_space_group_name_H-M "C 2/C"
_symmetry_group_IT_number 15
_symmetry_cell_setting 'monoclinic'
loop_
_space_group_symop_operation_xyz
x,y,z
-x,y,1/2-z
-x,-y,-z
x,-y,1/2+z
1/2+x,1/2+y,z
1/2-x,1/2+y,1/2-z
1/2-x,1/2-y,-z
1/2+x,1/2-y,1/2+z
loop_
_atom_site_type_symbol
_atom_site_label
_atom_site_fract_x
_atom_site_fract_y
_atom_site_fract_z
Si Si1 0.941301 0.175182 0.462576
Si Si2 0.778918 0.439622 0.746571
Si Si3 0.454023 0.253414 0.822509
Si Si4 0.769307 0.670851 0.438252
Si Si5 0.161216 0.333026 0.996585
O O1 0.796995 0.167125 0.338937
O O2 0.858417 0.226343 0.467390
O O3 0.113906 0.279402 0.543835
O O4 0.000000 0.000000 0.500000
O O5 0.642159 0.412093 0.715563
O O6 0.812820 0.613662 0.747345
O O7 0.967515 0.383076 0.870380
O O8 0.576584 0.256051 0.842503
O O9 0.597398 0.224892 0.944866
O O10 0.746973 0.489179 0.433514
O O11 0.250000 0.250000 0.000000
#
# Coordination Sequence:
#
# PCOD9289546 Si02
#       5
#     8   8   8   8   8
#     4  11  24  42  70  98 138 176 226 280 335 402
#     4  10  22  40  65  96 137 170 226 271 338 396
#     4   9  19  37  67  93 129 173 215 274 332 392
#     4   9  21  41  64  91 133 174 219 272 337 395
#     4  11  25  42  69  97 135 180 224 277 342 398
#
# _framework density 22.380845000000001
#
# number of rings (size 3 to 8) (size 9 to 14) (size 15 to 20)
#    0.000    2.000    0.000    1.800   14.000    0.800 
#    0.000    3.000    8.800    0.000    0.000    0.000 
#    0.000    0.000    0.000    0.000    0.000    0.000 
#
# Total GULP energy -111700.856497 kJ/mol
# GULP energy per Si atom -5585.042825 kJ/mol
# Density = 2.232990 g / cm^3
# Si number density = 22.380845 Si / 1000 Ang^3
#
#
#
# Elastic Constant Matrix: (Units=GPa)
#
#
# Indices 1 2 3 4 5 6 
#
# 1 146.0683 40.9939 35.5967 0.0002 21.8057 0.0000
# 2 40.9939 102.8711 26.8753 0.0002 26.8737 0.0000
# 3 35.5967 26.8753 49.5279 0.0023 10.5517 -0.0005
# 4 0.0002 0.0002 0.0023 28.1585 -0.0004 1.3368
# 5 21.8057 26.8737 10.5517 -0.0004 41.8727 0.0000
# 6 0.0000 0.0000 -0.0005 1.3368 0.0000 31.5190
#
#
#
# Elastic Compliance Matrix: (Units=1/GPa)
#
#
# Indices 1 2 3 4 5 6 
#
# 1 0.008865 -0.001622 -0.004998 0.000000 -0.002316 0.000000
# 2 -0.001622 0.013284 -0.004656 0.000000 -0.006507 0.000000
# 3 -0.004998 -0.004656 0.026543 -0.000002 -0.001098 0.000000
# 4 0.000000 0.000000 -0.000002 0.035585 0.000001 -0.001509
# 5 -0.002316 -0.006507 -0.001098 0.000001 0.029541 0.000000
# 6 0.000000 0.000000 0.000000 -0.001509 0.000000 0.031791
#
#
# Mechanical properties :
#
#
# Convention : Reuss Voigt Hill
#
# Bulk Modulus (GPa) = 38.25537 56.15543 47.20540
# Shear Modulus (GPa) = 28.26874 33.31014 30.78944
#
# Velocity S-wave (km/s) = 3.55784 3.86208 3.71307
# Velocity P-wave (km/s) = 5.83160 6.71065 6.28651
#
# Compressibility (1/GPa) = 0.02614012
#
# Stress axis : x y z
#
# Youngs Moduli (GPa) = 112.80241 75.28078 37.67450
#
# Poissons Ratio (x) = 0.12210 0.18830
# Poissons Ratio (y) = 0.18295 0.17541
# Poissons Ratio (z) = 0.56378 0.35051
#
# Static dielectric constant tensor:
#      x y z
#    x 1.882960 0.000000 -0.016700 
#    y 0.000000 1.919020 0.000000 
#    z -0.016700 0.000000 1.836410 
# 
# From -- ./inp_files/313251.got.cif
#   From: 2010.05.17/outbox.cif.g08.bks.cpg/sg15_157_cif.got.tgz:313251.got - 2010.06.03 18:47:42.
