data_PCOD9289266
_publ_section_title
;
Structure prediction by ZEFSAII (Michael W. Deem and Ramdas Pophale) SiO2 
 PCOD9289266
Probable space group: C 2/C
;
_chemical_formula_sum "Si O2"
_cell_formula_units_Z 40
_cell_length_a 19.537770
_cell_length_b 18.021413
_cell_length_c 5.412738
_cell_angle_alpha 90.000000
_cell_angle_beta 100.399601
_cell_angle_gamma 90.000000
_cell_volume 1874.508079
_symmetry_space_group_name_H-M "C 2/C"
_symmetry_group_IT_number 15
_symmetry_cell_setting 'monoclinic'
loop_
_space_group_symop_operation_xyz
x,y,z
-x,y,1/2-z
-x,-y,-z
x,-y,1/2+z
1/2+x,1/2+y,z
1/2-x,1/2+y,1/2-z
1/2-x,1/2-y,-z
1/2+x,1/2-y,1/2+z
loop_
_atom_site_type_symbol
_atom_site_label
_atom_site_fract_x
_atom_site_fract_y
_atom_site_fract_z
Si Si1 0.500000 0.282253 0.750000
Si Si2 0.922019 0.473681 0.523931
Si Si3 0.593455 0.807447 0.957052
Si Si4 0.500000 0.451402 0.250000
Si Si5 0.758445 0.297194 0.252956
Si Si6 0.387992 0.339253 0.341262
O O1 0.470494 0.228462 0.939464
O O2 0.434722 0.331469 0.618178
O O3 0.889058 0.520724 0.727006
O O4 0.922659 0.390556 0.630662
O O5 0.000000 0.500000 0.500000
O O6 0.660987 0.818431 0.175210
O O7 0.609835 0.744516 0.766274
O O8 0.500000 0.500000 0.500000
O O9 0.432443 0.397306 0.210434
O O10 0.750000 0.250000 0.500000
O O11 0.694200 0.355387 0.198563
O O12 0.750000 0.250000 0.000000
#
# Coordination Sequence:
#
# PCOD9289266 Si02
#       6
#     4   8   8   4   8   8
#     4  12  19  34  70  95 128 158 224 266 327 370
#     4  10  23  37  54  87 133 164 203 250 306 370
#     4  11  23  38  67  95 130 173 216 269 327 390
#     4  12  27  44  66  97 134 170 222 286 343 396
#     4  10  22  40  62  97 131 163 213 276 326 388
#     4  11  24  41  66  98 128 169 225 277 334 393
#
# _framework density 21.338930999999999
#
# number of rings (size 3 to 8) (size 9 to 14) (size 15 to 20)
#    0.000    1.200    4.000    1.800    8.400    0.000 
#    0.000    2.000    0.000    0.000    0.000    0.000 
#    0.000    0.000    0.000    0.000    0.000    0.000 
#
# Total GULP energy -111418.686086 kJ/mol
# GULP energy per Si atom -5570.934304 kJ/mol
# Density = 2.129036 g / cm^3
# Si number density = 21.338931 Si / 1000 Ang^3
#
#
#
# Elastic Constant Matrix: (Units=GPa)
#
#
# Indices 1 2 3 4 5 6 
#
# 1 107.0882 11.5850 18.1996 0.0000 35.5721 0.0000
# 2 11.5850 101.9877 30.9871 0.0000 -0.2795 0.0000
# 3 18.1996 30.9871 116.5878 0.0000 -1.5106 0.0000
# 4 0.0000 0.0000 0.0000 33.5621 0.0000 -5.1817
# 5 35.5721 -0.2795 -1.5106 0.0000 45.4798 0.0000
# 6 0.0000 0.0000 0.0000 -5.1817 0.0000 14.6742
#
#
#
# Elastic Compliance Matrix: (Units=1/GPa)
#
#
# Indices 1 2 3 4 5 6 
#
# 1 0.013233 -0.000939 -0.001951 0.000000 -0.010421 0.000000
# 2 -0.000939 0.010733 -0.002697 0.000000 0.000711 0.000000
# 3 -0.001951 -0.002697 0.009622 0.000000 0.001829 0.000000
# 4 0.000000 0.000000 0.000000 0.031514 0.000000 0.011128
# 5 -0.010421 0.000711 0.001829 0.000000 0.030203 0.000000
# 6 0.000000 0.000000 0.000000 0.011128 0.000000 0.072076
#
#
# Mechanical properties :
#
#
# Convention : Reuss Voigt Hill
#
# Bulk Modulus (GPa) = 44.61441 49.68966 47.15203
# Shear Modulus (GPa) = 26.87785 36.40267 31.64026
#
# Velocity S-wave (km/s) = 3.55289 4.13477 3.85482
# Velocity P-wave (km/s) = 6.14684 6.79202 6.47747
#
# Compressibility (1/GPa) = 0.02241428
#
# Stress axis : x y z
#
# Youngs Moduli (GPa) = 75.57032 93.16965 103.92529
#
# Poissons Ratio (x) = 0.08747 0.20277
# Poissons Ratio (y) = 0.07095 0.28028
# Poissons Ratio (z) = 0.14745 0.25127
#
# Static dielectric constant tensor:
#      x y z
#    x 1.849160 0.000000 0.059630 
#    y 0.000000 1.804330 0.000000 
#    z 0.059630 0.000000 1.840900 
# 
# From -- ./inp_files/9830.got.cif
#   From: 2010.05.17/outbox.cif.g08.bks.cpg/sg15_5_cif.got.tgz:9830.got - 2010.06.03 18:47:42.
