data_PCOD9289464
_publ_section_title
;
Structure prediction by ZEFSAII (Michael W. Deem and Ramdas Pophale) SiO2 
 PCOD9289464
Probable space group: C 2/C
;
_chemical_formula_sum "Si O2"
_cell_formula_units_Z 60
_cell_length_a 26.078279
_cell_length_b 8.649943
_cell_length_c 14.109313
_cell_angle_alpha 90.000000
_cell_angle_beta 64.744312
_cell_angle_gamma 90.000000
_cell_volume 2878.490086
_symmetry_space_group_name_H-M "C 2/C"
_symmetry_group_IT_number 15
_symmetry_cell_setting 'monoclinic'
loop_
_space_group_symop_operation_xyz
x,y,z
-x,y,1/2-z
-x,-y,-z
x,-y,1/2+z
1/2+x,1/2+y,z
1/2-x,1/2+y,1/2-z
1/2-x,1/2-y,-z
1/2+x,1/2-y,1/2+z
loop_
_atom_site_type_symbol
_atom_site_label
_atom_site_fract_x
_atom_site_fract_y
_atom_site_fract_z
Si Si1 0.414104 0.838812 0.572861
Si Si2 0.478520 0.332211 0.482018
Si Si3 0.867064 0.321916 0.128220
Si Si4 0.297672 0.343403 0.835538
Si Si5 0.180303 0.668852 0.499579
Si Si6 0.880496 0.882965 0.272162
Si Si7 0.000000 0.899567 0.250000
Si Si8 0.811405 0.324374 0.968959
O O1 0.479846 0.798734 0.509391
O O2 0.379375 0.811818 0.504091
O O3 0.394965 0.719479 0.669317
O O4 0.397528 0.012661 0.613529
O O5 0.500000 0.500000 0.500000
O O6 0.416123 0.303167 0.570582
O O7 0.482032 0.319040 0.364167
O O8 0.828504 0.282260 0.247385
O O9 0.828173 0.317050 0.065775
O O10 0.229929 0.340385 0.881358
O O11 0.329520 0.501735 0.788430
O O12 0.308718 0.307413 0.937279
O O13 0.185880 0.507942 0.552386
O O14 0.938466 0.967004 0.264291
O O15 0.856963 0.768353 0.371313
O O16 0.750000 0.250000 0.000000
#
# Coordination Sequence:
#
# PCOD9289464 Si02
#       8
#     8   8   8   8   8   8   4   8
#     4  10  24  40  66  93 132 167 216 264 328 387
#     4  11  23  43  67  98 129 171 220 267 326 395
#     4  11  23  43  65  94 133 168 213 270 326 391
#     4  11  24  41  63  95 130 170 218 268 325 383
#     4  10  24  43  61  95 133 167 217 274 322 385
#     4  11  22  41  67  94 129 171 218 265 324 392
#     4  10  22  40  64  98 128 164 214 264 318 386
#     4  11  22  41  65  95 124 173 216 260 327 386
#
# _framework density 20.844260999999999
#
# number of rings (size 3 to 8) (size 9 to 14) (size 15 to 20)
#    0.000    1.333    2.667    2.800    3.733    1.067 
#    0.000    0.000    0.000    0.000    0.000    0.000 
#    0.000    0.000    0.000    0.000    0.000    0.000 
#
# Total GULP energy -167408.659757 kJ/mol
# GULP energy per Si atom -5580.288659 kJ/mol
# Density = 2.079682 g / cm^3
# Si number density = 20.844261 Si / 1000 Ang^3
#
#
#
# Elastic Constant Matrix: (Units=GPa)
#
#
# Indices 1 2 3 4 5 6 
#
# 1 75.8239 20.4536 10.6489 0.0000 -1.4854 0.0000
# 2 20.4536 63.2636 8.1634 0.0000 7.1108 0.0000
# 3 10.6489 8.1634 63.7587 0.0000 -10.1940 0.0000
# 4 0.0000 0.0000 0.0000 31.6499 0.0000 -8.8000
# 5 -1.4854 7.1108 -10.1940 0.0000 28.1313 0.0000
# 6 0.0000 0.0000 0.0000 -8.8000 0.0000 28.3668
#
#
#
# Elastic Compliance Matrix: (Units=1/GPa)
#
#
# Indices 1 2 3 4 5 6 
#
# 1 0.014713 -0.004700 -0.001636 0.000000 0.001372 0.000000
# 2 -0.004700 0.018295 -0.002480 0.000000 -0.005771 0.000000
# 3 -0.001636 -0.002480 0.017368 0.000000 0.006834 0.000000
# 4 0.000000 0.000000 0.000000 0.034578 0.000000 0.010727
# 5 0.001372 -0.005771 0.006834 0.000000 0.039555 0.000000
# 6 0.000000 0.000000 0.000000 0.010727 0.000000 0.038580
#
#
# Mechanical properties :
#
#
# Convention : Reuss Voigt Hill
#
# Bulk Modulus (GPa) = 30.54083 31.26421 30.90252
# Shear Modulus (GPa) = 26.09110 28.53497 27.31304
#
# Velocity S-wave (km/s) = 3.54180 3.70396 3.62379
# Velocity P-wave (km/s) = 5.60442 5.77269 5.68918
#
# Compressibility (1/GPa) = 0.03274305
#
# Stress axis : x y z
#
# Youngs Moduli (GPa) = 67.96745 54.65935 57.57846
#
# Poissons Ratio (x) = 0.25689 0.09421
# Poissons Ratio (y) = 0.31944 0.14281
# Poissons Ratio (z) = 0.11121 0.13557
#
# Static dielectric constant tensor:
#      x y z
#    x 1.761300 0.000000 -0.015330 
#    y 0.000000 1.762080 0.000000 
#    z -0.015330 0.000000 1.730090 
# 
# From -- ./inp_files/172334.got.cif
#   From: 2010.05.17/outbox.cif.g08.bks.cpg/sg15_87_cif.got.tgz:172334.got - 2010.06.03 18:47:42.
