data_PCOD9289770
_publ_section_title
;
Structure prediction by ZEFSAII (Michael W. Deem and Ramdas Pophale) SiO2 
 PCOD9289770
Probable space group: C 2/C
;
_chemical_formula_sum "Si O2"
_cell_formula_units_Z 56
_cell_length_a 27.746397
_cell_length_b 4.982876
_cell_length_c 16.623619
_cell_angle_alpha 90.000000
_cell_angle_beta 74.489854
_cell_angle_gamma 90.000000
_cell_volume 2214.631300
_symmetry_space_group_name_H-M "C 2/C"
_symmetry_group_IT_number 15
_symmetry_cell_setting 'monoclinic'
loop_
_space_group_symop_operation_xyz
x,y,z
-x,y,1/2-z
-x,-y,-z
x,-y,1/2+z
1/2+x,1/2+y,z
1/2-x,1/2+y,1/2-z
1/2-x,1/2-y,-z
1/2+x,1/2-y,1/2+z
loop_
_atom_site_type_symbol
_atom_site_label
_atom_site_fract_x
_atom_site_fract_y
_atom_site_fract_z
Si Si1 0.000000 0.500000 0.000000
Si Si2 0.558578 0.860764 0.591889
Si Si3 0.200775 0.595034 0.756717
Si Si4 0.965490 0.958525 0.618507
Si Si5 0.500000 0.869559 0.250000
Si Si6 0.144520 0.893443 0.354442
Si Si7 0.667665 0.618585 0.513127
Si Si8 0.737182 0.306139 0.121336
O O1 0.953520 0.613549 0.959498
O O2 0.038645 0.697992 0.935185
O O3 0.508645 0.686845 0.583992
O O4 0.541793 0.948851 0.687874
O O5 0.613180 0.744065 0.556834
O O6 0.169085 0.855026 0.796323
O O7 0.246013 0.564676 0.801767
O O8 0.219898 0.492814 0.660219
O O9 0.163977 0.362887 0.800969
O O10 0.914087 0.104642 0.630998
O O11 0.973903 0.830988 0.700649
O O12 0.158652 0.913596 0.443088
O O13 0.693908 0.556439 0.587391
O O14 0.711877 0.800739 0.453962
#
# Coordination Sequence:
#
# PCOD9289770 Si02
#       8
#     4   8   8   8   4   8   8   8
#     4  10  22  40  68 100 142 188 232 302 358 448
#     4  11  23  42  70  99 147 188 242 298 370 438
#     4  11  25  46  75 106 145 193 244 300 374 435
#     4  11  24  42  68 105 143 190 238 304 363 457
#     4  10  26  42  66  98 146 186 244 296 366 440
#     4  11  26  44  77 110 144 193 241 299 376 443
#     4  10  23  43  70 107 138 191 243 309 363 431
#     4  10  23  46  73 102 146 187 249 306 363 437
#
# _framework density 25.286377999999999
#
# number of rings (size 3 to 8) (size 9 to 14) (size 15 to 20)
#    0.000    1.429    1.429    2.571    6.000    1.714 
#    2.571    4.286    0.000    0.000    0.000    0.000 
#    0.000    0.000    0.000    0.000    0.000    0.000 
#
# Total GULP energy -155970.779453 kJ/mol
# GULP energy per Si atom -5570.384980 kJ/mol
# Density = 2.522883 g / cm^3
# Si number density = 25.286378 Si / 1000 Ang^3
#
#
#
# Elastic Constant Matrix: (Units=GPa)
#
#
# Indices 1 2 3 4 5 6 
#
# 1 161.0053 26.0794 56.3201 0.0000 -29.7428 0.0000
# 2 26.0794 80.6048 30.7936 0.0000 -23.1788 0.0000
# 3 56.3201 30.7936 131.6662 0.0000 -7.2351 0.0000
# 4 0.0000 0.0000 0.0000 24.6882 0.0000 0.0162
# 5 -29.7428 -23.1788 -7.2351 0.0000 39.7935 0.0000
# 6 0.0000 0.0000 0.0000 0.0162 0.0000 7.7836
#
#
#
# Elastic Compliance Matrix: (Units=1/GPa)
#
#
# Indices 1 2 3 4 5 6 
#
# 1 0.008414 0.000222 -0.003332 0.000000 0.005813 0.000000
# 2 0.000222 0.016218 -0.003394 0.000000 0.008995 0.000000
# 3 -0.003332 -0.003394 0.009665 0.000000 -0.002710 0.000000
# 4 0.000000 0.000000 0.000000 0.040505 0.000000 -0.000085
# 5 0.005813 0.008995 -0.002710 0.000000 0.034221 0.000000
# 6 0.000000 0.000000 0.000000 -0.000085 0.000000 0.128475
#
#
# Mechanical properties :
#
#
# Convention : Reuss Voigt Hill
#
# Bulk Modulus (GPa) = 46.97049 66.62916 56.79983
# Shear Modulus (GPa) = 19.40982 31.79192 25.60087
#
# Velocity S-wave (km/s) = 2.77357 3.54965 3.18533
# Velocity P-wave (km/s) = 5.37332 6.57321 6.00332
#
# Compressibility (1/GPa) = 0.02128996
#
# Stress axis : x y z
#
# Youngs Moduli (GPa) = 118.84644 61.66174 103.46777
#
# Poissons Ratio (x) = -0.01368 0.34472
# Poissons Ratio (y) = -0.02637 0.35112
# Poissons Ratio (z) = 0.39596 0.20925
#
# Static dielectric constant tensor:
#      x y z
#    x 2.005470 0.000000 -0.025140 
#    y 0.000000 1.937050 0.000000 
#    z -0.025140 0.000000 2.035030 
# 
# From -- ./inp_files/221234.got.cif
#   From: 2010.05.17/outbox.cif.g08.bks.cpg/sg15_111_cif.got.tgz:221234.got - 2010.06.03 18:47:42.
