data_PCOD9289306
_publ_section_title
;
Structure prediction by ZEFSAII (Michael W. Deem and Ramdas Pophale) SiO2 
 PCOD9289306
Probable space group: C 2/C
;
_chemical_formula_sum "Si O2"
_cell_formula_units_Z 52
_cell_length_a 25.438871
_cell_length_b 21.314605
_cell_length_c 13.743892
_cell_angle_alpha 90.000000
_cell_angle_beta 20.140788
_cell_angle_gamma 90.000000
_cell_volume 2566.004214
_symmetry_space_group_name_H-M "C 2/C"
_symmetry_group_IT_number 15
_symmetry_cell_setting 'monoclinic'
loop_
_space_group_symop_operation_xyz
x,y,z
-x,y,1/2-z
-x,-y,-z
x,-y,1/2+z
1/2+x,1/2+y,z
1/2-x,1/2+y,1/2-z
1/2-x,1/2-y,-z
1/2+x,1/2-y,1/2+z
loop_
_atom_site_type_symbol
_atom_site_label
_atom_site_fract_x
_atom_site_fract_y
_atom_site_fract_z
Si Si1 0.658024 0.610909 0.027123
Si Si2 0.182713 0.757858 0.420583
Si Si3 0.560128 0.966897 0.491169
Si Si4 0.815440 0.340490 0.428042
Si Si5 0.000000 0.569955 0.750000
Si Si6 0.581191 0.164691 0.300264
Si Si7 0.859445 0.210825 0.930004
O O1 0.500000 0.598748 0.250000
O O2 0.728155 0.670058 0.847351
O O3 0.768980 0.553915 0.824598
O O4 0.673572 0.633089 0.111955
O O5 0.237810 0.719657 0.418640
O O6 0.239276 0.731639 0.221334
O O7 0.000000 0.755807 0.750000
O O8 0.460932 0.902270 0.677651
O O9 0.500000 0.000000 0.500000
O O10 0.568435 0.021015 0.555561
O O11 0.881980 0.386908 0.395314
O O12 0.956704 0.331588 0.105826
O O13 0.578996 0.227402 0.235872
O O14 0.754957 0.167527 0.041573
O O15 0.000000 0.184008 0.750000
#
# Coordination Sequence:
#
# PCOD9289306 Si02
#       7
#     8   8   8   8   4   8   8
#     4  10  23  40  61  97 129 166 218 282 338 380
#     4  11  21  38  67  94 135 171 220 274 329 398
#     4  11  23  43  69  89 127 180 227 265 324 405
#     4  11  20  43  67  94 125 180 231 268 324 401
#     4  12  22  38  74  94 120 176 240 266 302 408
#     4  10  22  40  63  92 133 172 222 262 334 401
#     4  11  22  38  61  98 137 169 212 282 338 393
#
# _framework density 20.264970999999999
#
# number of rings (size 3 to 8) (size 9 to 14) (size 15 to 20)
#    0.000    1.231    5.385    2.308    3.231    0.000 
#    2.769    1.538    0.000    0.000    0.000    0.000 
#    0.000    0.000    0.000    0.000    0.000    0.000 
#
# Total GULP energy -144935.672352 kJ/mol
# GULP energy per Si atom -5574.448937 kJ/mol
# Density = 2.021885 g / cm^3
# Si number density = 20.264971 Si / 1000 Ang^3
#
#
#
# Elastic Constant Matrix: (Units=GPa)
#
#
# Indices 1 2 3 4 5 6 
#
# 1 115.6900 22.2380 45.6504 -0.0007 -30.4939 0.0007
# 2 22.2380 68.0800 36.4507 0.0006 -11.3997 0.0005
# 3 45.6504 36.4507 69.4687 0.0005 -16.6349 0.0016
# 4 -0.0007 0.0006 0.0005 15.1985 0.0008 -0.1313
# 5 -30.4939 -11.3997 -16.6349 0.0008 53.9878 -0.0005
# 6 0.0007 0.0005 0.0016 -0.1313 -0.0005 45.6192
#
#
#
# Elastic Compliance Matrix: (Units=1/GPa)
#
#
# Indices 1 2 3 4 5 6 
#
# 1 0.012840 0.000726 -0.007606 0.000001 0.005062 0.000000
# 2 0.000726 0.020528 -0.010918 0.000000 0.001381 0.000000
# 3 -0.007606 -0.010918 0.025417 -0.000001 0.001230 -0.000001
# 4 0.000001 0.000000 -0.000001 0.065797 -0.000001 0.000189
# 5 0.005062 0.001381 0.001230 -0.000001 0.022052 0.000000
# 6 0.000000 0.000000 -0.000001 0.000189 0.000000 0.021921
#
#
# Mechanical properties :
#
#
# Convention : Reuss Voigt Hill
#
# Bulk Modulus (GPa) = 43.12513 51.32410 47.22461
# Shear Modulus (GPa) = 23.59813 32.88774 28.24294
#
# Velocity S-wave (km/s) = 3.41615 4.03288 3.73726
# Velocity P-wave (km/s) = 6.07346 6.86054 6.47896
#
# Compressibility (1/GPa) = 0.02318834
#
# Stress axis : x y z
#
# Youngs Moduli (GPa) = 77.88219 48.71364 39.34441
#
# Poissons Ratio (x) = -0.03537 0.29927
# Poissons Ratio (y) = -0.05655 0.42955
# Poissons Ratio (z) = 0.59240 0.53185
#
# Static dielectric constant tensor:
#      x y z
#    x 1.242020 -0.000010 -0.126270 
#    y -0.000010 1.721130 0.000000 
#    z -0.126270 0.000000 1.730860 
# 
# From -- ./inp_files/178991.got.cif
#   From: 2010.05.17/outbox.cif.g08.bks.cpg/sg15_90_cif.got.tgz:178991.got - 2010.06.03 18:47:42.
