data_PCOD9289741
_publ_section_title
;
Structure prediction by ZEFSAII (Michael W. Deem and Ramdas Pophale) SiO2 
 PCOD9289741
Probable space group: C 2/C
;
_chemical_formula_sum "Si O2"
_cell_formula_units_Z 40
_cell_length_a 9.264910
_cell_length_b 16.267730
_cell_length_c 12.127781
_cell_angle_alpha 90.000000
_cell_angle_beta 85.960102
_cell_angle_gamma 90.000000
_cell_volume 1823.345809
_symmetry_space_group_name_H-M "C 2/C"
_symmetry_group_IT_number 15
_symmetry_cell_setting 'monoclinic'
loop_
_space_group_symop_operation_xyz
x,y,z
-x,y,1/2-z
-x,-y,-z
x,-y,1/2+z
1/2+x,1/2+y,z
1/2-x,1/2+y,1/2-z
1/2-x,1/2-y,-z
1/2+x,1/2-y,1/2+z
loop_
_atom_site_type_symbol
_atom_site_label
_atom_site_fract_x
_atom_site_fract_y
_atom_site_fract_z
Si Si1 0.400463 0.077735 0.977221
Si Si2 0.000000 0.870706 0.750000
Si Si3 0.160210 0.666529 0.018708
Si Si4 0.000000 0.291549 0.750000
Si Si5 0.756162 0.293567 0.616320
Si Si6 0.354223 0.475696 0.571318
O O1 0.267661 0.047164 0.908222
O O2 0.522325 0.147905 0.946905
O O3 0.319014 0.115188 0.087710
O O4 0.500000 0.000000 0.000000
O O5 0.102993 0.811183 0.675693
O O6 0.096791 0.929385 0.821273
O O7 0.272675 0.592749 0.002713
O O8 0.092407 0.664640 0.147105
O O9 0.250000 0.750000 0.000000
O O10 0.127660 0.248330 0.812045
O O11 0.750000 0.250000 0.500000
O O12 0.500000 0.500000 0.500000
#
# Coordination Sequence:
#
# PCOD9289741 Si02
#       6
#     8   4   8   4   8   8
#     4   9  21  41  66  93 135 179 230 293 353 422
#     4  12  24  42  73  99 150 192 230 298 388 408
#     4  10  22  41  70  97 137 184 236 298 354 425
#     4  10  22  40  67  97 138 188 230 278 386 414
#     4  11  24  42  72 103 138 188 247 297 359 439
#     4  11  22  41  67  98 136 183 235 288 362 437
#
# _framework density 21.937692999999999
#
# number of rings (size 3 to 8) (size 9 to 14) (size 15 to 20)
#    0.000    1.600    4.000    0.000    5.600    0.000 
#    0.000    4.000    8.800    0.000    0.000    0.000 
#    0.000    0.000    0.000    0.000    0.000    0.000 
#
# Total GULP energy -111348.917115 kJ/mol
# GULP energy per Si atom -5567.445856 kJ/mol
# Density = 2.188776 g / cm^3
# Si number density = 21.937693 Si / 1000 Ang^3
#
#
#
# Elastic Constant Matrix: (Units=GPa)
#
#
# Indices 1 2 3 4 5 6 
#
# 1 211.6693 76.0603 70.6574 0.0000 5.6614 0.0000
# 2 76.0603 85.3448 31.7219 0.0000 -7.0603 0.0000
# 3 70.6574 31.7219 91.0773 0.0000 6.3561 0.0000
# 4 0.0000 0.0000 0.0000 32.4904 0.0000 -8.4110
# 5 5.6614 -7.0603 6.3561 0.0000 53.6030 0.0000
# 6 0.0000 0.0000 0.0000 -8.4110 0.0000 8.8485
#
#
#
# Elastic Compliance Matrix: (Units=1/GPa)
#
#
# Indices 1 2 3 4 5 6 
#
# 1 0.008317 -0.005902 -0.004317 0.000000 -0.001144 0.000000
# 2 -0.005902 0.017948 -0.001896 0.000000 0.003212 0.000000
# 3 -0.004317 -0.001896 0.015100 0.000000 -0.001584 0.000000
# 4 0.000000 0.000000 0.000000 0.040824 0.000000 0.038806
# 5 -0.001144 0.003212 -0.001584 0.000000 0.019387 0.000000
# 6 0.000000 0.000000 0.000000 0.038806 0.000000 0.149901
#
#
# Mechanical properties :
#
#
# Convention : Reuss Voigt Hill
#
# Bulk Modulus (GPa) = 58.36425 82.77453 70.56939
# Shear Modulus (GPa) = 17.76716 32.96516 25.36616
#
# Velocity S-wave (km/s) = 2.84895 3.88064 3.40410
# Velocity P-wave (km/s) = 6.12244 7.60872 6.90569
#
# Compressibility (1/GPa) = 0.01713378
#
# Stress axis : x y z
#
# Youngs Moduli (GPa) = 120.23977 55.71682 66.22722
#
# Poissons Ratio (x) = 0.32885 0.28587
# Poissons Ratio (y) = 0.70968 0.12560
# Poissons Ratio (z) = 0.51902 0.10567
#
# Static dielectric constant tensor:
#      x y z
#    x 1.866010 0.000000 0.053880 
#    y 0.000000 1.885920 0.000000 
#    z 0.053880 0.000000 1.823310 
# 
# From -- ./inp_files/76843.got.cif
#   From: 2010.05.17/outbox.cif.g08.bks.cpg/sg15_39_cif.got.tgz:76843.got - 2010.06.03 18:47:42.
