data_PCOD9289735
_publ_section_title
;
Structure prediction by ZEFSAII (Michael W. Deem and Ramdas Pophale) SiO2 
 PCOD9289735
Probable space group: C 2/C
;
_chemical_formula_sum "Si O2"
_cell_formula_units_Z 48
_cell_length_a 12.999054
_cell_length_b 8.883545
_cell_length_c 18.742904
_cell_angle_alpha 90.000000
_cell_angle_beta 97.994560
_cell_angle_gamma 90.000000
_cell_volume 2143.352016
_symmetry_space_group_name_H-M "C 2/C"
_symmetry_group_IT_number 15
_symmetry_cell_setting 'monoclinic'
loop_
_space_group_symop_operation_xyz
x,y,z
-x,y,1/2-z
-x,-y,-z
x,-y,1/2+z
1/2+x,1/2+y,z
1/2-x,1/2+y,1/2-z
1/2-x,1/2-y,-z
1/2+x,1/2-y,1/2+z
loop_
_atom_site_type_symbol
_atom_site_label
_atom_site_fract_x
_atom_site_fract_y
_atom_site_fract_z
Si Si1 0.000000 0.962100 0.750000
Si Si2 0.285717 0.077551 0.579149
Si Si3 0.834294 0.707772 0.737755
Si Si4 0.000000 0.537304 0.250000
Si Si5 0.420578 0.706893 0.010909
Si Si6 0.969813 0.921494 0.104178
Si Si7 0.175746 0.718391 0.347920
O O1 0.903596 0.852908 0.725754
O O2 0.029500 0.059969 0.684358
O O3 0.287248 0.148257 0.658978
O O4 0.387645 0.141612 0.548257
O O5 0.186592 0.132281 0.526254
O O6 0.279843 0.900539 0.591833
O O7 0.750984 0.750978 0.789097
O O8 0.913630 0.577931 0.773667
O O9 0.930733 0.639500 0.191145
O O10 0.489335 0.704213 0.946326
O O11 0.472799 0.584763 0.068124
O O12 0.855382 0.872379 0.117011
#
# Coordination Sequence:
#
# PCOD9289735 Si02
#       7
#     4   8   8   4   8   8   8
#     4  11  21  40  66  96 126 174 222 276 328 394
#     4  10  22  43  63  92 131 177 214 272 338 400
#     4  10  22  40  67  96 136 172 219 283 342 392
#     4   9  23  40  60 104 138 170 218 288 346 390
#     4  10  23  43  64  89 134 173 219 264 333 419
#     4  11  24  39  65  98 124 175 222 269 336 406
#     4  11  24  40  67 102 131 170 226 281 342 394
#
# _framework density 22.394826999999999
#
# number of rings (size 3 to 8) (size 9 to 14) (size 15 to 20)
#    0.000    1.667    1.667    1.500    9.333    1.333 
#    3.000    0.000    0.000    0.000    0.000    0.000 
#    0.000    0.000    0.000    0.000    0.000    0.000 
#
# Total GULP energy -134033.591968 kJ/mol
# GULP energy per Si atom -5584.732999 kJ/mol
# Density = 2.234386 g / cm^3
# Si number density = 22.394827 Si / 1000 Ang^3
#
#
#
# Elastic Constant Matrix: (Units=GPa)
#
#
# Indices 1 2 3 4 5 6 
#
# 1 45.7355 5.4906 18.3751 0.0000 -10.8835 0.0000
# 2 5.4906 58.6832 10.7054 0.0000 -11.3087 0.0000
# 3 18.3751 10.7054 84.2435 0.0000 -21.4517 0.0000
# 4 0.0000 0.0000 0.0000 -12.1225 0.0000 1.9311
# 5 -10.8835 -11.3087 -21.4517 0.0000 35.4441 0.0000
# 6 0.0000 0.0000 0.0000 1.9311 0.0000 18.3802
#
#
#
# Elastic Compliance Matrix: (Units=1/GPa)
#
#
# Indices 1 2 3 4 5 6 
#
# 1 0.024747 -0.000622 -0.004060 0.000000 0.004943 0.000000
# 2 -0.000622 0.018242 -0.000885 0.000000 0.005093 0.000000
# 3 -0.004060 -0.000885 0.014753 0.000000 0.007400 0.000000
# 4 0.000000 0.000000 0.000000 -0.081133 0.000000 0.008524
# 5 0.004943 0.005093 0.007400 0.000000 0.035835 0.000000
# 6 0.000000 0.000000 0.000000 0.008524 0.000000 0.053511
#
#
# Mechanical properties :
#
#
# Convention : Reuss Voigt Hill
#
# Bulk Modulus (GPa) = 21.45639 28.64495 25.05067
# Shear Modulus (GPa) = 53.98127 18.61309 36.29718
#
# Velocity S-wave (km/s) = 4.91494 2.88607 4.03026
# Velocity P-wave (km/s) = 6.46612 4.89127 5.73302
#
# Compressibility (1/GPa) = 0.04660616
#
# Stress axis : x y z
#
# Youngs Moduli (GPa) = 40.40894 54.81879 67.78437
#
# Poissons Ratio (x) = 0.03411 0.27521
# Poissons Ratio (y) = 0.02514 0.06002
# Poissons Ratio (z) = 0.16406 0.04854
#
# Static dielectric constant tensor:
#      x y z
#    x 1.852100 0.000000 0.006260 
#    y 0.000000 1.861310 0.000000 
#    z 0.006260 0.000000 1.858910 
# 
# From -- ./inp_files/203047.got.cif
#   From: 2010.05.17/outbox.cif.g08.bks.cpg/sg15_102_cif.got.tgz:203047.got - 2010.06.03 18:47:42.
