data_PCOD9289504
_publ_section_title
;
Structure prediction by ZEFSAII (Michael W. Deem and Ramdas Pophale) SiO2 
 PCOD9289504
Probable space group: C 2/C
;
_chemical_formula_sum "Si O2"
_cell_formula_units_Z 36
_cell_length_a 16.410528
_cell_length_b 9.094133
_cell_length_c 25.285335
_cell_angle_alpha 90.000000
_cell_angle_beta 25.994059
_cell_angle_gamma 90.000000
_cell_volume 1653.873116
_symmetry_space_group_name_H-M "C 2/C"
_symmetry_group_IT_number 15
_symmetry_cell_setting 'monoclinic'
loop_
_space_group_symop_operation_xyz
x,y,z
-x,y,1/2-z
-x,-y,-z
x,-y,1/2+z
1/2+x,1/2+y,z
1/2-x,1/2+y,1/2-z
1/2-x,1/2-y,-z
1/2+x,1/2-y,1/2+z
loop_
_atom_site_type_symbol
_atom_site_label
_atom_site_fract_x
_atom_site_fract_y
_atom_site_fract_z
Si Si1 0.500000 0.398068 0.750000
Si Si2 0.125821 0.870797 0.042090
Si Si3 0.676731 0.879002 0.121432
Si Si4 0.747303 0.961631 0.319136
Si Si5 0.040689 0.258704 0.961944
O O1 0.412422 0.279654 0.842003
O O2 0.660658 0.499302 0.678047
O O3 0.920166 0.902276 0.185043
O O4 0.091212 0.824471 0.001650
O O5 0.250000 0.750000 0.000000
O O6 0.234903 0.024461 0.975336
O O7 0.500000 0.962190 0.250000
O O8 0.819858 0.840530 0.085248
O O9 0.584556 0.846179 0.422745
O O10 0.654246 0.119689 0.360866
#
# Coordination Sequence:
#
# PCOD9289504 Si02
#       5
#     4   8   8   8   8
#     4   8  18  42  62  88 126 164 204 262 330 366
#     4  12  26  37  66  97 125 170 214 268 318 392
#     4   9  22  42  65  87 125 172 206 264 326 376
#     4  10  22  40  65  92 121 168 213 259 319 385
#     4  10  23  44  63  89 133 167 208 274 320 380
#
# _framework density 21.767085999999999
#
# number of rings (size 3 to 8) (size 9 to 14) (size 15 to 20)
#    0.667    1.333    0.000    2.000    6.222    2.667 
#    0.000    0.000    0.000    0.000    0.000    0.000 
#    0.000    0.000    0.000    0.000    0.000    0.000 
#
# Total GULP energy -100302.757240 kJ/mol
# GULP energy per Si atom -5572.375402 kJ/mol
# Density = 2.171754 g / cm^3
# Si number density = 21.767086 Si / 1000 Ang^3
#
#
#
# Elastic Constant Matrix: (Units=GPa)
#
#
# Indices 1 2 3 4 5 6 
#
# 1 37.7975 32.7643 28.2021 0.0000 -19.0735 0.0000
# 2 32.7643 86.0787 50.1137 -0.0001 2.3560 0.0001
# 3 28.2021 50.1137 103.9161 -0.0012 -7.4811 0.0006
# 4 0.0000 -0.0001 -0.0012 26.5825 0.0007 0.6243
# 5 -19.0735 2.3560 -7.4811 0.0007 28.2164 0.0001
# 6 0.0000 0.0001 0.0006 0.6243 0.0001 17.9583
#
#
#
# Elastic Compliance Matrix: (Units=1/GPa)
#
#
# Indices 1 2 3 4 5 6 
#
# 1 0.090520 -0.034096 -0.003582 -0.000002 0.063086 0.000000
# 2 -0.034096 0.029338 -0.006861 0.000001 -0.027317 0.000000
# 3 -0.003582 -0.006861 0.014039 0.000001 0.001874 0.000000
# 4 -0.000002 0.000001 0.000001 0.037649 -0.000002 -0.001309
# 5 0.063086 -0.027317 0.001874 -0.000002 0.080862 0.000000
# 6 0.000000 0.000000 0.000000 -0.001309 0.000000 0.055730
#
#
# Mechanical properties :
#
#
# Convention : Reuss Voigt Hill
#
# Bulk Modulus (GPa) = 22.31246 49.99472 36.15359
# Shear Modulus (GPa) = 12.13133 22.33227 17.23180
#
# Velocity S-wave (km/s) = 2.36333 3.20654 2.81667
# Velocity P-wave (km/s) = 4.20950 6.06029 5.21762
#
# Compressibility (1/GPa) = 0.04481802
#
# Stress axis : x y z
#
# Youngs Moduli (GPa) = 11.04729 34.08606 71.23037
#
# Poissons Ratio (x) = 1.16220 0.25514
# Poissons Ratio (y) = 0.37667 0.48872
# Poissons Ratio (z) = 0.03957 0.23387
#
# Static dielectric constant tensor:
#      x y z
#    x 1.784760 0.000000 0.005890 
#    y 0.000000 1.819300 0.000000 
#    z 0.005890 0.000000 1.851050 
# 
# From -- ./inp_files/317342.got.cif
#   From: 2010.05.17/outbox.cif.g08.bks.cpg/sg15_159_cif.got.tgz:317342.got - 2010.06.03 18:47:42.
