data_PCOD9289664
_publ_section_title
;
Structure prediction by ZEFSAII (Michael W. Deem and Ramdas Pophale) SiO2 
 PCOD9289664
Probable space group: C 2/C
;
_chemical_formula_sum "Si O2"
_cell_formula_units_Z 60
_cell_length_a 12.516250
_cell_length_b 14.934327
_cell_length_c 16.382748
_cell_angle_alpha 90.000000
_cell_angle_beta 76.860843
_cell_angle_gamma 90.000000
_cell_volume 2982.124026
_symmetry_space_group_name_H-M "C 2/C"
_symmetry_group_IT_number 15
_symmetry_cell_setting 'monoclinic'
loop_
_space_group_symop_operation_xyz
x,y,z
-x,y,1/2-z
-x,-y,-z
x,-y,1/2+z
1/2+x,1/2+y,z
1/2-x,1/2+y,1/2-z
1/2-x,1/2-y,-z
1/2+x,1/2-y,1/2+z
loop_
_atom_site_type_symbol
_atom_site_label
_atom_site_fract_x
_atom_site_fract_y
_atom_site_fract_z
Si Si1 0.749238 0.154584 0.458481
Si Si2 0.160707 0.985554 0.798222
Si Si3 0.500000 0.055859 0.250000
Si Si4 0.625685 0.647140 0.699159
Si Si5 0.821062 0.509584 0.909272
Si Si6 0.313398 0.657125 0.998189
Si Si7 0.006265 0.080193 0.063763
Si Si8 0.807766 0.674959 0.219938
O O1 0.750000 0.250000 0.500000
O O2 0.672759 0.085028 0.522194
O O3 0.872512 0.115845 0.444276
O O4 0.714856 0.174401 0.371946
O O5 0.218083 0.891062 0.773914
O O6 0.037981 0.962725 0.845061
O O7 0.173257 0.053724 0.723088
O O8 0.221522 0.032185 0.864378
O O9 0.419752 0.121308 0.215275
O O10 0.574166 0.003823 0.169224
O O11 0.500000 0.653775 0.750000
O O12 0.636365 0.644520 0.600408
O O13 0.685622 0.731059 0.733282
O O14 0.775939 0.418195 0.959422
O O15 0.250000 0.750000 0.000000
O O16 0.415058 0.649926 0.044425
O O17 0.000000 0.000000 0.000000
#
# Coordination Sequence:
#
# PCOD9289664 Si02
#       8
#     8   8   4   8   8   8   8   8
#     4  12  26  42  65  98 137 180 222 275 345 413
#     4  10  22  40  66  97 133 167 220 283 335 393
#     4  10  22  46  68  90 136 184 222 290 344 396
#     4  12  24  38  71 100 129 178 230 279 332 398
#     4  10  22  44  67  95 136 177 225 281 341 411
#     4  11  23  40  70 104 131 173 233 284 331 399
#     4  11  22  43  68  96 136 172 219 280 336 397
#     4  11  25  42  63 100 138 175 227 279 338 400
#
# _framework density 20.119888
#
# number of rings (size 3 to 8) (size 9 to 14) (size 15 to 20)
#    0.000    1.067    3.333    4.800    3.733    0.533 
#    0.000    6.667    0.000    0.000    0.000    0.000 
#    0.000    0.000    0.000    0.000    0.000    0.000 
#
# Total GULP energy -167496.840162 kJ/mol
# GULP energy per Si atom -5583.228005 kJ/mol
# Density = 2.007409 g / cm^3
# Si number density = 20.119888 Si / 1000 Ang^3
#
#
#
# Elastic Constant Matrix: (Units=GPa)
#
#
# Indices 1 2 3 4 5 6 
#
# 1 74.7703 31.0648 37.5136 0.0000 -10.0206 0.0000
# 2 31.0648 76.8702 15.5684 0.0000 2.2846 0.0000
# 3 37.5136 15.5684 125.2750 0.0000 4.3760 0.0000
# 4 0.0000 0.0000 0.0000 33.3434 0.0000 1.9692
# 5 -10.0206 2.2846 4.3760 0.0000 40.9038 0.0000
# 6 0.0000 0.0000 0.0000 1.9692 0.0000 25.5282
#
#
#
# Elastic Compliance Matrix: (Units=1/GPa)
#
#
# Indices 1 2 3 4 5 6 
#
# 1 0.019712 -0.007080 -0.005225 0.000000 0.005784 0.000000
# 2 -0.007080 0.015901 0.000236 0.000000 -0.002648 0.000000
# 3 -0.005225 0.000236 0.009599 0.000000 -0.002320 0.000000
# 4 0.000000 0.000000 0.000000 0.030128 0.000000 -0.002324
# 5 0.005784 -0.002648 -0.002320 0.000000 0.026261 0.000000
# 6 0.000000 0.000000 0.000000 -0.002324 0.000000 0.039352
#
#
# Mechanical properties :
#
#
# Convention : Reuss Voigt Hill
#
# Bulk Modulus (GPa) = 47.44924 49.46767 48.45846
# Shear Modulus (GPa) = 29.05049 32.80633 30.92841
#
# Velocity S-wave (km/s) = 3.80395 4.04238 3.92498
# Velocity P-wave (km/s) = 6.55193 6.81378 6.68414
#
# Compressibility (1/GPa) = 0.02107515
#
# Stress axis : x y z
#
# Youngs Moduli (GPa) = 50.72958 62.88971 104.18038
#
# Poissons Ratio (x) = 0.44525 0.54435
# Poissons Ratio (y) = 0.35916 -0.02464
# Poissons Ratio (z) = 0.26506 -0.01487
#
# Static dielectric constant tensor:
#      x y z
#    x 1.895610 0.000000 0.027480 
#    y 0.000000 1.716280 0.000000 
#    z 0.027480 0.000000 1.767770 
# 
# From -- ./inp_files/153920.got.cif
#   From: 2010.05.17/outbox.cif.g08.bks.cpg/sg15_77_cif.got.tgz:153920.got - 2010.06.03 18:47:42.
