data_PCOD9289377
_publ_section_title
;
Structure prediction by ZEFSAII (Michael W. Deem and Ramdas Pophale) SiO2 
 PCOD9289377
Probable space group: C 2/C
;
_chemical_formula_sum "Si O2"
_cell_formula_units_Z 40
_cell_length_a 4.789197
_cell_length_b 17.976526
_cell_length_c 28.052587
_cell_angle_alpha 90.000000
_cell_angle_beta 47.288087
_cell_angle_gamma 90.000000
_cell_volume 1774.577278
_symmetry_space_group_name_H-M "C 2/C"
_symmetry_group_IT_number 15
_symmetry_cell_setting 'monoclinic'
loop_
_space_group_symop_operation_xyz
x,y,z
-x,y,1/2-z
-x,-y,-z
x,-y,1/2+z
1/2+x,1/2+y,z
1/2-x,1/2+y,1/2-z
1/2-x,1/2-y,-z
1/2+x,1/2-y,1/2+z
loop_
_atom_site_type_symbol
_atom_site_label
_atom_site_fract_x
_atom_site_fract_y
_atom_site_fract_z
Si Si1 0.545362 0.979956 0.057322
Si Si2 0.845920 0.582351 0.678425
Si Si3 0.865943 0.890752 0.950301
Si Si4 0.848427 0.815733 0.177085
Si Si5 0.039205 0.708556 0.068313
O O1 0.462672 0.970326 0.122068
O O2 0.245987 0.034818 0.066648
O O3 0.543376 0.901104 0.028970
O O4 0.000000 0.000000 0.000000
O O5 0.500000 0.551979 0.750000
O O6 0.686246 0.658195 0.672416
O O7 0.186429 0.607697 0.672716
O O8 0.818160 0.826510 0.917009
O O9 0.227635 0.862377 0.938092
O O10 0.500000 0.786327 0.250000
O O11 0.955499 0.761778 0.121961
O O12 0.250000 0.750000 0.000000
#
# Coordination Sequence:
#
# PCOD9289377 Si02
#       5
#     8   8   8   8   8
#     4  11  23  41  64  88 130 158 210 260 308 362
#     4  10  22  40  65  90 116 161 210 255 310 368
#     4  11  24  37  59  91 119 163 197 247 314 362
#     4  10  22  40  64  90 121 159 205 260 311 366
#     4  12  22  38  61  90 123 156 204 249 310 373
#
# _framework density 22.540579000000001
#
# number of rings (size 3 to 8) (size 9 to 14) (size 15 to 20)
#    0.000    1.200    2.000    4.200    5.600    0.000 
#    0.000    1.000    4.400    0.000    0.000    0.000 
#    0.000    0.000    0.000    0.000    0.000    0.000 
#
# Total GULP energy -111541.071081 kJ/mol
# GULP energy per Si atom -5577.053554 kJ/mol
# Density = 2.248928 g / cm^3
# Si number density = 22.540579 Si / 1000 Ang^3
#
#
#
# Elastic Constant Matrix: (Units=GPa)
#
#
# Indices 1 2 3 4 5 6 
#
# 1 118.7408 19.9947 21.1268 0.0000 11.5696 -0.0001
# 2 19.9947 53.3249 46.2154 0.0000 1.3984 0.0000
# 3 21.1268 46.2154 166.6744 -0.0001 31.4388 0.0000
# 4 0.0000 0.0000 -0.0001 39.4811 0.0000 22.3726
# 5 11.5696 1.3984 31.4388 0.0000 33.0954 0.0000
# 6 -0.0001 0.0000 0.0000 22.3726 0.0000 43.2636
#
#
#
# Elastic Compliance Matrix: (Units=1/GPa)
#
#
# Indices 1 2 3 4 5 6 
#
# 1 0.009333 -0.003918 0.000594 0.000000 -0.003661 0.000000
# 2 -0.003918 0.027593 -0.008763 0.000000 0.008528 0.000000
# 3 0.000594 -0.008763 0.010141 0.000000 -0.009470 0.000000
# 4 0.000000 0.000000 0.000000 0.035827 0.000000 -0.018527
# 5 -0.003661 0.008528 -0.009470 0.000000 0.040132 0.000000
# 6 0.000000 0.000000 0.000000 -0.018527 0.000000 0.032695
#
#
# Mechanical properties :
#
#
# Convention : Reuss Voigt Hill
#
# Bulk Modulus (GPa) = 43.68325 57.04598 50.36462
# Shear Modulus (GPa) = 26.66309 39.92821 33.29565
#
# Velocity S-wave (km/s) = 3.44305 4.21336 3.84753
# Velocity P-wave (km/s) = 5.93532 7.00235 6.49080
#
# Compressibility (1/GPa) = 0.02289207
#
# Stress axis : x y z
#
# Youngs Moduli (GPa) = 107.15214 36.24086 98.61388
#
# Poissons Ratio (x) = 0.14200 -0.05859
# Poissons Ratio (y) = 0.41984 0.86415
# Poissons Ratio (z) = -0.06366 0.31758
#
# Static dielectric constant tensor:
#      x y z
#    x 1.887410 0.000000 0.001910 
#    y 0.000000 1.948590 0.000000 
#    z 0.001910 0.000000 1.861160 
# 
# From -- ./inp_files/305586.got.cif
#   From: 2010.05.17/outbox.cif.g08.bks.cpg/sg15_153_cif.got.tgz:305586.got - 2010.06.03 18:47:42.
