data_PCOD9289205
_publ_section_title
;
Structure prediction by ZEFSAII (Michael W. Deem and Ramdas Pophale) SiO2 
 PCOD9289205
Probable space group: C 2/C
;
_chemical_formula_sum "Si O2"
_cell_formula_units_Z 48
_cell_length_a 22.942535
_cell_length_b 5.150905
_cell_length_c 16.236616
_cell_angle_alpha 90.000000
_cell_angle_beta 88.113835
_cell_angle_gamma 90.000000
_cell_volume 1917.719547
_symmetry_space_group_name_H-M "C 2/C"
_symmetry_group_IT_number 15
_symmetry_cell_setting 'monoclinic'
loop_
_space_group_symop_operation_xyz
x,y,z
-x,y,1/2-z
-x,-y,-z
x,-y,1/2+z
1/2+x,1/2+y,z
1/2-x,1/2+y,1/2-z
1/2-x,1/2-y,-z
1/2+x,1/2-y,1/2+z
loop_
_atom_site_type_symbol
_atom_site_label
_atom_site_fract_x
_atom_site_fract_y
_atom_site_fract_z
Si Si1 0.915896 0.757918 0.702712
Si Si2 0.463240 0.798299 0.382153
Si Si3 0.100868 0.776878 0.061004
Si Si4 0.250595 0.699338 0.645809
Si Si5 0.686959 0.182899 0.908259
Si Si6 0.664224 0.400462 0.212888
O O1 0.939299 0.660812 0.789519
O O2 0.857761 0.640017 0.665839
O O3 0.968377 0.750489 0.635684
O O4 0.891768 0.043890 0.727053
O O5 0.431806 0.548670 0.422849
O O6 0.446287 0.048500 0.435251
O O7 0.142220 0.734705 0.138394
O O8 0.144224 0.765735 0.982832
O O9 0.267387 0.415757 0.610861
O O10 0.284986 0.704020 0.731798
O O11 0.279536 0.913185 0.583978
O O12 0.188607 0.829919 0.670816
#
# Coordination Sequence:
#
# PCOD9289205 Si02
#       6
#     8   8   8   8   8   8
#     4   9  21  39  63  88 121 159 208 255 302 361
#     4  10  22  40  62  89 119 163 206 251 304 364
#     4  11  24  40  61  90 126 159 202 253 310 366
#     4  11  23  40  64  89 120 161 208 249 305 366
#     4  11  24  40  60  92 125 161 202 253 307 367
#     4  10  22  42  66  92 123 163 210 260 306 367
#
# _framework density 25.029729
#
# number of rings (size 3 to 8) (size 9 to 14) (size 15 to 20)
#    0.000    1.667    0.000    4.000    0.000   14.667 
#    0.000    0.000    0.000    0.000    0.000    0.000 
#    0.000    0.000    0.000    0.000    0.000    0.000 
#
# Total GULP energy -134264.510417 kJ/mol
# GULP energy per Si atom -5594.354601 kJ/mol
# Density = 2.497276 g / cm^3
# Si number density = 25.029729 Si / 1000 Ang^3
#
#
#
# Elastic Constant Matrix: (Units=GPa)
#
#
# Indices 1 2 3 4 5 6 
#
# 1 113.8109 44.0512 23.3189 0.0000 -34.0551 0.0000
# 2 44.0512 137.7972 36.8885 0.0000 -25.0555 0.0000
# 3 23.3189 36.8885 86.8280 0.0000 -43.3207 0.0000
# 4 0.0000 0.0000 0.0000 20.1812 0.0000 -10.8847
# 5 -34.0551 -25.0555 -43.3207 0.0000 52.9493 0.0000
# 6 0.0000 0.0000 0.0000 -10.8847 0.0000 10.6091
#
#
#
# Elastic Compliance Matrix: (Units=1/GPa)
#
#
# Indices 1 2 3 4 5 6 
#
# 1 0.011855 -0.002886 0.001969 0.000000 0.007870 0.000000
# 2 -0.002886 0.008987 -0.003121 0.000000 -0.000157 0.000000
# 3 0.001969 -0.003121 0.020631 0.000000 0.016668 0.000000
# 4 0.000000 0.000000 0.000000 0.110942 0.000000 0.113824
# 5 0.007870 -0.000157 0.016668 0.000000 0.037510 0.000000
# 6 0.000000 0.000000 0.000000 0.113824 0.000000 0.211040
#
#
# Mechanical properties :
#
#
# Convention : Reuss Voigt Hill
#
# Bulk Modulus (GPa) = 29.94470 60.77261 45.35866
# Shear Modulus (GPa) = 11.89987 32.35975 22.12981
#
# Velocity S-wave (km/s) = 2.18280 3.59953 2.97668
# Velocity P-wave (km/s) = 4.28281 6.45045 5.47498
#
# Compressibility (1/GPa) = 0.03339489
#
# Stress axis : x y z
#
# Youngs Moduli (GPa) = 84.35275 111.27702 48.47161
#
# Poissons Ratio (x) = 0.32113 -0.09542
# Poissons Ratio (y) = 0.24343 0.15130
# Poissons Ratio (z) = -0.16606 0.34735
#
# Static dielectric constant tensor:
#      x y z
#    x 1.978380 0.000000 0.031040 
#    y 0.000000 1.957090 0.000000 
#    z 0.031040 0.000000 1.979650 
# 
# From -- ./inp_files/217768.got.cif
#   From: 2010.05.17/outbox.cif.g08.bks.cpg/sg15_109_cif.got.tgz:217768.got - 2010.06.03 18:47:42.
