data_PCOD9289584
_publ_section_title
;
Structure prediction by ZEFSAII (Michael W. Deem and Ramdas Pophale) SiO2 
 PCOD9289584
Probable space group: C 2/C
;
_chemical_formula_sum "Si O2"
_cell_formula_units_Z 48
_cell_length_a 9.519039
_cell_length_b 11.624892
_cell_length_c 23.098661
_cell_angle_alpha 90.000000
_cell_angle_beta 64.402382
_cell_angle_gamma 90.000000
_cell_volume 2305.172252
_symmetry_space_group_name_H-M "C 2/C"
_symmetry_group_IT_number 15
_symmetry_cell_setting 'monoclinic'
loop_
_space_group_symop_operation_xyz
x,y,z
-x,y,1/2-z
-x,-y,-z
x,-y,1/2+z
1/2+x,1/2+y,z
1/2-x,1/2+y,1/2-z
1/2-x,1/2-y,-z
1/2+x,1/2-y,1/2+z
loop_
_atom_site_type_symbol
_atom_site_label
_atom_site_fract_x
_atom_site_fract_y
_atom_site_fract_z
Si Si1 0.226680 0.183046 0.564445
Si Si2 0.684108 0.933929 0.152509
Si Si3 0.523794 0.522038 0.063651
Si Si4 0.997654 0.330066 0.686009
Si Si5 0.155918 0.227392 0.246226
Si Si6 0.492402 0.777332 0.105511
O O1 0.250000 0.250000 0.500000
O O2 0.384924 0.176288 0.573089
O O3 0.098093 0.254031 0.624171
O O4 0.159209 0.058511 0.562912
O O5 0.668329 0.847246 0.209033
O O6 0.625925 0.860541 0.107019
O O7 0.574875 0.044951 0.175431
O O8 0.859077 0.980601 0.119243
O O9 0.553916 0.654164 0.073437
O O10 0.500000 0.500000 0.000000
O O11 0.814899 0.337882 0.704523
O O12 0.000000 0.276920 0.750000
O O13 0.121815 0.252193 0.319341
O O14 0.000000 0.166948 0.250000
#
# Coordination Sequence:
#
# PCOD9289584 Si02
#       6
#     8   8   8   8   8   8
#     4  12  24  44  69 100 134 182 233 276 341 407
#     4  11  24  43  70 100 139 176 222 288 341 402
#     4  12  24  46  68  93 141 183 224 286 338 401
#     4  12  21  42  71  96 139 181 219 281 345 401
#     4  10  22  40  66 103 133 172 227 276 345 407
#     4  11  24  42  66 101 131 175 231 273 343 413
#
# _framework density 20.82274
#
# number of rings (size 3 to 8) (size 9 to 14) (size 15 to 20)
#    0.000    0.667    6.667    1.500    0.000    3.333 
#    0.000    5.833    0.000    0.000    0.000    0.000 
#    0.000    0.000    0.000    0.000    0.000    0.000 
#
# Total GULP energy -134219.661780 kJ/mol
# GULP energy per Si atom -5592.485907 kJ/mol
# Density = 2.077535 g / cm^3
# Si number density = 20.822740 Si / 1000 Ang^3
#
#
#
# Elastic Constant Matrix: (Units=GPa)
#
#
# Indices 1 2 3 4 5 6 
#
# 1 70.1507 20.1183 0.8860 0.0000 10.3759 0.0000
# 2 20.1183 79.8342 6.6455 0.0000 11.5865 0.0000
# 3 0.8860 6.6455 78.7673 0.0000 20.2137 0.0000
# 4 0.0000 0.0000 0.0000 27.0995 0.0000 -0.9016
# 5 10.3759 11.5865 20.2137 0.0000 37.9980 0.0000
# 6 0.0000 0.0000 0.0000 -0.9016 0.0000 37.0866
#
#
#
# Elastic Compliance Matrix: (Units=1/GPa)
#
#
# Indices 1 2 3 4 5 6 
#
# 1 0.015818 -0.003522 0.001103 0.000000 -0.003832 0.000000
# 2 -0.003522 0.013891 -0.000338 0.000000 -0.003094 0.000000
# 3 0.001103 -0.000338 0.014780 0.000000 -0.008061 0.000000
# 4 0.000000 0.000000 0.000000 0.036931 0.000000 0.000898
# 5 -0.003832 -0.003094 -0.008061 0.000000 0.032595 0.000000
# 6 0.000000 0.000000 0.000000 0.000898 0.000000 0.026986
#
#
# Mechanical properties :
#
#
# Convention : Reuss Voigt Hill
#
# Bulk Modulus (GPa) = 25.65826 31.56131 28.60978
# Shear Modulus (GPa) = 31.34666 33.84366 32.59516
#
# Velocity S-wave (km/s) = 3.88416 4.03590 3.96076
# Velocity P-wave (km/s) = 5.69777 6.07520 5.88951
#
# Compressibility (1/GPa) = 0.03897381
#
# Stress axis : x y z
#
# Youngs Moduli (GPa) = 63.21969 71.99092 67.65757
#
# Poissons Ratio (x) = 0.25353 -0.07460
# Poissons Ratio (y) = 0.22264 0.02289
# Poissons Ratio (z) = -0.06971 0.02436
#
# Static dielectric constant tensor:
#      x y z
#    x 1.831600 0.000000 -0.039280 
#    y 0.000000 1.712140 0.000000 
#    z -0.039280 0.000000 1.787240 
# 
# From -- ./inp_files/263507.got.cif
#   From: 2010.05.17/outbox.cif.g08.bks.cpg/sg15_132_cif.got.tgz:263507.got - 2010.06.03 18:47:42.
