data_PCOD9289725
_publ_section_title
;
Structure prediction by ZEFSAII (Michael W. Deem and Ramdas Pophale) SiO2 
 PCOD9289725
Probable space group: C 2/C
;
_chemical_formula_sum "Si O2"
_cell_formula_units_Z 32
_cell_length_a 7.340110
_cell_length_b 35.934463
_cell_length_c 5.181457
_cell_angle_alpha 90.000000
_cell_angle_beta 84.967108
_cell_angle_gamma 90.000000
_cell_volume 1361.406963
_symmetry_space_group_name_H-M "C 2/C"
_symmetry_group_IT_number 15
_symmetry_cell_setting 'monoclinic'
loop_
_space_group_symop_operation_xyz
x,y,z
-x,y,1/2-z
-x,-y,-z
x,-y,1/2+z
1/2+x,1/2+y,z
1/2-x,1/2+y,1/2-z
1/2-x,1/2-y,-z
1/2+x,1/2-y,1/2+z
loop_
_atom_site_type_symbol
_atom_site_label
_atom_site_fract_x
_atom_site_fract_y
_atom_site_fract_z
Si Si1 0.627222 0.213801 0.982649
Si Si2 0.000000 0.584644 0.250000
Si Si3 0.694365 0.866938 0.374164
Si Si4 0.724943 0.025567 0.984605
Si Si5 0.500000 0.420569 0.250000
O O1 0.500000 0.219362 0.750000
O O2 0.740723 0.175972 0.914395
O O3 0.500000 0.207954 0.250000
O O4 0.750000 0.250000 0.000000
O O5 0.053271 0.554064 0.025402
O O6 0.839679 0.613699 0.342642
O O7 0.500000 0.868020 0.250000
O O8 0.836967 0.892314 0.201265
O O9 0.724804 0.998369 0.226887
O O10 0.905759 0.051415 0.962987
#
# Coordination Sequence:
#
# PCOD9289725 Si02
#       5
#     8   4   8   8   4
#     4  11  24  46  74 107 147 185 234 288 348 422
#     4  10  22  40  67  94 134 182 228 284 351 412
#     4  10  23  45  69 100 141 182 232 285 347 415
#     4  11  24  42  65  96 134 179 231 291 347 410
#     4  10  24  44  69  98 136 182 232 288 351 412
#
# _framework density 23.505092000000001
#
# number of rings (size 3 to 8) (size 9 to 14) (size 15 to 20)
#    0.000    1.500    1.250    2.250    8.750    0.000 
#    4.500    0.000    0.000    0.000    0.000    0.000 
#    0.000    0.000    0.000    0.000    0.000    0.000 
#
# Total GULP energy -89200.682755 kJ/mol
# GULP energy per Si atom -5575.042672 kJ/mol
# Density = 2.345159 g / cm^3
# Si number density = 23.505092 Si / 1000 Ang^3
#
#
#
# Elastic Constant Matrix: (Units=GPa)
#
#
# Indices 1 2 3 4 5 6 
#
# 1 66.3156 64.0896 36.1333 0.0000 -6.9507 0.0000
# 2 64.0896 238.5960 63.3746 0.0000 -3.6429 0.0000
# 3 36.1333 63.3746 128.3684 0.0000 15.1879 0.0000
# 4 0.0000 0.0000 0.0000 11.8506 0.0000 -21.4451
# 5 -6.9507 -3.6429 15.1879 0.0000 27.6238 0.0000
# 6 0.0000 0.0000 0.0000 -21.4451 0.0000 66.7528
#
#
#
# Elastic Compliance Matrix: (Units=1/GPa)
#
#
# Indices 1 2 3 4 5 6 
#
# 1 0.023366 -0.004778 -0.005176 0.000000 0.008095 0.000000
# 2 -0.004778 0.005915 -0.001632 0.000000 0.000475 0.000000
# 3 -0.005176 -0.001632 0.010944 0.000000 -0.007535 0.000000
# 4 0.000000 0.000000 0.000000 0.201567 0.000000 0.064756
# 5 0.008095 0.000475 -0.007535 0.000000 0.042443 0.000000
# 6 0.000000 0.000000 0.000000 0.064756 0.000000 0.035784
#
#
# Mechanical properties :
#
#
# Convention : Reuss Voigt Hill
#
# Bulk Modulus (GPa) = 58.63744 84.49723 71.56733
# Shear Modulus (GPa) = 14.33183 39.22427 26.77805
#
# Velocity S-wave (km/s) = 2.47196 4.08947 3.37893
# Velocity P-wave (km/s) = 5.75745 7.63707 6.76288
#
# Compressibility (1/GPa) = 0.01705395
#
# Stress axis : x y z
#
# Youngs Moduli (GPa) = 42.79803 169.05600 91.37437
#
# Poissons Ratio (x) = 0.80772 0.47295
# Poissons Ratio (y) = 0.20448 0.14909
# Poissons Ratio (z) = 0.22152 0.27583
#
# Static dielectric constant tensor:
#      x y z
#    x 2.120170 0.000000 0.058260 
#    y 0.000000 1.891680 0.000000 
#    z 0.058260 0.000000 1.900780 
# 
# From -- ./inp_files/2607.got.cif
#   From: 2010.05.17/outbox.cif.g08.bks.cpg/sg15_2_cif.got.tgz:2607.got - 2010.06.03 18:47:42.
