data_PCOD9289665
_publ_section_title
;
Structure prediction by ZEFSAII (Michael W. Deem and Ramdas Pophale) SiO2 
 PCOD9289665
Probable space group: C 2/C
;
_chemical_formula_sum "Si O2"
_cell_formula_units_Z 56
_cell_length_a 14.827744
_cell_length_b 21.709761
_cell_length_c 8.652743
_cell_angle_alpha 90.000000
_cell_angle_beta 116.685201
_cell_angle_gamma 90.000000
_cell_volume 2488.698956
_symmetry_space_group_name_H-M "C 2/C"
_symmetry_group_IT_number 15
_symmetry_cell_setting 'monoclinic'
loop_
_space_group_symop_operation_xyz
x,y,z
-x,y,1/2-z
-x,-y,-z
x,-y,1/2+z
1/2+x,1/2+y,z
1/2-x,1/2+y,1/2-z
1/2-x,1/2-y,-z
1/2+x,1/2-y,1/2+z
loop_
_atom_site_type_symbol
_atom_site_label
_atom_site_fract_x
_atom_site_fract_y
_atom_site_fract_z
Si Si1 0.092868 0.332410 0.208528
Si Si2 0.400519 0.472736 0.778706
Si Si3 0.775655 0.606591 0.428148
Si Si4 0.606976 0.284166 0.270517
Si Si5 0.962206 0.901445 0.394968
Si Si6 0.521463 0.068208 0.084336
Si Si7 0.295124 0.288158 0.832049
O O1 0.172512 0.368666 0.377467
O O2 0.142319 0.272199 0.170509
O O3 0.000000 0.314391 0.250000
O O4 0.049396 0.380659 0.051173
O O5 0.500000 0.478536 0.750000
O O6 0.302238 0.449573 0.617282
O O7 0.387570 0.540370 0.840717
O O8 0.441837 0.423341 0.933940
O O9 0.864658 0.586455 0.378818
O O10 0.709133 0.661001 0.302548
O O11 0.500000 0.260404 0.250000
O O12 0.588790 0.335279 0.122635
O O13 0.663950 0.309221 0.468663
O O14 0.679208 0.231884 0.263947
O O15 0.000000 0.892850 0.250000
O O16 0.500000 0.067639 0.250000
O O17 0.500000 0.000000 0.000000
#
# Coordination Sequence:
#
# PCOD9289665 Si02
#       7
#     8   8   8   8   8   8   8
#     4  10  25  46  69  99 140 180 232 293 343 413
#     4  10  22  40  66  97 134 175 217 275 346 406
#     4  11  24  44  66 103 139 179 236 278 344 421
#     4  10  23  39  65  96 133 171 233 280 338 406
#     4   9  19  42  61  92 135 165 218 278 332 399
#     4  11  26  51  75 102 137 184 236 298 349 406
#     4  11  25  40  66 101 132 187 230 276 355 406
#
# _framework density 22.501715999999998
#
# number of rings (size 3 to 8) (size 9 to 14) (size 15 to 20)
#    0.000    1.714    0.000    3.429   10.000    1.714 
#   15.429    0.000    0.000    0.000    0.000    0.000 
#    0.000    0.000    0.000    0.000    0.000    0.000 
#
# Total GULP energy -156463.972224 kJ/mol
# GULP energy per Si atom -5587.999008 kJ/mol
# Density = 2.245050 g / cm^3
# Si number density = 22.501716 Si / 1000 Ang^3
#
#
#
# Elastic Constant Matrix: (Units=GPa)
#
#
# Indices 1 2 3 4 5 6 
#
# 1 83.1441 47.9635 19.8260 0.0000 7.8245 0.0000
# 2 47.9635 103.0139 27.9623 0.0000 11.8854 0.0000
# 3 19.8260 27.9623 62.3004 0.0000 -2.4803 0.0000
# 4 0.0000 0.0000 0.0000 29.1135 0.0000 7.5518
# 5 7.8245 11.8854 -2.4803 0.0000 39.1417 0.0000
# 6 0.0000 0.0000 0.0000 7.5518 0.0000 30.4334
#
#
#
# Elastic Compliance Matrix: (Units=1/GPa)
#
#
# Indices 1 2 3 4 5 6 
#
# 1 0.016744 -0.007036 -0.002224 0.000000 -0.001351 0.000000
# 2 -0.007036 0.014566 -0.004430 0.000000 -0.003297 0.000000
# 3 -0.002224 -0.004430 0.018866 0.000000 0.002985 0.000000
# 4 0.000000 0.000000 0.000000 0.036711 0.000000 -0.009110
# 5 -0.001351 -0.003297 0.002985 0.000000 0.027009 0.000000
# 6 0.000000 0.000000 0.000000 -0.009110 0.000000 0.035119
#
#
# Mechanical properties :
#
#
# Convention : Reuss Voigt Hill
#
# Bulk Modulus (GPa) = 43.86788 48.88467 46.37628
# Shear Modulus (GPa) = 27.17463 29.91816 28.54639
#
# Velocity S-wave (km/s) = 3.47892 3.65032 3.56565
# Velocity P-wave (km/s) = 5.97285 6.28796 6.13243
#
# Compressibility (1/GPa) = 0.02279572
#
# Stress axis : x y z
#
# Youngs Moduli (GPa) = 59.72322 68.65077 53.00485
#
# Poissons Ratio (x) = 0.48305 0.11789
# Poissons Ratio (y) = 0.42023 0.23481
# Poissons Ratio (z) = 0.13283 0.30412
#
# Static dielectric constant tensor:
#      x y z
#    x 1.835870 0.000000 -0.005980 
#    y 0.000000 1.894320 0.000000 
#    z -0.005980 0.000000 1.883680 
# 
# From -- ./inp_files/42750.got.cif
#   From: 2010.05.17/outbox.cif.g08.bks.cpg/sg15_22_cif.got.tgz:42750.got - 2010.06.03 18:47:42.
