data_PCOD9289009
_publ_section_title
;
Structure prediction by ZEFSAII (Michael W. Deem and Ramdas Pophale) SiO2 
 PCOD9289009
Probable space group: C 2/C
;
_chemical_formula_sum "Si O2"
_cell_formula_units_Z 48
_cell_length_a 6.462731
_cell_length_b 23.908308
_cell_length_c 20.491881
_cell_angle_alpha 90.000000
_cell_angle_beta 135.775935
_cell_angle_gamma 90.000000
_cell_volume 2208.360059
_symmetry_space_group_name_H-M "C 2/C"
_symmetry_group_IT_number 15
_symmetry_cell_setting 'monoclinic'
loop_
_space_group_symop_operation_xyz
x,y,z
-x,y,1/2-z
-x,-y,-z
x,-y,1/2+z
1/2+x,1/2+y,z
1/2-x,1/2+y,1/2-z
1/2-x,1/2-y,-z
1/2+x,1/2-y,1/2+z
loop_
_atom_site_type_symbol
_atom_site_label
_atom_site_fract_x
_atom_site_fract_y
_atom_site_fract_z
Si Si1 0.689763 0.263819 0.859459
Si Si2 0.763102 0.057645 0.114277
Si Si3 0.702779 0.862112 0.359781
Si Si4 0.820517 0.529506 0.556153
Si Si5 0.807800 0.653951 0.040407
Si Si6 0.829402 0.141683 0.343667
O O1 0.500000 0.267115 0.750000
O O2 0.656988 0.200600 0.877641
O O3 0.545768 0.307806 0.875469
O O4 0.022139 0.286692 0.920493
O O5 0.565249 0.109774 0.089349
O O6 0.087932 0.086255 0.180456
O O7 0.621671 0.008582 0.126583
O O8 0.702483 0.043720 0.025210
O O9 0.500000 0.866893 0.250000
O O10 0.643422 0.915704 0.391306
O O11 0.059000 0.857851 0.429507
O O12 0.500000 0.500000 0.500000
O O13 0.661350 0.637292 0.076334
O O14 0.500000 0.158248 0.250000
#
# Coordination Sequence:
#
# PCOD9289009 Si02
#       6
#     8   8   8   8   8   8
#     4  10  22  40  66 104 137 175 226 279 348 418
#     4  10  22  39  73  95 128 171 232 278 342 401
#     4  11  24  44  67  99 140 181 226 277 345 417
#     4  11  21  45  70  90 133 182 224 287 336 405
#     4  11  21  43  68  98 137 178 221 286 343 400
#     4  11  21  39  69 103 134 172 227 289 346 403
#
# _framework density 21.735586999999999
#
# number of rings (size 3 to 8) (size 9 to 14) (size 15 to 20)
#    0.000    1.333    5.000    0.500    0.000    0.667 
#    3.000    5.833    3.667    0.000    0.000    0.000 
#    0.000    0.000    0.000    0.000    0.000    0.000 
#
# Total GULP energy -133706.371041 kJ/mol
# GULP energy per Si atom -5571.098793 kJ/mol
# Density = 2.168612 g / cm^3
# Si number density = 21.735587 Si / 1000 Ang^3
#
#
#
# Elastic Constant Matrix: (Units=GPa)
#
#
# Indices 1 2 3 4 5 6 
#
# 1 112.0520 69.1724 22.9755 0.0000 1.0963 0.0000
# 2 69.1724 161.0174 27.9732 0.0000 -5.5989 0.0000
# 3 22.9755 27.9732 86.5398 0.0000 5.5987 0.0000
# 4 0.0000 0.0000 0.0000 29.7884 0.0000 -9.9025
# 5 1.0963 -5.5989 5.5987 0.0000 17.9400 0.0000
# 6 0.0000 0.0000 0.0000 -9.9025 0.0000 -10.5250
#
#
#
# Elastic Compliance Matrix: (Units=1/GPa)
#
#
# Indices 1 2 3 4 5 6 
#
# 1 0.012427 -0.005141 -0.001515 0.000000 -0.001891 0.000000
# 2 -0.005141 0.008845 -0.001728 0.000000 0.003614 0.000000
# 3 -0.001515 -0.001728 0.012804 0.000000 -0.004442 0.000000
# 4 0.000000 0.000000 0.000000 0.025572 0.000000 -0.024060
# 5 -0.001891 0.003614 -0.004442 0.000000 0.058371 0.000000
# 6 0.000000 0.000000 0.000000 -0.024060 0.000000 -0.072375
#
#
# Mechanical properties :
#
#
# Convention : Reuss Voigt Hill
#
# Bulk Modulus (GPa) = 57.77898 66.65016 62.21457
# Shear Modulus (GPa) = 73.33310 23.40655 48.36982
#
# Velocity S-wave (km/s) = 5.81481 3.28514 4.72251
# Velocity P-wave (km/s) = 8.46894 6.71715 7.64340
#
# Compressibility (1/GPa) = 0.01730733
#
# Stress axis : x y z
#
# Youngs Moduli (GPa) = 80.46705 113.05772 78.10322
#
# Poissons Ratio (x) = 0.58126 0.11834
# Poissons Ratio (y) = 0.41371 0.13496
# Poissons Ratio (z) = 0.12192 0.19535
#
# Static dielectric constant tensor:
#      x y z
#    x 1.836540 0.000000 0.035020 
#    y 0.000000 1.862770 0.000000 
#    z 0.035020 0.000000 1.860370 
# 
# From -- ./inp_files/185477.got.cif
#   From: 2010.05.17/outbox.cif.g08.bks.cpg/sg15_93_cif.got.tgz:185477.got - 2010.06.03 18:47:42.
