data_PCOD9289070
_publ_section_title
;
Structure prediction by ZEFSAII (Michael W. Deem and Ramdas Pophale) SiO2 
 PCOD9289070
Probable space group: C 2/C
;
_chemical_formula_sum "Si O2"
_cell_formula_units_Z 52
_cell_length_a 19.894333
_cell_length_b 22.475492
_cell_length_c 9.024763
_cell_angle_alpha 90.000000
_cell_angle_beta 34.734934
_cell_angle_gamma 90.000000
_cell_volume 2299.228440
_symmetry_space_group_name_H-M "C 2/C"
_symmetry_group_IT_number 15
_symmetry_cell_setting 'monoclinic'
loop_
_space_group_symop_operation_xyz
x,y,z
-x,y,1/2-z
-x,-y,-z
x,-y,1/2+z
1/2+x,1/2+y,z
1/2-x,1/2+y,1/2-z
1/2-x,1/2-y,-z
1/2+x,1/2-y,1/2+z
loop_
_atom_site_type_symbol
_atom_site_label
_atom_site_fract_x
_atom_site_fract_y
_atom_site_fract_z
Si Si1 0.332853 0.800972 0.780172
Si Si2 0.000000 0.828479 0.250000
Si Si3 0.555485 0.846548 0.504924
Si Si4 0.338989 0.411289 0.374687
Si Si5 0.395437 0.044548 0.732320
Si Si6 0.779215 0.247280 0.275255
Si Si7 0.768981 0.009831 0.728445
O O1 0.458182 0.798561 0.632197
O O2 0.273959 0.866361 0.909234
O O3 0.330443 0.780242 0.614573
O O4 0.250000 0.750000 0.000000
O O5 0.948886 0.869027 0.209404
O O6 0.888575 0.793229 0.519865
O O7 0.500000 0.878445 0.750000
O O8 0.560348 0.888734 0.354636
O O9 0.674984 0.814403 0.337394
O O10 0.336972 0.459367 0.512381
O O11 0.334453 0.447937 0.228780
O O12 0.298621 0.045586 0.776476
O O13 0.500000 0.000000 0.500000
O O14 0.331535 0.023471 0.994437
O O15 0.750000 0.250000 0.500000
#
# Coordination Sequence:
#
# PCOD9289070 Si02
#       7
#     8   4   8   8   8   8   8
#     4  11  22  41  67  94 134 177 222 279 342 405
#     4  10  22  46  70  94 136 176 224 280 342 394
#     4  12  21  38  66  91 125 174 211 264 344 395
#     4  10  22  41  67  92 133 175 224 277 333 396
#     4  11  22  36  60  92 132 165 217 269 331 399
#     4  11  25  44  65  99 131 169 223 280 330 406
#     4  10  22  40  59  96 131 172 220 277 326 396
#
# _framework density 22.616282999999999
#
# number of rings (size 3 to 8) (size 9 to 14) (size 15 to 20)
#    0.000    1.231    2.308    5.077    4.308    1.231 
#    0.000    0.000    0.000    3.692    0.000    0.000 
#    0.000    0.000    0.000    0.000    0.000    0.000 
#
# Total GULP energy -145165.705593 kJ/mol
# GULP energy per Si atom -5583.296369 kJ/mol
# Density = 2.256481 g / cm^3
# Si number density = 22.616283 Si / 1000 Ang^3
#
#
#
# Elastic Constant Matrix: (Units=GPa)
#
#
# Indices 1 2 3 4 5 6 
#
# 1 87.0937 10.5405 7.2804 0.0000 12.1853 0.0000
# 2 10.5405 86.0157 4.3176 0.0000 3.9785 0.0000
# 3 7.2804 4.3176 44.4258 0.0001 20.4386 -0.0001
# 4 0.0000 0.0000 0.0001 20.9275 0.0000 3.2285
# 5 12.1853 3.9785 20.4386 0.0000 36.1411 0.0000
# 6 0.0000 0.0000 -0.0001 3.2285 0.0000 45.6131
#
#
#
# Elastic Compliance Matrix: (Units=1/GPa)
#
#
# Indices 1 2 3 4 5 6 
#
# 1 0.012196 -0.001309 -0.000062 0.000000 -0.003933 0.000000
# 2 -0.001309 0.011844 -0.000730 0.000000 -0.000450 0.000000
# 3 -0.000062 -0.000730 0.030472 0.000000 -0.017131 0.000000
# 4 0.000000 0.000000 0.000000 0.048311 0.000000 -0.003419
# 5 -0.003933 -0.000450 -0.017131 0.000000 0.038733 0.000000
# 6 0.000000 0.000000 0.000000 -0.003419 0.000000 0.022166
#
#
# Mechanical properties :
#
#
# Convention : Reuss Voigt Hill
#
# Bulk Modulus (GPa) = 19.87710 29.09023 24.48367
# Shear Modulus (GPa) = 27.07191 33.56279 30.31735
#
# Velocity S-wave (km/s) = 3.46354 3.85646 3.66527
# Velocity P-wave (km/s) = 4.98023 5.72016 5.36297
#
# Compressibility (1/GPa) = 0.05030916
#
# Stress axis : x y z
#
# Youngs Moduli (GPa) = 81.99561 84.43329 32.81705
#
# Poissons Ratio (x) = 0.11056 0.00204
# Poissons Ratio (y) = 0.10737 0.02394
# Poissons Ratio (z) = 0.00509 0.06160
#
# Static dielectric constant tensor:
#      x y z
#    x 1.939470 0.000000 0.019440 
#    y 0.000000 1.934720 0.000000 
#    z 0.019440 0.000000 1.891850 
# 
# From -- ./inp_files/58596.got.cif
#   From: 2010.05.17/outbox.cif.g08.bks.cpg/sg15_30_cif.got.tgz:58596.got - 2010.06.03 18:47:42.
