data_PCOD9289016
_publ_section_title
;
Structure prediction by ZEFSAII (Michael W. Deem and Ramdas Pophale) SiO2 
 PCOD9289016
Probable space group: C 2/C
;
_chemical_formula_sum "Si O2"
_cell_formula_units_Z 36
_cell_length_a 10.120104
_cell_length_b 9.885111
_cell_length_c 19.211496
_cell_angle_alpha 90.000000
_cell_angle_beta 59.465533
_cell_angle_gamma 90.000000
_cell_volume 1655.366272
_symmetry_space_group_name_H-M "C 2/C"
_symmetry_group_IT_number 15
_symmetry_cell_setting 'monoclinic'
loop_
_space_group_symop_operation_xyz
x,y,z
-x,y,1/2-z
-x,-y,-z
x,-y,1/2+z
1/2+x,1/2+y,z
1/2-x,1/2+y,1/2-z
1/2-x,1/2-y,-z
1/2+x,1/2-y,1/2+z
loop_
_atom_site_type_symbol
_atom_site_label
_atom_site_fract_x
_atom_site_fract_y
_atom_site_fract_z
Si Si1 0.622356 0.002412 0.403679
Si Si2 0.173916 0.894171 0.537752
Si Si3 0.371124 0.024039 0.369398
Si Si4 0.000000 0.277074 0.250000
Si Si5 0.654621 0.303088 0.842354
O O1 0.656912 0.850987 0.368808
O O2 0.500000 0.000000 0.500000
O O3 0.770340 0.067163 0.399616
O O4 0.526920 0.070245 0.366477
O O5 0.250000 0.750000 0.500000
O O6 0.992646 0.877059 0.584105
O O7 0.245126 0.999251 0.463642
O O8 0.304686 0.122034 0.329062
O O9 0.405003 0.879262 0.325057
O O10 0.886390 0.199015 0.228436
#
# Coordination Sequence:
#
# PCOD9289016 Si02
#       5
#     8   8   8   4   8
#     4   9  19  36  58  86 117 147 186 236 295 342
#     4  11  19  39  64  89 120 150 192 250 297 345
#     4  10  22  40  60  87 117 157 199 243 296 350
#     4  10  22  40  56  82 124 160 194 240 300 346
#     4  11  22  40  62  87 119 157 197 246 291 351
#
# _framework density 21.747454000000001
#
# number of rings (size 3 to 8) (size 9 to 14) (size 15 to 20)
#    0.000    1.778    6.667    0.667    0.000    7.111 
#    4.000    0.000    0.000    0.000    0.000    0.000 
#    0.000    0.000    0.000    0.000    0.000    0.000 
#
# Total GULP energy -100518.022726 kJ/mol
# GULP energy per Si atom -5584.334596 kJ/mol
# Density = 2.169796 g / cm^3
# Si number density = 21.747454 Si / 1000 Ang^3
#
#
#
# Elastic Constant Matrix: (Units=GPa)
#
#
# Indices 1 2 3 4 5 6 
#
# 1 175.2717 59.5414 32.4219 0.0000 46.7236 0.0000
# 2 59.5414 51.4161 12.6195 0.0000 28.2990 0.0000
# 3 32.4219 12.6195 90.1547 0.0000 30.0360 0.0000
# 4 0.0000 0.0000 0.0000 24.0359 0.0000 16.4415
# 5 46.7236 28.2990 30.0360 0.0000 43.0552 0.0000
# 6 0.0000 0.0000 0.0000 16.4415 0.0000 42.9558
#
#
#
# Elastic Compliance Matrix: (Units=1/GPa)
#
#
# Indices 1 2 3 4 5 6 
#
# 1 0.010133 -0.009100 -0.000911 0.000000 -0.004379 0.000000
# 2 -0.009100 0.039342 0.004026 0.000000 -0.018792 0.000000
# 3 -0.000911 0.004026 0.014863 0.000000 -0.012026 0.000000
# 4 0.000000 0.000000 0.000000 0.056361 0.000000 -0.021572
# 5 -0.004379 -0.018792 -0.012026 0.000000 0.048719 0.000000
# 6 0.000000 0.000000 0.000000 -0.021572 0.000000 0.031537
#
#
# Mechanical properties :
#
#
# Convention : Reuss Voigt Hill
#
# Bulk Modulus (GPa) = 19.09581 58.44533 38.77057
# Shear Modulus (GPa) = 21.70325 36.16001 28.93163
#
# Velocity S-wave (km/s) = 3.16249 4.08207 3.65135
# Velocity P-wave (km/s) = 4.70477 7.01075 5.97016
#
# Compressibility (1/GPa) = 0.05236752
#
# Stress axis : x y z
#
# Youngs Moduli (GPa) = 98.68945 25.41809 67.28227
#
# Poissons Ratio (x) = 0.23131 0.06131
# Poissons Ratio (y) = 0.89809 -0.27090
# Poissons Ratio (z) = 0.08993 -0.10234
#
# Static dielectric constant tensor:
#      x y z
#    x 1.857180 0.000000 -0.027190 
#    y 0.000000 1.765170 0.000000 
#    z -0.027190 0.000000 1.876340 
# 
# From -- ./inp_files/187585.got.cif
#   From: 2010.05.17/outbox.cif.g08.bks.cpg/sg15_94_cif.got.tgz:187585.got - 2010.06.03 18:47:42.
