data_PCOD9289745
_publ_section_title
;
Structure prediction by ZEFSAII (Michael W. Deem and Ramdas Pophale) SiO2 
 PCOD9289745
Probable space group: C 2/C
;
_chemical_formula_sum "Si O2"
_cell_formula_units_Z 52
_cell_length_a 9.524441
_cell_length_b 15.770206
_cell_length_c 18.520404
_cell_angle_alpha 90.000000
_cell_angle_beta 66.608978
_cell_angle_gamma 90.000000
_cell_volume 2553.191223
_symmetry_space_group_name_H-M "C 2/C"
_symmetry_group_IT_number 15
_symmetry_cell_setting 'monoclinic'
loop_
_space_group_symop_operation_xyz
x,y,z
-x,y,1/2-z
-x,-y,-z
x,-y,1/2+z
1/2+x,1/2+y,z
1/2-x,1/2+y,1/2-z
1/2-x,1/2-y,-z
1/2+x,1/2-y,1/2+z
loop_
_atom_site_type_symbol
_atom_site_label
_atom_site_fract_x
_atom_site_fract_y
_atom_site_fract_z
Si Si1 0.503955 0.512401 0.879692
Si Si2 0.753377 0.502408 0.446187
Si Si3 0.177026 0.688798 0.576338
Si Si4 0.602284 0.305667 0.330201
Si Si5 0.500000 0.610967 0.250000
Si Si6 0.676126 0.810049 0.577430
Si Si7 0.346439 0.262587 0.683483
O O1 0.668166 0.497251 0.885309
O O2 0.509833 0.606990 0.848105
O O3 0.461448 0.447254 0.825814
O O4 0.379897 0.505394 0.967430
O O5 0.833852 0.411407 0.440379
O O6 0.842324 0.590876 0.438020
O O7 0.250000 0.750000 0.500000
O O8 0.292545 0.692929 0.620020
O O9 0.010437 0.721002 0.634419
O O10 0.482785 0.229766 0.363810
O O11 0.713440 0.298506 0.239068
O O12 0.630872 0.671219 0.255657
O O13 0.750000 0.750000 0.500000
O O14 0.792673 0.805083 0.620676
#
# Coordination Sequence:
#
# PCOD9289745 Si02
#       7
#     8   8   8   8   4   8   8
#     4  10  22  40  67  98 130 180 221 278 337 411
#     4  10  22  42  67  99 134 173 230 276 339 398
#     4  11  23  44  71  97 134 180 230 280 335 407
#     4  11  24  43  67  98 139 178 222 280 348 402
#     4  12  22  42  68  96 132 174 232 270 340 406
#     4  12  24  45  68  99 139 181 224 284 339 406
#     4  12  25  45  65 101 137 179 226 282 346 404
#
# _framework density 20.366669000000002
#
# number of rings (size 3 to 8) (size 9 to 14) (size 15 to 20)
#    0.000    0.923    4.615    2.308    4.308    0.000 
#    2.769    4.615    0.000    0.000    0.000    0.000 
#    0.000    0.000    0.000    0.000    0.000    0.000 
#
# Total GULP energy -145209.250851 kJ/mol
# GULP energy per Si atom -5584.971187 kJ/mol
# Density = 2.032031 g / cm^3
# Si number density = 20.366669 Si / 1000 Ang^3
#
#
#
# Elastic Constant Matrix: (Units=GPa)
#
#
# Indices 1 2 3 4 5 6 
#
# 1 64.9927 39.4245 28.5770 0.0000 -8.2362 0.0000
# 2 39.4245 168.0315 52.9943 0.0000 -8.4971 0.0000
# 3 28.5770 52.9943 90.5032 0.0000 2.3931 0.0000
# 4 0.0000 0.0000 0.0000 36.3033 0.0000 4.4623
# 5 -8.2362 -8.4971 2.3931 0.0000 39.5800 0.0000
# 6 0.0000 0.0000 0.0000 4.4623 0.0000 24.4928
#
#
#
# Elastic Compliance Matrix: (Units=1/GPa)
#
#
# Indices 1 2 3 4 5 6 
#
# 1 0.019678 -0.002990 -0.004561 0.000000 0.003729 0.000000
# 2 -0.002990 0.007888 -0.003709 0.000000 0.001296 0.000000
# 3 -0.004561 -0.003709 0.014731 0.000000 -0.002636 0.000000
# 4 0.000000 0.000000 0.000000 0.028177 0.000000 -0.005133
# 5 0.003729 0.001296 -0.002636 0.000000 0.026479 0.000000
# 6 0.000000 0.000000 0.000000 -0.005133 0.000000 0.041764
#
#
# Mechanical properties :
#
#
# Convention : Reuss Voigt Hill
#
# Bulk Modulus (GPa) = 50.56438 62.83545 56.69991
# Shear Modulus (GPa) = 29.79220 33.57732 31.68476
#
# Velocity S-wave (km/s) = 3.82880 4.06475 3.94854
# Velocity P-wave (km/s) = 6.66537 7.27658 6.97767
#
# Compressibility (1/GPa) = 0.01977677
#
# Stress axis : x y z
#
# Youngs Moduli (GPa) = 50.81779 126.77415 67.88319
#
# Poissons Ratio (x) = 0.37904 0.30964
# Poissons Ratio (y) = 0.15194 0.25178
# Poissons Ratio (z) = 0.23180 0.47021
#
# Static dielectric constant tensor:
#      x y z
#    x 1.723990 0.000000 0.023930 
#    y 0.000000 1.776480 0.000000 
#    z 0.023930 0.000000 1.711460 
# 
# From -- ./inp_files/237512.got.cif
#   From: 2010.05.17/outbox.cif.g08.bks.cpg/sg15_119_cif.got.tgz:237512.got - 2010.06.03 18:47:42.
