data_PCOD9289983
_publ_section_title
;
Structure prediction by ZEFSAII (Michael W. Deem and Ramdas Pophale) SiO2 
 PCOD9289983
Probable space group: C 2/C
;
_chemical_formula_sum "Si O2"
_cell_formula_units_Z 52
_cell_length_a 30.588434
_cell_length_b 12.647878
_cell_length_c 8.783974
_cell_angle_alpha 90.000000
_cell_angle_beta 140.440648
_cell_angle_gamma 90.000000
_cell_volume 2164.320890
_symmetry_space_group_name_H-M "C 2/C"
_symmetry_group_IT_number 15
_symmetry_cell_setting 'monoclinic'
loop_
_space_group_symop_operation_xyz
x,y,z
-x,y,1/2-z
-x,-y,-z
x,-y,1/2+z
1/2+x,1/2+y,z
1/2-x,1/2+y,1/2-z
1/2-x,1/2-y,-z
1/2+x,1/2-y,1/2+z
loop_
_atom_site_type_symbol
_atom_site_label
_atom_site_fract_x
_atom_site_fract_y
_atom_site_fract_z
Si Si1 0.500000 0.445989 0.750000
Si Si2 0.112835 0.901851 0.482641
Si Si3 0.381220 0.294797 0.305650
Si Si4 0.733350 0.565686 0.856829
Si Si5 0.828562 0.563338 0.842837
Si Si6 0.068411 0.611554 0.854659
Si Si7 0.568008 0.777494 0.038123
O O1 0.452643 0.523844 0.723125
O O2 0.444364 0.370539 0.523308
O O3 0.120184 0.809763 0.378376
O O4 0.097559 0.841563 0.600188
O O5 0.179186 0.975513 0.658848
O O6 0.312204 0.343757 0.189605
O O7 0.395301 0.182528 0.418697
O O8 0.778201 0.607194 0.836855
O O9 0.781941 0.507606 0.107268
O O10 0.872429 0.645918 0.864027
O O11 0.883373 0.483789 0.065995
O O12 0.052190 0.686326 0.667197
O O13 0.000000 0.568417 0.750000
O O14 0.500000 0.783695 0.750000
#
# Coordination Sequence:
#
# PCOD9289983 Si02
#       7
#     4   8   8   8   8   8   8
#     4  10  22  40  72 100 146 176 230 284 344 404
#     4  11  24  43  72 105 142 180 236 285 354 412
#     4  11  24  43  72 104 143 181 234 288 349 417
#     4  11  26  47  71 105 140 192 230 287 353 418
#     4  12  27  50  70  98 147 186 239 284 347 420
#     4  12  28  46  73 106 137 187 239 290 351 410
#     4  12  28  46  73 105 139 186 236 296 347 411
#
# _framework density 24.026012999999999
#
# number of rings (size 3 to 8) (size 9 to 14) (size 15 to 20)
#    0.000    0.615    4.615    1.846    6.462    4.923 
#    0.000    0.000    0.000    0.000    0.000    0.000 
#    0.000    0.000    0.000    0.000    0.000    0.000 
#
# Total GULP energy -145698.182381 kJ/mol
# GULP energy per Si atom -5603.776245 kJ/mol
# Density = 2.397133 g / cm^3
# Si number density = 24.026013 Si / 1000 Ang^3
#
#
#
# Elastic Constant Matrix: (Units=GPa)
#
#
# Indices 1 2 3 4 5 6 
#
# 1 133.9013 12.5972 39.1578 0.0000 24.8819 0.0000
# 2 12.5972 58.2027 13.0398 0.0000 19.9020 0.0000
# 3 39.1578 13.0398 70.0798 0.0000 21.7630 0.0000
# 4 0.0000 0.0000 0.0000 9.2020 0.0000 -0.2569
# 5 24.8819 19.9020 21.7630 0.0000 40.6728 0.0000
# 6 0.0000 0.0000 0.0000 -0.2569 0.0000 41.7117
#
#
#
# Elastic Compliance Matrix: (Units=1/GPa)
#
#
# Indices 1 2 3 4 5 6 
#
# 1 0.009325 0.000122 -0.004129 0.000000 -0.003555 0.000000
# 2 0.000122 0.020677 -0.000900 0.000000 -0.009711 0.000000
# 3 -0.004129 -0.000900 0.018976 0.000000 -0.007187 0.000000
# 4 0.000000 0.000000 0.000000 0.108691 0.000000 0.000669
# 5 -0.003555 -0.009711 -0.007187 0.000000 0.035359 0.000000
# 6 0.000000 0.000000 0.000000 0.000669 0.000000 0.023978
#
#
# Mechanical properties :
#
#
# Convention : Reuss Voigt Hill
#
# Bulk Modulus (GPa) = 25.53335 43.53041 34.53188
# Shear Modulus (GPa) = 20.84430 31.47656 26.16043
#
# Velocity S-wave (km/s) = 2.94865 3.62346 3.30333
# Velocity P-wave (km/s) = 4.71627 5.97188 5.38082
#
# Compressibility (1/GPa) = 0.03916446
#
# Stress axis : x y z
#
# Youngs Moduli (GPa) = 107.24114 48.36267 52.69798
#
# Poissons Ratio (x) = -0.00592 0.21760
# Poissons Ratio (y) = -0.01314 0.04744
# Poissons Ratio (z) = 0.44281 0.04353
#
# Static dielectric constant tensor:
#      x y z
#    x 1.888600 0.000000 -0.025510 
#    y 0.000000 1.893560 0.000000 
#    z -0.025510 0.000000 1.906260 
# 
# From -- ./inp_files/70183.got.cif
#   From: 2010.05.17/outbox.cif.g08.bks.cpg/sg15_36_cif.got.tgz:70183.got - 2010.06.03 18:47:42.
