data_PCOD9289149
_publ_section_title
;
Structure prediction by ZEFSAII (Michael W. Deem and Ramdas Pophale) SiO2 
 PCOD9289149
Probable space group: C 2/C
;
_chemical_formula_sum "Si O2"
_cell_formula_units_Z 48
_cell_length_a 13.989778
_cell_length_b 19.007472
_cell_length_c 14.353400
_cell_angle_alpha 90.000000
_cell_angle_beta 147.808107
_cell_angle_gamma 90.000000
_cell_volume 2033.380993
_symmetry_space_group_name_H-M "C 2/C"
_symmetry_group_IT_number 15
_symmetry_cell_setting 'monoclinic'
loop_
_space_group_symop_operation_xyz
x,y,z
-x,y,1/2-z
-x,-y,-z
x,-y,1/2+z
1/2+x,1/2+y,z
1/2-x,1/2+y,1/2-z
1/2-x,1/2-y,-z
1/2+x,1/2-y,1/2+z
loop_
_atom_site_type_symbol
_atom_site_label
_atom_site_fract_x
_atom_site_fract_y
_atom_site_fract_z
Si Si1 0.079281 0.821658 0.025774
Si Si2 0.666807 0.169646 0.148947
Si Si3 0.423154 0.949334 0.541861
Si Si4 0.697950 0.859768 0.456395
Si Si5 0.655345 0.482178 0.450628
Si Si6 0.731332 0.529430 0.699377
O O1 0.111681 0.751154 0.110385
O O2 0.162274 0.813479 0.989791
O O3 0.184810 0.889006 0.151275
O O4 0.869651 0.838814 0.851442
O O5 0.529806 0.116193 0.085505
O O6 0.679308 0.155244 0.049374
O O7 0.279986 0.980812 0.348212
O O8 0.317100 0.933460 0.548681
O O9 0.571571 0.009428 0.679516
O O10 0.500000 0.853047 0.250000
O O11 0.781117 0.937883 0.515185
O O12 0.500000 0.465292 0.250000
O O13 0.613758 0.483941 0.526812
#
# Coordination Sequence:
#
# PCOD9289149 Si02
#       6
#     8   8   8   8   8   8
#     4  11  23  38  58  85 124 166 207 255 311 377
#     4  12  23  37  57  88 124 165 209 253 312 379
#     4  11  23  39  63  93 129 167 210 265 316 373
#     4  11  20  35  57  84 125 166 205 251 308 379
#     4  11  22  37  60  92 129 166 209 261 320 380
#     4  10  22  40  61  90 124 162 209 256 313 373
#
# _framework density 23.606003000000001
#
# number of rings (size 3 to 8) (size 9 to 14) (size 15 to 20)
#    0.000    1.000    0.000   11.500    0.000    2.667 
#    0.000    0.000    0.000    0.000    0.000   43.167 
#    0.000    0.000    0.000    0.000    0.000    0.000 
#
# Total GULP energy -134199.496160 kJ/mol
# GULP energy per Si atom -5591.645673 kJ/mol
# Density = 2.355228 g / cm^3
# Si number density = 23.606003 Si / 1000 Ang^3
#
#
#
# Elastic Constant Matrix: (Units=GPa)
#
#
# Indices 1 2 3 4 5 6 
#
# 1 138.5512 42.3924 12.8734 0.0000 4.5991 0.0000
# 2 42.3924 133.7689 40.0453 0.0000 2.4530 0.0000
# 3 12.8734 40.0453 133.9206 -0.0001 -6.5598 -0.0001
# 4 0.0000 0.0000 -0.0001 32.3178 -0.0001 -0.2026
# 5 4.5991 2.4530 -6.5598 -0.0001 29.6526 0.0000
# 6 0.0000 0.0000 -0.0001 -0.2026 0.0000 34.7941
#
#
#
# Elastic Compliance Matrix: (Units=1/GPa)
#
#
# Indices 1 2 3 4 5 6 
#
# 1 0.008025 -0.002501 -0.000075 0.000000 -0.001054 0.000000
# 2 -0.002501 0.009035 -0.002506 0.000000 -0.000914 0.000000
# 3 -0.000075 -0.002506 0.008325 0.000000 0.002061 0.000000
# 4 0.000000 0.000000 0.000000 0.030944 0.000000 0.000180
# 5 -0.001054 -0.000914 0.002061 0.000000 0.034419 0.000000
# 6 0.000000 0.000000 0.000000 0.000180 0.000000 0.028742
#
#
# Mechanical properties :
#
#
# Convention : Reuss Voigt Hill
#
# Bulk Modulus (GPa) = 65.70405 66.31810 66.01107
# Shear Modulus (GPa) = 37.11203 40.08153 38.59678
#
# Velocity S-wave (km/s) = 3.96933 4.12507 4.04795
# Velocity P-wave (km/s) = 6.99296 7.13043 7.06203
#
# Compressibility (1/GPa) = 0.01521976
#
# Stress axis : x y z
#
# Youngs Moduli (GPa) = 124.61293 110.67771 120.12544
#
# Poissons Ratio (x) = 0.27684 0.00902
# Poissons Ratio (y) = 0.31170 0.30104
# Poissons Ratio (z) = 0.00936 0.27737
#
# Static dielectric constant tensor:
#      x y z
#    x 1.944140 0.000000 0.017180 
#    y 0.000000 1.875430 0.000000 
#    z 0.017180 0.000000 2.010210 
# 
# From -- ./inp_files/156839.got.cif
#   From: 2010.05.17/outbox.cif.g08.bks.cpg/sg15_79_cif.got.tgz:156839.got - 2010.06.03 18:47:42.
