data_PCOD9289134
_publ_section_title
;
Structure prediction by ZEFSAII (Michael W. Deem and Ramdas Pophale) SiO2 
 PCOD9289134
Probable space group: C 2/C
;
_chemical_formula_sum "Si O2"
_cell_formula_units_Z 56
_cell_length_a 7.844605
_cell_length_b 27.962854
_cell_length_c 17.576718
_cell_angle_alpha 90.000000
_cell_angle_beta 137.086651
_cell_angle_gamma 90.000000
_cell_volume 2625.235611
_symmetry_space_group_name_H-M "C 2/C"
_symmetry_group_IT_number 15
_symmetry_cell_setting 'monoclinic'
loop_
_space_group_symop_operation_xyz
x,y,z
-x,y,1/2-z
-x,-y,-z
x,-y,1/2+z
1/2+x,1/2+y,z
1/2-x,1/2+y,1/2-z
1/2-x,1/2-y,-z
1/2+x,1/2-y,1/2+z
loop_
_atom_site_type_symbol
_atom_site_label
_atom_site_fract_x
_atom_site_fract_y
_atom_site_fract_z
Si Si1 0.004054 0.882016 0.433046
Si Si2 0.682387 0.065469 0.076365
Si Si3 0.952913 0.606374 0.317656
Si Si4 0.386566 0.532599 0.629878
Si Si5 0.704483 0.806570 0.247119
Si Si6 0.872931 0.201069 0.291443
Si Si7 0.776816 0.654946 0.512926
O O1 0.286860 0.880042 0.556198
O O2 0.972250 0.933789 0.383920
O O3 0.925953 0.841145 0.346979
O O4 0.831010 0.872492 0.449073
O O5 0.686711 0.071601 0.168913
O O6 0.859744 0.023601 0.103779
O O7 0.399525 0.051222 0.961974
O O8 0.731105 0.117055 0.057418
O O9 0.799755 0.654960 0.254988
O O10 0.000000 0.584560 0.250000
O O11 0.500000 0.538677 0.750000
O O12 0.500000 0.805669 0.250000
O O13 0.769464 0.751568 0.252427
O O14 0.550973 0.827281 0.125474
O O15 0.000000 0.198157 0.250000
O O16 0.090290 0.197145 0.426201
#
# Coordination Sequence:
#
# PCOD9289134 Si02
#       7
#     8   8   8   8   8   8   8
#     4  10  22  40  61  87 125 162 199 265 307 364
#     4  10  23  39  62  91 118 166 206 254 310 373
#     4  11  22  39  59  88 125 161 207 258 311 360
#     4  10  22  40  61  87 122 156 208 254 311 371
#     4   9  21  38  60  91 126 165 207 251 308 371
#     4  11  21  37  62  92 121 166 212 251 305 371
#     4  11  20  38  65  88 124 163 206 253 310 364
#
# _framework density 21.331420000000001
#
# number of rings (size 3 to 8) (size 9 to 14) (size 15 to 20)
#    0.000    1.714    2.857    1.286    2.000    1.143 
#    0.000    6.429    0.000    0.857    0.000    0.000 
#    0.000    0.000    0.000    0.000    0.000    0.000 
#
# Total GULP energy -156425.486356 kJ/mol
# GULP energy per Si atom -5586.624513 kJ/mol
# Density = 2.128287 g / cm^3
# Si number density = 21.331420 Si / 1000 Ang^3
#
#
#
# Elastic Constant Matrix: (Units=GPa)
#
#
# Indices 1 2 3 4 5 6 
#
# 1 33.9179 2.1193 -0.7346 0.0000 -19.1925 0.0000
# 2 2.1193 69.0635 20.6551 0.0000 -12.3789 0.0000
# 3 -0.7346 20.6551 115.1618 0.0000 -11.3336 0.0000
# 4 0.0000 0.0000 0.0000 34.6901 0.0000 3.8541
# 5 -19.1925 -12.3789 -11.3336 0.0000 29.5999 0.0000
# 6 0.0000 0.0000 0.0000 3.8541 0.0000 9.7221
#
#
#
# Elastic Compliance Matrix: (Units=1/GPa)
#
#
# Indices 1 2 3 4 5 6 
#
# 1 0.048737 0.003755 0.003016 0.000000 0.034326 0.000000
# 2 0.003755 0.016523 -0.002099 0.000000 0.008541 0.000000
# 3 0.003016 -0.002099 0.009545 0.000000 0.004732 0.000000
# 4 0.000000 0.000000 0.000000 0.030155 0.000000 -0.011954
# 5 0.034326 0.008541 0.004732 0.000000 0.061425 0.000000
# 6 0.000000 0.000000 0.000000 -0.011954 0.000000 0.107598
#
#
# Mechanical properties :
#
#
# Convention : Reuss Voigt Hill
#
# Bulk Modulus (GPa) = 11.88373 29.13584 20.50978
# Shear Modulus (GPa) = 17.08302 27.87598 22.47950
#
# Velocity S-wave (km/s) = 2.83298 3.61890 3.24978
# Velocity P-wave (km/s) = 4.03536 5.58123 4.87003
#
# Compressibility (1/GPa) = 0.08414869
#
# Stress axis : x y z
#
# Youngs Moduli (GPa) = 20.51817 60.52224 104.76852
#
# Poissons Ratio (x) = -0.22727 -0.31594
# Poissons Ratio (y) = -0.07705 0.21990
# Poissons Ratio (z) = -0.06187 0.12703
#
# Static dielectric constant tensor:
#      x y z
#    x 1.804120 0.000000 0.009410 
#    y 0.000000 1.769200 0.000000 
#    z 0.009410 0.000000 1.779930 
# 
# From -- ./inp_files/81403.got.cif
#   From: 2010.05.17/outbox.cif.g08.bks.cpg/sg15_41_cif.got.tgz:81403.got - 2010.06.03 18:47:42.
