data_PCOD9289394
_publ_section_title
;
Structure prediction by ZEFSAII (Michael W. Deem and Ramdas Pophale) SiO2 
 PCOD9289394
Probable space group: C 2/C
;
_chemical_formula_sum "Si O2"
_cell_formula_units_Z 60
_cell_length_a 11.966808
_cell_length_b 7.936926
_cell_length_c 26.432891
_cell_angle_alpha 90.000000
_cell_angle_beta 75.490437
_cell_angle_gamma 90.000000
_cell_volume 2430.514173
_symmetry_space_group_name_H-M "C 2/C"
_symmetry_group_IT_number 15
_symmetry_cell_setting 'monoclinic'
loop_
_space_group_symop_operation_xyz
x,y,z
-x,y,1/2-z
-x,-y,-z
x,-y,1/2+z
1/2+x,1/2+y,z
1/2-x,1/2+y,1/2-z
1/2-x,1/2-y,-z
1/2+x,1/2-y,1/2+z
loop_
_atom_site_type_symbol
_atom_site_label
_atom_site_fract_x
_atom_site_fract_y
_atom_site_fract_z
Si Si1 0.656426 0.541089 0.465823
Si Si2 0.500000 0.497685 0.750000
Si Si3 0.500672 0.353293 0.076162
Si Si4 0.281540 0.512001 0.721701
Si Si5 0.879549 0.277970 0.335385
Si Si6 0.272716 0.656506 0.911695
Si Si7 0.199682 0.677607 0.439559
Si Si8 0.137109 0.642622 0.823794
O O1 0.581218 0.514923 0.422380
O O2 0.579199 0.631503 0.516524
O O3 0.757881 0.660531 0.437382
O O4 0.680920 0.345047 0.475545
O O5 0.401936 0.593410 0.728696
O O6 0.575127 0.373757 0.705259
O O7 0.590765 0.364245 0.110545
O O8 0.416632 0.195024 0.081419
O O9 0.211326 0.607696 0.685614
O O10 0.192764 0.511477 0.778480
O O11 0.321712 0.326614 0.700848
O O12 0.809821 0.215824 0.392130
O O13 0.998760 0.367494 0.338267
O O14 0.219730 0.512483 0.954837
O O15 0.198937 0.629645 0.870405
#
# Coordination Sequence:
#
# PCOD9289394 Si02
#       8
#     8   4   8   8   8   8   8   8
#     4   9  22  49  65 104 146 172 226 292 341 412
#     4  10  22  40  64  92 124 168 226 280 326 402
#     4   9  23  48  67 105 143 173 233 285 341 418
#     4  11  21  45  65  90 130 179 215 280 340 384
#     4  11  21  43  65  91 141 169 225 284 329 399
#     4  12  24  41  73 105 134 183 231 279 347 410
#     4  10  24  40  70 102 132 186 224 280 344 408
#     4  11  26  41  68 100 129 180 228 276 342 403
#
# _framework density 24.686133999999999
#
# number of rings (size 3 to 8) (size 9 to 14) (size 15 to 20)
#    0.800    0.800    2.667    2.000    1.867    5.333 
#    2.400    1.333    2.933    0.000    0.000    0.000 
#    0.000    0.000    0.000    0.000    0.000    0.000 
#
# Total GULP energy -167524.984190 kJ/mol
# GULP energy per Si atom -5584.166140 kJ/mol
# Density = 2.462995 g / cm^3
# Si number density = 24.686134 Si / 1000 Ang^3
#
#
#
# Elastic Constant Matrix: (Units=GPa)
#
#
# Indices 1 2 3 4 5 6 
#
# 1 199.5833 47.6104 8.1741 0.0000 6.8497 0.0000
# 2 47.6104 78.2909 1.4494 0.0000 -0.7877 0.0000
# 3 8.1741 1.4494 45.0258 0.0000 -10.8510 0.0000
# 4 0.0000 0.0000 0.0000 29.1752 0.0000 2.4026
# 5 6.8497 -0.7877 -10.8510 0.0000 42.3488 0.0000
# 6 0.0000 0.0000 0.0000 2.4026 0.0000 31.6313
#
#
#
# Elastic Compliance Matrix: (Units=1/GPa)
#
#
# Indices 1 2 3 4 5 6 
#
# 1 0.005975 -0.003623 -0.001297 0.000000 -0.001366 0.000000
# 2 -0.003623 0.014978 0.000409 0.000000 0.000969 0.000000
# 3 -0.001297 0.000409 0.023964 0.000000 0.006358 0.000000
# 4 0.000000 0.000000 0.000000 0.034491 0.000000 -0.002620
# 5 -0.001366 0.000969 0.006358 0.000000 0.025481 0.000000
# 6 0.000000 0.000000 0.000000 -0.002620 0.000000 0.031813
#
#
# Mechanical properties :
#
#
# Convention : Reuss Voigt Hill
#
# Bulk Modulus (GPa) = 27.85923 48.59642 38.22782
# Shear Modulus (GPa) = 31.70769 38.34213 35.02491
#
# Velocity S-wave (km/s) = 3.58779 3.94532 3.77079
# Velocity P-wave (km/s) = 5.33599 6.36259 5.87177
#
# Compressibility (1/GPa) = 0.03589475
#
# Stress axis : x y z
#
# Youngs Moduli (GPa) = 167.37115 66.76304 41.72928
#
# Poissons Ratio (x) = 0.24189 0.05413
# Poissons Ratio (y) = 0.60640 -0.01708
# Poissons Ratio (z) = 0.21713 -0.02732
#
# Static dielectric constant tensor:
#      x y z
#    x 2.059910 0.000000 0.156020 
#    y 0.000000 1.982530 0.000000 
#    z 0.156020 0.000000 2.005010 
# 
# From -- ./inp_files/310293.got.cif
#   From: 2010.05.17/outbox.cif.g08.bks.cpg/sg15_156_cif.got.tgz:310293.got - 2010.06.03 18:47:42.
