data_PCOD9289132
_publ_section_title
;
Structure prediction by ZEFSAII (Michael W. Deem and Ramdas Pophale) SiO2 
 PCOD9289132
Probable space group: C 2/C
;
_chemical_formula_sum "Si O2"
_cell_formula_units_Z 60
_cell_length_a 8.107469
_cell_length_b 19.613676
_cell_length_c 20.743871
_cell_angle_alpha 90.000000
_cell_angle_beta 97.884982
_cell_angle_gamma 90.000000
_cell_volume 3267.446659
_symmetry_space_group_name_H-M "C 2/C"
_symmetry_group_IT_number 15
_symmetry_cell_setting 'monoclinic'
loop_
_space_group_symop_operation_xyz
x,y,z
-x,y,1/2-z
-x,-y,-z
x,-y,1/2+z
1/2+x,1/2+y,z
1/2-x,1/2+y,1/2-z
1/2-x,1/2-y,-z
1/2+x,1/2-y,1/2+z
loop_
_atom_site_type_symbol
_atom_site_label
_atom_site_fract_x
_atom_site_fract_y
_atom_site_fract_z
Si Si1 0.990935 0.884019 0.176368
Si Si2 0.630223 0.174615 0.625210
Si Si3 0.357630 0.755808 0.793886
Si Si4 0.500000 0.225392 0.750000
Si Si5 0.002249 0.795022 0.534818
Si Si6 0.551591 0.568692 0.538932
Si Si7 0.938551 0.427356 0.021931
Si Si8 0.854710 0.687911 0.426849
O O1 0.814391 0.845619 0.157579
O O2 0.000000 0.914078 0.250000
O O3 0.127405 0.823455 0.183458
O O4 0.013088 0.929089 0.113407
O O5 0.520515 0.184454 0.684008
O O6 0.623185 0.244965 0.582329
O O7 0.556455 0.113326 0.577988
O O8 0.500000 0.765868 0.750000
O O9 0.395652 0.802110 0.855978
O O10 0.170371 0.767610 0.761200
O O11 0.040094 0.867288 0.502333
O O12 0.933307 0.748613 0.473023
O O13 0.843593 0.808644 0.572344
O O14 0.500000 0.500000 0.500000
O O15 0.751233 0.574560 0.540624
O O16 0.926637 0.380745 0.958421
O O17 0.000000 0.500000 0.000000
#
# Coordination Sequence:
#
# PCOD9289132 Si02
#       8
#     8   8   8   4   8   8   8   8
#     4  11  22  37  57  94 123 152 200 252 304 369
#     4  11  21  35  62  88 117 157 197 254 297 364
#     4  11  20  35  56  91 123 154 194 246 303 361
#     4  12  20  34  58  90 124 160 196 242 302 364
#     4   9  18  33  58  88 110 152 197 236 306 348
#     4  11  22  39  61  85 124 163 199 255 301 362
#     4  10  22  40  61  87 114 156 207 250 306 358
#     4   9  17  34  60  82 118 146 188 255 291 347
#
# _framework density 18.362962
#
# number of rings (size 3 to 8) (size 9 to 14) (size 15 to 20)
#    0.000    1.600    5.333    2.400    0.000    0.533 
#    2.400    0.000    2.933    1.600    0.000    0.000 
#    0.000    0.000    0.000    0.000    0.000    0.000 
#
# Total GULP energy -167246.048697 kJ/mol
# GULP energy per Si atom -5574.868290 kJ/mol
# Density = 1.832117 g / cm^3
# Si number density = 18.362962 Si / 1000 Ang^3
#
#
#
# Elastic Constant Matrix: (Units=GPa)
#
#
# Indices 1 2 3 4 5 6 
#
# 1 73.8553 15.6097 47.8931 0.0000 -1.3956 0.0000
# 2 15.6097 104.1524 54.6291 0.0000 -10.6558 0.0000
# 3 47.8931 54.6291 151.2788 0.0000 -20.5967 0.0000
# 4 0.0000 0.0000 0.0000 21.3920 0.0000 -2.8625
# 5 -1.3956 -10.6558 -20.5967 0.0000 28.8725 0.0000
# 6 0.0000 0.0000 0.0000 -2.8625 0.0000 12.0808
#
#
#
# Elastic Compliance Matrix: (Units=1/GPa)
#
#
# Indices 1 2 3 4 5 6 
#
# 1 0.017339 0.000217 -0.006028 0.000000 -0.003382 0.000000
# 2 0.000217 0.011904 -0.004173 0.000000 0.001427 0.000000
# 3 -0.006028 -0.004173 0.010828 0.000000 0.005893 0.000000
# 4 0.000000 0.000000 0.000000 0.048277 0.000000 0.011439
# 5 -0.003382 0.001427 0.005893 0.000000 0.039202 0.000000
# 6 0.000000 0.000000 0.000000 0.011439 0.000000 0.085486
#
#
# Mechanical properties :
#
#
# Convention : Reuss Voigt Hill
#
# Bulk Modulus (GPa) = 49.74482 62.83892 56.29187
# Shear Modulus (GPa) = 20.85890 26.54604 23.70247
#
# Velocity S-wave (km/s) = 3.37400 3.80627 3.59663
# Velocity P-wave (km/s) = 6.50593 7.32200 6.92599
#
# Compressibility (1/GPa) = 0.02010260
#
# Stress axis : x y z
#
# Youngs Moduli (GPa) = 57.67211 84.00860 92.35236
#
# Poissons Ratio (x) = -0.01825 0.55673
# Poissons Ratio (y) = -0.01253 0.38539
# Poissons Ratio (z) = 0.34767 0.35057
#
# Static dielectric constant tensor:
#      x y z
#    x 1.679060 0.000000 0.010270 
#    y 0.000000 1.623030 0.000000 
#    z 0.010270 0.000000 1.651570 
# 
# From -- ./inp_files/232748.got.cif
#   From: 2010.05.17/outbox.cif.g08.bks.cpg/sg15_117_cif.got.tgz:232748.got - 2010.06.03 18:47:42.
