data_PCOD9289952
_publ_section_title
;
Structure prediction by ZEFSAII (Michael W. Deem and Ramdas Pophale) SiO2 
 PCOD9289952
Probable space group: C 2/C
;
_chemical_formula_sum "Si O2"
_cell_formula_units_Z 40
_cell_length_a 5.354303
_cell_length_b 18.225249
_cell_length_c 23.297318
_cell_angle_alpha 90.000000
_cell_angle_beta 52.415970
_cell_angle_gamma 90.000000
_cell_volume 1801.604741
_symmetry_space_group_name_H-M "C 2/C"
_symmetry_group_IT_number 15
_symmetry_cell_setting 'monoclinic'
loop_
_space_group_symop_operation_xyz
x,y,z
-x,y,1/2-z
-x,-y,-z
x,-y,1/2+z
1/2+x,1/2+y,z
1/2-x,1/2+y,1/2-z
1/2-x,1/2-y,-z
1/2+x,1/2-y,1/2+z
loop_
_atom_site_type_symbol
_atom_site_label
_atom_site_fract_x
_atom_site_fract_y
_atom_site_fract_z
Si Si1 0.953035 0.834737 0.584661
Si Si2 0.283928 0.534509 0.920150
Si Si3 0.306017 0.648512 0.229263
Si Si4 0.338561 0.801684 0.042361
Si Si5 0.949209 0.463592 0.861063
O O1 0.995628 0.861630 0.644276
O O2 0.803486 0.754608 0.599777
O O3 0.722219 0.892372 0.586083
O O4 0.296255 0.826631 0.510777
O O5 0.325415 0.620865 0.926581
O O6 0.635789 0.503888 0.882261
O O7 0.155232 0.512396 0.874932
O O8 0.000000 0.500000 0.000000
O O9 0.500000 0.689000 0.250000
O O10 0.000000 0.689116 0.250000
O O11 0.165328 0.576340 0.281966
O O12 0.250000 0.750000 0.000000
#
# Coordination Sequence:
#
# PCOD9289952 Si02
#       5
#     8   8   8   8   8
#     4  10  23  41  67 102 137 186 234 292 348 438
#     4  12  24  40  67 102 143 174 227 299 351 413
#     4  10  22  40  70  98 125 179 243 280 329 428
#     4  11  25  40  67 106 144 184 230 294 372 424
#     4  11  23  42  68 101 127 185 234 283 352 412
#
# _framework density 22.20243
#
# number of rings (size 3 to 8) (size 9 to 14) (size 15 to 20)
#    0.000    1.200    2.000    4.200   11.200    0.000 
#    0.000    0.000    0.000   28.800    0.000    0.000 
#    0.000    0.000    0.000    0.000    0.000    0.000 
#
# Total GULP energy -111433.039108 kJ/mol
# GULP energy per Si atom -5571.651955 kJ/mol
# Density = 2.215190 g / cm^3
# Si number density = 22.202430 Si / 1000 Ang^3
#
#
#
# Elastic Constant Matrix: (Units=GPa)
#
#
# Indices 1 2 3 4 5 6 
#
# 1 158.1690 45.4768 36.0702 0.0000 -2.3341 0.0000
# 2 45.4768 168.6000 36.4732 0.0000 2.2692 0.0000
# 3 36.0702 36.4732 72.0657 0.0000 9.6438 0.0000
# 4 0.0000 0.0000 0.0000 36.1199 0.0000 5.0356
# 5 -2.3341 2.2692 9.6438 0.0000 41.6701 0.0000
# 6 0.0000 0.0000 0.0000 5.0356 0.0000 30.5891
#
#
#
# Elastic Compliance Matrix: (Units=1/GPa)
#
#
# Indices 1 2 3 4 5 6 
#
# 1 0.007459 -0.001331 -0.003225 0.000000 0.001237 0.000000
# 2 -0.001331 0.006905 -0.002857 0.000000 0.000211 0.000000
# 3 -0.003225 -0.002857 0.017481 0.000000 -0.004071 0.000000
# 4 0.000000 0.000000 0.000000 0.028336 0.000000 -0.004665
# 5 0.001237 0.000211 -0.004071 0.000000 0.024998 0.000000
# 6 0.000000 0.000000 0.000000 -0.004665 0.000000 0.033459
#
#
# Mechanical properties :
#
#
# Convention : Reuss Voigt Hill
#
# Bulk Modulus (GPa) = 58.75660 70.54168 64.64914
# Shear Modulus (GPa) = 35.93567 40.39677 38.16622
#
# Velocity S-wave (km/s) = 4.02748 4.27016 4.15059
# Velocity P-wave (km/s) = 6.93895 7.49355 7.22158
#
# Compressibility (1/GPa) = 0.01701936
#
# Stress axis : x y z
#
# Youngs Moduli (GPa) = 134.07103 144.81482 57.20435
#
# Poissons Ratio (x) = 0.19272 0.18449
# Poissons Ratio (y) = 0.17842 0.16343
# Poissons Ratio (z) = 0.43240 0.41373
#
# Static dielectric constant tensor:
#      x y z
#    x 1.924190 0.000000 0.015550 
#    y 0.000000 1.869990 0.000000 
#    z 0.015550 0.000000 1.893710 
# 
# From -- ./inp_files/285751.got.cif
#   From: 2010.05.17/outbox.cif.g08.bks.cpg/sg15_143_cif.got.tgz:285751.got - 2010.06.03 18:47:42.
