data_PCOD9289063
_publ_section_title
;
Structure prediction by ZEFSAII (Michael W. Deem and Ramdas Pophale) SiO2 
 PCOD9289063
Probable space group: C 2/C
;
_chemical_formula_sum "Si O2"
_cell_formula_units_Z 56
_cell_length_a 15.976977
_cell_length_b 22.039947
_cell_length_c 9.326143
_cell_angle_alpha 90.000000
_cell_angle_beta 52.729991
_cell_angle_gamma 90.000000
_cell_volume 2613.400774
_symmetry_space_group_name_H-M "C 2/C"
_symmetry_group_IT_number 15
_symmetry_cell_setting 'monoclinic'
loop_
_space_group_symop_operation_xyz
x,y,z
-x,y,1/2-z
-x,-y,-z
x,-y,1/2+z
1/2+x,1/2+y,z
1/2-x,1/2+y,1/2-z
1/2-x,1/2-y,-z
1/2+x,1/2-y,1/2+z
loop_
_atom_site_type_symbol
_atom_site_label
_atom_site_fract_x
_atom_site_fract_y
_atom_site_fract_z
Si Si1 0.266073 0.645117 0.185961
Si Si2 0.619045 0.435219 0.139511
Si Si3 0.000000 0.947906 0.750000
Si Si4 0.108127 0.861036 0.417777
Si Si5 0.726784 0.179367 0.532126
Si Si6 0.451018 0.735775 0.956524
Si Si7 0.000000 0.374367 0.250000
Si Si8 0.479367 0.868857 0.601567
O O1 0.274681 0.644144 0.347104
O O2 0.144169 0.649583 0.269840
O O3 0.314556 0.585207 0.064394
O O4 0.338090 0.702936 0.070229
O O5 0.500000 0.410265 0.250000
O O6 0.596847 0.506071 0.182688
O O7 0.656748 0.397379 0.234236
O O8 0.034969 0.907795 0.580907
O O9 0.209658 0.842674 0.399300
O O10 0.032488 0.803532 0.467365
O O11 0.750000 0.250000 0.500000
O O12 0.604615 0.165212 0.649796
O O13 0.500000 0.731378 0.750000
O O14 0.452984 0.807128 0.987322
O O15 0.994119 0.402252 0.425180
O O16 0.500000 0.891498 0.750000
#
# Coordination Sequence:
#
# PCOD9289063 Si02
#       8
#     8   8   4   8   8   8   4   8
#     4  11  20  40  57  81 126 168 203 273 316 374
#     4  10  22  40  59  91 131 156 208 273 323 388
#     4  10  24  37  64 100 130 154 216 277 336 382
#     4  12  20  36  63  88 121 171 200 251 332 388
#     4  11  25  38  59  90 124 175 213 258 318 385
#     4  11  20  35  52  87 126 161 212 255 304 390
#     4  10  22  43  48  84 130 150 224 273 284 376
#     4  10  24  35  60  86 118 181 219 261 314 381
#
# _framework density 21.428018999999999
#
# number of rings (size 3 to 8) (size 9 to 14) (size 15 to 20)
#    0.429    0.857    2.857    3.857    2.000    3.429 
#    0.000    0.000    0.000    0.000    1.857    3.000 
#    0.000    0.000    0.000    0.000    0.000    0.000 
#
# Total GULP energy -155945.982483 kJ/mol
# GULP energy per Si atom -5569.499374 kJ/mol
# Density = 2.137925 g / cm^3
# Si number density = 21.428019 Si / 1000 Ang^3
#
#
#
# Elastic Constant Matrix: (Units=GPa)
#
#
# Indices 1 2 3 4 5 6 
#
# 1 109.8453 9.4581 34.4354 0.0000 16.1916 0.0000
# 2 9.4581 43.8642 15.9292 0.0000 13.4033 0.0000
# 3 34.4354 15.9292 107.7257 0.0000 12.4482 0.0000
# 4 0.0000 0.0000 0.0000 39.0469 0.0000 15.5723
# 5 16.1916 13.4033 12.4482 0.0000 46.3287 0.0000
# 6 0.0000 0.0000 0.0000 15.5723 0.0000 4.6157
#
#
#
# Elastic Compliance Matrix: (Units=1/GPa)
#
#
# Indices 1 2 3 4 5 6 
#
# 1 0.010474 -0.000332 -0.002980 0.000000 -0.002764 0.000000
# 2 -0.000332 0.025964 -0.002971 0.000000 -0.006597 0.000000
# 3 -0.002980 -0.002971 0.010790 0.000000 -0.000998 0.000000
# 4 0.000000 0.000000 0.000000 -0.074129 0.000000 0.250091
# 5 -0.002764 -0.006597 -0.000998 0.000000 0.024728 0.000000
# 6 0.000000 0.000000 0.000000 0.250091 0.000000 -0.627092
#
#
# Mechanical properties :
#
#
# Convention : Reuss Voigt Hill
#
# Bulk Modulus (GPa) = 28.84900 42.34231 35.59565
# Shear Modulus (GPa) = -8.26247 31.43910 11.58832
#
# Velocity S-wave (km/s) = -1.96578 3.83455 2.32804
# Velocity P-wave (km/s) = 2.88792 6.27760 4.88612
#
# Compressibility (1/GPa) = 0.03466325
#
# Stress axis : x y z
#
# Youngs Moduli (GPa) = 95.47667 38.51495 92.67895
#
# Poissons Ratio (x) = 0.01278 0.27614
# Poissons Ratio (y) = 0.03168 0.27533
# Poissons Ratio (z) = 0.28448 0.11442
#
# Static dielectric constant tensor:
#      x y z
#    x 1.742980 0.000000 0.053160 
#    y 0.000000 1.799540 0.000000 
#    z 0.053160 0.000000 1.915640 
# 
# From -- ./inp_files/51490.got.cif
#   From: 2010.05.17/outbox.cif.g08.bks.cpg/sg15_26_cif.got.tgz:51490.got - 2010.06.03 18:47:42.
