data_PCOD9289040
_publ_section_title
;
Structure prediction by ZEFSAII (Michael W. Deem and Ramdas Pophale) SiO2 
 PCOD9289040
Probable space group: C 2/C
;
_chemical_formula_sum "Si O2"
_cell_formula_units_Z 56
_cell_length_a 15.372986
_cell_length_b 21.031814
_cell_length_c 9.360944
_cell_angle_alpha 90.000000
_cell_angle_beta 66.454350
_cell_angle_gamma 90.000000
_cell_volume 2774.608927
_symmetry_space_group_name_H-M "C 2/C"
_symmetry_group_IT_number 15
_symmetry_cell_setting 'monoclinic'
loop_
_space_group_symop_operation_xyz
x,y,z
-x,y,1/2-z
-x,-y,-z
x,-y,1/2+z
1/2+x,1/2+y,z
1/2-x,1/2+y,1/2-z
1/2-x,1/2-y,-z
1/2+x,1/2-y,1/2+z
loop_
_atom_site_type_symbol
_atom_site_label
_atom_site_fract_x
_atom_site_fract_y
_atom_site_fract_z
Si Si1 0.274104 0.875664 0.342029
Si Si2 0.407768 0.925958 0.483384
Si Si3 0.007921 0.235557 0.902108
Si Si4 0.408367 0.654017 0.393287
Si Si5 0.679761 0.738702 0.301384
Si Si6 0.149530 0.347796 0.725943
Si Si7 0.383965 0.070548 0.528424
O O1 0.363323 0.882256 0.390502
O O2 0.178214 0.888763 0.492765
O O3 0.272835 0.804045 0.281387
O O4 0.297401 0.921238 0.194678
O O5 0.351893 0.905798 0.662104
O O6 0.518526 0.918525 0.447574
O O7 0.390856 0.999810 0.460571
O O8 0.070717 0.298082 0.833436
O O9 0.000000 0.204709 0.750000
O O10 0.054205 0.191255 0.991947
O O11 0.905485 0.252117 0.033748
O O12 0.500000 0.625778 0.250000
O O13 0.362229 0.703507 0.310816
O O14 0.753704 0.691621 0.328377
O O15 0.126105 0.378687 0.590422
#
# Coordination Sequence:
#
# PCOD9289040 Si02
#       7
#     8   8   8   8   8   8   8
#     4  12  21  39  66  89 122 170 212 259 311 386
#     4  11  23  43  62  91 131 171 218 249 309 377
#     4  11  23  36  58  91 132 163 195 257 324 379
#     4  10  22  40  58  87 122 163 208 253 312 377
#     4  11  23  38  61  95 125 167 211 254 320 388
#     4  12  22  40  62  93 133 166 207 260 317 379
#     4  11  26  39  62  96 129 172 208 263 309 374
#
# _framework density 20.183025000000001
#
# number of rings (size 3 to 8) (size 9 to 14) (size 15 to 20)
#    0.000    0.857    2.857    5.571    2.000    5.714 
#    0.000    0.000    0.000    0.857    0.000    0.000 
#    0.000    0.000    0.000    0.000    0.000    0.000 
#
# Total GULP energy -156525.773742 kJ/mol
# GULP energy per Si atom -5590.206205 kJ/mol
# Density = 2.013709 g / cm^3
# Si number density = 20.183025 Si / 1000 Ang^3
#
#
#
# Elastic Constant Matrix: (Units=GPa)
#
#
# Indices 1 2 3 4 5 6 
#
# 1 89.3537 44.8649 43.9698 0.0000 -4.8085 0.0000
# 2 44.8649 58.5814 28.8827 0.0000 6.7834 0.0000
# 3 43.9698 28.8827 130.6389 0.0000 -4.6034 0.0000
# 4 0.0000 0.0000 0.0000 22.4795 0.0000 -0.5588
# 5 -4.8085 6.7834 -4.6034 0.0000 35.6275 0.0000
# 6 0.0000 0.0000 0.0000 -0.5588 0.0000 27.3047
#
#
#
# Elastic Compliance Matrix: (Units=1/GPa)
#
#
# Indices 1 2 3 4 5 6 
#
# 1 0.020500 -0.014563 -0.003501 0.000000 0.005087 0.000000
# 2 -0.014563 0.030156 -0.002046 0.000000 -0.007971 0.000000
# 3 -0.003501 -0.002046 0.009325 0.000000 0.001122 0.000000
# 4 0.000000 0.000000 0.000000 0.044508 0.000000 0.000911
# 5 0.005087 -0.007971 0.001122 0.000000 0.030418 0.000000
# 6 0.000000 0.000000 0.000000 0.000911 0.000000 0.036642
#
#
# Mechanical properties :
#
#
# Convention : Reuss Voigt Hill
#
# Bulk Modulus (GPa) = 50.60747 57.11209 53.85978
# Shear Modulus (GPa) = 22.89841 27.80610 25.35225
#
# Velocity S-wave (km/s) = 3.37194 3.71576 3.54802
# Velocity P-wave (km/s) = 6.34734 6.83869 6.59759
#
# Compressibility (1/GPa) = 0.01975993
#
# Stress axis : x y z
#
# Youngs Moduli (GPa) = 48.77992 33.16142 107.23935
#
# Poissons Ratio (x) = 0.48294 0.37543
# Poissons Ratio (y) = 0.71039 0.21944
# Poissons Ratio (z) = 0.17077 0.06786
#
# Static dielectric constant tensor:
#      x y z
#    x 1.750950 0.000000 -0.002900 
#    y 0.000000 1.697790 0.000000 
#    z -0.002900 0.000000 1.742090 
# 
# From -- ./inp_files/42124.got.cif
#   From: 2010.05.17/outbox.cif.g08.bks.cpg/sg15_22_cif.got.tgz:42124.got - 2010.06.03 18:47:42.
