data_PCOD9289098
_publ_section_title
;
Structure prediction by ZEFSAII (Michael W. Deem and Ramdas Pophale) SiO2 
 PCOD9289098
Probable space group: C 2/C
;
_chemical_formula_sum "Si O2"
_cell_formula_units_Z 48
_cell_length_a 11.769508
_cell_length_b 8.162597
_cell_length_c 26.870668
_cell_angle_alpha 90.000000
_cell_angle_beta 55.328025
_cell_angle_gamma 90.000000
_cell_volume 2123.049176
_symmetry_space_group_name_H-M "C 2/C"
_symmetry_group_IT_number 15
_symmetry_cell_setting 'monoclinic'
loop_
_space_group_symop_operation_xyz
x,y,z
-x,y,1/2-z
-x,-y,-z
x,-y,1/2+z
1/2+x,1/2+y,z
1/2-x,1/2+y,1/2-z
1/2-x,1/2-y,-z
1/2+x,1/2-y,1/2+z
loop_
_atom_site_type_symbol
_atom_site_label
_atom_site_fract_x
_atom_site_fract_y
_atom_site_fract_z
Si Si1 0.432474 0.630027 0.342466
Si Si2 0.684830 0.507229 0.223269
Si Si3 0.634595 0.132163 0.245711
Si Si4 0.246537 0.104293 0.934198
Si Si5 0.060690 0.391074 0.028519
Si Si6 0.102693 0.891716 0.889855
O O1 0.576749 0.634909 0.275926
O O2 0.333276 0.526942 0.330998
O O3 0.355977 0.800275 0.371755
O O4 0.475336 0.554815 0.385516
O O5 0.633645 0.328583 0.252454
O O6 0.832016 0.547408 0.210249
O O7 0.500000 0.079068 0.250000
O O8 0.762846 0.096828 0.177774
O O9 0.339303 0.026367 0.955189
O O10 0.144979 0.989116 0.928428
O O11 0.153100 0.247151 0.981198
O O12 0.937908 0.293584 0.086664
O O13 0.000000 0.500000 0.000000
#
# Coordination Sequence:
#
# PCOD9289098 Si02
#       6
#     8   8   8   8   8   8
#     4   9  20  39  64  85 124 163 201 245 309 349
#     4  10  22  40  60  88 128 163 203 254 295 361
#     4  11  24  40  60  92 126 163 208 247 300 363
#     4  10  22  42  65  90 124 161 201 256 311 364
#     4  10  23  42  65  93 120 159 205 255 312 368
#     4  10  23  42  62  95 124 160 208 252 305 369
#
# _framework density 22.608992000000001
#
# number of rings (size 3 to 8) (size 9 to 14) (size 15 to 20)
#    0.000    2.000    1.667    0.500    7.000    4.667 
#    3.000    0.000    0.000    0.000    0.000    0.000 
#    0.000    0.000    0.000    0.000    0.000    0.000 
#
# Total GULP energy -133961.861131 kJ/mol
# GULP energy per Si atom -5581.744214 kJ/mol
# Density = 2.255753 g / cm^3
# Si number density = 22.608992 Si / 1000 Ang^3
#
#
#
# Elastic Constant Matrix: (Units=GPa)
#
#
# Indices 1 2 3 4 5 6 
#
# 1 248.8321 60.0680 46.3763 0.0000 55.5792 0.0000
# 2 60.0680 29.0208 12.5270 0.0000 20.5305 0.0000
# 3 46.3763 12.5270 42.0313 0.0000 17.8469 0.0000
# 4 0.0000 0.0000 0.0000 26.5118 0.0000 10.2599
# 5 55.5792 20.5305 17.8469 0.0000 44.7888 0.0000
# 6 0.0000 0.0000 0.0000 10.2599 0.0000 42.7668
#
#
#
# Elastic Compliance Matrix: (Units=1/GPa)
#
#
# Indices 1 2 3 4 5 6 
#
# 1 0.009028 -0.014949 -0.004404 0.000000 -0.002596 0.000000
# 2 -0.014949 0.077195 0.000765 0.000000 -0.017139 0.000000
# 3 -0.004404 0.000765 0.031597 0.000000 -0.007477 0.000000
# 4 0.000000 0.000000 0.000000 0.041579 0.000000 -0.009975
# 5 -0.002596 -0.017139 -0.007477 0.000000 0.036384 0.000000
# 6 0.000000 0.000000 0.000000 -0.009975 0.000000 0.025776
#
#
# Mechanical properties :
#
#
# Convention : Reuss Voigt Hill
#
# Bulk Modulus (GPa) = 12.40012 61.98073 37.19042
# Shear Modulus (GPa) = 17.50597 36.20769 26.85683
#
# Velocity S-wave (km/s) = 2.78563 4.00618 3.45031
# Velocity P-wave (km/s) = 3.98030 6.99093 5.68840
#
# Compressibility (1/GPa) = 0.08064441
#
# Stress axis : x y z
#
# Youngs Moduli (GPa) = 110.76586 12.95418 31.64825
#
# Poissons Ratio (x) = 0.19366 0.13937
# Poissons Ratio (y) = 1.65586 -0.02420
# Poissons Ratio (z) = 0.48777 -0.00991
#
# Static dielectric constant tensor:
#      x y z
#    x 1.908210 0.000000 0.004760 
#    y 0.000000 1.824320 0.000000 
#    z 0.004760 0.000000 1.906340 
# 
# From -- ./inp_files/291068.got.cif
#   From: 2010.05.17/outbox.cif.g08.bks.cpg/sg15_146_cif.got.tgz:291068.got - 2010.06.03 18:47:42.
