data_PCOD9289673
_publ_section_title
;
Structure prediction by ZEFSAII (Michael W. Deem and Ramdas Pophale) SiO2 
 PCOD9289673
Probable space group: C 2/C
;
_chemical_formula_sum "Si O2"
_cell_formula_units_Z 52
_cell_length_a 28.671888
_cell_length_b 14.339492
_cell_length_c 8.351002
_cell_angle_alpha 90.000000
_cell_angle_beta 40.922366
_cell_angle_gamma 90.000000
_cell_volume 2249.021951
_symmetry_space_group_name_H-M "C 2/C"
_symmetry_group_IT_number 15
_symmetry_cell_setting 'monoclinic'
loop_
_space_group_symop_operation_xyz
x,y,z
-x,y,1/2-z
-x,-y,-z
x,-y,1/2+z
1/2+x,1/2+y,z
1/2-x,1/2+y,1/2-z
1/2-x,1/2-y,-z
1/2+x,1/2-y,1/2+z
loop_
_atom_site_type_symbol
_atom_site_label
_atom_site_fract_x
_atom_site_fract_y
_atom_site_fract_z
Si Si1 0.000000 0.712744 0.750000
Si Si2 0.572084 0.428913 0.963748
Si Si3 0.767861 0.885941 0.864993
Si Si4 0.436541 0.039218 0.812526
Si Si5 0.664594 0.939846 0.650022
Si Si6 0.248643 0.297886 0.259947
Si Si7 0.599929 0.371798 0.525512
O O1 0.969906 0.641521 0.694911
O O2 0.938104 0.783167 0.952801
O O3 0.500000 0.405727 0.250000
O O4 0.585996 0.539649 0.949431
O O5 0.646316 0.389690 0.843983
O O6 0.569932 0.398628 0.782369
O O7 0.749897 0.812397 0.772264
O O8 0.740359 0.843075 0.104467
O O9 0.728639 0.985836 0.955304
O O10 0.500000 0.992034 0.750000
O O11 0.406536 0.975873 0.753229
O O12 0.364137 0.059339 0.097217
O O13 0.686731 0.839722 0.528675
O O14 0.320105 0.340345 0.148626
#
# Coordination Sequence:
#
# PCOD9289673 Si02
#       7
#     4   8   8   8   8   8   8
#     4  10  24  42  62  92 130 170 212 268 328 378
#     4  11  23  39  65  93 127 174 211 265 327 390
#     4  10  22  41  65  96 133 166 223 263 321 386
#     4  10  25  42  67  96 130 172 214 274 330 382
#     4  12  20  44  69  97 131 175 216 269 330 392
#     4  10  22  40  66  98 127 173 211 273 322 382
#     4  11  22  42  63  90 132 169 213 271 329 383
#
# _framework density 23.121162999999999
#
# number of rings (size 3 to 8) (size 9 to 14) (size 15 to 20)
#    0.462    0.923    3.846    1.846    0.000    1.231 
#    0.000    2.308    0.000    0.000    0.000    0.000 
#    0.000    0.000    0.000    0.000    0.000    0.000 
#
# Total GULP energy -145125.506819 kJ/mol
# GULP energy per Si atom -5581.750262 kJ/mol
# Density = 2.306854 g / cm^3
# Si number density = 23.121163 Si / 1000 Ang^3
#
#
#
# Elastic Constant Matrix: (Units=GPa)
#
#
# Indices 1 2 3 4 5 6 
#
# 1 71.8939 19.5493 25.0160 0.0000 -21.8930 0.0000
# 2 19.5493 86.2833 49.1728 0.0000 -5.7586 0.0000
# 3 25.0160 49.1728 117.9135 0.0000 -8.2637 0.0000
# 4 0.0000 0.0000 0.0000 28.5708 0.0000 -18.0600
# 5 -21.8930 -5.7586 -8.2637 0.0000 17.3952 0.0000
# 6 0.0000 0.0000 0.0000 -18.0600 0.0000 28.5223
#
#
#
# Elastic Compliance Matrix: (Units=1/GPa)
#
#
# Indices 1 2 3 4 5 6 
#
# 1 0.023894 -0.002317 -0.002120 0.000000 0.028299 0.000000
# 2 -0.002317 0.015501 -0.006018 0.000000 -0.000643 0.000000
# 3 -0.002120 -0.006018 0.011496 0.000000 0.000801 0.000000
# 4 0.000000 0.000000 0.000000 0.058359 0.000000 0.036952
# 5 0.028299 -0.000643 0.000801 0.000000 0.093270 0.000000
# 6 0.000000 0.000000 0.000000 0.036952 0.000000 0.058458
#
#
# Mechanical properties :
#
#
# Convention : Reuss Voigt Hill
#
# Bulk Modulus (GPa) = 33.35277 51.50745 42.43011
# Shear Modulus (GPa) = 17.13012 27.05450 22.09231
#
# Velocity S-wave (km/s) = 2.72487 3.42441 3.09447
# Velocity P-wave (km/s) = 4.93522 6.16125 5.58200
#
# Compressibility (1/GPa) = 0.02998252
#
# Stress axis : x y z
#
# Youngs Moduli (GPa) = 41.85067 64.51028 86.98435
#
# Poissons Ratio (x) = 0.14947 0.18439
# Poissons Ratio (y) = 0.09697 0.52347
# Poissons Ratio (z) = 0.08872 0.38822
#
# Static dielectric constant tensor:
#      x y z
#    x 1.881820 0.000000 -0.009400 
#    y 0.000000 1.851920 0.000000 
#    z -0.009400 0.000000 1.883740 
# 
# From -- ./inp_files/70098.got.cif
#   From: 2010.05.17/outbox.cif.g08.bks.cpg/sg15_36_cif.got.tgz:70098.got - 2010.06.03 18:47:42.
