data_PCOD9289771
_publ_section_title
;
Structure prediction by ZEFSAII (Michael W. Deem and Ramdas Pophale) SiO2 
 PCOD9289771
Probable space group: C 2/C
;
_chemical_formula_sum "Si O2"
_cell_formula_units_Z 36
_cell_length_a 11.983888
_cell_length_b 19.729190
_cell_length_c 9.456248
_cell_angle_alpha 90.000000
_cell_angle_beta 37.648702
_cell_angle_gamma 90.000000
_cell_volume 1365.645443
_symmetry_space_group_name_H-M "C 2/C"
_symmetry_group_IT_number 15
_symmetry_cell_setting 'monoclinic'
loop_
_space_group_symop_operation_xyz
x,y,z
-x,y,1/2-z
-x,-y,-z
x,-y,1/2+z
1/2+x,1/2+y,z
1/2-x,1/2+y,1/2-z
1/2-x,1/2-y,-z
1/2+x,1/2-y,1/2+z
loop_
_atom_site_type_symbol
_atom_site_label
_atom_site_fract_x
_atom_site_fract_y
_atom_site_fract_z
Si Si1 0.880630 0.455780 0.225488
Si Si2 0.938774 0.838513 0.661397
Si Si3 0.126224 0.930487 0.251915
Si Si4 0.469831 0.184099 0.980502
Si Si5 0.000000 0.365403 0.750000
O O1 0.689078 0.471483 0.331516
O O2 0.000000 0.465816 0.250000
O O3 0.000000 0.500000 0.000000
O O4 0.886118 0.373942 0.203902
O O5 0.016310 0.870014 0.439302
O O6 0.987225 0.758888 0.611424
O O7 0.000000 0.869424 0.750000
O O8 0.721923 0.842751 0.881002
O O9 0.000000 0.957529 0.250000
O O10 0.315554 0.906587 0.981327
O O11 0.454576 0.181270 0.163679
#
# Coordination Sequence:
#
# PCOD9289771 Si02
#       5
#     8   8   8   8   4
#     4  11  26  47  73 101 143 191 240 300 357 416
#     4  12  24  41  70 106 146 185 232 292 361 434
#     4  11  24  46  75 107 144 188 240 292 358 431
#     4  11  23  40  68 100 145 180 236 288 360 423
#     4  10  22  40  68 100 146 176 234 292 348 410
#
# _framework density 26.361160000000002
#
# number of rings (size 3 to 8) (size 9 to 14) (size 15 to 20)
#    0.000    0.889    2.222    5.333    7.778    1.778 
#    0.000    5.556    0.000    0.000    0.000    0.000 
#    0.000    0.000    0.000    0.000    0.000    0.000 
#
# Total GULP energy -100373.825208 kJ/mol
# GULP energy per Si atom -5576.323623 kJ/mol
# Density = 2.630116 g / cm^3
# Si number density = 26.361160 Si / 1000 Ang^3
#
#
#
# Elastic Constant Matrix: (Units=GPa)
#
#
# Indices 1 2 3 4 5 6 
#
# 1 297.8274 7.6962 50.9118 0.0000 30.1074 0.0000
# 2 7.6962 81.1992 33.7210 0.0000 22.1977 0.0000
# 3 50.9118 33.7210 128.6098 0.0001 24.2806 -0.0001
# 4 0.0000 0.0000 0.0001 45.9409 0.0000 9.0952
# 5 30.1074 22.1977 24.2806 0.0000 72.8000 0.0000
# 6 0.0000 0.0000 -0.0001 9.0952 0.0000 7.4343
#
#
#
# Elastic Compliance Matrix: (Units=1/GPa)
#
#
# Indices 1 2 3 4 5 6 
#
# 1 0.003705 0.000561 -0.001379 0.000000 -0.001243 0.000000
# 2 0.000561 0.014645 -0.003389 0.000000 -0.003567 0.000000
# 3 -0.001379 -0.003389 0.009506 0.000000 -0.001567 0.000000
# 4 0.000000 0.000000 0.000000 0.028724 0.000000 -0.035142
# 5 -0.001243 -0.003567 -0.001567 0.000000 0.015861 0.000000
# 6 0.000000 0.000000 0.000000 -0.035142 0.000000 0.177503
#
#
# Mechanical properties :
#
#
# Convention : Reuss Voigt Hill
#
# Bulk Modulus (GPa) = 51.43323 76.92160 64.17742
# Shear Modulus (GPa) = 18.87959 52.92220 35.90089
#
# Velocity S-wave (km/s) = 2.67908 4.48547 3.69438
# Velocity P-wave (km/s) = 5.39660 7.48793 6.52658
#
# Compressibility (1/GPa) = 0.01944268
#
# Stress axis : x y z
#
# Youngs Moduli (GPa) = 269.93785 68.28449 105.20109
#
# Poissons Ratio (x) = -0.03834 0.14507
# Poissons Ratio (y) = -0.15155 0.35648
# Poissons Ratio (z) = 0.37224 0.23138
#
# Static dielectric constant tensor:
#      x y z
#    x 2.227090 0.000000 -0.054020 
#    y 0.000000 2.096770 0.000000 
#    z -0.054020 0.000000 2.103270 
# 
# From -- ./inp_files/33273.got.cif
#   From: 2010.05.17/outbox.cif.g08.bks.cpg/sg15_17_cif.got.tgz:33273.got - 2010.06.03 18:47:42.
