data_PCOD9289649
_publ_section_title
;
Structure prediction by ZEFSAII (Michael W. Deem and Ramdas Pophale) SiO2 
 PCOD9289649
Probable space group: C 2/C
;
_chemical_formula_sum "Si O2"
_cell_formula_units_Z 48
_cell_length_a 15.026349
_cell_length_b 13.567418
_cell_length_c 29.107546
_cell_angle_alpha 90.000000
_cell_angle_beta 23.952182
_cell_angle_gamma 90.000000
_cell_volume 2409.098563
_symmetry_space_group_name_H-M "C 2/C"
_symmetry_group_IT_number 15
_symmetry_cell_setting 'monoclinic'
loop_
_space_group_symop_operation_xyz
x,y,z
-x,y,1/2-z
-x,-y,-z
x,-y,1/2+z
1/2+x,1/2+y,z
1/2-x,1/2+y,1/2-z
1/2-x,1/2-y,-z
1/2+x,1/2-y,1/2+z
loop_
_atom_site_type_symbol
_atom_site_label
_atom_site_fract_x
_atom_site_fract_y
_atom_site_fract_z
Si Si1 0.211616 0.332227 0.181632
Si Si2 0.000000 0.284754 0.750000
Si Si3 0.851718 0.122088 0.892377
Si Si4 0.136249 0.000249 0.328087
Si Si5 0.546755 0.395701 0.953721
Si Si6 0.160166 0.637418 0.344149
Si Si7 0.500000 0.463832 0.750000
O O1 0.220142 0.436269 0.204072
O O2 0.249864 0.248402 0.201641
O O3 0.000000 0.323017 0.250000
O O4 0.403902 0.323820 0.052768
O O5 0.047770 0.215532 0.682737
O O6 0.209659 0.353095 0.659429
O O7 0.986604 0.079529 0.872134
O O8 0.878214 0.033061 0.843899
O O9 0.599136 0.139235 0.024524
O O10 0.996845 0.078428 0.424239
O O11 0.281191 0.064231 0.225000
O O12 0.500000 0.500000 0.000000
O O13 0.308734 0.597229 0.315954
#
# Coordination Sequence:
#
# PCOD9289649 Si02
#       7
#     8   4   8   8   8   8   4
#     4  11  24  44  66  94 133 178 216 261 337 400
#     4  11  22  42  71  98 126 178 229 262 325 400
#     4  10  22  40  66  96 132 169 227 274 321 383
#     4  10  26  40  63 100 131 169 219 274 327 388
#     4  10  24  43  64  95 132 176 214 270 330 391
#     4  11  21  42  67  95 133 168 219 279 327 384
#     4   9  20  40  61  96 132 180 211 264 339 396
#
# _framework density 19.924465000000001
#
# number of rings (size 3 to 8) (size 9 to 14) (size 15 to 20)
#    0.000    1.667    2.500    0.500    9.333    2.000 
#    0.000    0.833    0.000    0.000    0.000    0.000 
#    0.000    0.000    0.000    0.000    0.000    0.000 
#
# Total GULP energy -133774.080629 kJ/mol
# GULP energy per Si atom -5573.920026 kJ/mol
# Density = 1.987912 g / cm^3
# Si number density = 19.924465 Si / 1000 Ang^3
#
#
#
# Elastic Constant Matrix: (Units=GPa)
#
#
# Indices 1 2 3 4 5 6 
#
# 1 88.5533 44.4565 58.5249 -0.0014 3.4028 0.0009
# 2 44.4565 103.7989 43.9142 0.0013 -7.5980 0.0025
# 3 58.5249 43.9142 122.6773 0.0164 -10.6225 0.0086
# 4 -0.0014 0.0013 0.0164 25.0346 0.0016 -8.5240
# 5 3.4028 -7.5980 -10.6225 0.0016 11.1188 0.0027
# 6 0.0009 0.0025 0.0086 -8.5240 0.0027 32.7381
#
#
#
# Elastic Compliance Matrix: (Units=1/GPa)
#
#
# Indices 1 2 3 4 5 6 
#
# 1 0.022027 -0.006776 -0.009885 0.000012 -0.020816 0.000007
# 2 -0.006776 0.013623 -0.000718 -0.000002 0.010697 -0.000002
# 3 -0.009885 -0.000718 0.014547 -0.000014 0.016433 -0.000009
# 4 0.000012 -0.000002 -0.000014 0.043830 -0.000027 0.011412
# 5 -0.020816 0.010697 0.016433 -0.000027 0.119318 -0.000022
# 6 0.000007 -0.000002 -0.000009 0.011412 -0.000022 0.033517
#
#
# Mechanical properties :
#
#
# Convention : Reuss Voigt Hill
#
# Bulk Modulus (GPa) = 64.76849 67.64675 66.20762
# Shear Modulus (GPa) = 17.43577 24.98720 21.21149
#
# Velocity S-wave (km/s) = 2.96141 3.54516 3.26635
# Velocity P-wave (km/s) = 6.65363 7.12621 6.89397
#
# Compressibility (1/GPa) = 0.01543961
#
# Stress axis : x y z
#
# Youngs Moduli (GPa) = 45.39798 73.40698 68.74124
#
# Poissons Ratio (x) = 0.49738 0.67954
# Poissons Ratio (y) = 0.30760 0.04934
# Poissons Ratio (z) = 0.44878 0.05269
#
# Static dielectric constant tensor:
#      x y z
#    x 1.726230 0.000000 0.023420 
#    y 0.000000 1.727200 -0.000010 
#    z 0.023420 -0.000010 1.710690 
# 
# From -- ./inp_files/96265.got.cif
#   From: 2010.05.17/outbox.cif.g08.bks.cpg/sg15_49_cif.got.tgz:96265.got - 2010.06.03 18:47:42.
