data_PCOD9289675
_publ_section_title
;
Structure prediction by ZEFSAII (Michael W. Deem and Ramdas Pophale) SiO2 
 PCOD9289675
Probable space group: C 2/C
;
_chemical_formula_sum "Si O2"
_cell_formula_units_Z 52
_cell_length_a 27.913217
_cell_length_b 11.297961
_cell_length_c 17.389751
_cell_angle_alpha 90.000000
_cell_angle_beta 24.444227
_cell_angle_gamma 90.000000
_cell_volume 2269.349794
_symmetry_space_group_name_H-M "C 2/C"
_symmetry_group_IT_number 15
_symmetry_cell_setting 'monoclinic'
loop_
_space_group_symop_operation_xyz
x,y,z
-x,y,1/2-z
-x,-y,-z
x,-y,1/2+z
1/2+x,1/2+y,z
1/2-x,1/2+y,1/2-z
1/2-x,1/2-y,-z
1/2+x,1/2-y,1/2+z
loop_
_atom_site_type_symbol
_atom_site_label
_atom_site_fract_x
_atom_site_fract_y
_atom_site_fract_z
Si Si1 0.717446 0.862365 0.938677
Si Si2 0.255232 0.334155 0.566894
Si Si3 0.883414 0.435038 0.998097
Si Si4 0.000000 0.217831 0.750000
Si Si5 0.188265 0.217765 0.829754
Si Si6 0.583485 0.714430 0.258378
Si Si7 0.425518 0.963450 0.180232
O O1 0.729902 0.810102 0.834329
O O2 0.831424 0.877429 0.824827
O O3 0.663705 0.992725 0.005828
O O4 0.634560 0.768203 0.104399
O O5 0.250000 0.250000 0.500000
O O6 0.390977 0.356607 0.382388
O O7 0.205427 0.272001 0.718133
O O8 0.181877 0.450296 0.658128
O O9 0.771826 0.396927 0.210588
O O10 0.948805 0.311518 0.886474
O O11 0.979187 0.520891 0.892818
O O12 0.052799 0.188976 0.041841
O O13 0.605674 0.827920 0.280803
O O14 0.500000 0.000000 0.000000
#
# Coordination Sequence:
#
# PCOD9289675 Si02
#       7
#     8   8   8   4   8   8   8
#     4  11  24  43  68 100 134 179 243 283 350 425
#     4  11  23  39  66 105 137 176 230 288 347 411
#     4  11  22  39  68  98 133 181 230 283 346 416
#     4  10  22  40  66  98 132 178 224 290 342 400
#     4  11  24  39  66 101 136 178 228 295 343 409
#     4  11  24  42  71  95 136 187 229 292 346 421
#     4  12  21  40  69  99 133 184 230 282 347 414
#
# _framework density 22.914052999999999
#
# number of rings (size 3 to 8) (size 9 to 14) (size 15 to 20)
#    0.000    0.923    4.615    2.308    2.154    0.615 
#    0.000    0.000   27.077    0.000    0.000    0.000 
#    0.000    0.000    0.000    0.000    0.000    0.000 
#
# Total GULP energy -145242.390400 kJ/mol
# GULP energy per Si atom -5586.245785 kJ/mol
# Density = 2.286190 g / cm^3
# Si number density = 22.914053 Si / 1000 Ang^3
#
#
#
# Elastic Constant Matrix: (Units=GPa)
#
#
# Indices 1 2 3 4 5 6 
#
# 1 79.3862 6.2761 31.7567 0.0000 11.3511 0.0000
# 2 6.2761 39.3137 23.4266 0.0000 -8.8441 0.0000
# 3 31.7567 23.4266 166.1499 0.0000 -20.3204 0.0000
# 4 0.0000 0.0000 0.0000 31.2557 0.0000 -6.4431
# 5 11.3511 -8.8441 -20.3204 0.0000 49.4918 0.0000
# 6 0.0000 0.0000 0.0000 -6.4431 0.0000 36.1975
#
#
#
# Elastic Compliance Matrix: (Units=1/GPa)
#
#
# Indices 1 2 3 4 5 6 
#
# 1 0.014710 -0.001559 -0.003199 0.000000 -0.004966 0.000000
# 2 -0.001559 0.028534 -0.003220 0.000000 0.004135 0.000000
# 3 -0.003199 -0.003220 0.007479 0.000000 0.003229 0.000000
# 4 0.000000 0.000000 0.000000 0.033213 0.000000 0.005912
# 5 -0.004966 0.004135 0.003229 0.000000 0.023409 0.000000
# 6 0.000000 0.000000 0.000000 0.005912 0.000000 0.028679
#
#
# Mechanical properties :
#
#
# Convention : Reuss Voigt Hill
#
# Bulk Modulus (GPa) = 28.76269 45.30762 37.03516
# Shear Modulus (GPa) = 30.56849 38.28171 34.42510
#
# Velocity S-wave (km/s) = 3.65643 4.09181 3.88023
# Velocity P-wave (km/s) = 5.51413 6.49151 6.02268
#
# Compressibility (1/GPa) = 0.03476726
#
# Stress axis : x y z
#
# Youngs Moduli (GPa) = 67.98269 35.04600 133.70847
#
# Poissons Ratio (x) = 0.05464 0.42773
# Poissons Ratio (y) = 0.10599 0.43048
# Poissons Ratio (z) = 0.21748 0.11283
#
# Static dielectric constant tensor:
#      x y z
#    x 2.065830 0.000000 0.031490 
#    y 0.000000 1.840270 0.000000 
#    z 0.031490 0.000000 1.876750 
# 
# From -- ./inp_files/259335.got.cif
#   From: 2010.05.17/outbox.cif.g08.bks.cpg/sg15_130_cif.got.tgz:259335.got - 2010.06.03 18:47:42.
