data_PCOD9289575
_publ_section_title
;
Structure prediction by ZEFSAII (Michael W. Deem and Ramdas Pophale) SiO2 
 PCOD9289575
Probable space group: C 2/C
;
_chemical_formula_sum "Si O2"
_cell_formula_units_Z 40
_cell_length_a 20.036690
_cell_length_b 10.727507
_cell_length_c 10.950617
_cell_angle_alpha 90.000000
_cell_angle_beta 45.620981
_cell_angle_gamma 90.000000
_cell_volume 1682.304791
_symmetry_space_group_name_H-M "C 2/C"
_symmetry_group_IT_number 15
_symmetry_cell_setting 'monoclinic'
loop_
_space_group_symop_operation_xyz
x,y,z
-x,y,1/2-z
-x,-y,-z
x,-y,1/2+z
1/2+x,1/2+y,z
1/2-x,1/2+y,1/2-z
1/2-x,1/2-y,-z
1/2+x,1/2-y,1/2+z
loop_
_atom_site_type_symbol
_atom_site_label
_atom_site_fract_x
_atom_site_fract_y
_atom_site_fract_z
Si Si1 0.136035 0.862605 0.629343
Si Si2 0.718876 0.750372 0.682947
Si Si3 0.327658 0.976903 0.173851
Si Si4 0.334520 0.083309 0.931765
Si Si5 0.957346 0.119887 0.493517
O O1 0.221459 0.941996 0.573055
O O2 0.167560 0.729208 0.539383
O O3 0.095550 0.926421 0.560924
O O4 0.052634 0.819645 0.823606
O O5 0.750000 0.750000 0.500000
O O6 0.774901 0.647522 0.692498
O O7 0.726344 0.891660 0.726316
O O8 0.611280 0.703682 0.838043
O O9 0.370029 0.946931 0.251476
O O10 0.383701 0.015056 0.980384
O O11 0.000000 0.000000 0.500000
#
# Coordination Sequence:
#
# PCOD9289575 Si02
#       5
#     8   8   8   8   8
#     4  10  22  40  66 100 143 189 240 297 386 440
#     4  12  25  43  72 111 150 193 255 311 377 463
#     4  12  23  42  73 107 145 193 256 310 371 451
#     4  11  21  42  71 101 141 199 240 305 373 455
#     4  11  23  41  68 105 143 188 247 315 371 443
#
# _framework density 23.776903999999998
#
# number of rings (size 3 to 8) (size 9 to 14) (size 15 to 20)
#    0.000    0.800    6.000    2.400    0.000    0.000 
#    0.000    1.000    4.400    0.000    0.000    0.000 
#    0.000    0.000    0.000    0.000    0.000    0.000 
#
# Total GULP energy -111429.808336 kJ/mol
# GULP energy per Si atom -5571.490417 kJ/mol
# Density = 2.372279 g / cm^3
# Si number density = 23.776904 Si / 1000 Ang^3
#
#
#
# Elastic Constant Matrix: (Units=GPa)
#
#
# Indices 1 2 3 4 5 6 
#
# 1 85.4114 32.8142 53.5507 0.0000 37.3442 0.0000
# 2 32.8142 126.9507 18.6170 0.0000 23.9490 0.0000
# 3 53.5507 18.6170 149.2165 0.0000 28.0152 0.0000
# 4 0.0000 0.0000 0.0000 35.0414 0.0000 11.7540
# 5 37.3442 23.9490 28.0152 0.0000 56.1201 0.0000
# 6 0.0000 0.0000 0.0000 11.7540 0.0000 39.0722
#
#
#
# Elastic Compliance Matrix: (Units=1/GPa)
#
#
# Indices 1 2 3 4 5 6 
#
# 1 0.020171 -0.002627 -0.005078 0.000000 -0.009767 0.000000
# 2 -0.002627 0.008933 0.000238 0.000000 -0.002183 0.000000
# 3 -0.005078 0.000238 0.008694 0.000000 -0.001063 0.000000
# 4 0.000000 0.000000 0.000000 0.031741 0.000000 -0.009548
# 5 -0.009767 -0.002183 -0.001063 0.000000 0.025780 0.000000
# 6 0.000000 0.000000 0.000000 -0.009548 0.000000 0.028466
#
#
# Mechanical properties :
#
#
# Convention : Reuss Voigt Hill
#
# Bulk Modulus (GPa) = 43.73457 63.50471 53.61964
# Shear Modulus (GPa) = 34.16733 43.15317 38.66025
#
# Velocity S-wave (km/s) = 3.79489 4.26481 4.03669
# Velocity P-wave (km/s) = 6.13475 7.14269 6.65782
#
# Compressibility (1/GPa) = 0.02286520
#
# Stress axis : x y z
#
# Youngs Moduli (GPa) = 49.57621 111.94524 115.02559
#
# Poissons Ratio (x) = 0.29405 0.58404
# Poissons Ratio (y) = 0.13022 -0.02738
# Poissons Ratio (z) = 0.25172 -0.02664
#
# Static dielectric constant tensor:
#      x y z
#    x 1.972420 0.000000 0.051950 
#    y 0.000000 2.408290 0.000000 
#    z 0.051950 0.000000 1.747520 
# 
# From -- ./inp_files/117389.got.cif
#   From: 2010.05.17/outbox.cif.g08.bks.cpg/sg15_59_cif.got.tgz:117389.got - 2010.06.03 18:47:42.
