data_PCOD9289656
_publ_section_title
;
Structure prediction by ZEFSAII (Michael W. Deem and Ramdas Pophale) SiO2 
 PCOD9289656
Probable space group: C 2/C
;
_chemical_formula_sum "Si O2"
_cell_formula_units_Z 36
_cell_length_a 11.603086
_cell_length_b 10.224674
_cell_length_c 19.590202
_cell_angle_alpha 90.000000
_cell_angle_beta 43.049868
_cell_angle_gamma 90.000000
_cell_volume 1586.537055
_symmetry_space_group_name_H-M "C 2/C"
_symmetry_group_IT_number 15
_symmetry_cell_setting 'monoclinic'
loop_
_space_group_symop_operation_xyz
x,y,z
-x,y,1/2-z
-x,-y,-z
x,-y,1/2+z
1/2+x,1/2+y,z
1/2-x,1/2+y,1/2-z
1/2-x,1/2-y,-z
1/2+x,1/2-y,1/2+z
loop_
_atom_site_type_symbol
_atom_site_label
_atom_site_fract_x
_atom_site_fract_y
_atom_site_fract_z
Si Si1 0.500000 0.729851 0.250000
Si Si2 0.928150 0.483768 0.210283
Si Si3 0.092152 0.325948 0.532559
Si Si4 0.345367 0.519361 0.857610
Si Si5 0.955461 0.947783 0.093627
O O1 0.477398 0.830125 0.197022
O O2 0.652194 0.626915 0.173171
O O3 0.726840 0.491603 0.300700
O O4 0.000000 0.542796 0.250000
O O5 0.014280 0.561088 0.112621
O O6 0.250000 0.250000 0.500000
O O7 0.176618 0.396209 0.430671
O O8 0.961593 0.208542 0.582200
O O9 0.500000 0.587672 0.750000
O O10 0.409497 0.508420 0.907890
O O11 0.000000 0.000000 0.000000
#
# Coordination Sequence:
#
# PCOD9289656 Si02
#       5
#     4   8   8   8   8
#     4   8  22  42  62  94 134 168 220 266 354 362
#     4  10  22  41  65  95 137 173 215 280 333 399
#     4  10  22  40  66  97 127 173 223 263 336 393
#     4   9  21  45  65  95 132 174 221 277 328 404
#     4  11  24  41  66  99 131 173 223 275 336 396
#
# _framework density 22.690930000000002
#
# number of rings (size 3 to 8) (size 9 to 14) (size 15 to 20)
#    1.333    0.889    0.000    2.667    3.111    8.000 
#    0.000    2.222    0.000    0.000    0.000    0.000 
#    0.000    0.000    0.000    0.000    0.000    0.000 
#
# Total GULP energy -100373.453795 kJ/mol
# GULP energy per Si atom -5576.302989 kJ/mol
# Density = 2.263928 g / cm^3
# Si number density = 22.690930 Si / 1000 Ang^3
#
#
#
# Elastic Constant Matrix: (Units=GPa)
#
#
# Indices 1 2 3 4 5 6 
#
# 1 54.5739 15.6289 8.8899 0.0000 -6.8721 0.0000
# 2 15.6289 148.1414 72.3427 0.0000 -5.8212 0.0000
# 3 8.8899 72.3427 144.0426 0.0000 -13.6076 0.0000
# 4 0.0000 0.0000 0.0000 50.2488 0.0000 -5.7675
# 5 -6.8721 -5.8212 -13.6076 0.0000 35.8267 0.0000
# 6 0.0000 0.0000 0.0000 -5.7675 0.0000 -21.2996
#
#
#
# Elastic Compliance Matrix: (Units=1/GPa)
#
#
# Indices 1 2 3 4 5 6 
#
# 1 0.019297 -0.001958 0.000116 0.000000 0.003427 0.000000
# 2 -0.001958 0.009145 -0.004530 0.000000 -0.000610 0.000000
# 3 0.000116 -0.004530 0.009483 0.000000 0.002888 0.000000
# 4 0.000000 0.000000 0.000000 0.019301 0.000000 -0.005226
# 5 0.003427 -0.000610 0.002888 0.000000 0.029567 0.000000
# 6 0.000000 0.000000 0.000000 -0.005226 0.000000 -0.045534
#
#
# Mechanical properties :
#
#
# Convention : Reuss Voigt Hill
#
# Bulk Modulus (GPa) = 39.71049 60.05341 49.88195
# Shear Modulus (GPa) = 80.13279 29.61492 54.87386
#
# Velocity S-wave (km/s) = 5.94908 3.61660 4.92297
# Velocity P-wave (km/s) = 8.04533 6.63046 7.37192
#
# Compressibility (1/GPa) = 0.02518226
#
# Stress axis : x y z
#
# Youngs Moduli (GPa) = 51.82108 109.35089 105.45201
#
# Poissons Ratio (x) = 0.21410 -0.01225
# Poissons Ratio (y) = 0.10146 0.47766
# Poissons Ratio (z) = -0.00602 0.49532
#
# Static dielectric constant tensor:
#      x y z
#    x 1.942070 0.000000 -0.027670 
#    y 0.000000 1.846330 0.000000 
#    z -0.027670 0.000000 1.857560 
# 
# From -- ./inp_files/195876.got.cif
#   From: 2010.05.17/outbox.cif.g08.bks.cpg/sg15_98_cif.got.tgz:195876.got - 2010.06.03 18:47:42.
