data_PCOD9289555
_publ_section_title
;
Structure prediction by ZEFSAII (Michael W. Deem and Ramdas Pophale) SiO2 
 PCOD9289555
Probable space group: C 2/C
;
_chemical_formula_sum "Si O2"
_cell_formula_units_Z 32
_cell_length_a 9.353573
_cell_length_b 10.199040
_cell_length_c 13.619072
_cell_angle_alpha 90.000000
_cell_angle_beta 85.061424
_cell_angle_gamma 90.000000
_cell_volume 1294.401653
_symmetry_space_group_name_H-M "C 2/C"
_symmetry_group_IT_number 15
_symmetry_cell_setting 'monoclinic'
loop_
_space_group_symop_operation_xyz
x,y,z
-x,y,1/2-z
-x,-y,-z
x,-y,1/2+z
1/2+x,1/2+y,z
1/2-x,1/2+y,1/2-z
1/2-x,1/2-y,-z
1/2+x,1/2-y,1/2+z
loop_
_atom_site_type_symbol
_atom_site_label
_atom_site_fract_x
_atom_site_fract_y
_atom_site_fract_z
Si Si1 0.664406 0.321777 0.729864
Si Si2 0.430136 0.339517 0.157529
Si Si3 0.710567 0.597123 0.016420
Si Si4 0.324316 0.146881 0.420331
O O1 0.500000 0.281280 0.750000
O O2 0.770970 0.201540 0.699859
O O3 0.321523 0.414311 0.866751
O O4 0.726925 0.372632 0.828935
O O5 0.500000 0.401875 0.250000
O O6 0.527439 0.211410 0.125849
O O7 0.415488 0.414925 0.056775
O O8 0.750000 0.750000 0.000000
O O9 0.827854 0.491260 0.976237
O O10 0.250000 0.250000 0.500000
#
# Coordination Sequence:
#
# PCOD9289555 Si02
#       4
#     8   8   8   8
#     4  10  22  40  65  97 131 170 218 272 330 393
#     4   9  21  43  67  96 135 176 220 273 333 397
#     4  10  23  42  66  94 129 170 219 270 324 391
#     4  11  24  42  67  97 131 173 219 273 335 393
#
# _framework density 24.721848000000001
#
# number of rings (size 3 to 8) (size 9 to 14) (size 15 to 20)
#    0.000    2.000    0.000    1.500    0.000   15.000 
#    0.000   15.000    0.000    0.000    0.000    0.000 
#    0.000    0.000    0.000    0.000    0.000    0.000 
#
# Total GULP energy -89419.266225 kJ/mol
# GULP energy per Si atom -5588.704139 kJ/mol
# Density = 2.466558 g / cm^3
# Si number density = 24.721848 Si / 1000 Ang^3
#
#
#
# Elastic Constant Matrix: (Units=GPa)
#
#
# Indices 1 2 3 4 5 6 
#
# 1 145.1660 18.3674 69.0045 0.0000 -12.4175 0.0000
# 2 18.3674 119.9837 57.6538 0.0000 -24.5805 0.0000
# 3 69.0045 57.6538 206.5375 0.0000 21.3188 0.0000
# 4 0.0000 0.0000 0.0000 51.4685 0.0000 -17.6822
# 5 -12.4175 -24.5805 21.3188 0.0000 58.6494 0.0000
# 6 0.0000 0.0000 0.0000 -17.6822 0.0000 20.4617
#
#
#
# Elastic Compliance Matrix: (Units=1/GPa)
#
#
# Indices 1 2 3 4 5 6 
#
# 1 0.008784 0.001152 -0.003635 0.000000 0.003664 0.000000
# 2 0.001152 0.011596 -0.004311 0.000000 0.006671 0.000000
# 3 -0.003635 -0.004311 0.007819 0.000000 -0.005418 0.000000
# 4 0.000000 0.000000 0.000000 0.027633 0.000000 0.023880
# 5 0.003664 0.006671 -0.005418 0.000000 0.022591 0.000000
# 6 0.000000 0.000000 0.000000 0.023880 0.000000 0.069508
#
#
# Mechanical properties :
#
#
# Convention : Reuss Voigt Hill
#
# Bulk Modulus (GPa) = 68.43197 84.63764 76.53480
# Shear Modulus (GPa) = 30.05031 47.89334 38.97183
#
# Velocity S-wave (km/s) = 3.49024 4.40624 3.97471
# Velocity P-wave (km/s) = 6.63198 7.75866 7.21734
#
# Compressibility (1/GPa) = 0.01461305
#
# Stress axis : x y z
#
# Youngs Moduli (GPa) = 113.84351 86.23712 127.90024
#
# Poissons Ratio (x) = -0.09938 0.46487
# Poissons Ratio (y) = -0.13120 0.55132
# Poissons Ratio (z) = 0.41378 0.37173
#
# Static dielectric constant tensor:
#      x y z
#    x 2.002600 0.000000 0.030600 
#    y 0.000000 2.045920 0.000000 
#    z 0.030600 0.000000 1.997560 
# 
# From -- ./inp_files/131953.got.cif
#   From: 2010.05.17/outbox.cif.g08.bks.cpg/sg15_66_cif.got.tgz:131953.got - 2010.06.03 18:47:42.
