data_PCOD9289328
_publ_section_title
;
Structure prediction by ZEFSAII (Michael W. Deem and Ramdas Pophale) SiO2 
 PCOD9289328
Probable space group: C 2/C
;
_chemical_formula_sum "Si O2"
_cell_formula_units_Z 52
_cell_length_a 8.268005
_cell_length_b 21.363841
_cell_length_c 14.109812
_cell_angle_alpha 90.000000
_cell_angle_beta 88.783322
_cell_angle_gamma 90.000000
_cell_volume 2491.743707
_symmetry_space_group_name_H-M "C 2/C"
_symmetry_group_IT_number 15
_symmetry_cell_setting 'monoclinic'
loop_
_space_group_symop_operation_xyz
x,y,z
-x,y,1/2-z
-x,-y,-z
x,-y,1/2+z
1/2+x,1/2+y,z
1/2-x,1/2+y,1/2-z
1/2-x,1/2-y,-z
1/2+x,1/2-y,1/2+z
loop_
_atom_site_type_symbol
_atom_site_label
_atom_site_fract_x
_atom_site_fract_y
_atom_site_fract_z
Si Si1 0.733778 0.714318 0.899532
Si Si2 0.671086 0.466349 0.987678
Si Si3 0.284617 0.837818 0.909258
Si Si4 0.092420 0.713078 0.901409
Si Si5 0.684190 0.077981 0.621114
Si Si6 0.697852 0.904976 0.329862
Si Si7 0.500000 0.780603 0.750000
O O1 0.723126 0.639709 0.917466
O O2 0.600635 0.741335 0.828767
O O3 0.916951 0.718698 0.857183
O O4 0.750000 0.750000 0.000000
O O5 0.709876 0.440849 0.090672
O O6 0.500000 0.500000 0.000000
O O7 0.700458 0.404866 0.922288
O O8 0.789482 0.519657 0.946543
O O9 0.154957 0.782269 0.918874
O O10 0.378913 0.824606 0.811409
O O11 0.404541 0.823635 0.997176
O O12 0.215397 0.670399 0.838617
O O13 0.493048 0.087519 0.643171
O O14 0.746877 0.069841 0.727452
#
# Coordination Sequence:
#
# PCOD9289328 Si02
#       7
#     8   8   8   8   8   8   4
#     4  11  23  40  67 100 131 169 221 277 333 398
#     4  11  25  41  61  93 132 169 211 270 328 390
#     4  10  22  40  63  95 129 171 218 274 338 397
#     4   9  19  41  66  92 131 165 215 280 331 387
#     4  10  22  41  67  93 123 172 218 264 324 400
#     4   9  20  42  67  90 122 169 220 262 320 395
#     4  12  24  40  68 102 130 174 228 282 340 402
#
# _framework density 20.868919999999999
#
# number of rings (size 3 to 8) (size 9 to 14) (size 15 to 20)
#    0.000    1.846    1.538    1.385    2.154    6.154 
#    2.769    1.538    0.000    0.000    0.000    0.000 
#    0.000    0.000    0.000    0.000    0.000    0.000 
#
# Total GULP energy -145034.540521 kJ/mol
# GULP energy per Si atom -5578.251559 kJ/mol
# Density = 2.082142 g / cm^3
# Si number density = 20.868920 Si / 1000 Ang^3
#
#
#
# Elastic Constant Matrix: (Units=GPa)
#
#
# Indices 1 2 3 4 5 6 
#
# 1 73.8139 47.9398 29.3754 0.0000 18.0529 0.0000
# 2 47.9398 149.6679 47.1521 0.0000 5.9212 0.0000
# 3 29.3754 47.1521 78.6896 0.0000 14.5270 0.0000
# 4 0.0000 0.0000 0.0000 24.4795 0.0000 1.6385
# 5 18.0529 5.9212 14.5270 0.0000 33.3599 0.0000
# 6 0.0000 0.0000 0.0000 1.6385 0.0000 32.4548
#
#
#
# Elastic Compliance Matrix: (Units=1/GPa)
#
#
# Indices 1 2 3 4 5 6 
#
# 1 0.020215 -0.005253 -0.002774 0.000000 -0.008799 0.000000
# 2 -0.005253 0.009618 -0.004363 0.000000 0.003035 0.000000
# 3 -0.002774 -0.004363 0.017331 0.000000 -0.005271 0.000000
# 4 0.000000 0.000000 0.000000 0.040989 0.000000 -0.002069
# 5 -0.008799 0.003035 -0.005271 0.000000 0.036494 0.000000
# 6 0.000000 0.000000 0.000000 -0.002069 0.000000 0.030917
#
#
# Mechanical properties :
#
#
# Convention : Reuss Voigt Hill
#
# Bulk Modulus (GPa) = 44.67375 61.23400 52.95387
# Shear Modulus (GPa) = 26.62299 29.90577 28.26438
#
# Velocity S-wave (km/s) = 3.57560 3.78964 3.68418
# Velocity P-wave (km/s) = 6.20483 6.96810 6.59751
#
# Compressibility (1/GPa) = 0.02238451
#
# Stress axis : x y z
#
# Youngs Moduli (GPa) = 49.46724 103.96689 57.69881
#
# Poissons Ratio (x) = 0.54613 0.16009
# Poissons Ratio (y) = 0.25985 0.25174
# Poissons Ratio (z) = 0.13725 0.45360
#
# Static dielectric constant tensor:
#      x y z
#    x 1.790110 0.000000 -0.004980 
#    y 0.000000 1.778570 0.000000 
#    z -0.004980 0.000000 1.775640 
# 
# From -- ./inp_files/136000.got.cif
#   From: 2010.05.17/outbox.cif.g08.bks.cpg/sg15_68_cif.got.tgz:136000.got - 2010.06.03 18:47:42.
