data_PCOD9289194
_publ_section_title
;
Structure prediction by ZEFSAII (Michael W. Deem and Ramdas Pophale) SiO2 
 PCOD9289194
Probable space group: C 2/C
;
_chemical_formula_sum "Si O2"
_cell_formula_units_Z 52
_cell_length_a 12.115922
_cell_length_b 22.929446
_cell_length_c 11.265274
_cell_angle_alpha 90.000000
_cell_angle_beta 121.153744
_cell_angle_gamma 90.000000
_cell_volume 2678.274191
_symmetry_space_group_name_H-M "C 2/C"
_symmetry_group_IT_number 15
_symmetry_cell_setting 'monoclinic'
loop_
_space_group_symop_operation_xyz
x,y,z
-x,y,1/2-z
-x,-y,-z
x,-y,1/2+z
1/2+x,1/2+y,z
1/2-x,1/2+y,1/2-z
1/2-x,1/2-y,-z
1/2+x,1/2-y,1/2+z
loop_
_atom_site_type_symbol
_atom_site_label
_atom_site_fract_x
_atom_site_fract_y
_atom_site_fract_z
Si Si1 0.636260 0.240438 0.793080
Si Si2 0.592700 0.444662 0.914356
Si Si3 0.500000 0.346760 0.250000
Si Si4 0.693746 0.152606 0.021323
Si Si5 0.117018 0.626538 0.229843
Si Si6 0.127249 0.927577 0.516730
Si Si7 0.289531 0.254797 0.158821
O O1 0.500000 0.268037 0.750000
O O2 0.740737 0.288610 0.889538
O O3 0.663911 0.233448 0.669585
O O4 0.640342 0.180124 0.869310
O O5 0.500000 0.451795 0.750000
O O6 0.699903 0.396084 0.949163
O O7 0.496861 0.427558 0.967035
O O8 0.650398 0.507541 0.980190
O O9 0.583916 0.385484 0.386209
O O10 0.393701 0.304262 0.248374
O O11 0.605224 0.126709 0.079015
O O12 0.248011 0.593731 0.341839
O O13 0.144144 0.693596 0.276344
O O14 0.000000 0.606450 0.250000
O O15 0.250000 0.250000 0.000000
#
# Coordination Sequence:
#
# PCOD9289194 Si02
#       7
#     8   8   4   8   8   8   8
#     4  10  23  37  60  91 123 163 205 252 302 378
#     4  11  21  41  65  90 116 157 208 265 304 360
#     4  12  22  38  60  94 126 160 206 258 304 372
#     4  10  22  40  62  87 122 161 207 251 313 363
#     4  11  23  40  60  88 124 166 201 249 313 385
#     4  11  24  38  64  93 121 157 212 258 309 357
#     4  11  23  35  58  89 128 162 200 251 314 364
#
# _framework density 19.415488
#
# number of rings (size 3 to 8) (size 9 to 14) (size 15 to 20)
#    0.000    1.231    4.615    1.385    4.308    1.231 
#    0.000    1.538    0.000    0.000    0.000    0.000 
#    0.000    0.000    0.000    0.000    0.000    0.000 
#
# Total GULP energy -144993.562320 kJ/mol
# GULP energy per Si atom -5576.675474 kJ/mol
# Density = 1.937130 g / cm^3
# Si number density = 19.415488 Si / 1000 Ang^3
#
#
#
# Elastic Constant Matrix: (Units=GPa)
#
#
# Indices 1 2 3 4 5 6 
#
# 1 74.0866 18.0917 14.7325 0.0000 -10.9463 0.0000
# 2 18.0917 88.7922 16.7100 0.0000 -5.6896 0.0000
# 3 14.7325 16.7100 59.3976 0.0000 -17.3962 0.0000
# 4 0.0000 0.0000 0.0000 -11.5722 0.0000 32.5059
# 5 -10.9463 -5.6896 -17.3962 0.0000 26.0594 0.0000
# 6 0.0000 0.0000 0.0000 32.5059 0.0000 -43.7570
#
#
#
# Elastic Compliance Matrix: (Units=1/GPa)
#
#
# Indices 1 2 3 4 5 6 
#
# 1 0.015128 -0.002465 -0.001685 0.000000 0.004692 0.000000
# 2 -0.002465 0.012298 -0.002940 0.000000 -0.000313 0.000000
# 3 -0.001685 -0.002940 0.021983 0.000000 0.013326 0.000000
# 4 0.000000 0.000000 0.000000 0.079519 0.000000 0.059073
# 5 0.004692 -0.000313 0.013326 0.000000 0.049172 0.000000
# 6 0.000000 0.000000 0.000000 0.059073 0.000000 0.021030
#
#
# Mechanical properties :
#
#
# Convention : Reuss Voigt Hill
#
# Bulk Modulus (GPa) = 28.38472 35.70499 32.04485
# Shear Modulus (GPa) = 22.21705 5.66217 13.93961
#
# Velocity S-wave (km/s) = 3.38641 1.70957 2.68239
# Velocity P-wave (km/s) = 5.47191 4.72512 5.11217
#
# Compressibility (1/GPa) = 0.03523023
#
# Stress axis : x y z
#
# Youngs Moduli (GPa) = 66.10350 81.31632 45.48875
#
# Poissons Ratio (x) = 0.20042 0.07664
# Poissons Ratio (y) = 0.16292 0.13374
# Poissons Ratio (z) = 0.11137 0.23907
#
# Static dielectric constant tensor:
#      x y z
#    x 1.711250 0.000000 -0.036430 
#    y 0.000000 1.657780 0.000000 
#    z -0.036430 0.000000 1.736840 
# 
# From -- ./inp_files/89721.got.cif
#   From: 2010.05.17/outbox.cif.g08.bks.cpg/sg15_45_cif.got.tgz:89721.got - 2010.06.03 18:47:42.
