data_PCOD9289396
_publ_section_title
;
Structure prediction by ZEFSAII (Michael W. Deem and Ramdas Pophale) SiO2 
 PCOD9289396
Probable space group: C 2/C
;
_chemical_formula_sum "Si O2"
_cell_formula_units_Z 56
_cell_length_a 7.991613
_cell_length_b 36.305250
_cell_length_c 18.856911
_cell_angle_alpha 90.000000
_cell_angle_beta 148.648390
_cell_angle_gamma 90.000000
_cell_volume 2846.549304
_symmetry_space_group_name_H-M "C 2/C"
_symmetry_group_IT_number 15
_symmetry_cell_setting 'monoclinic'
loop_
_space_group_symop_operation_xyz
x,y,z
-x,y,1/2-z
-x,-y,-z
x,-y,1/2+z
1/2+x,1/2+y,z
1/2-x,1/2+y,1/2-z
1/2-x,1/2-y,-z
1/2+x,1/2-y,1/2+z
loop_
_atom_site_type_symbol
_atom_site_label
_atom_site_fract_x
_atom_site_fract_y
_atom_site_fract_z
Si Si1 0.210865 0.670086 0.453809
Si Si2 0.524879 0.409042 0.416932
Si Si3 0.325689 0.962802 0.413825
Si Si4 0.377052 0.091758 0.589844
Si Si5 0.247779 0.174047 0.530677
Si Si6 0.392315 0.708728 0.787849
Si Si7 0.390429 0.713966 0.288346
O O1 0.279857 0.629011 0.506218
O O2 0.436927 0.676050 0.467795
O O3 0.336624 0.698851 0.557819
O O4 0.846413 0.679174 0.303598
O O5 0.725320 0.439758 0.447573
O O6 0.390101 0.418279 0.447069
O O7 0.208390 0.402957 0.253868
O O8 0.553211 0.938160 0.445122
O O9 0.000000 0.969692 0.250000
O O10 0.500000 0.000000 0.500000
O O11 0.292980 0.131508 0.526711
O O12 0.562990 0.187365 0.686375
O O13 0.186813 0.201703 0.443977
O O14 0.500000 0.695060 0.750000
O O15 0.305997 0.751602 0.752841
O O16 0.500000 0.724943 0.250000
#
# Coordination Sequence:
#
# PCOD9289396 Si02
#       7
#     8   8   8   8   8   8   8
#     4  11  22  40  62  86 118 157 206 258 304 363
#     4   9  19  37  64  91 118 158 204 245 294 362
#     4  10  22  40  64  92 126 156 198 246 298 364
#     4   9  19  37  64  91 118 158 204 245 294 362
#     4  11  22  40  62  86 118 157 206 258 304 363
#     4  12  24  38  62  86 116 159 208 255 307 367
#     4  12  26  40  54  84 124 163 200 257 317 361
#
# _framework density 19.672944000000001
#
# number of rings (size 3 to 8) (size 9 to 14) (size 15 to 20)
#    0.000    1.429    1.429    4.286    4.000    0.571 
#    2.571    0.000    0.000    0.000    0.000    0.000 
#    0.000    0.000    0.000    0.000    0.000    0.000 
#
# Total GULP energy -156483.858248 kJ/mol
# GULP energy per Si atom -5588.709223 kJ/mol
# Density = 1.962817 g / cm^3
# Si number density = 19.672944 Si / 1000 Ang^3
#
#
#
# Elastic Constant Matrix: (Units=GPa)
#
#
# Indices 1 2 3 4 5 6 
#
# 1 72.3858 47.5954 14.3156 0.0000 -1.1254 0.0000
# 2 47.5954 115.1449 18.4464 0.0000 -3.6887 0.0000
# 3 14.3156 18.4464 35.1998 0.0000 -0.3691 0.0000
# 4 0.0000 0.0000 0.0000 32.0463 0.0000 0.5629
# 5 -1.1254 -3.6887 -0.3691 0.0000 25.4803 0.0000
# 6 0.0000 0.0000 0.0000 0.5629 0.0000 25.3146
#
#
#
# Elastic Compliance Matrix: (Units=1/GPa)
#
#
# Indices 1 2 3 4 5 6 
#
# 1 0.019486 -0.007416 -0.004041 0.000000 -0.000271 0.000000
# 2 -0.007416 0.012346 -0.003439 0.000000 0.001410 0.000000
# 3 -0.004041 -0.003439 0.031853 0.000000 -0.000215 0.000000
# 4 0.000000 0.000000 0.000000 0.031217 0.000000 -0.000694
# 5 -0.000271 0.001410 -0.000215 0.000000 0.039435 0.000000
# 6 0.000000 0.000000 0.000000 -0.000694 0.000000 0.039518
#
#
# Mechanical properties :
#
#
# Convention : Reuss Voigt Hill
#
# Bulk Modulus (GPa) = 29.50538 42.60502 36.05520
# Shear Modulus (GPa) = 23.26167 26.05979 24.66073
#
# Velocity S-wave (km/s) = 3.44236 3.64352 3.54437
# Velocity P-wave (km/s) = 5.55251 6.27726 5.92597
#
# Compressibility (1/GPa) = 0.03389212
#
# Stress axis : x y z
#
# Youngs Moduli (GPa) = 51.31892 80.99654 31.39426
#
# Poissons Ratio (x) = 0.60066 0.12688
# Poissons Ratio (y) = 0.38057 0.10797
# Poissons Ratio (z) = 0.20740 0.27857
#
# Static dielectric constant tensor:
#      x y z
#    x 1.734390 0.000000 -0.003880 
#    y 0.000000 1.659570 0.000000 
#    z -0.003880 0.000000 1.662250 
# 
# From -- ./inp_files/234981.got.cif
#   From: 2010.05.17/outbox.cif.g08.bks.cpg/sg15_118_cif.got.tgz:234981.got - 2010.06.03 18:47:42.
