data_PCOD9289322
_publ_section_title
;
Structure prediction by ZEFSAII (Michael W. Deem and Ramdas Pophale) SiO2 
 PCOD9289322
Probable space group: C 2/C
;
_chemical_formula_sum "Si O2"
_cell_formula_units_Z 48
_cell_length_a 20.143607
_cell_length_b 12.483385
_cell_length_c 10.765588
_cell_angle_alpha 90.000000
_cell_angle_beta 59.617747
_cell_angle_gamma 90.000000
_cell_volume 2335.351415
_symmetry_space_group_name_H-M "C 2/C"
_symmetry_group_IT_number 15
_symmetry_cell_setting 'monoclinic'
loop_
_space_group_symop_operation_xyz
x,y,z
-x,y,1/2-z
-x,-y,-z
x,-y,1/2+z
1/2+x,1/2+y,z
1/2-x,1/2+y,1/2-z
1/2-x,1/2-y,-z
1/2+x,1/2-y,1/2+z
loop_
_atom_site_type_symbol
_atom_site_label
_atom_site_fract_x
_atom_site_fract_y
_atom_site_fract_z
Si Si1 0.552018 0.755818 0.326566
Si Si2 0.720584 0.242935 0.190250
Si Si3 0.272201 0.931925 0.016752
Si Si4 0.574883 0.993686 0.261744
Si Si5 0.784344 0.160690 0.376240
Si Si6 0.456196 0.222772 0.157313
O O1 0.500000 0.748851 0.250000
O O2 0.584471 0.877449 0.310622
O O3 0.627281 0.684170 0.238469
O O4 0.503831 0.730443 0.496836
O O5 0.766209 0.355549 0.142903
O O6 0.731325 0.180107 0.307006
O O7 0.630602 0.267250 0.250342
O O8 0.752630 0.155953 0.061801
O O9 0.223808 0.039307 0.070794
O O10 0.355662 0.971088 0.893818
O O11 0.500000 0.982751 0.250000
O O12 0.558783 0.096871 0.361692
O O13 0.750000 0.250000 0.500000
O O14 0.500000 0.229196 0.250000
#
# Coordination Sequence:
#
# PCOD9289322 Si02
#       6
#     8   8   8   8   8   8
#     4  11  23  40  62  96 134 171 222 275 338 392
#     4  10  25  43  70  93 136 172 226 273 327 401
#     4  10  23  44  63  99 130 176 219 272 334 392
#     4   9  19  35  63  91 130 164 211 274 334 388
#     4  12  25  41  69  99 134 175 222 275 334 400
#     4  10  22  40  63  94 133 174 220 273 334 397
#
# _framework density 20.553652
#
# number of rings (size 3 to 8) (size 9 to 14) (size 15 to 20)
#    0.000    1.667    1.667    1.500   14.000    0.000 
#    0.000    1.667    0.000    0.000    0.000    0.000 
#    0.000    0.000    0.000    0.000    0.000    0.000 
#
# Total GULP energy -133854.803526 kJ/mol
# GULP energy per Si atom -5577.283480 kJ/mol
# Density = 2.050687 g / cm^3
# Si number density = 20.553652 Si / 1000 Ang^3
#
#
#
# Elastic Constant Matrix: (Units=GPa)
#
#
# Indices 1 2 3 4 5 6 
#
# 1 98.2199 22.2665 47.3363 0.0000 -7.6507 0.0000
# 2 22.2665 115.4398 58.4998 0.0000 -14.3544 0.0000
# 3 47.3363 58.4998 135.0331 0.0000 -18.0252 0.0000
# 4 0.0000 0.0000 0.0000 30.1070 0.0000 -9.0569
# 5 -7.6507 -14.3544 -18.0252 0.0000 38.2446 0.0000
# 6 0.0000 0.0000 0.0000 -9.0569 0.0000 16.8000
#
#
#
# Elastic Compliance Matrix: (Units=1/GPa)
#
#
# Indices 1 2 3 4 5 6 
#
# 1 0.012262 -0.000209 -0.004152 0.000000 0.000418 0.000000
# 2 -0.000209 0.011252 -0.004528 0.000000 0.002047 0.000000
# 3 -0.004152 -0.004528 0.011189 0.000000 0.002743 0.000000
# 4 0.000000 0.000000 0.000000 0.039644 0.000000 0.021372
# 5 0.000418 0.002047 0.002743 0.000000 0.028292 0.000000
# 6 0.000000 0.000000 0.000000 0.021372 0.000000 0.071046
#
#
# Mechanical properties :
#
#
# Convention : Reuss Voigt Hill
#
# Bulk Modulus (GPa) = 59.08588 67.21089 63.14838
# Shear Modulus (GPa) = 25.36701 31.73634 28.55167
#
# Velocity S-wave (km/s) = 3.51691 3.93373 3.73115
# Velocity P-wave (km/s) = 6.73061 7.30777 7.02512
#
# Compressibility (1/GPa) = 0.01692452
#
# Stress axis : x y z
#
# Youngs Moduli (GPa) = 81.55068 88.87260 89.37286
#
# Poissons Ratio (x) = 0.01858 0.37110
# Poissons Ratio (y) = 0.01705 0.40469
# Poissons Ratio (z) = 0.33862 0.40242
#
# Static dielectric constant tensor:
#      x y z
#    x 1.037600 0.000000 0.261790 
#    y 0.000000 1.644060 0.000000 
#    z 0.261790 0.000000 1.816890 
# 
# From -- ./inp_files/111464.got.cif
#   From: 2010.05.17/outbox.cif.g08.bks.cpg/sg15_56_cif.got.tgz:111464.got - 2010.06.03 18:47:42.
