data_PCOD9289950
_publ_section_title
;
Structure prediction by ZEFSAII (Michael W. Deem and Ramdas Pophale) SiO2 
 PCOD9289950
Probable space group: C 2/C
;
_chemical_formula_sum "Si O2"
_cell_formula_units_Z 28
_cell_length_a 5.273494
_cell_length_b 23.698346
_cell_length_c 9.898747
_cell_angle_alpha 90.000000
_cell_angle_beta 67.238367
_cell_angle_gamma 90.000000
_cell_volume 1140.736416
_symmetry_space_group_name_H-M "C 2/C"
_symmetry_group_IT_number 15
_symmetry_cell_setting 'monoclinic'
loop_
_space_group_symop_operation_xyz
x,y,z
-x,y,1/2-z
-x,-y,-z
x,-y,1/2+z
1/2+x,1/2+y,z
1/2-x,1/2+y,1/2-z
1/2-x,1/2-y,-z
1/2+x,1/2-y,1/2+z
loop_
_atom_site_type_symbol
_atom_site_label
_atom_site_fract_x
_atom_site_fract_y
_atom_site_fract_z
Si Si1 0.500000 0.258362 0.750000
Si Si2 0.286126 0.151595 0.697536
Si Si3 0.325433 0.468397 0.651257
Si Si4 0.757005 0.162547 0.102011
O O1 0.258944 0.211355 0.783112
O O2 0.511607 0.297208 0.879924
O O3 0.500000 0.120238 0.750000
O O4 0.342969 0.167285 0.531634
O O5 0.000000 0.119966 0.750000
O O6 0.500000 0.475941 0.750000
O O7 0.500000 0.500000 0.500000
O O8 0.334412 0.402259 0.609118
O O9 0.000000 0.481443 0.750000
O O10 0.500000 0.175015 0.250000
#
# Coordination Sequence:
#
# PCOD9289950 Si02
#       4
#     4   8   8   8
#     4  10  22  40  70  96 150 172 244 260 364 394
#     4  10  25  40  64  99 142 186 224 277 339 415
#     4  11  25  48  75 106 140 185 239 303 363 424
#     4  11  24  42  68 102 137 185 232 284 351 422
#
# _framework density 24.545549000000001
#
# number of rings (size 3 to 8) (size 9 to 14) (size 15 to 20)
#    0.857    0.571    1.429    2.571    4.000    3.429 
#    0.000    2.857    0.000    0.000    0.000    0.000 
#    0.000    0.000    0.000    0.000    0.000    0.000 
#
# Total GULP energy -78097.139276 kJ/mol
# GULP energy per Si atom -5578.367091 kJ/mol
# Density = 2.448968 g / cm^3
# Si number density = 24.545549 Si / 1000 Ang^3
#
#
#
# Elastic Constant Matrix: (Units=GPa)
#
#
# Indices 1 2 3 4 5 6 
#
# 1 207.7994 22.4091 79.7680 0.0000 35.1577 0.0000
# 2 22.4091 104.8640 12.0494 0.0000 5.3329 0.0000
# 3 79.7680 12.0494 194.9164 0.0000 43.1116 0.0000
# 4 0.0000 0.0000 0.0000 13.5184 0.0000 -14.8619
# 5 35.1577 5.3329 43.1116 0.0000 51.1705 0.0000
# 6 0.0000 0.0000 0.0000 -14.8619 0.0000 13.8806
#
#
#
# Elastic Compliance Matrix: (Units=1/GPa)
#
#
# Indices 1 2 3 4 5 6 
#
# 1 0.006053 -0.000952 -0.001869 0.000000 -0.002485 0.000000
# 2 -0.000952 0.009770 -0.000164 0.000000 -0.000225 0.000000
# 3 -0.001869 -0.000164 0.006904 0.000000 -0.004516 0.000000
# 4 0.000000 0.000000 0.000000 -0.417673 0.000000 -0.447201
# 5 -0.002485 -0.000225 -0.004516 0.000000 0.025078 0.000000
# 6 0.000000 0.000000 0.000000 -0.447201 0.000000 -0.406774
#
#
# Mechanical properties :
#
#
# Convention : Reuss Voigt Hill
#
# Bulk Modulus (GPa) = 59.67882 81.78141 70.73011
# Shear Modulus (GPa) = -6.53521 41.93746 17.70112
#
# Velocity S-wave (km/s) = -1.63348 4.13795 2.68834
# Velocity P-wave (km/s) = 4.56164 7.49805 6.20602
#
# Compressibility (1/GPa) = 0.01675636
#
# Stress axis : x y z
#
# Youngs Moduli (GPa) = 165.21359 102.35388 144.84275
#
# Poissons Ratio (x) = 0.09748 0.27064
# Poissons Ratio (y) = 0.15734 0.02381
# Poissons Ratio (z) = 0.30870 0.01682
#
# Static dielectric constant tensor:
#      x y z
#    x 2.226330 0.000000 -0.081720 
#    y 0.000000 1.912850 0.000000 
#    z -0.081720 0.000000 1.998310 
# 
# From -- ./inp_files/19838.got.cif
#   From: 2010.05.17/outbox.cif.g08.bks.cpg/sg15_10_cif.got.tgz:19838.got - 2010.06.03 18:47:42.
