data_PCOD9289512
_publ_section_title
;
Structure prediction by ZEFSAII (Michael W. Deem and Ramdas Pophale) SiO2 
 PCOD9289512
Probable space group: C 2/C
;
_chemical_formula_sum "Si O2"
_cell_formula_units_Z 40
_cell_length_a 26.556538
_cell_length_b 5.348260
_cell_length_c 11.627161
_cell_angle_alpha 90.000000
_cell_angle_beta 90.270718
_cell_angle_gamma 90.000000
_cell_volume 1651.402009
_symmetry_space_group_name_H-M "C 2/C"
_symmetry_group_IT_number 15
_symmetry_cell_setting 'monoclinic'
loop_
_space_group_symop_operation_xyz
x,y,z
-x,y,1/2-z
-x,-y,-z
x,-y,1/2+z
1/2+x,1/2+y,z
1/2-x,1/2+y,1/2-z
1/2-x,1/2-y,-z
1/2+x,1/2-y,1/2+z
loop_
_atom_site_type_symbol
_atom_site_label
_atom_site_fract_x
_atom_site_fract_y
_atom_site_fract_z
Si Si1 0.045900 0.950065 0.586292
Si Si2 0.574344 0.943645 0.713822
Si Si3 0.280709 0.548502 0.575647
Si Si4 0.819877 0.623052 0.407045
Si Si5 0.375965 0.239841 0.081413
O O1 0.049124 0.693734 0.662221
O O2 0.094338 0.922633 0.503917
O O3 0.048962 0.192571 0.666359
O O4 0.000000 0.000000 0.500000
O O5 0.632549 0.912995 0.674976
O O6 0.581413 0.914064 0.850111
O O7 0.250000 0.750000 0.500000
O O8 0.233876 0.449178 0.650014
O O9 0.302944 0.368107 0.476493
O O10 0.331461 0.610482 0.646419
O O11 0.841680 0.449072 0.509919
#
# Coordination Sequence:
#
# PCOD9289512 Si02
#       5
#     8   8   8   8   8
#     4  11  25  46  68  96 130 165 215 282 334 391
#     4  11  24  42  70  97 125 175 218 264 335 392
#     4   9  17  36  61  87 132 175 209 266 320 375
#     4   9  19  38  59  91 134 170 215 265 318 382
#     4  10  22  40  65  93 132 170 218 272 321 393
#
# _framework density 24.221841999999999
#
# number of rings (size 3 to 8) (size 9 to 14) (size 15 to 20)
#    0.000    2.000    2.000    0.600    2.800    0.800 
#   10.800    2.000    0.000    0.000    0.000    0.000 
#    0.000    0.000    0.000    0.000    0.000    0.000 
#
# Total GULP energy -111339.265939 kJ/mol
# GULP energy per Si atom -5566.963297 kJ/mol
# Density = 2.416671 g / cm^3
# Si number density = 24.221842 Si / 1000 Ang^3
#
#
#
# Elastic Constant Matrix: (Units=GPa)
#
#
# Indices 1 2 3 4 5 6 
#
# 1 133.1371 59.9351 25.5669 0.0000 16.8809 0.0000
# 2 59.9351 101.0687 10.0856 0.0000 23.4631 0.0000
# 3 25.5669 10.0856 38.6442 0.0000 30.9268 0.0000
# 4 0.0000 0.0000 0.0000 19.8691 0.0000 30.8055
# 5 16.8809 23.4631 30.9268 0.0000 39.9128 0.0000
# 6 0.0000 0.0000 0.0000 30.8055 0.0000 10.0258
#
#
#
# Elastic Compliance Matrix: (Units=1/GPa)
#
#
# Indices 1 2 3 4 5 6 
#
# 1 0.013109 -0.009006 -0.016116 0.000000 0.012238 0.000000
# 2 -0.009006 0.018263 0.017731 0.000000 -0.020666 0.000000
# 3 -0.016116 0.017731 0.091603 0.000000 -0.074586 0.000000
# 4 0.000000 0.000000 0.000000 -0.013372 0.000000 0.041086
# 5 0.012238 -0.020666 -0.074586 0.000000 0.089821 0.000000
# 6 0.000000 0.000000 0.000000 0.041086 0.000000 -0.026500
#
#
# Mechanical properties :
#
#
# Convention : Reuss Voigt Hill
#
# Bulk Modulus (GPa) = 9.24279 51.55835 30.40057
# Shear Modulus (GPa) = 22.34431 25.77904 24.06168
#
# Velocity S-wave (km/s) = 3.04054 3.26588 3.15522
# Velocity P-wave (km/s) = 4.01879 5.96267 5.08449
#
# Compressibility (1/GPa) = 0.10819248
#
# Stress axis : x y z
#
# Youngs Moduli (GPa) = 76.28550 54.75418 10.91671
#
# Poissons Ratio (x) = 0.49314 0.17593
# Poissons Ratio (y) = 0.68706 -0.19357
# Poissons Ratio (z) = 1.22941 -0.97085
#
# Static dielectric constant tensor:
#      x y z
#    x 2.490730 0.000000 -0.550610 
#    y 0.000000 2.472120 0.000000 
#    z -0.550610 0.000000 2.450630 
# 
# From -- ./inp_files/120894.got.cif
#   From: 2010.05.17/outbox.cif.g08.bks.cpg/sg15_61_cif.got.tgz:120894.got - 2010.06.03 18:47:42.
