data_PCOD9289198
_publ_section_title
;
Structure prediction by ZEFSAII (Michael W. Deem and Ramdas Pophale) SiO2 
 PCOD9289198
Probable space group: C 2/C
;
_chemical_formula_sum "Si O2"
_cell_formula_units_Z 60
_cell_length_a 16.350195
_cell_length_b 9.528486
_cell_length_c 22.914917
_cell_angle_alpha 90.000000
_cell_angle_beta 113.412790
_cell_angle_gamma 90.000000
_cell_volume 3276.044121
_symmetry_space_group_name_H-M "C 2/C"
_symmetry_group_IT_number 15
_symmetry_cell_setting 'monoclinic'
loop_
_space_group_symop_operation_xyz
x,y,z
-x,y,1/2-z
-x,-y,-z
x,-y,1/2+z
1/2+x,1/2+y,z
1/2-x,1/2+y,1/2-z
1/2-x,1/2-y,-z
1/2+x,1/2-y,1/2+z
loop_
_atom_site_type_symbol
_atom_site_label
_atom_site_fract_x
_atom_site_fract_y
_atom_site_fract_z
Si Si1 0.291227 0.107917 0.322727
Si Si2 0.597886 0.951072 0.543039
Si Si3 0.085832 0.155101 0.480742
Si Si4 0.619661 0.581494 0.086704
Si Si5 0.000000 0.022472 0.750000
Si Si6 0.337296 0.593932 0.783922
Si Si7 0.146587 0.061642 0.374619
Si Si8 0.262683 0.187684 0.939475
O O1 0.379695 0.057727 0.381676
O O2 0.308676 0.250357 0.293543
O O3 0.221649 0.132535 0.356063
O O4 0.242774 0.988836 0.270951
O O5 0.610608 0.799367 0.518497
O O6 0.500000 0.000000 0.500000
O O7 0.664847 0.064425 0.535844
O O8 0.134687 0.131099 0.433611
O O9 0.978888 0.150474 0.439449
O O10 0.112375 0.029259 0.531642
O O11 0.638154 0.496583 0.151435
O O12 0.695478 0.695564 0.091867
O O13 0.923079 0.100241 0.765313
O O14 0.944775 0.934295 0.687081
O O15 0.176337 0.897974 0.392202
O O16 0.250000 0.250000 0.000000
#
# Coordination Sequence:
#
# PCOD9289198 Si02
#       8
#     8   8   8   8   4   8   8   8
#     4  10  25  40  65  93 123 167 208 261 317 375
#     4  11  23  40  61  93 131 161 207 264 321 370
#     4  11  21  39  67  94 123 169 213 258 318 384
#     4  11  22  37  66  94 124 167 210 258 314 383
#     4  10  22  40  62  88 118 168 204 264 300 382
#     4  11  23  43  67  89 127 163 219 254 316 385
#     4  10  22  41  63  93 125 160 215 260 317 378
#     4  11  23  38  61  96 127 160 204 263 321 371
#
# _framework density 18.314771
#
# number of rings (size 3 to 8) (size 9 to 14) (size 15 to 20)
#    0.000    1.333    5.333    0.000    5.600    4.267 
#    0.000    0.000    2.933    0.000    0.000    0.000 
#    0.000    0.000    0.000    0.000    0.000    0.000 
#
# Total GULP energy -167423.222996 kJ/mol
# GULP energy per Si atom -5580.774100 kJ/mol
# Density = 1.827309 g / cm^3
# Si number density = 18.314771 Si / 1000 Ang^3
#
#
#
# Elastic Constant Matrix: (Units=GPa)
#
#
# Indices 1 2 3 4 5 6 
#
# 1 49.8834 30.7622 36.6449 0.0000 -1.1848 0.0000
# 2 30.7622 87.1236 25.6220 0.0000 5.5104 0.0000
# 3 36.6449 25.6220 116.7263 0.0000 15.4003 0.0000
# 4 0.0000 0.0000 0.0000 32.6997 0.0000 -8.5680
# 5 -1.1848 5.5104 15.4003 0.0000 38.1205 0.0000
# 6 0.0000 0.0000 0.0000 -8.5680 0.0000 29.9544
#
#
#
# Elastic Compliance Matrix: (Units=1/GPa)
#
#
# Indices 1 2 3 4 5 6 
#
# 1 0.032433 -0.009197 -0.008949 0.000000 0.005953 0.000000
# 2 -0.009197 0.014897 -0.000064 0.000000 -0.002413 0.000000
# 3 -0.008949 -0.000064 0.012069 0.000000 -0.005145 0.000000
# 4 0.000000 0.000000 0.000000 0.033059 0.000000 0.009456
# 5 0.005953 -0.002413 -0.005145 0.000000 0.028845 0.000000
# 6 0.000000 0.000000 0.000000 0.009456 0.000000 0.036089
#
#
# Mechanical properties :
#
#
# Convention : Reuss Voigt Hill
#
# Bulk Modulus (GPa) = 43.51611 48.86572 46.19092
# Shear Modulus (GPa) = 24.81744 30.86853 27.84298
#
# Velocity S-wave (km/s) = 3.68509 4.10987 3.90327
# Velocity P-wave (km/s) = 6.47443 7.01857 6.75199
#
# Compressibility (1/GPa) = 0.02297999
#
# Stress axis : x y z
#
# Youngs Moduli (GPa) = 30.83253 67.12900 82.85491
#
# Poissons Ratio (x) = 0.61735 0.74145
# Poissons Ratio (y) = 0.28355 0.00533
# Poissons Ratio (z) = 0.27591 0.00432
#
# Static dielectric constant tensor:
#      x y z
#    x 1.669010 0.000000 0.030100 
#    y 0.000000 1.603240 0.000000 
#    z 0.030100 0.000000 1.645510 
# 
# From -- ./inp_files/273110.got.cif
#   From: 2010.05.17/outbox.cif.g08.bks.cpg/sg15_137_cif.got.tgz:273110.got - 2010.06.03 18:47:42.
