data_PCOD9289427
_publ_section_title
;
Structure prediction by ZEFSAII (Michael W. Deem and Ramdas Pophale) SiO2 
 PCOD9289427
Probable space group: C 2/C
;
_chemical_formula_sum "Si O2"
_cell_formula_units_Z 40
_cell_length_a 12.331801
_cell_length_b 7.464492
_cell_length_c 23.704808
_cell_angle_alpha 90.000000
_cell_angle_beta 46.874743
_cell_angle_gamma 90.000000
_cell_volume 1592.587741
_symmetry_space_group_name_H-M "C 2/C"
_symmetry_group_IT_number 15
_symmetry_cell_setting 'monoclinic'
loop_
_space_group_symop_operation_xyz
x,y,z
-x,y,1/2-z
-x,-y,-z
x,-y,1/2+z
1/2+x,1/2+y,z
1/2-x,1/2+y,1/2-z
1/2-x,1/2-y,-z
1/2+x,1/2-y,1/2+z
loop_
_atom_site_type_symbol
_atom_site_label
_atom_site_fract_x
_atom_site_fract_y
_atom_site_fract_z
Si Si1 0.634027 0.351639 0.169625
Si Si2 0.657432 0.990821 0.997125
Si Si3 0.653379 0.710610 0.307641
Si Si4 0.943633 0.399421 0.655255
Si Si5 0.067629 0.922895 0.532562
O O1 0.500000 0.453463 0.250000
O O2 0.738121 0.255910 0.178441
O O3 0.544247 0.210682 0.162860
O O4 0.749125 0.458097 0.090353
O O5 0.519505 0.109644 0.066852
O O6 0.600072 0.788271 0.013933
O O7 0.775935 0.007034 0.005966
O O8 0.771065 0.657216 0.218245
O O9 0.541498 0.565120 0.373920
O O10 0.563817 0.890397 0.324867
O O11 0.000000 0.000000 0.500000
#
# Coordination Sequence:
#
# PCOD9289427 Si02
#       5
#     8   8   8   8   8
#     4  10  22  40  64  94 131 169 218 278 338 401
#     4  10  22  41  64  95 131 173 222 276 337 403
#     4  10  23  41  65  93 130 175 223 274 341 405
#     4  10  22  41  66  93 130 175 222 273 335 405
#     4  10  22  40  64  96 131 171 225 277 337 405
#
# _framework density 25.116356
#
# number of rings (size 3 to 8) (size 9 to 14) (size 15 to 20)
#    0.000    2.000    0.000    1.800    5.600    4.800 
#    0.000    0.000    0.000    0.000    0.000    0.000 
#    0.000    0.000    0.000    0.000    0.000    0.000 
#
# Total GULP energy -111999.800946 kJ/mol
# GULP energy per Si atom -5599.990047 kJ/mol
# Density = 2.505919 g / cm^3
# Si number density = 25.116356 Si / 1000 Ang^3
#
#
#
# Elastic Constant Matrix: (Units=GPa)
#
#
# Indices 1 2 3 4 5 6 
#
# 1 125.1247 31.2012 33.6389 0.0000 -14.0850 0.0001
# 2 31.2012 56.9238 50.7425 0.0001 -3.7010 0.0002
# 3 33.6389 50.7425 246.1225 0.0000 -30.1427 0.0000
# 4 0.0000 0.0001 0.0000 37.6013 0.0000 -16.5231
# 5 -14.0850 -3.7010 -30.1427 0.0000 29.3671 0.0000
# 6 0.0001 0.0002 0.0000 -16.5231 0.0000 34.1041
#
#
#
# Elastic Compliance Matrix: (Units=1/GPa)
#
#
# Indices 1 2 3 4 5 6 
#
# 1 0.009721 -0.005309 0.000292 0.000000 0.004293 0.000000
# 2 -0.005309 0.024537 -0.004880 0.000000 -0.004463 0.000000
# 3 0.000292 -0.004880 0.005686 0.000000 0.005361 0.000000
# 4 0.000000 0.000000 0.000000 0.033788 0.000000 0.016370
# 5 0.004293 -0.004463 0.005361 0.000000 0.041051 0.000000
# 6 0.000000 0.000000 0.000000 0.016370 0.000000 0.037253
#
#
# Mechanical properties :
#
#
# Convention : Reuss Voigt Hill
#
# Bulk Modulus (GPa) = 49.62935 73.25957 61.44446
# Shear Modulus (GPa) = 28.00400 41.05372 34.52886
#
# Velocity S-wave (km/s) = 3.34274 4.04733 3.71179
# Velocity P-wave (km/s) = 5.89077 7.14651 6.54881
#
# Compressibility (1/GPa) = 0.02014937
#
# Stress axis : x y z
#
# Youngs Moduli (GPa) = 102.87351 40.75484 175.87932
#
# Poissons Ratio (x) = 0.21637 -0.05130
# Poissons Ratio (y) = 0.54616 0.85823
# Poissons Ratio (z) = -0.03001 0.19887
#
# Static dielectric constant tensor:
#      x y z
#    x 1.940540 0.000000 0.012330 
#    y 0.000000 2.002570 0.000000 
#    z 0.012330 0.000000 2.053150 
# 
# From -- ./inp_files/272517.got.cif
#   From: 2010.05.17/outbox.cif.g08.bks.cpg/sg15_137_cif.got.tgz:272517.got - 2010.06.03 18:47:42.
