data_PCOD9289124
_publ_section_title
;
Structure prediction by ZEFSAII (Michael W. Deem and Ramdas Pophale) SiO2 
 PCOD9289124
Probable space group: C 2/C
;
_chemical_formula_sum "Si O2"
_cell_formula_units_Z 52
_cell_length_a 29.362276
_cell_length_b 15.919383
_cell_length_c 8.665316
_cell_angle_alpha 90.000000
_cell_angle_beta 143.983918
_cell_angle_gamma 90.000000
_cell_volume 2381.698422
_symmetry_space_group_name_H-M "C 2/C"
_symmetry_group_IT_number 15
_symmetry_cell_setting 'monoclinic'
loop_
_space_group_symop_operation_xyz
x,y,z
-x,y,1/2-z
-x,-y,-z
x,-y,1/2+z
1/2+x,1/2+y,z
1/2-x,1/2+y,1/2-z
1/2-x,1/2-y,-z
1/2+x,1/2-y,1/2+z
loop_
_atom_site_type_symbol
_atom_site_label
_atom_site_fract_x
_atom_site_fract_y
_atom_site_fract_z
Si Si1 0.195251 0.765885 0.499168
Si Si2 0.084642 0.386520 0.718344
Si Si3 0.148612 0.501335 0.125509
Si Si4 0.458368 0.769861 0.466700
Si Si5 0.800905 0.370748 0.004051
Si Si6 0.000000 0.021041 0.750000
Si Si7 0.551254 0.381705 0.124279
O O1 0.250000 0.750000 0.500000
O O2 0.155044 0.678688 0.432143
O O3 0.123144 0.827024 0.265398
O O4 0.236414 0.808593 0.758828
O O5 0.106445 0.442300 0.634549
O O6 0.006569 0.335140 0.494861
O O7 0.084453 0.446214 0.864361
O O8 0.205505 0.435068 0.368751
O O9 0.185169 0.564177 0.100499
O O10 0.500000 0.768081 0.750000
O O11 0.373263 0.808537 0.237668
O O12 0.476121 0.679371 0.437728
O O13 0.959990 0.959106 0.519903
O O14 0.059321 0.078987 0.817339
#
# Coordination Sequence:
#
# PCOD9289124 Si02
#       7
#     8   8   8   8   8   4   8
#     4  11  24  45  64  98 132 178 218 274 338 421
#     4  10  22  41  63  88 131 162 220 261 320 396
#     4  10  22  40  60  96 122 168 206 268 319 389
#     4  11  22  41  66  97 126 175 218 273 319 411
#     4  11  24  40  66  91 134 170 215 267 337 393
#     4  10  22  46  70 104 124 182 226 298 332 380
#     4  10  24  43  71  96 136 167 238 275 342 396
#
# _framework density 21.833158999999998
#
# number of rings (size 3 to 8) (size 9 to 14) (size 15 to 20)
#    0.000    1.538    3.846    0.000    2.154    6.154 
#    0.000    0.000    0.000    0.000    0.000    0.000 
#    0.000    0.000    0.000    0.000    0.000    0.000 
#
# Total GULP energy -145152.463615 kJ/mol
# GULP energy per Si atom -5582.787062 kJ/mol
# Density = 2.178347 g / cm^3
# Si number density = 21.833159 Si / 1000 Ang^3
#
#
#
# Elastic Constant Matrix: (Units=GPa)
#
#
# Indices 1 2 3 4 5 6 
#
# 1 70.2122 35.6894 16.8191 0.0000 -8.0005 0.0000
# 2 35.6894 121.4180 20.7881 0.0000 -2.1957 0.0000
# 3 16.8191 20.7881 44.5463 0.0000 -3.7288 0.0000
# 4 0.0000 0.0000 0.0000 23.3629 0.0000 -10.4581
# 5 -8.0005 -2.1957 -3.7288 0.0000 26.3925 0.0000
# 6 0.0000 0.0000 0.0000 -10.4581 0.0000 24.5438
#
#
#
# Elastic Compliance Matrix: (Units=1/GPa)
#
#
# Indices 1 2 3 4 5 6 
#
# 1 0.018079 -0.004487 -0.004356 0.000000 0.004491 0.000000
# 2 -0.004487 0.010065 -0.003083 0.000000 -0.000958 0.000000
# 3 -0.004356 -0.003083 0.025704 0.000000 0.002055 0.000000
# 4 0.000000 0.000000 0.000000 0.052891 0.000000 0.022537
# 5 0.004491 -0.000958 0.002055 0.000000 0.039462 0.000000
# 6 0.000000 0.000000 0.000000 0.022537 0.000000 0.050346
#
#
# Mechanical properties :
#
#
# Convention : Reuss Voigt Hill
#
# Bulk Modulus (GPa) = 33.33816 42.52996 37.93406
# Shear Modulus (GPa) = 21.70158 25.71853 23.71006
#
# Velocity S-wave (km/s) = 3.15615 3.43586 3.29897
# Velocity P-wave (km/s) = 5.34644 5.93818 5.65006
#
# Compressibility (1/GPa) = 0.02999566
#
# Stress axis : x y z
#
# Youngs Moduli (GPa) = 55.31426 99.34970 38.90442
#
# Poissons Ratio (x) = 0.44578 0.16947
# Poissons Ratio (y) = 0.24819 0.11995
# Poissons Ratio (z) = 0.24095 0.30632
#
# Static dielectric constant tensor:
#      x y z
#    x 1.809860 0.000000 -0.025520 
#    y 0.000000 1.820890 0.000000 
#    z -0.025520 0.000000 1.823820 
# 
# From -- ./inp_files/70195.got.cif
#   From: 2010.05.17/outbox.cif.g08.bks.cpg/sg15_36_cif.got.tgz:70195.got - 2010.06.03 18:47:42.
