data_PCOD9289759
_publ_section_title
;
Structure prediction by ZEFSAII (Michael W. Deem and Ramdas Pophale) SiO2 
 PCOD9289759
Probable space group: C 2/C
;
_chemical_formula_sum "Si O2"
_cell_formula_units_Z 44
_cell_length_a 20.951533
_cell_length_b 19.325610
_cell_length_c 5.296848
_cell_angle_alpha 90.000000
_cell_angle_beta 118.114037
_cell_angle_gamma 90.000000
_cell_volume 1891.649838
_symmetry_space_group_name_H-M "C 2/C"
_symmetry_group_IT_number 15
_symmetry_cell_setting 'monoclinic'
loop_
_space_group_symop_operation_xyz
x,y,z
-x,y,1/2-z
-x,-y,-z
x,-y,1/2+z
1/2+x,1/2+y,z
1/2-x,1/2+y,1/2-z
1/2-x,1/2-y,-z
1/2+x,1/2-y,1/2+z
loop_
_atom_site_type_symbol
_atom_site_label
_atom_site_fract_x
_atom_site_fract_y
_atom_site_fract_z
Si Si1 0.500000 0.575992 0.250000
Si Si2 0.391545 0.849829 0.190967
Si Si3 0.835341 0.958238 0.398288
Si Si4 0.254305 0.821775 0.168989
Si Si5 0.500000 0.958155 0.250000
Si Si6 0.107897 0.719722 0.307832
Si Si7 0.500000 0.336218 0.250000
O O1 0.576762 0.539238 0.440402
O O2 0.486498 0.620221 0.475854
O O3 0.308448 0.864786 0.089131
O O4 0.429770 0.911577 0.126951
O O5 0.422062 0.831583 0.525708
O O6 0.405320 0.789103 0.013805
O O7 0.807395 0.877277 0.369862
O O8 0.811108 0.004018 0.594729
O O9 0.306878 0.796515 0.495390
O O10 0.250000 0.750000 0.000000
O O11 0.500000 0.000000 0.500000
O O12 0.071482 0.790480 0.326788
#
# Coordination Sequence:
#
# PCOD9289759 Si02
#       7
#     4   8   8   8   4   8   4
#     4  12  26  46  72 104 133 187 248 292 348 435
#     4  10  23  42  62  98 143 171 227 288 338 416
#     4  12  28  50  75 101 146 191 236 296 363 423
#     4  10  26  46  73 107 140 184 235 295 350 420
#     4  12  24  40  68  92 132 188 234 274 336 412
#     4  10  22  40  67  99 147 171 221 290 351 414
#     4  12  22  40  74 108 141 181 230 298 366 401
#
# _framework density 23.260117000000001
#
# number of rings (size 3 to 8) (size 9 to 14) (size 15 to 20)
#    1.091    0.000    0.000    6.000    5.091    2.182 
#    0.000    0.000    0.000    0.000    0.000    0.000 
#    0.000    0.000    0.000    0.000    0.000    0.000 
#
# Total GULP energy -122553.754221 kJ/mol
# GULP energy per Si atom -5570.625192 kJ/mol
# Density = 2.320718 g / cm^3
# Si number density = 23.260117 Si / 1000 Ang^3
#
#
#
# Elastic Constant Matrix: (Units=GPa)
#
#
# Indices 1 2 3 4 5 6 
#
# 1 119.2002 40.4939 33.3363 0.0000 -14.1716 0.0000
# 2 40.4939 66.0965 1.7260 0.0000 11.3339 0.0000
# 3 33.3363 1.7260 62.1328 0.0000 -8.8627 0.0000
# 4 0.0000 0.0000 0.0000 84.7952 0.0000 45.0001
# 5 -14.1716 11.3339 -8.8627 0.0000 34.7687 0.0000
# 6 0.0000 0.0000 0.0000 45.0001 0.0000 115.0832
#
#
#
# Elastic Compliance Matrix: (Units=1/GPa)
#
#
# Indices 1 2 3 4 5 6 
#
# 1 0.014469 -0.009986 -0.006413 0.000000 0.007518 0.000000
# 2 -0.009986 0.023009 0.003184 0.000000 -0.010759 0.000000
# 3 -0.006413 0.003184 0.019640 0.000000 0.001354 0.000000
# 4 0.000000 0.000000 0.000000 0.014881 0.000000 -0.005819
# 5 0.007518 -0.010759 0.001354 0.000000 0.035678 0.000000
# 6 0.000000 0.000000 0.000000 -0.005819 0.000000 0.010965
#
#
# Mechanical properties :
#
#
# Convention : Reuss Voigt Hill
#
# Bulk Modulus (GPa) = 32.58645 44.28242 38.43443
# Shear Modulus (GPa) = 32.19516 58.38765 45.29140
#
# Velocity S-wave (km/s) = 3.72443 5.01563 4.41746
# Velocity P-wave (km/s) = 5.70396 7.25405 6.52520
#
# Compressibility (1/GPa) = 0.03068760
#
# Stress axis : x y z
#
# Youngs Moduli (GPa) = 69.11291 43.46088 50.91576
#
# Poissons Ratio (x) = 0.43401 0.32654
# Poissons Ratio (y) = 0.69017 -0.16212
# Poissons Ratio (z) = 0.44324 -0.13838
#
# Static dielectric constant tensor:
#      x y z
#    x 1.904180 0.000000 0.122590 
#    y 0.000000 1.817030 0.000000 
#    z 0.122590 0.000000 2.159160 
# 
# From -- ./inp_files/15471.got.cif
#   From: 2010.05.17/outbox.cif.g08.bks.cpg/sg15_8_cif.got.tgz:15471.got - 2010.06.03 18:47:42.
