data_PCOD9289889
_publ_section_title
;
Structure prediction by ZEFSAII (Michael W. Deem and Ramdas Pophale) SiO2 
 PCOD9289889
Probable space group: C 2/C
;
_chemical_formula_sum "Si O2"
_cell_formula_units_Z 40
_cell_length_a 13.471404
_cell_length_b 22.853357
_cell_length_c 9.574256
_cell_angle_alpha 90.000000
_cell_angle_beta 138.181813
_cell_angle_gamma 90.000000
_cell_volume 1965.365574
_symmetry_space_group_name_H-M "C 2/C"
_symmetry_group_IT_number 15
_symmetry_cell_setting 'monoclinic'
loop_
_space_group_symop_operation_xyz
x,y,z
-x,y,1/2-z
-x,-y,-z
x,-y,1/2+z
1/2+x,1/2+y,z
1/2-x,1/2+y,1/2-z
1/2-x,1/2-y,-z
1/2+x,1/2-y,1/2+z
loop_
_atom_site_type_symbol
_atom_site_label
_atom_site_fract_x
_atom_site_fract_y
_atom_site_fract_z
Si Si1 0.809735 0.111159 0.800978
Si Si2 0.069328 0.809713 0.665303
Si Si3 0.386726 0.991545 0.507688
Si Si4 0.362891 0.219095 0.010718
Si Si5 0.830771 0.380037 0.044766
O O1 0.751084 0.052396 0.663737
O O2 0.722531 0.163840 0.637864
O O3 0.747394 0.107632 0.891068
O O4 0.976866 0.136056 0.998855
O O5 0.079615 0.758492 0.560314
O O6 0.000000 0.796871 0.750000
O O7 0.236933 0.831205 0.867829
O O8 0.500000 0.972668 0.750000
O O9 0.500000 0.000000 0.500000
O O10 0.329038 0.057057 0.471013
O O11 0.500000 0.200822 0.250000
O O12 0.250000 0.250000 0.000000
O O13 0.000000 0.361983 0.250000
#
# Coordination Sequence:
#
# PCOD9289889 Si02
#       5
#     8   8   8   8   8
#     4  11  23  43  67  96 139 175 221 286 338 401
#     4  10  25  46  67 101 137 177 230 277 345 417
#     4  11  21  41  65 103 130 176 231 275 332 408
#     4  12  26  46  67 102 138 177 228 285 345 405
#     4  10  22  40  69  97 131 177 229 271 338 412
#
# _framework density 20.352449
#
# number of rings (size 3 to 8) (size 9 to 14) (size 15 to 20)
#    0.000    1.200    6.000    0.600    2.800    6.400 
#    0.000    0.000    0.000    0.000    0.000    0.000 
#    0.000    0.000    0.000    0.000    0.000    0.000 
#
# Total GULP energy -111560.956046 kJ/mol
# GULP energy per Si atom -5578.047802 kJ/mol
# Density = 2.030613 g / cm^3
# Si number density = 20.352449 Si / 1000 Ang^3
#
#
#
# Elastic Constant Matrix: (Units=GPa)
#
#
# Indices 1 2 3 4 5 6 
#
# 1 68.6741 34.1110 24.2528 0.0000 -6.1105 0.0000
# 2 34.1110 65.6702 31.2896 0.0000 -8.4305 0.0000
# 3 24.2528 31.2896 107.5240 0.0000 -0.2936 0.0000
# 4 0.0000 0.0000 0.0000 23.4972 0.0000 -11.3755
# 5 -6.1105 -8.4305 -0.2936 0.0000 41.1801 0.0000
# 6 0.0000 0.0000 0.0000 -11.3755 0.0000 31.5292
#
#
#
# Elastic Compliance Matrix: (Units=1/GPa)
#
#
# Indices 1 2 3 4 5 6 
#
# 1 0.019936 -0.009384 -0.001763 0.000000 0.001025 0.000000
# 2 -0.009384 0.022641 -0.004463 0.000000 0.003211 0.000000
# 3 -0.001763 -0.004463 0.010994 0.000000 -0.001097 0.000000
# 4 0.000000 0.000000 0.000000 0.051565 0.000000 0.018604
# 5 0.001025 0.003211 -0.001097 0.000000 0.025085 0.000000
# 6 0.000000 0.000000 0.000000 0.018604 0.000000 0.038429
#
#
# Mechanical properties :
#
#
# Convention : Reuss Voigt Hill
#
# Bulk Modulus (GPa) = 44.74219 46.79725 45.76972
# Shear Modulus (GPa) = 24.11727 29.38897 26.75312
#
# Velocity S-wave (km/s) = 3.44609 3.80412 3.62952
# Velocity P-wave (km/s) = 6.15349 6.50680 6.33261
#
# Compressibility (1/GPa) = 0.02235027
#
# Stress axis : x y z
#
# Youngs Moduli (GPa) = 50.15927 44.16851 90.96093
#
# Poissons Ratio (x) = 0.41447 0.16039
# Poissons Ratio (y) = 0.47069 0.40596
# Poissons Ratio (z) = 0.08845 0.19713
#
# Static dielectric constant tensor:
#      x y z
#    x 1.712390 0.000000 0.020970 
#    y 0.000000 1.691220 0.000000 
#    z 0.020970 0.000000 1.739730 
# 
# From -- ./inp_files/42420.got.cif
#   From: 2010.05.17/outbox.cif.g08.bks.cpg/sg15_22_cif.got.tgz:42420.got - 2010.06.03 18:47:42.
