data_PCOD9289204
_publ_section_title
;
Structure prediction by ZEFSAII (Michael W. Deem and Ramdas Pophale) SiO2 
 PCOD9289204
Probable space group: C 2/C
;
_chemical_formula_sum "Si O2"
_cell_formula_units_Z 40
_cell_length_a 25.719289
_cell_length_b 4.961318
_cell_length_c 11.247669
_cell_angle_alpha 90.000000
_cell_angle_beta 94.688538
_cell_angle_gamma 90.000000
_cell_volume 1430.417646
_symmetry_space_group_name_H-M "C 2/C"
_symmetry_group_IT_number 15
_symmetry_cell_setting 'monoclinic'
loop_
_space_group_symop_operation_xyz
x,y,z
-x,y,1/2-z
-x,-y,-z
x,-y,1/2+z
1/2+x,1/2+y,z
1/2-x,1/2+y,1/2-z
1/2-x,1/2-y,-z
1/2+x,1/2-y,1/2+z
loop_
_atom_site_type_symbol
_atom_site_label
_atom_site_fract_x
_atom_site_fract_y
_atom_site_fract_z
Si Si1 0.128435 0.696257 0.361614
Si Si2 0.811240 0.972540 0.321840
Si Si3 0.046970 0.533133 0.669282
Si Si4 0.575501 0.536627 0.535567
Si Si5 0.787543 0.538598 0.941227
O O1 0.173330 0.865346 0.303521
O O2 0.098436 0.513279 0.260561
O O3 0.085794 0.902698 0.409610
O O4 0.159256 0.536801 0.470311
O O5 0.776393 0.760308 0.391291
O O6 0.866213 0.961478 0.400979
O O7 0.796127 0.283428 0.323436
O O8 0.044657 0.827620 0.612823
O O9 0.000000 0.481419 0.750000
O O10 0.051558 0.326408 0.559196
O O11 0.750000 0.750000 0.000000
#
# Coordination Sequence:
#
# PCOD9289204 Si02
#       5
#     8   8   8   8   8
#     4  10  22  40  64  84 122 163 194 252 307 349
#     4  10  22  40  62  89 119 156 202 245 298 366
#     4  11  24  40  61  92 124 159 208 253 300 366
#     4  10  22  40  62  91 121 159 208 249 300 366
#     4  11  24  40  61  91 120 153 202 248 298 366
#
# _framework density 27.963858999999999
#
# number of rings (size 3 to 8) (size 9 to 14) (size 15 to 20)
#    0.000    1.600    0.000    6.000    0.000   17.600 
#    0.000    0.000    0.000    0.000    0.000    0.000 
#    0.000    0.000    0.000    0.000    0.000    0.000 
#
# Total GULP energy -112080.551834 kJ/mol
# GULP energy per Si atom -5604.027592 kJ/mol
# Density = 2.790021 g / cm^3
# Si number density = 27.963859 Si / 1000 Ang^3
#
#
#
# Elastic Constant Matrix: (Units=GPa)
#
#
# Indices 1 2 3 4 5 6 
#
# 1 88.8554 -5.5007 14.0867 0.0000 4.1312 0.0000
# 2 -5.5007 134.0950 9.8453 0.0000 0.1945 0.0000
# 3 14.0867 9.8453 101.0834 0.0000 -0.7869 0.0000
# 4 0.0000 0.0000 0.0000 23.2343 0.0000 -21.0993
# 5 4.1312 0.1945 -0.7869 0.0000 57.2737 0.0000
# 6 0.0000 0.0000 0.0000 -21.0993 0.0000 29.0648
#
#
#
# Elastic Compliance Matrix: (Units=1/GPa)
#
#
# Indices 1 2 3 4 5 6 
#
# 1 0.011598 0.000600 -0.001681 0.000000 -0.000862 0.000000
# 2 0.000600 0.007542 -0.000819 0.000000 -0.000080 0.000000
# 3 -0.001681 -0.000819 0.010209 0.000000 0.000264 0.000000
# 4 0.000000 0.000000 0.000000 0.126303 0.000000 0.091688
# 5 -0.000862 -0.000080 0.000264 0.000000 0.017526 0.000000
# 6 0.000000 0.000000 0.000000 0.091688 0.000000 0.100966
#
#
# Mechanical properties :
#
#
# Convention : Reuss Voigt Hill
#
# Bulk Modulus (GPa) = 39.13974 40.09959 39.61966
# Shear Modulus (GPa) = 17.45439 42.28806 29.87123
#
# Velocity S-wave (km/s) = 2.50106 3.89297 3.27189
# Velocity P-wave (km/s) = 4.72941 5.88030 5.33597
#
# Compressibility (1/GPa) = 0.02554948
#
# Stress axis : x y z
#
# Youngs Moduli (GPa) = 86.22144 132.58599 97.95314
#
# Poissons Ratio (x) = -0.07961 0.16470
# Poissons Ratio (y) = -0.05177 0.08021
# Poissons Ratio (z) = 0.14498 0.10858
#
# Static dielectric constant tensor:
#      x y z
#    x 2.212710 0.000000 -0.029400 
#    y 0.000000 2.104370 0.000000 
#    z -0.029400 0.000000 2.219110 
# 
# From -- ./inp_files/124757.got.cif
#   From: 2010.05.17/outbox.cif.g08.bks.cpg/sg15_63_cif.got.tgz:124757.got - 2010.06.03 18:47:42.
