data_PCOD9289145
_publ_section_title
;
Structure prediction by ZEFSAII (Michael W. Deem and Ramdas Pophale) SiO2 
 PCOD9289145
Probable space group: C 2/C
;
_chemical_formula_sum "Si O2"
_cell_formula_units_Z 36
_cell_length_a 7.528850
_cell_length_b 13.192958
_cell_length_c 17.408237
_cell_angle_alpha 90.000000
_cell_angle_beta 105.336128
_cell_angle_gamma 90.000000
_cell_volume 1667.549338
_symmetry_space_group_name_H-M "C 2/C"
_symmetry_group_IT_number 15
_symmetry_cell_setting 'monoclinic'
loop_
_space_group_symop_operation_xyz
x,y,z
-x,y,1/2-z
-x,-y,-z
x,-y,1/2+z
1/2+x,1/2+y,z
1/2-x,1/2+y,1/2-z
1/2-x,1/2-y,-z
1/2+x,1/2-y,1/2+z
loop_
_atom_site_type_symbol
_atom_site_label
_atom_site_fract_x
_atom_site_fract_y
_atom_site_fract_z
Si Si1 0.077535 0.277163 0.341112
Si Si2 0.686478 0.000941 0.799778
Si Si3 0.513034 0.724479 0.594692
Si Si4 0.155290 0.843882 0.569039
Si Si5 0.500000 0.600384 0.750000
O O1 0.113625 0.397170 0.333716
O O2 0.279592 0.234790 0.383187
O O3 0.000000 0.240745 0.250000
O O4 0.936959 0.244748 0.390349
O O5 0.500000 0.945859 0.750000
O O6 0.816962 0.035164 0.744574
O O7 0.813273 0.937706 0.871419
O O8 0.359802 0.810351 0.567826
O O9 0.471116 0.646896 0.520381
O O10 0.484883 0.669706 0.672915
#
# Coordination Sequence:
#
# PCOD9289145 Si02
#       5
#     8   8   8   8   4
#     4  10  22  40  61  89 127 164 206 263 308 372
#     4  10  23  39  62  94 123 164 215 256 308 382
#     4  10  22  41  61  90 126 160 206 260 310 374
#     4  11  23  38  65  92 122 167 208 254 320 375
#     4  10  22  42  62  84 126 164 202 264 318 360
#
# _framework density 21.588564999999999
#
# number of rings (size 3 to 8) (size 9 to 14) (size 15 to 20)
#    0.000    1.778    0.000    4.667    6.222    3.556 
#    0.000   10.000    0.000    0.000    0.000    0.000 
#    0.000    0.000    0.000    0.000    0.000    0.000 
#
# Total GULP energy -100539.194986 kJ/mol
# GULP energy per Si atom -5585.510833 kJ/mol
# Density = 2.153943 g / cm^3
# Si number density = 21.588565 Si / 1000 Ang^3
#
#
#
# Elastic Constant Matrix: (Units=GPa)
#
#
# Indices 1 2 3 4 5 6 
#
# 1 111.9184 10.1546 11.0492 0.0000 24.0662 0.0000
# 2 10.1546 29.0759 1.5159 0.0000 -4.5657 0.0000
# 3 11.0492 1.5159 109.0472 0.0000 10.9531 0.0000
# 4 0.0000 0.0000 0.0000 17.4809 0.0000 48.2302
# 5 24.0662 -4.5657 10.9531 0.0000 37.8091 0.0000
# 6 0.0000 0.0000 0.0000 48.2302 0.0000 198.4875
#
#
#
# Elastic Compliance Matrix: (Units=1/GPa)
#
#
# Indices 1 2 3 4 5 6 
#
# 1 0.011044 -0.005028 -0.000291 0.000000 -0.007553 0.000000
# 2 -0.005028 0.037440 -0.000810 0.000000 0.007956 0.000000
# 3 -0.000291 -0.000810 0.009478 0.000000 -0.002659 0.000000
# 4 0.000000 0.000000 0.000000 0.173566 0.000000 -0.042175
# 5 -0.007553 0.007956 -0.002659 0.000000 0.032987 0.000000
# 6 0.000000 0.000000 0.000000 -0.042175 0.000000 0.015286
#
#
# Mechanical properties :
#
#
# Convention : Reuss Voigt Hill
#
# Bulk Modulus (GPa) = 21.87932 32.83119 27.35526
# Shear Modulus (GPa) = 16.27108 65.91028 41.09068
#
# Velocity S-wave (km/s) = 2.74832 5.53141 4.36748
# Velocity P-wave (km/s) = 4.49752 7.48572 6.17510
#
# Compressibility (1/GPa) = 0.04570525
#
# Stress axis : x y z
#
# Youngs Moduli (GPa) = 90.54645 26.70919 105.50648
#
# Poissons Ratio (x) = 0.13429 0.03065
# Poissons Ratio (y) = 0.45526 0.08548
# Poissons Ratio (z) = 0.02631 0.02164
#
# Static dielectric constant tensor:
#      x y z
#    x 1.812020 0.000000 0.037290 
#    y 0.000000 1.828000 0.000000 
#    z 0.037290 0.000000 1.812230 
# 
# From -- ./inp_files/188146.got.cif
#   From: 2010.05.17/outbox.cif.g08.bks.cpg/sg15_95_cif.got.tgz:188146.got - 2010.06.03 18:47:42.
