data_PCOD9289588
_publ_section_title
;
Structure prediction by ZEFSAII (Michael W. Deem and Ramdas Pophale) SiO2 
 PCOD9289588
Probable space group: C 2/C
;
_chemical_formula_sum "Si O2"
_cell_formula_units_Z 44
_cell_length_a 13.220693
_cell_length_b 8.961790
_cell_length_c 21.104992
_cell_angle_alpha 90.000000
_cell_angle_beta 51.397033
_cell_angle_gamma 90.000000
_cell_volume 1954.144076
_symmetry_space_group_name_H-M "C 2/C"
_symmetry_group_IT_number 15
_symmetry_cell_setting 'monoclinic'
loop_
_space_group_symop_operation_xyz
x,y,z
-x,y,1/2-z
-x,-y,-z
x,-y,1/2+z
1/2+x,1/2+y,z
1/2-x,1/2+y,1/2-z
1/2-x,1/2-y,-z
1/2+x,1/2-y,1/2+z
loop_
_atom_site_type_symbol
_atom_site_label
_atom_site_fract_x
_atom_site_fract_y
_atom_site_fract_z
Si Si1 0.595881 0.116336 0.767798
Si Si2 0.000000 0.171004 0.750000
Si Si3 0.774928 0.925680 0.999933
Si Si4 0.476063 0.439453 0.664789
Si Si5 0.370863 0.621584 0.601802
Si Si6 0.475088 0.865657 0.882793
O O1 0.500000 0.064557 0.750000
O O2 0.534523 0.267532 0.816991
O O3 0.731328 0.162530 0.684949
O O4 0.589693 0.982859 0.820659
O O5 0.051729 0.273618 0.672192
O O6 0.081668 0.050201 0.759451
O O7 0.849154 0.923210 0.038166
O O8 0.649522 0.032741 0.051445
O O9 0.750000 0.750000 0.000000
O O10 0.873237 0.975988 0.906668
O O11 0.405785 0.474696 0.627297
O O12 0.473206 0.749519 0.583945
#
# Coordination Sequence:
#
# PCOD9289588 Si02
#       6
#     8   4   8   8   8   8
#     4  12  20  43  70  97 142 185 233 287 349 415
#     4  10  22  40  66 104 134 178 232 282 346 406
#     4  12  24  47  71  98 143 184 228 291 361 420
#     4  11  24  42  69 103 137 182 231 291 351 420
#     4  11  25  41  67 103 139 182 242 284 352 424
#     4  11  23  43  71 103 141 187 234 293 354 421
#
# _framework density 22.516249999999999
#
# number of rings (size 3 to 8) (size 9 to 14) (size 15 to 20)
#    0.000    0.727    5.455    1.636    0.000    5.091 
#    0.000    1.818    0.000    0.000    0.000    0.000 
#    0.000    0.000    0.000    0.000    0.000    0.000 
#
# Total GULP energy -122708.046162 kJ/mol
# GULP energy per Si atom -5577.638462 kJ/mol
# Density = 2.246500 g / cm^3
# Si number density = 22.516250 Si / 1000 Ang^3
#
#
#
# Elastic Constant Matrix: (Units=GPa)
#
#
# Indices 1 2 3 4 5 6 
#
# 1 74.3832 13.9663 25.0054 0.0000 2.1991 0.0000
# 2 13.9663 123.5066 31.8608 0.0000 3.2021 0.0000
# 3 25.0054 31.8608 94.0811 0.0000 -11.1579 0.0000
# 4 0.0000 0.0000 0.0000 23.4763 0.0000 4.3108
# 5 2.1991 3.2021 -11.1579 0.0000 27.8316 0.0000
# 6 0.0000 0.0000 0.0000 4.3108 0.0000 35.5489
#
#
#
# Elastic Compliance Matrix: (Units=1/GPa)
#
#
# Indices 1 2 3 4 5 6 
#
# 1 0.015020 -0.000561 -0.004132 0.000000 -0.002779 0.000000
# 2 -0.000561 0.009040 -0.003182 0.000000 -0.002271 0.000000
# 3 -0.004132 -0.003182 0.013530 0.000000 0.006117 0.000000
# 4 0.000000 0.000000 0.000000 0.043566 0.000000 -0.005283
# 5 -0.002779 -0.002271 0.006117 0.000000 0.038864 0.000000
# 6 0.000000 0.000000 0.000000 -0.005283 0.000000 0.028771
#
#
# Mechanical properties :
#
#
# Convention : Reuss Voigt Hill
#
# Bulk Modulus (GPa) = 45.78342 48.18178 46.98260
# Shear Modulus (GPa) = 29.10015 32.11391 30.60703
#
# Velocity S-wave (km/s) = 3.59891 3.78068 3.69091
# Velocity P-wave (km/s) = 6.13573 6.36421 6.25101
#
# Compressibility (1/GPa) = 0.02184197
#
# Stress axis : x y z
#
# Youngs Moduli (GPa) = 66.57641 110.62199 73.90824
#
# Poissons Ratio (x) = 0.06201 0.30538
# Poissons Ratio (y) = 0.03732 0.23516
# Poissons Ratio (z) = 0.27509 0.35197
#
# Static dielectric constant tensor:
#      x y z
#    x 1.941760 0.000000 -0.001320 
#    y 0.000000 1.847460 0.000000 
#    z -0.001320 0.000000 1.937700 
# 
# From -- ./inp_files/272560.got.cif
#   From: 2010.05.17/outbox.cif.g08.bks.cpg/sg15_137_cif.got.tgz:272560.got - 2010.06.03 18:47:42.
