data_PCOD9289336
_publ_section_title
;
Structure prediction by ZEFSAII (Michael W. Deem and Ramdas Pophale) SiO2 
 PCOD9289336
Probable space group: C 2/C
;
_chemical_formula_sum "Si O2"
_cell_formula_units_Z 40
_cell_length_a 20.752501
_cell_length_b 8.281873
_cell_length_c 10.890774
_cell_angle_alpha 90.000000
_cell_angle_beta 96.715137
_cell_angle_gamma 90.000000
_cell_volume 1858.951840
_symmetry_space_group_name_H-M "C 2/C"
_symmetry_group_IT_number 15
_symmetry_cell_setting 'monoclinic'
loop_
_space_group_symop_operation_xyz
x,y,z
-x,y,1/2-z
-x,-y,-z
x,-y,1/2+z
1/2+x,1/2+y,z
1/2-x,1/2+y,1/2-z
1/2-x,1/2-y,-z
1/2+x,1/2-y,1/2+z
loop_
_atom_site_type_symbol
_atom_site_label
_atom_site_fract_x
_atom_site_fract_y
_atom_site_fract_z
Si Si1 0.939574 0.621101 0.990500
Si Si2 0.383413 0.328251 0.754740
Si Si3 0.675458 0.115067 0.977735
Si Si4 0.444309 0.551367 0.584006
Si Si5 0.185604 0.052126 0.585743
O O1 0.922378 0.720894 0.862842
O O2 0.876122 0.518636 0.002250
O O3 0.951184 0.757095 0.096626
O O4 0.000000 0.500000 0.000000
O O5 0.350731 0.211338 0.647524
O O6 0.435028 0.448416 0.703922
O O7 0.326724 0.444676 0.796755
O O8 0.744591 0.036078 0.962020
O O9 0.678762 0.252502 0.084984
O O10 0.500000 0.500000 0.500000
O O11 0.374362 0.513889 0.507106
#
# Coordination Sequence:
#
# PCOD9289336 Si02
#       5
#     8   8   8   8   8
#     4  11  24  41  64  95 126 161 215 266 306 371
#     4  10  23  41  64  89 129 174 205 253 327 375
#     4  10  22  40  63  96 129 163 216 264 303 369
#     4  10  22  42  64  89 125 165 208 260 320 379
#     4   9  21  40  62  90 129 168 209 258 312 376
#
# _framework density 21.517502
#
# number of rings (size 3 to 8) (size 9 to 14) (size 15 to 20)
#    0.000    2.000    0.000    2.400    0.000   18.400 
#    0.000    4.000    0.000    0.000    0.000    0.000 
#    0.000    0.000    0.000    0.000    0.000    0.000 
#
# Total GULP energy -111590.743995 kJ/mol
# GULP energy per Si atom -5579.537200 kJ/mol
# Density = 2.146853 g / cm^3
# Si number density = 21.517502 Si / 1000 Ang^3
#
#
#
# Elastic Constant Matrix: (Units=GPa)
#
#
# Indices 1 2 3 4 5 6 
#
# 1 175.0154 105.4223 25.6973 0.0000 -23.3897 0.0000
# 2 105.4223 165.9311 61.7052 0.0000 -36.5029 0.0000
# 3 25.6973 61.7052 70.5059 0.0000 -14.7558 0.0000
# 4 0.0000 0.0000 0.0000 60.4269 0.0000 -11.8204
# 5 -23.3897 -36.5029 -14.7558 0.0000 26.6956 0.0000
# 6 0.0000 0.0000 0.0000 -11.8204 0.0000 48.8662
#
#
#
# Elastic Compliance Matrix: (Units=1/GPa)
#
#
# Indices 1 2 3 4 5 6 
#
# 1 0.009598 -0.007054 0.002733 0.000000 0.000275 0.000000
# 2 -0.007054 0.016502 -0.009546 0.000000 0.011107 0.000000
# 3 0.002733 -0.009546 0.021837 0.000000 0.001411 0.000000
# 4 0.000000 0.000000 0.000000 0.017371 0.000000 0.004202
# 5 0.000275 0.011107 0.001411 0.000000 0.053667 0.000000
# 6 0.000000 0.000000 0.000000 0.004202 0.000000 0.021480
#
#
# Mechanical properties :
#
#
# Convention : Reuss Voigt Hill
#
# Bulk Modulus (GPa) = 49.50025 88.56691 69.03358
# Shear Modulus (GPa) = 28.58363 41.77291 35.17827
#
# Velocity S-wave (km/s) = 3.64866 4.41085 4.04774
# Velocity P-wave (km/s) = 6.38787 8.19699 7.34832
#
# Compressibility (1/GPa) = 0.02020192
#
# Stress axis : x y z
#
# Youngs Moduli (GPa) = 104.18570 60.60014 45.79302
#
# Poissons Ratio (x) = 0.42747 -0.12513
# Poissons Ratio (y) = 0.73491 0.43716
# Poissons Ratio (z) = -0.28470 0.57851
#
# Static dielectric constant tensor:
#      x y z
#    x 1.753480 0.000000 0.031960 
#    y 0.000000 1.796310 0.000000 
#    z 0.031960 0.000000 1.920610 
# 
# From -- ./inp_files/109694.got.cif
#   From: 2010.05.17/outbox.cif.g08.bks.cpg/sg15_55_cif.got.tgz:109694.got - 2010.06.03 18:47:42.
