data_PCOD9289532
_publ_section_title
;
Structure prediction by ZEFSAII (Michael W. Deem and Ramdas Pophale) SiO2 
 PCOD9289532
Probable space group: C 2/C
;
_chemical_formula_sum "Si O2"
_cell_formula_units_Z 52
_cell_length_a 20.126317
_cell_length_b 13.998914
_cell_length_c 8.789633
_cell_angle_alpha 90.000000
_cell_angle_beta 99.694430
_cell_angle_gamma 90.000000
_cell_volume 2441.084966
_symmetry_space_group_name_H-M "C 2/C"
_symmetry_group_IT_number 15
_symmetry_cell_setting 'monoclinic'
loop_
_space_group_symop_operation_xyz
x,y,z
-x,y,1/2-z
-x,-y,-z
x,-y,1/2+z
1/2+x,1/2+y,z
1/2-x,1/2+y,1/2-z
1/2-x,1/2-y,-z
1/2+x,1/2-y,1/2+z
loop_
_atom_site_type_symbol
_atom_site_label
_atom_site_fract_x
_atom_site_fract_y
_atom_site_fract_z
Si Si1 0.098121 0.754685 0.597674
Si Si2 0.309852 0.224906 0.139051
Si Si3 0.853868 0.395237 0.181662
Si Si4 0.784058 0.547616 0.347713
Si Si5 0.500000 0.855641 0.250000
Si Si6 0.926219 0.035227 0.514784
Si Si7 0.652929 0.425220 0.229077
O O1 0.125460 0.715892 0.447330
O O2 0.146745 0.712053 0.748749
O O3 0.027014 0.710248 0.622411
O O4 0.092823 0.868018 0.583731
O O5 0.291793 0.133148 0.230165
O O6 0.322240 0.317388 0.247540
O O7 0.250000 0.250000 0.000000
O O8 0.835137 0.465354 0.311542
O O9 0.932894 0.410754 0.173007
O O10 0.805248 0.416156 0.022418
O O11 0.712322 0.495550 0.305994
O O12 0.910641 0.060363 0.682577
O O13 0.873455 0.954691 0.444430
O O14 0.000000 0.000000 0.500000
#
# Coordination Sequence:
#
# PCOD9289532 Si02
#       7
#     8   8   8   8   4   8   8
#     4   9  21  43  64  92 133 173 213 278 324 389
#     4  11  23  43  64  91 135 172 214 278 333 386
#     4  10  22  40  65  95 131 172 220 267 330 394
#     4  12  23  42  70  97 133 177 221 274 342 399
#     4   8  22  40  66  94 132 168 224 264 336 386
#     4  11  24  42  68  91 132 173 216 272 332 387
#     4  11  25  41  63  99 124 168 223 268 325 400
#
# _framework density 21.302002999999999
#
# number of rings (size 3 to 8) (size 9 to 14) (size 15 to 20)
#    0.923    0.615    0.000    6.000    2.154    3.077 
#    0.000    6.154    0.000    0.000    0.000    0.000 
#    0.000    0.000    0.000    0.000    0.000    0.000 
#
# Total GULP energy -145126.008671 kJ/mol
# GULP energy per Si atom -5581.769564 kJ/mol
# Density = 2.125352 g / cm^3
# Si number density = 21.302003 Si / 1000 Ang^3
#
#
#
# Elastic Constant Matrix: (Units=GPa)
#
#
# Indices 1 2 3 4 5 6 
#
# 1 86.8010 26.0975 -1.4377 0.0000 -21.2176 0.0000
# 2 26.0975 102.9363 21.2062 0.0000 -8.6213 0.0000
# 3 -1.4377 21.2062 40.6810 0.0000 -4.7709 0.0000
# 4 0.0000 0.0000 0.0000 30.6690 0.0000 2.4157
# 5 -21.2176 -8.6213 -4.7709 0.0000 33.4786 0.0000
# 6 0.0000 0.0000 0.0000 2.4157 0.0000 26.9333
#
#
#
# Elastic Compliance Matrix: (Units=1/GPa)
#
#
# Indices 1 2 3 4 5 6 
#
# 1 0.014904 -0.003755 0.003538 0.000000 0.008983 0.000000
# 2 -0.003755 0.011967 -0.006395 0.000000 -0.000210 0.000000
# 3 0.003538 -0.006395 0.028588 0.000000 0.004669 0.000000
# 4 0.000000 0.000000 0.000000 0.032838 0.000000 -0.002945
# 5 0.008983 -0.000210 0.004669 0.000000 0.036174 0.000000
# 6 0.000000 0.000000 0.000000 -0.002945 0.000000 0.037393
#
#
# Mechanical properties :
#
#
# Convention : Reuss Voigt Hill
#
# Bulk Modulus (GPa) = 23.67820 35.79449 29.73634
# Shear Modulus (GPa) = 26.43169 30.51967 28.47568
#
# Velocity S-wave (km/s) = 3.52633 3.78923 3.66014
# Velocity P-wave (km/s) = 5.26494 5.99868 5.64375
#
# Compressibility (1/GPa) = 0.04223295
#
# Stress axis : x y z
#
# Youngs Moduli (GPa) = 67.09647 83.56506 34.97994
#
# Poissons Ratio (x) = 0.31379 -0.12374
# Poissons Ratio (y) = 0.25195 0.22371
# Poissons Ratio (z) = -0.23736 0.53442
#
# Static dielectric constant tensor:
#      x y z
#    x 1.806960 0.000000 -0.013330 
#    y 0.000000 1.760520 0.000000 
#    z -0.013330 0.000000 1.771910 
# 
# From -- ./inp_files/55355.got.cif
#   From: 2010.05.17/outbox.cif.g08.bks.cpg/sg15_28_cif.got.tgz:55355.got - 2010.06.03 18:47:42.
