data_PCOD9289548
_publ_section_title
;
Structure prediction by ZEFSAII (Michael W. Deem and Ramdas Pophale) SiO2 
 PCOD9289548
Probable space group: C 2/C
;
_chemical_formula_sum "Si O2"
_cell_formula_units_Z 40
_cell_length_a 14.994875
_cell_length_b 18.447719
_cell_length_c 9.422918
_cell_angle_alpha 90.000000
_cell_angle_beta 38.956973
_cell_angle_gamma 90.000000
_cell_volume 1638.851801
_symmetry_space_group_name_H-M "C 2/C"
_symmetry_group_IT_number 15
_symmetry_cell_setting 'monoclinic'
loop_
_space_group_symop_operation_xyz
x,y,z
-x,y,1/2-z
-x,-y,-z
x,-y,1/2+z
1/2+x,1/2+y,z
1/2-x,1/2+y,1/2-z
1/2-x,1/2-y,-z
1/2+x,1/2-y,1/2+z
loop_
_atom_site_type_symbol
_atom_site_label
_atom_site_fract_x
_atom_site_fract_y
_atom_site_fract_z
Si Si1 0.874376 0.538062 0.516837
Si Si2 0.377775 0.609209 0.570262
Si Si3 0.233233 0.263781 0.816926
Si Si4 0.992490 0.673058 0.089564
Si Si5 0.800424 0.091691 0.357051
O O1 0.733580 0.589032 0.669177
O O2 0.956774 0.592431 0.523498
O O3 0.677440 0.430665 0.505400
O O4 0.000000 0.525678 0.250000
O O5 0.365136 0.693472 0.545118
O O6 0.539697 0.592111 0.401523
O O7 0.204680 0.461626 0.883610
O O8 0.389285 0.230998 0.604043
O O9 0.236563 0.327254 0.928529
O O10 0.161780 0.304415 0.771714
O O11 0.000000 0.671544 0.250000
#
# Coordination Sequence:
#
# PCOD9289548 Si02
#       5
#     8   8   8   8   8
#     4  10  24  43  64  95 136 180 229 281 336 407
#     4  10  23  44  67 100 140 180 233 280 346 414
#     4  11  21  41  67  99 138 180 227 287 337 413
#     4  10  22  40  65  96 137 177 229 278 342 407
#     4  11  23  41  70 100 138 183 229 284 346 407
#
# _framework density 24.407332
#
# number of rings (size 3 to 8) (size 9 to 14) (size 15 to 20)
#    0.000    1.600    2.000    1.800    0.000    8.000 
#    3.600    0.000    0.000    0.000    0.000    0.000 
#    0.000    0.000    0.000    0.000    0.000    0.000 
#
# Total GULP energy -111427.151481 kJ/mol
# GULP energy per Si atom -5571.357574 kJ/mol
# Density = 2.435178 g / cm^3
# Si number density = 24.407332 Si / 1000 Ang^3
#
#
#
# Elastic Constant Matrix: (Units=GPa)
#
#
# Indices 1 2 3 4 5 6 
#
# 1 96.8519 40.4355 34.0410 0.0000 -25.0667 0.0000
# 2 40.4355 158.2039 38.2183 0.0000 -20.5740 0.0000
# 3 34.0410 38.2183 140.4847 0.0000 -31.2105 0.0000
# 4 0.0000 0.0000 0.0000 -14.7908 0.0000 39.7887
# 5 -25.0667 -20.5740 -31.2105 0.0000 31.0626 0.0000
# 6 0.0000 0.0000 0.0000 39.7887 0.0000 -18.2156
#
#
#
# Elastic Compliance Matrix: (Units=1/GPa)
#
#
# Indices 1 2 3 4 5 6 
#
# 1 0.013819 -0.002185 -0.000770 0.000000 0.008931 0.000000
# 2 -0.002185 0.007400 -0.001013 0.000000 0.002121 0.000000
# 3 -0.000770 -0.001013 0.009389 0.000000 0.008142 0.000000
# 4 0.000000 0.000000 0.000000 0.013866 0.000000 0.030287
# 5 0.008931 0.002121 0.008142 0.000000 0.048985 0.000000
# 6 0.000000 0.000000 0.000000 0.030287 0.000000 0.011259
#
#
# Mechanical properties :
#
#
# Convention : Reuss Voigt Hill
#
# Bulk Modulus (GPa) = 44.10420 68.99223 56.54822
# Shear Modulus (GPa) = 41.59387 18.46762 30.03075
#
# Velocity S-wave (km/s) = 4.13262 2.75370 3.51151
# Velocity P-wave (km/s) = 6.39380 6.19991 6.29760
#
# Compressibility (1/GPa) = 0.02267358
#
# Stress axis : x y z
#
# Youngs Moduli (GPa) = 72.36277 135.13994 106.50713
#
# Poissons Ratio (x) = 0.29522 0.08202
# Poissons Ratio (y) = 0.15808 0.10784
# Poissons Ratio (z) = 0.05573 0.13684
#
# Static dielectric constant tensor:
#      x y z
#    x 1.979610 0.000000 0.077680 
#    y 0.000000 2.022430 0.000000 
#    z 0.077680 0.000000 1.966260 
# 
# From -- ./inp_files/47730.got.cif
#   From: 2010.05.17/outbox.cif.g08.bks.cpg/sg15_24_cif.got.tgz:47730.got - 2010.06.03 18:47:42.
