data_PCOD9289422
_publ_section_title
;
Structure prediction by ZEFSAII (Michael W. Deem and Ramdas Pophale) SiO2 
 PCOD9289422
Probable space group: C 2/C
;
_chemical_formula_sum "Si O2"
_cell_formula_units_Z 64
_cell_length_a 8.345826
_cell_length_b 29.469464
_cell_length_c 16.984813
_cell_angle_alpha 90.000000
_cell_angle_beta 138.689062
_cell_angle_gamma 90.000000
_cell_volume 2757.666354
_symmetry_space_group_name_H-M "C 2/C"
_symmetry_group_IT_number 15
_symmetry_cell_setting 'monoclinic'
loop_
_space_group_symop_operation_xyz
x,y,z
-x,y,1/2-z
-x,-y,-z
x,-y,1/2+z
1/2+x,1/2+y,z
1/2-x,1/2+y,1/2-z
1/2-x,1/2-y,-z
1/2+x,1/2-y,1/2+z
loop_
_atom_site_type_symbol
_atom_site_label
_atom_site_fract_x
_atom_site_fract_y
_atom_site_fract_z
Si Si1 0.769042 0.397016 0.370944
Si Si2 0.561881 0.190666 0.639179
Si Si3 0.286362 0.282713 0.867549
Si Si4 0.885856 0.138652 0.292915
Si Si5 0.642928 0.671279 0.600719
Si Si6 0.502402 0.015216 0.593333
Si Si7 0.423120 0.079446 0.105113
Si Si8 0.414814 0.578814 0.999952
O O1 0.500000 0.382193 0.250000
O O2 0.941773 0.356126 0.409516
O O3 0.817709 0.409174 0.479483
O O4 0.818095 0.442347 0.338483
O O5 0.606849 0.232517 0.598733
O O6 0.324318 0.194907 0.605372
O O7 0.777358 0.185617 0.783395
O O8 0.385191 0.312050 0.830977
O O9 0.000000 0.280356 0.750000
O O10 0.378239 0.311068 0.977439
O O11 0.612715 0.118611 0.195893
O O12 0.000000 0.138982 0.250000
O O13 0.049459 0.105799 0.406027
O O14 0.677487 0.617290 0.596739
O O15 0.257677 0.036463 0.542488
O O16 0.500000 0.000000 0.500000
O O17 0.568058 0.968192 0.658635
O O18 0.188432 0.070424 0.071666
#
# Coordination Sequence:
#
# PCOD9289422 Si02
#       8
#     8   8   8   8   8   8   8   8
#     4  11  23  41  63  95 131 172 221 277 333 399
#     4  11  23  42  68  98 134 179 228 278 339 404
#     4  11  25  42  66  99 135 174 222 281 340 405
#     4  11  24  41  67  92 127 172 216 270 333 398
#     4  10  23  41  67  97 133 177 227 277 339 405
#     4  10  22  40  64  94 130 173 221 271 330 402
#     4  11  24  40  66  97 130 173 221 273 338 396
#     4  11  21  44  65  93 133 168 219 278 329 400
#
# _framework density 23.208030000000001
#
# number of rings (size 3 to 8) (size 9 to 14) (size 15 to 20)
#    0.000    1.250    1.250    5.250    3.500    4.000 
#    0.000    3.750    0.000    0.000    0.000    0.000 
#    0.000    0.000    0.000    0.000    0.000    0.000 
#
# Total GULP energy -178900.172822 kJ/mol
# GULP energy per Si atom -5590.630401 kJ/mol
# Density = 2.315521 g / cm^3
# Si number density = 23.208030 Si / 1000 Ang^3
#
#
#
# Elastic Constant Matrix: (Units=GPa)
#
#
# Indices 1 2 3 4 5 6 
#
# 1 78.2124 15.1882 16.1954 0.0000 0.5919 0.0000
# 2 15.1882 93.7572 12.3865 0.0000 -2.4145 0.0000
# 3 16.1954 12.3865 69.2283 0.0000 8.5524 0.0000
# 4 0.0000 0.0000 0.0000 28.1592 0.0000 6.9046
# 5 0.5919 -2.4145 8.5524 0.0000 31.4791 0.0000
# 6 0.0000 0.0000 0.0000 6.9046 0.0000 18.8496
#
#
#
# Elastic Compliance Matrix: (Units=1/GPa)
#
#
# Indices 1 2 3 4 5 6 
#
# 1 0.013746 -0.001828 -0.002938 0.000000 0.000400 0.000000
# 2 -0.001828 0.011229 -0.001751 0.000000 0.001371 0.000000
# 3 -0.002938 -0.001751 0.015992 0.000000 -0.004424 0.000000
# 4 0.000000 0.000000 0.000000 0.039017 0.000000 -0.014292
# 5 0.000400 0.001371 -0.004424 0.000000 0.033067 0.000000
# 6 0.000000 0.000000 0.000000 -0.014292 0.000000 0.058287
#
#
# Mechanical properties :
#
#
# Convention : Reuss Voigt Hill
#
# Bulk Modulus (GPa) = 35.80050 36.52646 36.16348
# Shear Modulus (GPa) = 25.81552 28.85943 27.33748
#
# Velocity S-wave (km/s) = 3.33881 3.53017 3.43582
# Velocity P-wave (km/s) = 5.50663 5.69114 5.59964
#
# Compressibility (1/GPa) = 0.02793257
#
# Stress axis : x y z
#
# Youngs Moduli (GPa) = 72.74787 89.05792 62.53105
#
# Poissons Ratio (x) = 0.16283 0.18372
# Poissons Ratio (y) = 0.13301 0.10947
# Poissons Ratio (z) = 0.21373 0.15592
#
# Static dielectric constant tensor:
#      x y z
#    x 1.888730 0.000000 0.028070 
#    y 0.000000 1.860140 0.000000 
#    z 0.028070 0.000000 1.882580 
# 
# From -- ./inp_files/194248.got.cif
#   From: 2010.05.17/outbox.cif.g08.bks.cpg/sg15_98_cif.got.tgz:194248.got - 2010.06.03 18:47:42.
