data_PCOD9289285
_publ_section_title
;
Structure prediction by ZEFSAII (Michael W. Deem and Ramdas Pophale) SiO2 
 PCOD9289285
Probable space group: C 2/C
;
_chemical_formula_sum "Si O2"
_cell_formula_units_Z 32
_cell_length_a 12.092837
_cell_length_b 14.084062
_cell_length_c 9.556675
_cell_angle_alpha 90.000000
_cell_angle_beta 131.541637
_cell_angle_gamma 90.000000
_cell_volume 1218.259089
_symmetry_space_group_name_H-M "C 2/C"
_symmetry_group_IT_number 15
_symmetry_cell_setting 'monoclinic'
loop_
_space_group_symop_operation_xyz
x,y,z
-x,y,1/2-z
-x,-y,-z
x,-y,1/2+z
1/2+x,1/2+y,z
1/2-x,1/2+y,1/2-z
1/2-x,1/2-y,-z
1/2+x,1/2-y,1/2+z
loop_
_atom_site_type_symbol
_atom_site_label
_atom_site_fract_x
_atom_site_fract_y
_atom_site_fract_z
Si Si1 0.322208 0.508684 0.855764
Si Si2 0.653628 0.796082 0.299631
Si Si3 0.599931 0.253343 0.456787
Si Si4 0.138522 0.543260 0.443329
O O1 0.257079 0.614567 0.836304
O O2 0.228176 0.487521 0.636918
O O3 0.262170 0.442149 0.928642
O O4 0.500000 0.500000 0.000000
O O5 0.500000 0.813189 0.250000
O O6 0.750000 0.750000 0.500000
O O7 0.619352 0.726706 0.137215
O O8 0.500000 0.299000 0.250000
O O9 0.750000 0.250000 0.500000
O O10 0.563608 0.139473 0.438690
O O11 0.000000 0.496368 0.250000
#
# Coordination Sequence:
#
# PCOD9289285 Si02
#       4
#     8   8   8   8
#     4  11  24  42  65  97 134 178 230 289 352 423
#     4  11  25  44  68 103 142 185 235 293 358 427
#     4  10  22  40  63  92 129 176 226 281 343 415
#     4  10  22  40  63  90 126 175 227 283 347 419
#
# _framework density 26.26699
#
# number of rings (size 3 to 8) (size 9 to 14) (size 15 to 20)
#    0.000    1.500    0.000    3.750    0.000   14.000 
#    0.000    0.000    0.000    0.000    0.000    0.000 
#    0.000    0.000    0.000    0.000    0.000    0.000 
#
# Total GULP energy -89252.253126 kJ/mol
# GULP energy per Si atom -5578.265820 kJ/mol
# Density = 2.620721 g / cm^3
# Si number density = 26.266990 Si / 1000 Ang^3
#
#
#
# Elastic Constant Matrix: (Units=GPa)
#
#
# Indices 1 2 3 4 5 6 
#
# 1 161.5191 8.5090 75.7991 0.0000 18.4434 0.0000
# 2 8.5090 49.7759 35.9046 0.0000 -1.9418 0.0000
# 3 75.7991 35.9046 268.7630 0.0000 0.9458 0.0000
# 4 0.0000 0.0000 0.0000 25.9507 0.0000 0.5649
# 5 18.4434 -1.9418 0.9458 0.0000 73.6835 0.0000
# 6 0.0000 0.0000 0.0000 0.5649 0.0000 34.6917
#
#
#
# Elastic Compliance Matrix: (Units=1/GPa)
#
#
# Indices 1 2 3 4 5 6 
#
# 1 0.007373 0.000182 -0.002097 0.000000 -0.001814 0.000000
# 2 0.000182 0.022266 -0.003028 0.000000 0.000580 0.000000
# 3 -0.002097 -0.003028 0.004715 0.000000 0.000385 0.000000
# 4 0.000000 0.000000 0.000000 0.038548 0.000000 -0.000628
# 5 -0.001814 0.000580 0.000385 0.000000 0.014036 0.000000
# 6 0.000000 0.000000 0.000000 -0.000628 0.000000 0.028836
#
#
# Mechanical properties :
#
#
# Convention : Reuss Voigt Hill
#
# Bulk Modulus (GPa) = 40.87100 80.05374 60.46237
# Shear Modulus (GPa) = 37.36464 50.85486 44.10975
#
# Velocity S-wave (km/s) = 3.77569 4.40486 4.10235
# Velocity P-wave (km/s) = 5.88229 7.51089 6.74592
#
# Compressibility (1/GPa) = 0.02446722
#
# Stress axis : x y z
#
# Youngs Moduli (GPa) = 135.63013 44.91220 212.07174
#
# Poissons Ratio (x) = -0.00816 0.44478
# Poissons Ratio (y) = -0.02464 0.64211
# Poissons Ratio (z) = 0.28446 0.13599
#
# Static dielectric constant tensor:
#      x y z
#    x 2.037170 0.000000 -0.062830 
#    y 0.000000 2.409550 0.000000 
#    z -0.062830 0.000000 2.073920 
# 
# From -- ./inp_files/31545.got.cif
#   From: 2010.05.17/outbox.cif.g08.bks.cpg/sg15_16_cif.got.tgz:31545.got - 2010.06.03 18:47:42.
