data_PCOD9289071
_publ_section_title
;
Structure prediction by ZEFSAII (Michael W. Deem and Ramdas Pophale) SiO2 
 PCOD9289071
Probable space group: C 2/C
;
_chemical_formula_sum "Si O2"
_cell_formula_units_Z 64
_cell_length_a 25.791861
_cell_length_b 7.386652
_cell_length_c 32.482741
_cell_angle_alpha 90.000000
_cell_angle_beta 155.093805
_cell_angle_gamma 90.000000
_cell_volume 2606.172591
_symmetry_space_group_name_H-M "C 2/C"
_symmetry_group_IT_number 15
_symmetry_cell_setting 'monoclinic'
loop_
_space_group_symop_operation_xyz
x,y,z
-x,y,1/2-z
-x,-y,-z
x,-y,1/2+z
1/2+x,1/2+y,z
1/2-x,1/2+y,1/2-z
1/2-x,1/2-y,-z
1/2+x,1/2-y,1/2+z
loop_
_atom_site_type_symbol
_atom_site_label
_atom_site_fract_x
_atom_site_fract_y
_atom_site_fract_z
Si Si1 0.272186 0.665649 0.156610
Si Si2 0.206512 0.739930 0.610332
Si Si3 0.631124 0.154113 0.200671
Si Si4 0.129238 0.333066 0.355782
Si Si5 0.998270 0.799249 0.518103
Si Si6 0.326072 0.504713 0.560315
Si Si7 0.126045 0.718321 0.466934
Si Si8 0.655044 0.581584 0.205357
O O1 0.271029 0.450264 0.147600
O O2 0.312890 0.768996 0.145417
O O3 0.348182 0.682414 0.253529
O O4 0.136460 0.727946 0.071877
O O5 0.289212 0.862148 0.699991
O O6 0.166964 0.818954 0.538168
O O7 0.084418 0.691981 0.548490
O O8 0.490937 0.094939 0.105819
O O9 0.621711 0.371186 0.186207
O O10 0.710443 0.080872 0.219785
O O11 0.228061 0.436787 0.455175
O O12 0.000000 0.425192 0.250000
O O13 0.103718 0.155644 0.366013
O O14 0.066944 0.817584 0.610621
O O15 0.000000 0.000000 0.500000
O O16 0.240829 0.606906 0.531985
O O17 0.409480 0.645466 0.595433
#
# Coordination Sequence:
#
# PCOD9289071 Si02
#       8
#     8   8   8   8   8   8   8   8
#     4  11  23  41  65  91 129 177 207 263 332 389
#     4  10  22  40  61  97 126 172 209 253 329 393
#     4  10  23  40  64  94 133 168 210 258 324 389
#     4  11  26  47  66  97 131 169 223 276 331 390
#     4  11  23  39  65  99 133 166 212 267 318 397
#     4  10  26  45  68  99 124 171 228 275 329 389
#     4  11  22  44  71  94 131 170 219 277 324 383
#     4  10  22  40  60 100 128 171 211 256 319 396
#
# _framework density 24.557082999999999
#
# number of rings (size 3 to 8) (size 9 to 14) (size 15 to 20)
#    0.000    1.500    1.250    2.625    7.000    4.000 
#    4.500    2.500    0.000    0.000    0.000    0.000 
#    0.000    0.000    0.000    0.000    0.000    0.000 
#
# Total GULP energy -179198.342944 kJ/mol
# GULP energy per Si atom -5599.948217 kJ/mol
# Density = 2.450119 g / cm^3
# Si number density = 24.557083 Si / 1000 Ang^3
#
#
#
# Elastic Constant Matrix: (Units=GPa)
#
#
# Indices 1 2 3 4 5 6 
#
# 1 134.1551 10.8894 45.1667 -0.0023 -33.8442 -0.0002
# 2 10.8894 37.2655 2.8741 -0.0046 -4.5961 0.0050
# 3 45.1667 2.8741 64.0653 -0.0139 -21.6224 -0.0021
# 4 -0.0023 -0.0046 -0.0139 18.9612 -0.0022 -6.2905
# 5 -33.8442 -4.5961 -21.6224 -0.0022 44.2713 0.0016
# 6 -0.0002 0.0050 -0.0021 -6.2905 0.0016 27.0285
#
#
#
# Elastic Compliance Matrix: (Units=1/GPa)
#
#
# Indices 1 2 3 4 5 6 
#
# 1 0.010916 -0.002089 -0.005818 -0.000003 0.005287 -0.000001
# 2 -0.002089 0.027588 0.000794 0.000006 0.001655 -0.000004
# 3 -0.005818 0.000794 0.021795 0.000018 0.006279 0.000005
# 4 -0.000003 0.000006 0.000018 0.057152 0.000009 0.013301
# 5 0.005287 0.001655 0.006279 0.000009 0.029868 0.000001
# 6 -0.000001 -0.000004 0.000005 0.013301 0.000001 0.040094
#
#
# Mechanical properties :
#
#
# Convention : Reuss Voigt Hill
#
# Bulk Modulus (GPa) = 21.70539 39.26072 30.48305
# Shear Modulus (GPa) = 23.04184 29.82257 26.43220
#
# Velocity S-wave (km/s) = 3.06649 3.48863 3.28435
# Velocity P-wave (km/s) = 4.62555 5.67888 5.17906
#
# Compressibility (1/GPa) = 0.04607152
#
# Stress axis : x y z
#
# Youngs Moduli (GPa) = 91.60782 36.24796 45.88308
#
# Poissons Ratio (x) = 0.07572 0.26695
# Poissons Ratio (y) = 0.19138 -0.03641
# Poissons Ratio (z) = 0.53297 -0.02877
#
# Static dielectric constant tensor:
#      x y z
#    x 1.906600 0.000000 -0.000740 
#    y 0.000000 1.998570 0.000000 
#    z -0.000740 0.000000 1.966680 
# 
# From -- ./inp_files/318639.got.cif
#   From: 2010.05.17/outbox.cif.g08.bks.cpg/sg15_160_cif.got.tgz:318639.got - 2010.06.03 18:47:42.
