data_PCOD9289660
_publ_section_title
;
Structure prediction by ZEFSAII (Michael W. Deem and Ramdas Pophale) SiO2 
 PCOD9289660
Probable space group: C 2/C
;
_chemical_formula_sum "Si O2"
_cell_formula_units_Z 56
_cell_length_a 18.888178
_cell_length_b 13.699373
_cell_length_c 15.654522
_cell_angle_alpha 90.000000
_cell_angle_beta 35.023789
_cell_angle_gamma 90.000000
_cell_volume 2324.766166
_symmetry_space_group_name_H-M "C 2/C"
_symmetry_group_IT_number 15
_symmetry_cell_setting 'monoclinic'
loop_
_space_group_symop_operation_xyz
x,y,z
-x,y,1/2-z
-x,-y,-z
x,-y,1/2+z
1/2+x,1/2+y,z
1/2-x,1/2+y,1/2-z
1/2-x,1/2-y,-z
1/2+x,1/2-y,1/2+z
loop_
_atom_site_type_symbol
_atom_site_label
_atom_site_fract_x
_atom_site_fract_y
_atom_site_fract_z
Si Si1 0.216567 0.059673 0.852585
Si Si2 0.278267 0.328042 0.865479
Si Si3 0.417574 0.162626 0.261241
Si Si4 0.355937 0.037335 0.889086
Si Si5 0.563796 0.851070 0.464849
Si Si6 0.046740 0.226181 0.071758
Si Si7 0.799416 0.829744 0.641272
O O1 0.291814 0.075460 0.866256
O O2 0.314534 0.091116 0.682924
O O3 0.181790 0.945369 0.887091
O O4 0.099236 0.131632 0.968934
O O5 0.420707 0.305108 0.741692
O O6 0.271636 0.316820 0.769210
O O7 0.231273 0.430172 0.947625
O O8 0.165344 0.260099 0.007987
O O9 0.500000 0.218244 0.250000
O O10 0.308837 0.208870 0.313523
O O11 0.358088 0.079114 0.379091
O O12 0.485936 0.100456 0.117090
O O13 0.500000 0.069128 0.750000
O O14 0.490556 0.817308 0.452850
O O15 0.590476 0.745467 0.481797
#
# Coordination Sequence:
#
# PCOD9289660 Si02
#       7
#     8   8   8   8   8   8   8
#     4  11  23  41  67  97 135 179 224 285 342 400
#     4  11  23  43  66 100 140 173 229 273 344 419
#     4  10  22  40  66  97 130 174 233 282 339 393
#     4  10  24  39  62 102 131 175 227 271 337 411
#     4  11  21  42  68  97 134 176 234 280 340 405
#     4  11  22  43  69 103 131 191 212 282 344 410
#     4  10  23  40  68  96 132 177 224 281 341 398
#
# _framework density 24.088443999999999
#
# number of rings (size 3 to 8) (size 9 to 14) (size 15 to 20)
#    0.000    1.429    4.286    0.857    4.000    5.143 
#    2.571    0.000    6.286    0.000    0.000    0.000 
#    0.000    0.000    0.000    0.000    0.000    0.000 
#
# Total GULP energy -156228.144109 kJ/mol
# GULP energy per Si atom -5579.576575 kJ/mol
# Density = 2.403362 g / cm^3
# Si number density = 24.088444 Si / 1000 Ang^3
#
#
#
# Elastic Constant Matrix: (Units=GPa)
#
#
# Indices 1 2 3 4 5 6 
#
# 1 105.3846 6.4446 26.0898 0.0000 -11.4278 0.0000
# 2 6.4446 65.6853 6.9436 0.0000 -12.4612 0.0000
# 3 26.0898 6.9436 91.5126 0.0000 -19.4447 0.0000
# 4 0.0000 0.0000 0.0000 24.4342 0.0000 -1.8248
# 5 -11.4278 -12.4612 -19.4447 0.0000 38.3525 0.0000
# 6 0.0000 0.0000 0.0000 -1.8248 0.0000 29.7925
#
#
#
# Elastic Compliance Matrix: (Units=1/GPa)
#
#
# Indices 1 2 3 4 5 6 
#
# 1 0.010328 -0.000432 -0.002564 0.000000 0.001637 0.000000
# 2 -0.000432 0.016243 -0.000017 0.000000 0.005140 0.000000
# 3 -0.002564 -0.000017 0.012884 0.000000 0.005763 0.000000
# 4 0.000000 0.000000 0.000000 0.041114 0.000000 0.002518
# 5 0.001637 0.005140 0.005763 0.000000 0.031154 0.000000
# 6 0.000000 0.000000 0.000000 0.002518 0.000000 0.033720
#
#
# Mechanical properties :
#
#
# Convention : Reuss Voigt Hill
#
# Bulk Modulus (GPa) = 29.91316 37.94873 33.93094
# Shear Modulus (GPa) = 30.74812 33.38947 32.06880
#
# Velocity S-wave (km/s) = 3.57665 3.72710 3.65265
# Velocity P-wave (km/s) = 5.43153 5.85746 5.64851
#
# Compressibility (1/GPa) = 0.03343010
#
# Stress axis : x y z
#
# Youngs Moduli (GPa) = 96.82704 61.56322 77.61480
#
# Poissons Ratio (x) = 0.02658 0.19898
# Poissons Ratio (y) = 0.04180 0.00133
# Poissons Ratio (z) = 0.24824 0.00106
#
# Static dielectric constant tensor:
#      x y z
#    x 1.989680 0.000000 -0.018550 
#    y 0.000000 1.986570 0.000000 
#    z -0.018550 0.000000 1.973140 
# 
# From -- ./inp_files/215698.got.cif
#   From: 2010.05.17/outbox.cif.g08.bks.cpg/sg15_108_cif.got.tgz:215698.got - 2010.06.03 18:47:42.
