data_PCOD9289590
_publ_section_title
;
Structure prediction by ZEFSAII (Michael W. Deem and Ramdas Pophale) SiO2 
 PCOD9289590
Probable space group: C 2/C
;
_chemical_formula_sum "Si O2"
_cell_formula_units_Z 44
_cell_length_a 9.377511
_cell_length_b 11.107017
_cell_length_c 19.838634
_cell_angle_alpha 90.000000
_cell_angle_beta 114.970231
_cell_angle_gamma 90.000000
_cell_volume 1873.171944
_symmetry_space_group_name_H-M "C 2/C"
_symmetry_group_IT_number 15
_symmetry_cell_setting 'monoclinic'
loop_
_space_group_symop_operation_xyz
x,y,z
-x,y,1/2-z
-x,-y,-z
x,-y,1/2+z
1/2+x,1/2+y,z
1/2-x,1/2+y,1/2-z
1/2-x,1/2-y,-z
1/2+x,1/2-y,1/2+z
loop_
_atom_site_type_symbol
_atom_site_label
_atom_site_fract_x
_atom_site_fract_y
_atom_site_fract_z
Si Si1 0.819782 0.883342 0.509247
Si Si2 0.500000 0.764823 0.250000
Si Si3 0.505587 0.800674 0.831655
Si Si4 0.231201 0.929625 0.855136
Si Si5 0.314842 0.420563 0.899206
Si Si6 0.795310 0.081209 0.770756
O O1 0.750000 0.750000 0.500000
O O2 0.760998 0.951545 0.564471
O O3 0.009444 0.880244 0.549099
O O4 0.774863 0.960094 0.434772
O O5 0.396051 0.677607 0.181896
O O6 0.371210 0.849926 0.259183
O O7 0.500000 0.825981 0.750000
O O8 0.394055 0.888364 0.853025
O O9 0.684987 0.820271 0.887683
O O10 0.425137 0.671995 0.824918
O O11 0.176807 0.041611 0.799820
O O12 0.301451 0.463860 0.819142
#
# Coordination Sequence:
#
# PCOD9289590 Si02
#       6
#     8   4   8   8   8   8
#     4  11  26  49  72  99 145 195 234 282 353 426
#     4  10  22  40  66 108 142 174 228 296 350 400
#     4  11  24  43  70 109 140 175 232 299 352 403
#     4  11  23  43  71 104 137 187 236 278 350 422
#     4  11  25  50  69  99 149 182 229 296 350 410
#     4  11  23  42  72 103 140 178 232 291 348 410
#
# _framework density 23.489568999999999
#
# number of rings (size 3 to 8) (size 9 to 14) (size 15 to 20)
#    0.000    1.091    1.818    4.364    6.364    0.727 
#    0.000   10.000    0.000    0.000    0.000    0.000 
#    0.000    0.000    0.000    0.000    0.000    0.000 
#
# Total GULP energy -123221.656408 kJ/mol
# GULP energy per Si atom -5600.984382 kJ/mol
# Density = 2.343611 g / cm^3
# Si number density = 23.489569 Si / 1000 Ang^3
#
#
#
# Elastic Constant Matrix: (Units=GPa)
#
#
# Indices 1 2 3 4 5 6 
#
# 1 122.9091 44.1317 15.4084 0.0000 5.8903 0.0000
# 2 44.1317 82.1853 -1.4089 0.0000 11.5983 0.0000
# 3 15.4084 -1.4089 57.0636 0.0000 -18.0811 0.0000
# 4 0.0000 0.0000 0.0000 21.5684 0.0000 -4.6728
# 5 5.8903 11.5983 -18.0811 0.0000 31.8979 0.0000
# 6 0.0000 0.0000 0.0000 -4.6728 0.0000 46.5731
#
#
#
# Elastic Compliance Matrix: (Units=1/GPa)
#
#
# Indices 1 2 3 4 5 6 
#
# 1 0.010670 -0.005503 -0.003666 0.000000 -0.002047 0.000000
# 2 -0.005503 0.015759 0.000465 0.000000 -0.004450 0.000000
# 3 -0.003666 0.000465 0.022778 0.000000 0.013419 0.000000
# 4 0.000000 0.000000 0.000000 0.047394 0.000000 0.004755
# 5 -0.002047 -0.004450 0.013419 0.000000 0.040953 0.000000
# 6 0.000000 0.000000 0.000000 0.004755 0.000000 0.021949
#
#
# Mechanical properties :
#
#
# Convention : Reuss Voigt Hill
#
# Bulk Modulus (GPa) = 31.44821 42.04671 36.74746
# Shear Modulus (GPa) = 26.66538 33.60967 30.13753
#
# Velocity S-wave (km/s) = 3.37293 3.78674 3.58581
# Velocity P-wave (km/s) = 5.34660 6.08755 5.72906
#
# Compressibility (1/GPa) = 0.03179831
#
# Stress axis : x y z
#
# Youngs Moduli (GPa) = 93.72275 63.45657 43.90287
#
# Poissons Ratio (x) = 0.34923 0.16093
# Poissons Ratio (y) = 0.51579 -0.02042
# Poissons Ratio (z) = 0.34355 -0.02951
#
# Static dielectric constant tensor:
#      x y z
#    x 1.885050 0.000000 0.007080 
#    y 0.000000 1.896400 0.000000 
#    z 0.007080 0.000000 1.872190 
# 
# From -- ./inp_files/230304.got.cif
#   From: 2010.05.17/outbox.cif.g08.bks.cpg/sg15_116_cif.got.tgz:230304.got - 2010.06.03 18:47:42.
