data_PCOD9289522
_publ_section_title
;
Structure prediction by ZEFSAII (Michael W. Deem and Ramdas Pophale) SiO2 
 PCOD9289522
Probable space group: C 2/C
;
_chemical_formula_sum "Si O2"
_cell_formula_units_Z 52
_cell_length_a 8.062678
_cell_length_b 15.717626
_cell_length_c 28.959114
_cell_angle_alpha 90.000000
_cell_angle_beta 141.297439
_cell_angle_gamma 90.000000
_cell_volume 2294.691809
_symmetry_space_group_name_H-M "C 2/C"
_symmetry_group_IT_number 15
_symmetry_cell_setting 'monoclinic'
loop_
_space_group_symop_operation_xyz
x,y,z
-x,y,1/2-z
-x,-y,-z
x,-y,1/2+z
1/2+x,1/2+y,z
1/2-x,1/2+y,1/2-z
1/2-x,1/2-y,-z
1/2+x,1/2-y,1/2+z
loop_
_atom_site_type_symbol
_atom_site_label
_atom_site_fract_x
_atom_site_fract_y
_atom_site_fract_z
Si Si1 0.000000 0.374811 0.750000
Si Si2 0.213435 0.484914 0.711981
Si Si3 0.634732 0.638117 0.509422
Si Si4 0.328976 0.653333 0.530096
Si Si5 0.127560 0.248239 0.124443
Si Si6 0.502383 0.993431 0.565877
Si Si7 0.994589 0.108969 0.663661
O O1 0.924416 0.426815 0.779359
O O2 0.745130 0.315967 0.686382
O O3 0.500000 0.460845 0.750000
O O4 0.272180 0.571482 0.753927
O O5 0.025724 0.487917 0.626693
O O6 0.479153 0.608899 0.520278
O O7 0.441944 0.694071 0.436110
O O8 0.779496 0.566079 0.511106
O O9 0.861984 0.701183 0.577976
O O10 0.250000 0.750000 0.500000
O O11 0.067450 0.593901 0.474876
O O12 0.508823 0.645642 0.614953
O O13 0.346672 0.318425 0.160267
O O14 0.787227 0.030699 0.613292
#
# Coordination Sequence:
#
# PCOD9289522 Si02
#       7
#     4   8   8   8   8   8   8
#     4  12  26  42  74  92 136 176 226 270 344 394
#     4  10  25  45  66  96 132 178 229 272 330 404
#     4  10  22  40  65  94 131 167 224 269 330 393
#     4  12  23  38  65 102 129 166 224 282 331 397
#     4  10  23  43  64  98 131 175 213 277 338 389
#     4  10  23  42  67  88 136 176 219 276 334 395
#     4  10  23  43  66  92 135 177 220 271 342 394
#
# _framework density 22.660993000000001
#
# number of rings (size 3 to 8) (size 9 to 14) (size 15 to 20)
#    0.000    1.538    1.538    1.846    9.692    2.462 
#    0.000    0.000    0.000    0.000    0.000    0.000 
#    0.000    0.000    0.000    0.000    0.000    0.000 
#
# Total GULP energy -145180.761024 kJ/mol
# GULP energy per Si atom -5583.875424 kJ/mol
# Density = 2.260942 g / cm^3
# Si number density = 22.660993 Si / 1000 Ang^3
#
#
#
# Elastic Constant Matrix: (Units=GPa)
#
#
# Indices 1 2 3 4 5 6 
#
# 1 50.3512 -1.5092 10.4684 0.0000 -17.9722 0.0000
# 2 -1.5092 78.9055 47.1226 0.0000 -7.7262 0.0000
# 3 10.4684 47.1226 102.0342 0.0000 -22.8544 -0.0001
# 4 0.0000 0.0000 0.0000 25.9269 0.0000 -1.0577
# 5 -17.9722 -7.7262 -22.8544 0.0000 22.1445 0.0000
# 6 0.0000 0.0000 -0.0001 -1.0577 0.0000 14.7743
#
#
#
# Elastic Compliance Matrix: (Units=1/GPa)
#
#
# Indices 1 2 3 4 5 6 
#
# 1 0.028831 0.001906 0.002018 0.000000 0.026147 0.000000
# 2 0.001906 0.017771 -0.008672 0.000000 -0.001203 0.000000
# 3 0.002018 -0.008672 0.017283 0.000000 0.016449 0.000000
# 4 0.000000 0.000000 0.000000 0.038683 0.000000 0.002769
# 5 0.026147 -0.001203 0.016449 0.000000 0.082935 0.000000
# 6 0.000000 0.000000 0.000000 0.002769 0.000000 0.067884
#
#
# Mechanical properties :
#
#
# Convention : Reuss Voigt Hill
#
# Bulk Modulus (GPa) = 18.38584 38.16161 28.27372
# Shear Modulus (GPa) = 17.79282 24.24974 21.02128
#
# Velocity S-wave (km/s) = 2.80514 3.27480 3.04903
# Velocity P-wave (km/s) = 4.31541 5.58354 4.98992
#
# Compressibility (1/GPa) = 0.05438968
#
# Stress axis : x y z
#
# Youngs Moduli (GPa) = 34.68519 56.27085 57.85988
#
# Poissons Ratio (x) = -0.10728 -0.11677
# Poissons Ratio (y) = -0.06613 0.50178
# Poissons Ratio (z) = -0.07000 0.48800
#
# Static dielectric constant tensor:
#      x y z
#    x 1.881620 0.000000 0.016290 
#    y 0.000000 1.857200 0.000000 
#    z 0.016290 0.000000 1.867300 
# 
# From -- ./inp_files/308321.got.cif
#   From: 2010.05.17/outbox.cif.g08.bks.cpg/sg15_155_cif.got.tgz:308321.got - 2010.06.03 18:47:42.
