data_PCOD9289839
_publ_section_title
;
Structure prediction by ZEFSAII (Michael W. Deem and Ramdas Pophale) SiO2 
 PCOD9289839
Probable space group: C 2/C
;
_chemical_formula_sum "Si O2"
_cell_formula_units_Z 40
_cell_length_a 20.146542
_cell_length_b 17.714976
_cell_length_c 15.553722
_cell_angle_alpha 90.000000
_cell_angle_beta 18.122471
_cell_angle_gamma 90.000000
_cell_volume 1726.650707
_symmetry_space_group_name_H-M "C 2/C"
_symmetry_group_IT_number 15
_symmetry_cell_setting 'monoclinic'
loop_
_space_group_symop_operation_xyz
x,y,z
-x,y,1/2-z
-x,-y,-z
x,-y,1/2+z
1/2+x,1/2+y,z
1/2-x,1/2+y,1/2-z
1/2-x,1/2-y,-z
1/2+x,1/2-y,1/2+z
loop_
_atom_site_type_symbol
_atom_site_label
_atom_site_fract_x
_atom_site_fract_y
_atom_site_fract_z
Si Si1 0.205005 0.153116 0.652221
Si Si2 0.911382 0.557711 0.680185
Si Si3 0.000000 0.778196 0.250000
Si Si4 0.762345 0.821048 0.793132
Si Si5 0.455263 0.333581 0.902982
Si Si6 0.500000 0.980979 0.750000
O O1 0.365359 0.221832 0.476474
O O2 0.323387 0.074044 0.510711
O O3 0.155018 0.170160 0.613838
O O4 0.982924 0.160034 0.973596
O O5 0.076668 0.626955 0.484868
O O6 0.000000 0.500000 0.500000
O O7 0.686464 0.591171 0.925102
O O8 0.902145 0.524634 0.788643
O O9 0.682289 0.735225 0.888627
O O10 0.827011 0.840191 0.811781
O O11 0.500000 0.312728 0.750000
#
# Coordination Sequence:
#
# PCOD9289839 Si02
#       6
#     8   8   4   8   8   4
#     4  10  22  40  68  97 139 179 233 290 360 419
#     4  12  29  47  73 109 149 191 244 301 361 437
#     4   9  20  38  66 100 127 180 232 282 349 428
#     4  12  25  45  75 105 139 185 248 297 355 429
#     4  12  26  46  77 106 142 192 242 301 365 426
#     4  11  26  48  66 100 155 188 236 300 367 440
#
# _framework density 23.166238
#
# number of rings (size 3 to 8) (size 9 to 14) (size 15 to 20)
#    0.000    0.800    2.000    4.200    4.200    6.400 
#    0.000    0.000    0.000    0.000    0.000    0.000 
#    0.000    0.000    0.000    0.000    0.000    0.000 
#
# Total GULP energy -111935.548299 kJ/mol
# GULP energy per Si atom -5596.777415 kJ/mol
# Density = 2.311351 g / cm^3
# Si number density = 23.166238 Si / 1000 Ang^3
#
#
#
# Elastic Constant Matrix: (Units=GPa)
#
#
# Indices 1 2 3 4 5 6 
#
# 1 95.1387 20.2634 -19.4088 -0.0220 -5.4010 0.0099
# 2 20.2634 83.7214 -1.3468 0.0148 3.0174 0.0141
# 3 -19.4088 -1.3468 54.7932 0.0329 13.5744 0.0192
# 4 -0.0220 0.0148 0.0329 29.9560 -0.0122 -13.0799
# 5 -5.4010 3.0174 13.5744 -0.0122 43.9268 -0.0138
# 6 0.0099 0.0141 0.0192 -13.0799 -0.0138 37.8352
#
#
#
# Elastic Compliance Matrix: (Units=1/GPa)
#
#
# Indices 1 2 3 4 5 6 
#
# 1 0.011971 -0.002847 0.004069 0.000005 0.000410 -0.000002
# 2 -0.002847 0.012666 -0.000427 -0.000012 -0.001088 -0.000008
# 3 0.004069 -0.000427 0.021171 -0.000034 -0.006013 -0.000025
# 4 0.000005 -0.000012 -0.000034 0.039317 0.000027 0.013592
# 5 0.000410 -0.001088 -0.006013 0.000027 0.024748 0.000022
# 6 -0.000002 -0.000008 -0.000025 0.013592 0.000022 0.031129
#
#
# Mechanical properties :
#
#
# Convention : Reuss Voigt Hill
#
# Bulk Modulus (GPa) = 21.09877 25.85208 23.47543
# Shear Modulus (GPa) = 32.21412 37.95331 35.08371
#
# Velocity S-wave (km/s) = 3.73307 4.05199 3.89579
# Velocity P-wave (km/s) = 5.26388 5.75109 5.51287
#
# Compressibility (1/GPa) = 0.04739613
#
# Stress axis : x y z
#
# Youngs Moduli (GPa) = 83.53825 78.95349 47.23505
#
# Poissons Ratio (x) = 0.22475 -0.19218
# Poissons Ratio (y) = 0.23780 0.02019
# Poissons Ratio (z) = -0.33989 0.03375
#
# Static dielectric constant tensor:
#      x y z
#    x 1.913930 0.000000 0.034780 
#    y 0.000000 1.840160 0.000010 
#    z 0.034780 0.000010 1.880360 
# 
# From -- ./inp_files/169071.got.cif
#   From: 2010.05.17/outbox.cif.g08.bks.cpg/sg15_85_cif.got.tgz:169071.got - 2010.06.03 18:47:42.
