data_PCOD9289354
_publ_section_title
;
Structure prediction by ZEFSAII (Michael W. Deem and Ramdas Pophale) SiO2 
 PCOD9289354
Probable space group: C 2/C
;
_chemical_formula_sum "Si O2"
_cell_formula_units_Z 56
_cell_length_a 8.280854
_cell_length_b 17.242858
_cell_length_c 19.166795
_cell_angle_alpha 90.000000
_cell_angle_beta 79.191175
_cell_angle_gamma 90.000000
_cell_volume 2688.187880
_symmetry_space_group_name_H-M "C 2/C"
_symmetry_group_IT_number 15
_symmetry_cell_setting 'monoclinic'
loop_
_space_group_symop_operation_xyz
x,y,z
-x,y,1/2-z
-x,-y,-z
x,-y,1/2+z
1/2+x,1/2+y,z
1/2-x,1/2+y,1/2-z
1/2-x,1/2-y,-z
1/2+x,1/2-y,1/2+z
loop_
_atom_site_type_symbol
_atom_site_label
_atom_site_fract_x
_atom_site_fract_y
_atom_site_fract_z
Si Si1 0.906947 0.311152 0.826736
Si Si2 0.559895 0.326431 0.065790
Si Si3 0.916509 0.606957 0.561814
Si Si4 0.474841 0.955682 0.907697
Si Si5 0.895881 0.983885 0.078558
Si Si6 0.586296 0.260938 0.558179
Si Si7 0.461121 0.626157 0.171843
O O1 0.936109 0.246669 0.883341
O O2 0.984902 0.391220 0.848297
O O3 0.715142 0.330919 0.827432
O O4 0.000000 0.285803 0.750000
O O5 0.735255 0.366212 0.058858
O O6 0.425660 0.393204 0.092467
O O7 0.538185 0.297657 0.988476
O O8 0.999418 0.584179 0.481079
O O9 0.908691 0.529476 0.607939
O O10 0.016700 0.677762 0.586238
O O11 0.292202 0.993114 0.921067
O O12 0.953917 0.042916 0.134133
O O13 0.000000 0.000000 0.000000
O O14 0.750000 0.250000 0.500000
O O15 0.594505 0.320303 0.621131
O O16 0.500000 0.619879 0.250000
#
# Coordination Sequence:
#
# PCOD9289354 Si02
#       7
#     8   8   8   8   8   8   8
#     4  11  25  46  67  92 137 186 226 278 349 414
#     4  12  22  41  69  98 132 175 234 282 333 394
#     4  11  21  37  68  98 131 165 224 284 327 393
#     4  10  22  40  64 101 128 172 221 276 339 400
#     4  11  21  40  68  99 131 172 226 277 332 406
#     4  12  24  39  69 105 136 177 232 284 336 412
#     4  11  26  44  67 100 141 180 224 285 353 408
#
# _framework density 20.831876999999999
#
# number of rings (size 3 to 8) (size 9 to 14) (size 15 to 20)
#    0.000    0.857    5.714    2.143    2.000    1.714 
#    0.000    2.143    0.000    0.000    0.000    0.000 
#    0.000    0.000    0.000    0.000    0.000    0.000 
#
# Total GULP energy -156622.371197 kJ/mol
# GULP energy per Si atom -5593.656114 kJ/mol
# Density = 2.078446 g / cm^3
# Si number density = 20.831877 Si / 1000 Ang^3
#
#
#
# Elastic Constant Matrix: (Units=GPa)
#
#
# Indices 1 2 3 4 5 6 
#
# 1 46.7369 24.6811 18.9259 0.0000 6.6066 0.0000
# 2 24.6811 129.6921 37.9900 0.0000 17.5436 0.0000
# 3 18.9259 37.9900 110.1563 0.0000 21.3447 0.0000
# 4 0.0000 0.0000 0.0000 24.3524 0.0000 5.2884
# 5 6.6066 17.5436 21.3447 0.0000 28.1831 0.0000
# 6 0.0000 0.0000 0.0000 5.2884 0.0000 39.4732
#
#
#
# Elastic Compliance Matrix: (Units=1/GPa)
#
#
# Indices 1 2 3 4 5 6 
#
# 1 0.024643 -0.003711 -0.002675 0.000000 -0.001441 0.000000
# 2 -0.003711 0.009465 -0.001938 0.000000 -0.003554 0.000000
# 3 -0.002675 -0.001938 0.011545 0.000000 -0.006910 0.000000
# 4 0.000000 0.000000 0.000000 0.042294 0.000000 -0.005666
# 5 -0.001441 -0.003554 -0.006910 0.000000 0.043266 0.000000
# 6 0.000000 0.000000 0.000000 -0.005666 0.000000 0.026093
#
#
# Mechanical properties :
#
#
# Convention : Reuss Voigt Hill
#
# Bulk Modulus (GPa) = 34.47674 49.97550 42.22612
# Shear Modulus (GPa) = 27.22968 32.06761 29.64865
#
# Velocity S-wave (km/s) = 3.61933 3.92772 3.77667
# Velocity P-wave (km/s) = 5.83541 6.67917 6.27149
#
# Compressibility (1/GPa) = 0.02900506
#
# Stress axis : x y z
#
# Youngs Moduli (GPa) = 40.57933 105.64868 86.61814
#
# Poissons Ratio (x) = 0.39209 0.23169
# Poissons Ratio (y) = 0.15060 0.16787
# Poissons Ratio (z) = 0.10854 0.20475
#
# Static dielectric constant tensor:
#      x y z
#    x 8.068420 0.000000 4.916820 
#    y 0.000000 1.778310 0.000000 
#    z 4.916820 0.000000 5.589670 
# 
# From -- ./inp_files/190918.got.cif
#   From: 2010.05.17/outbox.cif.g08.bks.cpg/sg15_96_cif.got.tgz:190918.got - 2010.06.03 18:47:42.
