data_PCOD9289093
_publ_section_title
;
Structure prediction by ZEFSAII (Michael W. Deem and Ramdas Pophale) SiO2 
 PCOD9289093
Probable space group: C 2/C
;
_chemical_formula_sum "Si O2"
_cell_formula_units_Z 32
_cell_length_a 8.970813
_cell_length_b 28.044159
_cell_length_c 5.520054
_cell_angle_alpha 90.000000
_cell_angle_beta 106.790011
_cell_angle_gamma 90.000000
_cell_volume 1329.527447
_symmetry_space_group_name_H-M "C 2/C"
_symmetry_group_IT_number 15
_symmetry_cell_setting 'monoclinic'
loop_
_space_group_symop_operation_xyz
x,y,z
-x,y,1/2-z
-x,-y,-z
x,-y,1/2+z
1/2+x,1/2+y,z
1/2-x,1/2+y,1/2-z
1/2-x,1/2-y,-z
1/2+x,1/2-y,1/2+z
loop_
_atom_site_type_symbol
_atom_site_label
_atom_site_fract_x
_atom_site_fract_y
_atom_site_fract_z
Si Si1 0.483284 0.688448 0.486407
Si Si2 0.655820 0.217180 0.162582
Si Si3 0.186561 0.026827 0.332475
Si Si4 0.908213 0.613816 0.465788
O O1 0.500000 0.659261 0.250000
O O2 0.614377 0.731001 0.526603
O O3 0.310665 0.710959 0.396450
O O4 0.500000 0.663592 0.750000
O O5 0.500000 0.213858 0.250000
O O6 0.643318 0.168394 0.005249
O O7 0.265549 0.078236 0.368307
O O8 0.000000 0.029998 0.250000
O O9 0.233118 0.999835 0.604006
O O10 0.000000 0.612543 0.250000
O O11 0.000000 0.598351 0.750000
#
# Coordination Sequence:
#
# PCOD9289093 Si02
#       4
#     8   8   8   8
#     4  11  22  38  60  84 116 160 206 251 301 352
#     4  10  22  40  60  88 123 162 206 252 299 351
#     4  10  22  42  66  92 123 158 197 244 302 366
#     4  11  24  40  61  92 126 158 201 252 299 356
#
# _framework density 24.0687
#
# number of rings (size 3 to 8) (size 9 to 14) (size 15 to 20)
#    0.000    1.500    0.000    6.000    0.000    8.000 
#    0.000    3.750    0.000    0.000    0.000    0.000 
#    0.000    0.000    0.000    0.000    0.000    0.000 
#
# Total GULP energy -89311.513937 kJ/mol
# GULP energy per Si atom -5581.969621 kJ/mol
# Density = 2.401392 g / cm^3
# Si number density = 24.068700 Si / 1000 Ang^3
#
#
#
# Elastic Constant Matrix: (Units=GPa)
#
#
# Indices 1 2 3 4 5 6 
#
# 1 63.7060 27.8699 55.6694 0.0000 11.6351 0.0000
# 2 27.8699 107.6840 28.4865 0.0000 -6.1706 0.0000
# 3 55.6694 28.4865 191.9584 0.0000 -27.2440 0.0000
# 4 0.0000 0.0000 0.0000 13.5482 0.0000 46.0644
# 5 11.6351 -6.1706 -27.2440 0.0000 45.8637 0.0000
# 6 0.0000 0.0000 0.0000 46.0644 0.0000 -76.6332
#
#
#
# Elastic Compliance Matrix: (Units=1/GPa)
#
#
# Indices 1 2 3 4 5 6 
#
# 1 0.029097 -0.005799 -0.009540 0.000000 -0.013829 0.000000
# 2 -0.005799 0.010832 0.000535 0.000000 0.003246 0.000000
# 3 -0.009540 0.000535 0.009010 0.000000 0.007844 0.000000
# 4 0.000000 0.000000 0.000000 0.024250 0.000000 0.014577
# 5 -0.013829 0.003246 0.007844 0.000000 0.030408 0.000000
# 6 0.000000 0.000000 0.000000 0.014577 0.000000 -0.004287
#
#
# Mechanical properties :
#
#
# Convention : Reuss Voigt Hill
#
# Bulk Modulus (GPa) = 51.73366 65.26666 58.50016
# Shear Modulus (GPa) = 36.93813 13.31059 25.12436
#
# Velocity S-wave (km/s) = 3.92177 2.35420 3.23439
# Velocity P-wave (km/s) = 6.48443 5.87923 6.18923
#
# Compressibility (1/GPa) = 0.01932977
#
# Stress axis : x y z
#
# Youngs Moduli (GPa) = 34.36830 92.32073 110.98595
#
# Poissons Ratio (x) = 0.53539 1.05884
# Poissons Ratio (y) = 0.19931 -0.05939
# Poissons Ratio (z) = 0.32788 -0.04940
#
# Static dielectric constant tensor:
#      x y z
#    x 2.057620 0.000000 -0.113270 
#    y 0.000000 1.909980 0.000000 
#    z -0.113270 0.000000 2.210370 
# 
# From -- ./inp_files/2559.got.cif
#   From: 2010.05.17/outbox.cif.g08.bks.cpg/sg15_2_cif.got.tgz:2559.got - 2010.06.03 18:47:42.
