data_PCOD9289961
_publ_section_title
;
Structure prediction by ZEFSAII (Michael W. Deem and Ramdas Pophale) SiO2 
 PCOD9289961
Probable space group: C 2/C
;
_chemical_formula_sum "Si O2"
_cell_formula_units_Z 52
_cell_length_a 14.405963
_cell_length_b 22.642991
_cell_length_c 11.628584
_cell_angle_alpha 90.000000
_cell_angle_beta 38.842622
_cell_angle_gamma 90.000000
_cell_volume 2379.016568
_symmetry_space_group_name_H-M "C 2/C"
_symmetry_group_IT_number 15
_symmetry_cell_setting 'monoclinic'
loop_
_space_group_symop_operation_xyz
x,y,z
-x,y,1/2-z
-x,-y,-z
x,-y,1/2+z
1/2+x,1/2+y,z
1/2-x,1/2+y,1/2-z
1/2-x,1/2-y,-z
1/2+x,1/2-y,1/2+z
loop_
_atom_site_type_symbol
_atom_site_label
_atom_site_fract_x
_atom_site_fract_y
_atom_site_fract_z
Si Si1 0.249786 0.666640 0.849421
Si Si2 0.678107 0.115178 0.449696
Si Si3 0.728533 0.254822 0.363443
Si Si4 0.829237 0.583536 0.785053
Si Si5 0.249692 0.947367 0.848842
Si Si6 0.500000 0.740433 0.250000
Si Si7 0.500000 0.123092 0.250000
Si Si8 0.500000 0.603405 0.750000
O O1 0.265662 0.729916 0.774766
O O2 0.236187 0.623306 0.753046
O O3 0.388113 0.645022 0.788386
O O4 0.102328 0.660838 0.066625
O O5 0.698566 0.185334 0.410264
O O6 0.505983 0.095637 0.609163
O O7 0.724269 0.098181 0.534178
O O8 0.761009 0.081850 0.266688
O O9 0.598627 0.288934 0.556771
O O10 0.878014 0.271882 0.287404
O O11 0.789634 0.515797 0.799509
O O12 0.386787 0.916497 0.784470
O O13 0.102638 0.935007 0.065485
#
# Coordination Sequence:
#
# PCOD9289961 Si02
#       8
#     8   8   8   8   8   4   4   4
#     4  11  24  46  70 100 141 199 238 300 349 437
#     4  11  23  41  73 113 133 181 237 308 355 423
#     4  11  23  43  70 103 145 182 243 293 366 420
#     4  11  23  42  78 105 135 182 247 293 368 418
#     4  11  24  45  70 103 145 184 239 306 349 443
#     4  10  22  40  70  98 144 186 222 310 354 434
#     4  10  22  44  72  96 140 194 246 286 356 432
#     4  10  28  48  64 102 150 190 240 290 378 418
#
# _framework density 21.857771
#
# number of rings (size 3 to 8) (size 9 to 14) (size 15 to 20)
#    0.000    1.231    1.538    5.077    6.462    0.615 
#    0.000    4.615    0.000    0.000    0.000    0.000 
#    0.000    0.000    0.000    0.000    0.000    0.000 
#
# Total GULP energy -145333.746379 kJ/mol
# GULP energy per Si atom -5589.759476 kJ/mol
# Density = 2.180802 g / cm^3
# Si number density = 21.857771 Si / 1000 Ang^3
#
#
#
# Elastic Constant Matrix: (Units=GPa)
#
#
# Indices 1 2 3 4 5 6 
#
# 1 98.4851 27.2491 69.3578 -0.0004 13.0867 0.0005
# 2 27.2491 111.8119 57.6913 -0.0002 18.1667 0.0002
# 3 69.3578 57.6913 167.4506 -0.0002 13.1035 0.0001
# 4 -0.0004 -0.0002 -0.0002 23.5221 0.0002 10.4332
# 5 13.0867 18.1667 13.1035 0.0002 44.9941 -0.0002
# 6 0.0005 0.0002 0.0001 10.4332 -0.0002 17.5617
#
#
#
# Elastic Compliance Matrix: (Units=1/GPa)
#
#
# Indices 1 2 3 4 5 6 
#
# 1 0.014617 -0.000163 -0.005803 0.000001 -0.002496 -0.000001
# 2 -0.000163 0.011405 -0.003587 0.000000 -0.003513 0.000000
# 3 -0.005803 -0.003587 0.009584 0.000000 0.000345 0.000000
# 4 0.000001 0.000000 0.000000 0.057724 -0.000001 -0.034293
# 5 -0.002496 -0.003513 0.000345 -0.000001 0.024269 0.000001
# 6 -0.000001 0.000000 0.000000 -0.034293 0.000001 0.077315
#
#
# Mechanical properties :
#
#
# Convention : Reuss Voigt Hill
#
# Bulk Modulus (GPa) = 60.60248 76.26046 68.43147
# Shear Modulus (GPa) = 22.77695 32.11220 27.44458
#
# Velocity S-wave (km/s) = 3.23159 3.83710 3.54729
# Velocity P-wave (km/s) = 6.45834 7.38893 6.93925
#
# Compressibility (1/GPa) = 0.01650097
#
# Stress axis : x y z
#
# Youngs Moduli (GPa) = 68.41213 87.68284 104.33611
#
# Poissons Ratio (x) = 0.01425 0.60548
# Poissons Ratio (y) = 0.01112 0.37426
# Poissons Ratio (z) = 0.39701 0.31452
#
# Static dielectric constant tensor:
#      x y z
#    x 1.784290 0.000000 0.002060 
#    y 0.000000 1.820330 0.000000 
#    z 0.002060 0.000000 1.816060 
# 
# From -- ./inp_files/100642.got.cif
#   From: 2010.05.17/outbox.cif.g08.bks.cpg/sg15_51_cif.got.tgz:100642.got - 2010.06.03 18:47:42.
