data_PCOD9289881
_publ_section_title
;
Structure prediction by ZEFSAII (Michael W. Deem and Ramdas Pophale) SiO2 
 PCOD9289881
Probable space group: C 2/C
;
_chemical_formula_sum "Si O2"
_cell_formula_units_Z 60
_cell_length_a 14.563024
_cell_length_b 13.879987
_cell_length_c 20.517880
_cell_angle_alpha 90.000000
_cell_angle_beta 141.390102
_cell_angle_gamma 90.000000
_cell_volume 2588.021376
_symmetry_space_group_name_H-M "C 2/C"
_symmetry_group_IT_number 15
_symmetry_cell_setting 'monoclinic'
loop_
_space_group_symop_operation_xyz
x,y,z
-x,y,1/2-z
-x,-y,-z
x,-y,1/2+z
1/2+x,1/2+y,z
1/2-x,1/2+y,1/2-z
1/2-x,1/2-y,-z
1/2+x,1/2-y,1/2+z
loop_
_atom_site_type_symbol
_atom_site_label
_atom_site_fract_x
_atom_site_fract_y
_atom_site_fract_z
Si Si1 0.932306 0.136923 0.144614
Si Si2 0.791793 0.006420 0.241316
Si Si3 0.000000 0.573821 0.250000
Si Si4 0.902304 0.590737 0.962839
Si Si5 0.975788 0.772224 0.926639
Si Si6 0.269978 0.974187 0.518104
Si Si7 0.517916 0.375916 0.077719
Si Si8 0.357344 0.813799 0.786883
O O1 0.000000 0.177753 0.250000
O O2 0.928428 0.215098 0.084695
O O3 0.064662 0.063236 0.201580
O O4 0.788462 0.068641 0.054389
O O5 0.744428 0.930605 0.160681
O O6 0.843629 0.945519 0.332148
O O7 0.669474 0.087286 0.187386
O O8 0.890616 0.513028 0.142456
O O9 0.911021 0.646044 0.247717
O O10 0.987688 0.678418 0.977082
O O11 0.848068 0.593559 0.007098
O O12 0.000000 0.500000 0.000000
O O13 0.807883 0.775092 0.811115
O O14 0.002904 0.858542 0.992474
O O15 0.129467 0.922171 0.473294
O O16 0.549666 0.273831 0.131525
#
# Coordination Sequence:
#
# PCOD9289881 Si02
#       8
#     8   8   4   8   8   8   8   8
#     4  10  22  45  74 101 135 187 242 295 347 432
#     4  10  22  40  69  94 138 182 234 287 353 425
#     4  12  24  40  62 100 150 176 234 294 360 412
#     4  12  24  45  68  99 139 191 236 287 360 420
#     4  11  24  42  72 103 139 182 234 295 365 422
#     4  11  25  41  71 102 143 190 238 294 357 430
#     4  11  23  42  69 103 136 183 237 294 358 431
#     4  11  24  40  66 100 139 177 225 294 353 425
#
# _framework density 23.183734000000001
#
# number of rings (size 3 to 8) (size 9 to 14) (size 15 to 20)
#    0.000    1.067    4.000    2.400    3.733    2.667 
#    0.000    0.667    5.867    0.000    0.000    0.000 
#    0.000    0.000    0.000    0.000    0.000    0.000 
#
# Total GULP energy -167451.930620 kJ/mol
# GULP energy per Si atom -5581.731021 kJ/mol
# Density = 2.313097 g / cm^3
# Si number density = 23.183734 Si / 1000 Ang^3
#
#
#
# Elastic Constant Matrix: (Units=GPa)
#
#
# Indices 1 2 3 4 5 6 
#
# 1 81.3046 22.8761 33.5556 0.0000 -19.0420 0.0000
# 2 22.8761 62.3863 36.4814 0.0000 -12.5458 0.0000
# 3 33.5556 36.4814 122.8470 0.0002 -20.7413 0.0001
# 4 0.0000 0.0000 0.0002 32.1010 0.0001 -5.9668
# 5 -19.0420 -12.5458 -20.7413 0.0001 41.6315 0.0000
# 6 0.0000 0.0000 0.0001 -5.9668 0.0000 23.9298
#
#
#
# Elastic Compliance Matrix: (Units=1/GPa)
#
#
# Indices 1 2 3 4 5 6 
#
# 1 0.015340 -0.003242 -0.002410 0.000000 0.004838 0.000000
# 2 -0.003242 0.020494 -0.004813 0.000000 0.002295 0.000000
# 3 -0.002410 -0.004813 0.010697 0.000000 0.002776 0.000000
# 4 0.000000 0.000000 0.000000 0.032666 0.000000 0.008145
# 5 0.004838 0.002295 0.002776 0.000000 0.028308 0.000000
# 6 0.000000 0.000000 0.000000 0.008145 0.000000 0.043820
#
#
# Mechanical properties :
#
#
# Convention : Reuss Voigt Hill
#
# Bulk Modulus (GPa) = 39.06368 50.26268 44.66318
# Shear Modulus (GPa) = 27.65670 31.10745 29.38208
#
# Velocity S-wave (km/s) = 3.45764 3.66700 3.56386
# Velocity P-wave (km/s) = 5.72944 6.29734 6.02009
#
# Compressibility (1/GPa) = 0.02559923
#
# Stress axis : x y z
#
# Youngs Moduli (GPa) = 65.19067 48.79469 93.48782
#
# Poissons Ratio (x) = 0.15821 0.22533
# Poissons Ratio (y) = 0.21137 0.44995
# Poissons Ratio (z) = 0.15712 0.23484
#
# Static dielectric constant tensor:
#      x y z
#    x 1.868040 0.000000 -0.050120 
#    y 0.000000 1.899490 0.000000 
#    z -0.050120 0.000000 1.996690 
# 
# From -- ./inp_files/244721.got.cif
#   From: 2010.05.17/outbox.cif.g08.bks.cpg/sg15_123_cif.got.tgz:244721.got - 2010.06.03 18:47:42.
