data_PCOD9289894
_publ_section_title
;
Structure prediction by ZEFSAII (Michael W. Deem and Ramdas Pophale) SiO2 
 PCOD9289894
Probable space group: C 2/C
;
_chemical_formula_sum "Si O2"
_cell_formula_units_Z 60
_cell_length_a 28.781190
_cell_length_b 18.276132
_cell_length_c 15.538206
_cell_angle_alpha 90.000000
_cell_angle_beta 161.970071
_cell_angle_gamma 90.000000
_cell_volume 2529.728121
_symmetry_space_group_name_H-M "C 2/C"
_symmetry_group_IT_number 15
_symmetry_cell_setting 'monoclinic'
loop_
_space_group_symop_operation_xyz
x,y,z
-x,y,1/2-z
-x,-y,-z
x,-y,1/2+z
1/2+x,1/2+y,z
1/2-x,1/2+y,1/2-z
1/2-x,1/2-y,-z
1/2+x,1/2-y,1/2+z
loop_
_atom_site_type_symbol
_atom_site_label
_atom_site_fract_x
_atom_site_fract_y
_atom_site_fract_z
Si Si1 0.091535 0.617389 0.333903
Si Si2 0.554503 0.398774 0.537335
Si Si3 0.000000 0.175098 0.250000
Si Si4 0.174260 0.107951 0.079248
Si Si5 0.725930 0.374066 0.016958
Si Si6 0.765624 0.533741 0.070769
Si Si7 0.312918 0.742900 0.774503
Si Si8 0.474537 0.231755 0.004874
O O1 0.140376 0.568116 0.340666
O O2 0.232113 0.665837 0.613882
O O3 0.000000 0.581366 0.250000
O O4 0.987057 0.679607 0.108328
O O5 0.682263 0.419604 0.692291
O O6 0.408464 0.449955 0.268371
O O7 0.516417 0.314693 0.446685
O O8 0.616695 0.384416 0.742453
O O9 0.128734 0.127460 0.432703
O O10 0.059977 0.225345 0.432212
O O11 0.211766 0.193375 0.135294
O O12 0.269823 0.069082 0.173012
O O13 0.000000 0.094579 0.750000
O O14 0.829560 0.302018 0.201020
O O15 0.813255 0.450000 0.166231
O O16 0.386580 0.772655 0.816436
#
# Coordination Sequence:
#
# PCOD9289894 Si02
#       8
#     8   8   4   8   8   8   8   8
#     4  12  23  44  72  99 133 181 236 290 345 421
#     4  11  22  43  70  96 132 182 237 286 343 421
#     4  12  26  42  70  98 144 178 226 286 358 410
#     4  10  22  40  69  98 129 173 231 290 337 412
#     4  12  27  43  64 102 145 184 226 290 359 428
#     4  11  24  45  66 102 136 183 235 286 349 425
#     4  12  23  43  69 104 131 173 231 293 351 415
#     4  12  24  43  69  98 141 172 231 299 351 402
#
# _framework density 23.717963000000001
#
# number of rings (size 3 to 8) (size 9 to 14) (size 15 to 20)
#    0.000    0.533    4.000    5.600    4.667    0.533 
#    2.400    0.000    0.000    0.000    0.000    0.000 
#    0.000    0.000    0.000    0.000    0.000    0.000 
#
# Total GULP energy -167679.591919 kJ/mol
# GULP energy per Si atom -5589.319731 kJ/mol
# Density = 2.366398 g / cm^3
# Si number density = 23.717963 Si / 1000 Ang^3
#
#
#
# Elastic Constant Matrix: (Units=GPa)
#
#
# Indices 1 2 3 4 5 6 
#
# 1 132.8099 -4.2374 10.5227 0.0000 28.1875 0.0000
# 2 -4.2374 37.7738 3.6061 0.0000 5.8973 0.0000
# 3 10.5227 3.6061 51.1293 0.0000 -4.7784 0.0000
# 4 0.0000 0.0000 0.0000 22.8791 0.0000 5.3282
# 5 28.1875 5.8973 -4.7784 0.0000 41.7605 0.0000
# 6 0.0000 0.0000 0.0000 5.3282 0.0000 7.8876
#
#
#
# Elastic Compliance Matrix: (Units=1/GPa)
#
#
# Indices 1 2 3 4 5 6 
#
# 1 0.009290 0.002383 -0.002727 0.000000 -0.006919 0.000000
# 2 0.002383 0.027949 -0.003013 0.000000 -0.005900 0.000000
# 3 -0.002727 -0.003013 0.020766 0.000000 0.004642 0.000000
# 4 0.000000 0.000000 0.000000 0.051868 0.000000 -0.035037
# 5 -0.006919 -0.005900 0.004642 0.000000 0.029981 0.000000
# 6 0.000000 0.000000 0.000000 -0.035037 0.000000 0.150449
#
#
# Mechanical properties :
#
#
# Convention : Reuss Voigt Hill
#
# Bulk Modulus (GPa) = 19.49650 26.83287 23.16468
# Shear Modulus (GPa) = 15.91783 28.62690 22.27236
#
# Velocity S-wave (km/s) = 2.59343 3.47792 3.06772
# Velocity P-wave (km/s) = 4.14799 5.24078 4.72607
#
# Compressibility (1/GPa) = 0.05129127
#
# Stress axis : x y z
#
# Youngs Moduli (GPa) = 107.64123 35.77895 48.15622
#
# Poissons Ratio (x) = -0.08525 0.13131
# Poissons Ratio (y) = -0.25647 0.14510
# Poissons Ratio (z) = 0.29350 0.10780
#
# Static dielectric constant tensor:
#      x y z
#    x 1.944660 0.000000 -0.033240 
#    y 0.000000 1.921960 0.000000 
#    z -0.033240 0.000000 1.993890 
# 
# From -- ./inp_files/179147.got.cif
#   From: 2010.05.17/outbox.cif.g08.bks.cpg/sg15_90_cif.got.tgz:179147.got - 2010.06.03 18:47:42.
