data_PCOD9289286
_publ_section_title
;
Structure prediction by ZEFSAII (Michael W. Deem and Ramdas Pophale) SiO2 
 PCOD9289286
Probable space group: C 2/C
;
_chemical_formula_sum "Si O2"
_cell_formula_units_Z 64
_cell_length_a 8.897838
_cell_length_b 22.222685
_cell_length_c 20.025700
_cell_angle_alpha 90.000000
_cell_angle_beta 43.075079
_cell_angle_gamma 90.000000
_cell_volume 2704.341503
_symmetry_space_group_name_H-M "C 2/C"
_symmetry_group_IT_number 15
_symmetry_cell_setting 'monoclinic'
loop_
_space_group_symop_operation_xyz
x,y,z
-x,y,1/2-z
-x,-y,-z
x,-y,1/2+z
1/2+x,1/2+y,z
1/2-x,1/2+y,1/2-z
1/2-x,1/2-y,-z
1/2+x,1/2-y,1/2+z
loop_
_atom_site_type_symbol
_atom_site_label
_atom_site_fract_x
_atom_site_fract_y
_atom_site_fract_z
Si Si1 0.739030 0.257662 0.332264
Si Si2 0.180963 0.810087 0.980828
Si Si3 0.751689 0.007809 0.351126
Si Si4 0.828259 0.907840 0.417074
Si Si5 0.202277 0.137711 0.105430
Si Si6 0.322675 0.710688 0.168610
Si Si7 0.575861 0.840673 0.389336
Si Si8 0.833507 0.435596 0.244778
O O1 0.583751 0.305525 0.419331
O O2 0.714729 0.195044 0.380000
O O3 0.679638 0.241179 0.274473
O O4 0.000000 0.270882 0.250000
O O5 0.256515 0.871189 0.991973
O O6 0.250000 0.750000 0.000000
O O7 0.249147 0.810339 0.881349
O O8 0.773541 0.077308 0.360716
O O9 0.000000 0.987491 0.250000
O O10 0.701787 0.966774 0.432102
O O11 0.625947 0.985366 0.326428
O O12 0.777632 0.859902 0.373146
O O13 0.077402 0.929663 0.348169
O O14 0.961430 0.157841 0.158662
O O15 0.358319 0.131336 0.991392
O O16 0.463181 0.769874 0.102857
O O17 0.622515 0.871624 0.304534
O O18 0.000000 0.446008 0.250000
#
# Coordination Sequence:
#
# PCOD9289286 Si02
#       8
#     8   8   8   8   8   8   8   8
#     4  10  23  38  62  94 126 166 216 267 331 391
#     4  12  23  41  62  92 142 170 214 275 336 394
#     4   9  20  43  69  86 125 174 217 263 325 395
#     4  10  22  40  63  90 128 172 212 261 335 389
#     4  11  22  40  67  92 128 168 222 262 323 397
#     4  11  23  37  63  98 129 173 217 268 325 395
#     4  11  21  39  63  95 130 168 213 266 330 394
#     4  10  23  39  67  98 124 166 223 284 324 386
#
# _framework density 23.665651
#
# number of rings (size 3 to 8) (size 9 to 14) (size 15 to 20)
#    0.000    1.500    2.500    3.375    3.500    4.500 
#    0.000    0.625   19.250    0.000    0.000    0.000 
#    0.000    0.000    0.000    0.000    0.000    0.000 
#
# Total GULP energy -178719.441583 kJ/mol
# GULP energy per Si atom -5584.982549 kJ/mol
# Density = 2.361179 g / cm^3
# Si number density = 23.665651 Si / 1000 Ang^3
#
#
#
# Elastic Constant Matrix: (Units=GPa)
#
#
# Indices 1 2 3 4 5 6 
#
# 1 131.1843 49.3749 33.7904 0.0000 23.0995 0.0000
# 2 49.3749 114.5525 -14.6203 0.0000 15.4261 0.0000
# 3 33.7904 -14.6203 45.3686 0.0000 11.2885 0.0000
# 4 0.0000 0.0000 0.0000 32.0960 0.0000 3.6688
# 5 23.0995 15.4261 11.2885 0.0000 51.1319 0.0000
# 6 0.0000 0.0000 0.0000 3.6688 0.0000 28.4389
#
#
#
# Elastic Compliance Matrix: (Units=1/GPa)
#
#
# Indices 1 2 3 4 5 6 
#
# 1 0.013783 -0.007337 -0.012307 0.000000 -0.001296 0.000000
# 2 -0.007337 0.013679 0.010660 0.000000 -0.003166 0.000000
# 3 -0.012307 0.010660 0.036040 0.000000 -0.005613 0.000000
# 4 0.000000 0.000000 0.000000 0.031623 0.000000 -0.004080
# 5 -0.001296 -0.003166 -0.005613 0.000000 0.022337 0.000000
# 6 0.000000 0.000000 0.000000 -0.004080 0.000000 0.035689
#
#
# Mechanical properties :
#
#
# Convention : Reuss Voigt Hill
#
# Bulk Modulus (GPa) = 21.96164 47.57728 34.76946
# Shear Modulus (GPa) = 26.83903 37.17073 32.00488
#
# Velocity S-wave (km/s) = 3.37128 3.96746 3.68146
# Velocity P-wave (km/s) = 4.94512 6.41367 5.72666
#
# Compressibility (1/GPa) = 0.04553393
#
# Stress axis : x y z
#
# Youngs Moduli (GPa) = 72.55552 73.10542 27.74704
#
# Poissons Ratio (x) = 0.53636 0.34149
# Poissons Ratio (y) = 0.53233 -0.29579
# Poissons Ratio (z) = 0.89295 -0.77932
#
# Static dielectric constant tensor:
#      x y z
#    x 1.973890 0.000000 -0.025780 
#    y 0.000000 1.866020 0.000000 
#    z -0.025780 0.000000 1.975250 
# 
# From -- ./inp_files/234429.got.cif
#   From: 2010.05.17/outbox.cif.g08.bks.cpg/sg15_118_cif.got.tgz:234429.got - 2010.06.03 18:47:42.
