data_PCOD9289264
_publ_section_title
;
Structure prediction by ZEFSAII (Michael W. Deem and Ramdas Pophale) SiO2 
 PCOD9289264
Probable space group: C 2/C
;
_chemical_formula_sum "Si O2"
_cell_formula_units_Z 52
_cell_length_a 20.588543
_cell_length_b 10.109088
_cell_length_c 15.157451
_cell_angle_alpha 90.000000
_cell_angle_beta 135.357796
_cell_angle_gamma 90.000000
_cell_volume 2216.765289
_symmetry_space_group_name_H-M "C 2/C"
_symmetry_group_IT_number 15
_symmetry_cell_setting 'monoclinic'
loop_
_space_group_symop_operation_xyz
x,y,z
-x,y,1/2-z
-x,-y,-z
x,-y,1/2+z
1/2+x,1/2+y,z
1/2-x,1/2+y,1/2-z
1/2-x,1/2-y,-z
1/2+x,1/2-y,1/2+z
loop_
_atom_site_type_symbol
_atom_site_label
_atom_site_fract_x
_atom_site_fract_y
_atom_site_fract_z
Si Si1 0.360331 0.413667 0.509981
Si Si2 0.500000 0.771912 0.250000
Si Si3 0.354738 0.277043 0.342049
Si Si4 0.495307 0.622374 0.850923
Si Si5 0.969759 0.413839 0.053927
Si Si6 0.372472 0.141171 0.046749
Si Si7 0.278078 0.139415 0.122495
O O1 0.412771 0.316952 0.630226
O O2 0.304357 0.349315 0.373582
O O3 0.442139 0.505748 0.549357
O O4 0.288067 0.522908 0.475685
O O5 0.528753 0.865745 0.195436
O O6 0.397706 0.365459 0.305365
O O7 0.440041 0.222398 0.480926
O O8 0.307451 0.149211 0.252433
O O9 0.500000 0.596427 0.750000
O O10 0.547796 0.762113 0.910550
O O11 0.887271 0.499162 0.018835
O O12 0.000000 0.500000 0.000000
O O13 0.368497 0.135914 0.148908
O O14 0.279169 0.222949 0.938626
#
# Coordination Sequence:
#
# PCOD9289264 Si02
#       7
#     8   4   8   8   8   8   8
#     4  10  23  43  63  96 133 176 216 272 332 384
#     4  10  24  44  66  98 132 170 230 268 330 384
#     4  11  23  39  64  97 128 172 223 272 327 393
#     4  11  19  37  68  92 123 171 223 276 313 385
#     4  11  24  41  68  98 129 166 223 283 324 383
#     4  10  22  40  62  97 121 171 215 267 334 381
#     4  10  23  41  65  92 137 172 216 262 335 411
#
# _framework density 23.457602000000001
#
# number of rings (size 3 to 8) (size 9 to 14) (size 15 to 20)
#    0.000    1.538    3.846    0.462    5.385    0.000 
#    0.000    4.615    0.000    0.000    0.000    0.000 
#    0.000    0.000    0.000    0.000    0.000    0.000 
#
# Total GULP energy -144735.042271 kJ/mol
# GULP energy per Si atom -5566.732395 kJ/mol
# Density = 2.340421 g / cm^3
# Si number density = 23.457602 Si / 1000 Ang^3
#
#
#
# Elastic Constant Matrix: (Units=GPa)
#
#
# Indices 1 2 3 4 5 6 
#
# 1 69.8347 39.5996 30.9807 0.0000 -15.4857 0.0000
# 2 39.5996 80.9429 30.4846 0.0000 -15.3865 0.0000
# 3 30.9807 30.4846 101.1840 0.0000 -26.9434 0.0000
# 4 0.0000 0.0000 0.0000 45.5515 0.0000 -1.0456
# 5 -15.4857 -15.3865 -26.9434 0.0000 29.6288 0.0000
# 6 0.0000 0.0000 0.0000 -1.0456 0.0000 24.0613
#
#
#
# Elastic Compliance Matrix: (Units=1/GPa)
#
#
# Indices 1 2 3 4 5 6 
#
# 1 0.021375 -0.008600 -0.002861 0.000000 0.004104 0.000000
# 2 -0.008600 0.017868 -0.001948 0.000000 0.003013 0.000000
# 3 -0.002861 -0.001948 0.014090 0.000000 0.010306 0.000000
# 4 0.000000 0.000000 0.000000 0.021975 0.000000 0.000955
# 5 0.004104 0.003013 0.010306 0.000000 0.046833 0.000000
# 6 0.000000 0.000000 0.000000 0.000955 0.000000 0.041602
#
#
# Mechanical properties :
#
#
# Convention : Reuss Voigt Hill
#
# Bulk Modulus (GPa) = 37.71241 50.45461 44.08351
# Shear Modulus (GPa) = 25.07531 29.90809 27.49170
#
# Velocity S-wave (km/s) = 3.27305 3.57457 3.42712
# Velocity P-wave (km/s) = 5.51321 6.21227 5.87315
#
# Compressibility (1/GPa) = 0.02651647
#
# Stress axis : x y z
#
# Youngs Moduli (GPa) = 46.78299 55.96603 70.97155
#
# Poissons Ratio (x) = 0.48129 0.20304
# Poissons Ratio (y) = 0.40232 0.13824
# Poissons Ratio (z) = 0.13384 0.10901
#
# Static dielectric constant tensor:
#      x y z
#    x 1.939360 0.000000 -0.117630 
#    y 0.000000 1.967940 0.000000 
#    z -0.117630 0.000000 2.125660 
# 
# From -- ./inp_files/167730.got.cif
#   From: 2010.05.17/outbox.cif.g08.bks.cpg/sg15_84_cif.got.tgz:167730.got - 2010.06.03 18:47:42.
