data_PCOD9289233
_publ_section_title
;
Structure prediction by ZEFSAII (Michael W. Deem and Ramdas Pophale) SiO2 
 PCOD9289233
Probable space group: C 2/C
;
_chemical_formula_sum "Si O2"
_cell_formula_units_Z 52
_cell_length_a 8.393062
_cell_length_b 14.695928
_cell_length_c 19.305394
_cell_angle_alpha 90.000000
_cell_angle_beta 101.470052
_cell_angle_gamma 90.000000
_cell_volume 2333.645830
_symmetry_space_group_name_H-M "C 2/C"
_symmetry_group_IT_number 15
_symmetry_cell_setting 'monoclinic'
loop_
_space_group_symop_operation_xyz
x,y,z
-x,y,1/2-z
-x,-y,-z
x,-y,1/2+z
1/2+x,1/2+y,z
1/2-x,1/2+y,1/2-z
1/2-x,1/2-y,-z
1/2+x,1/2-y,1/2+z
loop_
_atom_site_type_symbol
_atom_site_label
_atom_site_fract_x
_atom_site_fract_y
_atom_site_fract_z
Si Si1 0.702202 0.876936 0.050556
Si Si2 0.304415 0.355735 0.509633
Si Si3 0.429205 0.369305 0.376277
Si Si4 0.692051 0.037290 0.132861
Si Si5 0.500000 0.478128 0.250000
Si Si6 0.827694 0.164083 0.424146
Si Si7 0.970368 0.317435 0.673525
O O1 0.662018 0.771826 0.058423
O O2 0.890717 0.898222 0.083944
O O3 0.619299 0.941394 0.099093
O O4 0.706322 0.885420 0.968288
O O5 0.250000 0.250000 0.500000
O O6 0.309772 0.389066 0.430026
O O7 0.207673 0.409188 0.560382
O O8 0.490101 0.367903 0.553070
O O9 0.405172 0.417857 0.300423
O O10 0.459229 0.260471 0.371394
O O11 0.570303 0.092240 0.170160
O O12 0.860482 0.028720 0.192083
O O13 0.721473 0.161866 0.346703
O O14 0.000000 0.275298 0.750000
#
# Coordination Sequence:
#
# PCOD9289233 Si02
#       7
#     8   8   8   8   4   8   8
#     4   8  18  37  62  87 118 161 206 251 305 372
#     4  11  22  40  65  99 124 157 214 277 318 367
#     4   9  18  39  64  84 121 172 210 243 317 396
#     4  11  24  39  63  96 127 155 217 275 309 363
#     4  10  22  40  62  92 128 172 208 258 326 386
#     4   9  20  39  64  86 124 170 204 243 322 385
#     4  11  22  39  63  90 123 174 212 250 314 396
#
# _framework density 22.282730999999998
#
# number of rings (size 3 to 8) (size 9 to 14) (size 15 to 20)
#    0.000    2.154    2.308    0.923    2.154    6.154 
#    0.000    0.000    0.000    0.000    0.000    0.000 
#    0.000    0.000    0.000    0.000    0.000    0.000 
#
# Total GULP energy -144746.690279 kJ/mol
# GULP energy per Si atom -5567.180395 kJ/mol
# Density = 2.223201 g / cm^3
# Si number density = 22.282731 Si / 1000 Ang^3
#
#
#
# Elastic Constant Matrix: (Units=GPa)
#
#
# Indices 1 2 3 4 5 6 
#
# 1 51.5666 3.0111 10.4333 0.0000 -1.5301 0.0000
# 2 3.0111 58.7031 14.6584 0.0000 -5.7062 0.0000
# 3 10.4333 14.6584 103.4675 0.0000 -2.9309 0.0000
# 4 0.0000 0.0000 0.0000 7.2176 0.0000 13.1754
# 5 -1.5301 -5.7062 -2.9309 0.0000 28.0110 0.0000
# 6 0.0000 0.0000 0.0000 13.1754 0.0000 15.9501
#
#
#
# Elastic Compliance Matrix: (Units=1/GPa)
#
#
# Indices 1 2 3 4 5 6 
#
# 1 0.019830 -0.000463 -0.001912 0.000000 0.000789 0.000000
# 2 -0.000463 0.017989 -0.002406 0.000000 0.003387 0.000000
# 3 -0.001912 -0.002406 0.010212 0.000000 0.000474 0.000000
# 4 0.000000 0.000000 0.000000 -0.272795 0.000000 0.225339
# 5 0.000789 0.003387 0.000474 0.000000 0.036483 0.000000
# 6 0.000000 0.000000 0.000000 0.225339 0.000000 -0.123443
#
#
# Mechanical properties :
#
#
# Convention : Reuss Voigt Hill
#
# Bulk Modulus (GPa) = 25.99491 29.99365 27.99428
# Shear Modulus (GPa) = -17.28063 22.61137 2.66537
#
# Velocity S-wave (km/s) = -2.78783 3.18897 1.09488
# Velocity P-wave (km/s) = 1.15265 5.20087 3.76681
#
# Compressibility (1/GPa) = 0.03846907
#
# Stress axis : x y z
#
# Youngs Moduli (GPa) = 50.42959 55.59054 97.92500
#
# Poissons Ratio (x) = 0.02575 0.18719
# Poissons Ratio (y) = 0.02336 0.23559
# Poissons Ratio (z) = 0.09640 0.13374
#
# Static dielectric constant tensor:
#      x y z
#    x 1.847230 0.000000 0.004930 
#    y 0.000000 1.906550 0.000000 
#    z 0.004930 0.000000 1.905890 
# 
# From -- ./inp_files/190476.got.cif
#   From: 2010.05.17/outbox.cif.g08.bks.cpg/sg15_96_cif.got.tgz:190476.got - 2010.06.03 18:47:42.
