data_PCOD9289979
_publ_section_title
;
Structure prediction by ZEFSAII (Michael W. Deem and Ramdas Pophale) SiO2 
 PCOD9289979
Probable space group: C 2/C
;
_chemical_formula_sum "Si O2"
_cell_formula_units_Z 32
_cell_length_a 24.098797
_cell_length_b 5.002731
_cell_length_c 18.720669
_cell_angle_alpha 90.000000
_cell_angle_beta 142.345793
_cell_angle_gamma 90.000000
_cell_volume 1378.764434
_symmetry_space_group_name_H-M "C 2/C"
_symmetry_group_IT_number 15
_symmetry_cell_setting 'monoclinic'
loop_
_space_group_symop_operation_xyz
x,y,z
-x,y,1/2-z
-x,-y,-z
x,-y,1/2+z
1/2+x,1/2+y,z
1/2-x,1/2+y,1/2-z
1/2-x,1/2-y,-z
1/2+x,1/2-y,1/2+z
loop_
_atom_site_type_symbol
_atom_site_label
_atom_site_fract_x
_atom_site_fract_y
_atom_site_fract_z
Si Si1 0.089557 0.912480 0.260548
Si Si2 0.424032 0.689116 0.387954
Si Si3 0.066760 0.413373 0.960712
Si Si4 0.846286 0.393648 0.090850
O O1 0.141935 0.668922 0.352295
O O2 0.987820 0.815279 0.138170
O O3 0.129578 0.015910 0.225035
O O4 0.089142 0.172993 0.308545
O O5 0.500000 0.500000 0.500000
O O6 0.482939 0.908816 0.405207
O O7 0.380477 0.817486 0.414330
O O8 0.128792 0.553329 0.965672
O O9 0.750000 0.250000 0.000000
#
# Coordination Sequence:
#
# PCOD9289979 Si02
#       4
#     8   8   8   8
#     4  11  23  42  69  99 132 186 235 282 332 418
#     4   9  20  39  70  99 130 168 241 285 328 392
#     4  10  22  40  72 100 131 176 234 285 336 409
#     4  12  27  42  66 103 148 181 221 288 357 413
#
# _framework density 23.209184
#
# number of rings (size 3 to 8) (size 9 to 14) (size 15 to 20)
#    0.000    1.500    2.500    1.500   10.500    0.000 
#    0.000    0.000   16.500    0.000    0.000    0.000 
#    0.000    0.000    0.000    0.000    0.000    0.000 
#
# Total GULP energy -89362.813265 kJ/mol
# GULP energy per Si atom -5585.175829 kJ/mol
# Density = 2.315636 g / cm^3
# Si number density = 23.209184 Si / 1000 Ang^3
#
#
#
# Elastic Constant Matrix: (Units=GPa)
#
#
# Indices 1 2 3 4 5 6 
#
# 1 170.0580 65.4823 86.8481 0.0016 -51.8394 0.0009
# 2 65.4823 141.5446 46.5461 0.0063 -37.7267 0.0044
# 3 86.8481 46.5461 78.9146 0.0011 -32.9814 0.0017
# 4 0.0016 0.0063 0.0011 49.1759 0.0005 -21.6241
# 5 -51.8394 -37.7267 -32.9814 0.0005 36.9598 0.0007
# 6 0.0009 0.0044 0.0017 -21.6241 0.0007 41.7909
#
#
#
# Elastic Compliance Matrix: (Units=1/GPa)
#
#
# Indices 1 2 3 4 5 6 
#
# 1 0.015621 -0.000314 -0.012732 0.000000 0.010229 0.000000
# 2 -0.000314 0.010038 -0.002356 -0.000002 0.007704 -0.000002
# 3 -0.012732 -0.002356 0.031265 -0.000001 0.007638 -0.000001
# 4 0.000000 -0.000002 -0.000001 0.026325 -0.000004 0.013622
# 5 0.010229 0.007704 0.007638 -0.000004 0.056083 -0.000004
# 6 0.000000 -0.000002 -0.000001 0.013622 -0.000004 0.030977
#
#
# Mechanical properties :
#
#
# Convention : Reuss Voigt Hill
#
# Bulk Modulus (GPa) = 38.28105 87.58558 62.93331
# Shear Modulus (GPa) = 23.83007 38.36135 31.09571
#
# Velocity S-wave (km/s) = 3.20777 4.06994 3.66430
# Velocity P-wave (km/s) = 5.49995 7.73985 6.71397
#
# Compressibility (1/GPa) = 0.02612259
#
# Stress axis : x y z
#
# Youngs Moduli (GPa) = 64.01545 99.61983 31.98460
#
# Poissons Ratio (x) = 0.03126 0.40722
# Poissons Ratio (y) = 0.02009 0.07534
# Poissons Ratio (z) = 0.81502 0.23466
#
# Static dielectric constant tensor:
#      x y z
#    x 1.971760 0.000000 -0.081460 
#    y 0.000000 2.009290 0.000000 
#    z -0.081460 0.000000 1.997430 
# 
# From -- ./inp_files/170371.got.cif
#   From: 2010.05.17/outbox.cif.g08.bks.cpg/sg15_86_cif.got.tgz:170371.got - 2010.06.03 18:47:42.
