data_PCOD9289958
_publ_section_title
;
Structure prediction by ZEFSAII (Michael W. Deem and Ramdas Pophale) SiO2 
 PCOD9289958
Probable space group: C 2/C
;
_chemical_formula_sum "Si O2"
_cell_formula_units_Z 60
_cell_length_a 12.283779
_cell_length_b 19.422104
_cell_length_c 24.004252
_cell_angle_alpha 90.000000
_cell_angle_beta 31.583239
_cell_angle_gamma 90.000000
_cell_volume 2999.366071
_symmetry_space_group_name_H-M "C 2/C"
_symmetry_group_IT_number 15
_symmetry_cell_setting 'monoclinic'
loop_
_space_group_symop_operation_xyz
x,y,z
-x,y,1/2-z
-x,-y,-z
x,-y,1/2+z
1/2+x,1/2+y,z
1/2-x,1/2+y,1/2-z
1/2-x,1/2-y,-z
1/2+x,1/2-y,1/2+z
loop_
_atom_site_type_symbol
_atom_site_label
_atom_site_fract_x
_atom_site_fract_y
_atom_site_fract_z
Si Si1 0.522764 0.455566 0.306641
Si Si2 0.500000 0.689460 0.250000
Si Si3 0.548121 0.877548 0.963943
Si Si4 0.883883 0.190841 0.861072
Si Si5 0.454416 0.706464 0.395950
Si Si6 0.771820 0.435009 0.510088
Si Si7 0.092073 0.323242 0.770763
Si Si8 0.439224 0.965452 0.648242
O O1 0.500000 0.451333 0.250000
O O2 0.473567 0.378789 0.349843
O O3 0.360637 0.512748 0.395758
O O4 0.737073 0.487339 0.233895
O O5 0.718330 0.648521 0.151049
O O6 0.504372 0.723398 0.309193
O O7 0.552635 0.902851 0.025665
O O8 0.515812 0.938131 0.933923
O O9 0.361729 0.823213 0.038395
O O10 0.000000 0.194432 0.750000
O O11 0.946438 0.263500 0.860833
O O12 0.250000 0.750000 0.500000
O O13 0.376836 0.628173 0.439117
O O14 0.674969 0.708992 0.331266
O O15 0.875001 0.482068 0.417747
O O16 0.089240 0.395384 0.804869
O O17 0.000000 0.337595 0.750000
#
# Coordination Sequence:
#
# PCOD9289958 Si02
#       8
#     8   4   8   8   8   8   8   8
#     4  11  19  34  60  97 131 156 207 280 342 401
#     4  10  22  40  70  98 132 172 228 278 340 408
#     4  11  19  37  59 101 133 159 205 283 349 407
#     4  10  23  36  59  94 135 173 213 271 342 403
#     4  11  25  44  70  96 136 183 229 282 343 409
#     4  11  21  35  65  95 124 167 215 276 339 394
#     4  11  26  45  62  92 137 185 220 271 339 410
#     4  12  21  37  60  90 129 170 214 270 343 401
#
# _framework density 20.004228000000001
#
# number of rings (size 3 to 8) (size 9 to 14) (size 15 to 20)
#    0.000    1.067    5.333    2.800   10.267    0.533 
#    0.000    0.667    1.467    0.000    0.000    0.000 
#    0.000    0.000    0.000    0.000    0.000    0.000 
#
# Total GULP energy -167203.293532 kJ/mol
# GULP energy per Si atom -5573.443118 kJ/mol
# Density = 1.995870 g / cm^3
# Si number density = 20.004228 Si / 1000 Ang^3
#
#
#
# Elastic Constant Matrix: (Units=GPa)
#
#
# Indices 1 2 3 4 5 6 
#
# 1 56.8495 20.7804 31.3223 -0.0004 -18.5388 -0.0011
# 2 20.7804 112.6023 42.5143 -0.0040 -11.8471 0.0041
# 3 31.3223 42.5143 116.3583 -0.0099 -23.6091 0.0036
# 4 -0.0004 -0.0040 -0.0099 40.8126 0.0041 -1.7924
# 5 -18.5388 -11.8471 -23.6091 0.0041 24.5028 -0.0015
# 6 -0.0011 0.0041 0.0036 -1.7924 -0.0015 20.7298
#
#
#
# Elastic Compliance Matrix: (Units=1/GPa)
#
#
# Indices 1 2 3 4 5 6 
#
# 1 0.024796 -0.001887 -0.002939 -0.000002 0.015017 0.000003
# 2 -0.001887 0.010502 -0.003218 0.000000 0.000550 -0.000002
# 3 -0.002939 -0.003218 0.012174 0.000002 0.007951 -0.000001
# 4 -0.000002 0.000000 0.000002 0.024596 -0.000004 0.002127
# 5 0.015017 0.000550 0.007951 -0.000004 0.060101 0.000003
# 6 0.000003 -0.000002 -0.000001 0.002127 0.000003 0.048424
#
#
# Mechanical properties :
#
#
# Convention : Reuss Voigt Hill
#
# Bulk Modulus (GPa) = 31.86090 52.78266 42.32178
# Shear Modulus (GPa) = 24.13833 29.95525 27.04679
#
# Velocity S-wave (km/s) = 3.47747 3.87388 3.68102
# Velocity P-wave (km/s) = 5.66440 6.81559 6.26649
#
# Compressibility (1/GPa) = 0.03138643
#
# Stress axis : x y z
#
# Youngs Moduli (GPa) = 40.32889 95.22289 82.14189
#
# Poissons Ratio (x) = 0.17964 0.24138
# Poissons Ratio (y) = 0.07608 0.26430
# Poissons Ratio (z) = 0.11851 0.30639
#
# Static dielectric constant tensor:
#      x y z
#    x 1.723090 -0.000010 -0.012670 
#    y -0.000010 1.760700 0.000010 
#    z -0.012670 0.000010 1.788780 
# 
# From -- ./inp_files/293525.got.cif
#   From: 2010.05.17/outbox.cif.g08.bks.cpg/sg15_147_cif.got.tgz:293525.got - 2010.06.03 18:47:42.
