data_PCOD9289094
_publ_section_title
;
Structure prediction by ZEFSAII (Michael W. Deem and Ramdas Pophale) SiO2 
 PCOD9289094
Probable space group: C 2/C
;
_chemical_formula_sum "Si O2"
_cell_formula_units_Z 48
_cell_length_a 13.553621
_cell_length_b 12.701574
_cell_length_c 16.154561
_cell_angle_alpha 90.000000
_cell_angle_beta 123.739154
_cell_angle_gamma 90.000000
_cell_volume 2312.646975
_symmetry_space_group_name_H-M "C 2/C"
_symmetry_group_IT_number 15
_symmetry_cell_setting 'monoclinic'
loop_
_space_group_symop_operation_xyz
x,y,z
-x,y,1/2-z
-x,-y,-z
x,-y,1/2+z
1/2+x,1/2+y,z
1/2-x,1/2+y,1/2-z
1/2-x,1/2-y,-z
1/2+x,1/2-y,1/2+z
loop_
_atom_site_type_symbol
_atom_site_label
_atom_site_fract_x
_atom_site_fract_y
_atom_site_fract_z
Si Si1 0.827017 0.886678 0.995497
Si Si2 0.922428 0.091301 0.135915
Si Si3 0.871131 0.679033 0.226624
Si Si4 0.195701 0.621732 0.118446
Si Si5 0.520916 0.251801 0.549640
Si Si6 0.246172 0.373781 0.136142
O O1 0.729598 0.877611 0.877118
O O2 0.937731 0.818602 0.012426
O O3 0.756425 0.848549 0.043623
O O4 0.874528 0.999129 0.052265
O O5 0.816427 0.157951 0.129582
O O6 0.995778 0.167573 0.111101
O O7 0.000000 0.049499 0.250000
O O8 0.839463 0.646927 0.304491
O O9 0.857117 0.806883 0.220358
O O10 0.000000 0.652100 0.250000
O O11 0.223402 0.496770 0.131819
O O12 0.087562 0.672948 0.017467
O O13 0.633913 0.181788 0.623948
#
# Coordination Sequence:
#
# PCOD9289094 Si02
#       6
#     8   8   8   8   8   8
#     4  10  22  40  65  94 125 165 217 269 318 375
#     4  11  24  42  63  92 130 174 216 264 323 382
#     4  11  22  41  66  95 126 167 217 266 318 384
#     4  11  24  39  61  92 125 165 207 262 328 381
#     4  11  21  40  64  89 124 167 213 264 317 383
#     4  10  22  40  60  88 125 164 208 263 320 373
#
# _framework density 20.755438000000002
#
# number of rings (size 3 to 8) (size 9 to 14) (size 15 to 20)
#    0.000    1.333    0.000    7.500    0.000    8.000 
#    0.000    5.833    0.000    0.000    0.000    0.000 
#    0.000    0.000    0.000    0.000    0.000    0.000 
#
# Total GULP energy -133680.025395 kJ/mol
# GULP energy per Si atom -5570.001058 kJ/mol
# Density = 2.070820 g / cm^3
# Si number density = 20.755438 Si / 1000 Ang^3
#
#
#
# Elastic Constant Matrix: (Units=GPa)
#
#
# Indices 1 2 3 4 5 6 
#
# 1 125.3993 28.4214 22.7605 0.0000 3.8470 0.0000
# 2 28.4214 78.7972 31.8967 0.0000 -13.5455 0.0000
# 3 22.7605 31.8967 58.8418 0.0000 -2.3155 0.0000
# 4 0.0000 0.0000 0.0000 30.2399 0.0000 -7.6414
# 5 3.8470 -13.5455 -2.3155 0.0000 31.9899 0.0000
# 6 0.0000 0.0000 0.0000 -7.6414 0.0000 43.3305
#
#
#
# Elastic Compliance Matrix: (Units=1/GPa)
#
#
# Indices 1 2 3 4 5 6 
#
# 1 0.009071 -0.002862 -0.002054 0.000000 -0.002451 0.000000
# 2 -0.002862 0.018517 -0.008633 0.000000 0.007560 0.000000
# 3 -0.002054 -0.008633 0.022399 0.000000 -0.001787 0.000000
# 4 0.000000 0.000000 0.000000 0.034611 0.000000 0.006104
# 5 -0.002451 0.007560 -0.001787 0.000000 0.034626 0.000000
# 6 0.000000 0.000000 0.000000 0.006104 0.000000 0.024155
#
#
# Mechanical properties :
#
#
# Convention : Reuss Voigt Hill
#
# Bulk Modulus (GPa) = 43.68894 47.68841 45.68868
# Shear Modulus (GPa) = 28.07288 33.10937 30.59112
#
# Velocity S-wave (km/s) = 3.68170 3.99835 3.84329
# Velocity P-wave (km/s) = 6.25846 6.65897 6.46182
#
# Compressibility (1/GPa) = 0.02288909
#
# Stress axis : x y z
#
# Youngs Moduli (GPa) = 110.23957 54.00325 44.64530
#
# Poissons Ratio (x) = 0.15455 0.09170
# Poissons Ratio (y) = 0.31549 0.38544
# Poissons Ratio (z) = 0.22642 0.46623
#
# Static dielectric constant tensor:
#      x y z
#    x 1.751500 0.000000 0.020870 
#    y 0.000000 1.801770 0.000000 
#    z 0.020870 0.000000 1.768870 
# 
# From -- ./inp_files/144371.got.cif
#   From: 2010.05.17/outbox.cif.g08.bks.cpg/sg15_73_cif.got.tgz:144371.got - 2010.06.03 18:47:42.
