data_PCOD9289500
_publ_section_title
;
Structure prediction by ZEFSAII (Michael W. Deem and Ramdas Pophale) SiO2 
 PCOD9289500
Probable space group: C 2/C
;
_chemical_formula_sum "Si O2"
_cell_formula_units_Z 48
_cell_length_a 15.123632
_cell_length_b 8.242910
_cell_length_c 30.305033
_cell_angle_alpha 90.000000
_cell_angle_beta 142.993966
_cell_angle_gamma 90.000000
_cell_volume 2273.919750
_symmetry_space_group_name_H-M "C 2/C"
_symmetry_group_IT_number 15
_symmetry_cell_setting 'monoclinic'
loop_
_space_group_symop_operation_xyz
x,y,z
-x,y,1/2-z
-x,-y,-z
x,-y,1/2+z
1/2+x,1/2+y,z
1/2-x,1/2+y,1/2-z
1/2-x,1/2-y,-z
1/2+x,1/2-y,1/2+z
loop_
_atom_site_type_symbol
_atom_site_label
_atom_site_fract_x
_atom_site_fract_y
_atom_site_fract_z
Si Si1 0.818857 0.788440 0.074900
Si Si2 0.652742 0.350739 0.688143
Si Si3 0.821642 0.820123 0.572120
Si Si4 0.616066 0.268196 0.156471
Si Si5 0.367781 0.110736 0.426903
Si Si6 0.821596 0.189287 0.673330
O O1 0.773380 0.735585 0.106170
O O2 0.983209 0.723674 0.135596
O O3 0.817747 0.984199 0.073991
O O4 0.750000 0.750000 0.000000
O O5 0.492840 0.277818 0.635864
O O6 0.638499 0.539586 0.670166
O O7 0.745292 0.325087 0.769188
O O8 0.737550 0.267051 0.681231
O O9 0.750000 0.750000 0.500000
O O10 0.716281 0.776753 0.571118
O O11 0.574915 0.216536 0.090827
O O12 0.500000 0.000000 0.500000
O O13 0.243591 0.991484 0.357455
O O14 0.000000 0.191640 0.750000
#
# Coordination Sequence:
#
# PCOD9289500 Si02
#       6
#     8   8   8   8   8   8
#     4  10  22  40  65  91 126 170 216 263 323 390
#     4  11  24  42  64  96 132 173 218 277 320 395
#     4  10  23  41  62  92 127 166 211 267 331 373
#     4  11  23  40  64  95 130 170 221 264 333 384
#     4  11  24  42  69  95 129 174 217 273 338 393
#     4  11  22  43  66  91 130 177 218 267 331 392
#
# _framework density 21.108923000000001
#
# number of rings (size 3 to 8) (size 9 to 14) (size 15 to 20)
#    0.000    1.333    1.667    4.000    4.667    2.667 
#    3.000    4.167    0.000    0.000    0.000    0.000 
#    0.000    0.000    0.000    0.000    0.000    0.000 
#
# Total GULP energy -133800.077908 kJ/mol
# GULP energy per Si atom -5575.003246 kJ/mol
# Density = 2.106088 g / cm^3
# Si number density = 21.108923 Si / 1000 Ang^3
#
#
#
# Elastic Constant Matrix: (Units=GPa)
#
#
# Indices 1 2 3 4 5 6 
#
# 1 154.7133 16.9979 43.8466 0.0000 -19.2408 0.0000
# 2 16.9979 19.0979 13.4435 0.0000 -7.5376 0.0001
# 3 43.8466 13.4435 122.2066 0.0000 -7.2506 0.0000
# 4 0.0000 0.0000 0.0000 32.8333 0.0000 -10.8602
# 5 -19.2408 -7.5376 -7.2506 0.0000 43.8528 0.0000
# 6 0.0000 0.0001 0.0000 -10.8602 0.0000 28.7808
#
#
#
# Elastic Compliance Matrix: (Units=1/GPa)
#
#
# Indices 1 2 3 4 5 6 
#
# 1 0.007871 -0.004555 -0.002186 0.000000 0.002309 0.000000
# 2 -0.004555 0.062976 -0.004817 0.000000 0.008030 0.000000
# 3 -0.002186 -0.004817 0.009484 0.000000 -0.000219 0.000000
# 4 0.000000 0.000000 0.000000 0.034800 0.000000 0.013132
# 5 0.002309 0.008030 -0.000219 0.000000 0.025161 0.000000
# 6 0.000000 0.000000 0.000000 0.013132 0.000000 0.039700
#
#
# Mechanical properties :
#
#
# Convention : Reuss Voigt Hill
#
# Bulk Modulus (GPa) = 17.47802 49.39932 33.43867
# Shear Modulus (GPa) = 22.50427 35.87538 29.18983
#
# Velocity S-wave (km/s) = 3.26866 4.12702 3.72266
# Velocity P-wave (km/s) = 4.74799 6.79431 5.86114
#
# Compressibility (1/GPa) = 0.05721470
#
# Stress axis : x y z
#
# Youngs Moduli (GPa) = 127.05402 15.87902 105.44046
#
# Poissons Ratio (x) = 0.07233 0.23047
# Poissons Ratio (y) = 0.57877 0.50791
# Poissons Ratio (z) = 0.27772 0.07649
#
# Static dielectric constant tensor:
#      x y z
#    x 2.035530 0.000000 -0.023080 
#    y 0.000000 1.771740 0.000000 
#    z -0.023080 0.000000 1.804880 
# 
# From -- ./inp_files/295464.got.cif
#   From: 2010.05.17/outbox.cif.g08.bks.cpg/sg15_148_cif.got.tgz:295464.got - 2010.06.03 18:47:42.
