data_PCOD9289475
_publ_section_title
;
Structure prediction by ZEFSAII (Michael W. Deem and Ramdas Pophale) SiO2 
 PCOD9289475
Probable space group: C 2/C
;
_chemical_formula_sum "Si O2"
_cell_formula_units_Z 52
_cell_length_a 11.700589
_cell_length_b 18.801976
_cell_length_c 14.768084
_cell_angle_alpha 90.000000
_cell_angle_beta 39.990007
_cell_angle_gamma 90.000000
_cell_volume 2087.913888
_symmetry_space_group_name_H-M "C 2/C"
_symmetry_group_IT_number 15
_symmetry_cell_setting 'monoclinic'
loop_
_space_group_symop_operation_xyz
x,y,z
-x,y,1/2-z
-x,-y,-z
x,-y,1/2+z
1/2+x,1/2+y,z
1/2-x,1/2+y,1/2-z
1/2-x,1/2-y,-z
1/2+x,1/2-y,1/2+z
loop_
_atom_site_type_symbol
_atom_site_label
_atom_site_fract_x
_atom_site_fract_y
_atom_site_fract_z
Si Si1 0.728045 0.150363 0.633480
Si Si2 0.000000 0.219776 0.250000
Si Si3 0.362223 0.847379 0.114363
Si Si4 0.615283 0.317857 0.880435
Si Si5 0.844433 0.977339 0.249376
Si Si6 0.426245 0.077937 0.171021
Si Si7 0.265482 0.489548 0.997770
O O1 0.663711 0.225874 0.633760
O O2 0.388552 0.142239 0.705427
O O3 0.933673 0.157570 0.537276
O O4 0.717168 0.083285 0.575445
O O5 0.058412 0.179611 0.306806
O O6 0.347630 0.763178 0.113282
O O7 0.189819 0.896094 0.201695
O O8 0.507766 0.882440 0.961066
O O9 0.786652 0.365605 0.795810
O O10 0.803060 0.019433 0.367625
O O11 0.037701 0.987618 0.090783
O O12 0.693667 0.008652 0.275814
O O13 0.608736 0.047490 0.103015
#
# Coordination Sequence:
#
# PCOD9289475 Si02
#       7
#     8   4   8   8   8   8   8
#     4  11  23  38  63  98 139 159 212 279 328 378
#     4  10  24  34  62  96 136 168 204 270 338 392
#     4  10  22  40  64  99 130 173 210 270 326 387
#     4  11  23  41  64  94 134 174 212 262 333 395
#     4  10  22  41  66  90 131 173 220 262 321 391
#     4  11  23  42  69  90 133 177 221 254 327 400
#     4  10  22  40  65  95 124 174 224 263 318 391
#
# _framework density 24.905241
#
# number of rings (size 3 to 8) (size 9 to 14) (size 15 to 20)
#    0.000    1.538    1.538    4.154   10.769    0.615 
#    0.000    0.769    3.385    1.846    0.000    0.000 
#    0.000    0.000    0.000    0.000    0.000    0.000 
#
# Total GULP energy -145356.484424 kJ/mol
# GULP energy per Si atom -5590.634016 kJ/mol
# Density = 2.484856 g / cm^3
# Si number density = 24.905241 Si / 1000 Ang^3
#
#
#
# Elastic Constant Matrix: (Units=GPa)
#
#
# Indices 1 2 3 4 5 6 
#
# 1 49.6597 30.7250 34.4969 -0.0013 -6.3894 0.0013
# 2 30.7250 131.5575 56.3089 -0.0010 -17.7027 0.0006
# 3 34.4969 56.3089 165.0644 0.0000 -32.1555 0.0008
# 4 -0.0013 -0.0010 0.0000 46.0695 0.0007 -3.6437
# 5 -6.3894 -17.7027 -32.1555 0.0007 39.8147 -0.0016
# 6 0.0013 0.0006 0.0008 -3.6437 -0.0016 32.6099
#
#
#
# Elastic Compliance Matrix: (Units=1/GPa)
#
#
# Indices 1 2 3 4 5 6 
#
# 1 0.025519 -0.004374 -0.004061 0.000001 -0.001129 -0.000001
# 2 -0.004374 0.009759 -0.002025 0.000000 0.002002 0.000000
# 3 -0.004061 -0.002025 0.008658 0.000000 0.005440 0.000000
# 4 0.000001 0.000000 0.000000 0.021900 0.000000 0.002447
# 5 -0.001129 0.002002 0.005440 0.000000 0.030219 0.000001
# 6 -0.000001 0.000000 0.000000 0.002447 0.000001 0.030939
#
#
# Mechanical properties :
#
#
# Convention : Reuss Voigt Hill
#
# Bulk Modulus (GPa) = 43.44900 65.48259 54.46580
# Shear Modulus (GPa) = 32.13691 38.68219 35.40955
#
# Velocity S-wave (km/s) = 3.59607 3.94531 3.77473
# Velocity P-wave (km/s) = 5.89286 6.86322 6.39647
#
# Compressibility (1/GPa) = 0.02301549
#
# Stress axis : x y z
#
# Youngs Moduli (GPa) = 39.18656 102.47165 115.50598
#
# Poissons Ratio (x) = 0.44817 0.46910
# Poissons Ratio (y) = 0.17139 0.23391
# Poissons Ratio (z) = 0.15915 0.20751
#
# Static dielectric constant tensor:
#      x y z
#    x 2.077590 0.000000 0.027780 
#    y 0.000000 1.962790 0.000000 
#    z 0.027780 0.000000 1.974580 
# 
# From -- ./inp_files/154632.got.cif
#   From: 2010.05.17/outbox.cif.g08.bks.cpg/sg15_78_cif.got.tgz:154632.got - 2010.06.03 18:47:42.
