data_PCOD9289250
_publ_section_title
;
Structure prediction by ZEFSAII (Michael W. Deem and Ramdas Pophale) SiO2 
 PCOD9289250
Probable space group: C 2/C
;
_chemical_formula_sum "Si O2"
_cell_formula_units_Z 36
_cell_length_a 10.152414
_cell_length_b 11.605078
_cell_length_c 19.327919
_cell_angle_alpha 90.000000
_cell_angle_beta 44.937294
_cell_angle_gamma 90.000000
_cell_volume 1608.465160
_symmetry_space_group_name_H-M "C 2/C"
_symmetry_group_IT_number 15
_symmetry_cell_setting 'monoclinic'
loop_
_space_group_symop_operation_xyz
x,y,z
-x,y,1/2-z
-x,-y,-z
x,-y,1/2+z
1/2+x,1/2+y,z
1/2-x,1/2+y,1/2-z
1/2-x,1/2-y,-z
1/2+x,1/2-y,1/2+z
loop_
_atom_site_type_symbol
_atom_site_label
_atom_site_fract_x
_atom_site_fract_y
_atom_site_fract_z
Si Si1 0.118622 0.735223 0.615576
Si Si2 0.780752 0.863927 0.277811
Si Si3 0.000000 0.341895 0.750000
Si Si4 0.127430 0.001091 0.118475
Si Si5 0.781476 0.011240 0.570903
O O1 0.250000 0.750000 0.500000
O O2 0.221939 0.637242 0.620471
O O3 0.923968 0.673693 0.668784
O O4 0.108615 0.864908 0.646469
O O5 0.782344 0.923173 0.354249
O O6 0.894014 0.744402 0.238143
O O7 0.916357 0.952146 0.186945
O O8 0.846226 0.418325 0.844677
O O9 0.239364 0.997257 0.004830
O O10 0.000000 0.000000 0.500000
#
# Coordination Sequence:
#
# PCOD9289250 Si02
#       5
#     8   8   4   8   8
#     4  10  22  40  67  94 132 176 222 279 323 408
#     4  10  23  42  68  95 135 171 228 274 334 404
#     4  10  22  40  62  94 130 170 216 278 330 396
#     4   9  22  45  63  97 131 172 225 274 336 398
#     4  11  24  40  67  98 135 173 222 275 340 402
#
# _framework density 22.381582999999999
#
# number of rings (size 3 to 8) (size 9 to 14) (size 15 to 20)
#    0.000    2.222    0.000    2.667    6.222    8.889 
#    0.000    0.000    0.000    0.000    0.000    0.000 
#    0.000    0.000    0.000    0.000    0.000    0.000 
#
# Total GULP energy -100477.931571 kJ/mol
# GULP energy per Si atom -5582.107310 kJ/mol
# Density = 2.233064 g / cm^3
# Si number density = 22.381583 Si / 1000 Ang^3
#
#
#
# Elastic Constant Matrix: (Units=GPa)
#
#
# Indices 1 2 3 4 5 6 
#
# 1 61.3561 40.2338 24.9149 0.0000 -28.5048 0.0000
# 2 40.2338 204.6729 65.9822 0.0000 -23.0585 0.0000
# 3 24.9149 65.9822 136.6168 0.0000 -9.5529 0.0000
# 4 0.0000 0.0000 0.0000 50.9659 0.0000 -8.2783
# 5 -28.5048 -23.0585 -9.5529 0.0000 49.5042 0.0000
# 6 0.0000 0.0000 0.0000 -8.2783 0.0000 18.4420
#
#
#
# Elastic Compliance Matrix: (Units=1/GPa)
#
#
# Indices 1 2 3 4 5 6 
#
# 1 0.024893 -0.002716 -0.002346 0.000000 0.012616 0.000000
# 2 -0.002716 0.006326 -0.002497 0.000000 0.000901 0.000000
# 3 -0.002346 -0.002497 0.008898 0.000000 -0.000797 0.000000
# 4 0.000000 0.000000 0.000000 0.021164 0.000000 0.009500
# 5 0.012616 0.000901 -0.000797 0.000000 0.027730 0.000000
# 6 0.000000 0.000000 0.000000 0.009500 0.000000 0.058489
#
#
# Mechanical properties :
#
#
# Convention : Reuss Voigt Hill
#
# Bulk Modulus (GPa) = 40.00111 73.87860 56.93986
# Shear Modulus (GPa) = 29.24819 41.88340 35.56579
#
# Velocity S-wave (km/s) = 3.61889 4.33058 3.99063
# Velocity P-wave (km/s) = 5.94751 7.62139 6.83588
#
# Compressibility (1/GPa) = 0.02499930
#
# Stress axis : x y z
#
# Youngs Moduli (GPa) = 40.17232 158.07199 112.38621
#
# Poissons Ratio (x) = 0.42929 0.26365
# Poissons Ratio (y) = 0.10910 0.28064
# Poissons Ratio (z) = 0.09424 0.39472
#
# Static dielectric constant tensor:
#      x y z
#    x 1.945800 0.000000 0.049170 
#    y 0.000000 1.522890 0.000000 
#    z 0.049170 0.000000 1.879910 
# 
# From -- ./inp_files/268336.got.cif
#   From: 2010.05.17/outbox.cif.g08.bks.cpg/sg15_135_cif.got.tgz:268336.got - 2010.06.03 18:47:42.
