data_PCOD9289929
_publ_section_title
;
Structure prediction by ZEFSAII (Michael W. Deem and Ramdas Pophale) SiO2 
 PCOD9289929
Probable space group: C 2/C
;
_chemical_formula_sum "Si O2"
_cell_formula_units_Z 48
_cell_length_a 14.793971
_cell_length_b 15.479990
_cell_length_c 9.785748
_cell_angle_alpha 90.000000
_cell_angle_beta 107.289451
_cell_angle_gamma 90.000000
_cell_volume 2139.779107
_symmetry_space_group_name_H-M "C 2/C"
_symmetry_group_IT_number 15
_symmetry_cell_setting 'monoclinic'
loop_
_space_group_symop_operation_xyz
x,y,z
-x,y,1/2-z
-x,-y,-z
x,-y,1/2+z
1/2+x,1/2+y,z
1/2-x,1/2+y,1/2-z
1/2-x,1/2-y,-z
1/2+x,1/2-y,1/2+z
loop_
_atom_site_type_symbol
_atom_site_label
_atom_site_fract_x
_atom_site_fract_y
_atom_site_fract_z
Si Si1 0.314723 0.148095 0.365502
Si Si2 0.764186 0.034443 0.618703
Si Si3 0.890103 0.988527 0.911932
Si Si4 0.658191 0.808796 0.933135
Si Si5 0.627777 0.248710 0.874002
Si Si6 0.954666 0.201452 0.425995
O O1 0.376528 0.167227 0.527643
O O2 0.226647 0.209409 0.371540
O O3 0.289648 0.048408 0.348642
O O4 0.350369 0.173616 0.231889
O O5 0.822741 0.005826 0.511830
O O6 0.689890 0.106954 0.535592
O O7 0.845700 0.048120 0.772204
O O8 0.893877 0.885651 0.877940
O O9 0.000000 0.000000 0.000000
O O10 0.570837 0.750969 0.947923
O O11 0.750000 0.750000 0.000000
O O12 0.580068 0.233920 0.707335
O O13 0.563448 0.315988 0.933917
#
# Coordination Sequence:
#
# PCOD9289929 Si02
#       6
#     8   8   8   8   8   8
#     4  11  23  43  65 100 127 178 221 268 330 398
#     4  12  23  42  64  95 131 176 221 268 330 394
#     4  12  25  40  63  98 139 169 214 273 340 400
#     4  12  23  43  64  94 136 174 223 269 325 397
#     4  10  22  40  70  91 134 167 221 267 331 391
#     4  11  23  45  63 100 133 175 216 274 328 395
#
# _framework density 22.432221999999999
#
# number of rings (size 3 to 8) (size 9 to 14) (size 15 to 20)
#    0.000    0.667    6.667    1.500    4.667    2.000 
#    3.000    0.833    0.000    0.000    0.000    0.000 
#    0.000    0.000    0.000    0.000    0.000    0.000 
#
# Total GULP energy -133733.959467 kJ/mol
# GULP energy per Si atom -5572.248311 kJ/mol
# Density = 2.238117 g / cm^3
# Si number density = 22.432222 Si / 1000 Ang^3
#
#
#
# Elastic Constant Matrix: (Units=GPa)
#
#
# Indices 1 2 3 4 5 6 
#
# 1 40.6858 -8.6145 14.8934 0.0000 -21.8979 0.0000
# 2 -8.6145 33.3568 14.6160 0.0000 0.9149 0.0000
# 3 14.8934 14.6160 126.9048 0.0000 -10.3951 0.0000
# 4 0.0000 0.0000 0.0000 38.2446 0.0000 -1.2884
# 5 -21.8979 0.9149 -10.3951 0.0000 42.3035 0.0000
# 6 0.0000 0.0000 0.0000 -1.2884 0.0000 12.5899
#
#
#
# Elastic Compliance Matrix: (Units=1/GPa)
#
#
# Indices 1 2 3 4 5 6 
#
# 1 0.038615 0.011348 -0.004308 0.000000 0.018684 0.000000
# 2 0.011348 0.035015 -0.005047 0.000000 0.003877 0.000000
# 3 -0.004308 -0.005047 0.008974 0.000000 0.000084 0.000000
# 4 0.000000 0.000000 0.000000 0.026238 0.000000 0.002685
# 5 0.018684 0.003877 0.000084 0.000000 0.033247 0.000000
# 6 0.000000 0.000000 0.000000 0.002685 0.000000 0.079703
#
#
# Mechanical properties :
#
#
# Convention : Reuss Voigt Hill
#
# Bulk Modulus (GPa) = 11.54897 26.97079 19.25988
# Shear Modulus (GPa) = 20.27005 30.63109 25.45057
#
# Velocity S-wave (km/s) = 3.00928 3.69927 3.37197
# Velocity P-wave (km/s) = 4.15137 5.50413 4.87490
#
# Compressibility (1/GPa) = 0.08658785
#
# Stress axis : x y z
#
# Youngs Moduli (GPa) = 25.89692 28.55952 111.43679
#
# Poissons Ratio (x) = -0.32408 0.48010
# Poissons Ratio (y) = -0.29387 0.56242
# Poissons Ratio (z) = 0.11157 0.14414
#
# Static dielectric constant tensor:
#      x y z
#    x 2.045130 0.000000 0.118600 
#    y 0.000000 1.905610 0.000000 
#    z 0.118600 0.000000 1.897730 
# 
# From -- ./inp_files/48082.got.cif
#   From: 2010.05.17/outbox.cif.g08.bks.cpg/sg15_25_cif.got.tgz:48082.got - 2010.06.03 18:47:42.
