data_PCOD9289506
_publ_section_title
;
Structure prediction by ZEFSAII (Michael W. Deem and Ramdas Pophale) SiO2 
 PCOD9289506
Probable space group: C 2/C
;
_chemical_formula_sum "Si O2"
_cell_formula_units_Z 44
_cell_length_a 22.511185
_cell_length_b 15.573245
_cell_length_c 7.130402
_cell_angle_alpha 90.000000
_cell_angle_beta 43.902524
_cell_angle_gamma 90.000000
_cell_volume 1733.390255
_symmetry_space_group_name_H-M "C 2/C"
_symmetry_group_IT_number 15
_symmetry_cell_setting 'monoclinic'
loop_
_space_group_symop_operation_xyz
x,y,z
-x,y,1/2-z
-x,-y,-z
x,-y,1/2+z
1/2+x,1/2+y,z
1/2-x,1/2+y,1/2-z
1/2-x,1/2-y,-z
1/2+x,1/2-y,1/2+z
loop_
_atom_site_type_symbol
_atom_site_label
_atom_site_fract_x
_atom_site_fract_y
_atom_site_fract_z
Si Si1 0.500000 0.966588 0.250000
Si Si2 0.925645 0.788205 0.646409
Si Si3 0.113705 0.250567 0.825489
Si Si4 0.286668 0.424305 0.960347
Si Si5 0.252529 0.116832 0.520335
Si Si6 0.106772 0.607543 0.827038
O O1 0.467199 0.907250 0.158065
O O2 0.420400 0.031126 0.471746
O O3 0.897843 0.704585 0.591899
O O4 0.028002 0.784004 0.420832
O O5 0.899708 0.767086 0.921715
O O6 0.873607 0.874128 0.712075
O O7 0.190032 0.189493 0.583357
O O8 0.150988 0.347487 0.725442
O O9 0.260181 0.391773 0.226849
O O10 0.202258 0.402702 0.030581
O O11 0.284180 0.526756 0.970576
#
# Coordination Sequence:
#
# PCOD9289506 Si02
#       6
#     4   8   8   8   8   8
#     4  10  24  38  62  92 126 174 216 264 332 382
#     4  10  22  40  65  92 131 166 214 263 323 380
#     4   9  21  43  66  91 127 177 210 258 323 390
#     4  11  24  40  64  96 128 168 211 268 318 387
#     4  10  23  42  67  93 129 170 216 261 322 379
#     4  11  23  39  59  93 128 165 208 269 320 389
#
# _framework density 25.383780999999999
#
# number of rings (size 3 to 8) (size 9 to 14) (size 15 to 20)
#    0.000    1.818    0.000    2.727   12.727    0.727 
#    3.273    0.000    0.000    0.000    0.000    0.000 
#    0.000    0.000    0.000    0.000    0.000    0.000 
#
# Total GULP energy -123018.055210 kJ/mol
# GULP energy per Si atom -5591.729782 kJ/mol
# Density = 2.532601 g / cm^3
# Si number density = 25.383781 Si / 1000 Ang^3
#
#
#
# Elastic Constant Matrix: (Units=GPa)
#
#
# Indices 1 2 3 4 5 6 
#
# 1 88.1751 69.2209 43.7591 0.0000 -31.7486 0.0000
# 2 69.2209 193.0243 58.5087 0.0000 -55.5282 0.0000
# 3 43.7591 58.5087 99.2499 0.0000 -42.4991 0.0000
# 4 0.0000 0.0000 0.0000 42.6847 0.0000 -9.3301
# 5 -31.7486 -55.5282 -42.4991 0.0000 51.9223 0.0000
# 6 0.0000 0.0000 0.0000 -9.3301 0.0000 46.7689
#
#
#
# Elastic Compliance Matrix: (Units=1/GPa)
#
#
# Indices 1 2 3 4 5 6 
#
# 1 0.017791 -0.004301 -0.004034 0.000000 0.002977 0.000000
# 2 -0.004301 0.008674 -0.000571 0.000000 0.006179 0.000000
# 3 -0.004034 -0.000571 0.016740 0.000000 0.010625 0.000000
# 4 0.000000 0.000000 0.000000 0.024496 0.000000 0.004887
# 5 0.002977 0.006179 0.010625 0.000000 0.036384 0.000000
# 6 0.000000 0.000000 0.000000 0.004887 0.000000 0.022357
#
#
# Mechanical properties :
#
#
# Convention : Reuss Voigt Hill
#
# Bulk Modulus (GPa) = 39.38023 80.38073 59.88048
# Shear Modulus (GPa) = 32.73995 42.20591 37.47293
#
# Velocity S-wave (km/s) = 3.59527 4.08206 3.84637
# Velocity P-wave (km/s) = 5.72558 7.34524 6.58539
#
# Compressibility (1/GPa) = 0.02539345
#
# Stress axis : x y z
#
# Youngs Moduli (GPa) = 56.20674 115.29186 59.73578
#
# Poissons Ratio (x) = 0.49587 0.24096
# Poissons Ratio (y) = 0.24175 0.03412
# Poissons Ratio (z) = 0.22673 0.06586
#
# Static dielectric constant tensor:
#      x y z
#    x 2.062580 0.000000 0.059780 
#    y 0.000000 1.996450 0.000000 
#    z 0.059780 0.000000 2.065240 
# 
# From -- ./inp_files/66089.got.cif
#   From: 2010.05.17/outbox.cif.g08.bks.cpg/sg15_34_cif.got.tgz:66089.got - 2010.06.03 18:47:42.
