data_PCOD9289209
_publ_section_title
;
Structure prediction by ZEFSAII (Michael W. Deem and Ramdas Pophale) SiO2 
 PCOD9289209
Probable space group: C 2/C
;
_chemical_formula_sum "Si O2"
_cell_formula_units_Z 40
_cell_length_a 14.712095
_cell_length_b 5.340987
_cell_length_c 27.934978
_cell_angle_alpha 90.000000
_cell_angle_beta 130.651906
_cell_angle_gamma 90.000000
_cell_volume 1665.343532
_symmetry_space_group_name_H-M "C 2/C"
_symmetry_group_IT_number 15
_symmetry_cell_setting 'monoclinic'
loop_
_space_group_symop_operation_xyz
x,y,z
-x,y,1/2-z
-x,-y,-z
x,-y,1/2+z
1/2+x,1/2+y,z
1/2-x,1/2+y,1/2-z
1/2-x,1/2-y,-z
1/2+x,1/2-y,1/2+z
loop_
_atom_site_type_symbol
_atom_site_label
_atom_site_fract_x
_atom_site_fract_y
_atom_site_fract_z
Si Si1 0.496872 0.579753 0.599444
Si Si2 0.132704 0.164878 0.776387
Si Si3 0.780098 0.665201 0.697529
Si Si4 0.819099 0.058113 0.118168
Si Si5 0.577139 0.074495 0.980028
O O1 0.638867 0.624770 0.648464
O O2 0.437389 0.510454 0.629743
O O3 0.466403 0.339277 0.555995
O O4 0.438511 0.840221 0.561231
O O5 0.149244 0.429358 0.758346
O O6 0.000000 0.125364 0.750000
O O7 0.181425 0.925734 0.765237
O O8 0.211421 0.156578 0.852860
O O9 0.826505 0.713490 0.658435
O O10 0.713693 0.096770 0.044471
O O11 0.500000 0.000000 0.000000
#
# Coordination Sequence:
#
# PCOD9289209 Si02
#       5
#     8   8   8   8   8
#     4  12  24  39  62  93 129 164 200 256 301 376
#     4  10  22  43  66  87 120 162 207 261 318 359
#     4  10  22  40  62  89 125 157 209 251 314 364
#     4  10  25  38  64  92 125 162 214 246 310 373
#     4  12  23  39  62  90 131 167 201 245 310 371
#
# _framework density 24.019068000000001
#
# number of rings (size 3 to 8) (size 9 to 14) (size 15 to 20)
#    1.200    0.000    2.000    4.800    5.600    0.000 
#    0.000    2.000    0.000    0.000    0.000    0.000 
#    0.000    0.000    0.000    0.000    0.000    0.000 
#
# Total GULP energy -111778.763755 kJ/mol
# GULP energy per Si atom -5588.938188 kJ/mol
# Density = 2.396440 g / cm^3
# Si number density = 24.019068 Si / 1000 Ang^3
#
#
#
# Elastic Constant Matrix: (Units=GPa)
#
#
# Indices 1 2 3 4 5 6 
#
# 1 120.1625 25.0724 17.6776 0.0000 6.3049 0.0001
# 2 25.0724 181.5876 29.8904 0.0002 12.2376 0.0000
# 3 17.6776 29.8904 76.3187 0.0000 8.9211 0.0000
# 4 0.0000 0.0002 0.0000 6.0737 0.0000 26.2234
# 5 6.3049 12.2376 8.9211 0.0000 40.0923 0.0000
# 6 0.0001 0.0000 0.0000 26.2234 0.0000 7.0146
#
#
#
# Elastic Compliance Matrix: (Units=1/GPa)
#
#
# Indices 1 2 3 4 5 6 
#
# 1 0.008784 -0.000900 -0.001594 0.000000 -0.000752 0.000000
# 2 -0.000900 0.006047 -0.002013 0.000000 -0.001256 0.000000
# 3 -0.001594 -0.002013 0.014538 0.000000 -0.002370 0.000000
# 4 0.000000 0.000000 0.000000 -0.010874 0.000000 0.040652
# 5 -0.000752 -0.001256 -0.002370 0.000000 0.025972 0.000000
# 6 0.000000 0.000000 0.000000 0.040652 0.000000 -0.009416
#
#
# Mechanical properties :
#
#
# Convention : Reuss Voigt Hill
#
# Bulk Modulus (GPa) = 49.12942 58.14996 53.63969
# Shear Modulus (GPa) = 98.32969 30.99802 64.66386
#
# Velocity S-wave (km/s) = 6.40524 3.59633 5.19426
# Velocity P-wave (km/s) = 8.67188 6.44261 7.63900
#
# Compressibility (1/GPa) = 0.02035440
#
# Stress axis : x y z
#
# Youngs Moduli (GPa) = 113.84609 165.36417 68.78669
#
# Poissons Ratio (x) = 0.14878 0.10967
# Poissons Ratio (y) = 0.10243 0.13848
# Poissons Ratio (z) = 0.18151 0.33291
#
# Static dielectric constant tensor:
#      x y z
#    x 1.896060 0.000000 -0.015310 
#    y 0.000000 1.973550 0.000000 
#    z -0.015310 0.000000 1.981100 
# 
# From -- ./inp_files/275510.got.cif
#   From: 2010.05.17/outbox.cif.g08.bks.cpg/sg15_138_cif.got.tgz:275510.got - 2010.06.03 18:47:42.
