data_PCOD9289901
_publ_section_title
;
Structure prediction by ZEFSAII (Michael W. Deem and Ramdas Pophale) SiO2 
 PCOD9289901
Probable space group: C 2/C
;
_chemical_formula_sum "Si O2"
_cell_formula_units_Z 48
_cell_length_a 18.047499
_cell_length_b 10.520847
_cell_length_c 11.258926
_cell_angle_alpha 90.000000
_cell_angle_beta 104.836278
_cell_angle_gamma 90.000000
_cell_volume 2066.517547
_symmetry_space_group_name_H-M "C 2/C"
_symmetry_group_IT_number 15
_symmetry_cell_setting 'monoclinic'
loop_
_space_group_symop_operation_xyz
x,y,z
-x,y,1/2-z
-x,-y,-z
x,-y,1/2+z
1/2+x,1/2+y,z
1/2-x,1/2+y,1/2-z
1/2-x,1/2-y,-z
1/2+x,1/2-y,1/2+z
loop_
_atom_site_type_symbol
_atom_site_label
_atom_site_fract_x
_atom_site_fract_y
_atom_site_fract_z
Si Si1 0.698615 0.912263 0.841064
Si Si2 0.431691 0.832395 0.530846
Si Si3 0.325187 0.801103 0.098783
Si Si4 0.904595 0.402163 0.908360
Si Si5 0.871009 0.072102 0.452763
Si Si6 0.408774 0.563364 0.217665
O O1 0.670700 0.877195 0.699031
O O2 0.784073 0.878036 0.911101
O O3 0.694957 0.065361 0.849407
O O4 0.635217 0.851959 0.901024
O O5 0.517068 0.852018 0.615154
O O6 0.426461 0.693140 0.475261
O O7 0.417280 0.947326 0.432804
O O8 0.361437 0.694808 0.197016
O O9 0.250000 0.750000 0.000000
O O10 0.390208 0.837020 0.028687
O O11 0.887214 0.997859 0.335495
O O12 0.883492 0.002595 0.583517
O O13 0.500000 0.579142 0.250000
#
# Coordination Sequence:
#
# PCOD9289901 Si02
#       6
#     8   8   8   8   8   8
#     4  11  23  40  71  99 138 177 235 292 357 416
#     4  10  23  43  65 101 137 178 235 292 359 414
#     4  11  22  43  66  97 138 183 235 285 351 424
#     4  10  22  40  69  99 134 180 233 296 350 423
#     4  12  26  46  70 104 146 184 236 293 357 428
#     4  12  27  47  71 102 140 191 236 290 357 428
#
# _framework density 23.227481999999998
#
# number of rings (size 3 to 8) (size 9 to 14) (size 15 to 20)
#    0.000    1.000    1.667    4.500    2.333    5.333 
#    3.000    0.000    0.000    0.000    0.000    0.000 
#    0.000    0.000    0.000    0.000    0.000    0.000 
#
# Total GULP energy -134251.047604 kJ/mol
# GULP energy per Si atom -5593.793650 kJ/mol
# Density = 2.317462 g / cm^3
# Si number density = 23.227482 Si / 1000 Ang^3
#
#
#
# Elastic Constant Matrix: (Units=GPa)
#
#
# Indices 1 2 3 4 5 6 
#
# 1 87.3740 -0.9239 18.6227 0.0000 -3.7569 0.0000
# 2 -0.9239 44.3870 30.5048 0.0000 -7.5938 0.0000
# 3 18.6227 30.5048 122.3050 0.0000 -3.4397 0.0000
# 4 0.0000 0.0000 0.0000 21.9166 0.0000 9.0569
# 5 -3.7569 -7.5938 -3.4397 0.0000 37.3559 0.0000
# 6 0.0000 0.0000 0.0000 9.0569 0.0000 23.6408
#
#
#
# Elastic Compliance Matrix: (Units=1/GPa)
#
#
# Indices 1 2 3 4 5 6 
#
# 1 0.012020 0.002080 -0.002309 0.000000 0.001419 0.000000
# 2 0.002080 0.028481 -0.007270 0.000000 0.005329 0.000000
# 3 -0.002309 -0.007270 0.010320 0.000000 -0.000760 0.000000
# 4 0.000000 0.000000 0.000000 0.054210 0.000000 -0.020768
# 5 0.001419 0.005329 -0.000760 0.000000 0.027926 0.000000
# 6 0.000000 0.000000 0.000000 -0.020768 0.000000 0.050256
#
#
# Mechanical properties :
#
#
# Convention : Reuss Voigt Hill
#
# Bulk Modulus (GPa) = 27.91610 38.94148 33.42879
# Shear Modulus (GPa) = 23.79233 30.30684 27.04959
#
# Velocity S-wave (km/s) = 3.20397 3.61610 3.41625
# Velocity P-wave (km/s) = 5.07266 5.85120 5.47578
#
# Compressibility (1/GPa) = 0.03582162
#
# Stress axis : x y z
#
# Youngs Moduli (GPa) = 83.19317 35.11156 96.90073
#
# Poissons Ratio (x) = -0.07303 0.22375
# Poissons Ratio (y) = -0.17303 0.70450
# Poissons Ratio (z) = 0.19210 0.25527
#
# Static dielectric constant tensor:
#      x y z
#    x 1.836630 0.000000 -0.023710 
#    y 0.000000 1.849100 0.000000 
#    z -0.023710 0.000000 1.941010 
# 
# From -- ./inp_files/104283.got.cif
#   From: 2010.05.17/outbox.cif.g08.bks.cpg/sg15_53_cif.got.tgz:104283.got - 2010.06.03 18:47:42.
