data_PCOD9289574
_publ_section_title
;
Structure prediction by ZEFSAII (Michael W. Deem and Ramdas Pophale) SiO2 
 PCOD9289574
Probable space group: C 2/C
;
_chemical_formula_sum "Si O2"
_cell_formula_units_Z 48
_cell_length_a 24.559139
_cell_length_b 11.283305
_cell_length_c 10.861703
_cell_angle_alpha 90.000000
_cell_angle_beta 136.037484
_cell_angle_gamma 90.000000
_cell_volume 2089.412796
_symmetry_space_group_name_H-M "C 2/C"
_symmetry_group_IT_number 15
_symmetry_cell_setting 'monoclinic'
loop_
_space_group_symop_operation_xyz
x,y,z
-x,y,1/2-z
-x,-y,-z
x,-y,1/2+z
1/2+x,1/2+y,z
1/2-x,1/2+y,1/2-z
1/2-x,1/2-y,-z
1/2+x,1/2-y,1/2+z
loop_
_atom_site_type_symbol
_atom_site_label
_atom_site_fract_x
_atom_site_fract_y
_atom_site_fract_z
Si Si1 0.892665 0.066091 0.247612
Si Si2 0.486840 0.914665 0.596023
Si Si3 0.308832 0.101957 0.813753
Si Si4 0.284045 0.068713 0.500010
Si Si5 0.648637 0.278077 0.025547
Si Si6 0.550488 0.690221 0.599311
O O1 0.807808 0.101588 0.162983
O O2 0.965841 0.135516 0.424852
O O3 0.902644 0.925340 0.279127
O O4 0.887443 0.105620 0.097182
O O5 0.500000 0.975643 0.750000
O O6 0.541750 0.799258 0.677228
O O7 0.500000 0.000000 0.500000
O O8 0.398856 0.864056 0.448979
O O9 0.301738 0.025914 0.925140
O O10 0.293260 0.034328 0.657958
O O11 0.238449 0.195619 0.707969
O O12 0.342332 0.176549 0.562058
O O13 0.594316 0.254023 0.052560
#
# Coordination Sequence:
#
# PCOD9289574 Si02
#       6
#     8   8   8   8   8   8
#     4  10  22  40  66 100 143 181 228 284 351 425
#     4  12  27  47  69 100 138 186 235 290 346 412
#     4  11  23  43  66  96 133 179 234 280 339 414
#     4  11  22  43  68 102 135 186 233 287 345 415
#     4  11  22  41  68  98 137 185 230 280 355 414
#     4  11  23  42  66 104 138 178 233 291 351 408
#
# _framework density 22.972961000000002
#
# number of rings (size 3 to 8) (size 9 to 14) (size 15 to 20)
#    0.000    1.000    1.667    6.500    0.000    4.000 
#    6.000    1.667    0.000    0.000    0.000    0.000 
#    0.000    0.000    0.000    0.000    0.000    0.000 
#
# Total GULP energy -134114.481244 kJ/mol
# GULP energy per Si atom -5588.103385 kJ/mol
# Density = 2.292067 g / cm^3
# Si number density = 22.972961 Si / 1000 Ang^3
#
#
#
# Elastic Constant Matrix: (Units=GPa)
#
#
# Indices 1 2 3 4 5 6 
#
# 1 116.8586 19.7041 21.6981 0.0000 -16.1524 0.0000
# 2 19.7041 43.2206 5.3995 0.0000 -10.2221 0.0000
# 3 21.6981 5.3995 61.9321 0.0000 -4.5969 0.0000
# 4 0.0000 0.0000 0.0000 23.7626 0.0000 -0.4346
# 5 -16.1524 -10.2221 -4.5969 0.0000 30.3465 0.0000
# 6 0.0000 0.0000 0.0000 -0.4346 0.0000 37.0454
#
#
#
# Elastic Compliance Matrix: (Units=1/GPa)
#
#
# Indices 1 2 3 4 5 6 
#
# 1 0.010215 -0.003372 -0.002999 0.000000 0.003847 0.000000
# 2 -0.003372 0.026407 -0.000601 0.000000 0.007009 0.000000
# 3 -0.002999 -0.000601 0.017311 0.000000 0.000824 0.000000
# 4 0.000000 0.000000 0.000000 0.042092 0.000000 0.000494
# 5 0.003847 0.007009 0.000824 0.000000 0.037486 0.000000
# 6 0.000000 0.000000 0.000000 0.000494 0.000000 0.027000
#
#
# Mechanical properties :
#
#
# Convention : Reuss Voigt Hill
#
# Bulk Modulus (GPa) = 25.00704 35.06830 30.03767
# Shear Modulus (GPa) = 26.62634 29.91154 28.26894
#
# Velocity S-wave (km/s) = 3.40815 3.61228 3.51170
# Velocity P-wave (km/s) = 5.13774 5.71807 5.43565
#
# Compressibility (1/GPa) = 0.03998874
#
# Stress axis : x y z
#
# Youngs Moduli (GPa) = 97.89964 37.86833 57.76680
#
# Poissons Ratio (x) = 0.12770 0.17325
# Poissons Ratio (y) = 0.33015 0.03469
# Poissons Ratio (z) = 0.29362 0.02274
#
# Static dielectric constant tensor:
#      x y z
#    x 1.855720 0.000000 0.002020 
#    y 0.000000 1.879200 0.000000 
#    z 0.002020 0.000000 1.879960 
# 
# From -- ./inp_files/117719.got.cif
#   From: 2010.05.17/outbox.cif.g08.bks.cpg/sg15_59_cif.got.tgz:117719.got - 2010.06.03 18:47:42.
