data_PCOD9289817
_publ_section_title
;
Structure prediction by ZEFSAII (Michael W. Deem and Ramdas Pophale) SiO2 
 PCOD9289817
Probable space group: C 2/C
;
_chemical_formula_sum "Si O2"
_cell_formula_units_Z 60
_cell_length_a 23.371858
_cell_length_b 15.272918
_cell_length_c 8.602907
_cell_angle_alpha 90.000000
_cell_angle_beta 60.138518
_cell_angle_gamma 90.000000
_cell_volume 2663.149924
_symmetry_space_group_name_H-M "C 2/C"
_symmetry_group_IT_number 15
_symmetry_cell_setting 'monoclinic'
loop_
_space_group_symop_operation_xyz
x,y,z
-x,y,1/2-z
-x,-y,-z
x,-y,1/2+z
1/2+x,1/2+y,z
1/2-x,1/2+y,1/2-z
1/2-x,1/2-y,-z
1/2+x,1/2-y,1/2+z
loop_
_atom_site_type_symbol
_atom_site_label
_atom_site_fract_x
_atom_site_fract_y
_atom_site_fract_z
Si Si1 0.479556 0.906897 0.096729
Si Si2 0.330615 0.284039 0.707635
Si Si3 0.322817 0.898430 0.312843
Si Si4 0.265989 0.939251 0.056421
Si Si5 0.141465 0.041454 0.209115
Si Si6 0.554569 0.435629 0.550415
Si Si7 0.511011 0.721679 0.552339
Si Si8 0.750000 0.250000 0.000000
O O1 0.500000 0.901550 0.250000
O O2 0.400970 0.903572 0.180062
O O3 0.508179 0.820484 0.972291
O O4 0.500000 0.000000 0.000000
O O5 0.312461 0.205584 0.850651
O O6 0.314817 0.382220 0.777859
O O7 0.410722 0.286844 0.586138
O O8 0.296413 0.264719 0.591201
O O9 0.280714 0.921846 0.216724
O O10 0.305730 0.974815 0.454831
O O11 0.188580 0.958189 0.130773
O O12 0.280600 0.850971 0.943582
O O13 0.080746 0.010510 0.399684
O O14 0.116439 0.079602 0.080327
O O15 0.500000 0.464984 0.750000
O O16 0.529205 0.350223 0.493787
O O17 0.500000 0.707735 0.750000
#
# Coordination Sequence:
#
# PCOD9289817 Si02
#       8
#     8   8   8   8   8   8   8   4
#     4  11  23  43  72 106 143 187 244 296 358 432
#     4  10  23  43  67  95 139 176 237 292 350 429
#     4  10  23  43  68  94 138 182 230 290 351 408
#     4  11  23  45  66  99 135 184 235 291 348 424
#     4  12  26  44  71 104 143 186 245 292 360 445
#     4  12  26  44  69 104 146 190 230 298 368 438
#     4  11  26  44  69 103 146 189 236 296 371 432
#     4  10  22  40  68  94 132 178 228 296 348 412
#
# _framework density 22.529713000000001
#
# number of rings (size 3 to 8) (size 9 to 14) (size 15 to 20)
#    0.000    1.067    1.333    4.400    5.600    2.667 
#    0.000    1.333    0.000    0.000    0.000    0.000 
#    0.000    0.000    0.000    0.000    0.000    0.000 
#
# Total GULP energy -167069.904314 kJ/mol
# GULP energy per Si atom -5568.996810 kJ/mol
# Density = 2.247843 g / cm^3
# Si number density = 22.529713 Si / 1000 Ang^3
#
#
#
# Elastic Constant Matrix: (Units=GPa)
#
#
# Indices 1 2 3 4 5 6 
#
# 1 100.4050 28.3728 12.3785 0.0000 28.7861 0.0000
# 2 28.3728 158.4716 46.5775 0.0000 6.4583 0.0000
# 3 12.3785 46.5775 55.9876 0.0000 9.4841 0.0000
# 4 0.0000 0.0000 0.0000 34.4532 0.0000 0.3019
# 5 28.7861 6.4583 9.4841 0.0000 38.9133 0.0000
# 6 0.0000 0.0000 0.0000 0.3019 0.0000 49.7407
#
#
#
# Elastic Compliance Matrix: (Units=1/GPa)
#
#
# Indices 1 2 3 4 5 6 
#
# 1 0.013240 -0.002113 0.000449 0.000000 -0.009553 0.000000
# 2 -0.002113 0.008694 -0.007078 0.000000 0.001845 0.000000
# 3 0.000449 -0.007078 0.024520 0.000000 -0.005133 0.000000
# 4 0.000000 0.000000 0.000000 0.029026 0.000000 -0.000176
# 5 -0.009553 0.001845 -0.005133 0.000000 0.033710 0.000000
# 6 0.000000 0.000000 0.000000 -0.000176 0.000000 0.020105
#
#
# Mechanical properties :
#
#
# Convention : Reuss Voigt Hill
#
# Bulk Modulus (GPa) = 34.51904 54.39130 44.45517
# Shear Modulus (GPa) = 31.96183 39.79046 35.87614
#
# Velocity S-wave (km/s) = 3.77059 4.20710 3.99481
# Velocity P-wave (km/s) = 5.85758 6.91332 6.40723
#
# Compressibility (1/GPa) = 0.02896952
#
# Stress axis : x y z
#
# Youngs Moduli (GPa) = 75.52650 115.02524 40.78344
#
# Poissons Ratio (x) = 0.24307 -0.01831
# Poissons Ratio (y) = 0.15960 0.28866
# Poissons Ratio (z) = -0.03391 0.81414
#
# Static dielectric constant tensor:
#      x y z
#    x 1.874680 0.000000 -0.024960 
#    y 0.000000 1.833760 0.000000 
#    z -0.024960 0.000000 1.863960 
# 
# From -- ./inp_files/61875.got.cif
#   From: 2010.05.17/outbox.cif.g08.bks.cpg/sg15_31_cif.got.tgz:61875.got - 2010.06.03 18:47:42.
