data_PCOD9289298
_publ_section_title
;
Structure prediction by ZEFSAII (Michael W. Deem and Ramdas Pophale) SiO2 
 PCOD9289298
Probable space group: C 2/C
;
_chemical_formula_sum "Si O2"
_cell_formula_units_Z 40
_cell_length_a 7.615318
_cell_length_b 26.043529
_cell_length_c 9.624189
_cell_angle_alpha 90.000000
_cell_angle_beta 101.044232
_cell_angle_gamma 90.000000
_cell_volume 1873.411969
_symmetry_space_group_name_H-M "C 2/C"
_symmetry_group_IT_number 15
_symmetry_cell_setting 'monoclinic'
loop_
_space_group_symop_operation_xyz
x,y,z
-x,y,1/2-z
-x,-y,-z
x,-y,1/2+z
1/2+x,1/2+y,z
1/2-x,1/2+y,1/2-z
1/2-x,1/2-y,-z
1/2+x,1/2-y,1/2+z
loop_
_atom_site_type_symbol
_atom_site_label
_atom_site_fract_x
_atom_site_fract_y
_atom_site_fract_z
Si Si1 0.283437 0.395578 0.871864
Si Si2 0.133726 0.491849 0.396596
Si Si3 0.711865 0.606757 0.443247
Si Si4 0.218137 0.796213 0.106795
Si Si5 0.789199 0.196266 0.576969
O O1 0.239363 0.454821 0.896870
O O2 0.213967 0.389707 0.702793
O O3 0.497604 0.388892 0.898872
O O4 0.222366 0.353190 0.976884
O O5 0.253533 0.444579 0.463963
O O6 0.000000 0.480388 0.250000
O O7 0.000000 0.500000 0.500000
O O8 0.789702 0.653706 0.541005
O O9 0.283909 0.796490 0.276680
O O10 0.005746 0.805134 0.100286
O O11 0.250000 0.750000 0.000000
O O12 0.750000 0.250000 0.500000
#
# Coordination Sequence:
#
# PCOD9289298 Si02
#       5
#     8   8   8   8   8
#     4  10  22  42  65  89 123 169 210 253 309 375
#     4  12  25  42  61  94 130 162 207 261 316 367
#     4  10  22  42  65  88 125 167 211 253 307 378
#     4  10  22  40  63  93 123 161 209 254 307 371
#     4  10  22  40  63  92 124 162 206 255 308 369
#
# _framework density 21.351414999999999
#
# number of rings (size 3 to 8) (size 9 to 14) (size 15 to 20)
#    0.000    1.600    2.000    1.800    2.800    4.000 
#    3.600    0.000    0.000    0.000    0.000    0.000 
#    0.000    0.000    0.000    0.000    0.000    0.000 
#
# Total GULP energy -111491.063449 kJ/mol
# GULP energy per Si atom -5574.553172 kJ/mol
# Density = 2.130282 g / cm^3
# Si number density = 21.351415 Si / 1000 Ang^3
#
#
#
# Elastic Constant Matrix: (Units=GPa)
#
#
# Indices 1 2 3 4 5 6 
#
# 1 27.8957 0.8959 22.3049 0.0000 -11.9432 0.0000
# 2 0.8959 187.6012 117.1889 0.0000 -10.4365 0.0000
# 3 22.3049 117.1889 232.7800 0.0000 -20.6722 0.0000
# 4 0.0000 0.0000 0.0000 11.2541 0.0000 11.3247
# 5 -11.9432 -10.4365 -20.6722 0.0000 32.8521 0.0000
# 6 0.0000 0.0000 0.0000 11.3247 0.0000 23.5695
#
#
#
# Elastic Compliance Matrix: (Units=1/GPa)
#
#
# Indices 1 2 3 4 5 6 
#
# 1 0.046026 0.003701 -0.004960 0.000000 0.014787 0.000000
# 2 0.003701 0.008073 -0.004313 0.000000 0.001197 0.000000
# 3 -0.004960 -0.004313 0.007055 0.000000 0.001266 0.000000
# 4 0.000000 0.000000 0.000000 0.172034 0.000000 -0.082659
# 5 0.014787 0.001197 0.001266 0.000000 0.036992 0.000000
# 6 0.000000 0.000000 0.000000 -0.082659 0.000000 0.082144
#
#
# Mechanical properties :
#
#
# Convention : Reuss Voigt Hill
#
# Bulk Modulus (GPa) = 19.99573 81.00627 50.50100
# Shear Modulus (GPa) = 13.15314 34.06097 23.60705
#
# Velocity S-wave (km/s) = 2.48469 3.99840 3.32873
# Velocity P-wave (km/s) = 4.19726 7.70313 6.20303
#
# Compressibility (1/GPa) = 0.05001068
#
# Stress axis : x y z
#
# Youngs Moduli (GPa) = 21.72682 123.86276 141.74651
#
# Poissons Ratio (x) = -0.45847 0.70313
# Poissons Ratio (y) = -0.08042 0.61133
# Poissons Ratio (z) = 0.10778 0.53420
#
# Static dielectric constant tensor:
#      x y z
#    x 1.499670 0.000000 -0.169660 
#    y 0.000000 1.847590 0.000000 
#    z -0.169660 0.000000 1.676240 
# 
# From -- ./inp_files/23438.got.cif
#   From: 2010.05.17/outbox.cif.g08.bks.cpg/sg15_12_cif.got.tgz:23438.got - 2010.06.03 18:47:42.
