data_PCOD9289395
_publ_section_title
;
Structure prediction by ZEFSAII (Michael W. Deem and Ramdas Pophale) SiO2 
 PCOD9289395
Probable space group: C 2/C
;
_chemical_formula_sum "Si O2"
_cell_formula_units_Z 48
_cell_length_a 24.714623
_cell_length_b 14.830285
_cell_length_c 8.333184
_cell_angle_alpha 90.000000
_cell_angle_beta 138.026380
_cell_angle_gamma 90.000000
_cell_volume 2042.693355
_symmetry_space_group_name_H-M "C 2/C"
_symmetry_group_IT_number 15
_symmetry_cell_setting 'monoclinic'
loop_
_space_group_symop_operation_xyz
x,y,z
-x,y,1/2-z
-x,-y,-z
x,-y,1/2+z
1/2+x,1/2+y,z
1/2-x,1/2+y,1/2-z
1/2-x,1/2-y,-z
1/2+x,1/2-y,1/2+z
loop_
_atom_site_type_symbol
_atom_site_label
_atom_site_fract_x
_atom_site_fract_y
_atom_site_fract_z
Si Si1 0.824283 0.801058 0.954991
Si Si2 0.914504 0.044966 0.480083
Si Si3 0.129243 0.877839 0.947997
Si Si4 0.364207 0.205762 0.370255
Si Si5 0.678606 0.882387 0.190135
Si Si6 0.907028 0.528135 0.306820
O O1 0.852921 0.894867 0.947904
O O2 0.730360 0.807137 0.795504
O O3 0.838606 0.724403 0.850460
O O4 0.866917 0.760683 0.207579
O O5 0.914907 0.079532 0.300674
O O6 0.889293 0.941324 0.441392
O O7 0.000000 0.058806 0.750000
O O8 0.103874 0.775657 0.927712
O O9 0.225181 0.886310 0.125394
O O10 0.401090 0.107684 0.426758
O O11 0.647596 0.941677 0.268838
O O12 0.630879 0.926391 0.934914
O O13 0.000000 0.500000 0.500000
#
# Coordination Sequence:
#
# PCOD9289395 Si02
#       6
#     8   8   8   8   8   8
#     4   9  20  40  64  90 123 164 212 265 309 370
#     4  12  25  41  63  94 128 160 206 266 330 378
#     4  11  23  42  68  90 121 168 215 264 310 378
#     4   9  20  40  65  91 123 167 214 256 308 372
#     4  10  22  40  64  92 124 169 218 257 308 374
#     4  11  22  38  61  96 136 167 204 259 319 375
#
# _framework density 23.498387000000001
#
# number of rings (size 3 to 8) (size 9 to 14) (size 15 to 20)
#    0.000    1.667    0.000    5.000    0.000    6.667 
#    0.000    5.000    0.000    0.000    0.000    0.000 
#    0.000    0.000    0.000    0.000    0.000    0.000 
#
# Total GULP energy -134383.346490 kJ/mol
# GULP energy per Si atom -5599.306104 kJ/mol
# Density = 2.344490 g / cm^3
# Si number density = 23.498387 Si / 1000 Ang^3
#
#
#
# Elastic Constant Matrix: (Units=GPa)
#
#
# Indices 1 2 3 4 5 6 
#
# 1 56.8955 43.2968 4.9645 0.0000 0.1817 0.0000
# 2 43.2968 122.4480 11.0929 0.0000 12.9901 0.0000
# 3 4.9645 11.0929 66.6918 0.0000 13.4525 0.0000
# 4 0.0000 0.0000 0.0000 19.1399 0.0000 -39.2228
# 5 0.1817 12.9901 13.4525 0.0000 17.6859 0.0000
# 6 0.0000 0.0000 0.0000 -39.2228 0.0000 -153.0326
#
#
#
# Elastic Compliance Matrix: (Units=1/GPa)
#
#
# Indices 1 2 3 4 5 6 
#
# 1 0.024965 -0.009523 -0.001930 0.000000 0.008206 0.000000
# 2 -0.009523 0.012492 0.000546 0.000000 -0.009492 0.000000
# 3 -0.001930 0.000546 0.017865 0.000000 -0.013970 0.000000
# 4 0.000000 0.000000 0.000000 0.034255 0.000000 -0.008780
# 5 0.008206 -0.009492 -0.013970 0.000000 0.074056 0.000000
# 6 0.000000 0.000000 0.000000 -0.008780 0.000000 -0.004284
#
#
# Mechanical properties :
#
#
# Convention : Reuss Voigt Hill
#
# Bulk Modulus (GPa) = 29.84369 40.52709 35.18539
# Shear Modulus (GPa) = 25.99670 -10.79593 7.60038
#
# Velocity S-wave (km/s) = 3.32974 -2.14576 1.80040
# Velocity P-wave (km/s) = 5.24508 3.33843 4.39636
#
# Compressibility (1/GPa) = 0.03350792
#
# Stress axis : x y z
#
# Youngs Moduli (GPa) = 40.05545 80.05331 55.97515
#
# Poissons Ratio (x) = 0.76237 0.10801
# Poissons Ratio (y) = 0.38146 -0.03056
# Poissons Ratio (z) = 0.07729 -0.04370
#
# Static dielectric constant tensor:
#      x y z
#    x 1.894000 0.000000 -0.059890 
#    y 0.000000 1.892410 0.000000 
#    z -0.059890 0.000000 1.893570 
# 
# From -- ./inp_files/66479.got.cif
#   From: 2010.05.17/outbox.cif.g08.bks.cpg/sg15_34_cif.got.tgz:66479.got - 2010.06.03 18:47:42.
