data_PCOD9289011
_publ_section_title
;
Structure prediction by ZEFSAII (Michael W. Deem and Ramdas Pophale) SiO2 
 PCOD9289011
Probable space group: C 2/C
;
_chemical_formula_sum "Si O2"
_cell_formula_units_Z 40
_cell_length_a 25.645050
_cell_length_b 7.268108
_cell_length_c 14.057411
_cell_angle_alpha 90.000000
_cell_angle_beta 136.842693
_cell_angle_gamma 90.000000
_cell_volume 1792.209352
_symmetry_space_group_name_H-M "C 2/C"
_symmetry_group_IT_number 15
_symmetry_cell_setting 'monoclinic'
loop_
_space_group_symop_operation_xyz
x,y,z
-x,y,1/2-z
-x,-y,-z
x,-y,1/2+z
1/2+x,1/2+y,z
1/2-x,1/2+y,1/2-z
1/2-x,1/2-y,-z
1/2+x,1/2-y,1/2+z
loop_
_atom_site_type_symbol
_atom_site_label
_atom_site_fract_x
_atom_site_fract_y
_atom_site_fract_z
Si Si1 0.760342 0.310226 0.404200
Si Si2 0.676406 0.607501 0.172317
Si Si3 0.455183 0.625647 0.099867
Si Si4 0.936464 0.360828 0.373544
Si Si5 0.916145 0.488608 0.644792
O O1 0.750000 0.250000 0.500000
O O2 0.709072 0.481673 0.301527
O O3 0.757304 0.160396 0.315008
O O4 0.848357 0.369286 0.517664
O O5 0.632104 0.784464 0.154914
O O6 0.612584 0.492142 0.031395
O O7 0.500000 0.543056 0.250000
O O8 0.516405 0.683674 0.101737
O O9 0.422991 0.820660 0.096142
O O10 0.902458 0.460247 0.235916
O O11 0.000000 0.500000 0.500000
O O12 0.000000 0.401536 0.750000
#
# Coordination Sequence:
#
# PCOD9289011 Si02
#       5
#     8   8   8   8   8
#     4  12  30  44  70 105 145 196 237 300 373 437
#     4  12  26  45  68 100 151 187 246 297 364 446
#     4   9  21  41  70 102 134 181 240 298 365 421
#     4  10  22  39  74 101 132 182 236 303 360 430
#     4   9  21  45  69  96 136 182 241 296 358 429
#
# _framework density 22.318821
#
# number of rings (size 3 to 8) (size 9 to 14) (size 15 to 20)
#    0.000    2.000    0.000    4.200   11.200    3.200 
#    0.000    0.000    0.000    0.000    0.000    0.000 
#    0.000    0.000    0.000    0.000    0.000    0.000 
#
# Total GULP energy -111739.604897 kJ/mol
# GULP energy per Si atom -5586.980245 kJ/mol
# Density = 2.226802 g / cm^3
# Si number density = 22.318821 Si / 1000 Ang^3
#
#
#
# Elastic Constant Matrix: (Units=GPa)
#
#
# Indices 1 2 3 4 5 6 
#
# 1 146.0557 44.9682 42.8219 0.0000 -29.7433 0.0000
# 2 44.9682 66.5251 42.3211 0.0000 -6.3246 0.0000
# 3 42.8219 42.3211 103.3620 0.0000 0.0224 0.0000
# 4 0.0000 0.0000 0.0000 46.5479 0.0000 12.8636
# 5 -29.7433 -6.3246 0.0224 0.0000 31.7360 0.0000
# 6 0.0000 0.0000 0.0000 12.8636 0.0000 21.9945
#
#
#
# Elastic Compliance Matrix: (Units=1/GPa)
#
#
# Indices 1 2 3 4 5 6 
#
# 1 0.011016 -0.004940 -0.002543 0.000000 0.009341 0.000000
# 2 -0.004940 0.023078 -0.007403 0.000000 -0.000026 0.000000
# 3 -0.002543 -0.007403 0.013760 0.000000 -0.003868 0.000000
# 4 0.000000 0.000000 0.000000 0.025625 0.000000 -0.014987
# 5 0.009341 -0.000026 -0.003868 0.000000 0.040262 0.000000
# 6 0.000000 0.000000 0.000000 -0.014987 0.000000 0.054231
#
#
# Mechanical properties :
#
#
# Convention : Reuss Voigt Hill
#
# Bulk Modulus (GPa) = 55.30266 64.01834 59.66050
# Shear Modulus (GPa) = 24.53738 32.44445 28.49092
#
# Velocity S-wave (km/s) = 3.31932 3.81685 3.57675
# Velocity P-wave (km/s) = 6.28672 6.94048 6.62167
#
# Compressibility (1/GPa) = 0.01808231
#
# Stress axis : x y z
#
# Youngs Moduli (GPa) = 90.78082 43.33102 72.67441
#
# Poissons Ratio (x) = 0.21407 0.18480
# Poissons Ratio (y) = 0.44848 0.53797
# Poissons Ratio (z) = 0.23085 0.32076
#
# Static dielectric constant tensor:
#      x y z
#    x 1.904080 0.000000 -0.048390 
#    y 0.000000 1.885010 0.000000 
#    z -0.048390 0.000000 1.812380 
# 
# From -- ./inp_files/172136.got.cif
#   From: 2010.05.17/outbox.cif.g08.bks.cpg/sg15_87_cif.got.tgz:172136.got - 2010.06.03 18:47:42.
