data_PCOD9289284
_publ_section_title
;
Structure prediction by ZEFSAII (Michael W. Deem and Ramdas Pophale) SiO2 
 PCOD9289284
Probable space group: C 2/C
;
_chemical_formula_sum "Si O2"
_cell_formula_units_Z 56
_cell_length_a 21.828486
_cell_length_b 13.297463
_cell_length_c 16.175582
_cell_angle_alpha 90.000000
_cell_angle_beta 148.161106
_cell_angle_gamma 90.000000
_cell_volume 2476.860961
_symmetry_space_group_name_H-M "C 2/C"
_symmetry_group_IT_number 15
_symmetry_cell_setting 'monoclinic'
loop_
_space_group_symop_operation_xyz
x,y,z
-x,y,1/2-z
-x,-y,-z
x,-y,1/2+z
1/2+x,1/2+y,z
1/2-x,1/2+y,1/2-z
1/2-x,1/2-y,-z
1/2+x,1/2-y,1/2+z
loop_
_atom_site_type_symbol
_atom_site_label
_atom_site_fract_x
_atom_site_fract_y
_atom_site_fract_z
Si Si1 0.781897 0.453049 0.607020
Si Si2 0.459595 0.499979 0.608238
Si Si3 0.194927 0.107045 0.827242
Si Si4 0.955692 0.807065 0.871813
Si Si5 0.649959 0.833517 0.375184
Si Si6 0.706970 0.088786 0.112482
Si Si7 0.393749 0.192135 0.341811
O O1 0.664675 0.446520 0.527969
O O2 0.749364 0.406582 0.480819
O O3 0.807439 0.571239 0.629036
O O4 0.890077 0.393116 0.768334
O O5 0.500000 0.478177 0.750000
O O6 0.562212 0.566361 0.686110
O O7 0.455885 0.395406 0.553714
O O8 0.189065 0.218944 0.786546
O O9 0.266730 0.029613 0.853070
O O10 0.944391 0.729596 0.783144
O O11 0.832872 0.861050 0.742523
O O12 0.991762 0.748001 0.995149
O O13 0.750000 0.750000 0.500000
O O14 0.634368 0.884674 0.446753
O O15 0.652379 0.137584 0.129509
#
# Coordination Sequence:
#
# PCOD9289284 Si02
#       7
#     8   8   8   8   8   8   8
#     4  10  22  40  63  89 123 167 204 249 313 374
#     4   9  19  37  66  90 112 160 216 261 294 360
#     4   9  21  43  60  86 125 159 214 257 300 370
#     4  10  23  35  60  94 123 157 204 252 311 366
#     4   9  19  40  61  85 124 156 199 251 302 367
#     4   9  22  39  58  91 121 160 202 259 302 364
#     4  12  25  34  64  93 124 168 195 257 321 356
#
# _framework density 22.609261
#
# number of rings (size 3 to 8) (size 9 to 14) (size 15 to 20)
#    0.000    2.286    0.000    3.000   10.000    1.714 
#    0.000    0.000    0.000    1.714    0.000    0.000 
#    0.000    0.000    0.000    0.000    0.000    0.000 
#
# Total GULP energy -156419.235566 kJ/mol
# GULP energy per Si atom -5586.401270 kJ/mol
# Density = 2.255780 g / cm^3
# Si number density = 22.609261 Si / 1000 Ang^3
#
#
#
# Elastic Constant Matrix: (Units=GPa)
#
#
# Indices 1 2 3 4 5 6 
#
# 1 26.4080 3.7638 -7.8295 0.0000 -7.7318 0.0000
# 2 3.7638 100.7043 27.2794 0.0000 -25.7524 0.0000
# 3 -7.8295 27.2794 74.6927 0.0000 -17.1797 0.0000
# 4 0.0000 0.0000 0.0000 19.5244 0.0000 -6.0320
# 5 -7.7318 -25.7524 -17.1797 0.0000 16.3791 0.0000
# 6 0.0000 0.0000 0.0000 -6.0320 0.0000 17.4397
#
#
#
# Elastic Compliance Matrix: (Units=1/GPa)
#
#
# Indices 1 2 3 4 5 6 
#
# 1 0.058389 0.008065 0.016384 0.000000 0.057428 0.000000
# 2 0.008065 0.017722 0.002184 0.000000 0.033962 0.000000
# 3 0.016384 0.002184 0.022242 0.000000 0.034498 0.000000
# 4 0.000000 0.000000 0.000000 0.057346 0.000000 0.019835
# 5 0.057428 0.033962 0.034498 0.000000 0.177744 0.000000
# 6 0.000000 0.000000 0.000000 0.019835 0.000000 0.064201
#
#
# Mechanical properties :
#
#
# Convention : Reuss Voigt Hill
#
# Bulk Modulus (GPa) = 6.59546 27.58139 17.08842
# Shear Modulus (GPa) = 12.66088 22.57471 17.61779
#
# Velocity S-wave (km/s) = 2.36897 3.16329 2.79450
# Velocity P-wave (km/s) = 3.22586 5.05643 4.24109
#
# Compressibility (1/GPa) = 0.15161956
#
# Stress axis : x y z
#
# Youngs Moduli (GPa) = 17.12652 56.42809 44.95903
#
# Poissons Ratio (x) = -0.45511 -0.73659
# Poissons Ratio (y) = -0.13813 -0.09821
# Poissons Ratio (z) = -0.28059 -0.12326
#
# Static dielectric constant tensor:
#      x y z
#    x 1.841570 0.000000 -0.006830 
#    y 0.000000 1.831740 0.000000 
#    z -0.006830 0.000000 1.889970 
# 
# From -- ./inp_files/168493.got.cif
#   From: 2010.05.17/outbox.cif.g08.bks.cpg/sg15_85_cif.got.tgz:168493.got - 2010.06.03 18:47:42.
