data_PCOD9289089
_publ_section_title
;
Structure prediction by ZEFSAII (Michael W. Deem and Ramdas Pophale) SiO2 
 PCOD9289089
Probable space group: C 2/C
;
_chemical_formula_sum "Si O2"
_cell_formula_units_Z 36
_cell_length_a 12.813492
_cell_length_b 5.035413
_cell_length_c 26.776747
_cell_angle_alpha 90.000000
_cell_angle_beta 111.708195
_cell_angle_gamma 90.000000
_cell_volume 1605.141689
_symmetry_space_group_name_H-M "C 2/C"
_symmetry_group_IT_number 15
_symmetry_cell_setting 'monoclinic'
loop_
_space_group_symop_operation_xyz
x,y,z
-x,y,1/2-z
-x,-y,-z
x,-y,1/2+z
1/2+x,1/2+y,z
1/2-x,1/2+y,1/2-z
1/2-x,1/2-y,-z
1/2+x,1/2-y,1/2+z
loop_
_atom_site_type_symbol
_atom_site_label
_atom_site_fract_x
_atom_site_fract_y
_atom_site_fract_z
Si Si1 0.000000 0.473247 0.250000
Si Si2 0.312645 0.752237 0.779739
Si Si3 0.929227 0.250735 0.504761
Si Si4 0.682532 0.325512 0.848838
Si Si5 0.314214 0.821877 0.586581
O O1 0.927081 0.653039 0.274883
O O2 0.916594 0.289539 0.203175
O O3 0.279905 0.450645 0.761613
O O4 0.295290 0.798743 0.835480
O O5 0.808131 0.246591 0.456743
O O6 0.903625 0.264632 0.559153
O O7 0.000000 0.500000 0.500000
O O8 0.000000 0.000000 0.500000
O O9 0.665883 0.625694 0.863348
O O10 0.686321 0.126957 0.896355
#
# Coordination Sequence:
#
# PCOD9289089 Si02
#       5
#     4   8   8   8   8
#     4  10  24  42  64  90 132 176 212 254 312 368
#     4  10  22  40  60  87 124 167 215 261 302 358
#     4  11  24  45  70  95 126 165 206 262 329 384
#     4  11  23  41  65  94 130 171 212 260 310 370
#     4  11  25  43  65  98 130 159 213 268 311 378
#
# _framework density 22.427927
#
# number of rings (size 3 to 8) (size 9 to 14) (size 15 to 20)
#    0.000    1.333    0.000    5.333    0.000   16.889 
#    0.000    6.667    0.000    0.000    0.000    0.000 
#    0.000    0.000    0.000    0.000    0.000    0.000 
#
# Total GULP energy -100807.845673 kJ/mol
# GULP energy per Si atom -5600.435871 kJ/mol
# Density = 2.237688 g / cm^3
# Si number density = 22.427927 Si / 1000 Ang^3
#
#
#
# Elastic Constant Matrix: (Units=GPa)
#
#
# Indices 1 2 3 4 5 6 
#
# 1 164.9072 32.6334 34.5901 0.0000 -32.2231 0.0000
# 2 32.6334 97.1052 -2.0066 0.0000 -9.2759 0.0000
# 3 34.5901 -2.0066 50.0960 0.0000 -14.4751 0.0000
# 4 0.0000 0.0000 0.0000 39.2925 0.0000 -10.1764
# 5 -32.2231 -9.2759 -14.4751 0.0000 41.0244 0.0000
# 6 0.0000 0.0000 0.0000 -10.1764 0.0000 36.3038
#
#
#
# Elastic Compliance Matrix: (Units=1/GPa)
#
#
# Indices 1 2 3 4 5 6 
#
# 1 0.008385 -0.002494 -0.004620 0.000000 0.004392 0.000000
# 2 -0.002494 0.011336 0.002617 0.000000 0.001528 0.000000
# 3 -0.004620 0.002617 0.024920 0.000000 0.005755 0.000000
# 4 0.000000 0.000000 0.000000 0.027442 0.000000 0.007692
# 5 0.004392 0.001528 0.005755 0.000000 0.030202 0.000000
# 6 0.000000 0.000000 0.000000 0.007692 0.000000 0.029702
#
#
# Mechanical properties :
#
#
# Convention : Reuss Voigt Hill
#
# Bulk Modulus (GPa) = 28.05251 49.17136 38.61193
# Shear Modulus (GPa) = 32.70917 39.78357 36.24637
#
# Velocity S-wave (km/s) = 3.82306 4.21627 4.02447
# Velocity P-wave (km/s) = 5.65886 6.75828 6.23286
#
# Compressibility (1/GPa) = 0.03564744
#
# Stress axis : x y z
#
# Youngs Moduli (GPa) = 119.26289 88.21282 40.12872
#
# Poissons Ratio (x) = 0.21998 0.18541
# Poissons Ratio (y) = 0.29742 -0.10504
# Poissons Ratio (z) = 0.55104 -0.23090
#
# Static dielectric constant tensor:
#      x y z
#    x 1.822470 0.000000 -0.007390 
#    y 0.000000 1.750540 0.000000 
#    z -0.007390 0.000000 1.851630 
# 
# From -- ./inp_files/267071.got.cif
#   From: 2010.05.17/outbox.cif.g08.bks.cpg/sg15_134_cif.got.tgz:267071.got - 2010.06.03 18:47:42.
