data_PCOD9289295
_publ_section_title
;
Structure prediction by ZEFSAII (Michael W. Deem and Ramdas Pophale) SiO2 
 PCOD9289295
Probable space group: C 2/C
;
_chemical_formula_sum "Si O2"
_cell_formula_units_Z 56
_cell_length_a 9.195825
_cell_length_b 16.744934
_cell_length_c 27.623311
_cell_angle_alpha 90.000000
_cell_angle_beta 37.949725
_cell_angle_gamma 90.000000
_cell_volume 2615.794672
_symmetry_space_group_name_H-M "C 2/C"
_symmetry_group_IT_number 15
_symmetry_cell_setting 'monoclinic'
loop_
_space_group_symop_operation_xyz
x,y,z
-x,y,1/2-z
-x,-y,-z
x,-y,1/2+z
1/2+x,1/2+y,z
1/2-x,1/2+y,1/2-z
1/2-x,1/2-y,-z
1/2+x,1/2-y,1/2+z
loop_
_atom_site_type_symbol
_atom_site_label
_atom_site_fract_x
_atom_site_fract_y
_atom_site_fract_z
Si Si1 0.265578 0.187264 0.040044
Si Si2 0.500000 0.032422 0.750000
Si Si3 0.186392 0.428012 0.450377
Si Si4 0.747201 0.632239 0.465587
Si Si5 0.369544 0.749931 0.607825
Si Si6 0.163674 0.860841 0.290048
Si Si7 0.000000 0.256754 0.750000
Si Si8 0.325244 0.601916 0.123547
O O1 0.192176 0.222243 0.112235
O O2 0.087472 0.116947 0.073064
O O3 0.250000 0.250000 0.000000
O O4 0.525748 0.149457 0.978733
O O5 0.604966 0.084070 0.766801
O O6 0.293204 0.974250 0.821458
O O7 0.270788 0.423613 0.483591
O O8 0.425840 0.415861 0.356513
O O9 0.000000 0.500000 0.500000
O O10 0.561203 0.702332 0.525164
O O11 0.692895 0.594047 0.429061
O O12 0.004924 0.673336 0.401042
O O13 0.311213 0.692137 0.667403
O O14 0.128549 0.801057 0.254751
O O15 0.181038 0.317092 0.675717
#
# Coordination Sequence:
#
# PCOD9289295 Si02
#       8
#     8   4   8   8   8   8   4   8
#     4  11  20  35  67  99 121 149 210 272 320 368
#     4  11  28  42  58  83 144 172 200 257 312 390
#     4  10  22  40  63  91 127 162 201 266 330 380
#     4   9  17  36  63  89 124 152 200 270 321 352
#     4   9  18  35  62  94 116 150 203 276 307 355
#     4  11  23  44  60  91 123 171 219 252 309 379
#     4  11  24  40  70  83 126 178 224 255 288 396
#     4  11  22  42  60  97 126 166 209 261 324 378
#
# _framework density 21.408408000000001
#
# number of rings (size 3 to 8) (size 9 to 14) (size 15 to 20)
#    0.000    1.714    2.857    2.571    2.000    1.143 
#    2.571    2.143    0.000    0.000    0.000    0.000 
#    0.000    0.000    0.000    0.000    0.000    0.000 
#
# Total GULP energy -156279.766002 kJ/mol
# GULP energy per Si atom -5581.420214 kJ/mol
# Density = 2.135968 g / cm^3
# Si number density = 21.408408 Si / 1000 Ang^3
#
#
#
# Elastic Constant Matrix: (Units=GPa)
#
#
# Indices 1 2 3 4 5 6 
#
# 1 134.8860 30.8462 18.6492 -0.0030 6.0801 0.0014
# 2 30.8462 74.9146 5.9497 -0.0038 -4.1084 -0.0007
# 3 18.6492 5.9497 29.7874 -0.0039 -8.7093 -0.0034
# 4 -0.0030 -0.0038 -0.0039 15.4405 -0.0007 -11.1152
# 5 6.0801 -4.1084 -8.7093 -0.0007 31.1195 -0.0013
# 6 0.0014 -0.0007 -0.0034 -11.1152 -0.0013 31.4471
#
#
#
# Elastic Compliance Matrix: (Units=1/GPa)
#
#
# Indices 1 2 3 4 5 6 
#
# 1 0.009274 -0.003541 -0.006279 -0.000002 -0.004037 -0.000002
# 2 -0.003541 0.014952 0.000011 0.000005 0.002669 0.000002
# 3 -0.006279 0.000011 0.041233 0.000018 0.012768 0.000012
# 4 -0.000002 0.000005 0.000018 0.086868 0.000010 0.030704
# 5 -0.004037 0.002669 0.012768 0.000010 0.036849 0.000006
# 6 -0.000002 0.000002 0.000012 0.030704 0.000006 0.042652
#
#
# Mechanical properties :
#
#
# Convention : Reuss Voigt Hill
#
# Bulk Modulus (GPa) = 21.81472 38.94204 30.37838
# Shear Modulus (GPa) = 18.74583 27.87761 23.31172
#
# Velocity S-wave (km/s) = 2.96231 3.61249 3.30344
# Velocity P-wave (km/s) = 4.68106 5.96906 5.36386
#
# Compressibility (1/GPa) = 0.04584061
#
# Stress axis : x y z
#
# Youngs Moduli (GPa) = 107.83383 66.88028 24.25222
#
# Poissons Ratio (x) = 0.23683 0.15228
# Poissons Ratio (y) = 0.38185 -0.00026
# Poissons Ratio (z) = 0.67708 -0.00072
#
# Static dielectric constant tensor:
#      x y z
#    x 1.773500 0.000000 -0.038020 
#    y 0.000000 1.825540 0.000000 
#    z -0.038020 0.000000 1.806760 
# 
# From -- ./inp_files/308620.got.cif
#   From: 2010.05.17/outbox.cif.g08.bks.cpg/sg15_155_cif.got.tgz:308620.got - 2010.06.03 18:47:42.
