data_PCOD9289193
_publ_section_title
;
Structure prediction by ZEFSAII (Michael W. Deem and Ramdas Pophale) SiO2 
 PCOD9289193
Probable space group: C 2/C
;
_chemical_formula_sum "Si O2"
_cell_formula_units_Z 64
_cell_length_a 31.946356
_cell_length_b 8.482860
_cell_length_c 23.548740
_cell_angle_alpha 90.000000
_cell_angle_beta 32.062717
_cell_angle_gamma 90.000000
_cell_volume 3387.668151
_symmetry_space_group_name_H-M "C 2/C"
_symmetry_group_IT_number 15
_symmetry_cell_setting 'monoclinic'
loop_
_space_group_symop_operation_xyz
x,y,z
-x,y,1/2-z
-x,-y,-z
x,-y,1/2+z
1/2+x,1/2+y,z
1/2-x,1/2+y,1/2-z
1/2-x,1/2-y,-z
1/2+x,1/2-y,1/2+z
loop_
_atom_site_type_symbol
_atom_site_label
_atom_site_fract_x
_atom_site_fract_y
_atom_site_fract_z
Si Si1 0.842808 0.336547 0.229617
Si Si2 0.224529 0.818731 0.194008
Si Si3 0.926189 0.465245 0.293420
Si Si4 0.823496 0.197281 0.376149
Si Si5 0.210726 0.984847 0.817549
Si Si6 0.070147 0.355042 0.830546
Si Si7 0.734037 0.110305 0.974363
Si Si8 0.553943 0.623755 0.471688
O O1 0.819585 0.267472 0.317344
O O2 0.761763 0.389990 0.293797
O O3 0.900345 0.488917 0.169769
O O4 0.891832 0.215811 0.135646
O O5 0.221806 0.968513 0.238647
O O6 0.254165 0.678908 0.200433
O O7 0.141401 0.766447 0.261980
O O8 0.277274 0.838711 0.077764
O O9 0.903235 0.282234 0.306231
O O10 0.938035 0.573837 0.223527
O O11 0.846363 0.528851 0.413638
O O12 0.000000 0.475643 0.250000
O O13 0.750000 0.250000 0.500000
O O14 0.808298 0.010702 0.390835
O O15 0.117132 0.975387 0.935887
O O16 0.994531 0.257415 0.938767
O O17 0.750000 0.250000 0.000000
O O18 0.500000 0.500000 0.500000
#
# Coordination Sequence:
#
# PCOD9289193 Si02
#       8
#     8   8   8   8   8   8   8   8
#     4  10  22  42  62  88 126 174 219 263 322 396
#     4  11  22  41  64  94 130 177 222 266 325 390
#     4  10  22  41  63  95 131 169 219 274 329 387
#     4   9  21  42  67  87 122 171 219 261 327 397
#     4  11  23  38  62  92 129 167 225 263 313 392
#     4  10  22  40  62  86 133 173 208 268 335 393
#     4  11  22  40  70  96 124 175 222 270 330 393
#     4  12  23  38  61  92 128 168 213 267 331 384
#
# _framework density 18.892050000000001
#
# number of rings (size 3 to 8) (size 9 to 14) (size 15 to 20)
#    0.000    1.500    3.750    1.125    3.500    0.000 
#    0.000    5.625    0.000    0.000    0.000    0.000 
#    0.000    0.000    0.000    0.000    0.000    0.000 
#
# Total GULP energy -178246.879270 kJ/mol
# GULP energy per Si atom -5570.214977 kJ/mol
# Density = 1.884905 g / cm^3
# Si number density = 18.892050 Si / 1000 Ang^3
#
#
#
# Elastic Constant Matrix: (Units=GPa)
#
#
# Indices 1 2 3 4 5 6 
#
# 1 139.4052 70.1360 60.6123 -0.0007 -13.8714 0.0007
# 2 70.1360 121.0380 60.8534 -0.0006 5.2798 0.0003
# 3 60.6123 60.8534 101.2980 -0.0026 -6.6589 0.0021
# 4 -0.0007 -0.0006 -0.0026 38.8566 0.0012 -0.1185
# 5 -13.8714 5.2798 -6.6589 0.0012 36.8184 -0.0002
# 6 0.0007 0.0003 0.0021 -0.1185 -0.0002 27.5313
#
#
#
# Elastic Compliance Matrix: (Units=1/GPa)
#
#
# Indices 1 2 3 4 5 6 
#
# 1 0.011841 -0.005227 -0.003646 0.000000 0.004551 0.000000
# 2 -0.005227 0.014485 -0.005911 0.000000 -0.005115 0.000000
# 3 -0.003646 -0.005911 0.015757 0.000001 0.002324 -0.000001
# 4 0.000000 0.000000 0.000001 0.025736 -0.000001 0.000111
# 5 0.004551 -0.005115 0.002324 -0.000001 0.030029 0.000000
# 6 0.000000 0.000000 -0.000001 0.000111 0.000000 0.036323
#
#
# Mechanical properties :
#
#
# Convention : Reuss Voigt Hill
#
# Bulk Modulus (GPa) = 79.89523 82.77163 81.33343
# Shear Modulus (GPa) = 29.77779 31.98391 30.88085
#
# Velocity S-wave (km/s) = 3.97445 4.11905 4.04740
# Velocity P-wave (km/s) = 7.96517 8.15660 8.06145
#
# Compressibility (1/GPa) = 0.01251639
#
# Stress axis : x y z
#
# Youngs Moduli (GPa) = 84.45122 69.03519 63.46370
#
# Poissons Ratio (x) = 0.36083 0.23140
# Poissons Ratio (y) = 0.44141 0.37511
# Poissons Ratio (z) = 0.30792 0.40804
#
# Static dielectric constant tensor:
#      x y z
#    x 1.672770 0.000000 0.008280 
#    y 0.000000 1.731790 0.000000 
#    z 0.008280 0.000000 1.665950 
# 
# From -- ./inp_files/284432.got.cif
#   From: 2010.05.17/outbox.cif.g08.bks.cpg/sg15_143_cif.got.tgz:284432.got - 2010.06.03 18:47:42.
