data_PCOD9289564
_publ_section_title
;
Structure prediction by ZEFSAII (Michael W. Deem and Ramdas Pophale) SiO2 
 PCOD9289564
Probable space group: C 2/C
;
_chemical_formula_sum "Si O2"
_cell_formula_units_Z 52
_cell_length_a 24.424028
_cell_length_b 12.205780
_cell_length_c 8.445453
_cell_angle_alpha 90.000000
_cell_angle_beta 118.652910
_cell_angle_gamma 90.000000
_cell_volume 2209.392985
_symmetry_space_group_name_H-M "C 2/C"
_symmetry_group_IT_number 15
_symmetry_cell_setting 'monoclinic'
loop_
_space_group_symop_operation_xyz
x,y,z
-x,y,1/2-z
-x,-y,-z
x,-y,1/2+z
1/2+x,1/2+y,z
1/2-x,1/2+y,1/2-z
1/2-x,1/2-y,-z
1/2+x,1/2-y,1/2+z
loop_
_atom_site_type_symbol
_atom_site_label
_atom_site_fract_x
_atom_site_fract_y
_atom_site_fract_z
Si Si1 0.584752 0.945841 0.622099
Si Si2 0.500000 0.068795 0.250000
Si Si3 0.365398 0.143662 0.597549
Si Si4 0.430101 0.396886 0.114230
Si Si5 0.267429 0.411078 0.601982
Si Si6 0.710330 0.355910 0.498008
Si Si7 0.903613 0.870435 0.707142
O O1 0.538197 0.992400 0.423758
O O2 0.636787 0.889558 0.589873
O O3 0.548869 0.873035 0.702213
O O4 0.609633 0.048946 0.753256
O O5 0.293431 0.150054 0.546364
O O6 0.412497 0.245432 0.669612
O O7 0.500000 0.356153 0.250000
O O8 0.430392 0.527852 0.149173
O O9 0.366751 0.352694 0.115541
O O10 0.420849 0.380191 0.914644
O O11 0.278358 0.382314 0.800745
O O12 0.264012 0.542259 0.570659
O O13 0.329022 0.381388 0.590558
O O14 0.750000 0.250000 0.500000
#
# Coordination Sequence:
#
# PCOD9289564 Si02
#       7
#     8   4   8   8   8   8   8
#     4   9  19  35  61  86 131 172 220 276 330 407
#     4   8  16  38  56  76 126 168 210 276 324 374
#     4  11  21  37  61  99 131 182 224 277 351 411
#     4  10  22  45  70  97 136 173 229 299 337 410
#     4  10  22  40  65  98 142 169 223 298 332 409
#     4  10  23  42  71 104 136 183 228 279 360 410
#     4  10  23  42  66  97 132 180 227 278 353 405
#
# _framework density 23.535875000000001
#
# number of rings (size 3 to 8) (size 9 to 14) (size 15 to 20)
#    0.000    2.154    0.000    1.846    0.000    9.846 
#    9.692    3.077    6.769    0.000    0.000    0.000 
#    0.000    0.000    0.000    0.000    0.000    0.000 
#
# Total GULP energy -145059.747897 kJ/mol
# GULP energy per Si atom -5579.221073 kJ/mol
# Density = 2.348231 g / cm^3
# Si number density = 23.535875 Si / 1000 Ang^3
#
#
#
# Elastic Constant Matrix: (Units=GPa)
#
#
# Indices 1 2 3 4 5 6 
#
# 1 88.7766 30.9939 37.7336 0.0000 20.0293 0.0000
# 2 30.9939 124.4874 21.1011 0.0000 -0.3344 0.0000
# 3 37.7336 21.1011 67.6916 0.0000 8.2866 0.0000
# 4 0.0000 0.0000 0.0000 54.4483 0.0000 10.7198
# 5 20.0293 -0.3344 8.2866 0.0000 44.9258 0.0000
# 6 0.0000 0.0000 0.0000 10.7198 0.0000 31.9823
#
#
#
# Elastic Compliance Matrix: (Units=1/GPa)
#
#
# Indices 1 2 3 4 5 6 
#
# 1 0.016993 -0.002924 -0.007807 0.000000 -0.006158 0.000000
# 2 -0.002924 0.008998 -0.001374 0.000000 0.001624 0.000000
# 3 -0.007807 -0.001374 0.019570 0.000000 -0.000139 0.000000
# 4 0.000000 0.000000 0.000000 0.019664 0.000000 -0.006591
# 5 -0.006158 0.001624 -0.000139 0.000000 0.025042 0.000000
# 6 0.000000 0.000000 0.000000 -0.006591 0.000000 0.033476
#
#
# Mechanical properties :
#
#
# Convention : Reuss Voigt Hill
#
# Bulk Modulus (GPa) = 46.83556 51.17918 49.00737
# Shear Modulus (GPa) = 32.24364 39.01308 35.62836
#
# Velocity S-wave (km/s) = 3.70534 4.07578 3.89497
# Velocity P-wave (km/s) = 6.18457 6.62885 6.41056
#
# Compressibility (1/GPa) = 0.02135130
#
# Stress axis : x y z
#
# Youngs Moduli (GPa) = 58.84941 111.13406 51.09847
#
# Poissons Ratio (x) = 0.32494 0.39892
# Poissons Ratio (y) = 0.17207 0.07020
# Poissons Ratio (z) = 0.45944 0.15268
#
# Static dielectric constant tensor:
#      x y z
#    x 2.061270 0.000000 0.035270 
#    y 0.000000 2.052010 0.000000 
#    z 0.035270 0.000000 1.831820 
# 
# From -- ./inp_files/65605.got.cif
#   From: 2010.05.17/outbox.cif.g08.bks.cpg/sg15_33_cif.got.tgz:65605.got - 2010.06.03 18:47:42.
