data_PCOD9289084
_publ_section_title
;
Structure prediction by ZEFSAII (Michael W. Deem and Ramdas Pophale) SiO2 
 PCOD9289084
Probable space group: C 2/C
;
_chemical_formula_sum "Si O2"
_cell_formula_units_Z 60
_cell_length_a 8.572168
_cell_length_b 26.409921
_cell_length_c 18.655135
_cell_angle_alpha 90.000000
_cell_angle_beta 136.938172
_cell_angle_gamma 90.000000
_cell_volume 2883.643199
_symmetry_space_group_name_H-M "C 2/C"
_symmetry_group_IT_number 15
_symmetry_cell_setting 'monoclinic'
loop_
_space_group_symop_operation_xyz
x,y,z
-x,y,1/2-z
-x,-y,-z
x,-y,1/2+z
1/2+x,1/2+y,z
1/2-x,1/2+y,1/2-z
1/2-x,1/2-y,-z
1/2+x,1/2-y,1/2+z
loop_
_atom_site_type_symbol
_atom_site_label
_atom_site_fract_x
_atom_site_fract_y
_atom_site_fract_z
Si Si1 0.655918 0.000175 0.236206
Si Si2 0.882321 0.698401 0.057912
Si Si3 0.500000 0.835740 0.750000
Si Si4 0.063163 0.092017 0.107953
Si Si5 0.266480 0.392401 0.215337
Si Si6 0.980799 0.893718 0.067535
Si Si7 0.620335 0.860930 0.523122
Si Si8 0.583038 0.956769 0.974082
O O1 0.500000 0.982020 0.250000
O O2 0.855782 0.038891 0.329077
O O3 0.479605 0.030906 0.127853
O O4 0.726497 0.952725 0.210626
O O5 0.992060 0.696083 0.173858
O O6 0.059221 0.686726 0.052530
O O7 0.750000 0.750000 0.000000
O O8 0.695334 0.652945 0.994557
O O9 0.714230 0.873240 0.820345
O O10 0.873956 0.126124 0.083747
O O11 0.970580 0.086003 0.995486
O O12 0.500000 0.381744 0.250000
O O13 0.310875 0.376967 0.312620
O O14 0.057596 0.366690 0.102978
O O15 0.844617 0.938681 0.063282
O O16 0.561711 0.908189 0.553852
O O17 0.500000 0.000000 0.000000
#
# Coordination Sequence:
#
# PCOD9289084 Si02
#       8
#     8   8   4   8   8   8   8   8
#     4  12  24  36  59  89 126 186 233 261 330 397
#     4  10  22  44  73 100 122 167 216 274 345 413
#     4  10  22  46  68  96 136 170 212 276 342 392
#     4  11  23  41  63  93 133 178 222 281 324 394
#     4  12  24  39  57  88 136 179 222 277 334 392
#     4  10  22  40  60  86 135 170 218 284 338 394
#     4  11  25  39  64  95 130 168 229 280 332 398
#     4  11  20  38  56  84 126 171 222 275 318 393
#
# _framework density 20.807012
#
# number of rings (size 3 to 8) (size 9 to 14) (size 15 to 20)
#    0.000    1.067    6.000    1.600    5.600    3.200 
#    0.000    2.667    0.000    3.200    0.000    0.000 
#    0.000    0.000    0.000    0.000    0.000    0.000 
#
# Total GULP energy -167440.585297 kJ/mol
# GULP energy per Si atom -5581.352843 kJ/mol
# Density = 2.075965 g / cm^3
# Si number density = 20.807012 Si / 1000 Ang^3
#
#
#
# Elastic Constant Matrix: (Units=GPa)
#
#
# Indices 1 2 3 4 5 6 
#
# 1 95.8882 32.3626 36.5483 0.0000 1.5761 0.0000
# 2 32.3626 68.9154 18.1116 0.0000 -4.1334 0.0000
# 3 36.5483 18.1116 107.5425 0.0000 -17.6842 0.0000
# 4 0.0000 0.0000 0.0000 21.2346 0.0000 1.5214
# 5 1.5761 -4.1334 -17.6842 0.0000 40.0498 0.0000
# 6 0.0000 0.0000 0.0000 1.5214 0.0000 12.2137
#
#
#
# Elastic Compliance Matrix: (Units=1/GPa)
#
#
# Indices 1 2 3 4 5 6 
#
# 1 0.014026 -0.005634 -0.004318 0.000000 -0.003040 0.000000
# 2 -0.005634 0.017454 -0.000746 0.000000 0.001694 0.000000
# 3 -0.004318 -0.000746 0.011761 0.000000 0.005286 0.000000
# 4 0.000000 0.000000 0.000000 0.047517 0.000000 -0.005919
# 5 -0.003040 0.001694 0.005286 0.000000 0.027597 0.000000
# 6 0.000000 0.000000 0.000000 -0.005919 0.000000 0.082613
#
#
# Mechanical properties :
#
#
# Convention : Reuss Voigt Hill
#
# Bulk Modulus (GPa) = 45.77778 49.59904 47.68841
# Shear Modulus (GPa) = 21.77262 27.05452 24.41357
#
# Velocity S-wave (km/s) = 3.23833 3.60982 3.42911
# Velocity P-wave (km/s) = 6.00261 6.42369 6.21672
#
# Compressibility (1/GPa) = 0.02184466
#
# Stress axis : x y z
#
# Youngs Moduli (GPa) = 71.29566 57.29320 85.02713
#
# Poissons Ratio (x) = 0.32280 0.36713
# Poissons Ratio (y) = 0.40170 0.06345
# Poissons Ratio (z) = 0.30784 0.04275
#
# Static dielectric constant tensor:
#      x y z
#    x 1.837280 0.000000 -0.004800 
#    y 0.000000 1.689020 0.000000 
#    z -0.004800 0.000000 1.790140 
# 
# From -- ./inp_files/234580.got.cif
#   From: 2010.05.17/outbox.cif.g08.bks.cpg/sg15_118_cif.got.tgz:234580.got - 2010.06.03 18:47:42.
