data_PCOD9289017
_publ_section_title
;
Structure prediction by ZEFSAII (Michael W. Deem and Ramdas Pophale) SiO2 
 PCOD9289017
Probable space group: C 2/C
;
_chemical_formula_sum "Si O2"
_cell_formula_units_Z 36
_cell_length_a 11.535185
_cell_length_b 8.317533
_cell_length_c 20.616002
_cell_angle_alpha 90.000000
_cell_angle_beta 128.126057
_cell_angle_gamma 90.000000
_cell_volume 1555.992427
_symmetry_space_group_name_H-M "C 2/C"
_symmetry_group_IT_number 15
_symmetry_cell_setting 'monoclinic'
loop_
_space_group_symop_operation_xyz
x,y,z
-x,y,1/2-z
-x,-y,-z
x,-y,1/2+z
1/2+x,1/2+y,z
1/2-x,1/2+y,1/2-z
1/2-x,1/2-y,-z
1/2+x,1/2-y,1/2+z
loop_
_atom_site_type_symbol
_atom_site_label
_atom_site_fract_x
_atom_site_fract_y
_atom_site_fract_z
Si Si1 0.816119 0.757190 0.839015
Si Si2 0.379701 0.406655 0.413205
Si Si3 0.084226 0.417193 0.380133
Si Si4 0.000000 0.308631 0.750000
Si Si5 0.117795 0.661289 0.491285
O O1 0.643456 0.717059 0.773026
O O2 0.937872 0.689858 0.831858
O O3 0.832209 0.951478 0.847905
O O4 0.856050 0.685812 0.923765
O O5 0.500000 0.500000 0.500000
O O6 0.235487 0.351266 0.402746
O O7 0.467596 0.252267 0.419934
O O8 0.053210 0.574079 0.325813
O O9 0.116208 0.481968 0.463458
O O10 0.250000 0.750000 0.500000
#
# Coordination Sequence:
#
# PCOD9289017 Si02
#       5
#     8   8   8   4   8
#     4  10  22  40  62  87 118 158 195 246 292 349
#     4   9  19  36  58  85 116 150 180 242 294 337
#     4  11  22  40  60  87 118 153 204 241 294 354
#     4  10  22  40  56  82 124 162 188 242 302 344
#     4  11  19  39  64  89 118 150 194 247 298 345
#
# _framework density 23.13636
#
# number of rings (size 3 to 8) (size 9 to 14) (size 15 to 20)
#    0.000    1.778    6.667    0.667    0.000    7.111 
#    4.000    0.000    0.000    0.000    0.000    0.000 
#    0.000    0.000    0.000    0.000    0.000    0.000 
#
# Total GULP energy -100512.458300 kJ/mol
# GULP energy per Si atom -5584.025461 kJ/mol
# Density = 2.308370 g / cm^3
# Si number density = 23.136360 Si / 1000 Ang^3
#
#
#
# Elastic Constant Matrix: (Units=GPa)
#
#
# Indices 1 2 3 4 5 6 
#
# 1 220.1251 55.4789 32.3986 0.0000 64.5003 0.0000
# 2 55.4789 35.7829 2.0468 0.0000 16.7645 0.0000
# 3 32.3986 2.0468 56.4570 0.0000 15.7740 0.0000
# 4 0.0000 0.0000 0.0000 19.6857 0.0000 13.8467
# 5 64.5003 16.7645 15.7740 0.0000 52.8803 0.0000
# 6 0.0000 0.0000 0.0000 13.8467 0.0000 45.5310
#
#
#
# Elastic Compliance Matrix: (Units=1/GPa)
#
#
# Indices 1 2 3 4 5 6 
#
# 1 0.010433 -0.012321 -0.003356 0.000000 -0.007818 0.000000
# 2 -0.012321 0.047554 0.005847 0.000000 -0.001792 0.000000
# 3 -0.003356 0.005847 0.020510 0.000000 -0.003878 0.000000
# 4 0.000000 0.000000 0.000000 0.064622 0.000000 -0.019653
# 5 -0.007818 -0.001792 -0.003878 0.000000 0.030172 0.000000
# 6 0.000000 0.000000 0.000000 -0.019653 0.000000 0.027940
#
#
# Mechanical properties :
#
#
# Convention : Reuss Voigt Hill
#
# Bulk Modulus (GPa) = 16.99588 54.69039 35.84314
# Shear Modulus (GPa) = 20.78983 38.44877 29.61930
#
# Velocity S-wave (km/s) = 3.00088 4.08098 3.58188
# Velocity P-wave (km/s) = 4.40102 6.77462 5.71246
#
# Compressibility (1/GPa) = 0.05883778
#
# Stress axis : x y z
#
# Youngs Moduli (GPa) = 95.84991 21.02881 48.75644
#
# Poissons Ratio (x) = 0.25909 0.16363
# Poissons Ratio (y) = 1.18093 -0.28508
# Poissons Ratio (z) = 0.32167 -0.12296
#
# Static dielectric constant tensor:
#      x y z
#    x 1.893230 0.000000 0.001140 
#    y 0.000000 1.903040 0.000000 
#    z 0.001140 0.000000 1.967080 
# 
# From -- ./inp_files/187587.got.cif
#   From: 2010.05.17/outbox.cif.g08.bks.cpg/sg15_94_cif.got.tgz:187587.got - 2010.06.03 18:47:42.
