data_PCOD9289086
_publ_section_title
;
Structure prediction by ZEFSAII (Michael W. Deem and Ramdas Pophale) SiO2 
 PCOD9289086
Probable space group: C 2/C
;
_chemical_formula_sum "Si O2"
_cell_formula_units_Z 40
_cell_length_a 9.132179
_cell_length_b 5.501814
_cell_length_c 29.683557
_cell_angle_alpha 90.000000
_cell_angle_beta 98.600951
_cell_angle_gamma 90.000000
_cell_volume 1474.634771
_symmetry_space_group_name_H-M "C 2/C"
_symmetry_group_IT_number 15
_symmetry_cell_setting 'monoclinic'
loop_
_space_group_symop_operation_xyz
x,y,z
-x,y,1/2-z
-x,-y,-z
x,-y,1/2+z
1/2+x,1/2+y,z
1/2-x,1/2+y,1/2-z
1/2-x,1/2-y,-z
1/2+x,1/2-y,1/2+z
loop_
_atom_site_type_symbol
_atom_site_label
_atom_site_fract_x
_atom_site_fract_y
_atom_site_fract_z
Si Si1 0.893658 0.714273 0.287357
Si Si2 0.610332 0.668613 0.567315
Si Si3 0.860007 0.662615 0.965177
Si Si4 0.688942 0.713889 0.197681
Si Si5 0.153122 0.332584 0.885302
O O1 0.734846 0.724046 0.252761
O O2 0.906833 0.972463 0.311724
O O3 0.000000 0.698133 0.250000
O O4 0.891834 0.466371 0.314617
O O5 0.552177 0.406461 0.546099
O O6 0.772023 0.584135 0.593015
O O7 0.504197 0.773883 0.600873
O O8 0.595638 0.878366 0.528461
O O9 0.758776 0.637602 0.915078
O O10 0.750000 0.750000 0.000000
O O11 0.817677 0.687578 0.166431
#
# Coordination Sequence:
#
# PCOD9289086 Si02
#       5
#     8   8   8   8   8
#     4  10  22  40  60  87 119 160 199 258 312 376
#     4  10  25  41  65  94 126 170 212 267 325 386
#     4  10  24  43  65  95 129 170 216 268 328 393
#     4  10  23  38  60  89 119 156 208 250 315 378
#     4  10  26  41  66  95 129 169 218 268 329 394
#
# _framework density 27.125359
#
# number of rings (size 3 to 8) (size 9 to 14) (size 15 to 20)
#    1.200    0.800    0.000    1.200    8.400    1.600 
#    0.000    0.000    0.000    0.000    0.000    0.000 
#    0.000    0.000    0.000    0.000    0.000    0.000 
#
# Total GULP energy -111580.586472 kJ/mol
# GULP energy per Si atom -5579.029324 kJ/mol
# Density = 2.706362 g / cm^3
# Si number density = 27.125359 Si / 1000 Ang^3
#
#
#
# Elastic Constant Matrix: (Units=GPa)
#
#
# Indices 1 2 3 4 5 6 
#
# 1 62.8805 73.4575 24.0725 0.0000 -42.0018 0.0000
# 2 73.4575 301.8930 67.4126 0.0000 -38.4684 0.0000
# 3 24.0725 67.4126 130.1843 0.0000 -20.9757 0.0000
# 4 0.0000 0.0000 0.0000 40.1292 0.0000 -11.8208
# 5 -42.0018 -38.4684 -20.9757 0.0000 53.1657 0.0000
# 6 0.0000 0.0000 0.0000 -11.8208 0.0000 42.1913
#
#
#
# Elastic Compliance Matrix: (Units=1/GPa)
#
#
# Indices 1 2 3 4 5 6 
#
# 1 0.043618 -0.006907 0.000276 0.000000 0.029570 0.000000
# 2 -0.006907 0.005067 -0.001746 0.000000 -0.002479 0.000000
# 3 0.000276 -0.001746 0.008934 0.000000 0.002479 0.000000
# 4 0.000000 0.000000 0.000000 0.027161 0.000000 0.007610
# 5 0.029570 -0.002479 0.002479 0.000000 0.041354 0.000000
# 6 0.000000 0.000000 0.000000 0.007610 0.000000 0.025834
#
#
# Mechanical properties :
#
#
# Convention : Reuss Voigt Hill
#
# Bulk Modulus (GPa) = 24.47122 91.64923 58.06022
# Shear Modulus (GPa) = 27.42058 49.09826 38.25942
#
# Velocity S-wave (km/s) = 3.18289 4.25908 3.75969
# Velocity P-wave (km/s) = 4.74856 7.61886 6.34806
#
# Compressibility (1/GPa) = 0.04086433
#
# Stress axis : x y z
#
# Youngs Moduli (GPa) = 22.92622 197.35390 111.93078
#
# Poissons Ratio (x) = 1.36310 -0.03084
# Poissons Ratio (y) = 0.15835 0.19545
# Poissons Ratio (z) = -0.00632 0.34461
#
# Static dielectric constant tensor:
#      x y z
#    x 2.304840 0.000000 0.185950 
#    y 0.000000 2.178520 0.000000 
#    z 0.185950 0.000000 2.120990 
# 
# From -- ./inp_files/309297.got.cif
#   From: 2010.05.17/outbox.cif.g08.bks.cpg/sg15_155_cif.got.tgz:309297.got - 2010.06.03 18:47:42.
