data_PCOD9289150
_publ_section_title
;
Structure prediction by ZEFSAII (Michael W. Deem and Ramdas Pophale) SiO2 
 PCOD9289150
Probable space group: C 2/C
;
_chemical_formula_sum "Si O2"
_cell_formula_units_Z 32
_cell_length_a 8.219696
_cell_length_b 11.554866
_cell_length_c 14.363690
_cell_angle_alpha 90.000000
_cell_angle_beta 109.099023
_cell_angle_gamma 90.000000
_cell_volume 1289.132586
_symmetry_space_group_name_H-M "C 2/C"
_symmetry_group_IT_number 15
_symmetry_cell_setting 'monoclinic'
loop_
_space_group_symop_operation_xyz
x,y,z
-x,y,1/2-z
-x,-y,-z
x,-y,1/2+z
1/2+x,1/2+y,z
1/2-x,1/2+y,1/2-z
1/2-x,1/2-y,-z
1/2+x,1/2-y,1/2+z
loop_
_atom_site_type_symbol
_atom_site_label
_atom_site_fract_x
_atom_site_fract_y
_atom_site_fract_z
Si Si1 0.083821 0.721642 0.866744
Si Si2 0.136758 0.605666 0.527243
Si Si3 0.448870 0.534226 0.097117
Si Si4 0.820541 0.533344 0.161463
O O1 0.157029 0.846254 0.908573
O O2 0.185738 0.601013 0.874858
O O3 0.000000 0.734304 0.750000
O O4 0.946737 0.699733 0.923012
O O5 0.318343 0.564851 0.603637
O O6 0.167121 0.621798 0.423149
O O7 0.000000 0.500000 0.500000
O O8 0.637592 0.549527 0.178132
O O9 0.500000 0.500000 0.000000
O O10 0.000000 0.543749 0.250000
#
# Coordination Sequence:
#
# PCOD9289150 Si02
#       4
#     8   8   8   8
#     4  10  22  40  61  90 125 163 205 251 307 367
#     4   9  20  39  63  89 124 161 202 254 305 366
#     4  10  22  40  65  90 120 162 206 257 315 364
#     4   9  20  40  62  91 126 160 204 256 309 366
#
# _framework density 24.822890999999998
#
# number of rings (size 3 to 8) (size 9 to 14) (size 15 to 20)
#    0.000    2.500    0.000    0.000    0.000   19.000 
#    0.000   12.500    0.000    1.500    0.000    0.000 
#    0.000    0.000    0.000    0.000    0.000    0.000 
#
# Total GULP energy -89255.507135 kJ/mol
# GULP energy per Si atom -5578.469196 kJ/mol
# Density = 2.476639 g / cm^3
# Si number density = 24.822891 Si / 1000 Ang^3
#
#
#
# Elastic Constant Matrix: (Units=GPa)
#
#
# Indices 1 2 3 4 5 6 
#
# 1 108.6760 5.4937 16.2288 0.0000 39.9741 0.0000
# 2 5.4937 85.1521 21.4146 0.0000 -11.5098 0.0000
# 3 16.2288 21.4146 112.7591 0.0000 19.6544 0.0000
# 4 0.0000 0.0000 0.0000 15.0359 0.0000 -21.6670
# 5 39.9741 -11.5098 19.6544 0.0000 26.9905 0.0000
# 6 0.0000 0.0000 0.0000 -21.6670 0.0000 49.7922
#
#
#
# Elastic Compliance Matrix: (Units=1/GPa)
#
#
# Indices 1 2 3 4 5 6 
#
# 1 0.026334 -0.009775 0.006404 0.000000 -0.047833 0.000000
# 2 -0.009775 0.017668 -0.006626 0.000000 0.026837 0.000000
# 3 0.006404 -0.006626 0.013001 0.000000 -0.021778 0.000000
# 4 0.000000 0.000000 0.000000 0.178330 0.000000 0.077600
# 5 -0.047833 0.026837 -0.021778 0.000000 0.135196 0.000000
# 6 0.000000 0.000000 0.000000 0.077600 0.000000 0.053851
#
#
# Mechanical properties :
#
#
# Convention : Reuss Voigt Hill
#
# Bulk Modulus (GPa) = 27.02089 43.65127 35.33608
# Shear Modulus (GPa) = 10.94782 35.92707 23.43744
#
# Velocity S-wave (km/s) = 2.10237 3.80851 3.07610
# Velocity P-wave (km/s) = 4.09907 6.07972 5.18485
#
# Compressibility (1/GPa) = 0.03700840
#
# Stress axis : x y z
#
# Youngs Moduli (GPa) = 37.97376 56.59866 76.91621
#
# Poissons Ratio (x) = 0.55325 -0.49256
# Poissons Ratio (y) = 0.37119 0.50968
# Poissons Ratio (z) = -0.24318 0.37504
#
# Static dielectric constant tensor:
#      x y z
#    x 1.989270 0.000000 0.016820 
#    y 0.000000 1.936850 0.000000 
#    z 0.016820 0.000000 2.051060 
# 
# From -- ./inp_files/131753.got.cif
#   From: 2010.05.17/outbox.cif.g08.bks.cpg/sg15_66_cif.got.tgz:131753.got - 2010.06.03 18:47:42.
