data_PCOD9289925
_publ_section_title
;
Structure prediction by ZEFSAII (Michael W. Deem and Ramdas Pophale) SiO2 
 PCOD9289925
Probable space group: C 2/C
;
_chemical_formula_sum "Si O2"
_cell_formula_units_Z 40
_cell_length_a 6.978615
_cell_length_b 7.499085
_cell_length_c 28.184374
_cell_angle_alpha 90.000000
_cell_angle_beta 109.837757
_cell_angle_gamma 90.000000
_cell_volume 1387.450055
_symmetry_space_group_name_H-M "C 2/C"
_symmetry_group_IT_number 15
_symmetry_cell_setting 'monoclinic'
loop_
_space_group_symop_operation_xyz
x,y,z
-x,y,1/2-z
-x,-y,-z
x,-y,1/2+z
1/2+x,1/2+y,z
1/2-x,1/2+y,1/2-z
1/2-x,1/2-y,-z
1/2+x,1/2-y,1/2+z
loop_
_atom_site_type_symbol
_atom_site_label
_atom_site_fract_x
_atom_site_fract_y
_atom_site_fract_z
Si Si1 0.899823 0.967651 0.328255
Si Si2 0.545167 0.307587 0.957106
Si Si3 0.614606 0.682649 0.928785
Si Si4 0.822054 0.659607 0.771284
Si Si5 0.021354 0.461883 0.371740
O O1 0.865272 0.836216 0.280540
O O2 0.093214 0.904729 0.374570
O O3 0.883228 0.153701 0.299631
O O4 0.721171 0.967833 0.353916
O O5 0.527787 0.521537 0.952618
O O6 0.346002 0.218974 0.962820
O O7 0.542667 0.217869 0.904475
O O8 0.750000 0.250000 0.000000
O O9 0.518865 0.876066 0.909492
O O10 0.000000 0.603641 0.750000
O O11 0.838250 0.532040 0.818157
#
# Coordination Sequence:
#
# PCOD9289925 Si02
#       5
#     8   8   8   8   8
#     4  11  23  44  70 111 145 198 245 304 377 465
#     4  12  29  50  76 108 147 199 259 326 392 458
#     4  12  25  48  74 108 146 193 251 313 385 461
#     4  10  22  40  70 109 148 192 240 298 373 462
#     4  11  24  46  74 104 154 189 249 309 385 455
#
# _framework density 28.829865999999999
#
# number of rings (size 3 to 8) (size 9 to 14) (size 15 to 20)
#    0.000    0.800    4.000    1.800    2.800    4.800 
#    0.000    0.000    0.000    0.000    0.000    0.000 
#    0.000    0.000    0.000    0.000    0.000    0.000 
#
# Total GULP energy -112077.381608 kJ/mol
# GULP energy per Si atom -5603.869080 kJ/mol
# Density = 2.876425 g / cm^3
# Si number density = 28.829866 Si / 1000 Ang^3
#
#
#
# Elastic Constant Matrix: (Units=GPa)
#
#
# Indices 1 2 3 4 5 6 
#
# 1 93.6973 18.4329 43.0633 0.0000 -21.0292 0.0000
# 2 18.4329 177.5262 50.6808 0.0000 10.5215 0.0000
# 3 43.0633 50.6808 203.6017 0.0000 20.0770 0.0000
# 4 0.0000 0.0000 0.0000 72.4760 0.0000 -3.8301
# 5 -21.0292 10.5215 20.0770 0.0000 60.2543 0.0000
# 6 0.0000 0.0000 0.0000 -3.8301 0.0000 37.4457
#
#
#
# Elastic Compliance Matrix: (Units=1/GPa)
#
#
# Indices 1 2 3 4 5 6 
#
# 1 0.013698 -0.000842 -0.003281 0.000000 0.006021 0.000000
# 2 -0.000842 0.006135 -0.001256 0.000000 -0.000947 0.000000
# 3 -0.003281 -0.001256 0.006214 0.000000 -0.002996 0.000000
# 4 0.000000 0.000000 0.000000 0.013873 0.000000 0.001419
# 5 0.006021 -0.000947 -0.002996 0.000000 0.019861 0.000000
# 6 0.000000 0.000000 0.000000 0.001419 0.000000 0.026850
#
#
# Mechanical properties :
#
#
# Convention : Reuss Voigt Hill
#
# Bulk Modulus (GPa) = 65.41097 77.68658 71.54878
# Shear Modulus (GPa) = 48.78746 58.21173 53.49959
#
# Velocity S-wave (km/s) = 4.11816 4.49837 4.31246
# Velocity P-wave (km/s) = 6.73426 7.34748 7.04754
#
# Compressibility (1/GPa) = 0.01528796
#
# Stress axis : x y z
#
# Youngs Moduli (GPa) = 73.00452 162.99888 160.93835
#
# Poissons Ratio (x) = 0.13731 0.52807
# Poissons Ratio (y) = 0.06150 0.20207
# Poissons Ratio (z) = 0.23954 0.20466
#
# Static dielectric constant tensor:
#      x y z
#    x 2.344460 0.000000 0.070170 
#    y 0.000000 2.241260 0.000000 
#    z 0.070170 0.000000 2.301100 
# 
# From -- ./inp_files/306562.got.cif
#   From: 2010.05.17/outbox.cif.g08.bks.cpg/sg15_154_cif.got.tgz:306562.got - 2010.06.03 18:47:42.
