data_PCOD9289154
_publ_section_title
;
Structure prediction by ZEFSAII (Michael W. Deem and Ramdas Pophale) SiO2 
 PCOD9289154
Probable space group: C 2/C
;
_chemical_formula_sum "Si O2"
_cell_formula_units_Z 40
_cell_length_a 14.702752
_cell_length_b 12.223980
_cell_length_c 18.478610
_cell_angle_alpha 90.000000
_cell_angle_beta 151.234478
_cell_angle_gamma 90.000000
_cell_volume 1598.195432
_symmetry_space_group_name_H-M "C 2/C"
_symmetry_group_IT_number 15
_symmetry_cell_setting 'monoclinic'
loop_
_space_group_symop_operation_xyz
x,y,z
-x,y,1/2-z
-x,-y,-z
x,-y,1/2+z
1/2+x,1/2+y,z
1/2-x,1/2+y,1/2-z
1/2-x,1/2-y,-z
1/2+x,1/2-y,1/2+z
loop_
_atom_site_type_symbol
_atom_site_label
_atom_site_fract_x
_atom_site_fract_y
_atom_site_fract_z
Si Si1 0.551398 0.591349 0.362613
Si Si2 0.623073 0.767440 0.017587
Si Si3 0.134913 0.893032 0.079131
Si Si4 0.804611 0.454948 0.334132
Si Si5 0.643682 0.084185 0.406802
O O1 0.500000 0.647256 0.250000
O O2 0.647109 0.636917 0.503093
O O3 0.357864 0.540944 0.259357
O O4 0.700482 0.494395 0.449596
O O5 0.463333 0.709498 0.951948
O O6 0.545329 0.847997 0.901561
O O7 0.741760 0.844293 0.153985
O O8 0.743945 0.673911 0.062773
O O9 0.310463 0.924082 0.253213
O O10 0.000000 0.000000 0.000000
O O11 0.000000 0.500000 0.500000
O O12 0.500000 0.030799 0.250000
#
# Coordination Sequence:
#
# PCOD9289154 Si02
#       5
#     8   8   8   8   8
#     4  11  23  44  60  97 136 177 222 276 329 405
#     4  11  22  39  65  98 138 168 222 269 339 393
#     4  10  22  40  61  90 138 176 216 266 334 399
#     4  11  24  40  64  96 132 177 225 268 331 399
#     4  11  23  34  66 100 134 166 211 281 344 387
#
# _framework density 25.028227999999999
#
# number of rings (size 3 to 8) (size 9 to 14) (size 15 to 20)
#    0.000    1.200    6.000    1.200    5.600    3.200 
#    0.000    0.000    0.000    4.800    0.000    0.000 
#    0.000    0.000    0.000    0.000    0.000    0.000 
#
# Total GULP energy -111782.508995 kJ/mol
# GULP energy per Si atom -5589.125450 kJ/mol
# Density = 2.497126 g / cm^3
# Si number density = 25.028228 Si / 1000 Ang^3
#
#
#
# Elastic Constant Matrix: (Units=GPa)
#
#
# Indices 1 2 3 4 5 6 
#
# 1 131.2712 23.2295 44.8170 0.0027 -58.9489 0.0008
# 2 23.2295 22.0922 -0.1631 0.0118 0.7311 0.0013
# 3 44.8170 -0.1631 136.0876 0.0129 -37.3996 0.0021
# 4 0.0027 0.0118 0.0129 21.2000 0.0013 6.9828
# 5 -58.9489 0.7311 -37.3996 0.0013 61.7524 0.0001
# 6 0.0008 0.0013 0.0021 6.9828 0.0001 39.4052
#
#
#
# Elastic Compliance Matrix: (Units=1/GPa)
#
#
# Indices 1 2 3 4 5 6 
#
# 1 0.020666 -0.022371 -0.001605 0.000010 0.019020 -0.000001
# 2 -0.022371 0.069501 0.001626 -0.000037 -0.021193 0.000005
# 3 -0.001605 0.001626 0.008940 -0.000007 0.003863 0.000001
# 4 0.000010 -0.000037 -0.000007 0.050094 0.000005 -0.008877
# 5 0.019020 -0.021193 0.003863 0.000005 0.036941 -0.000001
# 6 -0.000001 0.000005 0.000001 -0.008877 -0.000001 0.026950
#
#
# Mechanical properties :
#
#
# Convention : Reuss Voigt Hill
#
# Bulk Modulus (GPa) = 18.38002 47.24641 32.81321
# Shear Modulus (GPa) = 18.12062 39.24270 28.68166
#
# Velocity S-wave (km/s) = 2.69366 3.96401 3.38889
# Velocity P-wave (km/s) = 4.12723 6.31423 5.33402
#
# Compressibility (1/GPa) = 0.05440692
#
# Stress axis : x y z
#
# Youngs Moduli (GPa) = 48.38868 14.38826 111.85101
#
# Poissons Ratio (x) = 0.32188 0.17957
# Poissons Ratio (y) = 1.08251 -0.18190
# Poissons Ratio (z) = 0.07769 -0.02340
#
# Static dielectric constant tensor:
#      x y z
#    x 1.811300 -0.000010 -0.296370 
#    y -0.000010 2.007780 -0.000010 
#    z -0.296370 -0.000010 1.680170 
# 
# From -- ./inp_files/205827.got.cif
#   From: 2010.05.17/outbox.cif.g08.bks.cpg/sg15_103_cif.got.tgz:205827.got - 2010.06.03 18:47:42.
