data_PCOD9289481
_publ_section_title
;
Structure prediction by ZEFSAII (Michael W. Deem and Ramdas Pophale) SiO2 
 PCOD9289481
Probable space group: C 2/C
;
_chemical_formula_sum "Si O2"
_cell_formula_units_Z 40
_cell_length_a 28.799097
_cell_length_b 8.522732
_cell_length_c 19.857943
_cell_angle_alpha 90.000000
_cell_angle_beta 157.399245
_cell_angle_gamma 90.000000
_cell_volume 1873.142462
_symmetry_space_group_name_H-M "C 2/C"
_symmetry_group_IT_number 15
_symmetry_cell_setting 'monoclinic'
loop_
_space_group_symop_operation_xyz
x,y,z
-x,y,1/2-z
-x,-y,-z
x,-y,1/2+z
1/2+x,1/2+y,z
1/2-x,1/2+y,1/2-z
1/2-x,1/2-y,-z
1/2+x,1/2-y,1/2+z
loop_
_atom_site_type_symbol
_atom_site_label
_atom_site_fract_x
_atom_site_fract_y
_atom_site_fract_z
Si Si1 0.106758 0.635302 0.100808
Si Si2 0.100014 0.937531 0.824559
Si Si3 0.781516 0.700849 0.744433
Si Si4 0.650605 0.853608 0.303350
Si Si5 0.982074 0.873892 0.415841
O O1 0.191015 0.483562 0.216017
O O2 0.158119 0.752262 0.113108
O O3 0.098400 0.738115 0.157159
O O4 0.972793 0.586345 0.896471
O O5 0.111910 0.758676 0.812479
O O6 0.000000 0.949968 0.750000
O O7 0.065081 0.045245 0.714466
O O8 0.239909 0.970032 0.032756
O O9 0.790721 0.749228 0.678755
O O10 0.889811 0.790804 0.926364
O O11 0.000000 0.000000 0.500000
#
# Coordination Sequence:
#
# PCOD9289481 Si02
#       5
#     8   8   8   8   8
#     4  11  23  41  69 101 135 182 234 283 343 405
#     4  11  23  40  69 101 140 184 218 280 348 414
#     4  11  23  40  72  97 134 184 232 288 340 414
#     4  10  22  40  65 100 139 174 228 274 340 420
#     4  11  21  42  67 100 134 177 232 283 340 417
#
# _framework density 21.354488
#
# number of rings (size 3 to 8) (size 9 to 14) (size 15 to 20)
#    0.000    1.200    4.000    4.800    2.800    0.000 
#    0.000    4.000    0.000    0.000    0.000    0.000 
#    0.000    0.000    0.000    0.000    0.000    0.000 
#
# Total GULP energy -111641.151736 kJ/mol
# GULP energy per Si atom -5582.057587 kJ/mol
# Density = 2.130588 g / cm^3
# Si number density = 21.354488 Si / 1000 Ang^3
#
#
#
# Elastic Constant Matrix: (Units=GPa)
#
#
# Indices 1 2 3 4 5 6 
#
# 1 150.2335 55.8725 72.8371 0.0000 7.8344 0.0000
# 2 55.8725 110.9938 49.4698 0.0000 2.8341 0.0000
# 3 72.8371 49.4698 115.1427 0.0000 -9.3162 0.0000
# 4 0.0000 0.0000 0.0000 43.0193 0.0000 -2.2244
# 5 7.8344 2.8341 -9.3162 0.0000 39.9450 0.0000
# 6 0.0000 0.0000 0.0000 -2.2244 0.0000 33.4606
#
#
#
# Elastic Compliance Matrix: (Units=1/GPa)
#
#
# Indices 1 2 3 4 5 6 
#
# 1 0.010662 -0.002671 -0.005861 0.000000 -0.003269 0.000000
# 2 -0.002671 0.011963 -0.003543 0.000000 -0.001151 0.000000
# 3 -0.005861 -0.003543 0.014298 0.000000 0.004736 0.000000
# 4 0.000000 0.000000 0.000000 0.023326 0.000000 0.001551
# 5 -0.003269 -0.001151 0.004736 0.000000 0.026862 0.000000
# 6 0.000000 0.000000 0.000000 0.001551 0.000000 0.029989
#
#
# Mechanical properties :
#
#
# Convention : Reuss Voigt Hill
#
# Bulk Modulus (GPa) = 78.29935 81.41431 79.85683
# Shear Modulus (GPa) = 34.36255 36.49766 35.43011
#
# Velocity S-wave (km/s) = 4.01577 4.13865 4.07767
# Velocity P-wave (km/s) = 7.63204 7.81318 7.72314
#
# Compressibility (1/GPa) = 0.01277150
#
# Stress axis : x y z
#
# Youngs Moduli (GPa) = 93.79170 83.59345 69.93954
#
# Poissons Ratio (x) = 0.22329 0.40994
# Poissons Ratio (y) = 0.25053 0.24780
# Poissons Ratio (z) = 0.54975 0.29617
#
# Static dielectric constant tensor:
#      x y z
#    x 1.794370 0.000000 -0.016690 
#    y 0.000000 1.805040 0.000000 
#    z -0.016690 0.000000 1.854100 
# 
# From -- ./inp_files/150602.got.cif
#   From: 2010.05.17/outbox.cif.g08.bks.cpg/sg15_76_cif.got.tgz:150602.got - 2010.06.03 18:47:42.
