data_PCOD9289314
_publ_section_title
;
Structure prediction by ZEFSAII (Michael W. Deem and Ramdas Pophale) SiO2 
 PCOD9289314
Probable space group: C 2/C
;
_chemical_formula_sum "Si O2"
_cell_formula_units_Z 60
_cell_length_a 23.774614
_cell_length_b 7.534244
_cell_length_c 20.709358
_cell_angle_alpha 90.000000
_cell_angle_beta 136.130553
_cell_angle_gamma 90.000000
_cell_volume 2570.774539
_symmetry_space_group_name_H-M "C 2/C"
_symmetry_group_IT_number 15
_symmetry_cell_setting 'monoclinic'
loop_
_space_group_symop_operation_xyz
x,y,z
-x,y,1/2-z
-x,-y,-z
x,-y,1/2+z
1/2+x,1/2+y,z
1/2-x,1/2+y,1/2-z
1/2-x,1/2-y,-z
1/2+x,1/2-y,1/2+z
loop_
_atom_site_type_symbol
_atom_site_label
_atom_site_fract_x
_atom_site_fract_y
_atom_site_fract_z
Si Si1 0.442895 0.261472 0.942501
Si Si2 0.500000 0.352898 0.750000
Si Si3 0.170792 0.686980 0.275734
Si Si4 0.340677 0.577327 0.468599
Si Si5 0.165283 0.071775 0.898244
Si Si6 0.379842 0.141998 0.402521
Si Si7 0.097972 0.314335 0.226669
Si Si8 0.230529 0.703451 0.074148
O O1 0.413563 0.364692 0.982143
O O2 0.406068 0.303818 0.841626
O O3 0.412836 0.057878 0.922873
O O4 0.539833 0.255419 0.015848
O O5 0.579257 0.470000 0.827667
O O6 0.478945 0.233527 0.794045
O O7 0.261513 0.614332 0.360058
O O8 0.161199 0.818390 0.327987
O O9 0.159979 0.739243 0.192300
O O10 0.105758 0.525937 0.225254
O O11 0.333925 0.674787 0.532555
O O12 0.329127 0.372660 0.481985
O O13 0.244722 0.941527 0.958914
O O14 0.311495 0.114936 0.399501
O O15 0.180528 0.269351 0.332187
#
# Coordination Sequence:
#
# PCOD9289314 Si02
#       8
#     8   4   8   8   8   8   8   8
#     4  10  22  40  63  93 130 163 221 273 328 393
#     4  10  24  40  60  90 132 166 208 278 328 398
#     4  10  22  41  65  92 123 170 221 268 328 395
#     4  11  23  40  65  96 129 175 219 268 328 404
#     4  11  24  41  64  95 133 171 222 272 332 398
#     4  10  22  40  63  95 125 169 212 280 331 379
#     4   9  21  43  62  89 124 169 212 268 336 388
#     4  10  22  40  64  91 128 171 212 269 325 396
#
# _framework density 23.339271
#
# number of rings (size 3 to 8) (size 9 to 14) (size 15 to 20)
#    0.000    1.867    0.000    2.400    3.733    5.333 
#    4.800    0.000    0.000    0.000    0.000    0.000 
#    0.000    0.000    0.000    0.000    0.000    0.000 
#
# Total GULP energy -167278.611467 kJ/mol
# GULP energy per Si atom -5575.953716 kJ/mol
# Density = 2.328615 g / cm^3
# Si number density = 23.339271 Si / 1000 Ang^3
#
#
#
# Elastic Constant Matrix: (Units=GPa)
#
#
# Indices 1 2 3 4 5 6 
#
# 1 158.7795 34.1876 12.6935 0.0000 -7.4964 0.0000
# 2 34.1876 55.3902 10.7540 -0.0001 4.5272 0.0000
# 3 12.6935 10.7540 59.3245 0.0000 -11.8826 0.0000
# 4 0.0000 -0.0001 0.0000 -11.0176 0.0000 -13.8564
# 5 -7.4964 4.5272 -11.8826 0.0000 33.2155 0.0000
# 6 0.0000 0.0000 0.0000 -13.8564 0.0000 24.0487
#
#
#
# Elastic Compliance Matrix: (Units=1/GPa)
#
#
# Indices 1 2 3 4 5 6 
#
# 1 0.007442 -0.004718 -0.000293 0.000000 0.002218 0.000000
# 2 -0.004718 0.022224 -0.004136 0.000000 -0.005573 0.000000
# 3 -0.000293 -0.004136 0.019140 0.000000 0.007345 0.000000
# 4 0.000000 0.000000 0.000000 -0.052628 0.000000 -0.030323
# 5 0.002218 -0.005573 0.007345 0.000000 0.033994 0.000000
# 6 0.000000 0.000000 0.000000 -0.030323 0.000000 0.024111
#
#
# Mechanical properties :
#
#
# Convention : Reuss Voigt Hill
#
# Bulk Modulus (GPa) = 32.77225 43.19604 37.98414
# Shear Modulus (GPa) = 60.42554 23.63992 42.03273
#
# Velocity S-wave (km/s) = 5.09375 3.18603 4.24836
# Velocity P-wave (km/s) = 6.97619 5.66414 6.35412
#
# Compressibility (1/GPa) = 0.03051362
#
# Stress axis : x y z
#
# Youngs Moduli (GPa) = 134.37338 44.99650 52.24679
#
# Poissons Ratio (x) = 0.21228 0.01530
# Poissons Ratio (y) = 0.63393 0.21607
# Poissons Ratio (z) = 0.03936 0.18608
#
# Static dielectric constant tensor:
#      x y z
#    x 1.901020 0.000000 -0.110480 
#    y 0.000000 2.031550 0.000000 
#    z -0.110480 0.000000 1.920900 
# 
# From -- ./inp_files/252130.got.cif
#   From: 2010.05.17/outbox.cif.g08.bks.cpg/sg15_127_cif.got.tgz:252130.got - 2010.06.03 18:47:42.
