data_PCOD9289699
_publ_section_title
;
Structure prediction by ZEFSAII (Michael W. Deem and Ramdas Pophale) SiO2 
 PCOD9289699
Probable space group: C 2/C
;
_chemical_formula_sum "Si O2"
_cell_formula_units_Z 44
_cell_length_a 12.181782
_cell_length_b 11.347980
_cell_length_c 18.398909
_cell_angle_alpha 90.000000
_cell_angle_beta 42.993490
_cell_angle_gamma 90.000000
_cell_volume 1734.410383
_symmetry_space_group_name_H-M "C 2/C"
_symmetry_group_IT_number 15
_symmetry_cell_setting 'monoclinic'
loop_
_space_group_symop_operation_xyz
x,y,z
-x,y,1/2-z
-x,-y,-z
x,-y,1/2+z
1/2+x,1/2+y,z
1/2-x,1/2+y,1/2-z
1/2-x,1/2-y,-z
1/2+x,1/2-y,1/2+z
loop_
_atom_site_type_symbol
_atom_site_label
_atom_site_fract_x
_atom_site_fract_y
_atom_site_fract_z
Si Si1 0.325216 0.121879 0.492893
Si Si2 0.380370 0.104266 0.241002
Si Si3 0.833528 0.157862 0.787792
Si Si4 0.705976 0.636128 0.852857
Si Si5 0.000000 0.189336 0.250000
Si Si6 0.659117 0.378063 0.532007
O O1 0.250000 0.250000 0.500000
O O2 0.514196 0.121255 0.382114
O O3 0.290940 0.102905 0.595194
O O4 0.260795 0.000537 0.486727
O O5 0.500000 0.121741 0.250000
O O6 0.260349 0.211462 0.310380
O O7 0.309767 0.979297 0.287382
O O8 0.883078 0.134519 0.680869
O O9 0.000000 0.148531 0.750000
O O10 0.843572 0.733810 0.803088
O O11 0.602059 0.627661 0.976141
O O12 0.959002 0.116473 0.342109
O O13 0.750000 0.250000 0.500000
#
# Coordination Sequence:
#
# PCOD9289699 Si02
#       6
#     8   8   8   8   4   8
#     4  12  22  42  73  96 136 187 234 286 343 416
#     4  11  20  43  71  94 135 185 231 281 353 419
#     4  11  26  42  66 104 140 176 238 292 339 412
#     4  11  22  44  71  98 138 190 230 277 360 423
#     4  10  22  40  68 104 140 170 234 292 348 412
#     4  10  22  40  67 102 142 177 223 291 354 409
#
# _framework density 25.368850999999999
#
# number of rings (size 3 to 8) (size 9 to 14) (size 15 to 20)
#    0.000    1.091    6.364    1.091    1.273    5.091 
#    0.000    0.909    0.000    0.000    0.000    0.000 
#    0.000    0.000    0.000    0.000    0.000    0.000 
#
# Total GULP energy -122604.186063 kJ/mol
# GULP energy per Si atom -5572.917548 kJ/mol
# Density = 2.531111 g / cm^3
# Si number density = 25.368851 Si / 1000 Ang^3
#
#
#
# Elastic Constant Matrix: (Units=GPa)
#
#
# Indices 1 2 3 4 5 6 
#
# 1 85.5435 12.1840 66.5905 0.0000 49.1608 0.0000
# 2 12.1840 114.7158 25.4659 0.0000 4.2991 0.0000
# 3 66.5905 25.4659 221.8278 0.0000 44.2344 0.0000
# 4 0.0000 0.0000 0.0000 31.7836 0.0000 3.2771
# 5 49.1608 4.2991 44.2344 0.0000 52.1325 0.0000
# 6 0.0000 0.0000 0.0000 3.2771 0.0000 17.9567
#
#
#
# Elastic Compliance Matrix: (Units=1/GPa)
#
#
# Indices 1 2 3 4 5 6 
#
# 1 0.028101 -0.001303 -0.003639 0.000000 -0.023304 0.000000
# 2 -0.001303 0.009007 -0.000890 0.000000 0.001242 0.000000
# 3 -0.003639 -0.000890 0.006023 0.000000 -0.001605 0.000000
# 4 0.000000 0.000000 0.000000 0.032066 0.000000 -0.005852
# 5 -0.023304 0.001242 -0.001605 0.000000 0.042417 0.000000
# 6 0.000000 0.000000 0.000000 -0.005852 0.000000 0.056758
#
#
# Mechanical properties :
#
#
# Convention : Reuss Voigt Hill
#
# Bulk Modulus (GPa) = 31.78162 70.06309 50.92235
# Shear Modulus (GPa) = 25.44212 41.56433 33.50322
#
# Velocity S-wave (km/s) = 3.17028 4.05211 3.63801
# Velocity P-wave (km/s) = 5.09469 7.04063 6.14518
#
# Compressibility (1/GPa) = 0.03146473
#
# Stress axis : x y z
#
# Youngs Moduli (GPa) = 35.58626 111.02794 166.03846
#
# Poissons Ratio (x) = 0.14472 0.60421
# Poissons Ratio (y) = 0.04638 0.14783
# Poissons Ratio (z) = 0.12950 0.09885
#
# Static dielectric constant tensor:
#      x y z
#    x 1.977590 0.000000 0.042060 
#    y 0.000000 2.224060 0.000000 
#    z 0.042060 0.000000 2.019260 
# 
# From -- ./inp_files/203844.got.cif
#   From: 2010.05.17/outbox.cif.g08.bks.cpg/sg15_102_cif.got.tgz:203844.got - 2010.06.03 18:47:42.
