data_PCOD9289906
_publ_section_title
;
Structure prediction by ZEFSAII (Michael W. Deem and Ramdas Pophale) SiO2 
 PCOD9289906
Probable space group: C 2/C
;
_chemical_formula_sum "Si O2"
_cell_formula_units_Z 32
_cell_length_a 14.894123
_cell_length_b 11.973541
_cell_length_c 20.184828
_cell_angle_alpha 90.000000
_cell_angle_beta 160.075196
_cell_angle_gamma 90.000000
_cell_volume 1226.718963
_symmetry_space_group_name_H-M "C 2/C"
_symmetry_group_IT_number 15
_symmetry_cell_setting 'monoclinic'
loop_
_space_group_symop_operation_xyz
x,y,z
-x,y,1/2-z
-x,-y,-z
x,-y,1/2+z
1/2+x,1/2+y,z
1/2-x,1/2+y,1/2-z
1/2-x,1/2-y,-z
1/2+x,1/2-y,1/2+z
loop_
_atom_site_type_symbol
_atom_site_label
_atom_site_fract_x
_atom_site_fract_y
_atom_site_fract_z
Si Si1 0.762529 0.603016 0.391603
Si Si2 0.500000 0.500000 0.500000
Si Si3 0.286880 0.138308 0.969401
Si Si4 0.682206 0.290358 0.696072
Si Si5 0.000000 0.460260 0.750000
O O1 0.500000 0.631133 0.250000
O O2 0.825549 0.474189 0.451101
O O3 0.684789 0.633926 0.263423
O O4 0.010202 0.679948 0.582380
O O5 0.579016 0.371981 0.567585
O O6 0.772667 0.517796 0.638523
O O7 0.000000 0.177891 0.750000
O O8 0.513603 0.225164 0.110108
O O9 0.327194 0.099294 0.072470
#
# Coordination Sequence:
#
# PCOD9289906 Si02
#       5
#     8   4   8   8   4
#     4  11  24  43  71 111 144 181 249 319 367 435
#     4  10  22  40  70 100 142 190 242 290 372 440
#     4  10  23  48  73 100 149 196 249 303 377 449
#     4  11  25  42  71 105 145 191 242 309 376 441
#     4  10  22  40  74 104 134 198 246 304 366 446
#
# _framework density 26.085844000000002
#
# number of rings (size 3 to 8) (size 9 to 14) (size 15 to 20)
#    0.000    1.500    0.000    4.500    8.750    2.000 
#    4.500    1.250    2.750    1.500    0.000    0.000 
#    0.000    0.000    0.000    0.000    0.000    0.000 
#
# Total GULP energy -89082.423152 kJ/mol
# GULP energy per Si atom -5567.651447 kJ/mol
# Density = 2.602647 g / cm^3
# Si number density = 26.085844 Si / 1000 Ang^3
#
#
#
# Elastic Constant Matrix: (Units=GPa)
#
#
# Indices 1 2 3 4 5 6 
#
# 1 61.7827 36.8487 50.8469 -0.3059 15.0405 -0.1280
# 2 36.8487 112.1998 64.7513 -0.3141 13.9166 0.0279
# 3 50.8469 64.7513 210.8950 0.0566 46.4420 0.4405
# 4 -0.3059 -0.3141 0.0566 -82.8855 -0.1429 -88.2666
# 5 15.0405 13.9166 46.4420 -0.1429 73.9819 -0.2143
# 6 -0.1280 0.0279 0.4405 -88.2666 -0.2143 -44.7517
#
#
#
# Elastic Compliance Matrix: (Units=1/GPa)
#
#
# Indices 1 2 3 4 5 6 
#
# 1 0.022524 -0.005187 -0.003533 -0.000035 -0.001386 -0.000027
# 2 -0.005187 0.012027 -0.002525 0.000022 0.000377 -0.000048
# 3 -0.003533 -0.002525 0.007085 0.000061 -0.003255 -0.000026
# 4 -0.000035 0.000022 0.000061 0.010965 -0.000077 -0.021625
# 5 -0.001386 0.000377 -0.003255 -0.000077 0.015771 0.000048
# 6 -0.000027 -0.000048 -0.000026 -0.021625 0.000048 0.020307
#
#
# Mechanical properties :
#
#
# Convention : Reuss Voigt Hill
#
# Bulk Modulus (GPa) = 52.22754 76.64126 64.43440
# Shear Modulus (GPa) = 42.53514 4.76429 23.64972
#
# Velocity S-wave (km/s) = 4.04243 1.35291 3.01426
# Velocity P-wave (km/s) = 6.46940 5.64665 6.07198
#
# Compressibility (1/GPa) = 0.01914699
#
# Stress axis : x y z
#
# Youngs Moduli (GPa) = 44.39734 83.14925 141.13413
#
# Poissons Ratio (x) = 0.43127 0.49860
# Poissons Ratio (y) = 0.23028 0.35636
# Poissons Ratio (z) = 0.15685 0.20995
#
# Static dielectric constant tensor:
#      x y z
#    x 2.347450 0.000040 0.039070 
#    y 0.000040 1.979370 0.000000 
#    z 0.039070 0.000000 2.166740 
# 
# From -- ./inp_files/244728.got.cif
#   From: 2010.05.17/outbox.cif.g08.bks.cpg/sg15_123_cif.got.tgz:244728.got - 2010.06.03 18:47:42.
