data_PCOD9289885
_publ_section_title
;
Structure prediction by ZEFSAII (Michael W. Deem and Ramdas Pophale) SiO2 
 PCOD9289885
Probable space group: C 2/C
;
_chemical_formula_sum "Si O2"
_cell_formula_units_Z 36
_cell_length_a 7.814694
_cell_length_b 19.007051
_cell_length_c 10.183188
_cell_angle_alpha 90.000000
_cell_angle_beta 94.895846
_cell_angle_gamma 90.000000
_cell_volume 1507.034004
_symmetry_space_group_name_H-M "C 2/C"
_symmetry_group_IT_number 15
_symmetry_cell_setting 'monoclinic'
loop_
_space_group_symop_operation_xyz
x,y,z
-x,y,1/2-z
-x,-y,-z
x,-y,1/2+z
1/2+x,1/2+y,z
1/2-x,1/2+y,1/2-z
1/2-x,1/2-y,-z
1/2+x,1/2-y,1/2+z
loop_
_atom_site_type_symbol
_atom_site_label
_atom_site_fract_x
_atom_site_fract_y
_atom_site_fract_z
Si Si1 0.432098 0.924380 0.045293
Si Si2 0.720819 0.575216 0.779469
Si Si3 0.414372 0.343252 0.988128
Si Si4 0.000000 0.058577 0.250000
Si Si5 0.523411 0.202643 0.401789
O O1 0.597395 0.904509 0.143919
O O2 0.266064 0.920818 0.127507
O O3 0.416664 0.866499 0.931576
O O4 0.500000 0.000000 0.000000
O O5 0.657906 0.494691 0.788805
O O6 0.596763 0.618395 0.870361
O O7 0.471405 0.394594 0.876425
O O8 0.221682 0.318905 0.936219
O O9 0.517355 0.270586 0.012535
O O10 0.500000 0.222306 0.250000
#
# Coordination Sequence:
#
# PCOD9289885 Si02
#       5
#     8   8   8   4   8
#     4  10  22  40  69  96 124 170 224 265 318 392
#     4  10  22  41  65  95 132 169 215 272 322 383
#     4  10  24  43  64  97 132 171 219 266 324 393
#     4  12  24  42  68  94 142 170 210 272 334 374
#     4  10  23  44  68  94 131 172 219 270 322 384
#
# _framework density 23.887982000000001
#
# number of rings (size 3 to 8) (size 9 to 14) (size 15 to 20)
#    0.000    1.778    0.000    3.333    7.778    5.333 
#    0.000    2.222    0.000    0.000    0.000    0.000 
#    0.000    0.000    0.000    0.000    0.000    0.000 
#
# Total GULP energy -100507.307929 kJ/mol
# GULP energy per Si atom -5583.739329 kJ/mol
# Density = 2.383361 g / cm^3
# Si number density = 23.887982 Si / 1000 Ang^3
#
#
#
# Elastic Constant Matrix: (Units=GPa)
#
#
# Indices 1 2 3 4 5 6 
#
# 1 72.0014 18.0575 25.5806 0.0000 -19.5923 0.0000
# 2 18.0575 151.9321 54.4087 0.0000 -16.3981 0.0000
# 3 25.5806 54.4087 118.9537 0.0000 -5.8575 0.0000
# 4 0.0000 0.0000 0.0000 55.7780 0.0000 -3.6081
# 5 -19.5923 -16.3981 -5.8575 0.0000 34.1177 0.0000
# 6 0.0000 0.0000 0.0000 -3.6081 0.0000 22.1323
#
#
#
# Elastic Compliance Matrix: (Units=1/GPa)
#
#
# Indices 1 2 3 4 5 6 
#
# 1 0.017682 0.000157 -0.003399 0.000000 0.009646 0.000000
# 2 0.000157 0.008233 -0.003631 0.000000 0.003424 0.000000
# 3 -0.003399 -0.003631 0.010707 0.000000 -0.001859 0.000000
# 4 0.000000 0.000000 0.000000 0.018119 0.000000 0.002954
# 5 0.009646 0.003424 -0.001859 0.000000 0.036176 0.000000
# 6 0.000000 0.000000 0.000000 0.002954 0.000000 0.045664
#
#
# Mechanical properties :
#
#
# Convention : Reuss Voigt Hill
#
# Bulk Modulus (GPa) = 43.71575 59.88675 51.80125
# Shear Modulus (GPa) = 31.65513 38.72828 35.19171
#
# Velocity S-wave (km/s) = 3.64421 4.03084 3.84239
# Velocity P-wave (km/s) = 6.00392 6.84016 6.43564
#
# Compressibility (1/GPa) = 0.02287505
#
# Stress axis : x y z
#
# Youngs Moduli (GPa) = 56.55602 121.46196 93.39851
#
# Poissons Ratio (x) = -0.01905 0.31747
# Poissons Ratio (y) = -0.00887 0.33912
# Poissons Ratio (z) = 0.19224 0.44101
#
# Static dielectric constant tensor:
#      x y z
#    x 2.212420 0.000000 -0.028750 
#    y 0.000000 1.892220 0.000000 
#    z -0.028750 0.000000 1.971610 
# 
# From -- ./inp_files/76697.got.cif
#   From: 2010.05.17/outbox.cif.g08.bks.cpg/sg15_39_cif.got.tgz:76697.got - 2010.06.03 18:47:42.
