data_PCOD9289703
_publ_section_title
;
Structure prediction by ZEFSAII (Michael W. Deem and Ramdas Pophale) SiO2 
 PCOD9289703
Probable space group: C 2/C
;
_chemical_formula_sum "Si O2"
_cell_formula_units_Z 40
_cell_length_a 16.528019
_cell_length_b 11.081364
_cell_length_c 13.063842
_cell_angle_alpha 90.000000
_cell_angle_beta 59.595622
_cell_angle_gamma 90.000000
_cell_volume 2063.628224
_symmetry_space_group_name_H-M "C 2/C"
_symmetry_group_IT_number 15
_symmetry_cell_setting 'monoclinic'
loop_
_space_group_symop_operation_xyz
x,y,z
-x,y,1/2-z
-x,-y,-z
x,-y,1/2+z
1/2+x,1/2+y,z
1/2-x,1/2+y,1/2-z
1/2-x,1/2-y,-z
1/2+x,1/2-y,1/2+z
loop_
_atom_site_type_symbol
_atom_site_label
_atom_site_fract_x
_atom_site_fract_y
_atom_site_fract_z
Si Si1 0.267499 0.387163 0.462686
Si Si2 0.273622 0.988132 0.711378
Si Si3 0.397863 0.033713 0.820736
Si Si4 0.106419 0.012295 0.966294
Si Si5 0.160104 0.718178 0.488053
O O1 0.250000 0.250000 0.500000
O O2 0.259821 0.412718 0.348166
O O3 0.180461 0.458225 0.569071
O O4 0.362086 0.443831 0.449923
O O5 0.312283 0.874386 0.620952
O O6 0.352349 0.042141 0.737283
O O7 0.181554 0.958908 0.837075
O O8 0.500000 0.975451 0.750000
O O9 0.407573 0.152191 0.886308
O O10 0.125209 0.154826 0.967891
O O11 0.000000 0.000000 0.000000
O O12 0.250000 0.750000 0.500000
#
# Coordination Sequence:
#
# PCOD9289703 Si02
#       5
#     8   8   8   8   8
#     4  10  23  42  61  92 132 162 209 263 321 385
#     4  10  22  40  67  86 128 173 207 262 325 372
#     4  10  23  39  65  95 121 168 219 261 319 383
#     4  11  25  42  66 101 124 167 221 266 324 379
#     4  11  21  44  65  91 131 168 217 266 319 393
#
# _framework density 19.383336
#
# number of rings (size 3 to 8) (size 9 to 14) (size 15 to 20)
#    0.000    1.600    6.000    0.000    5.600    8.800 
#    0.000    0.000    0.000    0.000    0.000    0.000 
#    0.000    0.000    0.000    0.000    0.000    0.000 
#
# Total GULP energy -111513.845990 kJ/mol
# GULP energy per Si atom -5575.692299 kJ/mol
# Density = 1.933922 g / cm^3
# Si number density = 19.383336 Si / 1000 Ang^3
#
#
#
# Elastic Constant Matrix: (Units=GPa)
#
#
# Indices 1 2 3 4 5 6 
#
# 1 156.5920 21.8354 47.8964 0.0000 2.6714 0.0000
# 2 21.8354 105.8039 16.5846 0.0000 14.4248 0.0000
# 3 47.8964 16.5846 77.9687 0.0000 28.3670 0.0000
# 4 0.0000 0.0000 0.0000 14.7468 0.0000 4.0363
# 5 2.6714 14.4248 28.3670 0.0000 28.3732 0.0000
# 6 0.0000 0.0000 0.0000 4.0363 0.0000 20.3710
#
#
#
# Elastic Compliance Matrix: (Units=1/GPa)
#
#
# Indices 1 2 3 4 5 6 
#
# 1 0.008958 -0.001685 -0.008093 0.000000 0.008105 0.000000
# 2 -0.001685 0.010482 0.001079 0.000000 -0.006249 0.000000
# 3 -0.008093 0.001079 0.027490 0.000000 -0.027270 0.000000
# 4 0.000000 0.000000 0.000000 0.071700 0.000000 -0.014206
# 5 0.008105 -0.006249 -0.027270 0.000000 0.064923 0.000000
# 6 0.000000 0.000000 0.000000 -0.014206 0.000000 0.051904
#
#
# Mechanical properties :
#
#
# Convention : Reuss Voigt Hill
#
# Bulk Modulus (GPa) = 33.86255 56.99972 45.43113
# Shear Modulus (GPa) = 19.03322 29.63476 24.33399
#
# Velocity S-wave (km/s) = 3.13699 3.91433 3.54702
# Velocity P-wave (km/s) = 5.53433 7.06397 6.34541
#
# Compressibility (1/GPa) = 0.02953115
#
# Stress axis : x y z
#
# Youngs Moduli (GPa) = 111.62896 95.40121 36.37751
#
# Poissons Ratio (x) = 0.16076 0.29442
# Poissons Ratio (y) = 0.18811 -0.03926
# Poissons Ratio (z) = 0.90346 -0.10296
#
# Static dielectric constant tensor:
#      x y z
#    x 1.509330 0.000000 -0.047760 
#    y 0.000000 1.738400 0.000000 
#    z -0.047760 0.000000 1.721320 
# 
# From -- ./inp_files/94880.got.cif
#   From: 2010.05.17/outbox.cif.g08.bks.cpg/sg15_48_cif.got.tgz:94880.got - 2010.06.03 18:47:42.
