data_PCOD9289276
_publ_section_title
;
Structure prediction by ZEFSAII (Michael W. Deem and Ramdas Pophale) SiO2 
 PCOD9289276
Probable space group: C 2/C
;
_chemical_formula_sum "Si O2"
_cell_formula_units_Z 36
_cell_length_a 20.821278
_cell_length_b 11.238733
_cell_length_c 20.332622
_cell_angle_alpha 90.000000
_cell_angle_beta 161.028582
_cell_angle_gamma 90.000000
_cell_volume 1546.786382
_symmetry_space_group_name_H-M "C 2/C"
_symmetry_group_IT_number 15
_symmetry_cell_setting 'monoclinic'
loop_
_space_group_symop_operation_xyz
x,y,z
-x,y,1/2-z
-x,-y,-z
x,-y,1/2+z
1/2+x,1/2+y,z
1/2-x,1/2+y,1/2-z
1/2-x,1/2-y,-z
1/2+x,1/2-y,1/2+z
loop_
_atom_site_type_symbol
_atom_site_label
_atom_site_fract_x
_atom_site_fract_y
_atom_site_fract_z
Si Si1 0.263788 0.037512 0.627372
Si Si2 0.983292 0.823191 0.058470
Si Si3 0.000000 0.989167 0.250000
Si Si4 0.103084 0.376751 0.916448
Si Si5 0.637385 0.116526 0.642671
O O1 0.288817 0.128003 0.711052
O O2 0.121486 0.056197 0.426293
O O3 0.176292 0.922637 0.581076
O O4 0.480965 0.996006 0.815450
O O5 0.947635 0.726898 0.081399
O O6 0.184839 0.892588 0.238391
O O7 0.962491 0.739733 0.974849
O O8 0.171257 0.911877 0.379938
O O9 0.000000 0.334871 0.750000
O O10 0.500000 0.000000 0.500000
#
# Coordination Sequence:
#
# PCOD9289276 Si02
#       5
#     8   8   4   8   8
#     4  11  24  41  67 101 142 184 228 281 343 413
#     4  12  23  42  65 104 139 181 228 281 349 412
#     4  10  24  40  68 100 142 188 226 278 346 418
#     4  10  22  40  63 102 145 181 222 279 351 421
#     4  12  24  43  67  97 143 183 229 284 347 417
#
# _framework density 23.274059999999999
#
# number of rings (size 3 to 8) (size 9 to 14) (size 15 to 20)
#    0.000    0.889    4.444    2.000    1.556    1.778 
#    0.000    0.000    0.000    1.333    0.000    0.000 
#    0.000    0.000    0.000    0.000    0.000    0.000 
#
# Total GULP energy -100521.517739 kJ/mol
# GULP energy per Si atom -5584.528763 kJ/mol
# Density = 2.322109 g / cm^3
# Si number density = 23.274060 Si / 1000 Ang^3
#
#
#
# Elastic Constant Matrix: (Units=GPa)
#
#
# Indices 1 2 3 4 5 6 
#
# 1 167.0963 35.3594 71.4450 -0.0019 -13.2672 -0.0017
# 2 35.3594 15.8063 11.1486 -0.0129 -13.7032 -0.0135
# 3 71.4450 11.1486 126.4418 -0.0080 12.9468 -0.0072
# 4 -0.0019 -0.0129 -0.0080 15.2672 -0.0012 -5.6345
# 5 -13.2672 -13.7032 12.9468 -0.0012 74.7933 -0.0007
# 6 -0.0017 -0.0135 -0.0072 -5.6345 -0.0007 24.8154
#
#
#
# Elastic Compliance Matrix: (Units=1/GPa)
#
#
# Indices 1 2 3 4 5 6 
#
# 1 0.014595 -0.030736 -0.005319 -0.000037 -0.002122 -0.000026
# 2 -0.030736 0.149307 0.001995 0.000169 0.021558 0.000119
# 3 -0.005319 0.001995 0.010992 0.000009 -0.002481 0.000006
# 4 -0.000037 0.000169 0.000009 0.071491 0.000024 0.016233
# 5 -0.002122 0.021558 -0.002481 0.000024 0.017373 0.000017
# 6 -0.000026 0.000119 0.000006 0.016233 0.000017 0.043983
#
#
# Mechanical properties :
#
#
# Convention : Reuss Voigt Hill
#
# Bulk Modulus (GPa) = 9.36566 60.58340 34.97453
# Shear Modulus (GPa) = 12.15208 35.73460 23.94334
#
# Velocity S-wave (km/s) = 2.28750 3.92265 3.21090
# Velocity P-wave (km/s) = 3.31808 6.82665 5.36716
#
# Compressibility (1/GPa) = 0.10677306
#
# Stress axis : x y z
#
# Youngs Moduli (GPa) = 68.51835 6.69763 90.97149
#
# Poissons Ratio (x) = 0.20586 0.48390
# Poissons Ratio (y) = 2.10601 -0.18153
# Poissons Ratio (z) = 0.36447 -0.01336
#
# Static dielectric constant tensor:
#      x y z
#    x 1.937090 0.000000 -0.076780 
#    y 0.000000 1.832930 -0.000010 
#    z -0.076780 -0.000010 2.093160 
# 
# From -- ./inp_files/252790.got.cif
#   From: 2010.05.17/outbox.cif.g08.bks.cpg/sg15_127_cif.got.tgz:252790.got - 2010.06.03 18:47:42.
