data_PCOD9289192
_publ_section_title
;
Structure prediction by ZEFSAII (Michael W. Deem and Ramdas Pophale) SiO2 
 PCOD9289192
Probable space group: C 2/C
;
_chemical_formula_sum "Si O2"
_cell_formula_units_Z 36
_cell_length_a 16.116310
_cell_length_b 20.250163
_cell_length_c 5.633451
_cell_angle_alpha 90.000000
_cell_angle_beta 56.679427
_cell_angle_gamma 90.000000
_cell_volume 1536.287069
_symmetry_space_group_name_H-M "C 2/C"
_symmetry_group_IT_number 15
_symmetry_cell_setting 'monoclinic'
loop_
_space_group_symop_operation_xyz
x,y,z
-x,y,1/2-z
-x,-y,-z
x,-y,1/2+z
1/2+x,1/2+y,z
1/2-x,1/2+y,1/2-z
1/2-x,1/2-y,-z
1/2+x,1/2-y,1/2+z
loop_
_atom_site_type_symbol
_atom_site_label
_atom_site_fract_x
_atom_site_fract_y
_atom_site_fract_z
Si Si1 0.790071 0.966240 0.360114
Si Si2 0.131741 0.766356 0.703206
Si Si3 0.832152 0.810815 0.355738
Si Si4 0.572433 0.058504 0.312428
Si Si5 0.500000 0.842946 0.250000
O O1 0.801667 0.887101 0.365996
O O2 0.670457 0.971109 0.548392
O O3 0.824958 0.997032 0.050928
O O4 0.250000 0.750000 0.500000
O O5 0.108841 0.795750 0.478945
O O6 0.063071 0.702484 0.826135
O O7 0.118075 0.807781 0.963535
O O8 0.750000 0.750000 0.500000
O O9 0.500000 0.097442 0.250000
O O10 0.584355 0.110195 0.504124
O O11 0.500000 0.000000 0.500000
#
# Coordination Sequence:
#
# PCOD9289192 Si02
#       5
#     8   8   8   8   4
#     4  12  24  40  63  93 129 173 214 256 321 393
#     4  10  23  40  60  89 120 163 213 262 310 369
#     4  10  22  40  62  86 126 164 211 267 309 361
#     4  12  23  35  52  87 135 174 208 243 302 399
#     4  12  26  38  64  88 128 180 210 262 324 376
#
# _framework density 23.433121
#
# number of rings (size 3 to 8) (size 9 to 14) (size 15 to 20)
#    0.000    0.889    3.333    4.000    9.333    0.000 
#    0.000    0.000    0.000    0.000    0.000   15.556 
#    0.000    0.000    0.000    0.000    0.000    0.000 
#
# Total GULP energy -100290.469053 kJ/mol
# GULP energy per Si atom -5571.692725 kJ/mol
# Density = 2.337979 g / cm^3
# Si number density = 23.433121 Si / 1000 Ang^3
#
#
#
# Elastic Constant Matrix: (Units=GPa)
#
#
# Indices 1 2 3 4 5 6 
#
# 1 39.4795 29.2156 27.4371 0.0000 16.2065 0.0000
# 2 29.2156 159.8794 51.2023 0.0000 14.5702 0.0000
# 3 27.4371 51.2023 153.5957 0.0000 44.5099 0.0000
# 4 0.0000 0.0000 0.0000 47.0080 0.0000 7.0647
# 5 16.2065 14.5702 44.5099 0.0000 39.8702 0.0000
# 6 0.0000 0.0000 0.0000 7.0647 0.0000 38.7130
#
#
#
# Elastic Compliance Matrix: (Units=1/GPa)
#
#
# Indices 1 2 3 4 5 6 
#
# 1 0.034237 -0.004831 -0.001455 0.000000 -0.010527 0.000000
# 2 -0.004831 0.007684 -0.002149 0.000000 0.001555 0.000000
# 3 -0.001455 -0.002149 0.010478 0.000000 -0.010320 0.000000
# 4 0.000000 0.000000 0.000000 0.021873 0.000000 -0.003992
# 5 -0.010527 0.001555 -0.010320 0.000000 0.040313 0.000000
# 6 0.000000 0.000000 0.000000 -0.003992 0.000000 0.026560
#
#
# Mechanical properties :
#
#
# Convention : Reuss Voigt Hill
#
# Bulk Modulus (GPa) = 28.14609 63.18496 45.66553
# Shear Modulus (GPa) = 29.43645 41.45821 35.44733
#
# Velocity S-wave (km/s) = 3.54812 4.21077 3.89357
# Velocity P-wave (km/s) = 5.36869 7.11781 6.30421
#
# Compressibility (1/GPa) = 0.03552891
#
# Stress axis : x y z
#
# Youngs Moduli (GPa) = 29.20799 130.13875 95.44251
#
# Poissons Ratio (x) = 0.62871 0.13884
# Poissons Ratio (y) = 0.14111 0.20512
# Poissons Ratio (z) = 0.04249 0.27969
#
# Static dielectric constant tensor:
#      x y z
#    x 1.694320 0.000000 0.069250 
#    y 0.000000 1.796340 0.000000 
#    z 0.069250 0.000000 2.059430 
# 
# From -- ./inp_files/9777.got.cif
#   From: 2010.05.17/outbox.cif.g08.bks.cpg/sg15_5_cif.got.tgz:9777.got - 2010.06.03 18:47:42.
