data_PCOD9289886
_publ_section_title
;
Structure prediction by ZEFSAII (Michael W. Deem and Ramdas Pophale) SiO2 
 PCOD9289886
Probable space group: C 2/C
;
_chemical_formula_sum "Si O2"
_cell_formula_units_Z 48
_cell_length_a 5.343313
_cell_length_b 18.448637
_cell_length_c 24.838969
_cell_angle_alpha 90.000000
_cell_angle_beta 105.778195
_cell_angle_gamma 90.000000
_cell_volume 2356.289649
_symmetry_space_group_name_H-M "C 2/C"
_symmetry_group_IT_number 15
_symmetry_cell_setting 'monoclinic'
loop_
_space_group_symop_operation_xyz
x,y,z
-x,y,1/2-z
-x,-y,-z
x,-y,1/2+z
1/2+x,1/2+y,z
1/2-x,1/2+y,1/2-z
1/2-x,1/2-y,-z
1/2+x,1/2-y,1/2+z
loop_
_atom_site_type_symbol
_atom_site_label
_atom_site_fract_x
_atom_site_fract_y
_atom_site_fract_z
Si Si1 0.029204 0.528738 0.562380
Si Si2 0.500000 0.241760 0.250000
Si Si3 0.958542 0.200649 0.043563
Si Si4 0.571220 0.260390 0.369997
Si Si5 0.000000 0.855990 0.750000
Si Si6 0.281232 0.112414 0.371681
Si Si7 0.480886 0.620633 0.940136
O O1 0.075242 0.460876 0.604172
O O2 0.288326 0.577719 0.575698
O O3 0.000000 0.500000 0.500000
O O4 0.768958 0.571969 0.562080
O O5 0.561354 0.284905 0.307993
O O6 0.243352 0.193531 0.245839
O O7 0.852668 0.145120 0.082297
O O8 0.152669 0.254503 0.085058
O O9 0.750000 0.250000 0.000000
O O10 0.084757 0.153482 0.002792
O O11 0.471360 0.177772 0.365704
O O12 0.402774 0.312749 0.397197
O O13 0.908771 0.897559 0.690733
#
# Coordination Sequence:
#
# PCOD9289886 Si02
#       7
#     8   4   8   8   4   8   8
#     4  12  26  42  62  97 134 174 210 267 329 403
#     4  10  22  40  69  96 129 162 230 276 328 382
#     4  12  22  39  66 103 133 170 215 284 330 403
#     4  11  24  42  68  98 131 176 225 279 332 397
#     4  10  22  42  65 100 123 172 220 286 320 384
#     4  11  24  41  70  92 135 169 232 266 338 390
#     4  12  26  41  64  98 138 170 211 264 342 395
#
# _framework density 20.371009999999998
#
# number of rings (size 3 to 8) (size 9 to 14) (size 15 to 20)
#    0.000    0.667    5.000    3.000    2.333    0.000 
#    0.000    0.833    0.000    4.000    0.000    0.000 
#    0.000    0.000    0.000    0.000    0.000    0.000 
#
# Total GULP energy -134131.212770 kJ/mol
# GULP energy per Si atom -5588.800532 kJ/mol
# Density = 2.032464 g / cm^3
# Si number density = 20.371010 Si / 1000 Ang^3
#
#
#
# Elastic Constant Matrix: (Units=GPa)
#
#
# Indices 1 2 3 4 5 6 
#
# 1 85.8971 31.4656 27.8748 0.0000 6.3507 0.0000
# 2 31.4656 78.3467 43.7369 0.0000 9.8188 0.0000
# 3 27.8748 43.7369 185.5889 0.0000 5.6567 0.0000
# 4 0.0000 0.0000 0.0000 230.3166 0.0000 -10.0765
# 5 6.3507 9.8188 5.6567 0.0000 32.7221 0.0000
# 6 0.0000 0.0000 0.0000 -10.0765 0.0000 34.3259
#
#
#
# Elastic Compliance Matrix: (Units=1/GPa)
#
#
# Indices 1 2 3 4 5 6 
#
# 1 0.013809 -0.004922 -0.000882 0.000000 -0.001051 0.000000
# 2 -0.004922 0.016946 -0.003145 0.000000 -0.003586 0.000000
# 3 -0.000882 -0.003145 0.006261 0.000000 0.000033 0.000000
# 4 0.000000 0.000000 0.000000 0.004398 0.000000 0.001291
# 5 -0.001051 -0.003586 0.000033 0.000000 0.031835 0.000000
# 6 0.000000 0.000000 0.000000 0.001291 0.000000 0.029511
#
#
# Mechanical properties :
#
#
# Convention : Reuss Voigt Hill
#
# Bulk Modulus (GPa) = 52.30804 61.77637 57.04221
# Shear Modulus (GPa) = 39.36086 75.92328 57.64207
#
# Velocity S-wave (km/s) = 4.40045 6.11156 5.32518
# Velocity P-wave (km/s) = 7.17997 8.95506 8.11619
#
# Compressibility (1/GPa) = 0.01911752
#
# Stress axis : x y z
#
# Youngs Moduli (GPa) = 72.41819 59.01267 159.72134
#
# Poissons Ratio (x) = 0.29044 0.14089
# Poissons Ratio (y) = 0.35642 0.50232
# Poissons Ratio (z) = 0.06388 0.18559
#
# Static dielectric constant tensor:
#      x y z
#    x 1.783570 0.000000 0.007640 
#    y 0.000000 1.742860 0.000000 
#    z 0.007640 0.000000 1.735850 
# 
# From -- ./inp_files/260684.got.cif
#   From: 2010.05.17/outbox.cif.g08.bks.cpg/sg15_131_cif.got.tgz:260684.got - 2010.06.03 18:47:42.
