data_PCOD9289007
_publ_section_title
;
Structure prediction by ZEFSAII (Michael W. Deem and Ramdas Pophale) SiO2 
 PCOD9289007
Probable space group: C 2/C
;
_chemical_formula_sum "Si O2"
_cell_formula_units_Z 40
_cell_length_a 24.643370
_cell_length_b 12.611578
_cell_length_c 9.096851
_cell_angle_alpha 90.000000
_cell_angle_beta 146.741954
_cell_angle_gamma 90.000000
_cell_volume 1550.481182
_symmetry_space_group_name_H-M "C 2/C"
_symmetry_group_IT_number 15
_symmetry_cell_setting 'monoclinic'
loop_
_space_group_symop_operation_xyz
x,y,z
-x,y,1/2-z
-x,-y,-z
x,-y,1/2+z
1/2+x,1/2+y,z
1/2-x,1/2+y,1/2-z
1/2-x,1/2-y,-z
1/2+x,1/2-y,1/2+z
loop_
_atom_site_type_symbol
_atom_site_label
_atom_site_fract_x
_atom_site_fract_y
_atom_site_fract_z
Si Si1 0.139139 0.589161 0.322412
Si Si2 0.576276 0.289906 0.637008
Si Si3 0.656422 0.511260 0.193007
Si Si4 0.500000 0.333121 0.750000
Si Si5 0.141992 0.216860 0.993548
Si Si6 0.500000 0.976475 0.250000
O O1 0.233036 0.515459 0.515223
O O2 0.188275 0.699839 0.488255
O O3 0.068154 0.546987 0.293700
O O4 0.073867 0.585051 0.027802
O O5 0.608022 0.412156 0.704283
O O6 0.560467 0.263331 0.768805
O O7 0.468777 0.282874 0.321315
O O8 0.645568 0.237502 0.670190
O O9 0.583270 0.412409 0.005262
O O10 0.664947 0.593468 0.072761
#
# Coordination Sequence:
#
# PCOD9289007 Si02
#       6
#     8   8   8   4   8   4
#     4  11  24  47  76 100 156 200 251 308 364 447
#     4   9  20  38  68 104 148 185 243 297 371 434
#     4  10  22  39  73 110 148 195 240 305 385 442
#     4  12  20  36  72 112 150 188 234 320 388 442
#     4   9  20  42  67 102 151 191 241 300 365 443
#     4  10  26  46  70 102 142 214 258 286 380 440
#
# _framework density 25.798442999999999
#
# number of rings (size 3 to 8) (size 9 to 14) (size 15 to 20)
#    1.200    0.800    2.000    1.800    2.800    0.800 
#    0.000   12.000    0.000    0.000    0.000    0.000 
#    0.000    1.600    0.000    0.000    0.000    0.000 
#
# Total GULP energy -111567.030534 kJ/mol
# GULP energy per Si atom -5578.351527 kJ/mol
# Density = 2.573972 g / cm^3
# Si number density = 25.798443 Si / 1000 Ang^3
#
#
#
# Elastic Constant Matrix: (Units=GPa)
#
#
# Indices 1 2 3 4 5 6 
#
# 1 106.9434 29.3062 43.5779 0.0000 -36.0429 0.0000
# 2 29.3062 69.5900 31.4924 0.0000 -17.2496 0.0000
# 3 43.5779 31.4924 96.7826 0.0000 -15.9095 0.0000
# 4 0.0000 0.0000 0.0000 31.6391 0.0000 -6.4717
# 5 -36.0429 -17.2496 -15.9095 0.0000 49.6225 0.0000
# 6 0.0000 0.0000 0.0000 -6.4717 0.0000 23.1283
#
#
#
# Elastic Compliance Matrix: (Units=1/GPa)
#
#
# Indices 1 2 3 4 5 6 
#
# 1 0.014594 -0.002000 -0.004531 0.000000 0.008452 0.000000
# 2 -0.002000 0.018055 -0.004414 0.000000 0.003408 0.000000
# 3 -0.004531 -0.004414 0.013740 0.000000 -0.000420 0.000000
# 4 0.000000 0.000000 0.000000 0.033525 0.000000 0.009381
# 5 0.008452 0.003408 -0.000420 0.000000 0.027341 0.000000
# 6 0.000000 0.000000 0.000000 0.009381 0.000000 0.045862
#
#
# Mechanical properties :
#
#
# Convention : Reuss Voigt Hill
#
# Bulk Modulus (GPa) = 40.81999 53.56322 47.19161
# Shear Modulus (GPa) = 27.29669 32.14061 29.71865
#
# Velocity S-wave (km/s) = 3.25634 3.53347 3.39773
# Velocity P-wave (km/s) = 5.47680 6.12001 5.80731
#
# Compressibility (1/GPa) = 0.02449780
#
# Stress axis : x y z
#
# Youngs Moduli (GPa) = 68.52267 55.38783 72.78196
#
# Poissons Ratio (x) = 0.11080 0.32976
# Poissons Ratio (y) = 0.13707 0.32125
# Poissons Ratio (z) = 0.31046 0.24448
#
# Static dielectric constant tensor:
#      x y z
#    x 1.910920 0.000000 -0.103380 
#    y 0.000000 2.098250 0.000000 
#    z -0.103380 0.000000 1.954240 
# 
# From -- ./inp_files/66062.got.cif
#   From: 2010.05.17/outbox.cif.g08.bks.cpg/sg15_34_cif.got.tgz:66062.got - 2010.06.03 18:47:42.
