data_PCOD9289841
_publ_section_title
;
Structure prediction by ZEFSAII (Michael W. Deem and Ramdas Pophale) SiO2 
 PCOD9289841
Probable space group: C 2/C
;
_chemical_formula_sum "Si O2"
_cell_formula_units_Z 40
_cell_length_a 4.951275
_cell_length_b 14.163872
_cell_length_c 19.831610
_cell_angle_alpha 90.000000
_cell_angle_beta 79.223011
_cell_angle_gamma 90.000000
_cell_volume 1366.245543
_symmetry_space_group_name_H-M "C 2/C"
_symmetry_group_IT_number 15
_symmetry_cell_setting 'monoclinic'
loop_
_space_group_symop_operation_xyz
x,y,z
-x,y,1/2-z
-x,-y,-z
x,-y,1/2+z
1/2+x,1/2+y,z
1/2-x,1/2+y,1/2-z
1/2-x,1/2-y,-z
1/2+x,1/2-y,1/2+z
loop_
_atom_site_type_symbol
_atom_site_label
_atom_site_fract_x
_atom_site_fract_y
_atom_site_fract_z
Si Si1 0.759417 0.014293 0.934957
Si Si2 0.201672 0.842025 0.795398
Si Si3 0.536302 0.848004 0.588721
Si Si4 0.800636 0.624596 0.701732
Si Si5 0.548196 0.677297 0.966710
O O1 0.682077 0.073959 0.871735
O O2 0.042990 0.065976 0.946142
O O3 0.754456 0.164411 0.018040
O O4 0.500000 0.000000 0.000000
O O5 0.500000 0.831470 0.750000
O O6 0.288947 0.891694 0.859986
O O7 0.108265 0.734218 0.813219
O O8 0.000000 0.886596 0.750000
O O9 0.465082 0.737731 0.601317
O O10 0.259781 0.905636 0.588906
O O11 0.500000 0.620408 0.750000
O O12 0.000000 0.582661 0.750000
O O13 0.750000 0.750000 0.000000
#
# Coordination Sequence:
#
# PCOD9289841 Si02
#       5
#     8   8   8   8   8
#     4  10  22  45  67 108 151 199 267 336 418 499
#     4  10  22  40  70  99 137 194 254 315 402 495
#     4  10  22  41  64 100 141 190 250 331 401 486
#     4  10  22  44  70 101 144 202 257 328 417 504
#     4  10  22  40  68  97 143 192 252 322 405 486
#
# _framework density 29.277312999999999
#
# number of rings (size 3 to 8) (size 9 to 14) (size 15 to 20)
#    0.000    2.000    2.000    0.000    2.800    3.200 
#    7.200    2.000    0.000    0.000    0.000    0.000 
#    0.000    0.000    0.000    0.000    0.000    0.000 
#
# Total GULP energy -111476.025521 kJ/mol
# GULP energy per Si atom -5573.801276 kJ/mol
# Density = 2.921068 g / cm^3
# Si number density = 29.277313 Si / 1000 Ang^3
#
#
#
# Elastic Constant Matrix: (Units=GPa)
#
#
# Indices 1 2 3 4 5 6 
#
# 1 225.4068 55.0044 66.5094 0.0000 15.9466 0.0000
# 2 55.0044 189.2176 20.8589 0.0000 24.0276 0.0000
# 3 66.5094 20.8589 105.0255 0.0000 2.3700 0.0000
# 4 0.0000 0.0000 0.0000 94.4659 0.0000 5.6083
# 5 15.9466 24.0276 2.3700 0.0000 54.4501 0.0000
# 6 0.0000 0.0000 0.0000 5.6083 0.0000 53.8850
#
#
#
# Elastic Compliance Matrix: (Units=1/GPa)
#
#
# Indices 1 2 3 4 5 6 
#
# 1 0.005806 -0.001180 -0.003419 0.000000 -0.001031 0.000000
# 2 -0.001180 0.005958 -0.000385 0.000000 -0.002267 0.000000
# 3 -0.003419 -0.000385 0.011748 0.000000 0.000660 0.000000
# 4 0.000000 0.000000 0.000000 0.010652 0.000000 -0.001109
# 5 -0.001031 -0.002267 0.000660 0.000000 0.019639 0.000000
# 6 0.000000 0.000000 0.000000 -0.001109 0.000000 0.018673
#
#
# Mechanical properties :
#
#
# Convention : Reuss Voigt Hill
#
# Bulk Modulus (GPa) = 73.83124 89.37725 81.60424
# Shear Modulus (GPa) = 57.49766 65.71202 61.60484
#
# Velocity S-wave (km/s) = 4.43640 4.74272 4.59211
# Velocity P-wave (km/s) = 7.17738 7.78366 7.48666
#
# Compressibility (1/GPa) = 0.01354440
#
# Stress axis : x y z
#
# Youngs Moduli (GPa) = 172.22957 167.83506 85.11815
#
# Poissons Ratio (x) = 0.19804 0.29104
# Poissons Ratio (y) = 0.20323 0.03277
# Poissons Ratio (z) = 0.58890 0.06461
#
# Static dielectric constant tensor:
#      x y z
#    x 2.163180 0.000000 0.172110 
#    y 0.000000 2.572300 0.000000 
#    z 0.172110 0.000000 2.412610 
# 
# From -- ./inp_files/184332.got.cif
#   From: 2010.05.17/outbox.cif.g08.bks.cpg/sg15_93_cif.got.tgz:184332.got - 2010.06.03 18:47:42.
