data_PCOD9289765
_publ_section_title
;
Structure prediction by ZEFSAII (Michael W. Deem and Ramdas Pophale) SiO2 
 PCOD9289765
Probable space group: C 2/C
;
_chemical_formula_sum "Si O2"
_cell_formula_units_Z 36
_cell_length_a 9.816374
_cell_length_b 15.021259
_cell_length_c 15.399149
_cell_angle_alpha 90.000000
_cell_angle_beta 142.051796
_cell_angle_gamma 90.000000
_cell_volume 1396.346331
_symmetry_space_group_name_H-M "C 2/C"
_symmetry_group_IT_number 15
_symmetry_cell_setting 'monoclinic'
loop_
_space_group_symop_operation_xyz
x,y,z
-x,y,1/2-z
-x,-y,-z
x,-y,1/2+z
1/2+x,1/2+y,z
1/2-x,1/2+y,1/2-z
1/2-x,1/2-y,-z
1/2+x,1/2-y,1/2+z
loop_
_atom_site_type_symbol
_atom_site_label
_atom_site_fract_x
_atom_site_fract_y
_atom_site_fract_z
Si Si1 0.249382 0.755745 0.102404
Si Si2 0.000000 0.264182 0.750000
Si Si3 0.152992 0.398844 0.685568
Si Si4 0.256232 0.597797 0.620733
Si Si5 0.290870 0.925072 0.207709
O O1 0.500000 0.777911 0.250000
O O2 0.214435 0.661701 0.133197
O O3 0.142385 0.847611 0.087158
O O4 0.250000 0.750000 0.000000
O O5 0.110835 0.325251 0.735624
O O6 0.178120 0.195815 0.879480
O O7 0.292133 0.477059 0.801591
O O8 0.920982 0.442098 0.534110
O O9 0.500000 0.552117 0.750000
O O10 0.167816 0.613228 0.674015
O O11 0.500000 0.947382 0.250000
#
# Coordination Sequence:
#
# PCOD9289765 Si02
#       5
#     8   4   8   8   8
#     4  11  25  47  74 106 148 197 245 302 373 445
#     4  10  22  40  68 100 136 188 244 290 370 426
#     4  12  22  44  74 100 146 190 243 307 367 437
#     4  10  23  43  71 101 141 186 243 301 365 442
#     4  11  23  43  68 104 138 190 240 296 368 433
#
# _framework density 25.781569999999999
#
# number of rings (size 3 to 8) (size 9 to 14) (size 15 to 20)
#    0.667    0.444    3.333    4.000    0.000    0.889 
#    0.000    2.222    0.000    0.000    0.000    0.000 
#    0.000    0.000    0.000    0.000    0.000    0.000 
#
# Total GULP energy -100212.084008 kJ/mol
# GULP energy per Si atom -5567.338000 kJ/mol
# Density = 2.572289 g / cm^3
# Si number density = 25.781570 Si / 1000 Ang^3
#
#
#
# Elastic Constant Matrix: (Units=GPa)
#
#
# Indices 1 2 3 4 5 6 
#
# 1 85.2917 28.9840 12.3108 0.0000 -33.9579 -0.0001
# 2 28.9840 188.6393 25.8060 0.0000 -23.9283 0.0001
# 3 12.3108 25.8060 88.2079 -0.0001 -15.9337 0.0001
# 4 0.0000 0.0000 -0.0001 20.0815 0.0000 -11.3756
# 5 -33.9579 -23.9283 -15.9337 0.0000 38.1220 0.0002
# 6 -0.0001 0.0001 0.0001 -11.3756 0.0002 11.3346
#
#
#
# Elastic Compliance Matrix: (Units=1/GPa)
#
#
# Indices 1 2 3 4 5 6 
#
# 1 0.018308 -0.000862 0.000590 0.000000 0.016013 -0.000001
# 2 -0.000862 0.005904 -0.001164 0.000000 0.002451 0.000000
# 3 0.000590 -0.001164 0.012502 0.000000 0.005020 -0.000001
# 4 0.000000 0.000000 0.000000 0.115410 -0.000001 0.115828
# 5 0.016013 0.002451 0.005020 -0.000001 0.044132 -0.000002
# 6 -0.000001 0.000000 -0.000001 0.115828 -0.000002 0.204472
#
#
# Mechanical properties :
#
#
# Convention : Reuss Voigt Hill
#
# Bulk Modulus (GPa) = 29.55076 55.14895 42.34985
# Shear Modulus (GPa) = 12.05164 33.57683 22.81424
#
# Velocity S-wave (km/s) = 2.16441 3.61273 2.97796
# Velocity P-wave (km/s) = 4.21107 6.23215 5.31850
#
# Compressibility (1/GPa) = 0.03384008
#
# Stress axis : x y z
#
# Youngs Moduli (GPa) = 54.62118 169.38329 79.98766
#
# Poissons Ratio (x) = 0.14608 -0.04717
# Poissons Ratio (y) = 0.04711 0.09311
# Poissons Ratio (z) = -0.03221 0.19718
#
# Static dielectric constant tensor:
#      x y z
#    x 2.108410 0.000000 0.075380 
#    y 0.000000 2.341940 0.000000 
#    z 0.075380 0.000000 2.018030 
# 
# From -- ./inp_files/144829.got.cif
#   From: 2010.05.17/outbox.cif.g08.bks.cpg/sg15_73_cif.got.tgz:144829.got - 2010.06.03 18:47:42.
