data_PCOD9289615
_publ_section_title
;
Structure prediction by ZEFSAII (Michael W. Deem and Ramdas Pophale) SiO2 
 PCOD9289615
Probable space group: C 2/C
;
_chemical_formula_sum "Si O2"
_cell_formula_units_Z 52
_cell_length_a 16.467311
_cell_length_b 8.377412
_cell_length_c 23.146742
_cell_angle_alpha 90.000000
_cell_angle_beta 135.913956
_cell_angle_gamma 90.000000
_cell_volume 2221.611258
_symmetry_space_group_name_H-M "C 2/C"
_symmetry_group_IT_number 15
_symmetry_cell_setting 'monoclinic'
loop_
_space_group_symop_operation_xyz
x,y,z
-x,y,1/2-z
-x,-y,-z
x,-y,1/2+z
1/2+x,1/2+y,z
1/2-x,1/2+y,1/2-z
1/2-x,1/2-y,-z
1/2+x,1/2-y,1/2+z
loop_
_atom_site_type_symbol
_atom_site_label
_atom_site_fract_x
_atom_site_fract_y
_atom_site_fract_z
Si Si1 0.810904 0.064625 0.855558
Si Si2 0.295692 0.497358 0.977355
Si Si3 0.606575 0.837239 0.440490
Si Si4 0.746954 0.084658 0.127173
Si Si5 0.000000 0.060266 0.750000
Si Si6 0.989897 0.804902 0.119164
Si Si7 0.879431 0.517610 0.832298
O O1 0.766323 0.243357 0.848881
O O2 0.928534 0.079961 0.878483
O O3 0.712482 0.989235 0.765130
O O4 0.824008 0.984674 0.924298
O O5 0.354805 0.653188 0.037627
O O6 0.356151 0.347036 0.037713
O O7 0.161795 0.551336 0.918518
O O8 0.665118 0.906929 0.529010
O O9 0.467751 0.838688 0.367496
O O10 0.881009 0.042456 0.183913
O O11 0.690902 0.963587 0.144479
O O12 0.011251 0.163597 0.697486
O O13 0.032669 0.632024 0.121272
#
# Coordination Sequence:
#
# PCOD9289615 Si02
#       7
#     8   8   8   8   4   8   8
#     4  10  23  41  64  95 130 166 216 263 318 385
#     4  10  22  41  65  93 126 172 218 262 317 387
#     4  10  22  40  66  92 126 168 222 261 316 386
#     4  10  22  42  65  95 121 173 218 262 318 382
#     4  12  22  42  70  88 130 168 220 264 310 388
#     4  11  24  42  63  96 130 167 211 268 329 375
#     4  11  24  41  64  98 131 163 213 272 328 374
#
# _framework density 23.406434999999998
#
# number of rings (size 3 to 8) (size 9 to 14) (size 15 to 20)
#    0.000    1.538    3.077    0.923    2.154    2.462 
#    2.769    0.000    0.000    0.000    0.000    0.000 
#    0.000    0.000    0.000    0.000    0.000    0.000 
#
# Total GULP energy -145363.452916 kJ/mol
# GULP energy per Si atom -5590.902035 kJ/mol
# Density = 2.335316 g / cm^3
# Si number density = 23.406435 Si / 1000 Ang^3
#
#
#
# Elastic Constant Matrix: (Units=GPa)
#
#
# Indices 1 2 3 4 5 6 
#
# 1 132.3619 6.7518 47.3685 0.0000 -7.7823 0.0000
# 2 6.7518 19.5385 7.0341 0.0000 12.2869 0.0000
# 3 47.3685 7.0341 69.9823 0.0000 9.8376 0.0000
# 4 0.0000 0.0000 0.0000 25.0668 0.0000 4.0170
# 5 -7.7823 12.2869 9.8376 0.0000 46.3369 0.0000
# 6 0.0000 0.0000 0.0000 4.0170 0.0000 23.2524
#
#
#
# Elastic Compliance Matrix: (Units=1/GPa)
#
#
# Indices 1 2 3 4 5 6 
#
# 1 0.010674 -0.003751 -0.007462 0.000000 0.004372 0.000000
# 2 -0.003751 0.063850 -0.001453 0.000000 -0.017252 0.000000
# 3 -0.007462 -0.001453 0.020212 0.000000 -0.005159 0.000000
# 4 0.000000 0.000000 0.000000 0.041029 0.000000 -0.007088
# 5 0.004372 -0.017252 -0.005159 0.000000 0.027985 0.000000
# 6 0.000000 0.000000 0.000000 -0.007088 0.000000 0.044231
#
#
# Mechanical properties :
#
#
# Convention : Reuss Voigt Hill
#
# Bulk Modulus (GPa) = 14.40896 38.24350 26.32623
# Shear Modulus (GPa) = 19.49712 29.64643 24.57178
#
# Velocity S-wave (km/s) = 2.88927 3.56278 3.24356
# Velocity P-wave (km/s) = 4.15931 5.77052 5.02985
#
# Compressibility (1/GPa) = 0.06940125
#
# Stress axis : x y z
#
# Youngs Moduli (GPa) = 93.68567 15.66181 49.47649
#
# Poissons Ratio (x) = 0.05875 0.36921
# Poissons Ratio (y) = 0.35143 0.07191
# Poissons Ratio (z) = 0.69911 0.02276
#
# Static dielectric constant tensor:
#      x y z
#    x 1.941370 0.000000 0.023200 
#    y 0.000000 1.922960 0.000000 
#    z 0.023200 0.000000 1.835550 
# 
# From -- ./inp_files/298432.got.cif
#   From: 2010.05.17/outbox.cif.g08.bks.cpg/sg15_150_cif.got.tgz:298432.got - 2010.06.03 18:47:42.
