data_PCOD9289183
_publ_section_title
;
Structure prediction by ZEFSAII (Michael W. Deem and Ramdas Pophale) SiO2 
 PCOD9289183
Probable space group: C 2/C
;
_chemical_formula_sum "Si O2"
_cell_formula_units_Z 44
_cell_length_a 10.844076
_cell_length_b 20.675214
_cell_length_c 9.056621
_cell_angle_alpha 90.000000
_cell_angle_beta 126.856804
_cell_angle_gamma 90.000000
_cell_volume 1624.699943
_symmetry_space_group_name_H-M "C 2/C"
_symmetry_group_IT_number 15
_symmetry_cell_setting 'monoclinic'
loop_
_space_group_symop_operation_xyz
x,y,z
-x,y,1/2-z
-x,-y,-z
x,-y,1/2+z
1/2+x,1/2+y,z
1/2-x,1/2+y,1/2-z
1/2-x,1/2-y,-z
1/2+x,1/2-y,1/2+z
loop_
_atom_site_type_symbol
_atom_site_label
_atom_site_fract_x
_atom_site_fract_y
_atom_site_fract_z
Si Si1 0.167883 0.819664 0.942682
Si Si2 0.282780 0.511330 0.113242
Si Si3 0.073444 0.355483 0.590200
Si Si4 0.500000 0.500000 0.000000
Si Si5 0.286705 0.636713 0.700424
Si Si6 0.000000 0.464816 0.750000
Si Si7 0.000000 0.237791 0.750000
O O1 0.296767 0.859001 0.941883
O O2 0.000000 0.816152 0.750000
O O3 0.250000 0.750000 0.000000
O O4 0.147078 0.842479 0.095091
O O5 0.371805 0.524379 0.027969
O O6 0.367777 0.541728 0.313236
O O7 0.332452 0.435932 0.191407
O O8 0.105342 0.505989 0.936283
O O9 0.896833 0.362726 0.410536
O O10 0.095381 0.413275 0.722347
O O11 0.060261 0.286857 0.666729
O O12 0.356464 0.687290 0.631208
#
# Coordination Sequence:
#
# PCOD9289183 Si02
#       7
#     8   8   8   4   8   4   4
#     4  12  25  40  61  95 140 190 239 284 337 396
#     4  10  23  46  71 103 134 178 220 294 356 430
#     4  10  22  40  62 100 139 184 230 284 332 403
#     4  10  22  44  72 100 138 160 230 286 362 424
#     4  11  23  41  67  96 139 181 236 280 344 416
#     4   9  22  44  74 102 140 174 234 276 356 435
#     4  11  20  32  66  94 136 186 232 276 330 397
#
# _framework density 27.081921000000001
#
# number of rings (size 3 to 8) (size 9 to 14) (size 15 to 20)
#    0.000    1.455    1.818    3.273    0.000    8.000 
#    9.818    0.000    0.000    0.000    0.000    0.000 
#    0.000    0.000    0.000    0.000    0.000    0.000 
#
# Total GULP energy -122672.099312 kJ/mol
# GULP energy per Si atom -5576.004514 kJ/mol
# Density = 2.702028 g / cm^3
# Si number density = 27.081921 Si / 1000 Ang^3
#
#
#
# Elastic Constant Matrix: (Units=GPa)
#
#
# Indices 1 2 3 4 5 6 
#
# 1 176.7129 12.5183 43.7862 0.0000 27.1674 0.0000
# 2 12.5183 88.9511 4.8489 0.0000 15.0626 0.0000
# 3 43.7862 4.8489 89.1410 0.0000 -0.3929 0.0000
# 4 0.0000 0.0000 0.0000 370.6843 0.0000 104.8270
# 5 27.1674 15.0626 -0.3929 0.0000 40.5627 0.0000
# 6 0.0000 0.0000 0.0000 104.8270 0.0000 80.0621
#
#
#
# Elastic Compliance Matrix: (Units=1/GPa)
#
#
# Indices 1 2 3 4 5 6 
#
# 1 0.007313 0.000003 -0.003614 0.000000 -0.004934 0.000000
# 2 0.000003 0.012037 -0.000676 0.000000 -0.004479 0.000000
# 3 -0.003614 -0.000676 0.013042 0.000000 0.002798 0.000000
# 4 0.000000 0.000000 0.000000 0.004284 0.000000 -0.005609
# 5 -0.004934 -0.004479 0.002798 0.000000 0.029648 0.000000
# 6 0.000000 0.000000 0.000000 -0.005609 0.000000 0.019834
#
#
# Mechanical properties :
#
#
# Convention : Reuss Voigt Hill
#
# Bulk Modulus (GPa) = 41.98397 53.01243 47.49820
# Shear Modulus (GPa) = 48.69917 117.83860 83.26888
#
# Velocity S-wave (km/s) = 4.24514 6.60351 5.55102
# Velocity P-wave (km/s) = 6.29003 8.81812 7.65910
#
# Compressibility (1/GPa) = 0.02381862
#
# Stress axis : x y z
#
# Youngs Moduli (GPa) = 136.74897 83.07782 76.67259
#
# Poissons Ratio (x) = -0.00028 0.27709
# Poissons Ratio (y) = -0.00046 0.05184
# Poissons Ratio (z) = 0.49420 0.05617
#
# Static dielectric constant tensor:
#      x y z
#    x 2.039600 0.000000 0.114380 
#    y 0.000000 12.468660 0.000000 
#    z 0.114380 0.000000 2.169170 
# 
# From -- ./inp_files/34530.got.cif
#   From: 2010.05.17/outbox.cif.g08.bks.cpg/sg15_18_cif.got.tgz:34530.got - 2010.06.03 18:47:42.
