data_PCOD9289934
_publ_section_title
;
Structure prediction by ZEFSAII (Michael W. Deem and Ramdas Pophale) SiO2 
 PCOD9289934
Probable space group: C 2/C
;
_chemical_formula_sum "Si O2"
_cell_formula_units_Z 44
_cell_length_a 25.481221
_cell_length_b 5.160901
_cell_length_c 14.339342
_cell_angle_alpha 90.000000
_cell_angle_beta 62.612761
_cell_angle_gamma 90.000000
_cell_volume 1674.355901
_symmetry_space_group_name_H-M "C 2/C"
_symmetry_group_IT_number 15
_symmetry_cell_setting 'monoclinic'
loop_
_space_group_symop_operation_xyz
x,y,z
-x,y,1/2-z
-x,-y,-z
x,-y,1/2+z
1/2+x,1/2+y,z
1/2-x,1/2+y,1/2-z
1/2-x,1/2-y,-z
1/2+x,1/2-y,1/2+z
loop_
_atom_site_type_symbol
_atom_site_label
_atom_site_fract_x
_atom_site_fract_y
_atom_site_fract_z
Si Si1 0.700716 0.488949 0.383790
Si Si2 0.124386 0.489982 0.489902
Si Si3 0.928782 0.466736 0.152507
Si Si4 0.690481 0.668872 0.190234
Si Si5 0.104556 0.825179 0.174833
Si Si6 0.500000 0.309040 0.750000
O O1 0.673883 0.765734 0.433203
O O2 0.712313 0.509486 0.262735
O O3 0.761034 0.378652 0.378133
O O4 0.652755 0.266355 0.444895
O O5 0.071581 0.450438 0.458397
O O6 0.106431 0.430487 0.610231
O O7 0.868082 0.317796 0.228516
O O8 0.916920 0.752251 0.203479
O O9 0.979056 0.348370 0.176511
O O10 0.666959 0.469369 0.132593
O O11 0.054599 0.010327 0.175379
#
# Coordination Sequence:
#
# PCOD9289934 Si02
#       6
#     8   8   8   8   8   4
#     4  11  23  42  66 106 136 188 218 270 333 405
#     4  11  26  42  70 102 143 172 231 273 339 402
#     4  10  22  45  66  96 134 181 220 286 341 404
#     4  10  22  40  70  93 144 181 225 265 340 400
#     4  11  24  44  68 100 131 180 229 288 334 411
#     4  10  24  44  70  94 128 176 234 280 360 396
#
# _framework density 26.278765
#
# number of rings (size 3 to 8) (size 9 to 14) (size 15 to 20)
#    0.000    1.455    1.818    2.727    7.636    2.182 
#    0.000    3.636    0.000    0.000    0.000    0.000 
#    0.000    0.000    0.000    0.000    0.000    0.000 
#
# Total GULP energy -123298.244596 kJ/mol
# GULP energy per Si atom -5604.465663 kJ/mol
# Density = 2.621895 g / cm^3
# Si number density = 26.278765 Si / 1000 Ang^3
#
#
#
# Elastic Constant Matrix: (Units=GPa)
#
#
# Indices 1 2 3 4 5 6 
#
# 1 112.0149 30.6911 24.0799 0.0006 16.0187 0.0002
# 2 30.6911 102.8582 22.8845 0.0072 -6.8205 0.0059
# 3 24.0799 22.8845 104.9933 -0.0005 17.6872 0.0002
# 4 0.0006 0.0072 -0.0005 37.6391 -0.0002 -2.0867
# 5 16.0187 -6.8205 17.6872 -0.0002 25.4060 0.0000
# 6 0.0002 0.0059 0.0002 -2.0867 0.0000 39.5763
#
#
#
# Elastic Compliance Matrix: (Units=1/GPa)
#
#
# Indices 1 2 3 4 5 6 
#
# 1 0.011153 -0.003743 -0.000440 0.000001 -0.007730 0.000001
# 2 -0.003743 0.012033 -0.003066 -0.000002 0.007724 -0.000002
# 3 -0.000440 -0.003066 0.011765 0.000001 -0.008736 0.000000
# 4 0.000001 -0.000002 0.000001 0.026646 -0.000001 0.001405
# 5 -0.007730 0.007724 -0.008736 -0.000001 0.052391 -0.000001
# 6 0.000001 -0.000002 0.000000 0.001405 -0.000001 0.025342
#
#
# Mechanical properties :
#
#
# Convention : Reuss Voigt Hill
#
# Bulk Modulus (GPa) = 48.88772 52.79749 50.84260
# Shear Modulus (GPa) = 31.12468 36.67167 33.89818
#
# Velocity S-wave (km/s) = 3.44525 3.73967 3.59548
# Velocity P-wave (km/s) = 5.87114 6.22750 6.05194
#
# Compressibility (1/GPa) = 0.02045503
#
# Stress axis : x y z
#
# Youngs Moduli (GPa) = 89.66313 83.10409 84.99618
#
# Poissons Ratio (x) = 0.31102 0.03739
# Poissons Ratio (y) = 0.33557 0.26057
# Poissons Ratio (z) = 0.03944 0.25477
#
# Static dielectric constant tensor:
#      x y z
#    x 2.039410 0.000000 -0.015620 
#    y 0.000000 2.047440 0.000000 
#    z -0.015620 0.000000 2.096010 
# 
# From -- ./inp_files/170823.got.cif
#   From: 2010.05.17/outbox.cif.g08.bks.cpg/sg15_86_cif.got.tgz:170823.got - 2010.06.03 18:47:42.
