data_PCOD9289161
_publ_section_title
;
Structure prediction by ZEFSAII (Michael W. Deem and Ramdas Pophale) SiO2 
 PCOD9289161
Probable space group: C 2/C
;
_chemical_formula_sum "Si O2"
_cell_formula_units_Z 64
_cell_length_a 16.133588
_cell_length_b 16.553679
_cell_length_c 16.083325
_cell_angle_alpha 90.000000
_cell_angle_beta 138.868818
_cell_angle_gamma 90.000000
_cell_volume 2825.435948
_symmetry_space_group_name_H-M "C 2/C"
_symmetry_group_IT_number 15
_symmetry_cell_setting 'monoclinic'
loop_
_space_group_symop_operation_xyz
x,y,z
-x,y,1/2-z
-x,-y,-z
x,-y,1/2+z
1/2+x,1/2+y,z
1/2-x,1/2+y,1/2-z
1/2-x,1/2-y,-z
1/2+x,1/2-y,1/2+z
loop_
_atom_site_type_symbol
_atom_site_label
_atom_site_fract_x
_atom_site_fract_y
_atom_site_fract_z
Si Si1 0.687194 0.731757 0.739131
Si Si2 0.092318 0.799611 0.713098
Si Si3 0.251611 0.875936 0.598885
Si Si4 0.759934 0.549366 0.652693
Si Si5 0.494783 0.871748 0.149413
Si Si6 0.776783 0.083103 0.067585
Si Si7 0.650299 0.399269 0.347945
Si Si8 0.515478 0.622719 0.518814
O O1 0.795856 0.761787 0.758994
O O2 0.682413 0.803095 0.803539
O O3 0.693983 0.650938 0.800743
O O4 0.571524 0.708886 0.591668
O O5 0.998279 0.725024 0.653232
O O6 0.145969 0.843117 0.834869
O O7 0.032405 0.868359 0.610798
O O8 0.237545 0.868019 0.489933
O O9 0.105870 0.889512 0.516612
O O10 0.309717 0.960129 0.672041
O O11 0.872154 0.596151 0.783063
O O12 0.729097 0.585469 0.537470
O O13 0.629480 0.559013 0.604259
O O14 0.500000 0.898147 0.250000
O O15 0.368552 0.905682 0.014172
O O16 0.829092 0.996229 0.136239
O O17 0.500000 0.384191 0.250000
#
# Coordination Sequence:
#
# PCOD9289161 Si02
#       8
#     8   8   8   8   8   8   8   8
#     4  11  23  43  63  97 133 171 224 281 336 396
#     4  11  24  40  65  97 135 178 219 269 339 401
#     4  10  23  42  66  96 132 173 227 285 341 394
#     4  10  22  41  66  98 133 179 224 274 339 401
#     4  10  22  40  61  91 135 169 219 269 324 406
#     4  10  25  42  66  99 134 180 225 274 342 397
#     4  11  23  44  72  98 130 173 235 285 333 404
#     4  11  22  38  65  96 134 170 223 278 329 398
#
# _framework density 22.651373
#
# number of rings (size 3 to 8) (size 9 to 14) (size 15 to 20)
#    0.000    1.500    2.500    1.500    5.250    3.000 
#    4.500    2.500    0.000    0.000    0.000    0.000 
#    0.000    0.000    0.000    0.000    0.000    0.000 
#
# Total GULP energy -178618.651634 kJ/mol
# GULP energy per Si atom -5581.832864 kJ/mol
# Density = 2.259982 g / cm^3
# Si number density = 22.651373 Si / 1000 Ang^3
#
#
#
# Elastic Constant Matrix: (Units=GPa)
#
#
# Indices 1 2 3 4 5 6 
#
# 1 47.8663 18.8173 5.5004 0.0000 -1.9385 0.0000
# 2 18.8173 81.7525 36.4423 0.0000 -11.0212 0.0000
# 3 5.5004 36.4423 61.6225 0.0000 -14.3728 0.0000
# 4 0.0000 0.0000 0.0000 36.0219 0.0000 1.0437
# 5 -1.9385 -11.0212 -14.3728 0.0000 23.6792 0.0000
# 6 0.0000 0.0000 0.0000 1.0437 0.0000 20.2499
#
#
#
# Elastic Compliance Matrix: (Units=1/GPa)
#
#
# Indices 1 2 3 4 5 6 
#
# 1 0.023067 -0.005964 0.001469 0.000000 0.000004 0.000000
# 2 -0.005964 0.018239 -0.009771 0.000000 0.002070 0.000000
# 3 0.001469 -0.009771 0.024280 0.000000 0.010310 0.000000
# 4 0.000000 0.000000 0.000000 0.027802 0.000000 -0.001433
# 5 0.000004 0.002070 0.010310 0.000000 0.049453 0.000000
# 6 0.000000 0.000000 0.000000 -0.001433 0.000000 0.049457
#
#
# Mechanical properties :
#
#
# Convention : Reuss Voigt Hill
#
# Bulk Modulus (GPa) = 26.98732 34.75124 30.86928
# Shear Modulus (GPa) = 21.44241 24.68895 23.06568
#
# Velocity S-wave (km/s) = 3.08007 3.30503 3.19453
# Velocity P-wave (km/s) = 4.95875 5.47169 5.22152
#
# Compressibility (1/GPa) = 0.03705444
#
# Stress axis : x y z
#
# Youngs Moduli (GPa) = 43.35130 54.82614 41.18629
#
# Poissons Ratio (x) = 0.32696 -0.06049
# Poissons Ratio (y) = 0.25853 0.40244
# Poissons Ratio (z) = -0.06367 0.53572
#
# Static dielectric constant tensor:
#      x y z
#    x 1.923340 0.000000 0.024720 
#    y 0.000000 1.856600 0.000000 
#    z 0.024720 0.000000 1.823740 
# 
# From -- ./inp_files/211410.got.cif
#   From: 2010.05.17/outbox.cif.g08.bks.cpg/sg15_106_cif.got.tgz:211410.got - 2010.06.03 18:47:42.
