data_PCOD9289569
_publ_section_title
;
Structure prediction by ZEFSAII (Michael W. Deem and Ramdas Pophale) SiO2 
 PCOD9289569
Probable space group: C 2/C
;
_chemical_formula_sum "Si O2"
_cell_formula_units_Z 40
_cell_length_a 16.915188
_cell_length_b 8.129996
_cell_length_c 11.639714
_cell_angle_alpha 90.000000
_cell_angle_beta 86.549308
_cell_angle_gamma 90.000000
_cell_volume 1597.796131
_symmetry_space_group_name_H-M "C 2/C"
_symmetry_group_IT_number 15
_symmetry_cell_setting 'monoclinic'
loop_
_space_group_symop_operation_xyz
x,y,z
-x,y,1/2-z
-x,-y,-z
x,-y,1/2+z
1/2+x,1/2+y,z
1/2-x,1/2+y,1/2-z
1/2-x,1/2-y,-z
1/2+x,1/2-y,1/2+z
loop_
_atom_site_type_symbol
_atom_site_label
_atom_site_fract_x
_atom_site_fract_y
_atom_site_fract_z
Si Si1 0.899407 0.847012 0.331149
Si Si2 0.500000 0.655137 0.250000
Si Si3 0.075737 0.342579 0.453491
Si Si4 0.287034 0.450442 0.972767
Si Si5 0.750000 0.250000 0.000000
Si Si6 0.630842 0.804617 0.907024
O O1 0.946630 0.752272 0.426243
O O2 0.892590 0.741181 0.218615
O O3 0.932663 0.024423 0.293984
O O4 0.813917 0.884214 0.398749
O O5 0.527094 0.768634 0.352395
O O6 0.167238 0.290067 0.429167
O O7 0.081540 0.540599 0.456866
O O8 0.239217 0.558465 0.067896
O O9 0.225704 0.345429 0.906213
O O10 0.363247 0.358086 0.014067
#
# Coordination Sequence:
#
# PCOD9289569 Si02
#       6
#     8   4   8   8   4   8
#     4  11  23  41  65  90 130 178 216 265 330 395
#     4  12  26  44  64  94 132 176 220 266 328 408
#     4  10  23  42  64  93 128 166 215 272 326 385
#     4   9  20  38  64  97 132 165 212 272 325 383
#     4   8  16  38  64  88 122 162 210 260 310 378
#     4  10  22  40  66 100 130 165 220 275 327 392
#
# _framework density 25.034483000000002
#
# number of rings (size 3 to 8) (size 9 to 14) (size 15 to 20)
#    0.000    2.000    0.000    3.000    0.000   13.600 
#    0.000    3.000    0.000    0.000    0.000    0.000 
#    0.000    0.000    0.000    0.000    0.000    0.000 
#
# Total GULP energy -111372.421442 kJ/mol
# GULP energy per Si atom -5568.621072 kJ/mol
# Density = 2.497750 g / cm^3
# Si number density = 25.034483 Si / 1000 Ang^3
#
#
#
# Elastic Constant Matrix: (Units=GPa)
#
#
# Indices 1 2 3 4 5 6 
#
# 1 69.3207 15.1924 35.5415 0.0000 3.7583 0.0000
# 2 15.1924 157.1120 72.9870 0.0000 18.3469 0.0000
# 3 35.5415 72.9870 155.5884 0.0000 24.4282 0.0000
# 4 0.0000 0.0000 0.0000 47.9963 0.0000 6.9656
# 5 3.7583 18.3469 24.4282 0.0000 41.9709 0.0000
# 6 0.0000 0.0000 0.0000 6.9656 0.0000 49.0488
#
#
#
# Elastic Compliance Matrix: (Units=1/GPa)
#
#
# Indices 1 2 3 4 5 6 
#
# 1 0.016366 0.000155 -0.003929 0.000000 0.000754 0.000000
# 2 0.000155 0.008223 -0.003661 0.000000 -0.001478 0.000000
# 3 -0.003929 -0.003661 0.009614 0.000000 -0.003644 0.000000
# 4 0.000000 0.000000 0.000000 0.021273 0.000000 -0.003021
# 5 0.000754 -0.001478 -0.003644 0.000000 0.026525 0.000000
# 6 0.000000 0.000000 0.000000 -0.003021 0.000000 0.020817
#
#
# Mechanical properties :
#
#
# Convention : Reuss Voigt Hill
#
# Bulk Modulus (GPa) = 51.72755 69.94033 60.83394
# Shear Modulus (GPa) = 40.27930 45.02322 42.65126
#
# Velocity S-wave (km/s) = 4.01553 4.24541 4.13207
# Velocity P-wave (km/s) = 6.49666 7.21316 6.86426
#
# Compressibility (1/GPa) = 0.01933206
#
# Stress axis : x y z
#
# Youngs Moduli (GPa) = 61.10389 121.60796 104.01257
#
# Poissons Ratio (x) = -0.01884 0.40871
# Poissons Ratio (y) = -0.00946 0.38078
# Poissons Ratio (z) = 0.24011 0.44519
#
# Static dielectric constant tensor:
#      x y z
#    x 2.290990 0.000000 -0.133150 
#    y 0.000000 2.227340 0.000000 
#    z -0.133150 0.000000 1.971930 
# 
# From -- ./inp_files/102886.got.cif
#   From: 2010.05.17/outbox.cif.g08.bks.cpg/sg15_52_cif.got.tgz:102886.got - 2010.06.03 18:47:42.
