data_PCOD9289995
_publ_section_title
;
Structure prediction by ZEFSAII (Michael W. Deem and Ramdas Pophale) SiO2 
 PCOD9289995
Probable space group: C 2/C
;
_chemical_formula_sum "Si O2"
_cell_formula_units_Z 44
_cell_length_a 5.264637
_cell_length_b 23.588461
_cell_length_c 15.833218
_cell_angle_alpha 90.000000
_cell_angle_beta 84.794393
_cell_angle_gamma 90.000000
_cell_volume 1958.133461
_symmetry_space_group_name_H-M "C 2/C"
_symmetry_group_IT_number 15
_symmetry_cell_setting 'monoclinic'
loop_
_space_group_symop_operation_xyz
x,y,z
-x,y,1/2-z
-x,-y,-z
x,-y,1/2+z
1/2+x,1/2+y,z
1/2-x,1/2+y,1/2-z
1/2-x,1/2-y,-z
1/2+x,1/2-y,1/2+z
loop_
_atom_site_type_symbol
_atom_site_label
_atom_site_fract_x
_atom_site_fract_y
_atom_site_fract_z
Si Si1 0.901110 0.675927 0.659142
Si Si2 0.693084 0.070858 0.607762
Si Si3 0.500000 0.390917 0.250000
Si Si4 0.503045 0.408862 0.937229
Si Si5 0.532173 0.043354 0.350129
Si Si6 0.987842 0.226273 0.046121
O O1 0.618280 0.651317 0.675869
O O2 0.000000 0.666882 0.750000
O O3 0.056042 0.631455 0.597714
O O4 0.943666 0.740158 0.634298
O O5 0.901975 0.064853 0.528613
O O6 0.817839 0.071073 0.697685
O O7 0.484150 0.021604 0.617187
O O8 0.782274 0.428833 0.900826
O O9 0.509980 0.340859 0.946740
O O10 0.290387 0.427695 0.875189
O O11 0.500000 0.046802 0.250000
O O12 0.250000 0.250000 0.000000
O O13 0.750000 0.250000 0.000000
#
# Coordination Sequence:
#
# PCOD9289995 Si02
#       6
#     8   8   4   8   8   8
#     4  10  23  41  69 105 136 183 239 296 359 422
#     4  11  24  44  74 105 141 187 247 298 362 424
#     4  10  22  40  72 108 144 184 242 306 370 424
#     4  12  27  47  75 107 142 192 244 297 357 439
#     4  12  28  48  70 104 150 193 237 293 365 436
#     4  12  25  47  74  99 142 182 235 296 355 418
#
# _framework density 22.470379000000001
#
# number of rings (size 3 to 8) (size 9 to 14) (size 15 to 20)
#    0.000    0.727    1.818    5.455   10.182    1.455 
#    1.636    0.000    0.000    0.000    0.000    0.000 
#    0.000    0.000    0.000    0.000    0.000    0.000 
#
# Total GULP energy -123053.757815 kJ/mol
# GULP energy per Si atom -5593.352628 kJ/mol
# Density = 2.241924 g / cm^3
# Si number density = 22.470379 Si / 1000 Ang^3
#
#
#
# Elastic Constant Matrix: (Units=GPa)
#
#
# Indices 1 2 3 4 5 6 
#
# 1 86.7976 15.4554 1.3053 0.0000 1.0048 0.0000
# 2 15.4554 120.8112 17.7913 0.0000 9.7910 0.0000
# 3 1.3053 17.7913 76.5950 0.0000 -7.4919 0.0000
# 4 0.0000 0.0000 0.0000 35.9355 0.0000 -5.8781
# 5 1.0048 9.7910 -7.4919 0.0000 36.8759 0.0000
# 6 0.0000 0.0000 0.0000 -5.8781 0.0000 34.8977
#
#
#
# Elastic Compliance Matrix: (Units=1/GPa)
#
#
# Indices 1 2 3 4 5 6 
#
# 1 0.011792 -0.001543 0.000170 0.000000 0.000123 0.000000
# 2 -0.001543 0.009052 -0.002354 0.000000 -0.002839 0.000000
# 3 0.000170 -0.002354 0.013937 0.000000 0.003452 0.000000
# 4 0.000000 0.000000 0.000000 0.028616 0.000000 0.004820
# 5 0.000123 -0.002839 0.003452 0.000000 0.028570 0.000000
# 6 0.000000 0.000000 0.000000 0.004820 0.000000 0.029467
#
#
# Mechanical properties :
#
#
# Convention : Reuss Voigt Hill
#
# Bulk Modulus (GPa) = 36.59639 39.25643 37.92641
# Shear Modulus (GPa) = 36.23249 38.18527 37.20888
#
# Velocity S-wave (km/s) = 4.01990 4.12680 4.07370
# Velocity P-wave (km/s) = 6.15369 6.34157 6.24834
#
# Compressibility (1/GPa) = 0.02732510
#
# Stress axis : x y z
#
# Youngs Moduli (GPa) = 84.80384 110.47758 71.75043
#
# Poissons Ratio (x) = 0.17052 -0.01217
# Poissons Ratio (y) = 0.13089 0.16889
# Poissons Ratio (z) = -0.01438 0.26006
#
# Static dielectric constant tensor:
#      x y z
#    x 2.003720 0.000000 0.030730 
#    y 0.000000 1.948300 0.000000 
#    z 0.030730 0.000000 1.995450 
# 
# From -- ./inp_files/129387.got.cif
#   From: 2010.05.17/outbox.cif.g08.bks.cpg/sg15_65_cif.got.tgz:129387.got - 2010.06.03 18:47:42.
