data_PCOD9289538
_publ_section_title
;
Structure prediction by ZEFSAII (Michael W. Deem and Ramdas Pophale) SiO2 
 PCOD9289538
Probable space group: C 2/C
;
_chemical_formula_sum "Si O2"
_cell_formula_units_Z 44
_cell_length_a 21.114313
_cell_length_b 8.938263
_cell_length_c 9.400678
_cell_angle_alpha 90.000000
_cell_angle_beta 79.524226
_cell_angle_gamma 90.000000
_cell_volume 1744.573929
_symmetry_space_group_name_H-M "C 2/C"
_symmetry_group_IT_number 15
_symmetry_cell_setting 'monoclinic'
loop_
_space_group_symop_operation_xyz
x,y,z
-x,y,1/2-z
-x,-y,-z
x,-y,1/2+z
1/2+x,1/2+y,z
1/2-x,1/2+y,1/2-z
1/2-x,1/2-y,-z
1/2+x,1/2-y,1/2+z
loop_
_atom_site_type_symbol
_atom_site_label
_atom_site_fract_x
_atom_site_fract_y
_atom_site_fract_z
Si Si1 0.400556 0.346674 0.414701
Si Si2 0.355881 0.386920 0.108629
Si Si3 0.242731 0.349213 0.813031
Si Si4 0.885772 0.246543 0.319239
Si Si5 0.000000 0.958944 0.750000
Si Si6 0.667671 0.952544 0.574297
O O1 0.380616 0.368795 0.257381
O O2 0.359379 0.454668 0.531342
O O3 0.470480 0.426154 0.378529
O O4 0.381655 0.176825 0.457576
O O5 0.318334 0.665984 0.307671
O O6 0.285431 0.314038 0.136689
O O7 0.396428 0.284046 0.983430
O O8 0.217937 0.379506 0.664217
O O9 0.206956 0.468226 0.930663
O O10 0.872757 0.422598 0.320787
O O11 0.944278 0.157649 0.223283
#
# Coordination Sequence:
#
# PCOD9289538 Si02
#       6
#     8   8   8   8   4   8
#     4  10  22  40  65  96 129 170 217 262 317 388
#     4   9  20  39  62  94 130 162 209 269 323 372
#     4  10  22  42  66  98 131 162 210 271 328 378
#     4  10  22  42  64  90 134 173 206 263 322 378
#     4  10  24  42  64  92 132 176 214 258 320 380
#     4  10  22  42  70  98 127 167 218 268 320 381
#
# _framework density 25.221057999999999
#
# number of rings (size 3 to 8) (size 9 to 14) (size 15 to 20)
#    0.000    2.182    0.000    2.182    0.000   16.727 
#    0.000   10.909    0.000   14.182    0.000    0.000 
#    0.000    0.000    0.000    0.000    0.000    0.000 
#
# Total GULP energy -123001.501249 kJ/mol
# GULP energy per Si atom -5590.977329 kJ/mol
# Density = 2.516365 g / cm^3
# Si number density = 25.221058 Si / 1000 Ang^3
#
#
#
# Elastic Constant Matrix: (Units=GPa)
#
#
# Indices 1 2 3 4 5 6 
#
# 1 140.5634 64.2305 33.4263 0.0000 -25.8752 0.0000
# 2 64.2305 165.2959 19.8633 0.0000 -30.2674 0.0000
# 3 33.4263 19.8633 107.0494 0.0000 1.4594 0.0000
# 4 0.0000 0.0000 0.0000 32.5566 0.0000 -9.9653
# 5 -25.8752 -30.2674 1.4594 0.0000 46.9260 0.0000
# 6 0.0000 0.0000 0.0000 -9.9653 0.0000 53.5635
#
#
#
# Elastic Compliance Matrix: (Units=1/GPa)
#
#
# Indices 1 2 3 4 5 6 
#
# 1 0.009657 -0.002786 -0.002548 0.000000 0.003607 0.000000
# 2 -0.002786 0.007859 -0.000637 0.000000 0.003553 0.000000
# 3 -0.002548 -0.000637 0.010284 0.000000 -0.002135 0.000000
# 4 0.000000 0.000000 0.000000 0.032571 0.000000 0.006060
# 5 0.003607 0.003553 -0.002135 0.000000 0.025657 0.000000
# 6 0.000000 0.000000 0.000000 0.006060 0.000000 0.019797
#
#
# Mechanical properties :
#
#
# Convention : Reuss Voigt Hill
#
# Bulk Modulus (GPa) = 63.05200 71.99432 67.52316
# Shear Modulus (GPa) = 40.63290 46.30180 43.46735
#
# Velocity S-wave (km/s) = 4.01817 4.28932 4.15595
# Velocity P-wave (km/s) = 6.82507 7.28960 7.06116
#
# Compressibility (1/GPa) = 0.01585993
#
# Stress axis : x y z
#
# Youngs Moduli (GPa) = 103.55060 127.23596 97.23569
#
# Poissons Ratio (x) = 0.35446 0.24773
# Poissons Ratio (y) = 0.28848 0.06193
# Poissons Ratio (z) = 0.26382 0.08103
#
# Static dielectric constant tensor:
#      x y z
#    x 2.063110 0.000000 -0.017170 
#    y 0.000000 2.053580 0.000000 
#    z -0.017170 0.000000 2.087680 
# 
# From -- ./inp_files/116228.got.cif
#   From: 2010.05.17/outbox.cif.g08.bks.cpg/sg15_59_cif.got.tgz:116228.got - 2010.06.03 18:47:42.
