data_PCOD9289678
_publ_section_title
;
Structure prediction by ZEFSAII (Michael W. Deem and Ramdas Pophale) SiO2 
 PCOD9289678
Probable space group: C 2/C
;
_chemical_formula_sum "Si O2"
_cell_formula_units_Z 36
_cell_length_a 14.144222
_cell_length_b 4.931821
_cell_length_c 19.829409
_cell_angle_alpha 90.000000
_cell_angle_beta 94.570843
_cell_angle_gamma 90.000000
_cell_volume 1378.836249
_symmetry_space_group_name_H-M "C 2/C"
_symmetry_group_IT_number 15
_symmetry_cell_setting 'monoclinic'
loop_
_space_group_symop_operation_xyz
x,y,z
-x,y,1/2-z
-x,-y,-z
x,-y,1/2+z
1/2+x,1/2+y,z
1/2-x,1/2+y,1/2-z
1/2-x,1/2-y,-z
1/2+x,1/2-y,1/2+z
loop_
_atom_site_type_symbol
_atom_site_label
_atom_site_fract_x
_atom_site_fract_y
_atom_site_fract_z
Si Si1 0.000665 0.869318 0.128760
Si Si2 0.000000 0.500000 0.500000
Si Si3 0.707681 0.893828 0.062775
Si Si4 0.220860 0.891347 0.150284
Si Si5 0.579001 0.144625 0.808577
O O1 0.110032 0.855446 0.161023
O O2 0.941275 0.662261 0.171397
O O3 0.951235 0.162049 0.131011
O O4 0.993047 0.756154 0.053531
O O5 0.096729 0.595807 0.543384
O O6 0.729586 0.699341 0.126673
O O7 0.738110 0.195205 0.086116
O O8 0.750000 0.750000 0.000000
O O9 0.310319 0.823756 0.203034
O O10 0.500000 0.223161 0.750000
#
# Coordination Sequence:
#
# PCOD9289678 Si02
#       5
#     8   4   8   8   8
#     4  11  25  43  67  99 132 171 221 273 334 402
#     4  10  22  40  66  98 134 170 210 270 334 394
#     4  11  22  37  63  94 132 172 211 262 326 398
#     4  11  24  41  63  95 128 170 220 269 327 386
#     4  12  26  45  68  94 131 177 225 277 330 393
#
# _framework density 26.108975000000001
#
# number of rings (size 3 to 8) (size 9 to 14) (size 15 to 20)
#    0.000    0.889    0.000    8.000    0.000   11.556 
#    0.000    0.000    0.000    0.000    0.000    0.000 
#    0.000    0.000    0.000    0.000    0.000    0.000 
#
# Total GULP energy -100325.031237 kJ/mol
# GULP energy per Si atom -5573.612847 kJ/mol
# Density = 2.604955 g / cm^3
# Si number density = 26.108975 Si / 1000 Ang^3
#
#
#
# Elastic Constant Matrix: (Units=GPa)
#
#
# Indices 1 2 3 4 5 6 
#
# 1 193.3579 35.8058 43.1062 0.0000 54.2776 0.0000
# 2 35.8058 66.8118 -4.8444 0.0000 4.6627 0.0000
# 3 43.1062 -4.8444 45.6459 0.0000 28.4895 0.0000
# 4 0.0000 0.0000 0.0000 18.3565 0.0000 -4.1363
# 5 54.2776 4.6627 28.4895 0.0000 51.6655 0.0000
# 6 0.0000 0.0000 0.0000 -4.1363 0.0000 37.2321
#
#
#
# Elastic Compliance Matrix: (Units=1/GPa)
#
#
# Indices 1 2 3 4 5 6 
#
# 1 0.008893 -0.004707 -0.005080 0.000000 -0.006116 0.000000
# 2 -0.004707 0.017983 0.006526 0.000000 -0.000276 0.000000
# 3 -0.005080 0.006526 0.037257 0.000000 -0.015796 0.000000
# 4 0.000000 0.000000 0.000000 0.055876 0.000000 0.006208
# 5 -0.006116 -0.000276 -0.015796 0.000000 0.034516 0.000000
# 6 0.000000 0.000000 0.000000 0.006208 0.000000 0.027548
#
#
# Mechanical properties :
#
#
# Convention : Reuss Voigt Hill
#
# Bulk Modulus (GPa) = 17.35797 50.43897 33.89847
# Shear Modulus (GPa) = 24.06174 36.90068 30.48121
#
# Velocity S-wave (km/s) = 3.03906 3.76351 3.42052
# Velocity P-wave (km/s) = 4.35629 6.18433 5.34898
#
# Compressibility (1/GPa) = 0.05761041
#
# Stress axis : x y z
#
# Youngs Moduli (GPa) = 112.44832 55.60892 26.84044
#
# Poissons Ratio (x) = 0.26178 0.13636
# Poissons Ratio (y) = 0.52934 -0.17517
# Poissons Ratio (z) = 0.57127 -0.36293
#
# Static dielectric constant tensor:
#      x y z
#    x 1.551210 0.000000 0.343210 
#    y 0.000000 2.053300 0.000000 
#    z 0.343210 0.000000 1.772210 
# 
# From -- ./inp_files/241534.got.cif
#   From: 2010.05.17/outbox.cif.g08.bks.cpg/sg15_121_cif.got.tgz:241534.got - 2010.06.03 18:47:42.
