data_PCOD9289661
_publ_section_title
;
Structure prediction by ZEFSAII (Michael W. Deem and Ramdas Pophale) SiO2 
 PCOD9289661
Probable space group: C 2/C
;
_chemical_formula_sum "Si O2"
_cell_formula_units_Z 56
_cell_length_a 22.597778
_cell_length_b 8.314617
_cell_length_c 14.052302
_cell_angle_alpha 90.000000
_cell_angle_beta 103.245658
_cell_angle_gamma 90.000000
_cell_volume 2570.072044
_symmetry_space_group_name_H-M "C 2/C"
_symmetry_group_IT_number 15
_symmetry_cell_setting 'monoclinic'
loop_
_space_group_symop_operation_xyz
x,y,z
-x,y,1/2-z
-x,-y,-z
x,-y,1/2+z
1/2+x,1/2+y,z
1/2-x,1/2+y,1/2-z
1/2-x,1/2-y,-z
1/2+x,1/2-y,1/2+z
loop_
_atom_site_type_symbol
_atom_site_label
_atom_site_fract_x
_atom_site_fract_y
_atom_site_fract_z
Si Si1 0.192826 0.020273 0.660485
Si Si2 0.173466 0.294435 0.515898
Si Si3 0.570669 0.980509 0.036818
Si Si4 0.128154 0.912719 0.828890
Si Si5 0.189756 0.573594 0.392762
Si Si6 0.071098 0.417879 0.255180
Si Si7 0.627111 0.333024 0.467934
O O1 0.194979 0.201438 0.618017
O O2 0.260049 0.948763 0.669643
O O3 0.165029 0.988022 0.753923
O O4 0.150028 0.928397 0.568338
O O5 0.106367 0.363358 0.513280
O O6 0.170196 0.175713 0.423847
O O7 0.206085 0.453217 0.486381
O O8 0.585288 0.956398 0.151874
O O9 0.589648 0.818773 0.989851
O O10 0.500000 0.000000 0.000000
O O11 0.084066 0.770876 0.777795
O O12 0.096041 0.050411 0.879926
O O13 0.123396 0.515097 0.331342
O O14 0.182870 0.751676 0.430910
O O15 0.000000 0.455469 0.250000
#
# Coordination Sequence:
#
# PCOD9289661 Si02
#       7
#     8   8   8   8   8   8   8
#     4  11  21  41  64  95 141 170 214 265 337 388
#     4   9  22  41  61  96 129 173 218 265 325 385
#     4  11  22  45  69  90 130 175 223 269 321 388
#     4  10  22  41  62  95 134 167 214 269 328 380
#     4  10  22  40  66  97 130 175 220 270 319 392
#     4  11  23  45  67  95 129 171 219 274 323 385
#     4  10  22  41  62  98 130 167 220 263 325 390
#
# _framework density 21.789272
#
# number of rings (size 3 to 8) (size 9 to 14) (size 15 to 20)
#    0.000    1.714    1.429    3.429    2.000    2.286 
#   12.857    2.857    0.000    0.000    0.000    0.000 
#    0.000    0.000    0.000    0.000    0.000    0.000 
#
# Total GULP energy -156310.886794 kJ/mol
# GULP energy per Si atom -5582.531671 kJ/mol
# Density = 2.173968 g / cm^3
# Si number density = 21.789272 Si / 1000 Ang^3
#
#
#
# Elastic Constant Matrix: (Units=GPa)
#
#
# Indices 1 2 3 4 5 6 
#
# 1 90.3603 -4.2609 27.0341 0.0000 -8.9098 0.0000
# 2 -4.2609 59.9924 48.6121 0.0000 -5.4365 0.0000
# 3 27.0341 48.6121 144.0570 0.0000 -20.4363 0.0000
# 4 0.0000 0.0000 0.0000 31.6731 0.0000 -1.1055
# 5 -8.9098 -5.4365 -20.4363 0.0000 26.4555 0.0000
# 6 0.0000 0.0000 0.0000 -1.1055 0.0000 21.7663
#
#
#
# Elastic Compliance Matrix: (Units=1/GPa)
#
#
# Indices 1 2 3 4 5 6 
#
# 1 0.012458 0.003743 -0.003253 0.000000 0.002452 0.000000
# 2 0.003743 0.024114 -0.008937 0.000000 -0.000688 0.000000
# 3 -0.003253 -0.008937 0.011402 0.000000 0.005875 0.000000
# 4 0.000000 0.000000 0.000000 0.031629 0.000000 0.001606
# 5 0.002452 -0.000688 0.005875 0.000000 0.043022 0.000000
# 6 0.000000 0.000000 0.000000 0.001606 0.000000 0.046024
#
#
# Mechanical properties :
#
#
# Convention : Reuss Voigt Hill
#
# Bulk Modulus (GPa) = 32.17576 48.57561 40.37569
# Shear Modulus (GPa) = 25.52267 30.84726 28.18497
#
# Velocity S-wave (km/s) = 3.42620 3.76667 3.60046
# Velocity P-wave (km/s) = 5.51821 6.42331 5.98788
#
# Compressibility (1/GPa) = 0.03107929
#
# Stress axis : x y z
#
# Youngs Moduli (GPa) = 80.26713 41.46909 87.70667
#
# Poissons Ratio (x) = -0.15523 0.28533
# Poissons Ratio (y) = -0.30045 0.78387
# Poissons Ratio (z) = 0.26113 0.37063
#
# Static dielectric constant tensor:
#      x y z
#    x 1.803420 0.000000 0.012860 
#    y 0.000000 1.861980 0.000000 
#    z 0.012860 0.000000 1.922870 
# 
# From -- ./inp_files/166660.got.cif
#   From: 2010.05.17/outbox.cif.g08.bks.cpg/sg15_84_cif.got.tgz:166660.got - 2010.06.03 18:47:42.
