data_PCOD9289598
_publ_section_title
;
Structure prediction by ZEFSAII (Michael W. Deem and Ramdas Pophale) SiO2 
 PCOD9289598
Probable space group: C 2/C
;
_chemical_formula_sum "Si O2"
_cell_formula_units_Z 56
_cell_length_a 19.626123
_cell_length_b 11.331893
_cell_length_c 13.110950
_cell_angle_alpha 90.000000
_cell_angle_beta 109.607489
_cell_angle_gamma 90.000000
_cell_volume 2746.808071
_symmetry_space_group_name_H-M "C 2/C"
_symmetry_group_IT_number 15
_symmetry_cell_setting 'monoclinic'
loop_
_space_group_symop_operation_xyz
x,y,z
-x,y,1/2-z
-x,-y,-z
x,-y,1/2+z
1/2+x,1/2+y,z
1/2-x,1/2+y,1/2-z
1/2-x,1/2-y,-z
1/2+x,1/2-y,1/2+z
loop_
_atom_site_type_symbol
_atom_site_label
_atom_site_fract_x
_atom_site_fract_y
_atom_site_fract_z
Si Si1 0.431436 0.039763 0.267883
Si Si2 0.108997 0.103349 0.090252
Si Si3 0.870920 0.618802 0.882857
Si Si4 0.260360 0.570261 0.838554
Si Si5 0.504494 0.583621 0.632180
Si Si6 0.349089 0.056711 0.543860
Si Si7 0.121226 0.267297 0.623776
O O1 0.500000 0.098683 0.250000
O O2 0.379562 0.143122 0.281376
O O3 0.438453 0.955145 0.369812
O O4 0.403893 0.955974 0.164480
O O5 0.115194 0.242654 0.111313
O O6 0.187457 0.043263 0.142785
O O7 0.051706 0.034438 0.133850
O O8 0.073601 0.078617 0.961151
O O9 0.804128 0.580809 0.775973
O O10 0.852471 0.566153 0.983844
O O11 0.226242 0.576425 0.934863
O O12 0.312193 0.679515 0.842250
O O13 0.500000 0.603042 0.750000
O O14 0.549054 0.688746 0.598772
O O15 0.371288 0.156492 0.475041
#
# Coordination Sequence:
#
# PCOD9289598 Si02
#       7
#     8   8   8   8   8   8   8
#     4  10  23  39  60  94 123 166 208 258 321 375
#     4  10  24  43  65  96 130 166 218 259 317 386
#     4  10  24  39  65  91 128 166 211 264 311 385
#     4  10  23  44  62  92 127 168 209 265 314 375
#     4  10  23  44  67  97 126 171 210 265 322 372
#     4  10  23  40  61  93 123 167 211 256 323 372
#     4  10  22  40  66  88 128 162 211 263 313 381
#
# _framework density 20.3873
#
# number of rings (size 3 to 8) (size 9 to 14) (size 15 to 20)
#    0.000    2.000    0.000    0.857   12.000    4.571 
#   12.857    0.000    0.000    0.000    0.000    0.000 
#    0.000    0.000    0.000    0.000    0.000    0.000 
#
# Total GULP energy -156143.328445 kJ/mol
# GULP energy per Si atom -5576.547444 kJ/mol
# Density = 2.034090 g / cm^3
# Si number density = 20.387300 Si / 1000 Ang^3
#
#
#
# Elastic Constant Matrix: (Units=GPa)
#
#
# Indices 1 2 3 4 5 6 
#
# 1 68.9818 23.1057 22.5088 0.0000 -20.5756 0.0000
# 2 23.1057 106.1967 -4.1334 0.0000 -22.2700 0.0000
# 3 22.5088 -4.1334 59.2160 0.0000 -19.0921 0.0000
# 4 0.0000 0.0000 0.0000 22.1183 0.0000 -2.3576
# 5 -20.5756 -22.2700 -19.0921 0.0000 33.8707 0.0000
# 6 0.0000 0.0000 0.0000 -2.3576 0.0000 15.3637
#
#
#
# Elastic Compliance Matrix: (Units=1/GPa)
#
#
# Indices 1 2 3 4 5 6 
#
# 1 0.019248 -0.002991 -0.005364 0.000000 0.006702 0.000000
# 2 -0.002991 0.012119 0.004847 0.000000 0.008883 0.000000
# 3 -0.005364 0.004847 0.023515 0.000000 0.013183 0.000000
# 4 0.000000 0.000000 0.000000 0.045963 0.000000 0.007053
# 5 0.006702 0.008883 0.013183 0.000000 0.046867 0.000000
# 6 0.000000 0.000000 0.000000 0.007053 0.000000 0.066171
#
#
# Mechanical properties :
#
#
# Convention : Reuss Voigt Hill
#
# Bulk Modulus (GPa) = 20.89216 35.26185 28.07700
# Shear Modulus (GPa) = 21.10995 27.13143 24.12069
#
# Velocity S-wave (km/s) = 3.22133 3.65197 3.44339
# Velocity P-wave (km/s) = 4.90977 5.92588 5.44159
#
# Compressibility (1/GPa) = 0.04786484
#
# Stress axis : x y z
#
# Youngs Moduli (GPa) = 51.95351 82.51644 42.52577
#
# Poissons Ratio (x) = 0.24682 0.22812
# Poissons Ratio (y) = 0.15540 -0.20612
# Poissons Ratio (z) = 0.27870 -0.39996
#
# Static dielectric constant tensor:
#      x y z
#    x 1.815810 0.000000 0.013210 
#    y 0.000000 1.727130 0.000000 
#    z 0.013210 0.000000 1.711400 
# 
# From -- ./inp_files/111073.got.cif
#   From: 2010.05.17/outbox.cif.g08.bks.cpg/sg15_56_cif.got.tgz:111073.got - 2010.06.03 18:47:42.
