data_PCOD9289736
_publ_section_title
;
Structure prediction by ZEFSAII (Michael W. Deem and Ramdas Pophale) SiO2 
 PCOD9289736
Probable space group: C 2/C
;
_chemical_formula_sum "Si O2"
_cell_formula_units_Z 32
_cell_length_a 5.677540
_cell_length_b 31.212512
_cell_length_c 7.777465
_cell_angle_alpha 90.000000
_cell_angle_beta 76.542254
_cell_angle_gamma 90.000000
_cell_volume 1340.402637
_symmetry_space_group_name_H-M "C 2/C"
_symmetry_group_IT_number 15
_symmetry_cell_setting 'monoclinic'
loop_
_space_group_symop_operation_xyz
x,y,z
-x,y,1/2-z
-x,-y,-z
x,-y,1/2+z
1/2+x,1/2+y,z
1/2-x,1/2+y,1/2-z
1/2-x,1/2-y,-z
1/2+x,1/2-y,1/2+z
loop_
_atom_site_type_symbol
_atom_site_label
_atom_site_fract_x
_atom_site_fract_y
_atom_site_fract_z
Si Si1 0.000000 0.018661 0.750000
Si Si2 0.247923 0.441882 0.597301
Si Si3 0.590208 0.717845 0.914140
Si Si4 0.000000 0.650990 0.750000
Si Si5 0.789651 0.351776 0.921621
O O1 0.144680 0.984994 0.840914
O O2 0.195537 0.046845 0.612375
O O3 0.362353 0.394401 0.600923
O O4 0.000000 0.437344 0.750000
O O5 0.500000 0.737887 0.750000
O O6 0.772457 0.680418 0.832124
O O7 0.750000 0.750000 0.000000
O O8 0.367620 0.691403 0.034289
O O9 0.918772 0.632757 0.578851
O O10 0.000000 0.343738 0.750000
#
# Coordination Sequence:
#
# PCOD9289736 Si02
#       5
#     4   8   8   4   8
#     4  10  22  40  67  96 142 184 226 295 350 422
#     4  10  22  42  64 100 136 184 234 286 352 425
#     4  10  24  46  70 101 138 180 235 294 362 427
#     4  10  24  42  67 100 130 180 228 287 350 422
#     4  10  24  45  70 101 137 185 239 289 355 426
#
# _framework density 23.873422000000001
#
# number of rings (size 3 to 8) (size 9 to 14) (size 15 to 20)
#    0.000    2.000    0.000    0.750    5.250   12.000 
#   11.250    6.250    0.000    0.000    0.000    0.000 
#    0.000    0.000    0.000    0.000    0.000    0.000 
#
# Total GULP energy -89071.237493 kJ/mol
# GULP energy per Si atom -5566.952343 kJ/mol
# Density = 2.381908 g / cm^3
# Si number density = 23.873422 Si / 1000 Ang^3
#
#
#
# Elastic Constant Matrix: (Units=GPa)
#
#
# Indices 1 2 3 4 5 6 
#
# 1 81.1374 47.0497 65.1533 0.0000 9.5770 0.0000
# 2 47.0497 148.7806 83.4038 0.0000 -5.4339 0.0000
# 3 65.1533 83.4038 171.2016 0.0000 -10.5272 0.0000
# 4 0.0000 0.0000 0.0000 65.6070 0.0000 -82.3594
# 5 9.5770 -5.4339 -10.5272 0.0000 46.4698 0.0000
# 6 0.0000 0.0000 0.0000 -82.3594 0.0000 144.5195
#
#
#
# Elastic Compliance Matrix: (Units=1/GPa)
#
#
# Indices 1 2 3 4 5 6 
#
# 1 0.019951 -0.002841 -0.006573 0.000000 -0.005933 0.000000
# 2 -0.002841 0.009651 -0.003565 0.000000 0.000906 0.000000
# 3 -0.006573 -0.003565 0.010280 0.000000 0.003267 0.000000
# 4 0.000000 0.000000 0.000000 0.053557 0.000000 0.030521
# 5 -0.005933 0.000906 0.003267 0.000000 0.023588 0.000000
# 6 0.000000 0.000000 0.000000 0.030521 0.000000 0.024313
#
#
# Mechanical properties :
#
#
# Convention : Reuss Voigt Hill
#
# Bulk Modulus (GPa) = 71.81880 88.03702 79.92791
# Shear Modulus (GPa) = 29.07990 65.02011 47.05000
#
# Velocity S-wave (km/s) = 3.49390 5.22441 4.44420
# Velocity P-wave (km/s) = 6.81358 8.56442 7.73867
#
# Compressibility (1/GPa) = 0.01392393
#
# Stress axis : x y z
#
# Youngs Moduli (GPa) = 50.12305 103.61392 97.27407
#
# Poissons Ratio (x) = 0.29436 0.63942
# Poissons Ratio (y) = 0.14240 0.34677
# Poissons Ratio (z) = 0.32948 0.36937
#
# Static dielectric constant tensor:
#      x y z
#    x 1.828760 0.000000 0.101870 
#    y 0.000000 1.861320 0.000000 
#    z 0.101870 0.000000 2.070690 
# 
# From -- ./inp_files/20187.got.cif
#   From: 2010.05.17/outbox.cif.g08.bks.cpg/sg15_11_cif.got.tgz:20187.got - 2010.06.03 18:47:42.
