data_PCOD9289153
_publ_section_title
;
Structure prediction by ZEFSAII (Michael W. Deem and Ramdas Pophale) SiO2 
 PCOD9289153
Probable space group: C 2/C
;
_chemical_formula_sum "Si O2"
_cell_formula_units_Z 48
_cell_length_a 5.086748
_cell_length_b 18.255185
_cell_length_c 26.769560
_cell_angle_alpha 90.000000
_cell_angle_beta 113.935960
_cell_angle_gamma 90.000000
_cell_volume 2272.027861
_symmetry_space_group_name_H-M "C 2/C"
_symmetry_group_IT_number 15
_symmetry_cell_setting 'monoclinic'
loop_
_space_group_symop_operation_xyz
x,y,z
-x,y,1/2-z
-x,-y,-z
x,-y,1/2+z
1/2+x,1/2+y,z
1/2-x,1/2+y,1/2-z
1/2-x,1/2-y,-z
1/2+x,1/2-y,1/2+z
loop_
_atom_site_type_symbol
_atom_site_label
_atom_site_fract_x
_atom_site_fract_y
_atom_site_fract_z
Si Si1 0.513643 0.641782 0.420906
Si Si2 0.253169 0.849890 0.046050
Si Si3 0.666243 0.479044 0.110074
Si Si4 0.436443 0.769809 0.894993
Si Si5 0.144910 0.851359 0.353532
Si Si6 0.313712 0.047948 0.785623
O O1 0.718183 0.654333 0.484567
O O2 0.483568 0.555983 0.408671
O O3 0.655438 0.682819 0.385048
O O4 0.208046 0.676713 0.412212
O O5 0.180697 0.931156 0.060686
O O6 0.057052 0.790172 0.059427
O O7 0.572371 0.835784 0.091470
O O8 0.507211 0.423664 0.135827
O O9 0.983437 0.491205 0.157883
O O10 0.441203 0.717870 0.846593
O O11 0.247442 0.873840 0.306685
O O12 0.500000 0.053868 0.750000
O O13 0.000000 0.014554 0.750000
#
# Coordination Sequence:
#
# PCOD9289153 Si02
#       6
#     8   8   8   8   8   8
#     4  12  25  37  62  94 135 182 203 248 315 366
#     4  10  22  40  61  90 136 175 220 249 290 370
#     4  10  24  40  63  99 126 161 214 265 313 367
#     4  11  24  39  60  91 134 172 217 247 297 375
#     4  10  22  42  62  98 123 162 211 268 304 372
#     4  11  22  41  71  96 113 153 212 273 324 379
#
# _framework density 21.126501999999999
#
# number of rings (size 3 to 8) (size 9 to 14) (size 15 to 20)
#    0.000    1.333    3.333    1.500    9.333    0.667 
#    0.000    0.000    0.000    1.000   21.667    0.000 
#    0.000    0.000    0.000    0.000    0.000    0.000 
#
# Total GULP energy -134010.658000 kJ/mol
# GULP energy per Si atom -5583.777417 kJ/mol
# Density = 2.107842 g / cm^3
# Si number density = 21.126502 Si / 1000 Ang^3
#
#
#
# Elastic Constant Matrix: (Units=GPa)
#
#
# Indices 1 2 3 4 5 6 
#
# 1 107.3273 25.6697 5.4991 0.0000 8.1191 0.0000
# 2 25.6697 112.6733 -11.7426 0.0000 -4.6499 0.0000
# 3 5.4991 -11.7426 26.9721 0.0000 4.4998 0.0000
# 4 0.0000 0.0000 0.0000 0.3605 0.0000 2.0966
# 5 8.1191 -4.6499 4.4998 0.0000 22.1836 0.0000
# 6 0.0000 0.0000 0.0000 2.0966 0.0000 23.3266
#
#
#
# Elastic Compliance Matrix: (Units=1/GPa)
#
#
# Indices 1 2 3 4 5 6 
#
# 1 0.010421 -0.002815 -0.002707 0.000000 -0.003855 0.000000
# 2 -0.002815 0.010087 0.004596 0.000000 0.002212 0.000000
# 3 -0.002707 0.004596 0.040679 0.000000 -0.006297 0.000000
# 4 0.000000 0.000000 0.000000 5.812960 0.000000 -0.522482
# 5 -0.003855 0.002212 -0.006297 0.000000 0.048230 0.000000
# 6 0.000000 0.000000 0.000000 -0.522482 0.000000 0.089831
#
#
# Mechanical properties :
#
#
# Convention : Reuss Voigt Hill
#
# Bulk Modulus (GPa) = 16.85360 31.75833 24.30597
# Shear Modulus (GPa) = 0.82866 24.34391 12.58628
#
# Velocity S-wave (km/s) = 0.62697 3.39823 2.44346
# Velocity P-wave (km/s) = 2.91872 5.51927 4.41482
#
# Compressibility (1/GPa) = 0.05933451
#
# Stress axis : x y z
#
# Youngs Moduli (GPa) = 95.96014 99.13784 24.58272
#
# Poissons Ratio (x) = 0.27911 0.06655
# Poissons Ratio (y) = 0.27017 -0.11299
# Poissons Ratio (z) = 0.25978 -0.45568
#
# Static dielectric constant tensor:
#      x y z
#    x 1.826450 0.000000 0.004960 
#    y 0.000000 1.762350 0.000000 
#    z 0.004960 0.000000 1.773980 
# 
# From -- ./inp_files/285937.got.cif
#   From: 2010.05.17/outbox.cif.g08.bks.cpg/sg15_143_cif.got.tgz:285937.got - 2010.06.03 18:47:42.
