data_PCOD9289029
_publ_section_title
;
Structure prediction by ZEFSAII (Michael W. Deem and Ramdas Pophale) SiO2 
 PCOD9289029
Probable space group: C 2/C
;
_chemical_formula_sum "Si O2"
_cell_formula_units_Z 56
_cell_length_a 8.264549
_cell_length_b 20.430353
_cell_length_c 15.004853
_cell_angle_alpha 90.000000
_cell_angle_beta 71.226294
_cell_angle_gamma 90.000000
_cell_volume 2398.742734
_symmetry_space_group_name_H-M "C 2/C"
_symmetry_group_IT_number 15
_symmetry_cell_setting 'monoclinic'
loop_
_space_group_symop_operation_xyz
x,y,z
-x,y,1/2-z
-x,-y,-z
x,-y,1/2+z
1/2+x,1/2+y,z
1/2-x,1/2+y,1/2-z
1/2-x,1/2-y,-z
1/2+x,1/2-y,1/2+z
loop_
_atom_site_type_symbol
_atom_site_label
_atom_site_fract_x
_atom_site_fract_y
_atom_site_fract_z
Si Si1 0.552240 0.207957 0.489055
Si Si2 0.585547 0.143792 0.142985
Si Si3 0.538260 0.991214 0.849943
Si Si4 0.765463 0.410601 0.437924
Si Si5 0.845715 0.057193 0.728366
Si Si6 0.546754 0.579600 0.382277
Si Si7 0.413786 0.712697 0.352811
O O1 0.409765 0.190102 0.442907
O O2 0.633219 0.148622 0.533702
O O3 0.502170 0.261481 0.570722
O O4 0.715287 0.229309 0.400335
O O5 0.500000 0.169320 0.250000
O O6 0.766843 0.110247 0.131162
O O7 0.458128 0.085291 0.132458
O O8 0.500000 0.993750 0.750000
O O9 0.384932 0.025838 0.927945
O O10 0.709276 0.032822 0.825724
O O11 0.740256 0.402511 0.336198
O O12 0.579446 0.425283 0.511149
O O13 0.918609 0.989704 0.670989
O O14 0.000000 0.092464 0.750000
O O15 0.443340 0.634770 0.345819
O O16 0.500000 0.741335 0.250000
#
# Coordination Sequence:
#
# PCOD9289029 Si02
#       7
#     8   8   8   8   8   8   8
#     4  10  24  40  63  92 123 168 214 258 322 380
#     4  11  20  37  61  93 124 161 212 264 312 375
#     4   9  19  36  55  87 124 161 201 242 311 382
#     4  10  22  40  57  88 129 161 200 259 311 385
#     4  11  22  36  59  90 125 164 206 253 317 381
#     4  11  21  37  61  89 121 156 212 263 310 366
#     4  10  22  42  65  88 119 165 214 266 314 377
#
# _framework density 23.345565000000001
#
# number of rings (size 3 to 8) (size 9 to 14) (size 15 to 20)
#    0.000    1.714    4.286    1.714    4.000    4.000 
#    0.000    0.000    0.000    6.000    0.000    0.000 
#    0.000    0.000    0.000    0.000    0.000    0.000 
#
# Total GULP energy -156386.975803 kJ/mol
# GULP energy per Si atom -5585.249136 kJ/mol
# Density = 2.329243 g / cm^3
# Si number density = 23.345565 Si / 1000 Ang^3
#
#
#
# Elastic Constant Matrix: (Units=GPa)
#
#
# Indices 1 2 3 4 5 6 
#
# 1 71.7883 -12.0850 13.6941 0.0000 -1.8467 0.0000
# 2 -12.0850 36.5661 14.9056 0.0000 4.0557 0.0000
# 3 13.6941 14.9056 101.6771 0.0000 -17.8474 0.0000
# 4 0.0000 0.0000 0.0000 17.8507 0.0000 1.3006
# 5 -1.8467 4.0557 -17.8474 0.0000 29.0508 0.0000
# 6 0.0000 0.0000 0.0000 1.3006 0.0000 23.6908
#
#
#
# Elastic Compliance Matrix: (Units=1/GPa)
#
#
# Indices 1 2 3 4 5 6 
#
# 1 0.015692 0.006839 -0.003484 0.000000 -0.002098 0.000000
# 2 0.006839 0.033596 -0.007390 0.000000 -0.008796 0.000000
# 3 -0.003484 -0.007390 0.012924 0.000000 0.008750 0.000000
# 4 0.000000 0.000000 0.000000 0.056245 0.000000 -0.003088
# 5 -0.002098 -0.008796 0.008750 0.000000 0.040892 0.000000
# 6 0.000000 0.000000 0.000000 -0.003088 0.000000 0.042380
#
#
# Mechanical properties :
#
#
# Convention : Reuss Voigt Hill
#
# Bulk Modulus (GPa) = 18.47029 27.00675 22.73852
# Shear Modulus (GPa) = 21.94459 27.01959 24.48209
#
# Velocity S-wave (km/s) = 3.06925 3.40571 3.24185
# Velocity P-wave (km/s) = 4.52651 5.20178 4.87585
#
# Compressibility (1/GPa) = 0.05414099
#
# Stress axis : x y z
#
# Youngs Moduli (GPa) = 63.72742 29.76537 77.37818
#
# Poissons Ratio (x) = -0.20357 0.26960
# Poissons Ratio (y) = -0.43584 0.57183
# Poissons Ratio (z) = 0.22204 0.21997
#
# Static dielectric constant tensor:
#      x y z
#    x 1.922960 0.000000 0.015510 
#    y 0.000000 1.920630 0.000000 
#    z 0.015510 0.000000 1.914330 
# 
# From -- ./inp_files/137719.got.cif
#   From: 2010.05.17/outbox.cif.g08.bks.cpg/sg15_69_cif.got.tgz:137719.got - 2010.06.03 18:47:42.
