data_PCOD9289710
_publ_section_title
;
Structure prediction by ZEFSAII (Michael W. Deem and Ramdas Pophale) SiO2 
 PCOD9289710
Probable space group: C 2/C
;
_chemical_formula_sum "Si O2"
_cell_formula_units_Z 52
_cell_length_a 13.826640
_cell_length_b 5.551202
_cell_length_c 27.742149
_cell_angle_alpha 90.000000
_cell_angle_beta 101.586233
_cell_angle_gamma 90.000000
_cell_volume 2085.945691
_symmetry_space_group_name_H-M "C 2/C"
_symmetry_group_IT_number 15
_symmetry_cell_setting 'monoclinic'
loop_
_space_group_symop_operation_xyz
x,y,z
-x,y,1/2-z
-x,-y,-z
x,-y,1/2+z
1/2+x,1/2+y,z
1/2-x,1/2+y,1/2-z
1/2-x,1/2-y,-z
1/2+x,1/2-y,1/2+z
loop_
_atom_site_type_symbol
_atom_site_label
_atom_site_fract_x
_atom_site_fract_y
_atom_site_fract_z
Si Si1 0.177513 0.712343 0.136289
Si Si2 0.476210 0.039618 0.648825
Si Si3 0.556553 0.418104 0.588078
Si Si4 0.887330 0.280176 0.559500
Si Si5 0.500000 0.272002 0.750000
Si Si6 0.677496 0.957723 0.037800
Si Si7 0.292935 0.552308 0.233893
O O1 0.145779 0.989395 0.131544
O O2 0.181858 0.653057 0.080150
O O3 0.268630 0.616476 0.175693
O O4 0.082853 0.583317 0.150998
O O5 0.483922 0.273626 0.615931
O O6 0.464909 0.105520 0.702653
O O7 0.395390 0.874714 0.614868
O O8 0.488277 0.633007 0.560845
O O9 0.609216 0.253404 0.553904
O O10 0.790557 0.121531 0.542662
O O11 0.871798 0.496242 0.519270
O O12 0.591425 0.435367 0.744228
O O13 0.252983 0.288912 0.244042
#
# Coordination Sequence:
#
# PCOD9289710 Si02
#       7
#     8   8   8   8   4   8   8
#     4  10  23  44  67  98 139 178 231 296 356 425
#     4  10  23  45  64 100 133 178 239 286 359 431
#     4  10  22  40  67  92 132 177 225 289 348 426
#     4  10  23  41  65  99 135 173 233 285 349 438
#     4  12  26  46  76 104 142 202 242 310 378 434
#     4  10  23  41  65  98 134 180 224 286 358 425
#     4  12  28  50  76 110 150 194 251 313 365 446
#
# _framework density 24.928739
#
# number of rings (size 3 to 8) (size 9 to 14) (size 15 to 20)
#    0.000    1.538    1.538    1.385    6.462    7.385 
#    2.769    3.077    0.000    0.000    0.000    0.000 
#    0.000    0.000    0.000    0.000    0.000    0.000 
#
# Total GULP energy -145396.303887 kJ/mol
# GULP energy per Si atom -5592.165534 kJ/mol
# Density = 2.487200 g / cm^3
# Si number density = 24.928739 Si / 1000 Ang^3
#
#
#
# Elastic Constant Matrix: (Units=GPa)
#
#
# Indices 1 2 3 4 5 6 
#
# 1 77.7309 13.5502 19.5389 0.0000 9.1955 0.0000
# 2 13.5502 47.6514 14.6327 0.0000 6.1805 0.0000
# 3 19.5389 14.6327 121.1437 0.0000 8.3309 0.0000
# 4 0.0000 0.0000 0.0000 -9.3661 0.0000 51.4764
# 5 9.1955 6.1805 8.3309 0.0000 32.1945 0.0000
# 6 0.0000 0.0000 0.0000 51.4764 0.0000 -59.8194
#
#
#
# Elastic Compliance Matrix: (Units=1/GPa)
#
#
# Indices 1 2 3 4 5 6 
#
# 1 0.014194 -0.003122 -0.001705 0.000000 -0.003014 0.000000
# 2 -0.003122 0.022890 -0.002057 0.000000 -0.002970 0.000000
# 3 -0.001705 -0.002057 0.008875 0.000000 -0.001415 0.000000
# 4 0.000000 0.000000 0.000000 0.028628 0.000000 0.024635
# 5 -0.003014 -0.002970 -0.001415 0.000000 0.032858 0.000000
# 6 0.000000 0.000000 0.000000 0.024635 0.000000 0.004482
#
#
# Mechanical properties :
#
#
# Convention : Reuss Voigt Hill
#
# Bulk Modulus (GPa) = 31.06345 37.99661 34.53003
# Shear Modulus (GPa) = 36.64955 5.85540 21.25248
#
# Velocity S-wave (km/s) = 3.83844 1.53426 2.92298
# Velocity P-wave (km/s) = 5.66858 4.29113 5.02726
#
# Compressibility (1/GPa) = 0.03219217
#
# Stress axis : x y z
#
# Youngs Moduli (GPa) = 70.45127 43.68634 112.67070
#
# Poissons Ratio (x) = 0.13638 0.19211
# Poissons Ratio (y) = 0.21994 0.23178
# Poissons Ratio (z) = 0.12012 0.08987
#
# Static dielectric constant tensor:
#      x y z
#    x 1.949520 0.000000 -0.006260 
#    y 0.000000 2.009650 0.000000 
#    z -0.006260 0.000000 1.990570 
# 
# From -- ./inp_files/312309.got.cif
#   From: 2010.05.17/outbox.cif.g08.bks.cpg/sg15_157_cif.got.tgz:312309.got - 2010.06.03 18:47:42.
