data_PCOD9289737
_publ_section_title
;
Structure prediction by ZEFSAII (Michael W. Deem and Ramdas Pophale) SiO2 
 PCOD9289737
Probable space group: C 2/C
;
_chemical_formula_sum "Si O2"
_cell_formula_units_Z 64
_cell_length_a 14.562026
_cell_length_b 11.222054
_cell_length_c 17.875953
_cell_angle_alpha 90.000000
_cell_angle_beta 86.246652
_cell_angle_gamma 90.000000
_cell_volume 2914.948201
_symmetry_space_group_name_H-M "C 2/C"
_symmetry_group_IT_number 15
_symmetry_cell_setting 'monoclinic'
loop_
_space_group_symop_operation_xyz
x,y,z
-x,y,1/2-z
-x,-y,-z
x,-y,1/2+z
1/2+x,1/2+y,z
1/2-x,1/2+y,1/2-z
1/2-x,1/2-y,-z
1/2+x,1/2-y,1/2+z
loop_
_atom_site_type_symbol
_atom_site_label
_atom_site_fract_x
_atom_site_fract_y
_atom_site_fract_z
Si Si1 0.872858 0.924251 0.566741
Si Si2 0.934996 0.902139 0.178906
Si Si3 0.217349 0.869490 0.210589
Si Si4 0.590540 0.146175 0.398112
Si Si5 0.083972 0.673624 0.006655
Si Si6 0.748000 0.999949 0.939932
Si Si7 0.406170 0.949535 0.232711
Si Si8 0.681503 0.868236 0.654127
O O1 0.914495 0.802594 0.531531
O O2 0.821737 0.998986 0.502967
O O3 0.784358 0.884577 0.619924
O O4 0.944370 0.999738 0.612771
O O5 0.834955 0.931086 0.219441
O O6 0.929878 0.774530 0.137659
O O7 0.000000 0.902580 0.250000
O O8 0.203447 0.942128 0.134957
O O9 0.178825 0.737417 0.213252
O O10 0.326155 0.863023 0.212742
O O11 0.519983 0.130931 0.471577
O O12 0.576168 0.046015 0.334122
O O13 0.695123 0.121744 0.420717
O O14 0.124401 0.681069 0.087778
O O15 0.160469 0.587234 0.964567
O O16 0.500000 0.888517 0.250000
O O17 0.365802 0.019131 0.306300
#
# Coordination Sequence:
#
# PCOD9289737 Si02
#       8
#     8   8   8   8   8   8   8   8
#     4  11  23  41  66  91 128 175 214 261 329 393
#     4  12  26  42  65  92 128 179 228 263 315 403
#     4  11  21  39  64  92 131 164 216 274 318 386
#     4  11  23  37  65  95 128 164 221 272 323 385
#     4  11  20  39  66  95 128 168 213 270 328 402
#     4  10  22  40  67  97 126 165 213 280 334 381
#     4  11  21  36  64  98 125 166 219 275 326 374
#     4  11  18  38  64  91 122 171 217 256 327 390
#
# _framework density 21.955791999999999
#
# number of rings (size 3 to 8) (size 9 to 14) (size 15 to 20)
#    0.000    1.000    6.250    2.250    0.000    1.000 
#    0.000    0.625    2.750    0.000    0.000    0.000 
#    0.000    0.000    0.000    0.000    0.000    0.000 
#
# Total GULP energy -178558.340041 kJ/mol
# GULP energy per Si atom -5579.948126 kJ/mol
# Density = 2.190582 g / cm^3
# Si number density = 21.955792 Si / 1000 Ang^3
#
#
#
# Elastic Constant Matrix: (Units=GPa)
#
#
# Indices 1 2 3 4 5 6 
#
# 1 58.3888 12.7377 16.0408 0.0000 4.1539 0.0000
# 2 12.7377 48.8871 26.8770 0.0000 19.9886 0.0000
# 3 16.0408 26.8770 79.6536 0.0000 2.1917 0.0000
# 4 0.0000 0.0000 0.0000 30.8425 0.0000 5.7701
# 5 4.1539 19.9886 2.1917 0.0000 44.7788 0.0000
# 6 0.0000 0.0000 0.0000 5.7701 0.0000 -3.5903
#
#
#
# Elastic Compliance Matrix: (Units=1/GPa)
#
#
# Indices 1 2 3 4 5 6 
#
# 1 0.018584 -0.003375 -0.002601 0.000000 -0.000090 0.000000
# 2 -0.003375 0.032326 -0.009853 0.000000 -0.013635 0.000000
# 3 -0.002601 -0.009853 0.016297 0.000000 0.003842 0.000000
# 4 0.000000 0.000000 0.000000 0.024928 0.000000 0.040063
# 5 -0.000090 -0.013635 0.003842 0.000000 0.028239 0.000000
# 6 0.000000 0.000000 0.000000 0.040063 0.000000 -0.214143
#
#
# Mechanical properties :
#
#
# Convention : Reuss Voigt Hill
#
# Bulk Modulus (GPa) = 28.13021 33.13784 30.63403
# Shear Modulus (GPa) = -99.48091 23.15779 -38.16156
#
# Velocity S-wave (km/s) = -6.73855 3.25121 -4.17359
# Velocity P-wave (km/s) = 6.90681 5.40551 3.04010
#
# Compressibility (1/GPa) = 0.03554897
#
# Stress axis : x y z
#
# Youngs Moduli (GPa) = 53.81010 30.93444 61.36091
#
# Poissons Ratio (x) = 0.10441 0.15960
# Poissons Ratio (y) = 0.18163 0.60458
# Poissons Ratio (z) = 0.13996 0.30479
#
# Static dielectric constant tensor:
#      x y z
#    x 1.834570 0.000000 0.010930 
#    y 0.000000 1.795650 0.000000 
#    z 0.010930 0.000000 1.825330 
# 
# From -- ./inp_files/204464.got.cif
#   From: 2010.05.17/outbox.cif.g08.bks.cpg/sg15_103_cif.got.tgz:204464.got - 2010.06.03 18:47:42.
