data_PCOD9289864
_publ_section_title
;
Structure prediction by ZEFSAII (Michael W. Deem and Ramdas Pophale) SiO2 
 PCOD9289864
Probable space group: C 2/C
;
_chemical_formula_sum "Si O2"
_cell_formula_units_Z 48
_cell_length_a 11.937583
_cell_length_b 27.916004
_cell_length_c 8.318850
_cell_angle_alpha 90.000000
_cell_angle_beta 133.099196
_cell_angle_gamma 90.000000
_cell_volume 2024.221549
_symmetry_space_group_name_H-M "C 2/C"
_symmetry_group_IT_number 15
_symmetry_cell_setting 'monoclinic'
loop_
_space_group_symop_operation_xyz
x,y,z
-x,y,1/2-z
-x,-y,-z
x,-y,1/2+z
1/2+x,1/2+y,z
1/2-x,1/2+y,1/2-z
1/2-x,1/2-y,-z
1/2+x,1/2-y,1/2+z
loop_
_atom_site_type_symbol
_atom_site_label
_atom_site_fract_x
_atom_site_fract_y
_atom_site_fract_z
Si Si1 0.197779 0.197800 0.122355
Si Si2 0.850496 0.110877 0.999079
Si Si3 0.145087 0.045645 0.794510
Si Si4 0.136148 0.540063 0.991718
Si Si5 0.333472 0.701847 0.792122
Si Si6 0.632906 0.107331 0.262774
O O1 0.273753 0.245094 0.270738
O O2 0.286818 0.149961 0.256460
O O3 0.211209 0.196147 0.939826
O O4 0.017787 0.198667 0.981296
O O5 0.000000 0.122929 0.250000
O O6 0.905192 0.078223 0.903067
O O7 0.733082 0.078128 0.982648
O O8 0.776990 0.158803 0.849652
O O9 0.000000 0.026463 0.750000
O O10 0.240569 0.080043 0.006831
O O11 0.250598 0.001881 0.843634
O O12 0.000000 0.520043 0.750000
O O13 0.931988 0.568684 0.425046
O O14 0.500000 0.125382 0.250000
#
# Coordination Sequence:
#
# PCOD9289864 Si02
#       6
#     8   8   8   8   8   8
#     4  10  22  40  69 102 133 175 235 279 329 412
#     4  12  25  45  71 102 143 182 230 292 351 404
#     4  12  25  46  73 100 135 188 239 280 339 421
#     4  12  28  46  66 102 143 181 228 294 358 407
#     4  10  22  41  68 103 135 176 228 284 337 406
#     4  12  26  45  72 101 136 185 237 284 344 422
#
# _framework density 23.712821000000002
#
# number of rings (size 3 to 8) (size 9 to 14) (size 15 to 20)
#    0.000    0.667    1.667    6.000    4.667    4.000 
#    0.000    5.833    0.000    0.000    0.000    0.000 
#    0.000    0.000    0.000    0.000    0.000    0.000 
#
# Total GULP energy -134562.324554 kJ/mol
# GULP energy per Si atom -5606.763523 kJ/mol
# Density = 2.365885 g / cm^3
# Si number density = 23.712821 Si / 1000 Ang^3
#
#
#
# Elastic Constant Matrix: (Units=GPa)
#
#
# Indices 1 2 3 4 5 6 
#
# 1 60.7907 23.5277 8.6069 0.0000 8.9905 0.0000
# 2 23.5277 155.2153 34.5616 0.0000 -1.0386 0.0000
# 3 8.6069 34.5616 84.8864 0.0000 -4.2839 0.0000
# 4 0.0000 0.0000 0.0000 36.9234 0.0000 6.4443
# 5 8.9905 -1.0386 -4.2839 0.0000 30.7790 0.0000
# 6 0.0000 0.0000 0.0000 6.4443 0.0000 28.2607
#
#
#
# Elastic Compliance Matrix: (Units=1/GPa)
#
#
# Indices 1 2 3 4 5 6 
#
# 1 0.018439 -0.002588 -0.001100 0.000000 -0.005626 0.000000
# 2 -0.002588 0.007449 -0.002739 0.000000 0.000626 0.000000
# 3 -0.001100 -0.002739 0.013111 0.000000 0.002054 0.000000
# 4 0.000000 0.000000 0.000000 0.028206 0.000000 -0.006432
# 5 -0.005626 0.000626 0.002054 0.000000 0.034440 0.000000
# 6 0.000000 0.000000 0.000000 -0.006432 0.000000 0.036851
#
#
# Mechanical properties :
#
#
# Convention : Reuss Voigt Hill
#
# Bulk Modulus (GPa) = 38.24709 48.25388 43.25048
# Shear Modulus (GPa) = 31.23738 34.80570 33.02154
#
# Velocity S-wave (km/s) = 3.63343 3.83535 3.73575
# Velocity P-wave (km/s) = 5.81091 6.32508 6.07344
#
# Compressibility (1/GPa) = 0.02614578
#
# Stress axis : x y z
#
# Youngs Moduli (GPa) = 54.23213 134.24667 76.27324
#
# Poissons Ratio (x) = 0.34740 0.08390
# Poissons Ratio (y) = 0.14034 0.20890
# Poissons Ratio (z) = 0.05965 0.36769
#
# Static dielectric constant tensor:
#      x y z
#    x 1.878630 0.000000 -0.030050 
#    y 0.000000 1.885530 0.000000 
#    z -0.030050 0.000000 1.867840 
# 
# From -- ./inp_files/43913.got.cif
#   From: 2010.05.17/outbox.cif.g08.bks.cpg/sg15_22_cif.got.tgz:43913.got - 2010.06.03 18:47:42.
