data_PCOD9289188
_publ_section_title
;
Structure prediction by ZEFSAII (Michael W. Deem and Ramdas Pophale) SiO2 
 PCOD9289188
Probable space group: C 2/C
;
_chemical_formula_sum "Si O2"
_cell_formula_units_Z 48
_cell_length_a 13.994095
_cell_length_b 9.251355
_cell_length_c 22.300510
_cell_angle_alpha 90.000000
_cell_angle_beta 37.659366
_cell_angle_gamma 90.000000
_cell_volume 1763.931949
_symmetry_space_group_name_H-M "C 2/C"
_symmetry_group_IT_number 15
_symmetry_cell_setting 'monoclinic'
loop_
_space_group_symop_operation_xyz
x,y,z
-x,y,1/2-z
-x,-y,-z
x,-y,1/2+z
1/2+x,1/2+y,z
1/2-x,1/2+y,1/2-z
1/2-x,1/2-y,-z
1/2+x,1/2-y,1/2+z
loop_
_atom_site_type_symbol
_atom_site_label
_atom_site_fract_x
_atom_site_fract_y
_atom_site_fract_z
Si Si1 0.092525 0.526167 0.578213
Si Si2 0.095049 0.720211 0.980783
Si Si3 0.569400 0.476908 0.084235
Si Si4 0.841382 0.771889 0.674865
Si Si5 0.500000 0.501889 0.750000
Si Si6 0.000000 0.487187 0.250000
Si Si7 0.752018 0.255684 0.651987
O O1 0.273058 0.572850 0.493189
O O2 0.972499 0.656870 0.630757
O O3 0.090817 0.424868 0.520877
O O4 0.035383 0.444748 0.667662
O O5 0.921690 0.742023 0.039368
O O6 0.208361 0.730271 0.867387
O O7 0.115003 0.849503 0.017169
O O8 0.421887 0.570474 0.135651
O O9 0.535157 0.425197 0.168992
O O10 0.720836 0.763251 0.789447
O O11 0.646068 0.393287 0.689181
O O12 0.150554 0.382783 0.184741
#
# Coordination Sequence:
#
# PCOD9289188 Si02
#       7
#     8   8   8   8   4   4   8
#     4  11  23  39  60  85 116 154 191 233 284 339
#     4  12  24  36  58  91 122 145 181 244 297 332
#     4  11  23  39  60  85 116 154 191 233 284 339
#     4  10  22  40  62  82 110 156 198 232 273 342
#     4   9  20  39  62  82 110 154 198 232 272 342
#     4   9  20  39  62  82 110 154 198 232 272 342
#     4   9  20  39  61  85 111 151 198 233 276 337
#
# _framework density 27.211936000000001
#
# number of rings (size 3 to 8) (size 9 to 14) (size 15 to 20)
#    0.000    1.667    0.000    5.000    0.000    8.667 
#    0.000    0.000    0.000    0.000    0.000    0.000 
#    0.000    0.000    0.000    0.000    0.000    0.000 
#
# Total GULP energy -134592.820263 kJ/mol
# GULP energy per Si atom -5608.034178 kJ/mol
# Density = 2.715000 g / cm^3
# Si number density = 27.211936 Si / 1000 Ang^3
#
#
#
# Elastic Constant Matrix: (Units=GPa)
#
#
# Indices 1 2 3 4 5 6 
#
# 1 93.2880 15.7576 38.7467 0.0000 30.1078 0.0000
# 2 15.7576 67.5671 5.4250 0.0000 2.6824 0.0000
# 3 38.7467 5.4250 152.2776 0.0000 47.4607 0.0000
# 4 0.0000 0.0000 0.0000 17.9429 0.0000 -2.7559
# 5 30.1078 2.6824 47.4607 0.0000 57.8418 0.0000
# 6 0.0000 0.0000 0.0000 -2.7559 0.0000 15.6314
#
#
#
# Elastic Compliance Matrix: (Units=1/GPa)
#
#
# Indices 1 2 3 4 5 6 
#
# 1 0.013702 -0.002840 -0.001617 0.000000 -0.005674 0.000000
# 2 -0.002840 0.015436 -0.000087 0.000000 0.000834 0.000000
# 3 -0.001617 -0.000087 0.009026 0.000000 -0.006561 0.000000
# 4 0.000000 0.000000 0.000000 0.057283 0.000000 0.010100
# 5 -0.005674 0.000834 -0.006561 0.000000 0.025586 0.000000
# 6 0.000000 0.000000 0.000000 0.010100 0.000000 0.065754
#
#
# Mechanical properties :
#
#
# Convention : Reuss Voigt Hill
#
# Bulk Modulus (GPa) = 34.39312 48.11014 41.25163
# Shear Modulus (GPa) = 24.32265 35.16346 29.74305
#
# Velocity S-wave (km/s) = 2.99293 3.59863 3.30966
# Velocity P-wave (km/s) = 4.96084 5.91481 5.45871
#
# Compressibility (1/GPa) = 0.02907559
#
# Stress axis : x y z
#
# Youngs Moduli (GPa) = 72.98203 64.78191 110.78828
#
# Poissons Ratio (x) = 0.18401 0.17914
# Poissons Ratio (y) = 0.20730 0.00966
# Poissons Ratio (z) = 0.11801 0.00565
#
# Static dielectric constant tensor:
#      x y z
#    x 2.143900 0.000000 0.033690 
#    y 0.000000 2.065560 0.000000 
#    z 0.033690 0.000000 2.052150 
# 
# From -- ./inp_files/111475.got.cif
#   From: 2010.05.17/outbox.cif.g08.bks.cpg/sg15_56_cif.got.tgz:111475.got - 2010.06.03 18:47:42.
