data_PCOD9289460
_publ_section_title
;
Structure prediction by ZEFSAII (Michael W. Deem and Ramdas Pophale) SiO2 
 PCOD9289460
Probable space group: C 2/C
;
_chemical_formula_sum "Si O2"
_cell_formula_units_Z 60
_cell_length_a 11.808008
_cell_length_b 19.257041
_cell_length_c 19.664161
_cell_angle_alpha 90.000000
_cell_angle_beta 42.785510
_cell_angle_gamma 90.000000
_cell_volume 3037.210703
_symmetry_space_group_name_H-M "C 2/C"
_symmetry_group_IT_number 15
_symmetry_cell_setting 'monoclinic'
loop_
_space_group_symop_operation_xyz
x,y,z
-x,y,1/2-z
-x,-y,-z
x,-y,1/2+z
1/2+x,1/2+y,z
1/2-x,1/2+y,1/2-z
1/2-x,1/2-y,-z
1/2+x,1/2-y,1/2+z
loop_
_atom_site_type_symbol
_atom_site_label
_atom_site_fract_x
_atom_site_fract_y
_atom_site_fract_z
Si Si1 0.045538 0.919426 0.967880
Si Si2 0.851392 0.916992 0.864698
Si Si3 0.000000 0.871627 0.250000
Si Si4 0.196427 0.272849 0.377803
Si Si5 0.474099 0.865778 0.573195
Si Si6 0.193437 0.944161 0.044920
Si Si7 0.349186 0.134319 0.276583
Si Si8 0.908754 0.799542 0.939669
O O1 0.189418 0.915085 0.847148
O O2 0.133661 0.907846 0.001996
O O3 0.923623 0.856050 0.996705
O O4 0.000000 0.000000 0.000000
O O5 0.678282 0.898252 0.902922
O O6 0.000000 0.941525 0.750000
O O7 0.820334 0.973084 0.938387
O O8 0.915389 0.847047 0.870941
O O9 0.158540 0.826339 0.203668
O O10 0.073353 0.914553 0.155825
O O11 0.295330 0.200942 0.345575
O O12 0.076733 0.304940 0.488937
O O13 0.067518 0.250326 0.376698
O O14 0.616603 0.922849 0.524296
O O15 0.401584 0.843903 0.678240
O O16 0.500000 0.099107 0.250000
O O17 0.750000 0.750000 0.000000
#
# Coordination Sequence:
#
# PCOD9289460 Si02
#       8
#     8   8   4   8   8   8   8   8
#     4  11  23  42  68  96 133 180 222 288 343 415
#     4  12  23  43  68  97 136 182 234 276 341 428
#     4  10  22  40  66 100 134 166 226 292 338 396
#     4  10  22  40  64  97 132 174 221 286 341 407
#     4  11  24  41  68  99 134 180 226 286 347 414
#     4  11  23  42  68 100 132 177 229 286 348 401
#     4  11  22  40  65 100 132 172 233 279 346 416
#     4  11  23  44  66  94 136 184 229 278 348 424
#
# _framework density 19.754968000000002
#
# number of rings (size 3 to 8) (size 9 to 14) (size 15 to 20)
#    0.000    1.067    5.333    2.000    0.000    2.667 
#    2.400    0.000    2.933    0.000    0.000    0.000 
#    0.000    0.000    0.000    0.000    0.000    0.000 
#
# Total GULP energy -167036.684983 kJ/mol
# GULP energy per Si atom -5567.889499 kJ/mol
# Density = 1.971001 g / cm^3
# Si number density = 19.754968 Si / 1000 Ang^3
#
#
#
# Elastic Constant Matrix: (Units=GPa)
#
#
# Indices 1 2 3 4 5 6 
#
# 1 127.4923 35.3092 37.8013 -0.0001 -11.8624 -0.0001
# 2 35.3092 87.5055 40.8443 -0.0001 -11.6189 0.0001
# 3 37.8013 40.8443 106.8777 -0.0001 -13.2302 0.0005
# 4 -0.0001 -0.0001 -0.0001 19.2252 0.0003 7.0490
# 5 -11.8624 -11.6189 -13.2302 0.0003 29.3976 -0.0004
# 6 -0.0001 0.0001 0.0005 7.0490 -0.0004 32.0395
#
#
#
# Elastic Compliance Matrix: (Units=1/GPa)
#
#
# Indices 1 2 3 4 5 6 
#
# 1 0.009342 -0.002545 -0.002107 0.000000 0.001816 0.000000
# 2 -0.002545 0.014909 -0.004443 0.000000 0.002866 0.000000
# 3 -0.002107 -0.004443 0.012154 0.000000 0.002864 0.000000
# 4 0.000000 0.000000 0.000000 0.056579 -0.000001 -0.012448
# 5 0.001816 0.002866 0.002864 -0.000001 0.037171 0.000001
# 6 0.000000 0.000000 0.000000 -0.012448 0.000001 0.033950
#
#
# Mechanical properties :
#
#
# Convention : Reuss Voigt Hill
#
# Bulk Modulus (GPa) = 54.89702 61.08722 57.99212
# Shear Modulus (GPa) = 26.54402 29.99383 28.26893
#
# Velocity S-wave (km/s) = 3.66958 3.90076 3.78693
# Velocity P-wave (km/s) = 6.76784 7.16083 6.96711
#
# Compressibility (1/GPa) = 0.01821593
#
# Stress axis : x y z
#
# Youngs Moduli (GPa) = 107.04252 67.07321 82.27791
#
# Poissons Ratio (x) = 0.17071 0.17334
# Poissons Ratio (y) = 0.27244 0.36553
# Poissons Ratio (z) = 0.22551 0.29798
#
# Static dielectric constant tensor:
#      x y z
#    x 1.765540 0.000000 -0.018390 
#    y 0.000000 1.738100 0.000000 
#    z -0.018390 0.000000 1.708510 
# 
# From -- ./inp_files/200521.got.cif
#   From: 2010.05.17/outbox.cif.g08.bks.cpg/sg15_101_cif.got.tgz:200521.got - 2010.06.03 18:47:42.
