data_PCOD9289109
_publ_section_title
;
Structure prediction by ZEFSAII (Michael W. Deem and Ramdas Pophale) SiO2 
 PCOD9289109
Probable space group: C 2/C
;
_chemical_formula_sum "Si O2"
_cell_formula_units_Z 36
_cell_length_a 15.988424
_cell_length_b 17.052766
_cell_length_c 12.840821
_cell_angle_alpha 90.000000
_cell_angle_beta 155.293219
_cell_angle_gamma 90.000000
_cell_volume 1463.332997
_symmetry_space_group_name_H-M "C 2/C"
_symmetry_group_IT_number 15
_symmetry_cell_setting 'monoclinic'
loop_
_space_group_symop_operation_xyz
x,y,z
-x,y,1/2-z
-x,-y,-z
x,-y,1/2+z
1/2+x,1/2+y,z
1/2-x,1/2+y,1/2-z
1/2-x,1/2-y,-z
1/2+x,1/2-y,1/2+z
loop_
_atom_site_type_symbol
_atom_site_label
_atom_site_fract_x
_atom_site_fract_y
_atom_site_fract_z
Si Si1 0.845072 0.435107 0.866011
Si Si2 0.294182 0.323452 0.476268
Si Si3 0.500000 0.064762 0.750000
Si Si4 0.376991 0.809342 0.431344
Si Si5 0.025120 0.864514 0.157539
O O1 0.617062 0.422787 0.569241
O O2 0.836229 0.459820 0.979234
O O3 0.000000 0.500000 0.000000
O O4 0.943819 0.357680 0.920133
O O5 0.500000 0.356661 0.750000
O O6 0.250000 0.250000 0.500000
O O7 0.283355 0.298585 0.344834
O O8 0.125088 0.385112 0.309141
O O9 0.451250 0.726028 0.556870
O O10 0.255377 0.858419 0.379946
O O11 0.000000 0.884381 0.250000
#
# Coordination Sequence:
#
# PCOD9289109 Si02
#       5
#     8   8   4   8   8
#     4  11  26  45  68 100 139 180 227 286 346 408
#     4  11  19  31  58  92 127 161 206 272 331 392
#     4  10  22  40  60  90 128 170 214 264 340 398
#     4  11  23  40  66  99 135 177 230 282 337 404
#     4  12  25  43  69 102 137 183 237 281 337 409
#
# _framework density 24.601372000000001
#
# number of rings (size 3 to 8) (size 9 to 14) (size 15 to 20)
#    0.000    0.889    3.333    4.667    0.000    2.667 
#    0.000    4.444    0.000    0.000    0.000    0.000 
#    0.000    0.000    0.000    0.000    0.000    0.000 
#
# Total GULP energy -100344.805251 kJ/mol
# GULP energy per Si atom -5574.711403 kJ/mol
# Density = 2.454538 g / cm^3
# Si number density = 24.601372 Si / 1000 Ang^3
#
#
#
# Elastic Constant Matrix: (Units=GPa)
#
#
# Indices 1 2 3 4 5 6 
#
# 1 119.7689 -3.8504 4.6916 0.0000 -22.0163 0.0000
# 2 -3.8504 72.8404 8.8100 0.0000 -2.5398 0.0000
# 3 4.6916 8.8100 52.1549 0.0000 -2.1783 0.0000
# 4 0.0000 0.0000 0.0000 10.1991 0.0000 6.6635
# 5 -22.0163 -2.5398 -2.1783 0.0000 55.0552 0.0000
# 6 0.0000 0.0000 0.0000 6.6635 0.0000 13.5264
#
#
#
# Elastic Compliance Matrix: (Units=1/GPa)
#
#
# Indices 1 2 3 4 5 6 
#
# 1 0.009070 0.000701 -0.000783 0.000000 0.003628 0.000000
# 2 0.000701 0.014086 -0.002408 0.000000 0.000835 0.000000
# 3 -0.000783 -0.002408 0.019666 0.000000 0.000354 0.000000
# 4 0.000000 0.000000 0.000000 0.144584 0.000000 -0.071227
# 5 0.003628 0.000835 0.000354 0.000000 0.019667 0.000000
# 6 0.000000 0.000000 0.000000 -0.071227 0.000000 0.109018
#
#
# Mechanical properties :
#
#
# Convention : Reuss Voigt Hill
#
# Bulk Modulus (GPa) = 26.42580 29.34073 27.88326
# Shear Modulus (GPa) = 14.98428 31.43033 23.20731
#
# Velocity S-wave (km/s) = 2.47064 3.57821 3.07471
# Velocity P-wave (km/s) = 4.34783 5.38737 4.89528
#
# Compressibility (1/GPa) = 0.03784181
#
# Stress axis : x y z
#
# Youngs Moduli (GPa) = 110.25915 70.99261 50.85039
#
# Poissons Ratio (x) = -0.04974 0.03980
# Poissons Ratio (y) = -0.07725 0.12243
# Poissons Ratio (z) = 0.08629 0.17092
#
# Static dielectric constant tensor:
#      x y z
#    x 1.961980 0.000000 -0.321550 
#    y 0.000000 1.977460 0.000000 
#    z -0.321550 0.000000 10.387760 
# 
# From -- ./inp_files/99914.got.cif
#   From: 2010.05.17/outbox.cif.g08.bks.cpg/sg15_50_cif.got.tgz:99914.got - 2010.06.03 18:47:42.
