data_PCOD9289969
_publ_section_title
;
Structure prediction by ZEFSAII (Michael W. Deem and Ramdas Pophale) SiO2 
 PCOD9289969
Probable space group: C 2/C
;
_chemical_formula_sum "Si O2"
_cell_formula_units_Z 56
_cell_length_a 17.666619
_cell_length_b 7.678845
_cell_length_c 25.565727
_cell_angle_alpha 90.000000
_cell_angle_beta 38.575031
_cell_angle_gamma 90.000000
_cell_volume 2162.574532
_symmetry_space_group_name_H-M "C 2/C"
_symmetry_group_IT_number 15
_symmetry_cell_setting 'monoclinic'
loop_
_space_group_symop_operation_xyz
x,y,z
-x,y,1/2-z
-x,-y,-z
x,-y,1/2+z
1/2+x,1/2+y,z
1/2-x,1/2+y,1/2-z
1/2-x,1/2-y,-z
1/2+x,1/2-y,1/2+z
loop_
_atom_site_type_symbol
_atom_site_label
_atom_site_fract_x
_atom_site_fract_y
_atom_site_fract_z
Si Si1 0.047189 0.503100 0.103760
Si Si2 0.363079 0.822796 0.046613
Si Si3 0.655725 0.573456 0.819494
Si Si4 0.523388 0.678110 0.046708
Si Si5 0.250628 0.088640 0.168453
Si Si6 0.185721 0.328917 0.121865
Si Si7 0.157908 0.365320 0.713354
O O1 0.985812 0.345569 0.103120
O O2 0.131253 0.386417 0.096261
O O3 0.960045 0.629467 0.185027
O O4 0.113016 0.625119 0.025673
O O5 0.226333 0.756606 0.133610
O O6 0.363821 0.002417 0.078680
O O7 0.543032 0.300345 0.973437
O O8 0.522638 0.496852 0.900041
O O9 0.698761 0.749330 0.824706
O O10 0.689039 0.550706 0.740665
O O11 0.735702 0.426296 0.805222
O O12 0.667922 0.665800 0.962161
O O13 0.165841 0.153064 0.166410
O O14 0.134383 0.468592 0.189682
#
# Coordination Sequence:
#
# PCOD9289969 Si02
#       7
#     8   8   8   8   8   8   8
#     4  12  24  47  78 104 155 207 244 316 398 454
#     4  11  25  44  76 111 146 197 263 321 373 455
#     4  10  22  40  71 105 144 191 249 318 374 436
#     4  11  23  43  70 114 143 196 252 313 378 455
#     4  11  22  43  71 107 148 188 257 310 375 451
#     4  11  25  44  72 103 153 194 251 309 388 471
#     4  10  24  45  70 105 146 197 253 315 377 459
#
# _framework density 25.895061999999999
#
# number of rings (size 3 to 8) (size 9 to 14) (size 15 to 20)
#    0.000    1.143    1.429    5.571    2.000    5.714 
#    2.571    0.000    3.143    0.000    0.000    0.000 
#    0.000    0.000    0.000    0.000    0.000    0.000 
#
# Total GULP energy -156403.569805 kJ/mol
# GULP energy per Si atom -5585.841779 kJ/mol
# Density = 2.583612 g / cm^3
# Si number density = 25.895062 Si / 1000 Ang^3
#
#
#
# Elastic Constant Matrix: (Units=GPa)
#
#
# Indices 1 2 3 4 5 6 
#
# 1 128.2147 20.0469 51.6661 -0.0006 18.9656 0.0027
# 2 20.0469 93.3967 71.7209 -0.0010 10.4671 0.0030
# 3 51.6661 71.7209 195.8803 0.0000 34.3760 0.0002
# 4 -0.0006 -0.0010 0.0000 51.3863 -0.0001 12.5552
# 5 18.9656 10.4671 34.3760 -0.0001 39.0553 -0.0003
# 6 0.0027 0.0030 0.0002 12.5552 -0.0003 23.1696
#
#
#
# Elastic Compliance Matrix: (Units=1/GPa)
#
#
# Indices 1 2 3 4 5 6 
#
# 1 0.008963 -0.000236 -0.001803 0.000000 -0.002702 -0.000001
# 2 -0.000236 0.014932 -0.005585 0.000001 0.001029 -0.000002
# 3 -0.001803 -0.005585 0.008527 0.000000 -0.005132 0.000001
# 4 0.000000 0.000001 0.000000 0.022430 0.000000 -0.012154
# 5 -0.002702 0.001029 -0.005132 0.000000 0.031158 0.000001
# 6 -0.000001 -0.000002 0.000001 -0.012154 0.000001 0.049746
#
#
# Mechanical properties :
#
#
# Convention : Reuss Voigt Hill
#
# Bulk Modulus (GPa) = 58.23825 78.26216 68.25021
# Shear Modulus (GPa) = 31.90215 40.99276 36.44745
#
# Velocity S-wave (km/s) = 3.51376 3.98305 3.75574
# Velocity P-wave (km/s) = 6.24507 7.17226 6.72467
#
# Compressibility (1/GPa) = 0.01717085
#
# Stress axis : x y z
#
# Youngs Moduli (GPa) = 111.57355 66.97245 117.27958
#
# Poissons Ratio (x) = 0.01581 0.21151
# Poissons Ratio (y) = 0.02634 0.65506
# Poissons Ratio (z) = 0.20122 0.37407
#
# Static dielectric constant tensor:
#      x y z
#    x 2.095170 0.000000 0.010740 
#    y 0.000000 2.247110 0.000000 
#    z 0.010740 0.000000 2.108670 
# 
# From -- ./inp_files/317493.got.cif
#   From: 2010.05.17/outbox.cif.g08.bks.cpg/sg15_159_cif.got.tgz:317493.got - 2010.06.03 18:47:42.
