data_PCOD9289114
_publ_section_title
;
Structure prediction by ZEFSAII (Michael W. Deem and Ramdas Pophale) SiO2 
 PCOD9289114
Probable space group: C 2/C
;
_chemical_formula_sum "Si O2"
_cell_formula_units_Z 52
_cell_length_a 14.832289
_cell_length_b 8.620401
_cell_length_c 20.341371
_cell_angle_alpha 90.000000
_cell_angle_beta 53.592521
_cell_angle_gamma 90.000000
_cell_volume 2093.209263
_symmetry_space_group_name_H-M "C 2/C"
_symmetry_group_IT_number 15
_symmetry_cell_setting 'monoclinic'
loop_
_space_group_symop_operation_xyz
x,y,z
-x,y,1/2-z
-x,-y,-z
x,-y,1/2+z
1/2+x,1/2+y,z
1/2-x,1/2+y,1/2-z
1/2-x,1/2-y,-z
1/2+x,1/2-y,1/2+z
loop_
_atom_site_type_symbol
_atom_site_label
_atom_site_fract_x
_atom_site_fract_y
_atom_site_fract_z
Si Si1 0.160456 0.058191 0.032180
Si Si2 0.874775 0.747377 0.827598
Si Si3 0.309174 0.726599 0.134222
Si Si4 0.500000 0.500000 0.000000
Si Si5 0.484405 0.663686 0.678726
Si Si6 0.759698 0.023283 0.277514
Si Si7 0.358162 0.083826 0.386214
O O1 0.066305 0.934532 0.096356
O O2 0.148639 0.195462 0.088377
O O3 0.117068 0.086091 0.977247
O O4 0.281589 0.979400 0.978248
O O5 0.869083 0.562469 0.833124
O O6 0.000000 0.788593 0.750000
O O7 0.794509 0.848526 0.816375
O O8 0.422207 0.643422 0.062395
O O9 0.327069 0.899078 0.155406
O O10 0.251023 0.621446 0.215539
O O11 0.217874 0.717344 0.115192
O O12 0.500000 0.640497 0.750000
O O13 0.364531 0.591667 0.717115
O O14 0.522974 0.839608 0.648887
#
# Coordination Sequence:
#
# PCOD9289114 Si02
#       7
#     8   8   8   4   8   8   8
#     4  11  21  41  64  89 132 171 213 271 334 393
#     4  12  22  41  65  93 131 169 219 277 324 388
#     4  11  23  41  65  95 132 170 221 268 332 399
#     4  10  22  40  60  92 126 172 214 268 338 390
#     4  12  20  42  65  98 123 171 225 271 321 399
#     4  12  23  42  68  96 131 175 224 272 333 390
#     4  11  25  37  66  99 130 170 220 269 333 400
#
# _framework density 24.842236
#
# number of rings (size 3 to 8) (size 9 to 14) (size 15 to 20)
#    0.000    0.615    6.154    2.308    0.000    1.231 
#    0.000    0.000    0.000    3.692    0.000    0.000 
#    0.000    0.000    0.000    0.000    0.000    0.000 
#
# Total GULP energy -144857.698646 kJ/mol
# GULP energy per Si atom -5571.449948 kJ/mol
# Density = 2.478569 g / cm^3
# Si number density = 24.842236 Si / 1000 Ang^3
#
#
#
# Elastic Constant Matrix: (Units=GPa)
#
#
# Indices 1 2 3 4 5 6 
#
# 1 20.9707 10.6048 -7.7832 0.0000 -1.7405 0.0000
# 2 10.6048 125.5358 16.1926 0.0000 -8.8170 0.0001
# 3 -7.7832 16.1926 66.3374 0.0000 -24.1541 0.0000
# 4 0.0000 0.0000 0.0000 46.9292 0.0000 -2.1169
# 5 -1.7405 -8.8170 -24.1541 0.0000 28.5072 0.0000
# 6 0.0000 0.0001 0.0000 -2.1169 0.0000 47.3974
#
#
#
# Elastic Compliance Matrix: (Units=1/GPa)
#
#
# Indices 1 2 3 4 5 6 
#
# 1 0.056049 -0.005472 0.012352 0.000000 0.012196 0.000000
# 2 -0.005472 0.008788 -0.002775 0.000000 0.000033 0.000000
# 3 0.012352 -0.002775 0.024821 0.000000 0.020926 0.000000
# 4 0.000000 0.000000 0.000000 0.021352 0.000000 0.000954
# 5 0.012196 0.000033 0.020926 0.000000 0.053564 0.000000
# 6 0.000000 0.000000 0.000000 0.000954 0.000000 0.021141
#
#
# Mechanical properties :
#
#
# Convention : Reuss Voigt Hill
#
# Bulk Modulus (GPa) = 10.21771 27.87469 19.04620
# Shear Modulus (GPa) = 23.79512 37.48874 30.64193
#
# Velocity S-wave (km/s) = 3.09827 3.88889 3.51588
# Velocity P-wave (km/s) = 4.11352 5.60444 4.91583
#
# Compressibility (1/GPa) = 0.09786931
#
# Stress axis : x y z
#
# Youngs Moduli (GPa) = 17.84141 113.78713 40.28915
#
# Poissons Ratio (x) = 0.62259 -0.49767
# Poissons Ratio (y) = 0.09762 0.11181
# Poissons Ratio (z) = -0.22038 0.31579
#
# Static dielectric constant tensor:
#      x y z
#    x 2.015730 0.000000 -0.048490 
#    y 0.000000 1.927480 0.000000 
#    z -0.048490 0.000000 1.890180 
# 
# From -- ./inp_files/247781.got.cif
#   From: 2010.05.17/outbox.cif.g08.bks.cpg/sg15_124_cif.got.tgz:247781.got - 2010.06.03 18:47:42.
