data_PCOD9289865
_publ_section_title
;
Structure prediction by ZEFSAII (Michael W. Deem and Ramdas Pophale) SiO2 
 PCOD9289865
Probable space group: C 2/C
;
_chemical_formula_sum "Si O2"
_cell_formula_units_Z 44
_cell_length_a 11.667726
_cell_length_b 7.625336
_cell_length_c 21.086165
_cell_angle_alpha 90.000000
_cell_angle_beta 80.876186
_cell_angle_gamma 90.000000
_cell_volume 1852.307358
_symmetry_space_group_name_H-M "C 2/C"
_symmetry_group_IT_number 15
_symmetry_cell_setting 'monoclinic'
loop_
_space_group_symop_operation_xyz
x,y,z
-x,y,1/2-z
-x,-y,-z
x,-y,1/2+z
1/2+x,1/2+y,z
1/2-x,1/2+y,1/2-z
1/2-x,1/2-y,-z
1/2+x,1/2-y,1/2+z
loop_
_atom_site_type_symbol
_atom_site_label
_atom_site_fract_x
_atom_site_fract_y
_atom_site_fract_z
Si Si1 0.435596 0.969828 0.938150
Si Si2 0.943721 0.854974 0.928126
Si Si3 0.947554 0.699385 0.188550
Si Si4 0.711296 0.671018 0.161676
Si Si5 0.500000 0.448356 0.750000
Si Si6 0.682443 0.461480 0.438054
O O1 0.455569 0.157445 0.902752
O O2 0.296914 0.943307 0.955735
O O3 0.485752 0.831484 0.883694
O O4 0.500000 0.000000 0.000000
O O5 0.849303 0.941753 0.889329
O O6 0.072553 0.925157 0.926120
O O7 0.876302 0.848466 0.000799
O O8 0.823631 0.607522 0.189196
O O9 0.000000 0.627539 0.250000
O O10 0.949414 0.909232 0.203761
O O11 0.604929 0.672934 0.218922
O O12 0.766781 0.839310 0.121712
#
# Coordination Sequence:
#
# PCOD9289865 Si02
#       6
#     8   8   8   8   4   8
#     4  11  22  41  69 102 140 190 235 301 369 439
#     4  10  22  40  69 102 138 188 231 305 368 430
#     4  10  25  44  63 103 142 181 247 301 365 444
#     4  11  21  44  70  90 136 186 243 286 373 435
#     4  10  26  46  68  98 140 204 232 314 370 428
#     4  10  22  41  68 104 140 176 248 296 362 454
#
# _framework density 23.754158
#
# number of rings (size 3 to 8) (size 9 to 14) (size 15 to 20)
#    0.545    1.091    0.000    5.455    0.000    8.000 
#   13.091    0.000    0.000    0.000    0.000    0.000 
#    0.000    0.000    0.000    0.000    0.000    0.000 
#
# Total GULP energy -122515.383950 kJ/mol
# GULP energy per Si atom -5568.881089 kJ/mol
# Density = 2.370009 g / cm^3
# Si number density = 23.754158 Si / 1000 Ang^3
#
#
#
# Elastic Constant Matrix: (Units=GPa)
#
#
# Indices 1 2 3 4 5 6 
#
# 1 262.8745 46.3426 90.4797 0.0000 1.2119 0.0000
# 2 46.3426 44.7000 33.2250 0.0000 -15.2315 0.0000
# 3 90.4797 33.2250 131.5030 0.0000 -7.2169 0.0000
# 4 0.0000 0.0000 0.0000 35.9480 0.0000 -5.4846
# 5 1.2119 -15.2315 -7.2169 0.0000 61.9501 0.0000
# 6 0.0000 0.0000 0.0000 -5.4846 0.0000 31.8961
#
#
#
# Elastic Compliance Matrix: (Units=1/GPa)
#
#
# Indices 1 2 3 4 5 6 
#
# 1 0.005509 -0.004097 -0.002834 0.000000 -0.001445 0.000000
# 2 -0.004097 0.033000 -0.005102 0.000000 0.007599 0.000000
# 3 -0.002834 -0.005102 0.010847 0.000000 0.000065 0.000000
# 4 0.000000 0.000000 0.000000 0.028567 0.000000 0.004912
# 5 -0.001445 0.007599 0.000065 0.000000 0.018046 0.000000
# 6 0.000000 0.000000 0.000000 0.004912 0.000000 0.032196
#
#
# Mechanical properties :
#
#
# Convention : Reuss Voigt Hill
#
# Bulk Modulus (GPa) = 39.54133 86.57468 63.05800
# Shear Modulus (GPa) = 31.12119 43.89418 37.50769
#
# Velocity S-wave (km/s) = 3.62351 4.30333 3.97797
# Velocity P-wave (km/s) = 5.84710 7.82411 6.90671
#
# Compressibility (1/GPa) = 0.02528999
#
# Stress axis : x y z
#
# Youngs Moduli (GPa) = 181.53629 30.30272 92.19001
#
# Poissons Ratio (x) = 0.12414 0.26130
# Poissons Ratio (y) = 0.74369 0.47035
# Poissons Ratio (z) = 0.51454 0.15460
#
# Static dielectric constant tensor:
#      x y z
#    x 2.030740 0.000000 0.109030 
#    y 0.000000 1.978140 0.000000 
#    z 0.109030 0.000000 1.986640 
# 
# From -- ./inp_files/267586.got.cif
#   From: 2010.05.17/outbox.cif.g08.bks.cpg/sg15_134_cif.got.tgz:267586.got - 2010.06.03 18:47:42.
