data_PCOD9289046
_publ_section_title
;
Structure prediction by ZEFSAII (Michael W. Deem and Ramdas Pophale) SiO2 
 PCOD9289046
Probable space group: C 2/C
;
_chemical_formula_sum "Si O2"
_cell_formula_units_Z 64
_cell_length_a 16.226158
_cell_length_b 29.854382
_cell_length_c 9.770383
_cell_angle_alpha 90.000000
_cell_angle_beta 43.536460
_cell_angle_gamma 90.000000
_cell_volume 3260.157769
_symmetry_space_group_name_H-M "C 2/C"
_symmetry_group_IT_number 15
_symmetry_cell_setting 'monoclinic'
loop_
_space_group_symop_operation_xyz
x,y,z
-x,y,1/2-z
-x,-y,-z
x,-y,1/2+z
1/2+x,1/2+y,z
1/2-x,1/2+y,1/2-z
1/2-x,1/2-y,-z
1/2+x,1/2-y,1/2+z
loop_
_atom_site_type_symbol
_atom_site_label
_atom_site_fract_x
_atom_site_fract_y
_atom_site_fract_z
Si Si1 0.183919 0.896488 0.576168
Si Si2 0.554069 0.537333 0.833698
Si Si3 0.596817 0.967886 0.947761
Si Si4 0.942380 0.871788 0.019316
Si Si5 0.886972 0.798782 0.287194
Si Si6 0.765897 0.496576 0.465481
Si Si7 0.911004 0.632527 0.980846
Si Si8 0.615311 0.191418 0.212765
O O1 0.174716 0.879924 0.432387
O O2 0.190437 0.950341 0.550218
O O3 0.288350 0.878515 0.547194
O O4 0.063431 0.878473 0.789078
O O5 0.500000 0.529458 0.750000
O O6 0.539963 0.588221 0.894438
O O7 0.694199 0.530040 0.647722
O O8 0.500000 0.500000 0.000000
O O9 0.625854 0.980957 0.068453
O O10 0.706455 0.978805 0.710579
O O11 0.556280 0.916359 0.996160
O O12 0.500000 0.000000 0.000000
O O13 0.924842 0.823871 0.104827
O O14 0.753579 0.816461 0.492672
O O15 0.884844 0.745316 0.271476
O O16 0.000000 0.808913 0.250000
O O17 0.000000 0.646034 0.750000
O O18 0.900544 0.666280 0.121766
O O19 0.500000 0.180545 0.250000
#
# Coordination Sequence:
#
# PCOD9289046 Si02
#       8
#     8   8   8   8   8   8   8   8
#     4  10  22  40  58  93 132 168 205 267 324 377
#     4  12  23  35  57  89 124 165 209 261 321 385
#     4  11  23  40  59  84 119 168 214 257 305 370
#     4  11  22  37  65  91 129 168 212 263 325 393
#     4  10  22  44  71  98 134 167 217 277 332 390
#     4  11  22  37  57  83 124 161 204 259 309 370
#     4  11  25  43  65  90 132 170 215 270 324 385
#     4  10  24  45  71 100 132 170 217 274 333 394
#
# _framework density 19.630952000000001
#
# number of rings (size 3 to 8) (size 9 to 14) (size 15 to 20)
#    0.000    1.250    1.250    5.250    5.250    1.000 
#    2.250    0.625    0.000    0.000    0.000    0.000 
#    0.000    0.000    0.000    0.000    0.000    0.000 
#
# Total GULP energy -178248.917508 kJ/mol
# GULP energy per Si atom -5570.278672 kJ/mol
# Density = 1.958627 g / cm^3
# Si number density = 19.630952 Si / 1000 Ang^3
#
#
#
# Elastic Constant Matrix: (Units=GPa)
#
#
# Indices 1 2 3 4 5 6 
#
# 1 93.8388 32.2876 18.8714 0.0000 8.9448 0.0000
# 2 32.2876 40.6532 25.8774 0.0000 7.6658 0.0000
# 3 18.8714 25.8774 92.7955 0.0000 1.3285 0.0000
# 4 0.0000 0.0000 0.0000 -1.8211 0.0000 -16.1320
# 5 8.9448 7.6658 1.3285 0.0000 36.9431 0.0000
# 6 0.0000 0.0000 0.0000 -16.1320 0.0000 6.9146
#
#
#
# Elastic Compliance Matrix: (Units=1/GPa)
#
#
# Indices 1 2 3 4 5 6 
#
# 1 0.014719 -0.011644 0.000270 0.000000 -0.001157 0.000000
# 2 -0.011644 0.040466 -0.008841 0.000000 -0.005260 0.000000
# 3 0.000270 -0.008841 0.013168 0.000000 0.001296 0.000000
# 4 0.000000 0.000000 0.000000 -0.025344 0.000000 -0.059128
# 5 -0.001157 -0.005260 0.001296 0.000000 0.028394 0.000000
# 6 0.000000 0.000000 0.000000 -0.059128 0.000000 0.006675
#
#
# Mechanical properties :
#
#
# Convention : Reuss Voigt Hill
#
# Bulk Modulus (GPa) = 35.81219 42.37336 39.09277
# Shear Modulus (GPa) = 39.11895 18.42405 28.77150
#
# Velocity S-wave (km/s) = 4.46883 3.06685 3.83249
# Velocity P-wave (km/s) = 6.70146 5.84573 6.28817
#
# Compressibility (1/GPa) = 0.02792345
#
# Stress axis : x y z
#
# Youngs Moduli (GPa) = 67.93974 24.71225 75.93961
#
# Poissons Ratio (x) = 0.28775 -0.02053
# Poissons Ratio (y) = 0.79109 0.67140
# Poissons Ratio (z) = -0.01837 0.21849
#
# Static dielectric constant tensor:
#      x y z
#    x 0.494910 0.000000 -1.767900 
#    y 0.000000 1.662910 0.000000 
#    z -1.767900 0.000000 -0.628140 
# 
# From -- ./inp_files/44819.got.cif
#   From: 2010.05.17/outbox.cif.g08.bks.cpg/sg15_23_cif.got.tgz:44819.got - 2010.06.03 18:47:42.
