data_PCOD9289363
_publ_section_title
;
Structure prediction by ZEFSAII (Michael W. Deem and Ramdas Pophale) SiO2 
 PCOD9289363
Probable space group: C 2/C
;
_chemical_formula_sum "Si O2"
_cell_formula_units_Z 52
_cell_length_a 7.558856
_cell_length_b 14.341751
_cell_length_c 22.159601
_cell_angle_alpha 90.000000
_cell_angle_beta 72.203005
_cell_angle_gamma 90.000000
_cell_volume 2287.301796
_symmetry_space_group_name_H-M "C 2/C"
_symmetry_group_IT_number 15
_symmetry_cell_setting 'monoclinic'
loop_
_space_group_symop_operation_xyz
x,y,z
-x,y,1/2-z
-x,-y,-z
x,-y,1/2+z
1/2+x,1/2+y,z
1/2-x,1/2+y,1/2-z
1/2-x,1/2-y,-z
1/2+x,1/2-y,1/2+z
loop_
_atom_site_type_symbol
_atom_site_label
_atom_site_fract_x
_atom_site_fract_y
_atom_site_fract_z
Si Si1 0.062964 0.700543 0.336201
Si Si2 0.988376 0.925774 0.584876
Si Si3 0.162663 0.644204 0.514070
Si Si4 0.196708 0.796199 0.796477
Si Si5 0.211788 0.896717 0.367329
Si Si6 0.823573 0.648253 0.471592
Si Si7 0.500000 0.129595 0.750000
O O1 0.881139 0.723485 0.315727
O O2 0.977333 0.646811 0.401711
O O3 0.221506 0.660422 0.274821
O O4 0.144337 0.795873 0.354012
O O5 0.930968 0.858333 0.646484
O O6 0.852586 0.901710 0.541676
O O7 0.196107 0.912043 0.542329
O O8 0.951438 0.030633 0.608191
O O9 0.250000 0.750000 0.500000
O O10 0.186519 0.613530 0.580009
O O11 0.953164 0.624608 0.515005
O O12 0.096388 0.700880 0.787199
O O13 0.352461 0.930939 0.301319
O O14 0.750000 0.750000 0.500000
#
# Coordination Sequence:
#
# PCOD9289363 Si02
#       7
#     8   8   8   8   8   8   4
#     4   9  19  38  62  84 119 164 205 253 308 382
#     4  11  24  41  63  96 128 159 207 274 311 364
#     4  12  22  40  67  92 125 172 212 252 311 386
#     4   9  20  38  63  85 116 163 214 247 311 381
#     4  11  23  40  61  92 131 158 207 268 321 361
#     4  11  22  38  64  93 122 165 216 251 307 377
#     4  10  22  40  64  86 120 166 210 250 312 394
#
# _framework density 22.734210999999998
#
# number of rings (size 3 to 8) (size 9 to 14) (size 15 to 20)
#    0.000    1.538    3.077    1.385    4.308    3.077 
#    2.769    3.077    0.000    0.000    0.000    0.000 
#    0.000    0.000    0.000    0.000    0.000    0.000 
#
# Total GULP energy -145244.612583 kJ/mol
# GULP energy per Si atom -5586.331253 kJ/mol
# Density = 2.268247 g / cm^3
# Si number density = 22.734211 Si / 1000 Ang^3
#
#
#
# Elastic Constant Matrix: (Units=GPa)
#
#
# Indices 1 2 3 4 5 6 
#
# 1 73.3175 10.4729 25.8169 0.0000 2.8111 0.0000
# 2 10.4729 22.4538 14.3525 0.0000 6.0400 0.0000
# 3 25.8169 14.3525 101.4077 0.0000 2.1551 0.0000
# 4 0.0000 0.0000 0.0000 22.1711 0.0000 -11.4407
# 5 2.8111 6.0400 2.1551 0.0000 35.2319 0.0000
# 6 0.0000 0.0000 0.0000 -11.4407 0.0000 14.6623
#
#
#
# Elastic Compliance Matrix: (Units=1/GPa)
#
#
# Indices 1 2 3 4 5 6 
#
# 1 0.015512 -0.005134 -0.003219 0.000000 -0.000161 0.000000
# 2 -0.005134 0.053014 -0.006019 0.000000 -0.008311 0.000000
# 3 -0.003219 -0.006019 0.011520 0.000000 0.000584 0.000000
# 4 0.000000 0.000000 0.000000 0.075505 0.000000 0.058915
# 5 -0.000161 -0.008311 0.000584 0.000000 0.029785 0.000000
# 6 0.000000 0.000000 0.000000 0.058915 0.000000 0.114172
#
#
# Mechanical properties :
#
#
# Convention : Reuss Voigt Hill
#
# Bulk Modulus (GPa) = 19.49295 33.16262 26.32778
# Shear Modulus (GPa) = 14.47784 24.18219 19.33001
#
# Velocity S-wave (km/s) = 2.52629 3.26497 2.91909
# Velocity P-wave (km/s) = 4.13550 5.36955 4.79242
#
# Compressibility (1/GPa) = 0.05130061
#
# Stress axis : x y z
#
# Youngs Moduli (GPa) = 64.46453 18.86298 86.80361
#
# Poissons Ratio (x) = 0.09685 0.27943
# Poissons Ratio (y) = 0.33099 0.52251
# Poissons Ratio (z) = 0.20752 0.11354
#
# Static dielectric constant tensor:
#      x y z
#    x 1.877090 0.000000 0.010990 
#    y 0.000000 1.860600 0.000000 
#    z 0.010990 0.000000 1.908300 
# 
# From -- ./inp_files/264245.got.cif
#   From: 2010.05.17/outbox.cif.g08.bks.cpg/sg15_133_cif.got.tgz:264245.got - 2010.06.03 18:47:42.
