data_PCOD9289468
_publ_section_title
;
Structure prediction by ZEFSAII (Michael W. Deem and Ramdas Pophale) SiO2 
 PCOD9289468
Probable space group: C 2/C
;
_chemical_formula_sum "Si O2"
_cell_formula_units_Z 40
_cell_length_a 11.516775
_cell_length_b 19.603056
_cell_length_c 17.332878
_cell_angle_alpha 90.000000
_cell_angle_beta 150.900136
_cell_angle_gamma 90.000000
_cell_volume 1903.090127
_symmetry_space_group_name_H-M "C 2/C"
_symmetry_group_IT_number 15
_symmetry_cell_setting 'monoclinic'
loop_
_space_group_symop_operation_xyz
x,y,z
-x,y,1/2-z
-x,-y,-z
x,-y,1/2+z
1/2+x,1/2+y,z
1/2-x,1/2+y,1/2-z
1/2-x,1/2-y,-z
1/2+x,1/2-y,1/2+z
loop_
_atom_site_type_symbol
_atom_site_label
_atom_site_fract_x
_atom_site_fract_y
_atom_site_fract_z
Si Si1 0.085489 0.227682 0.160760
Si Si2 0.785956 0.493940 0.941150
Si Si3 0.835486 0.861775 0.078580
Si Si4 0.050544 0.761015 0.476869
Si Si5 0.350195 0.136442 0.583764
O O1 0.286232 0.233237 0.342260
O O2 0.949910 0.298204 0.096206
O O3 0.197532 0.231668 0.140337
O O4 0.922677 0.161148 0.062648
O O5 0.500000 0.485451 0.750000
O O6 0.781297 0.563915 0.988500
O O7 0.854301 0.430259 0.033968
O O8 0.000000 0.500000 0.000000
O O9 0.964934 0.832839 0.077346
O O10 0.000000 0.862779 0.250000
O O11 0.651211 0.801333 0.986626
O O12 0.500000 0.128328 0.750000
#
# Coordination Sequence:
#
# PCOD9289468 Si02
#       5
#     8   8   8   8   8
#     4  11  23  39  68  96 132 174 226 282 343 398
#     4  11  27  47  72  99 137 188 231 275 338 411
#     4  10  22  40  64  98 134 178 226 280 333 400
#     4  11  21  40  67  95 133 175 225 281 340 399
#     4  11  25  43  65 101 134 173 225 286 336 402
#
# _framework density 21.018446999999998
#
# number of rings (size 3 to 8) (size 9 to 14) (size 15 to 20)
#    0.000    1.200    4.000    1.200    8.400    0.000 
#    3.600    2.000    0.000    0.000    0.000    0.000 
#    0.000    0.000    0.000    0.000    0.000    0.000 
#
# Total GULP energy -111340.803701 kJ/mol
# GULP energy per Si atom -5567.040185 kJ/mol
# Density = 2.097061 g / cm^3
# Si number density = 21.018447 Si / 1000 Ang^3
#
#
#
# Elastic Constant Matrix: (Units=GPa)
#
#
# Indices 1 2 3 4 5 6 
#
# 1 78.6518 51.1565 40.3123 -0.0018 -11.2178 0.0003
# 2 51.1565 161.3304 47.3781 -0.0009 -10.9623 -0.0004
# 3 40.3123 47.3781 97.5489 0.0041 -9.1377 0.0061
# 4 -0.0018 -0.0009 0.0041 29.0140 -0.0008 -13.7074
# 5 -11.2178 -10.9623 -9.1377 -0.0008 34.2615 0.0011
# 6 0.0003 -0.0004 0.0061 -13.7074 0.0011 24.3724
#
#
#
# Elastic Compliance Matrix: (Units=1/GPa)
#
#
# Indices 1 2 3 4 5 6 
#
# 1 0.018617 -0.004092 -0.005392 0.000003 0.003348 0.000003
# 2 -0.004092 0.008196 -0.002225 0.000001 0.000689 0.000001
# 3 -0.005392 -0.002225 0.013670 -0.000005 0.001168 -0.000006
# 4 0.000003 0.000001 -0.000005 0.046938 0.000000 0.026399
# 5 0.003348 0.000689 0.001168 0.000000 0.030816 -0.000002
# 6 0.000003 0.000001 -0.000006 0.026399 -0.000002 0.055877
#
#
# Mechanical properties :
#
#
# Convention : Reuss Voigt Hill
#
# Bulk Modulus (GPa) = 58.60366 68.35831 63.48099
# Shear Modulus (GPa) = 24.60362 30.77519 27.68940
#
# Velocity S-wave (km/s) = 3.42507 3.83064 3.63352
# Velocity P-wave (km/s) = 6.60182 7.22209 6.91891
#
# Compressibility (1/GPa) = 0.01706378
#
# Stress axis : x y z
#
# Youngs Moduli (GPa) = 53.71335 122.00506 73.15357
#
# Poissons Ratio (x) = 0.49928 0.39448
# Poissons Ratio (y) = 0.21981 0.16278
# Poissons Ratio (z) = 0.28965 0.27148
#
# Static dielectric constant tensor:
#      x y z
#    x 1.939130 0.000000 0.094360 
#    y 0.000000 1.704170 0.000000 
#    z 0.094360 0.000000 1.797030 
# 
# From -- ./inp_files/29065.got.cif
#   From: 2010.05.17/outbox.cif.g08.bks.cpg/sg15_15_cif.got.tgz:29065.got - 2010.06.03 18:47:42.
