data_PCOD9289944
_publ_section_title
;
Structure prediction by ZEFSAII (Michael W. Deem and Ramdas Pophale) SiO2 
 PCOD9289944
Probable space group: C 2/C
;
_chemical_formula_sum "Si O2"
_cell_formula_units_Z 28
_cell_length_a 16.848830
_cell_length_b 10.904965
_cell_length_c 11.834425
_cell_angle_alpha 90.000000
_cell_angle_beta 144.855557
_cell_angle_gamma 90.000000
_cell_volume 1251.675995
_symmetry_space_group_name_H-M "C 2/C"
_symmetry_group_IT_number 15
_symmetry_cell_setting 'monoclinic'
loop_
_space_group_symop_operation_xyz
x,y,z
-x,y,1/2-z
-x,-y,-z
x,-y,1/2+z
1/2+x,1/2+y,z
1/2-x,1/2+y,1/2-z
1/2-x,1/2-y,-z
1/2+x,1/2-y,1/2+z
loop_
_atom_site_type_symbol
_atom_site_label
_atom_site_fract_x
_atom_site_fract_y
_atom_site_fract_z
Si Si1 0.278437 0.802778 0.871184
Si Si2 0.486103 0.361426 0.522944
Si Si3 0.156912 0.681252 0.299733
Si Si4 0.500000 0.973757 0.250000
O O1 0.126312 0.812518 0.743970
O O2 0.456947 0.723492 0.879649
O O3 0.147443 0.170854 0.555722
O O4 0.387452 0.891550 0.056076
O O5 0.500000 0.500000 0.500000
O O6 0.762099 0.347102 0.721665
O O7 0.250000 0.750000 0.500000
O O8 0.082653 0.563017 0.262292
#
# Coordination Sequence:
#
# PCOD9289944 Si02
#       4
#     8   8   8   4
#     4  10  25  40  69 100 133 179 220 280 341 393
#     4  10  23  43  67 100 136 171 231 274 332 402
#     4  10  22  40  70  96 130 182 226 273 337 394
#     4  12  22  42  66 100 138 174 228 280 338 406
#
# _framework density 22.370007000000001
#
# number of rings (size 3 to 8) (size 9 to 14) (size 15 to 20)
#    1.714    0.000    0.000    4.286    4.000    1.143 
#    0.000    4.286    0.000    0.000    0.000    0.000 
#    0.000    0.000    0.000    0.000    0.000    0.000 
#
# Total GULP energy -78141.758367 kJ/mol
# GULP energy per Si atom -5581.554169 kJ/mol
# Density = 2.231909 g / cm^3
# Si number density = 22.370007 Si / 1000 Ang^3
#
#
#
# Elastic Constant Matrix: (Units=GPa)
#
#
# Indices 1 2 3 4 5 6 
#
# 1 51.5055 7.5078 12.4173 0.0000 0.6902 0.0000
# 2 7.5078 126.1842 38.2708 0.0000 8.7761 0.0000
# 3 12.4173 38.2708 155.7841 0.0000 9.8326 0.0000
# 4 0.0000 0.0000 0.0000 36.5218 0.0000 -2.3947
# 5 0.6902 8.7761 9.8326 0.0000 47.6860 0.0000
# 6 0.0000 0.0000 0.0000 -2.3947 0.0000 34.7191
#
#
#
# Elastic Compliance Matrix: (Units=1/GPa)
#
#
# Indices 1 2 3 4 5 6 
#
# 1 0.019864 -0.000766 -0.001404 0.000000 0.000143 0.000000
# 2 -0.000766 0.008656 -0.001991 0.000000 -0.001171 0.000000
# 3 -0.001404 -0.001991 0.007088 0.000000 -0.001075 0.000000
# 4 0.000000 0.000000 0.000000 0.027505 0.000000 0.001897
# 5 0.000143 -0.001171 -0.001075 0.000000 0.021406 0.000000
# 6 0.000000 0.000000 0.000000 0.001897 0.000000 0.028933
#
#
# Mechanical properties :
#
#
# Convention : Reuss Voigt Hill
#
# Bulk Modulus (GPa) = 36.65075 49.98508 43.31791
# Shear Modulus (GPa) = 38.20579 42.13723 40.17151
#
# Velocity S-wave (km/s) = 4.13716 4.34481 4.24226
# Velocity P-wave (km/s) = 6.26426 6.89660 6.58802
#
# Compressibility (1/GPa) = 0.02728457
#
# Stress axis : x y z
#
# Youngs Moduli (GPa) = 50.34316 115.52725 141.08079
#
# Poissons Ratio (x) = 0.08849 0.19810
# Poissons Ratio (y) = 0.03856 0.28096
# Poissons Ratio (z) = 0.07069 0.23007
#
# Static dielectric constant tensor:
#      x y z
#    x 1.973890 0.000000 0.029700 
#    y 0.000000 1.781300 0.000000 
#    z 0.029700 0.000000 1.842870 
# 
# From -- ./inp_files/105080.got.cif
#   From: 2010.05.17/outbox.cif.g08.bks.cpg/sg15_53_cif.got.tgz:105080.got - 2010.06.03 18:47:42.
