data_PCOD9289773
_publ_section_title
;
Structure prediction by ZEFSAII (Michael W. Deem and Ramdas Pophale) SiO2 
 PCOD9289773
Probable space group: C 2/C
;
_chemical_formula_sum "Si O2"
_cell_formula_units_Z 52
_cell_length_a 14.457169
_cell_length_b 27.471848
_cell_length_c 9.065796
_cell_angle_alpha 90.000000
_cell_angle_beta 44.903407
_cell_angle_gamma 90.000000
_cell_volume 2541.725694
_symmetry_space_group_name_H-M "C 2/C"
_symmetry_group_IT_number 15
_symmetry_cell_setting 'monoclinic'
loop_
_space_group_symop_operation_xyz
x,y,z
-x,y,1/2-z
-x,-y,-z
x,-y,1/2+z
1/2+x,1/2+y,z
1/2-x,1/2+y,1/2-z
1/2-x,1/2-y,-z
1/2+x,1/2-y,1/2+z
loop_
_atom_site_type_symbol
_atom_site_label
_atom_site_fract_x
_atom_site_fract_y
_atom_site_fract_z
Si Si1 0.844844 0.548990 0.253608
Si Si2 0.358414 0.791441 0.357399
Si Si3 0.657170 0.947562 0.394374
Si Si4 0.784940 0.137224 0.269922
Si Si5 0.848964 0.206655 0.928899
Si Si6 0.725722 0.343789 0.279795
Si Si7 0.500000 0.357333 0.750000
O O1 0.805154 0.497221 0.229635
O O2 0.821370 0.548302 0.454747
O O3 0.771420 0.593045 0.258759
O O4 0.000227 0.557235 0.050924
O O5 0.500000 0.774623 0.250000
O O6 0.250000 0.750000 0.500000
O O7 0.319866 0.837639 0.502854
O O8 0.345114 0.810448 0.204392
O O9 0.731996 0.899807 0.253690
O O10 0.904647 0.118653 0.236850
O O11 0.826257 0.180293 0.110889
O O12 0.818774 0.167542 0.834441
O O13 0.000000 0.222515 0.750000
O O14 0.750000 0.250000 0.000000
O O15 0.605068 0.331288 0.524993
#
# Coordination Sequence:
#
# PCOD9289773 Si02
#       7
#     8   8   8   8   8   8   4
#     4  10  22  40  68 101 133 169 218 274 336 398
#     4  11  26  41  66  97 133 178 227 268 328 397
#     4  10  22  40  68 101 133 169 218 274 336 398
#     4  11  23  44  68  93 137 174 221 274 335 387
#     4  12  26  44  70  98 134 175 227 280 339 398
#     4  11  23  44  68  93 137 174 221 274 335 387
#     4  10  24  40  70  90 126 184 214 260 328 400
#
# _framework density 20.458541
#
# number of rings (size 3 to 8) (size 9 to 14) (size 15 to 20)
#    0.000    1.231    3.077    1.846    8.615    4.923 
#    0.000    0.769    3.385    0.000    0.000    0.000 
#    0.000    0.000    0.000    0.000    0.000    0.000 
#
# Total GULP energy -145188.765041 kJ/mol
# GULP energy per Si atom -5584.183271 kJ/mol
# Density = 2.041198 g / cm^3
# Si number density = 20.458541 Si / 1000 Ang^3
#
#
#
# Elastic Constant Matrix: (Units=GPa)
#
#
# Indices 1 2 3 4 5 6 
#
# 1 156.7475 60.2592 33.4393 0.0000 -4.2838 0.0000
# 2 60.2592 125.2244 24.8154 0.0000 -12.9800 0.0000
# 3 33.4393 24.8154 59.2093 0.0000 2.1050 0.0000
# 4 0.0000 0.0000 0.0000 25.5686 0.0000 7.2826
# 5 -4.2838 -12.9800 2.1050 0.0000 28.9569 0.0000
# 6 0.0000 0.0000 0.0000 7.2826 0.0000 26.7850
#
#
#
# Elastic Compliance Matrix: (Units=1/GPa)
#
#
# Indices 1 2 3 4 5 6 
#
# 1 0.008387 -0.003382 -0.003318 0.000000 -0.000034 0.000000
# 2 -0.003382 0.010608 -0.002694 0.000000 0.004451 0.000000
# 3 -0.003318 -0.002694 0.020004 0.000000 -0.003153 0.000000
# 4 0.000000 0.000000 0.000000 0.042393 0.000000 -0.011526
# 5 -0.000034 0.004451 -0.003153 0.000000 0.036753 0.000000
# 6 0.000000 0.000000 0.000000 -0.011526 0.000000 0.040468
#
#
# Mechanical properties :
#
#
# Convention : Reuss Voigt Hill
#
# Bulk Modulus (GPa) = 49.47759 64.24545 56.86152
# Shear Modulus (GPa) = 27.15331 31.10660 29.12995
#
# Velocity S-wave (km/s) = 3.64708 3.90355 3.77749
# Velocity P-wave (km/s) = 6.47856 7.19638 6.84688
#
# Compressibility (1/GPa) = 0.02021117
#
# Stress axis : x y z
#
# Youngs Moduli (GPa) = 119.23725 94.26602 49.98895
#
# Poissons Ratio (x) = 0.31878 0.16586
# Poissons Ratio (y) = 0.40323 0.13469
# Poissons Ratio (z) = 0.39562 0.25399
#
# Static dielectric constant tensor:
#      x y z
#    x 1.754750 0.000000 -0.002870 
#    y 0.000000 1.701820 0.000000 
#    z -0.002870 0.000000 1.743740 
# 
# From -- ./inp_files/43407.got.cif
#   From: 2010.05.17/outbox.cif.g08.bks.cpg/sg15_22_cif.got.tgz:43407.got - 2010.06.03 18:47:42.
