data_PCOD9289977
_publ_section_title
;
Structure prediction by ZEFSAII (Michael W. Deem and Ramdas Pophale) SiO2 
 PCOD9289977
Probable space group: C 2/C
;
_chemical_formula_sum "Si O2"
_cell_formula_units_Z 60
_cell_length_a 19.225409
_cell_length_b 8.726142
_cell_length_c 19.465660
_cell_angle_alpha 90.000000
_cell_angle_beta 54.830534
_cell_angle_gamma 90.000000
_cell_volume 2669.495813
_symmetry_space_group_name_H-M "C 2/C"
_symmetry_group_IT_number 15
_symmetry_cell_setting 'monoclinic'
loop_
_space_group_symop_operation_xyz
x,y,z
-x,y,1/2-z
-x,-y,-z
x,-y,1/2+z
1/2+x,1/2+y,z
1/2-x,1/2+y,1/2-z
1/2-x,1/2-y,-z
1/2+x,1/2-y,1/2+z
loop_
_atom_site_type_symbol
_atom_site_label
_atom_site_fract_x
_atom_site_fract_y
_atom_site_fract_z
Si Si1 0.747906 0.189250 0.339320
Si Si2 0.925384 0.344514 0.642171
Si Si3 0.755872 0.098387 0.922900
Si Si4 0.215890 0.037881 0.945796
Si Si5 0.585274 0.207723 0.833588
Si Si6 0.089854 0.804007 0.981811
Si Si7 0.633589 0.863311 0.676928
Si Si8 0.000000 0.621844 0.750000
O O1 0.659729 0.196997 0.349461
O O2 0.731872 0.289000 0.416903
O O3 0.821592 0.257742 0.249835
O O4 0.770030 0.019512 0.352804
O O5 0.929429 0.529832 0.637398
O O6 0.912776 0.304491 0.729024
O O7 0.007033 0.262438 0.565272
O O8 0.834196 0.218655 0.884415
O O9 0.752178 0.011020 0.997356
O O10 0.668775 0.189240 0.955543
O O11 0.276775 0.946113 0.857304
O O12 0.122266 0.970251 0.987819
O O13 0.525662 0.223234 0.800517
O O14 0.574110 0.302944 0.909028
O O15 0.575139 0.003718 0.684586
#
# Coordination Sequence:
#
# PCOD9289977 Si02
#       8
#     8   8   8   8   8   8   8   4
#     4  12  24  44  66  99 137 187 214 280 348 407
#     4  11  24  40  71 100 133 176 234 280 333 401
#     4  11  25  42  69 100 136 178 230 277 341 409
#     4  11  24  43  66 100 140 179 219 278 345 397
#     4  11  24  42  71 100 134 176 228 279 338 412
#     4  11  24  43  71 103 129 180 231 286 328 402
#     4  10  22  41  70  96 128 176 226 280 325 411
#     4  10  22  40  72 100 126 176 228 284 332 404
#
# _framework density 22.476154999999999
#
# number of rings (size 3 to 8) (size 9 to 14) (size 15 to 20)
#    0.000    1.067    4.000    4.000    7.467    0.533 
#    2.400    0.667    0.000    0.000    0.000    0.000 
#    0.000    0.000    0.000    0.000    0.000    0.000 
#
# Total GULP energy -167625.180362 kJ/mol
# GULP energy per Si atom -5587.506012 kJ/mol
# Density = 2.242500 g / cm^3
# Si number density = 22.476155 Si / 1000 Ang^3
#
#
#
# Elastic Constant Matrix: (Units=GPa)
#
#
# Indices 1 2 3 4 5 6 
#
# 1 102.7814 2.5908 37.0735 0.0000 3.2676 0.0001
# 2 2.5908 39.7192 7.7642 0.0001 -4.7414 0.0003
# 3 37.0735 7.7642 88.2056 0.0000 1.5361 0.0000
# 4 0.0000 0.0001 0.0000 13.9185 0.0000 2.3964
# 5 3.2676 -4.7414 1.5361 0.0000 30.3516 0.0000
# 6 0.0001 0.0003 0.0000 2.3964 0.0000 22.1039
#
#
#
# Elastic Compliance Matrix: (Units=1/GPa)
#
#
# Indices 1 2 3 4 5 6 
#
# 1 0.011498 0.000075 -0.004822 0.000000 -0.000982 0.000000
# 2 0.000075 0.026143 -0.002406 0.000000 0.004198 0.000000
# 3 -0.004822 -0.002406 0.013585 0.000000 -0.000544 0.000000
# 4 0.000000 0.000000 0.000000 0.073213 0.000000 -0.007937
# 5 -0.000982 0.004198 -0.000544 0.000000 0.033736 0.000000
# 6 0.000000 0.000000 0.000000 -0.007937 0.000000 0.046101
#
#
# Mechanical properties :
#
#
# Convention : Reuss Voigt Hill
#
# Bulk Modulus (GPa) = 27.08500 36.17369 31.62934
# Shear Modulus (GPa) = 21.65532 25.49332 23.57432
#
# Velocity S-wave (km/s) = 3.10736 3.37150 3.24212
# Velocity P-wave (km/s) = 4.99510 5.59332 5.30265
#
# Compressibility (1/GPa) = 0.03692081
#
# Stress axis : x y z
#
# Youngs Moduli (GPa) = 86.97078 38.25082 73.60920
#
# Poissons Ratio (x) = -0.00288 0.35496
# Poissons Ratio (y) = -0.00656 0.17711
# Poissons Ratio (z) = 0.41940 0.09203
#
# Static dielectric constant tensor:
#      x y z
#    x 1.860900 0.000000 0.015200 
#    y 0.000000 1.864530 0.000000 
#    z 0.015200 0.000000 1.837820 
# 
# From -- ./inp_files/252095.got.cif
#   From: 2010.05.17/outbox.cif.g08.bks.cpg/sg15_127_cif.got.tgz:252095.got - 2010.06.03 18:47:42.
