data_PCOD9289650
_publ_section_title
;
Structure prediction by ZEFSAII (Michael W. Deem and Ramdas Pophale) SiO2 
 PCOD9289650
Probable space group: C 2/C
;
_chemical_formula_sum "Si O2"
_cell_formula_units_Z 44
_cell_length_a 20.229188
_cell_length_b 13.101460
_cell_length_c 18.185160
_cell_angle_alpha 90.000000
_cell_angle_beta 158.387733
_cell_angle_gamma 90.000000
_cell_volume 1775.189946
_symmetry_space_group_name_H-M "C 2/C"
_symmetry_group_IT_number 15
_symmetry_cell_setting 'monoclinic'
loop_
_space_group_symop_operation_xyz
x,y,z
-x,y,1/2-z
-x,-y,-z
x,-y,1/2+z
1/2+x,1/2+y,z
1/2-x,1/2+y,1/2-z
1/2-x,1/2-y,-z
1/2+x,1/2-y,1/2+z
loop_
_atom_site_type_symbol
_atom_site_label
_atom_site_fract_x
_atom_site_fract_y
_atom_site_fract_z
Si Si1 0.500000 0.694273 0.250000
Si Si2 0.061266 0.653865 0.949633
Si Si3 0.152573 0.327747 0.955796
Si Si4 0.724696 0.548561 0.567325
Si Si5 0.514659 0.635685 0.892306
Si Si6 0.538606 0.651317 0.086707
O O1 0.485019 0.769795 0.165764
O O2 0.666034 0.616622 0.436037
O O3 0.931517 0.559257 0.802073
O O4 0.998091 0.726586 0.951297
O O5 0.268661 0.632596 0.176564
O O6 0.059550 0.252830 0.919072
O O7 0.000000 0.382949 0.750000
O O8 0.250000 0.250000 0.000000
O O9 0.312116 0.388760 0.158392
O O10 0.648892 0.435615 0.485304
O O11 0.612966 0.599455 0.519598
O O12 0.537574 0.616158 0.002020
#
# Coordination Sequence:
#
# PCOD9289650 Si02
#       6
#     4   8   8   8   8   8
#     4  10  22  40  66  96 132 174 212 272 334 388
#     4  11  22  41  66  97 134 177 216 266 337 400
#     4   9  21  42  65  88 121 168 217 264 328 387
#     4  11  25  39  67  96 133 166 228 275 316 403
#     4  11  23  44  66  93 132 172 216 280 327 386
#     4  11  22  41  63  98 132 175 216 260 335 395
#
# _framework density 24.786080999999999
#
# number of rings (size 3 to 8) (size 9 to 14) (size 15 to 20)
#    0.000    1.455    3.636    2.182    6.364    0.727 
#    6.545    0.000    0.000    0.000    0.000    0.000 
#    0.000    0.000    0.000    0.000    0.000    0.000 
#
# Total GULP energy -123082.299815 kJ/mol
# GULP energy per Si atom -5594.649992 kJ/mol
# Density = 2.472967 g / cm^3
# Si number density = 24.786081 Si / 1000 Ang^3
#
#
#
# Elastic Constant Matrix: (Units=GPa)
#
#
# Indices 1 2 3 4 5 6 
#
# 1 92.8802 12.4315 52.7526 0.0022 -25.2243 0.0002
# 2 12.4315 68.5563 10.1820 0.0091 -5.7614 0.0064
# 3 52.7526 10.1820 102.1563 0.0039 -0.4175 0.0021
# 4 0.0022 0.0091 0.0039 6.1780 0.0032 15.8589
# 5 -25.2243 -5.7614 -0.4175 0.0032 35.5010 0.0010
# 6 0.0002 0.0064 0.0021 15.8589 0.0010 26.8956
#
#
#
# Elastic Compliance Matrix: (Units=1/GPa)
#
#
# Indices 1 2 3 4 5 6 
#
# 1 0.020889 -0.000986 -0.010629 0.000015 0.014557 -0.000009
# 2 -0.000986 0.015057 -0.000985 0.000025 0.001732 -0.000018
# 3 -0.010629 -0.000985 0.015345 -0.000002 -0.007532 0.000001
# 4 0.000015 0.000025 -0.000002 -0.315148 0.000038 0.185826
# 5 0.014557 0.001732 -0.007532 0.000038 0.038704 -0.000024
# 6 -0.000009 -0.000018 0.000001 0.185826 -0.000024 -0.072391
#
#
# Mechanical properties :
#
#
# Convention : Reuss Voigt Hill
#
# Bulk Modulus (GPa) = 38.32600 46.03611 42.18106
# Shear Modulus (GPa) = -18.96472 26.26336 3.64932
#
# Velocity S-wave (km/s) = -2.76911 3.25868 1.21471
# Velocity P-wave (km/s) = 2.29615 5.72472 4.36146
#
# Compressibility (1/GPa) = 0.02609195
#
# Stress axis : x y z
#
# Youngs Moduli (GPa) = 47.87259 66.41397 65.16778
#
# Poissons Ratio (x) = 0.06547 0.69267
# Poissons Ratio (y) = 0.04719 0.06416
# Poissons Ratio (z) = 0.50884 0.06539
#
# Static dielectric constant tensor:
#      x y z
#    x 1.979420 0.000000 0.014220 
#    y 0.000000 2.021170 0.000000 
#    z 0.014220 0.000000 1.938050 
# 
# From -- ./inp_files/255672.got.cif
#   From: 2010.05.17/outbox.cif.g08.bks.cpg/sg15_128_cif.got.tgz:255672.got - 2010.06.03 18:47:42.
