data_PCOD9289681
_publ_section_title
;
Structure prediction by ZEFSAII (Michael W. Deem and Ramdas Pophale) SiO2 
 PCOD9289681
Probable space group: C 2/C
;
_chemical_formula_sum "Si O2"
_cell_formula_units_Z 56
_cell_length_a 9.028517
_cell_length_b 10.502645
_cell_length_c 32.475842
_cell_angle_alpha 90.000000
_cell_angle_beta 131.455612
_cell_angle_gamma 90.000000
_cell_volume 2307.964406
_symmetry_space_group_name_H-M "C 2/C"
_symmetry_group_IT_number 15
_symmetry_cell_setting 'monoclinic'
loop_
_space_group_symop_operation_xyz
x,y,z
-x,y,1/2-z
-x,-y,-z
x,-y,1/2+z
1/2+x,1/2+y,z
1/2-x,1/2+y,1/2-z
1/2-x,1/2-y,-z
1/2+x,1/2-y,1/2+z
loop_
_atom_site_type_symbol
_atom_site_label
_atom_site_fract_x
_atom_site_fract_y
_atom_site_fract_z
Si Si1 0.051924 0.381877 0.346979
Si Si2 0.274870 0.833946 0.197334
Si Si3 0.960093 0.103428 0.958084
Si Si4 0.099865 0.361170 0.512090
Si Si5 0.500283 0.149669 0.199988
Si Si6 0.645943 0.810457 0.109934
Si Si7 0.079942 0.012699 0.893350
O O1 0.172722 0.284546 0.339224
O O2 0.231565 0.425155 0.407996
O O3 0.963686 0.505191 0.307861
O O4 0.894795 0.330038 0.349575
O O5 0.500000 0.856319 0.250000
O O6 0.163676 0.741628 0.208340
O O7 0.139742 0.960064 0.165173
O O8 0.993093 0.245729 0.979767
O O9 0.072551 0.086014 0.935729
O O10 0.000000 0.000000 0.000000
O O11 0.319343 0.382864 0.572155
O O12 0.000000 0.500000 0.500000
O O13 0.046689 0.319421 0.455392
O O14 0.500000 0.163185 0.250000
O O15 0.293752 0.190222 0.139346
O O16 0.780943 0.921947 0.114856
#
# Coordination Sequence:
#
# PCOD9289681 Si02
#       7
#     8   8   8   8   8   8   8
#     4  11  24  41  65  96 134 176 230 288 357 424
#     4  10  22  44  67  94 131 174 231 299 361 423
#     4  11  23  40  65 100 146 193 238 293 356 424
#     4  10  22  40  67 104 145 191 241 289 351 431
#     4  11  24  44  69  96 131 180 236 299 363 426
#     4  10  22  40  66  98 137 181 230 287 352 423
#     4   9  22  40  65  99 139 186 239 292 357 431
#
# _framework density 24.263805000000001
#
# number of rings (size 3 to 8) (size 9 to 14) (size 15 to 20)
#    0.000    1.714    0.000    3.000    0.000   13.714 
#    0.000   12.143    0.000    0.000    0.000    1.000 
#    0.000    0.000    0.000    0.000    0.000    0.000 
#
# Total GULP energy -155992.992531 kJ/mol
# GULP energy per Si atom -5571.178305 kJ/mol
# Density = 2.420858 g / cm^3
# Si number density = 24.263805 Si / 1000 Ang^3
#
#
#
# Elastic Constant Matrix: (Units=GPa)
#
#
# Indices 1 2 3 4 5 6 
#
# 1 129.1567 42.4055 35.7738 0.0000 -16.0463 0.0000
# 2 42.4055 127.4688 32.7674 0.0000 -14.2280 0.0000
# 3 35.7738 32.7674 116.8431 0.0000 3.2181 0.0000
# 4 0.0000 0.0000 0.0000 33.1627 0.0000 -16.4237
# 5 -16.0463 -14.2280 3.2181 0.0000 49.9256 0.0000
# 6 0.0000 0.0000 0.0000 -16.4237 0.0000 29.0846
#
#
#
# Elastic Compliance Matrix: (Units=1/GPa)
#
#
# Indices 1 2 3 4 5 6 
#
# 1 0.009445 -0.002260 -0.002328 0.000000 0.002542 0.000000
# 2 -0.002260 0.009337 -0.001983 0.000000 0.002062 0.000000
# 3 -0.002328 -0.001983 0.009881 0.000000 -0.001950 0.000000
# 4 0.000000 0.000000 0.000000 0.041861 0.000000 0.023638
# 5 0.002542 0.002062 -0.001950 0.000000 0.021560 0.000000
# 6 0.000000 0.000000 0.000000 0.023638 0.000000 0.047731
#
#
# Mechanical properties :
#
#
# Convention : Reuss Voigt Hill
#
# Bulk Modulus (GPa) = 64.43052 66.15132 65.29092
# Shear Modulus (GPa) = 31.61923 39.93604 35.77763
#
# Velocity S-wave (km/s) = 3.61382 4.06138 3.84412
# Velocity P-wave (km/s) = 6.63512 7.02251 6.83156
#
# Compressibility (1/GPa) = 0.01552060
#
# Stress axis : x y z
#
# Youngs Moduli (GPa) = 105.87445 107.10161 101.20255
#
# Poissons Ratio (x) = 0.24205 0.23560
# Poissons Ratio (y) = 0.23928 0.20072
# Poissons Ratio (z) = 0.24648 0.21241
#
# Static dielectric constant tensor:
#      x y z
#    x 2.077820 0.000000 -0.108670 
#    y 0.000000 1.942500 0.000000 
#    z -0.108670 0.000000 2.235530 
# 
# From -- ./inp_files/307554.got.cif
#   From: 2010.05.17/outbox.cif.g08.bks.cpg/sg15_154_cif.got.tgz:307554.got - 2010.06.03 18:47:42.
