data_PCOD9289637
_publ_section_title
;
Structure prediction by ZEFSAII (Michael W. Deem and Ramdas Pophale) SiO2 
 PCOD9289637
Probable space group: C 2/C
;
_chemical_formula_sum "Si O2"
_cell_formula_units_Z 36
_cell_length_a 19.461498
_cell_length_b 11.120703
_cell_length_c 13.925400
_cell_angle_alpha 90.000000
_cell_angle_beta 149.335166
_cell_angle_gamma 90.000000
_cell_volume 1537.089662
_symmetry_space_group_name_H-M "C 2/C"
_symmetry_group_IT_number 15
_symmetry_cell_setting 'monoclinic'
loop_
_space_group_symop_operation_xyz
x,y,z
-x,y,1/2-z
-x,-y,-z
x,-y,1/2+z
1/2+x,1/2+y,z
1/2-x,1/2+y,1/2-z
1/2-x,1/2-y,-z
1/2+x,1/2-y,1/2+z
loop_
_atom_site_type_symbol
_atom_site_label
_atom_site_fract_x
_atom_site_fract_y
_atom_site_fract_z
Si Si1 0.690263 0.484076 0.118582
Si Si2 0.854496 0.778145 0.040517
Si Si3 0.105421 0.379902 0.268287
Si Si4 0.000000 0.157569 0.250000
Si Si5 0.831791 0.511635 0.968325
O O1 0.815882 0.401797 0.234530
O O2 0.698677 0.490629 0.243540
O O3 0.704589 0.620253 0.099204
O O4 0.570264 0.421432 0.916378
O O5 0.000000 0.822696 0.250000
O O6 0.750000 0.750000 0.000000
O O7 0.880639 0.648421 0.025956
O O8 0.096074 0.249353 0.305818
O O9 0.179551 0.465736 0.436071
O O10 0.952176 0.427313 0.073808
#
# Coordination Sequence:
#
# PCOD9289637 Si02
#       5
#     8   8   8   4   8
#     4  12  23  41  66  93 129 171 218 267 328 385
#     4  12  23  45  68  97 135 170 222 280 323 383
#     4  10  22  45  61  89 132 172 210 267 328 394
#     4  10  24  40  60  92 130 162 218 266 324 386
#     4  10  22  40  66  95 123 175 216 259 331 393
#
# _framework density 23.420884000000001
#
# number of rings (size 3 to 8) (size 9 to 14) (size 15 to 20)
#    0.000    1.333    5.556    1.333    6.222    0.000 
#    0.000    2.222    0.000    0.000    0.000    0.000 
#    0.000    0.000    0.000    0.000    0.000    0.000 
#
# Total GULP energy -100568.376153 kJ/mol
# GULP energy per Si atom -5587.132009 kJ/mol
# Density = 2.336758 g / cm^3
# Si number density = 23.420884 Si / 1000 Ang^3
#
#
#
# Elastic Constant Matrix: (Units=GPa)
#
#
# Indices 1 2 3 4 5 6 
#
# 1 36.2476 -8.2907 13.5948 0.0000 6.0645 0.0000
# 2 -8.2907 119.4324 32.4663 0.0000 -13.6046 0.0000
# 3 13.5948 32.4663 129.7007 0.0000 -22.6850 0.0000
# 4 0.0000 0.0000 0.0000 27.7017 0.0000 9.1568
# 5 6.0645 -13.6046 -22.6850 0.0000 32.9879 0.0000
# 6 0.0000 0.0000 0.0000 9.1568 0.0000 3.9448
#
#
#
# Elastic Compliance Matrix: (Units=1/GPa)
#
#
# Indices 1 2 3 4 5 6 
#
# 1 0.031686 0.002726 -0.005486 0.000000 -0.008473 0.000000
# 2 0.002726 0.009397 -0.002328 0.000000 0.001774 0.000000
# 3 -0.005486 -0.002328 0.010090 0.000000 0.006987 0.000000
# 4 0.000000 0.000000 0.000000 0.155123 0.000000 -0.360076
# 5 -0.008473 0.001774 0.006987 0.000000 0.037408 0.000000
# 6 0.000000 0.000000 0.000000 -0.360076 0.000000 1.089320
#
#
# Mechanical properties :
#
#
# Convention : Reuss Voigt Hill
#
# Bulk Modulus (GPa) = 24.39159 40.10241 32.24700
# Shear Modulus (GPa) = 3.68496 29.43423 16.55960
#
# Velocity S-wave (km/s) = 1.25570 3.54892 2.66191
# Velocity P-wave (km/s) = 3.54111 5.82690 4.82142
#
# Compressibility (1/GPa) = 0.04099773
#
# Stress axis : x y z
#
# Youngs Moduli (GPa) = 31.55925 106.41780 99.11064
#
# Poissons Ratio (x) = -0.29005 0.54368
# Poissons Ratio (y) = -0.08602 0.23070
# Poissons Ratio (z) = 0.17312 0.24771
#
# Static dielectric constant tensor:
#      x y z
#    x 1.862860 0.000000 0.020320 
#    y 0.000000 1.848590 0.000000 
#    z 0.020320 0.000000 1.902280 
# 
# From -- ./inp_files/94376.got.cif
#   From: 2010.05.17/outbox.cif.g08.bks.cpg/sg15_48_cif.got.tgz:94376.got - 2010.06.03 18:47:42.
