data_PCOD9289174
_publ_section_title
;
Structure prediction by ZEFSAII (Michael W. Deem and Ramdas Pophale) SiO2 
 PCOD9289174
Probable space group: C 2/C
;
_chemical_formula_sum "Si O2"
_cell_formula_units_Z 60
_cell_length_a 8.207157
_cell_length_b 26.348245
_cell_length_c 13.096409
_cell_angle_alpha 90.000000
_cell_angle_beta 91.943211
_cell_angle_gamma 90.000000
_cell_volume 2830.393650
_symmetry_space_group_name_H-M "C 2/C"
_symmetry_group_IT_number 15
_symmetry_cell_setting 'monoclinic'
loop_
_space_group_symop_operation_xyz
x,y,z
-x,y,1/2-z
-x,-y,-z
x,-y,1/2+z
1/2+x,1/2+y,z
1/2-x,1/2+y,1/2-z
1/2-x,1/2-y,-z
1/2+x,1/2-y,1/2+z
loop_
_atom_site_type_symbol
_atom_site_label
_atom_site_fract_x
_atom_site_fract_y
_atom_site_fract_z
Si Si1 0.000000 0.676562 0.250000
Si Si2 0.334951 0.696298 0.004791
Si Si3 0.900454 0.613650 0.596816
Si Si4 0.863132 0.236935 0.600735
Si Si5 0.225021 0.038843 0.475302
Si Si6 0.836945 0.870845 0.683807
Si Si7 0.559499 0.453384 0.362656
Si Si8 0.263373 0.140033 0.815790
O O1 0.058008 0.714034 0.343182
O O2 0.161656 0.643261 0.229748
O O3 0.382426 0.678794 0.118309
O O4 0.250000 0.750000 0.000000
O O5 0.207187 0.654452 0.965523
O O6 0.492183 0.701942 0.938791
O O7 0.880662 0.559443 0.540998
O O8 0.824202 0.617735 0.708775
O O9 0.085278 0.631321 0.605624
O O10 0.750000 0.250000 0.500000
O O11 0.775199 0.199927 0.681243
O O12 0.189091 0.080719 0.388665
O O13 0.085860 0.042179 0.559498
O O14 0.206288 0.985887 0.415997
O O15 0.000000 0.881744 0.750000
O O16 0.500000 0.472367 0.250000
O O17 0.616977 0.395855 0.348098
#
# Coordination Sequence:
#
# PCOD9289174 Si02
#       8
#     4   8   8   8   8   8   8   8
#     4  12  26  42  66  98 142 192 236 280 352 420
#     4  11  21  40  62  85 129 172 217 278 326 383
#     4  10  22  40  61  94 129 166 214 272 337 388
#     4  12  25  41  64  98 131 178 239 281 335 411
#     4  10  23  43  69  98 131 169 220 282 343 413
#     4  11  24  44  66  97 140 181 230 283 348 413
#     4  11  22  42  73  99 126 171 222 275 344 417
#     4  11  23  38  66  93 129 168 220 276 327 401
#
# _framework density 21.198464000000001
#
# number of rings (size 3 to 8) (size 9 to 14) (size 15 to 20)
#    0.000    1.067    2.667    4.400    2.800    0.533 
#    0.000    1.333    0.000    0.000    0.000    0.000 
#    0.000    0.000    0.000    0.000    0.000    0.000 
#
# Total GULP energy -167446.604085 kJ/mol
# GULP energy per Si atom -5581.553469 kJ/mol
# Density = 2.115021 g / cm^3
# Si number density = 21.198464 Si / 1000 Ang^3
#
#
#
# Elastic Constant Matrix: (Units=GPa)
#
#
# Indices 1 2 3 4 5 6 
#
# 1 78.1696 9.9212 33.5431 0.0000 11.1067 0.0000
# 2 9.9212 72.1889 19.8510 0.0000 1.4720 0.0000
# 3 33.5431 19.8510 83.8186 0.0000 6.9123 0.0000
# 4 0.0000 0.0000 0.0000 8.6039 0.0000 16.3670
# 5 11.1067 1.4720 6.9123 0.0000 33.8596 0.0000
# 6 0.0000 0.0000 0.0000 16.3670 0.0000 16.3212
#
#
#
# Elastic Compliance Matrix: (Units=1/GPa)
#
#
# Indices 1 2 3 4 5 6 
#
# 1 0.015975 -0.000478 -0.005950 0.000000 -0.004005 0.000000
# 2 -0.000478 0.014832 -0.003337 0.000000 0.000193 0.000000
# 3 -0.005950 -0.003337 0.015185 0.000000 -0.001003 0.000000
# 4 0.000000 0.000000 0.000000 -0.128058 0.000000 0.128417
# 5 -0.004005 0.000193 -0.001003 0.000000 0.031044 0.000000
# 6 0.000000 0.000000 0.000000 0.128417 0.000000 -0.067507
#
#
# Mechanical properties :
#
#
# Convention : Reuss Voigt Hill
#
# Bulk Modulus (GPa) = 37.78974 40.08973 38.93974
# Shear Modulus (GPa) = -55.44547 23.14773 -16.14887
#
# Velocity S-wave (km/s) = -5.11979 3.30806 -2.76306
# Velocity P-wave (km/s) = 4.13331 5.79169 2.86875
#
# Compressibility (1/GPa) = 0.02646221
#
# Stress axis : x y z
#
# Youngs Moduli (GPa) = 62.59602 67.42169 65.85584
#
# Poissons Ratio (x) = 0.03221 0.39183
# Poissons Ratio (y) = 0.02991 0.21979
# Poissons Ratio (z) = 0.37243 0.22502
#
# Static dielectric constant tensor:
#      x y z
#    x 1.794300 0.000000 0.010560 
#    y 0.000000 1.800000 0.000000 
#    z 0.010560 0.000000 1.825870 
# 
# From -- ./inp_files/138263.got.cif
#   From: 2010.05.17/outbox.cif.g08.bks.cpg/sg15_70_cif.got.tgz:138263.got - 2010.06.03 18:47:42.
