data_PCOD9289081
_publ_section_title
;
Structure prediction by ZEFSAII (Michael W. Deem and Ramdas Pophale) SiO2 
 PCOD9289081
Probable space group: C 2/C
;
_chemical_formula_sum "Si O2"
_cell_formula_units_Z 48
_cell_length_a 14.082953
_cell_length_b 24.248528
_cell_length_c 14.261428
_cell_angle_alpha 90.000000
_cell_angle_beta 30.640297
_cell_angle_gamma 90.000000
_cell_volume 2482.054472
_symmetry_space_group_name_H-M "C 2/C"
_symmetry_group_IT_number 15
_symmetry_cell_setting 'monoclinic'
loop_
_space_group_symop_operation_xyz
x,y,z
-x,y,1/2-z
-x,-y,-z
x,-y,1/2+z
1/2+x,1/2+y,z
1/2-x,1/2+y,1/2-z
1/2-x,1/2-y,-z
1/2+x,1/2-y,1/2+z
loop_
_atom_site_type_symbol
_atom_site_label
_atom_site_fract_x
_atom_site_fract_y
_atom_site_fract_z
Si Si1 0.055521 0.504538 0.304557
Si Si2 0.321334 0.718766 0.532326
Si Si3 0.681857 0.922014 0.361192
Si Si4 0.076390 0.940723 0.965532
Si Si5 0.011154 0.327046 0.065045
Si Si6 0.393301 0.621945 0.255480
O O1 0.118328 0.455635 0.321050
O O2 0.000000 0.483679 0.250000
O O3 0.889946 0.538759 0.494916
O O4 0.229899 0.546726 0.148190
O O5 0.250000 0.750000 0.500000
O O6 0.401772 0.767023 0.530763
O O7 0.484111 0.676575 0.367733
O O8 0.153491 0.685829 0.722356
O O9 0.575890 0.863818 0.443575
O O10 0.904228 0.914329 0.167836
O O11 0.113638 0.909573 0.836531
O O12 0.000000 0.000000 0.000000
O O13 0.184197 0.361512 0.959724
O O14 0.500000 0.591914 0.250000
#
# Coordination Sequence:
#
# PCOD9289081 Si02
#       6
#     8   8   8   8   8   8
#     4  10  22  40  62  89 121 158 204 260 304 359
#     4  12  23  34  52  87 124 161 205 242 299 377
#     4  10  22  40  60  86 123 161 203 247 307 377
#     4  10  22  41  55  86 122 154 212 252 292 369
#     4  12  22  35  54  79 122 163 195 244 295 366
#     4  12  23  35  57  85 124 169 201 248 303 364
#
# _framework density 19.338818
#
# number of rings (size 3 to 8) (size 9 to 14) (size 15 to 20)
#    0.000    1.000    6.667    0.500    0.000    4.667 
#    0.000    0.000    0.000    0.000    0.000    4.667 
#    0.000    0.000    0.000    0.000    0.000    0.000 
#
# Total GULP energy -134020.609315 kJ/mol
# GULP energy per Si atom -5584.192055 kJ/mol
# Density = 1.929480 g / cm^3
# Si number density = 19.338818 Si / 1000 Ang^3
#
#
#
# Elastic Constant Matrix: (Units=GPa)
#
#
# Indices 1 2 3 4 5 6 
#
# 1 34.0518 4.3625 15.4871 -0.0268 2.0772 0.0082
# 2 4.3625 58.7326 10.9939 -0.0188 1.5416 0.0172
# 3 15.4871 10.9939 115.7079 -0.0163 -15.9258 0.0295
# 4 -0.0268 -0.0188 -0.0163 32.2484 0.0227 -1.6935
# 5 2.0772 1.5416 -15.9258 0.0227 24.2215 -0.0145
# 6 0.0082 0.0172 0.0295 -1.6935 -0.0145 23.8451
#
#
#
# Elastic Compliance Matrix: (Units=1/GPa)
#
#
# Indices 1 2 3 4 5 6 
#
# 1 0.032173 -0.001296 -0.005004 0.000027 -0.005967 -0.000006
# 2 -0.001296 0.017515 -0.001791 0.000009 -0.002181 -0.000011
# 3 -0.005004 -0.001791 0.010508 -0.000005 0.007452 -0.000006
# 4 0.000027 0.000009 -0.000005 0.031125 -0.000034 0.002211
# 5 -0.005967 -0.002181 0.007452 -0.000034 0.046836 0.000020
# 6 -0.000006 -0.000011 -0.000006 0.002211 0.000020 0.042094
#
#
# Mechanical properties :
#
#
# Convention : Reuss Voigt Hill
#
# Bulk Modulus (GPa) = 22.72046 30.01993 26.37019
# Shear Modulus (GPa) = 23.68471 27.90625 25.79548
#
# Velocity S-wave (km/s) = 3.50340 3.80283 3.65618
# Velocity P-wave (km/s) = 5.30464 5.90244 5.61151
#
# Compressibility (1/GPa) = 0.04401320
#
# Stress axis : x y z
#
# Youngs Moduli (GPa) = 31.08175 57.09358 95.16417
#
# Poissons Ratio (x) = 0.07401 0.47624
# Poissons Ratio (y) = 0.04029 0.17043
# Poissons Ratio (z) = 0.15555 0.10225
#
# Static dielectric constant tensor:
#      x y z
#    x 1.678430 -0.000020 -0.041420 
#    y -0.000020 1.698510 0.000040 
#    z -0.041420 0.000040 1.700580 
# 
# From -- ./inp_files/148701.got.cif
#   From: 2010.05.17/outbox.cif.g08.bks.cpg/sg15_75_cif.got.tgz:148701.got - 2010.06.03 18:47:42.
