data_PCOD9289708
_publ_section_title
;
Structure prediction by ZEFSAII (Michael W. Deem and Ramdas Pophale) SiO2 
 PCOD9289708
Probable space group: C 2/C
;
_chemical_formula_sum "Si O2"
_cell_formula_units_Z 56
_cell_length_a 10.764083
_cell_length_b 8.858596
_cell_length_c 29.331585
_cell_angle_alpha 90.000000
_cell_angle_beta 61.710392
_cell_angle_gamma 90.000000
_cell_volume 2462.850555
_symmetry_space_group_name_H-M "C 2/C"
_symmetry_group_IT_number 15
_symmetry_cell_setting 'monoclinic'
loop_
_space_group_symop_operation_xyz
x,y,z
-x,y,1/2-z
-x,-y,-z
x,-y,1/2+z
1/2+x,1/2+y,z
1/2-x,1/2+y,1/2-z
1/2-x,1/2-y,-z
1/2+x,1/2-y,1/2+z
loop_
_atom_site_type_symbol
_atom_site_label
_atom_site_fract_x
_atom_site_fract_y
_atom_site_fract_z
Si Si1 0.849459 0.266450 0.554067
Si Si2 0.574076 0.685584 0.057120
Si Si3 0.028427 0.261561 0.665041
Si Si4 0.155751 0.958866 0.365883
Si Si5 0.742261 0.416729 0.191367
Si Si6 0.008406 0.470490 0.591769
Si Si7 0.761129 0.621803 0.265477
O O1 0.716360 0.362945 0.558975
O O2 0.903665 0.174467 0.500813
O O3 0.974331 0.366740 0.554074
O O4 0.797683 0.152805 0.602338
O O5 0.439458 0.593813 0.097411
O O6 0.561882 0.864896 0.069198
O O7 0.091273 0.380385 0.617198
O O8 0.913107 0.340243 0.717743
O O9 0.134421 0.167816 0.677515
O O10 0.945343 0.143320 0.648013
O O11 0.267569 0.025844 0.310783
O O12 0.855575 0.502177 0.141385
O O13 0.681737 0.530229 0.239676
O O14 0.810595 0.280228 0.208888
#
# Coordination Sequence:
#
# PCOD9289708 Si02
#       7
#     8   8   8   8   8   8   8
#     4  10  24  42  61  91 124 153 202 256 301 357
#     4  11  22  41  66  89 118 161 201 250 308 354
#     4  10  23  41  63  88 127 163 197 247 300 351
#     4  11  22  41  61  90 124 160 202 250 298 357
#     4  11  22  42  61  90 124 160 199 246 295 359
#     4  10  22  40  67  92 119 159 203 247 300 360
#     4  11  22  37  61  86 123 160 199 243 294 354
#
# _framework density 22.737879
#
# number of rings (size 3 to 8) (size 9 to 14) (size 15 to 20)
#    0.000    1.429    2.857    2.143    2.000    0.000 
#    0.000    0.000    3.143    9.429    0.000    0.000 
#    0.000    0.000    0.000    0.000    0.000    0.000 
#
# Total GULP energy -156517.102468 kJ/mol
# GULP energy per Si atom -5589.896517 kJ/mol
# Density = 2.268613 g / cm^3
# Si number density = 22.737879 Si / 1000 Ang^3
#
#
#
# Elastic Constant Matrix: (Units=GPa)
#
#
# Indices 1 2 3 4 5 6 
#
# 1 71.0529 22.0014 30.2973 0.0000 30.0605 0.0000
# 2 22.0014 81.8759 20.9800 0.0000 19.6734 0.0000
# 3 30.2973 20.9800 112.4752 0.0000 26.4722 0.0000
# 4 0.0000 0.0000 0.0000 34.6647 0.0000 -2.1674
# 5 30.0605 19.6734 26.4722 0.0000 33.5171 0.0000
# 6 0.0000 0.0000 0.0000 -2.1674 0.0000 34.0824
#
#
#
# Elastic Compliance Matrix: (Units=1/GPa)
#
#
# Indices 1 2 3 4 5 6 
#
# 1 0.023042 -0.001306 -0.001572 0.000000 -0.018658 0.000000
# 2 -0.001306 0.014359 -0.000760 0.000000 -0.006657 0.000000
# 3 -0.001572 -0.000760 0.011079 0.000000 -0.006894 0.000000
# 4 0.000000 0.000000 0.000000 0.028963 0.000000 0.001842
# 5 -0.018658 -0.006657 -0.006894 0.000000 0.055922 0.000000
# 6 0.000000 0.000000 0.000000 0.001842 0.000000 0.029458
#
#
# Mechanical properties :
#
#
# Convention : Reuss Voigt Hill
#
# Bulk Modulus (GPa) = 24.26925 45.77348 35.02137
# Shear Modulus (GPa) = 27.19869 33.26118 30.22993
#
# Velocity S-wave (km/s) = 3.46234 3.82882 3.65018
# Velocity P-wave (km/s) = 5.16531 6.30247 5.76201
#
# Compressibility (1/GPa) = 0.04120440
#
# Stress axis : x y z
#
# Youngs Moduli (GPa) = 43.39835 69.64405 90.26379
#
# Poissons Ratio (x) = 0.09095 0.14189
# Poissons Ratio (y) = 0.05667 0.06858
# Poissons Ratio (z) = 0.06822 0.05292
#
# Static dielectric constant tensor:
#      x y z
#    x 1.861360 0.000000 0.020160 
#    y 0.000000 1.878790 0.000000 
#    z 0.020160 0.000000 1.840680 
# 
# From -- ./inp_files/310226.got.cif
#   From: 2010.05.17/outbox.cif.g08.bks.cpg/sg15_156_cif.got.tgz:310226.got - 2010.06.03 18:47:42.
