data_PCOD9289371
_publ_section_title
;
Structure prediction by ZEFSAII (Michael W. Deem and Ramdas Pophale) SiO2 
 PCOD9289371
Probable space group: C 2/C
;
_chemical_formula_sum "Si O2"
_cell_formula_units_Z 40
_cell_length_a 24.759050
_cell_length_b 9.057753
_cell_length_c 10.055674
_cell_angle_alpha 90.000000
_cell_angle_beta 100.828788
_cell_angle_gamma 90.000000
_cell_volume 2214.942521
_symmetry_space_group_name_H-M "C 2/C"
_symmetry_group_IT_number 15
_symmetry_cell_setting 'monoclinic'
loop_
_space_group_symop_operation_xyz
x,y,z
-x,y,1/2-z
-x,-y,-z
x,-y,1/2+z
1/2+x,1/2+y,z
1/2-x,1/2+y,1/2-z
1/2-x,1/2-y,-z
1/2+x,1/2-y,1/2+z
loop_
_atom_site_type_symbol
_atom_site_label
_atom_site_fract_x
_atom_site_fract_y
_atom_site_fract_z
Si Si1 0.730414 0.828138 0.125765
Si Si2 0.395192 0.849330 0.358919
Si Si3 0.405499 0.127369 0.550287
Si Si4 0.784531 0.321530 0.899024
Si Si5 0.003693 0.136830 0.099022
O O1 0.666468 0.798812 0.132918
O O2 0.768879 0.763248 0.258239
O O3 0.731726 0.005917 0.118819
O O4 0.750000 0.750000 0.000000
O O5 0.397460 0.901298 0.205054
O O6 0.438420 0.718427 0.392042
O O7 0.413254 0.978895 0.468198
O O8 0.348417 0.190374 0.466439
O O9 0.455388 0.241935 0.556894
O O10 0.750000 0.250000 0.000000
O O11 0.000000 0.086093 0.250000
O O12 0.000000 0.000000 0.000000
#
# Coordination Sequence:
#
# PCOD9289371 Si02
#       5
#     8   8   8   8   8
#     4  11  24  39  63  92 123 167 206 250 307 362
#     4  10  22  41  63  88 120 159 206 244 300 367
#     4  10  22  40  64  88 120 161 201 248 299 364
#     4  11  22  41  61  90 128 159 207 254 301 366
#     4  10  23  42  61  91 123 155 200 254 305 355
#
# _framework density 18.059161
#
# number of rings (size 3 to 8) (size 9 to 14) (size 15 to 20)
#    0.000    1.600    2.000    1.800    8.400    4.800 
#    0.000    0.000    0.000    0.000    0.000    0.000 
#    0.000    0.000    0.000    0.000    0.000    0.000 
#
# Total GULP energy -111686.477339 kJ/mol
# GULP energy per Si atom -5584.323867 kJ/mol
# Density = 1.801806 g / cm^3
# Si number density = 18.059161 Si / 1000 Ang^3
#
#
#
# Elastic Constant Matrix: (Units=GPa)
#
#
# Indices 1 2 3 4 5 6 
#
# 1 93.4895 68.9866 66.4136 0.0000 -10.6261 0.0000
# 2 68.9866 75.0468 70.7010 0.0000 2.5929 0.0000
# 3 66.4136 70.7010 169.1439 0.0000 -0.9788 0.0000
# 4 0.0000 0.0000 0.0000 47.6436 0.0000 2.3072
# 5 -10.6261 2.5929 -0.9788 0.0000 27.4497 0.0000
# 6 0.0000 0.0000 0.0000 2.3072 0.0000 18.9687
#
#
#
# Elastic Compliance Matrix: (Units=1/GPa)
#
#
# Indices 1 2 3 4 5 6 
#
# 1 0.041863 -0.039250 0.000084 0.000000 0.019916 0.000000
# 2 -0.039250 0.058941 -0.009347 0.000000 -0.021095 0.000000
# 3 0.000084 -0.009347 0.009794 0.000000 0.001265 0.000000
# 4 0.000000 0.000000 0.000000 0.021114 0.000000 -0.002568
# 5 0.019916 -0.021095 0.001265 0.000000 0.046178 0.000000
# 6 0.000000 0.000000 0.000000 -0.002568 0.000000 0.053031
#
#
# Mechanical properties :
#
#
# Convention : Reuss Voigt Hill
#
# Bulk Modulus (GPa) = 73.68894 83.32031 78.50463
# Shear Modulus (GPa) = 15.03894 27.58434 21.31164
#
# Velocity S-wave (km/s) = 2.88889 3.91249 3.43899
# Velocity P-wave (km/s) = 7.21251 8.16380 7.70286
#
# Compressibility (1/GPa) = 0.01357056
#
# Stress axis : x y z
#
# Youngs Moduli (GPa) = 23.88726 16.96624 102.10741
#
# Poissons Ratio (x) = 0.66593 -0.00858
# Poissons Ratio (y) = 0.93758 0.95445
# Poissons Ratio (z) = -0.00201 0.15859
#
# Static dielectric constant tensor:
#      x y z
#    x 1.613230 0.000000 -0.010650 
#    y 0.000000 1.592270 0.000000 
#    z -0.010650 0.000000 1.581780 
# 
# From -- ./inp_files/59890.got.cif
#   From: 2010.05.17/outbox.cif.g08.bks.cpg/sg15_30_cif.got.tgz:59890.got - 2010.06.03 18:47:42.
