data_PCOD9289113
_publ_section_title
;
Structure prediction by ZEFSAII (Michael W. Deem and Ramdas Pophale) SiO2 
 PCOD9289113
Probable space group: C 2/C
;
_chemical_formula_sum "Si O2"
_cell_formula_units_Z 44
_cell_length_a 10.883942
_cell_length_b 11.359542
_cell_length_c 15.777509
_cell_angle_alpha 90.000000
_cell_angle_beta 81.425346
_cell_angle_gamma 90.000000
_cell_volume 1928.873685
_symmetry_space_group_name_H-M "C 2/C"
_symmetry_group_IT_number 15
_symmetry_cell_setting 'monoclinic'
loop_
_space_group_symop_operation_xyz
x,y,z
-x,y,1/2-z
-x,-y,-z
x,-y,1/2+z
1/2+x,1/2+y,z
1/2-x,1/2+y,1/2-z
1/2-x,1/2-y,-z
1/2+x,1/2-y,1/2+z
loop_
_atom_site_type_symbol
_atom_site_label
_atom_site_fract_x
_atom_site_fract_y
_atom_site_fract_z
Si Si1 0.609318 0.976751 0.923127
Si Si2 0.962818 0.304368 0.155296
Si Si3 0.000000 0.951807 0.250000
Si Si4 0.710087 0.607338 0.303689
Si Si5 0.282487 0.906823 0.428394
Si Si6 0.391315 0.254010 0.162105
O O1 0.557170 0.867998 0.875554
O O2 0.625396 0.085557 0.858585
O O3 0.723884 0.948494 0.973620
O O4 0.500000 0.000000 0.000000
O O5 0.892405 0.186213 0.137559
O O6 0.000000 0.299622 0.250000
O O7 0.090260 0.334261 0.096019
O O8 0.987896 0.855078 0.177039
O O9 0.876394 0.031295 0.252817
O O10 0.775299 0.516122 0.361695
O O11 0.797206 0.702420 0.245155
O O12 0.182066 0.814931 0.406472
#
# Coordination Sequence:
#
# PCOD9289113 Si02
#       6
#     8   8   4   8   8   8
#     4  10  24  38  61  93 130 169 206 257 321 380
#     4  11  20  40  64  90 125 160 212 267 308 372
#     4  10  24  38  60 102 118 150 220 268 298 368
#     4  11  22  41  67  94 123 164 218 265 312 372
#     4  10  22  40  60  91 128 165 207 261 321 371
#     4  11  22  39  66  87 127 169 210 264 313 370
#
# _framework density 22.811240000000002
#
# number of rings (size 3 to 8) (size 9 to 14) (size 15 to 20)
#    0.000    1.455    2.727    1.636    8.909    0.727 
#    0.000    3.636    0.000   13.091    0.000    0.000 
#    0.000    0.000    0.000    0.000    0.000    0.000 
#
# Total GULP energy -122620.092990 kJ/mol
# GULP energy per Si atom -5573.640590 kJ/mol
# Density = 2.275932 g / cm^3
# Si number density = 22.811240 Si / 1000 Ang^3
#
#
#
# Elastic Constant Matrix: (Units=GPa)
#
#
# Indices 1 2 3 4 5 6 
#
# 1 51.1214 35.6897 8.4018 0.0000 10.0983 0.0000
# 2 35.6897 142.0466 19.2482 0.0000 7.5248 0.0000
# 3 8.4018 19.2482 34.1794 0.0000 9.8586 0.0000
# 4 0.0000 0.0000 0.0000 5.7336 0.0000 2.0950
# 5 10.0983 7.5248 9.8586 0.0000 18.0614 0.0000
# 6 0.0000 0.0000 0.0000 2.0950 0.0000 32.0800
#
#
#
# Elastic Compliance Matrix: (Units=1/GPa)
#
#
# Indices 1 2 3 4 5 6 
#
# 1 0.026090 -0.005970 0.000521 0.000000 -0.012384 0.000000
# 2 -0.005970 0.009002 -0.004134 0.000000 0.001844 0.000000
# 3 0.000521 -0.004134 0.036846 0.000000 -0.018681 0.000000
# 4 0.000000 0.000000 0.000000 0.178675 0.000000 -0.011668
# 5 -0.012384 0.001844 -0.018681 0.000000 0.071719 0.000000
# 6 0.000000 0.000000 0.000000 -0.011668 0.000000 0.031934
#
#
# Mechanical properties :
#
#
# Convention : Reuss Voigt Hill
#
# Bulk Modulus (GPa) = 18.94959 39.33630 29.14294
# Shear Modulus (GPa) = 12.78699 22.10883 17.44791
#
# Velocity S-wave (km/s) = 2.37018 3.11659 2.76865
# Velocity P-wave (km/s) = 3.97687 5.49841 4.79833
#
# Compressibility (1/GPa) = 0.05277159
#
# Stress axis : x y z
#
# Youngs Moduli (GPa) = 38.32940 111.08212 27.14021
#
# Poissons Ratio (x) = 0.66312 -0.01413
# Poissons Ratio (y) = 0.22881 0.11220
# Poissons Ratio (z) = -0.01995 0.45922
#
# Static dielectric constant tensor:
#      x y z
#    x 1.955210 0.000000 0.004800 
#    y 0.000000 0.474450 0.000000 
#    z 0.004800 0.000000 1.795260 
# 
# From -- ./inp_files/195676.got.cif
#   From: 2010.05.17/outbox.cif.g08.bks.cpg/sg15_98_cif.got.tgz:195676.got - 2010.06.03 18:47:42.
