data_PCOD9289484
_publ_section_title
;
Structure prediction by ZEFSAII (Michael W. Deem and Ramdas Pophale) SiO2 
 PCOD9289484
Probable space group: C 2/C
;
_chemical_formula_sum "Si O2"
_cell_formula_units_Z 48
_cell_length_a 9.968701
_cell_length_b 26.266585
_cell_length_c 12.305711
_cell_angle_alpha 90.000000
_cell_angle_beta 144.646179
_cell_angle_gamma 90.000000
_cell_volume 1864.426837
_symmetry_space_group_name_H-M "C 2/C"
_symmetry_group_IT_number 15
_symmetry_cell_setting 'monoclinic'
loop_
_space_group_symop_operation_xyz
x,y,z
-x,y,1/2-z
-x,-y,-z
x,-y,1/2+z
1/2+x,1/2+y,z
1/2-x,1/2+y,1/2-z
1/2-x,1/2-y,-z
1/2+x,1/2-y,1/2+z
loop_
_atom_site_type_symbol
_atom_site_label
_atom_site_fract_x
_atom_site_fract_y
_atom_site_fract_z
Si Si1 0.127196 0.918683 0.721265
Si Si2 0.191020 0.810433 0.731201
Si Si3 0.862369 0.942467 0.014353
Si Si4 0.521711 0.198537 0.635162
Si Si5 0.000000 0.353338 0.750000
Si Si6 0.000000 0.475015 0.250000
Si Si7 0.647488 0.092079 0.648558
O O1 0.042640 0.862030 0.629747
O O2 0.104311 0.949753 0.595308
O O3 0.000000 0.932249 0.750000
O O4 0.405438 0.915318 0.924768
O O5 0.089706 0.755199 0.643693
O O6 0.397496 0.820294 0.780901
O O7 0.281155 0.809929 0.914332
O O8 0.708350 0.890910 0.924583
O O9 0.692469 0.988576 0.931527
O O10 0.115000 0.933812 0.232148
O O11 0.500000 0.195955 0.750000
O O12 0.676943 0.152198 0.692118
O O13 0.099877 0.437419 0.227706
#
# Coordination Sequence:
#
# PCOD9289484 Si02
#       7
#     8   8   8   8   4   4   8
#     4  10  22  40  65 101 137 172 225 281 335 406
#     4  10  23  39  64  98 137 185 221 273 339 397
#     4  10  23  43  70  93 135 181 219 284 343 404
#     4  11  23  39  64 100 135 177 229 280 331 403
#     4   9  22  46  64  96 144 178 230 275 330 418
#     4  11  22  44  68  96 130 178 224 283 352 396
#     4  11  23  41  66  99 132 174 227 279 341 399
#
# _framework density 25.745177000000002
#
# number of rings (size 3 to 8) (size 9 to 14) (size 15 to 20)
#    0.000    1.667    0.833    2.500    7.000    1.333 
#    0.000   14.167    0.000    0.000    0.000    0.000 
#    0.000    0.000    0.000    0.000    0.000    0.000 
#
# Total GULP energy -134386.417009 kJ/mol
# GULP energy per Si atom -5599.434042 kJ/mol
# Density = 2.568658 g / cm^3
# Si number density = 25.745177 Si / 1000 Ang^3
#
#
#
# Elastic Constant Matrix: (Units=GPa)
#
#
# Indices 1 2 3 4 5 6 
#
# 1 145.2510 15.8652 2.0200 0.0000 13.0923 0.0000
# 2 15.8652 134.7191 18.6738 0.0000 9.5298 0.0000
# 3 2.0200 18.6738 117.0254 0.0000 22.8545 0.0000
# 4 0.0000 0.0000 0.0000 39.4032 0.0000 -10.8340
# 5 13.0923 9.5298 22.8545 0.0000 30.4228 0.0000
# 6 0.0000 0.0000 0.0000 -10.8340 0.0000 -23.4711
#
#
#
# Elastic Compliance Matrix: (Units=1/GPa)
#
#
# Indices 1 2 3 4 5 6 
#
# 1 0.007258 -0.000705 0.000649 0.000000 -0.003391 0.000000
# 2 -0.000705 0.007737 -0.000947 0.000000 -0.001409 0.000000
# 3 0.000649 -0.000947 0.010174 0.000000 -0.007626 0.000000
# 4 0.000000 0.000000 0.000000 0.022520 0.000000 -0.010395
# 5 -0.003391 -0.001409 -0.007626 0.000000 0.040499 0.000000
# 6 0.000000 0.000000 0.000000 -0.010395 0.000000 -0.037807
#
#
# Mechanical properties :
#
#
# Convention : Reuss Voigt Hill
#
# Bulk Modulus (GPa) = 43.17105 52.23483 47.70294
# Shear Modulus (GPa) = 83.18213 33.30007 58.24110
#
# Velocity S-wave (km/s) = 5.69034 3.60036 4.76143
# Velocity P-wave (km/s) = 7.74456 6.13324 6.98552
#
# Compressibility (1/GPa) = 0.02316367
#
# Stress axis : x y z
#
# Youngs Moduli (GPa) = 137.77496 129.25213 98.28555
#
# Poissons Ratio (x) = 0.09111 -0.06382
# Poissons Ratio (y) = 0.09712 0.09311
# Poissons Ratio (z) = -0.08947 0.12244
#
# Static dielectric constant tensor:
#      x y z
#    x 2.084430 0.000000 -0.009340 
#    y 0.000000 2.050650 0.000000 
#    z -0.009340 0.000000 2.104850 
# 
# From -- ./inp_files/148865.got.cif
#   From: 2010.05.17/outbox.cif.g08.bks.cpg/sg15_75_cif.got.tgz:148865.got - 2010.06.03 18:47:42.
