data_PCOD9289340
_publ_section_title
;
Structure prediction by ZEFSAII (Michael W. Deem and Ramdas Pophale) SiO2 
 PCOD9289340
Probable space group: C 2/C
;
_chemical_formula_sum "Si O2"
_cell_formula_units_Z 52
_cell_length_a 10.797199
_cell_length_b 15.543929
_cell_length_c 14.365208
_cell_angle_alpha 90.000000
_cell_angle_beta 61.680720
_cell_angle_gamma 90.000000
_cell_volume 2122.380753
_symmetry_space_group_name_H-M "C 2/C"
_symmetry_group_IT_number 15
_symmetry_cell_setting 'monoclinic'
loop_
_space_group_symop_operation_xyz
x,y,z
-x,y,1/2-z
-x,-y,-z
x,-y,1/2+z
1/2+x,1/2+y,z
1/2-x,1/2+y,1/2-z
1/2-x,1/2-y,-z
1/2+x,1/2-y,1/2+z
loop_
_atom_site_type_symbol
_atom_site_label
_atom_site_fract_x
_atom_site_fract_y
_atom_site_fract_z
Si Si1 0.715912 0.994159 0.993677
Si Si2 0.969933 0.951253 0.150541
Si Si3 0.614213 0.810214 0.050412
Si Si4 0.000000 0.797913 0.750000
Si Si5 0.531510 0.278254 0.052623
Si Si6 0.680167 0.157046 0.129336
Si Si7 0.245220 0.422393 0.787881
O O1 0.683943 0.979125 0.894514
O O2 0.657053 0.906706 0.058300
O O3 0.886139 0.005166 0.938060
O O4 0.657652 0.078172 0.065412
O O5 0.000000 0.937471 0.250000
O O6 0.941269 0.861110 0.111363
O O7 0.838403 0.013646 0.191170
O O8 0.510630 0.765017 0.159136
O O9 0.750000 0.750000 0.000000
O O10 0.547708 0.797043 0.972684
O O11 0.137851 0.858223 0.708754
O O12 0.599916 0.240320 0.120946
O O13 0.656758 0.315011 0.943220
O O14 0.654039 0.128180 0.244357
#
# Coordination Sequence:
#
# PCOD9289340 Si02
#       7
#     8   8   8   4   8   8   8
#     4  10  22  40  63  97 128 176 223 265 339 395
#     4   9  19  37  65  98 127 165 224 271 317 383
#     4  12  24  41  67  96 135 172 224 283 327 399
#     4  12  22  42  64 102 132 176 222 282 332 394
#     4  10  23  40  64  94 133 173 219 275 337 394
#     4  10  23  42  64  95 136 177 216 275 338 396
#     4  11  19  39  68  94 133 170 225 281 321 387
#
# _framework density 24.500788
#
# number of rings (size 3 to 8) (size 9 to 14) (size 15 to 20)
#    0.000    1.538    5.385    0.000    2.154    3.077 
#    2.769    0.000    1.692    0.000    0.000    0.000 
#    0.000    0.000    0.000    0.000    0.000    0.000 
#
# Total GULP energy -145546.266424 kJ/mol
# GULP energy per Si atom -5597.933324 kJ/mol
# Density = 2.444502 g / cm^3
# Si number density = 24.500788 Si / 1000 Ang^3
#
#
#
# Elastic Constant Matrix: (Units=GPa)
#
#
# Indices 1 2 3 4 5 6 
#
# 1 39.9775 18.2259 18.1004 0.0000 19.2494 0.0000
# 2 18.2259 128.4699 27.6599 0.0000 -0.4367 0.0000
# 3 18.1004 27.6599 104.4473 0.0000 15.3462 0.0000
# 4 0.0000 0.0000 0.0000 28.8960 0.0000 9.2372
# 5 19.2494 -0.4367 15.3462 0.0000 32.2957 0.0000
# 6 0.0000 0.0000 0.0000 9.2372 0.0000 31.8426
#
#
#
# Elastic Compliance Matrix: (Units=1/GPa)
#
#
# Indices 1 2 3 4 5 6 
#
# 1 0.039100 -0.005166 -0.002121 0.000000 -0.022367 0.000000
# 2 -0.005166 0.008983 -0.002101 0.000000 0.004199 0.000000
# 3 -0.002121 -0.002101 0.011091 0.000000 -0.004034 0.000000
# 4 0.000000 0.000000 0.000000 0.038144 0.000000 -0.011065
# 5 -0.022367 0.004199 -0.004034 0.000000 0.046269 0.000000
# 6 0.000000 0.000000 0.000000 -0.011065 0.000000 0.034614
#
#
# Mechanical properties :
#
#
# Convention : Reuss Voigt Hill
#
# Bulk Modulus (GPa) = 24.75422 44.54077 34.64750
# Shear Modulus (GPa) = 23.75933 32.53410 28.14671
#
# Velocity S-wave (km/s) = 3.11744 3.64796 3.39308
# Velocity P-wave (km/s) = 4.80451 5.99686 5.43349
#
# Compressibility (1/GPa) = 0.04039715
#
# Stress axis : x y z
#
# Youngs Moduli (GPa) = 25.57571 111.31633 90.16438
#
# Poissons Ratio (x) = 0.57509 0.19127
# Poissons Ratio (y) = 0.13213 0.18940
# Poissons Ratio (z) = 0.05426 0.23384
#
# Static dielectric constant tensor:
#      x y z
#    x 1.963290 0.000000 -0.006880 
#    y 0.000000 1.859750 0.000000 
#    z -0.006880 0.000000 2.009930 
# 
# From -- ./inp_files/144173.got.cif
#   From: 2010.05.17/outbox.cif.g08.bks.cpg/sg15_73_cif.got.tgz:144173.got - 2010.06.03 18:47:42.
