data_PCOD9289287
_publ_section_title
;
Structure prediction by ZEFSAII (Michael W. Deem and Ramdas Pophale) SiO2 
 PCOD9289287
Probable space group: C 2/C
;
_chemical_formula_sum "Si O2"
_cell_formula_units_Z 48
_cell_length_a 13.135636
_cell_length_b 27.051737
_cell_length_c 14.365755
_cell_angle_alpha 90.000000
_cell_angle_beta 159.395079
_cell_angle_gamma 90.000000
_cell_volume 1796.475040
_symmetry_space_group_name_H-M "C 2/C"
_symmetry_group_IT_number 15
_symmetry_cell_setting 'monoclinic'
loop_
_space_group_symop_operation_xyz
x,y,z
-x,y,1/2-z
-x,-y,-z
x,-y,1/2+z
1/2+x,1/2+y,z
1/2-x,1/2+y,1/2-z
1/2-x,1/2-y,-z
1/2+x,1/2-y,1/2+z
loop_
_atom_site_type_symbol
_atom_site_label
_atom_site_fract_x
_atom_site_fract_y
_atom_site_fract_z
Si Si1 0.035902 0.778437 0.586139
Si Si2 0.507623 0.692489 0.653830
Si Si3 0.746685 0.413045 0.597627
Si Si4 0.640351 0.938395 0.268093
Si Si5 0.437359 0.136606 0.444757
Si Si6 0.357281 0.498646 0.729697
O O1 0.121256 0.780449 0.547900
O O2 0.707567 0.761085 0.295801
O O3 0.147104 0.831617 0.715938
O O4 0.500000 0.715436 0.750000
O O5 0.337244 0.640193 0.516433
O O6 0.824401 0.674338 0.892145
O O7 0.467826 0.448393 0.360325
O O8 0.000000 0.435103 0.750000
O O9 0.871063 0.400723 0.804589
O O10 0.500000 0.932151 0.250000
O O11 0.571157 0.890325 0.148124
O O12 0.964659 0.956734 0.562685
O O13 0.470855 0.982625 0.068891
O O14 0.500000 0.497140 0.750000
#
# Coordination Sequence:
#
# PCOD9289287 Si02
#       6
#     8   8   8   8   8   8
#     4  11  24  44  66  94 129 166 209 263 323 391
#     4  11  23  40  62  95 134 174 215 255 312 384
#     4  11  22  37  63  91 137 179 216 258 314 370
#     4  10  24  44  66  93 126 169 221 271 322 369
#     4  11  25  42  67  96 129 170 216 266 323 384
#     4  10  22  40  63  90 128 172 219 266 311 365
#
# _framework density 26.718990999999999
#
# number of rings (size 3 to 8) (size 9 to 14) (size 15 to 20)
#    0.000    1.333    3.333    2.000    7.000    2.000 
#    0.000    0.000    0.000    1.000    0.000    0.000 
#    0.000    0.000    0.000    0.000    0.000    0.000 
#
# Total GULP energy -134504.451600 kJ/mol
# GULP energy per Si atom -5604.352150 kJ/mol
# Density = 2.665818 g / cm^3
# Si number density = 26.718991 Si / 1000 Ang^3
#
#
#
# Elastic Constant Matrix: (Units=GPa)
#
#
# Indices 1 2 3 4 5 6 
#
# 1 57.6750 20.2103 23.1230 0.0006 -20.0710 -0.0006
# 2 20.2103 105.1952 45.9801 -0.0019 -15.1446 -0.0003
# 3 23.1230 45.9801 183.8566 0.0056 -15.9537 -0.0018
# 4 0.0006 -0.0019 0.0056 70.3608 0.0026 -17.3488
# 5 -20.0710 -15.1446 -15.9537 0.0026 43.8444 -0.0017
# 6 -0.0006 -0.0003 -0.0018 -17.3488 -0.0017 27.3234
#
#
#
# Elastic Compliance Matrix: (Units=1/GPa)
#
#
# Indices 1 2 3 4 5 6 
#
# 1 0.021716 -0.002316 -0.001403 0.000000 0.008631 0.000001
# 2 -0.002316 0.011264 -0.002354 0.000001 0.001974 0.000000
# 3 -0.001403 -0.002354 0.006276 -0.000001 0.000828 0.000000
# 4 0.000000 0.000001 -0.000001 0.016851 -0.000001 0.010699
# 5 0.008631 0.001974 0.000828 -0.000001 0.027742 0.000001
# 6 0.000001 0.000000 0.000000 0.010699 0.000001 0.043392
#
#
# Mechanical properties :
#
#
# Convention : Reuss Voigt Hill
#
# Bulk Modulus (GPa) = 36.88805 58.37263 47.63034
# Shear Modulus (GPa) = 33.68695 45.46661 39.57678
#
# Velocity S-wave (km/s) = 3.55461 4.12959 3.85284
# Velocity P-wave (km/s) = 5.53921 6.68074 6.13658
#
# Compressibility (1/GPa) = 0.02710905
#
# Stress axis : x y z
#
# Youngs Moduli (GPa) = 46.04863 88.77478 159.33312
#
# Poissons Ratio (x) = 0.20564 0.22354
# Poissons Ratio (y) = 0.10667 0.37515
# Poissons Ratio (z) = 0.06460 0.20902
#
# Static dielectric constant tensor:
#      x y z
#    x 2.087320 0.000000 0.046860 
#    y 0.000000 2.142740 0.000000 
#    z 0.046860 0.000000 2.101320 
# 
# From -- ./inp_files/157726.got.cif
#   From: 2010.05.17/outbox.cif.g08.bks.cpg/sg15_79_cif.got.tgz:157726.got - 2010.06.03 18:47:42.
