data_PCOD9289165
_publ_section_title
;
Structure prediction by ZEFSAII (Michael W. Deem and Ramdas Pophale) SiO2 
 PCOD9289165
Probable space group: C 2/C
;
_chemical_formula_sum "Si O2"
_cell_formula_units_Z 56
_cell_length_a 12.276028
_cell_length_b 20.594034
_cell_length_c 13.333092
_cell_angle_alpha 90.000000
_cell_angle_beta 122.912596
_cell_angle_gamma 90.000000
_cell_volume 2829.769722
_symmetry_space_group_name_H-M "C 2/C"
_symmetry_group_IT_number 15
_symmetry_cell_setting 'monoclinic'
loop_
_space_group_symop_operation_xyz
x,y,z
-x,y,1/2-z
-x,-y,-z
x,-y,1/2+z
1/2+x,1/2+y,z
1/2-x,1/2+y,1/2-z
1/2-x,1/2-y,-z
1/2+x,1/2-y,1/2+z
loop_
_atom_site_type_symbol
_atom_site_label
_atom_site_fract_x
_atom_site_fract_y
_atom_site_fract_z
Si Si1 0.397216 0.446406 0.127876
Si Si2 0.468454 0.348091 0.016600
Si Si3 0.886677 0.410307 0.975243
Si Si4 0.944287 0.291204 0.875612
Si Si5 0.686803 0.559663 0.551078
Si Si6 0.804505 0.698630 0.107462
Si Si7 0.671441 0.042761 0.664395
O O1 0.500000 0.483092 0.250000
O O2 0.469416 0.382572 0.125394
O O3 0.364964 0.491190 0.016925
O O4 0.269009 0.432041 0.126936
O O5 0.513126 0.273847 0.046443
O O6 0.566920 0.390481 0.000846
O O7 0.313710 0.347385 0.918870
O O8 0.877278 0.341870 0.915110
O O9 0.788697 0.416544 0.018746
O O10 0.854934 0.467905 0.880186
O O11 0.033141 0.421789 0.088198
O O12 0.857614 0.271248 0.736903
O O13 0.069464 0.327595 0.888466
O O14 0.758516 0.550985 0.693689
O O15 0.750000 0.750000 0.000000
#
# Coordination Sequence:
#
# PCOD9289165 Si02
#       7
#     8   8   8   8   8   8   8
#     4  11  23  37  62  91 123 157 209 268 318 377
#     4  11  23  37  63  91 125 162 205 259 324 375
#     4  10  23  42  61  91 127 163 217 258 315 394
#     4  10  22  40  61  92 128 167 206 264 312 378
#     4  11  24  39  63  91 125 169 211 262 323 384
#     4   9  21  37  60  91 123 160 209 255 309 372
#     4  10  22  42  64  88 121 169 211 269 313 372
#
# _framework density 19.789596
#
# number of rings (size 3 to 8) (size 9 to 14) (size 15 to 20)
#    0.000    1.714    1.429    1.714    6.000    4.000 
#    5.143    0.000    0.000    1.714    0.000    0.000 
#    0.000    0.000    0.000    0.000    0.000    0.000 
#
# Total GULP energy -156202.796601 kJ/mol
# GULP energy per Si atom -5578.671307 kJ/mol
# Density = 1.974455 g / cm^3
# Si number density = 19.789596 Si / 1000 Ang^3
#
#
#
# Elastic Constant Matrix: (Units=GPa)
#
#
# Indices 1 2 3 4 5 6 
#
# 1 126.0556 35.7823 19.9653 0.0000 1.8269 0.0000
# 2 35.7823 75.1977 13.3048 0.0000 -10.7092 0.0000
# 3 19.9653 13.3048 70.9744 0.0000 1.2863 0.0000
# 4 0.0000 0.0000 0.0000 19.8764 0.0000 2.8808
# 5 1.8269 -10.7092 1.2863 0.0000 29.3089 0.0000
# 6 0.0000 0.0000 0.0000 2.8808 0.0000 28.8019
#
#
#
# Elastic Compliance Matrix: (Units=1/GPa)
#
#
# Indices 1 2 3 4 5 6 
#
# 1 0.009534 -0.004528 -0.001794 0.000000 -0.002170 0.000000
# 2 -0.004528 0.016726 -0.001979 0.000000 0.006481 0.000000
# 3 -0.001794 -0.001979 0.014988 0.000000 -0.001269 0.000000
# 4 0.000000 0.000000 0.000000 0.051051 0.000000 -0.005106
# 5 -0.002170 0.006481 -0.001269 0.000000 0.036678 0.000000
# 6 0.000000 0.000000 0.000000 -0.005106 0.000000 0.035231
#
#
# Mechanical properties :
#
#
# Convention : Reuss Voigt Hill
#
# Bulk Modulus (GPa) = 40.57459 45.59250 43.08355
# Shear Modulus (GPa) = 26.45137 29.14245 27.79691
#
# Velocity S-wave (km/s) = 3.65996 3.84163 3.75190
# Velocity P-wave (km/s) = 6.19741 6.53958 6.37079
#
# Compressibility (1/GPa) = 0.02464597
#
# Stress axis : x y z
#
# Youngs Moduli (GPa) = 104.88781 59.78647 66.71934
#
# Poissons Ratio (x) = 0.27074 0.11968
# Poissons Ratio (y) = 0.47497 0.13204
# Poissons Ratio (z) = 0.18814 0.11832
#
# Static dielectric constant tensor:
#      x y z
#    x 1.713050 0.000000 0.033010 
#    y 0.000000 1.710650 0.000000 
#    z 0.033010 0.000000 1.741110 
# 
# From -- ./inp_files/90910.got.cif
#   From: 2010.05.17/outbox.cif.g08.bks.cpg/sg15_46_cif.got.tgz:90910.got - 2010.06.03 18:47:42.
