data_PCOD9289567
_publ_section_title
;
Structure prediction by ZEFSAII (Michael W. Deem and Ramdas Pophale) SiO2 
 PCOD9289567
Probable space group: C 2/C
;
_chemical_formula_sum "Si O2"
_cell_formula_units_Z 48
_cell_length_a 7.933007
_cell_length_b 22.960983
_cell_length_c 19.994198
_cell_angle_alpha 90.000000
_cell_angle_beta 35.108312
_cell_angle_gamma 90.000000
_cell_volume 2094.564537
_symmetry_space_group_name_H-M "C 2/C"
_symmetry_group_IT_number 15
_symmetry_cell_setting 'monoclinic'
loop_
_space_group_symop_operation_xyz
x,y,z
-x,y,1/2-z
-x,-y,-z
x,-y,1/2+z
1/2+x,1/2+y,z
1/2-x,1/2+y,1/2-z
1/2-x,1/2-y,-z
1/2+x,1/2-y,1/2+z
loop_
_atom_site_type_symbol
_atom_site_label
_atom_site_fract_x
_atom_site_fract_y
_atom_site_fract_z
Si Si1 0.349655 0.226241 0.148417
Si Si2 0.366424 0.660519 0.721248
Si Si3 0.928859 0.503329 0.372831
Si Si4 0.284725 0.299822 0.044349
Si Si5 0.457348 0.541708 0.622021
Si Si6 0.151813 0.636544 0.134627
O O1 0.432302 0.273623 0.177806
O O2 0.512285 0.168154 0.115872
O O3 0.000000 0.215864 0.250000
O O4 0.576572 0.261794 0.441382
O O5 0.500000 0.647802 0.750000
O O6 0.474113 0.610163 0.635758
O O7 0.014451 0.667255 0.839804
O O8 0.760411 0.509185 0.499828
O O9 0.736904 0.465864 0.382378
O O10 0.907841 0.569105 0.353794
O O11 0.264225 0.483740 0.247296
O O12 0.250000 0.250000 0.000000
O O13 0.513917 0.350257 0.957721
O O14 0.000000 0.660721 0.250000
#
# Coordination Sequence:
#
# PCOD9289567 Si02
#       6
#     8   8   8   8   8   8
#     4  10  22  40  65  99 136 181 223 291 360 430
#     4  11  24  43  69 100 141 185 236 300 358 430
#     4  10  23  39  70  99 131 183 239 292 341 433
#     4  11  24  39  66 102 138 184 232 290 356 434
#     4  10  22  42  66  99 130 180 244 289 349 413
#     4  12  22  39  63  99 135 178 231 285 350 423
#
# _framework density 22.916459
#
# number of rings (size 3 to 8) (size 9 to 14) (size 15 to 20)
#    0.000    1.333    1.667    5.000   14.000    1.333 
#    0.000    1.667    0.000    0.000    0.000    0.000 
#    0.000    0.000    0.000    0.000    0.000    0.000 
#
# Total GULP energy -133849.152701 kJ/mol
# GULP energy per Si atom -5577.048029 kJ/mol
# Density = 2.286430 g / cm^3
# Si number density = 22.916459 Si / 1000 Ang^3
#
#
#
# Elastic Constant Matrix: (Units=GPa)
#
#
# Indices 1 2 3 4 5 6 
#
# 1 73.3787 40.0925 12.6064 -0.0001 9.2109 0.0001
# 2 40.0925 125.2369 22.2313 -0.0001 -0.1016 0.0002
# 3 12.6064 22.2313 161.0847 -0.0004 -2.1537 0.0013
# 4 -0.0001 -0.0001 -0.0004 38.8733 0.0006 16.0812
# 5 9.2109 -0.1016 -2.1537 0.0006 21.8288 -0.0003
# 6 0.0001 0.0002 0.0013 16.0812 -0.0003 26.8415
#
#
#
# Elastic Compliance Matrix: (Units=1/GPa)
#
#
# Indices 1 2 3 4 5 6 
#
# 1 0.017740 -0.005557 -0.000723 0.000000 -0.007583 0.000000
# 2 -0.005557 0.009926 -0.000904 0.000000 0.002302 0.000000
# 3 -0.000723 -0.000904 0.006402 0.000000 0.000932 0.000000
# 4 0.000000 0.000000 0.000000 0.034201 -0.000001 -0.020490
# 5 -0.007583 0.002302 0.000932 -0.000001 0.049113 0.000001
# 6 0.000000 0.000000 0.000000 -0.020490 0.000001 0.049532
#
#
# Mechanical properties :
#
#
# Convention : Reuss Voigt Hill
#
# Bulk Modulus (GPa) = 50.76150 56.61785 53.68968
# Shear Modulus (GPa) = 26.61707 36.49339 31.55523
#
# Velocity S-wave (km/s) = 3.41175 3.99488 3.71478
# Velocity P-wave (km/s) = 6.14156 6.78518 6.47138
#
# Compressibility (1/GPa) = 0.01969997
#
# Stress axis : x y z
#
# Youngs Moduli (GPa) = 56.36916 100.74296 156.20746
#
# Poissons Ratio (x) = 0.55984 0.11291
# Poissons Ratio (y) = 0.31325 0.14125
# Poissons Ratio (z) = 0.04074 0.09110
#
# Static dielectric constant tensor:
#      x y z
#    x 1.868290 0.000000 0.071530 
#    y 0.000000 1.961440 0.000000 
#    z 0.071530 0.000000 1.984820 
# 
# From -- ./inp_files/266469.got.cif
#   From: 2010.05.17/outbox.cif.g08.bks.cpg/sg15_134_cif.got.tgz:266469.got - 2010.06.03 18:47:42.
