data_PCOD9289644
_publ_section_title
;
Structure prediction by ZEFSAII (Michael W. Deem and Ramdas Pophale) SiO2 
 PCOD9289644
Probable space group: C 2/C
;
_chemical_formula_sum "Si O2"
_cell_formula_units_Z 52
_cell_length_a 8.407609
_cell_length_b 25.863146
_cell_length_c 11.674145
_cell_angle_alpha 90.000000
_cell_angle_beta 105.733744
_cell_angle_gamma 90.000000
_cell_volume 2443.397995
_symmetry_space_group_name_H-M "C 2/C"
_symmetry_group_IT_number 15
_symmetry_cell_setting 'monoclinic'
loop_
_space_group_symop_operation_xyz
x,y,z
-x,y,1/2-z
-x,-y,-z
x,-y,1/2+z
1/2+x,1/2+y,z
1/2-x,1/2+y,1/2-z
1/2-x,1/2-y,-z
1/2+x,1/2-y,1/2+z
loop_
_atom_site_type_symbol
_atom_site_label
_atom_site_fract_x
_atom_site_fract_y
_atom_site_fract_z
Si Si1 0.840327 0.838188 0.962469
Si Si2 0.659984 0.949781 0.468716
Si Si3 0.126141 0.130338 0.381869
Si Si4 0.331497 0.794029 0.777178
Si Si5 0.112758 0.440436 0.886623
Si Si6 0.680710 0.680656 0.785426
Si Si7 0.000000 0.376213 0.250000
O O1 0.800112 0.800775 0.849451
O O2 0.733566 0.891202 0.923820
O O3 0.031257 0.850699 0.976402
O O4 0.797533 0.812443 0.073747
O O5 0.806511 0.925347 0.571190
O O6 0.510285 0.946558 0.530399
O O7 0.596618 0.911641 0.358577
O O8 0.702465 0.004015 0.416180
O O9 0.270131 0.169952 0.368711
O O10 0.000000 0.126821 0.250000
O O11 0.500000 0.812659 0.750000
O O12 0.346165 0.732731 0.794534
O O13 0.000000 0.437095 0.750000
O O14 0.500000 0.652140 0.750000
O O15 0.850915 0.655671 0.777812
#
# Coordination Sequence:
#
# PCOD9289644 Si02
#       7
#     8   8   8   8   8   8   4
#     4  11  21  40  63  93 130 170 219 287 336 401
#     4  11  23  42  64  98 129 178 230 272 347 414
#     4  10  22  40  66  95 134 173 224 283 341 408
#     4  10  22  41  65  93 130 176 225 276 337 406
#     4  11  22  40  68  94 130 172 227 281 338 418
#     4  11  25  43  62  98 136 178 230 281 341 407
#     4  12  24  44  70  96 140 184 222 288 350 408
#
# _framework density 21.281838
#
# number of rings (size 3 to 8) (size 9 to 14) (size 15 to 20)
#    0.000    1.231    2.308    4.615    3.231    0.615 
#    0.000    3.077    0.000    0.000    0.000    0.000 
#    0.000    0.000    0.000    0.000    0.000    0.000 
#
# Total GULP energy -144930.590536 kJ/mol
# GULP energy per Si atom -5574.253482 kJ/mol
# Density = 2.123340 g / cm^3
# Si number density = 21.281838 Si / 1000 Ang^3
#
#
#
# Elastic Constant Matrix: (Units=GPa)
#
#
# Indices 1 2 3 4 5 6 
#
# 1 84.3986 29.7301 4.5336 0.0000 -4.5872 0.0000
# 2 29.7301 99.1186 25.0094 0.0000 0.7233 0.0000
# 3 4.5336 25.0094 64.1212 0.0000 -13.3841 0.0000
# 4 0.0000 0.0000 0.0000 36.5937 0.0000 10.2098
# 5 -4.5872 0.7233 -13.3841 0.0000 29.0985 0.0000
# 6 0.0000 0.0000 0.0000 10.2098 0.0000 6.1589
#
#
#
# Elastic Compliance Matrix: (Units=1/GPa)
#
#
# Indices 1 2 3 4 5 6 
#
# 1 0.013484 -0.004410 0.001364 0.000000 0.002863 0.000000
# 2 -0.004410 0.012803 -0.005413 0.000000 -0.003503 0.000000
# 3 0.001364 -0.005413 0.019561 0.000000 0.009347 0.000000
# 4 0.000000 0.000000 0.000000 0.050843 0.000000 -0.084284
# 5 0.002863 -0.003503 0.009347 0.000000 0.039204 0.000000
# 6 0.000000 0.000000 0.000000 -0.084284 0.000000 0.302089
#
#
# Mechanical properties :
#
#
# Convention : Reuss Voigt Hill
#
# Bulk Modulus (GPa) = 34.56465 40.68716 37.62590
# Shear Modulus (GPa) = 10.76322 26.92792 18.84557
#
# Velocity S-wave (km/s) = 2.25132 3.56097 2.97900
# Velocity P-wave (km/s) = 4.79943 6.00559 5.43607
#
# Compressibility (1/GPa) = 0.02893129
#
# Stress axis : x y z
#
# Youngs Moduli (GPa) = 74.16112 78.10731 51.12147
#
# Poissons Ratio (x) = 0.34442 -0.06973
# Poissons Ratio (y) = 0.32702 0.27672
# Poissons Ratio (z) = -0.10116 0.42279
#
# Static dielectric constant tensor:
#      x y z
#    x 1.890100 0.000000 0.032670 
#    y 0.000000 1.844220 0.000000 
#    z 0.032670 0.000000 1.800070 
# 
# From -- ./inp_files/80877.got.cif
#   From: 2010.05.17/outbox.cif.g08.bks.cpg/sg15_41_cif.got.tgz:80877.got - 2010.06.03 18:47:42.
