data_PCOD9289777
_publ_section_title
;
Structure prediction by ZEFSAII (Michael W. Deem and Ramdas Pophale) SiO2 
 PCOD9289777
Probable space group: C 2/C
;
_chemical_formula_sum "Si O2"
_cell_formula_units_Z 40
_cell_length_a 17.025282
_cell_length_b 11.504619
_cell_length_c 9.215132
_cell_angle_alpha 90.000000
_cell_angle_beta 104.703772
_cell_angle_gamma 90.000000
_cell_volume 1745.851590
_symmetry_space_group_name_H-M "C 2/C"
_symmetry_group_IT_number 15
_symmetry_cell_setting 'monoclinic'
loop_
_space_group_symop_operation_xyz
x,y,z
-x,y,1/2-z
-x,-y,-z
x,-y,1/2+z
1/2+x,1/2+y,z
1/2-x,1/2+y,1/2-z
1/2-x,1/2-y,-z
1/2+x,1/2-y,1/2+z
loop_
_atom_site_type_symbol
_atom_site_label
_atom_site_fract_x
_atom_site_fract_y
_atom_site_fract_z
Si Si1 0.132064 0.749987 0.098630
Si Si2 0.476765 0.387105 0.076669
Si Si3 0.799165 0.856992 0.088648
Si Si4 0.907895 0.646406 0.692601
Si Si5 0.347472 0.998346 0.423334
O O1 0.177394 0.834766 0.230561
O O2 0.151781 0.620105 0.162684
O O3 0.036580 0.781162 0.066051
O O4 0.144453 0.737503 0.929659
O O5 0.500000 0.417128 0.250000
O O6 0.381364 0.365058 0.034703
O O7 0.500000 0.500000 0.000000
O O8 0.740962 0.968201 0.056815
O O9 0.750000 0.750000 0.000000
O O10 0.905717 0.532631 0.584982
O O11 0.874266 0.605345 0.830818
O O12 0.000000 0.687111 0.750000
#
# Coordination Sequence:
#
# PCOD9289777 Si02
#       5
#     8   8   8   8   8
#     4   9  24  43  69 101 141 190 245 285 363 431
#     4  10  24  48  72  96 137 189 239 287 350 443
#     4  11  24  43  71 102 146 184 230 304 371 419
#     4  10  22  40  68 101 145 187 241 292 362 430
#     4  10  23  41  67 108 144 182 233 310 361 424
#
# _framework density 22.911455
#
# number of rings (size 3 to 8) (size 9 to 14) (size 15 to 20)
#    1.200    0.800    0.000    1.800    2.800   10.400 
#    3.600    0.000    0.000    0.000    0.000    0.000 
#    0.000    0.000    0.000    0.000    0.000    0.000 
#
# Total GULP energy -111488.231830 kJ/mol
# GULP energy per Si atom -5574.411592 kJ/mol
# Density = 2.285931 g / cm^3
# Si number density = 22.911455 Si / 1000 Ang^3
#
#
#
# Elastic Constant Matrix: (Units=GPa)
#
#
# Indices 1 2 3 4 5 6 
#
# 1 97.2732 48.7290 9.0426 0.0000 21.6502 0.0000
# 2 48.7290 78.5075 10.9399 0.0000 5.4704 0.0000
# 3 9.0426 10.9399 93.7965 0.0000 3.3442 0.0000
# 4 0.0000 0.0000 0.0000 4.2374 0.0000 -7.2877
# 5 21.6502 5.4704 3.3442 0.0000 30.8221 0.0000
# 6 0.0000 0.0000 0.0000 -7.2877 0.0000 35.1987
#
#
#
# Elastic Compliance Matrix: (Units=1/GPa)
#
#
# Indices 1 2 3 4 5 6 
#
# 1 0.017833 -0.010306 -0.000136 0.000000 -0.010683 0.000000
# 2 -0.010306 0.019046 -0.001371 0.000000 0.004007 0.000000
# 3 -0.000136 -0.001371 0.010864 0.000000 -0.000840 0.000000
# 4 0.000000 0.000000 0.000000 0.366496 0.000000 0.075881
# 5 -0.010683 0.004007 -0.000840 0.000000 0.039328 0.000000
# 6 0.000000 0.000000 0.000000 0.075881 0.000000 0.044121
#
#
# Mechanical properties :
#
#
# Convention : Reuss Voigt Hill
#
# Bulk Modulus (GPa) = 41.46258 45.22225 43.34242
# Shear Modulus (GPa) = 9.44550 27.44269 18.44409
#
# Velocity S-wave (km/s) = 2.03262 3.46464 2.84036
# Velocity P-wave (km/s) = 4.86260 5.98211 5.45117
#
# Compressibility (1/GPa) = 0.02411813
#
# Stress axis : x y z
#
# Youngs Moduli (GPa) = 56.07507 52.50439 92.04417
#
# Poissons Ratio (x) = 0.54109 0.01255
# Poissons Ratio (y) = 0.57789 0.12617
# Poissons Ratio (z) = 0.00765 0.07197
#
# Static dielectric constant tensor:
#      x y z
#    x 1.880710 0.000000 -0.025070 
#    y 0.000000 1.960500 0.000000 
#    z -0.025070 0.000000 1.871920 
# 
# From -- ./inp_files/95143.got.cif
#   From: 2010.05.17/outbox.cif.g08.bks.cpg/sg15_48_cif.got.tgz:95143.got - 2010.06.03 18:47:42.
