data_PCOD9289667
_publ_section_title
;
Structure prediction by ZEFSAII (Michael W. Deem and Ramdas Pophale) SiO2 
 PCOD9289667
Probable space group: C 2/C
;
_chemical_formula_sum "Si O2"
_cell_formula_units_Z 60
_cell_length_a 17.817859
_cell_length_b 18.971733
_cell_length_c 10.457957
_cell_angle_alpha 90.000000
_cell_angle_beta 135.714238
_cell_angle_gamma 90.000000
_cell_volume 2468.382677
_symmetry_space_group_name_H-M "C 2/C"
_symmetry_group_IT_number 15
_symmetry_cell_setting 'monoclinic'
loop_
_space_group_symop_operation_xyz
x,y,z
-x,y,1/2-z
-x,-y,-z
x,-y,1/2+z
1/2+x,1/2+y,z
1/2-x,1/2+y,1/2-z
1/2-x,1/2-y,-z
1/2+x,1/2-y,1/2+z
loop_
_atom_site_type_symbol
_atom_site_label
_atom_site_fract_x
_atom_site_fract_y
_atom_site_fract_z
Si Si1 0.500000 0.605050 0.250000
Si Si2 0.889083 0.965829 0.408013
Si Si3 0.394308 0.277945 0.790771
Si Si4 0.353677 0.923223 0.664946
Si Si5 0.060875 0.724473 0.159624
Si Si6 0.147936 0.319014 0.495654
Si Si7 0.840547 0.523074 0.415439
Si Si8 0.117918 0.133236 0.833107
O O1 0.594480 0.557568 0.425272
O O2 0.541381 0.656228 0.189620
O O3 0.876218 0.898231 0.302412
O O4 0.788604 0.014845 0.255705
O O5 0.000000 0.000000 0.500000
O O6 0.274219 0.305073 0.653741
O O7 0.394035 0.214750 0.686692
O O8 0.441036 0.251590 0.981943
O O9 0.422077 0.852552 0.764586
O O10 0.378623 0.975163 0.814462
O O11 0.227962 0.897303 0.527730
O O12 0.371127 0.961732 0.551472
O O13 0.105189 0.720735 0.068751
O O14 0.118278 0.783028 0.314566
O O15 0.127794 0.401788 0.486480
O O16 0.000000 0.113949 0.750000
#
# Coordination Sequence:
#
# PCOD9289667 Si02
#       8
#     4   8   8   8   8   8   8   8
#     4  12  22  38  64  98 132 170 226 270 340 414
#     4  11  23  34  58  94 138 169 212 268 340 419
#     4  11  21  39  67 100 130 174 224 281 340 394
#     4  10  24  43  65  95 139 180 227 277 340 405
#     4  11  22  43  65  99 135 173 226 283 336 402
#     4  10  22  40  66  97 136 176 222 279 335 403
#     4  10  23  41  62  94 132 182 220 270 338 402
#     4  11  23  40  64  97 137 177 214 277 346 416
#
# _framework density 24.307414000000001
#
# number of rings (size 3 to 8) (size 9 to 14) (size 15 to 20)
#    0.000    1.333    2.667    2.000   10.267    0.000 
#    2.400    0.667    0.000    1.600    0.000    0.000 
#    0.000    0.000    0.000    0.000    0.000    0.000 
#
# Total GULP energy -167916.323276 kJ/mol
# GULP energy per Si atom -5597.210776 kJ/mol
# Density = 2.425209 g / cm^3
# Si number density = 24.307414 Si / 1000 Ang^3
#
#
#
# Elastic Constant Matrix: (Units=GPa)
#
#
# Indices 1 2 3 4 5 6 
#
# 1 60.7405 21.4347 33.4942 0.0000 -15.7986 0.0000
# 2 21.4347 98.1379 44.7568 0.0000 -27.7295 0.0000
# 3 33.4942 44.7568 117.2532 0.0000 -18.7876 0.0000
# 4 0.0000 0.0000 0.0000 27.2897 0.0000 -1.8047
# 5 -15.7986 -27.7295 -18.7876 0.0000 40.7313 0.0000
# 6 0.0000 0.0000 0.0000 -1.8047 0.0000 17.3901
#
#
#
# Elastic Compliance Matrix: (Units=1/GPa)
#
#
# Indices 1 2 3 4 5 6 
#
# 1 0.020763 -0.000881 -0.004752 0.000000 0.005262 0.000000
# 2 -0.000881 0.014354 -0.004013 0.000000 0.007579 0.000000
# 3 -0.004752 -0.004013 0.011537 0.000000 0.000747 0.000000
# 4 0.000000 0.000000 0.000000 0.036897 0.000000 0.003829
# 5 0.005262 0.007579 0.000747 0.000000 0.032096 0.000000
# 6 0.000000 0.000000 0.000000 0.003829 0.000000 0.057901
#
#
# Mechanical properties :
#
#
# Convention : Reuss Voigt Hill
#
# Bulk Modulus (GPa) = 36.54574 52.83367 44.68971
# Shear Modulus (GPa) = 24.75716 28.84528 26.80122
#
# Velocity S-wave (km/s) = 3.19486 3.44857 3.32414
# Velocity P-wave (km/s) = 5.35509 6.13512 5.75832
#
# Compressibility (1/GPa) = 0.02736297
#
# Stress axis : x y z
#
# Youngs Moduli (GPa) = 48.16193 69.66752 86.67523
#
# Poissons Ratio (x) = 0.06139 0.41186
# Poissons Ratio (y) = 0.04244 0.34782
# Poissons Ratio (z) = 0.22885 0.27957
#
# Static dielectric constant tensor:
#      x y z
#    x 1.976650 0.000000 0.052760 
#    y 0.000000 1.912410 0.000000 
#    z 0.052760 0.000000 2.015720 
# 
# From -- ./inp_files/113810.got.cif
#   From: 2010.05.17/outbox.cif.g08.bks.cpg/sg15_57_cif.got.tgz:113810.got - 2010.06.03 18:47:42.
