data_PCOD9289870
_publ_section_title
;
Structure prediction by ZEFSAII (Michael W. Deem and Ramdas Pophale) SiO2 
 PCOD9289870
Probable space group: C 2/C
;
_chemical_formula_sum "Si O2"
_cell_formula_units_Z 60
_cell_length_a 22.526341
_cell_length_b 8.800161
_cell_length_c 17.142041
_cell_angle_alpha 90.000000
_cell_angle_beta 117.334803
_cell_angle_gamma 90.000000
_cell_volume 3018.716110
_symmetry_space_group_name_H-M "C 2/C"
_symmetry_group_IT_number 15
_symmetry_cell_setting 'monoclinic'
loop_
_space_group_symop_operation_xyz
x,y,z
-x,y,1/2-z
-x,-y,-z
x,-y,1/2+z
1/2+x,1/2+y,z
1/2-x,1/2+y,1/2-z
1/2-x,1/2-y,-z
1/2+x,1/2-y,1/2+z
loop_
_atom_site_type_symbol
_atom_site_label
_atom_site_fract_x
_atom_site_fract_y
_atom_site_fract_z
Si Si1 0.630845 0.234543 0.876661
Si Si2 0.316057 0.199058 0.306737
Si Si3 0.916785 0.265725 0.608402
Si Si4 0.060442 0.831121 0.205552
Si Si5 0.204489 0.031271 0.958971
Si Si6 0.500000 0.619240 0.250000
Si Si7 0.839145 0.512061 0.471072
Si Si8 0.274725 0.946935 0.163421
O O1 0.673082 0.388140 0.895547
O O2 0.553162 0.277883 0.827774
O O3 0.654309 0.119572 0.823573
O O4 0.655917 0.161638 0.972228
O O5 0.377326 0.300035 0.311844
O O6 0.341074 0.074224 0.385079
O O7 0.263277 0.314337 0.313063
O O8 0.284375 0.098430 0.219007
O O9 0.926485 0.271279 0.708529
O O10 0.855444 0.148230 0.565451
O O11 0.895797 0.407820 0.543724
O O12 0.989613 0.212221 0.624905
O O13 0.045572 0.002785 0.226544
O O14 0.269115 0.074452 0.946597
O O15 0.233530 0.985412 0.060436
#
# Coordination Sequence:
#
# PCOD9289870 Si02
#       8
#     8   8   8   8   8   4   8   8
#     4  11  20  44  62  94 119 168 218 262 304 375
#     4  12  26  40  61  95 134 167 204 269 331 376
#     4  10  22  40  69  87 120 171 214 260 311 381
#     4  10  22  41  60  96 124 156 216 268 306 375
#     4  11  19  42  64  91 118 165 221 256 307 380
#     4  10  22  40  76  88 120 176 222 258 310 390
#     4  11  23  38  65  92 128 164 207 268 317 377
#     4  11  26  40  63  94 136 166 208 268 323 378
#
# _framework density 19.876000000000001
#
# number of rings (size 3 to 8) (size 9 to 14) (size 15 to 20)
#    0.000    1.333    5.333    2.800    5.600    2.667 
#    0.000    2.667    0.000    0.000    0.000    0.000 
#    0.000    0.000    0.000    0.000    0.000    0.000 
#
# Total GULP energy -167333.054778 kJ/mol
# GULP energy per Si atom -5577.768493 kJ/mol
# Density = 1.983076 g / cm^3
# Si number density = 19.876000 Si / 1000 Ang^3
#
#
#
# Elastic Constant Matrix: (Units=GPa)
#
#
# Indices 1 2 3 4 5 6 
#
# 1 74.6952 32.3765 48.8090 0.0000 4.9861 0.0000
# 2 32.3765 52.1229 17.8201 0.0000 9.1469 0.0000
# 3 48.8090 17.8201 69.4032 0.0000 14.6928 0.0000
# 4 0.0000 0.0000 0.0000 90.3922 0.0000 -149.0716
# 5 4.9861 9.1469 14.6928 0.0000 31.1551 0.0000
# 6 0.0000 0.0000 0.0000 -149.0716 0.0000 436.5497
#
#
#
# Elastic Compliance Matrix: (Units=1/GPa)
#
#
# Indices 1 2 3 4 5 6 
#
# 1 0.033347 -0.014960 -0.021564 0.000000 0.009225 0.000000
# 2 -0.014960 0.028209 0.005026 0.000000 -0.008258 0.000000
# 3 -0.021564 0.005026 0.030955 0.000000 -0.012623 0.000000
# 4 0.000000 0.000000 0.000000 0.025324 0.000000 0.008648
# 5 0.009225 -0.008258 -0.012623 0.000000 0.038999 0.000000
# 6 0.000000 0.000000 0.000000 0.008648 0.000000 0.005244
#
#
# Mechanical properties :
#
#
# Convention : Reuss Voigt Hill
#
# Bulk Modulus (GPa) = 33.87964 43.80359 38.84161
# Shear Modulus (GPa) = 21.28462 118.10044 69.69253
#
# Velocity S-wave (km/s) = 3.27597 7.71671 5.92788
# Velocity P-wave (km/s) = 5.60284 10.07388 8.15092
#
# Compressibility (1/GPa) = 0.02951626
#
# Stress axis : x y z
#
# Youngs Moduli (GPa) = 29.98773 35.44993 32.30467
#
# Poissons Ratio (x) = 0.53034 0.69660
# Poissons Ratio (y) = 0.44862 -0.16237
# Poissons Ratio (z) = 0.64664 -0.17818
#
# Static dielectric constant tensor:
#      x y z
#    x 1.716900 0.000000 0.008200 
#    y 0.000000 1.749990 0.000000 
#    z 0.008200 0.000000 1.692720 
# 
# From -- ./inp_files/218614.got.cif
#   From: 2010.05.17/outbox.cif.g08.bks.cpg/sg15_110_cif.got.tgz:218614.got - 2010.06.03 18:47:42.
