data_PCOD9289743
_publ_section_title
;
Structure prediction by ZEFSAII (Michael W. Deem and Ramdas Pophale) SiO2 
 PCOD9289743
Probable space group: C 2/C
;
_chemical_formula_sum "Si O2"
_cell_formula_units_Z 52
_cell_length_a 13.352077
_cell_length_b 18.751119
_cell_length_c 19.193414
_cell_angle_alpha 90.000000
_cell_angle_beta 33.206736
_cell_angle_gamma 90.000000
_cell_volume 2631.725179
_symmetry_space_group_name_H-M "C 2/C"
_symmetry_group_IT_number 15
_symmetry_cell_setting 'monoclinic'
loop_
_space_group_symop_operation_xyz
x,y,z
-x,y,1/2-z
-x,-y,-z
x,-y,1/2+z
1/2+x,1/2+y,z
1/2-x,1/2+y,1/2-z
1/2-x,1/2-y,-z
1/2+x,1/2-y,1/2+z
loop_
_atom_site_type_symbol
_atom_site_label
_atom_site_fract_x
_atom_site_fract_y
_atom_site_fract_z
Si Si1 0.289384 0.249630 0.124557
Si Si2 0.500000 0.369616 0.750000
Si Si3 0.308128 0.446709 0.992840
Si Si4 0.589276 0.193568 0.299475
Si Si5 0.500000 0.311268 0.250000
Si Si6 0.500000 0.138885 0.750000
Si Si7 0.050570 0.866821 0.950353
Si Si8 0.291465 0.386591 0.492829
O O1 0.173488 0.181869 0.165782
O O2 0.389715 0.224988 0.136001
O O3 0.133827 0.310992 0.217967
O O4 0.444434 0.293207 0.991065
O O5 0.422310 0.415402 0.860445
O O6 0.438804 0.431451 0.982917
O O7 0.262666 0.529023 0.008252
O O8 0.123709 0.405746 0.123995
O O9 0.619439 0.258343 0.228240
O O10 0.747646 0.136171 0.197868
O O11 0.396044 0.158005 0.393979
O O12 0.384839 0.359256 0.368603
O O13 0.079088 0.870642 0.016363
#
# Coordination Sequence:
#
# PCOD9289743 Si02
#       8
#     8   4   8   8   4   4   8   8
#     4  10  22  40  67  98 125 163 222 275 330 368
#     4  11  23  44  70  95 135 168 216 280 329 383
#     4  11  25  44  65  96 134 178 216 261 330 397
#     4  12  22  40  66  96 126 164 219 273 327 372
#     4  12  23  41  65  91 134 166 218 274 326 375
#     4   9  24  41  67  96 125 174 222 272 315 394
#     4  11  22  41  69  93 126 172 217 264 319 392
#     4  12  25  42  63  96 134 174 212 268 324 398
#
# _framework density 19.758901999999999
#
# number of rings (size 3 to 8) (size 9 to 14) (size 15 to 20)
#    0.000    0.923    4.615    2.308    4.308    1.846 
#    0.000    0.769    0.000    0.000    0.000    0.000 
#    0.000    0.000    0.000    0.000    0.000    0.000 
#
# Total GULP energy -145029.089975 kJ/mol
# GULP energy per Si atom -5578.041922 kJ/mol
# Density = 1.971393 g / cm^3
# Si number density = 19.758902 Si / 1000 Ang^3
#
#
#
# Elastic Constant Matrix: (Units=GPa)
#
#
# Indices 1 2 3 4 5 6 
#
# 1 99.8615 49.4383 30.5079 -0.0044 -5.5716 0.0004
# 2 49.4383 109.4560 30.6939 -0.0020 7.9770 -0.0005
# 3 30.5079 30.6939 94.4868 0.0115 6.3925 0.0142
# 4 -0.0044 -0.0020 0.0115 9.0646 -0.0031 -4.0832
# 5 -5.5716 7.9770 6.3925 -0.0031 22.6119 -0.0076
# 6 0.0004 -0.0005 0.0142 -4.0832 -0.0076 7.1605
#
#
#
# Elastic Compliance Matrix: (Units=1/GPa)
#
#
# Indices 1 2 3 4 5 6 
#
# 1 0.014338 -0.006086 -0.003096 0.000023 0.006555 0.000025
# 2 -0.006086 0.012796 -0.001820 0.000000 -0.005499 -0.000001
# 3 -0.003096 -0.001820 0.012420 -0.000043 -0.003632 -0.000053
# 4 0.000023 0.000000 -0.000043 0.148451 0.000066 0.084652
# 5 0.006555 -0.005499 -0.003632 0.000066 0.048807 0.000096
# 6 0.000025 -0.000001 -0.000053 0.084652 0.000096 0.187927
#
#
# Mechanical properties :
#
#
# Convention : Reuss Voigt Hill
#
# Bulk Modulus (GPa) = 56.97638 58.34273 57.65955
# Shear Modulus (GPa) = 11.04747 20.64502 15.84625
#
# Velocity S-wave (km/s) = 2.36712 3.23592 2.83500
# Velocity P-wave (km/s) = 6.03071 6.59947 6.32149
#
# Compressibility (1/GPa) = 0.01755113
#
# Stress axis : x y z
#
# Youngs Moduli (GPa) = 69.74303 78.14979 80.51505
#
# Poissons Ratio (x) = 0.47560 0.24928
# Poissons Ratio (y) = 0.42444 0.14651
# Poissons Ratio (z) = 0.21593 0.14221
#
# Static dielectric constant tensor:
#      x y z
#    x 1.705240 0.000000 -0.006560 
#    y 0.000000 1.691200 0.000000 
#    z -0.006560 0.000000 1.710530 
# 
# From -- ./inp_files/155576.got.cif
#   From: 2010.05.17/outbox.cif.g08.bks.cpg/sg15_78_cif.got.tgz:155576.got - 2010.06.03 18:47:42.
