data_PCOD9289335
_publ_section_title
;
Structure prediction by ZEFSAII (Michael W. Deem and Ramdas Pophale) SiO2 
 PCOD9289335
Probable space group: C 2/C
;
_chemical_formula_sum "Si O2"
_cell_formula_units_Z 40
_cell_length_a 14.782259
_cell_length_b 16.510523
_cell_length_c 11.158726
_cell_angle_alpha 90.000000
_cell_angle_beta 44.352153
_cell_angle_gamma 90.000000
_cell_volume 1903.858691
_symmetry_space_group_name_H-M "C 2/C"
_symmetry_group_IT_number 15
_symmetry_cell_setting 'monoclinic'
loop_
_space_group_symop_operation_xyz
x,y,z
-x,y,1/2-z
-x,-y,-z
x,-y,1/2+z
1/2+x,1/2+y,z
1/2-x,1/2+y,1/2-z
1/2-x,1/2-y,-z
1/2+x,1/2-y,1/2+z
loop_
_atom_site_type_symbol
_atom_site_label
_atom_site_fract_x
_atom_site_fract_y
_atom_site_fract_z
Si Si1 0.852556 0.046073 0.528649
Si Si2 0.054333 0.716716 0.918017
Si Si3 0.336958 0.684803 0.743798
Si Si4 0.000000 0.833604 0.750000
Si Si5 0.941051 0.535408 0.677329
Si Si6 0.500000 0.414425 0.250000
O O1 0.861487 0.108417 0.630663
O O2 0.879382 0.108521 0.395043
O O3 0.709102 0.012642 0.671497
O O4 0.950459 0.973450 0.404141
O O5 0.190028 0.712836 0.861201
O O6 0.046012 0.781379 0.818561
O O7 0.043435 0.631224 0.860874
O O8 0.935563 0.743223 0.115296
O O9 0.381752 0.644095 0.825037
O O10 0.000000 0.512618 0.750000
O O11 0.000000 0.500000 0.500000
#
# Coordination Sequence:
#
# PCOD9289335 Si02
#       6
#     8   8   8   4   8   4
#     4   9  22  39  66  93 126 165 224 262 327 380
#     4  10  22  40  63  96 127 165 222 261 328 383
#     4  10  23  39  63  93 125 172 214 271 321 388
#     4   9  18  40  70  95 118 168 212 281 308 374
#     4  11  25  41  64  96 134 175 212 272 328 392
#     4  11  22  42  64  91 132 170 214 267 328 394
#
# _framework density 21.009962000000002
#
# number of rings (size 3 to 8) (size 9 to 14) (size 15 to 20)
#    0.000    2.000    1.000    0.600    8.400    4.800 
#    1.800    0.000    0.000    0.000    0.000    0.000 
#    0.000    0.000    0.000    0.000    0.000    0.000 
#
# Total GULP energy -111410.448203 kJ/mol
# GULP energy per Si atom -5570.522410 kJ/mol
# Density = 2.096214 g / cm^3
# Si number density = 21.009962 Si / 1000 Ang^3
#
#
#
# Elastic Constant Matrix: (Units=GPa)
#
#
# Indices 1 2 3 4 5 6 
#
# 1 81.2737 35.4842 33.7762 0.0000 -18.8660 0.0000
# 2 35.4842 25.1116 23.5921 0.0000 -11.3624 0.0000
# 3 33.7762 23.5921 93.4432 0.0000 -18.0953 0.0000
# 4 0.0000 0.0000 0.0000 -9.8996 0.0000 -9.6612
# 5 -18.8660 -11.3624 -18.0953 0.0000 26.6661 0.0000
# 6 0.0000 0.0000 0.0000 -9.6612 0.0000 22.6869
#
#
#
# Elastic Compliance Matrix: (Units=1/GPa)
#
#
# Indices 1 2 3 4 5 6 
#
# 1 0.032508 -0.044212 0.000251 0.000000 0.004331 0.000000
# 2 -0.044212 0.118396 -0.011742 0.000000 0.011201 0.000000
# 3 0.000251 -0.011742 0.014554 0.000000 0.005050 0.000000
# 4 0.000000 0.000000 0.000000 -0.071358 0.000000 -0.030388
# 5 0.004331 0.011201 0.005050 0.000000 0.048764 0.000000
# 6 0.000000 0.000000 0.000000 -0.030388 0.000000 0.031138
#
#
# Mechanical properties :
#
#
# Convention : Reuss Voigt Hill
#
# Bulk Modulus (GPa) = 18.50108 42.83706 30.66907
# Shear Modulus (GPa) = 16.47851 15.02241 15.75046
#
# Velocity S-wave (km/s) = 2.80361 2.67687 2.74097
# Velocity P-wave (km/s) = 4.39378 5.47608 4.96451
#
# Compressibility (1/GPa) = 0.05405089
#
# Stress axis : x y z
#
# Youngs Moduli (GPa) = 30.76143 8.44623 68.71144
#
# Poissons Ratio (x) = 0.37342 -0.01722
# Poissons Ratio (y) = 1.36002 0.80682
# Poissons Ratio (z) = -0.00771 0.09918
#
# Static dielectric constant tensor:
#      x y z
#    x 1.696500 0.000000 -0.011240 
#    y 0.000000 1.757610 0.000000 
#    z -0.011240 0.000000 1.748540 
# 
# From -- ./inp_files/96691.got.cif
#   From: 2010.05.17/outbox.cif.g08.bks.cpg/sg15_49_cif.got.tgz:96691.got - 2010.06.03 18:47:42.
