data_PCOD9289959
_publ_section_title
;
Structure prediction by ZEFSAII (Michael W. Deem and Ramdas Pophale) SiO2 
 PCOD9289959
Probable space group: C 2/C
;
_chemical_formula_sum "Si O2"
_cell_formula_units_Z 52
_cell_length_a 20.314784
_cell_length_b 17.973223
_cell_length_c 10.154803
_cell_angle_alpha 90.000000
_cell_angle_beta 41.383882
_cell_angle_gamma 90.000000
_cell_volume 2451.192238
_symmetry_space_group_name_H-M "C 2/C"
_symmetry_group_IT_number 15
_symmetry_cell_setting 'monoclinic'
loop_
_space_group_symop_operation_xyz
x,y,z
-x,y,1/2-z
-x,-y,-z
x,-y,1/2+z
1/2+x,1/2+y,z
1/2-x,1/2+y,1/2-z
1/2-x,1/2-y,-z
1/2+x,1/2-y,1/2+z
loop_
_atom_site_type_symbol
_atom_site_label
_atom_site_fract_x
_atom_site_fract_y
_atom_site_fract_z
Si Si1 0.654157 0.667099 0.775867
Si Si2 0.326953 0.750703 0.169534
Si Si3 0.000000 0.331136 0.750000
Si Si4 0.208996 0.896363 0.908894
Si Si5 0.563714 0.475690 0.532390
Si Si6 0.514576 0.226931 0.876361
Si Si7 0.564196 0.075657 0.399716
O O1 0.733452 0.706988 0.750110
O O2 0.690324 0.649237 0.573202
O O3 0.633319 0.588119 0.872207
O O4 0.556429 0.719716 0.928253
O O5 0.302363 0.664655 0.187918
O O6 0.371879 0.767008 0.245331
O O7 0.417756 0.780212 0.942167
O O8 0.052290 0.385488 0.775683
O O9 0.318588 0.932555 0.747473
O O10 0.125281 0.957078 0.004932
O O11 0.500000 0.445014 0.750000
O O12 0.500000 0.500000 0.500000
O O13 0.500000 0.251986 0.750000
O O14 0.479140 0.141437 0.942975
O O15 0.500000 0.000000 0.500000
#
# Coordination Sequence:
#
# PCOD9289959 Si02
#       7
#     8   8   4   8   8   8   8
#     4  12  24  47  74 105 137 184 247 293 355 431
#     4  11  23  43  74 103 132 182 239 290 345 424
#     4  10  22  40  70  98 132 180 228 288 338 408
#     4  12  24  45  74 105 137 187 241 296 359 427
#     4  12  27  47  69 103 145 188 236 302 367 423
#     4  11  26  47  69 102 145 184 232 298 358 419
#     4  11  25  43  68 103 144 185 227 285 355 427
#
# _framework density 21.214167
#
# number of rings (size 3 to 8) (size 9 to 14) (size 15 to 20)
#    0.000    0.615    4.615    3.692    6.462    0.615 
#    2.769    0.000    0.000    0.000    0.000    0.000 
#    0.000    0.000    0.000    0.000    0.000    0.000 
#
# Total GULP energy -145340.204923 kJ/mol
# GULP energy per Si atom -5590.007882 kJ/mol
# Density = 2.116588 g / cm^3
# Si number density = 21.214167 Si / 1000 Ang^3
#
#
#
# Elastic Constant Matrix: (Units=GPa)
#
#
# Indices 1 2 3 4 5 6 
#
# 1 119.8976 16.4927 23.7654 0.0000 -7.0151 0.0000
# 2 16.4927 85.1331 7.9432 0.0000 -10.1680 0.0000
# 3 23.7654 7.9432 28.4433 0.0000 -2.4577 0.0000
# 4 0.0000 0.0000 0.0000 14.4060 0.0000 -14.8044
# 5 -7.0151 -10.1680 -2.4577 0.0000 33.7276 0.0000
# 6 0.0000 0.0000 0.0000 -14.8044 0.0000 20.4495
#
#
#
# Elastic Compliance Matrix: (Units=1/GPa)
#
#
# Indices 1 2 3 4 5 6 
#
# 1 0.010161 -0.001070 -0.008087 0.000000 0.001201 0.000000
# 2 -0.001070 0.012577 -0.002324 0.000000 0.003399 0.000000
# 3 -0.008087 -0.002324 0.042626 0.000000 0.000723 0.000000
# 4 0.000000 0.000000 0.000000 0.271120 0.000000 0.196277
# 5 0.001201 0.003399 0.000723 0.000000 0.030977 0.000000
# 6 0.000000 0.000000 0.000000 0.196277 0.000000 0.190996
#
#
# Mechanical properties :
#
#
# Convention : Reuss Voigt Hill
#
# Bulk Modulus (GPa) = 23.58459 36.65297 30.11878
# Shear Modulus (GPa) = 8.39556 26.06813 17.23184
#
# Velocity S-wave (km/s) = 1.99151 3.50924 2.85314
# Velocity P-wave (km/s) = 4.05335 5.80816 5.00822
#
# Compressibility (1/GPa) = 0.04240056
#
# Stress axis : x y z
#
# Youngs Moduli (GPa) = 98.41583 79.51302 23.45970
#
# Poissons Ratio (x) = 0.08511 0.18972
# Poissons Ratio (y) = 0.10535 0.05452
# Poissons Ratio (z) = 0.79590 0.18480
#
# Static dielectric constant tensor:
#      x y z
#    x 1.753820 0.000000 0.022200 
#    y 0.000000 1.680460 0.000000 
#    z 0.022200 0.000000 1.789090 
# 
# From -- ./inp_files/113628.got.cif
#   From: 2010.05.17/outbox.cif.g08.bks.cpg/sg15_57_cif.got.tgz:113628.got - 2010.06.03 18:47:42.
