data_PCOD9289711
_publ_section_title
;
Structure prediction by ZEFSAII (Michael W. Deem and Ramdas Pophale) SiO2 
 PCOD9289711
Probable space group: C 2/C
;
_chemical_formula_sum "Si O2"
_cell_formula_units_Z 40
_cell_length_a 9.157150
_cell_length_b 5.491002
_cell_length_c 29.885311
_cell_angle_alpha 90.000000
_cell_angle_beta 81.752747
_cell_angle_gamma 90.000000
_cell_volume 1487.150652
_symmetry_space_group_name_H-M "C 2/C"
_symmetry_group_IT_number 15
_symmetry_cell_setting 'monoclinic'
loop_
_space_group_symop_operation_xyz
x,y,z
-x,y,1/2-z
-x,-y,-z
x,-y,1/2+z
1/2+x,1/2+y,z
1/2-x,1/2+y,1/2-z
1/2-x,1/2-y,-z
1/2+x,1/2-y,1/2+z
loop_
_atom_site_type_symbol
_atom_site_label
_atom_site_fract_x
_atom_site_fract_y
_atom_site_fract_z
Si Si1 0.141609 0.465419 0.714665
Si Si2 0.175628 0.039751 0.069851
Si Si3 0.972633 0.286822 0.537043
Si Si4 0.770194 0.034905 0.302596
Si Si5 0.436787 0.881492 0.115171
O O1 0.127329 0.199309 0.693711
O O2 0.263993 0.433814 0.748981
O O3 0.000000 0.525076 0.750000
O O4 0.188354 0.694844 0.683029
O O5 0.044081 0.155181 0.104706
O O6 0.284832 0.862774 0.092797
O O7 0.296109 0.242598 0.049176
O O8 0.091158 0.928360 0.030940
O O9 0.010502 0.398258 0.584758
O O10 0.000000 0.500000 0.500000
O O11 0.619088 0.955808 0.333624
#
# Coordination Sequence:
#
# PCOD9289711 Si02
#       5
#     8   8   8   8   8
#     4  10  22  40  67  92 136 173 237 280 365 417
#     4  10  25  42  68 101 134 182 231 291 355 421
#     4  10  24  45  69 101 139 184 236 292 356 425
#     4  10  23  41  62 101 128 186 225 298 348 436
#     4  10  26  41  68  99 140 180 235 290 359 423
#
# _framework density 26.897074
#
# number of rings (size 3 to 8) (size 9 to 14) (size 15 to 20)
#    1.200    0.800    0.000    1.200    8.400    3.200 
#    0.000    0.000    0.000    0.000    0.000    0.000 
#    0.000    0.000    0.000    0.000    0.000    0.000 
#
# Total GULP energy -111585.827245 kJ/mol
# GULP energy per Si atom -5579.291362 kJ/mol
# Density = 2.683585 g / cm^3
# Si number density = 26.897074 Si / 1000 Ang^3
#
#
#
# Elastic Constant Matrix: (Units=GPa)
#
#
# Indices 1 2 3 4 5 6 
#
# 1 133.9533 24.9776 17.1202 0.0000 3.2457 0.0000
# 2 24.9776 75.7810 0.1770 0.0000 3.2582 0.0000
# 3 17.1202 0.1770 103.4002 0.0000 -0.5502 0.0000
# 4 0.0000 0.0000 0.0000 30.3440 0.0000 -13.6872
# 5 3.2457 3.2582 -0.5502 0.0000 49.3044 0.0000
# 6 0.0000 0.0000 0.0000 -13.6872 0.0000 45.0046
#
#
#
# Elastic Compliance Matrix: (Units=1/GPa)
#
#
# Indices 1 2 3 4 5 6 
#
# 1 0.008143 -0.002665 -0.001346 0.000000 -0.000375 0.000000
# 2 -0.002665 0.014106 0.000413 0.000000 -0.000752 0.000000
# 3 -0.001346 0.000413 0.009894 0.000000 0.000172 0.000000
# 4 0.000000 0.000000 0.000000 0.038195 0.000000 0.011616
# 5 -0.000375 -0.000752 0.000172 0.000000 0.020358 0.000000
# 6 0.000000 0.000000 0.000000 0.011616 0.000000 0.025753
#
#
# Mechanical properties :
#
#
# Convention : Reuss Voigt Hill
#
# Bulk Modulus (GPa) = 40.08311 44.18712 42.13511
# Shear Modulus (GPa) = 37.89016 42.98792 40.43904
#
# Velocity S-wave (km/s) = 3.75735 4.00213 3.88167
# Velocity P-wave (km/s) = 5.81019 6.14980 5.98240
#
# Compressibility (1/GPa) = 0.02494817
#
# Stress axis : x y z
#
# Youngs Moduli (GPa) = 122.80103 70.89380 101.06954
#
# Poissons Ratio (x) = 0.18892 0.13601
# Poissons Ratio (y) = 0.32724 -0.04175
# Poissons Ratio (z) = 0.16526 -0.02928
#
# Static dielectric constant tensor:
#      x y z
#    x 2.123830 0.000000 0.115220 
#    y 0.000000 2.237230 0.000000 
#    z 0.115220 0.000000 2.161230 
# 
# From -- ./inp_files/290520.got.cif
#   From: 2010.05.17/outbox.cif.g08.bks.cpg/sg15_146_cif.got.tgz:290520.got - 2010.06.03 18:47:42.
