data_PCOD9289229
_publ_section_title
;
Structure prediction by ZEFSAII (Michael W. Deem and Ramdas Pophale) SiO2 
 PCOD9289229
Probable space group: C 2/C
;
_chemical_formula_sum "Si O2"
_cell_formula_units_Z 48
_cell_length_a 9.746839
_cell_length_b 24.016822
_cell_length_c 9.330792
_cell_angle_alpha 90.000000
_cell_angle_beta 112.651237
_cell_angle_gamma 90.000000
_cell_volume 2015.749569
_symmetry_space_group_name_H-M "C 2/C"
_symmetry_group_IT_number 15
_symmetry_cell_setting 'monoclinic'
loop_
_space_group_symop_operation_xyz
x,y,z
-x,y,1/2-z
-x,-y,-z
x,-y,1/2+z
1/2+x,1/2+y,z
1/2-x,1/2+y,1/2-z
1/2-x,1/2-y,-z
1/2+x,1/2-y,1/2+z
loop_
_atom_site_type_symbol
_atom_site_label
_atom_site_fract_x
_atom_site_fract_y
_atom_site_fract_z
Si Si1 0.828323 0.528002 0.855267
Si Si2 0.065088 0.911674 0.110511
Si Si3 0.336996 0.304858 0.259591
Si Si4 0.653161 0.179508 0.223971
Si Si5 0.468742 0.138512 0.895868
Si Si6 0.229454 0.064630 0.132303
O O1 0.708325 0.551611 0.693153
O O2 0.962333 0.571212 0.892018
O O3 0.821921 0.465263 0.795975
O O4 0.783340 0.539323 0.001722
O O5 0.117715 0.848839 0.097930
O O6 0.000000 0.910471 0.250000
O O7 0.949451 0.937386 0.953147
O O8 0.500000 0.298826 0.250000
O O9 0.283538 0.241843 0.259452
O O10 0.196699 0.337366 0.130038
O O11 0.500000 0.181735 0.250000
O O12 0.744980 0.130612 0.335905
O O13 0.597902 0.160149 0.047514
O O14 0.500000 0.158955 0.750000
#
# Coordination Sequence:
#
# PCOD9289229 Si02
#       6
#     8   8   8   8   8   8
#     4  10  22  40  62  91 129 174 219 273 321 391
#     4   8  17  37  61  94 123 165 217 272 319 375
#     4   9  21  40  72  94 129 171 225 271 323 387
#     4  11  24  39  65  99 127 169 227 269 326 398
#     4  11  25  44  64  95 139 174 213 273 342 388
#     4  11  22  38  66  95 130 171 225 270 326 390
#
# _framework density 23.812480999999998
#
# number of rings (size 3 to 8) (size 9 to 14) (size 15 to 20)
#    0.000    2.000    1.667    1.500    4.667    3.333 
#    0.000    0.000    0.000    0.000    0.000    0.000 
#    0.000    0.000    0.000    0.000    0.000    0.000 
#
# Total GULP energy -133700.427781 kJ/mol
# GULP energy per Si atom -5570.851158 kJ/mol
# Density = 2.375828 g / cm^3
# Si number density = 23.812481 Si / 1000 Ang^3
#
#
#
# Elastic Constant Matrix: (Units=GPa)
#
#
# Indices 1 2 3 4 5 6 
#
# 1 46.2475 14.3308 26.8603 0.0000 14.6004 0.0000
# 2 14.3308 142.8326 40.0103 0.0000 9.8769 0.0000
# 3 26.8603 40.0103 133.6787 0.0000 10.5093 0.0000
# 4 0.0000 0.0000 0.0000 10.9436 0.0000 4.5343
# 5 14.6004 9.8769 10.5093 0.0000 28.5311 0.0000
# 6 0.0000 0.0000 0.0000 4.5343 0.0000 14.1210
#
#
#
# Elastic Compliance Matrix: (Units=1/GPa)
#
#
# Indices 1 2 3 4 5 6 
#
# 1 0.028459 -0.000717 -0.004509 0.000000 -0.012654 0.000000
# 2 -0.000717 0.007757 -0.002055 0.000000 -0.001561 0.000000
# 3 -0.004509 -0.002055 0.009026 0.000000 -0.000306 0.000000
# 4 0.000000 0.000000 0.000000 0.105401 0.000000 -0.033845
# 5 -0.012654 -0.001561 -0.000306 0.000000 0.042178 0.000000
# 6 0.000000 0.000000 0.000000 -0.033845 0.000000 0.081684
#
#
# Mechanical properties :
#
#
# Convention : Reuss Voigt Hill
#
# Bulk Modulus (GPa) = 32.59514 53.90686 43.25100
# Shear Modulus (GPa) = 16.70607 26.82296 21.76451
#
# Velocity S-wave (km/s) = 2.65159 3.35987 3.02652
# Velocity P-wave (km/s) = 4.80547 6.14319 5.51504
#
# Compressibility (1/GPa) = 0.03067942
#
# Stress axis : x y z
#
# Youngs Moduli (GPa) = 35.13873 128.92072 110.79592
#
# Poissons Ratio (x) = 0.09248 0.49955
# Poissons Ratio (y) = 0.02521 0.22765
# Poissons Ratio (z) = 0.15843 0.26490
#
# Static dielectric constant tensor:
#      x y z
#    x 2.007520 0.000000 0.029490 
#    y 0.000000 2.024180 0.000000 
#    z 0.029490 0.000000 2.040500 
# 
# From -- ./inp_files/32652.got.cif
#   From: 2010.05.17/outbox.cif.g08.bks.cpg/sg15_17_cif.got.tgz:32652.got - 2010.06.03 18:47:42.
