data_PCOD9289854
_publ_section_title
;
Structure prediction by ZEFSAII (Michael W. Deem and Ramdas Pophale) SiO2 
 PCOD9289854
Probable space group: C 2/C
;
_chemical_formula_sum "Si O2"
_cell_formula_units_Z 40
_cell_length_a 25.257991
_cell_length_b 12.756309
_cell_length_c 9.998812
_cell_angle_alpha 90.000000
_cell_angle_beta 27.415942
_cell_angle_gamma 90.000000
_cell_volume 1483.377510
_symmetry_space_group_name_H-M "C 2/C"
_symmetry_group_IT_number 15
_symmetry_cell_setting 'monoclinic'
loop_
_space_group_symop_operation_xyz
x,y,z
-x,y,1/2-z
-x,-y,-z
x,-y,1/2+z
1/2+x,1/2+y,z
1/2-x,1/2+y,1/2-z
1/2-x,1/2-y,-z
1/2+x,1/2-y,1/2+z
loop_
_atom_site_type_symbol
_atom_site_label
_atom_site_fract_x
_atom_site_fract_y
_atom_site_fract_z
Si Si1 0.119766 0.677745 0.717443
Si Si2 0.310436 0.329137 0.173068
Si Si3 0.125781 0.656274 0.285691
Si Si4 0.371369 0.616781 0.134621
Si Si5 0.841337 0.965960 0.426520
O O1 0.160767 0.743525 0.499256
O O2 0.233174 0.610164 0.483765
O O3 0.098274 0.767772 0.876395
O O4 0.004006 0.619222 0.935443
O O5 0.181952 0.337105 0.514533
O O6 0.376966 0.276749 0.150862
O O7 0.333518 0.434857 0.043402
O O8 0.218922 0.588037 0.160138
O O9 0.401852 0.513152 0.156204
O O10 0.393888 0.610489 0.924386
#
# Coordination Sequence:
#
# PCOD9289854 Si02
#       5
#     8   8   8   8   8
#     4  10  22  43  68  96 135 190 224 283 346 412
#     4  10  22  40  68  98 142 172 229 285 339 404
#     4  11  22  41  72  97 137 186 232 276 348 413
#     4  10  22  41  66  96 144 175 225 289 346 401
#     4  11  21  41  68 100 138 179 225 287 346 400
#
# _framework density 26.965491
#
# number of rings (size 3 to 8) (size 9 to 14) (size 15 to 20)
#    0.000    1.600    4.000    0.600    0.000    0.800 
#    3.600    9.000   17.600    0.000    0.000    0.000 
#    0.000    0.000    0.000    0.000    0.000    0.000 
#
# Total GULP energy -111606.846352 kJ/mol
# GULP energy per Si atom -5580.342318 kJ/mol
# Density = 2.690412 g / cm^3
# Si number density = 26.965491 Si / 1000 Ang^3
#
#
#
# Elastic Constant Matrix: (Units=GPa)
#
#
# Indices 1 2 3 4 5 6 
#
# 1 118.2434 9.2974 45.7165 0.0000 12.6037 0.0000
# 2 9.2974 79.5044 9.2778 0.0000 7.1989 0.0000
# 3 45.7165 9.2778 47.4935 0.0000 -2.9611 0.0000
# 4 0.0000 0.0000 0.0000 26.7600 0.0000 16.5942
# 5 12.6037 7.1989 -2.9611 0.0000 76.4464 0.0000
# 6 0.0000 0.0000 0.0000 16.5942 0.0000 29.8949
#
#
#
# Elastic Compliance Matrix: (Units=1/GPa)
#
#
# Indices 1 2 3 4 5 6 
#
# 1 0.014067 0.000221 -0.013763 0.000000 -0.002873 0.000000
# 2 0.000221 0.013008 -0.002839 0.000000 -0.001371 0.000000
# 3 -0.013763 -0.002839 0.035102 0.000000 0.003896 0.000000
# 4 0.000000 0.000000 0.000000 0.056984 0.000000 -0.031631
# 5 -0.002873 -0.001371 0.003896 0.000000 0.013835 0.000000
# 6 0.000000 0.000000 0.000000 -0.031631 0.000000 0.051008
#
#
# Mechanical properties :
#
#
# Convention : Reuss Voigt Hill
#
# Bulk Modulus (GPa) = 33.99828 41.53606 37.76717
# Shear Modulus (GPa) = 22.06812 38.68356 30.37584
#
# Velocity S-wave (km/s) = 2.86384 3.79167 3.35994
# Velocity P-wave (km/s) = 4.85499 5.88267 5.39336
#
# Compressibility (1/GPa) = 0.02941325
#
# Stress axis : x y z
#
# Youngs Moduli (GPa) = 71.08667 76.87826 28.48880
#
# Poissons Ratio (x) = -0.01701 0.39210
# Poissons Ratio (y) = -0.01573 0.08089
# Poissons Ratio (z) = 0.97839 0.21829
#
# Static dielectric constant tensor:
#      x y z
#    x 2.375260 0.000000 -0.135500 
#    y 0.000000 2.340450 0.000000 
#    z -0.135500 0.000000 2.165060 
# 
# From -- ./inp_files/123062.got.cif
#   From: 2010.05.17/outbox.cif.g08.bks.cpg/sg15_62_cif.got.tgz:123062.got - 2010.06.03 18:47:42.
