data_PCOD9289622
_publ_section_title
;
Structure prediction by ZEFSAII (Michael W. Deem and Ramdas Pophale) SiO2 
 PCOD9289622
Probable space group: C 2/C
;
_chemical_formula_sum "Si O2"
_cell_formula_units_Z 36
_cell_length_a 27.953254
_cell_length_b 8.348868
_cell_length_c 13.524766
_cell_angle_alpha 90.000000
_cell_angle_beta 152.900295
_cell_angle_gamma 90.000000
_cell_volume 1437.859832
_symmetry_space_group_name_H-M "C 2/C"
_symmetry_group_IT_number 15
_symmetry_cell_setting 'monoclinic'
loop_
_space_group_symop_operation_xyz
x,y,z
-x,y,1/2-z
-x,-y,-z
x,-y,1/2+z
1/2+x,1/2+y,z
1/2-x,1/2+y,1/2-z
1/2-x,1/2-y,-z
1/2+x,1/2-y,1/2+z
loop_
_atom_site_type_symbol
_atom_site_label
_atom_site_fract_x
_atom_site_fract_y
_atom_site_fract_z
Si Si1 0.661363 0.373568 0.293165
Si Si2 0.500000 0.135986 0.250000
Si Si3 0.765555 0.895144 0.421949
Si Si4 0.705739 0.940046 0.619018
Si Si5 0.961982 0.322341 0.458629
O O1 0.750000 0.250000 0.500000
O O2 0.653143 0.513265 0.360042
O O3 0.707064 0.464365 0.282576
O O4 0.549930 0.289985 0.072451
O O5 0.532707 0.219254 0.413033
O O6 0.596932 0.027021 0.396646
O O7 0.800760 0.743530 0.423413
O O8 0.726977 0.030147 0.273149
O O9 0.662191 0.834860 0.291610
O O10 0.000000 0.500000 0.500000
#
# Coordination Sequence:
#
# PCOD9289622 Si02
#       5
#     8   4   8   8   8
#     4  12  22  43  71  98 134 184 233 284 349 420
#     4  10  22  40  66  92 136 176 220 272 352 400
#     4  11  25  43  67 101 140 178 232 291 352 417
#     4  11  24  43  66  98 136 178 231 289 348 419
#     4  11  23  41  71  98 133 182 227 280 349 417
#
# _framework density 25.037212
#
# number of rings (size 3 to 8) (size 9 to 14) (size 15 to 20)
#    0.000    0.889    4.444    2.000    6.222    0.889 
#    4.000    0.000    0.000    0.000    0.000    0.000 
#    0.000    0.000    0.000    0.000    0.000    0.000 
#
# Total GULP energy -100808.618086 kJ/mol
# GULP energy per Si atom -5600.478783 kJ/mol
# Density = 2.498023 g / cm^3
# Si number density = 25.037212 Si / 1000 Ang^3
#
#
#
# Elastic Constant Matrix: (Units=GPa)
#
#
# Indices 1 2 3 4 5 6 
#
# 1 81.9407 37.2584 25.1144 0.0000 2.4138 0.0000
# 2 37.2584 127.3742 31.5943 0.0000 16.7595 0.0000
# 3 25.1144 31.5943 115.3015 0.0000 20.6430 0.0000
# 4 0.0000 0.0000 0.0000 9.3584 0.0000 -9.3027
# 5 2.4138 16.7595 20.6430 0.0000 37.5612 0.0000
# 6 0.0000 0.0000 0.0000 -9.3027 0.0000 46.3891
#
#
#
# Elastic Compliance Matrix: (Units=1/GPa)
#
#
# Indices 1 2 3 4 5 6 
#
# 1 0.014715 -0.003972 -0.002512 0.000000 0.002207 0.000000
# 2 -0.003972 0.009762 -0.001193 0.000000 -0.003445 0.000000
# 3 -0.002512 -0.001193 0.010451 0.000000 -0.005050 0.000000
# 4 0.000000 0.000000 0.000000 0.133460 0.000000 0.026764
# 5 0.002207 -0.003445 -0.005050 0.000000 0.030794 0.000000
# 6 0.000000 0.000000 0.000000 0.026764 0.000000 0.026924
#
#
# Mechanical properties :
#
#
# Convention : Reuss Voigt Hill
#
# Bulk Modulus (GPa) = 51.08704 56.95008 54.01856
# Shear Modulus (GPa) = 20.16266 34.03835 27.10050
#
# Velocity S-wave (km/s) = 2.84087 3.69115 3.29357
# Velocity P-wave (km/s) = 5.58655 6.40013 6.00713
#
# Compressibility (1/GPa) = 0.01957444
#
# Stress axis : x y z
#
# Youngs Moduli (GPa) = 67.95929 102.44032 95.68370
#
# Poissons Ratio (x) = 0.40684 0.24035
# Poissons Ratio (y) = 0.26990 0.11416
# Poissons Ratio (z) = 0.17071 0.12222
#
# Static dielectric constant tensor:
#      x y z
#    x 1.969590 0.000000 -0.045350 
#    y 0.000000 1.996100 0.000000 
#    z -0.045350 0.000000 1.999850 
# 
# From -- ./inp_files/176821.got.cif
#   From: 2010.05.17/outbox.cif.g08.bks.cpg/sg15_89_cif.got.tgz:176821.got - 2010.06.03 18:47:42.
