data_PCOD9289441
_publ_section_title
;
Structure prediction by ZEFSAII (Michael W. Deem and Ramdas Pophale) SiO2 
 PCOD9289441
Probable space group: C 2/C
;
_chemical_formula_sum "Si O2"
_cell_formula_units_Z 64
_cell_length_a 11.542912
_cell_length_b 15.112433
_cell_length_c 29.204621
_cell_angle_alpha 90.000000
_cell_angle_beta 39.108871
_cell_angle_gamma 90.000000
_cell_volume 3213.588367
_symmetry_space_group_name_H-M "C 2/C"
_symmetry_group_IT_number 15
_symmetry_cell_setting 'monoclinic'
loop_
_space_group_symop_operation_xyz
x,y,z
-x,y,1/2-z
-x,-y,-z
x,-y,1/2+z
1/2+x,1/2+y,z
1/2-x,1/2+y,1/2-z
1/2-x,1/2-y,-z
1/2+x,1/2-y,1/2+z
loop_
_atom_site_type_symbol
_atom_site_label
_atom_site_fract_x
_atom_site_fract_y
_atom_site_fract_z
Si Si1 0.579647 0.895424 0.276903
Si Si2 0.399423 0.793628 0.488875
Si Si3 0.055119 0.481200 0.430616
Si Si4 0.295168 0.987574 0.430512
Si Si5 0.180835 0.582409 0.225737
Si Si6 0.074135 0.885404 0.933126
Si Si7 0.215848 0.795779 0.731625
Si Si8 0.195979 0.863756 0.641429
O O1 0.500000 0.881869 0.250000
O O2 0.416145 0.921685 0.361658
O O3 0.681746 0.804823 0.256967
O O4 0.705532 0.982830 0.236603
O O5 0.250000 0.750000 0.500000
O O6 0.520225 0.876482 0.433604
O O7 0.535424 0.714273 0.459635
O O8 0.289736 0.829430 0.566402
O O9 0.245362 0.534591 0.367079
O O10 0.000000 0.500000 0.500000
O O11 0.917885 0.521671 0.434784
O O12 0.119074 0.936663 0.504416
O O13 0.215860 0.063701 0.422310
O O14 0.347001 0.610793 0.142216
O O15 0.153292 0.650989 0.274941
O O16 0.000000 0.579637 0.250000
O O17 0.265728 0.805560 0.663142
O O18 0.020104 0.846547 0.795650
#
# Coordination Sequence:
#
# PCOD9289441 Si02
#       8
#     8   8   8   8   8   8   8   8
#     4  11  21  42  66  94 122 173 216 266 316 384
#     4  11  21  39  65  97 125 170 222 262 321 396
#     4  10  23  40  63  90 132 166 200 269 329 375
#     4  11  22  39  65  96 129 163 213 272 326 370
#     4  11  24  43  63  93 135 164 215 272 327 377
#     4  11  23  36  67  99 124 163 224 272 315 385
#     4  11  23  39  71  91 125 173 221 262 316 402
#     4  10  22  40  64  95 128 167 219 261 325 382
#
# _framework density 19.915431999999999
#
# number of rings (size 3 to 8) (size 9 to 14) (size 15 to 20)
#    0.000    1.250    5.000    2.250    3.500    0.000 
#    0.000    3.750    0.000    0.000    0.000    0.000 
#    0.000    0.000    0.000    0.000    0.000    0.000 
#
# Total GULP energy -178624.439240 kJ/mol
# GULP energy per Si atom -5582.013726 kJ/mol
# Density = 1.987010 g / cm^3
# Si number density = 19.915432 Si / 1000 Ang^3
#
#
#
# Elastic Constant Matrix: (Units=GPa)
#
#
# Indices 1 2 3 4 5 6 
#
# 1 81.5376 40.3404 13.4683 0.0000 17.7691 0.0002
# 2 40.3404 131.0131 7.5177 0.0003 -7.3366 -0.0005
# 3 13.4683 7.5177 75.7079 -0.0004 11.9131 0.0009
# 4 0.0000 0.0003 -0.0004 31.7500 0.0007 -4.3134
# 5 17.7691 -7.3366 11.9131 0.0007 19.5992 -0.0001
# 6 0.0002 -0.0005 0.0009 -4.3134 -0.0001 18.9894
#
#
#
# Elastic Compliance Matrix: (Units=1/GPa)
#
#
# Indices 1 2 3 4 5 6 
#
# 1 0.020761 -0.007656 0.000530 0.000000 -0.022010 0.000000
# 2 -0.007656 0.010749 -0.001582 0.000000 0.011926 0.000000
# 3 0.000530 -0.001582 0.014862 0.000000 -0.010107 -0.000001
# 4 0.000000 0.000000 0.000000 0.032499 -0.000002 0.007382
# 5 -0.022010 0.011926 -0.010107 -0.000002 0.081585 0.000001
# 6 0.000000 0.000000 -0.000001 0.007382 0.000001 0.054338
#
#
# Mechanical properties :
#
#
# Convention : Reuss Voigt Hill
#
# Bulk Modulus (GPa) = 34.53416 45.65683 40.09550
# Shear Modulus (GPa) = 20.67313 29.19653 24.93483
#
# Velocity S-wave (km/s) = 3.22537 3.83302 3.54225
# Velocity P-wave (km/s) = 5.59005 6.52415 6.07508
#
# Compressibility (1/GPa) = 0.02895684
#
# Stress axis : x y z
#
# Youngs Moduli (GPa) = 48.16762 93.03481 67.28685
#
# Poissons Ratio (x) = 0.71223 -0.03569
# Poissons Ratio (y) = 0.36875 0.10645
# Poissons Ratio (z) = -0.02555 0.14719
#
# Static dielectric constant tensor:
#      x y z
#    x 1.725540 0.000000 0.021470 
#    y 0.000000 1.723840 0.000000 
#    z 0.021470 0.000000 1.733010 
# 
# From -- ./inp_files/311180.got.cif
#   From: 2010.05.17/outbox.cif.g08.bks.cpg/sg15_156_cif.got.tgz:311180.got - 2010.06.03 18:47:42.
