data_PCOD9289671
_publ_section_title
;
Structure prediction by ZEFSAII (Michael W. Deem and Ramdas Pophale) SiO2 
 PCOD9289671
Probable space group: C 2/C
;
_chemical_formula_sum "Si O2"
_cell_formula_units_Z 56
_cell_length_a 12.081263
_cell_length_b 7.658371
_cell_length_c 29.017575
_cell_angle_alpha 90.000000
_cell_angle_beta 70.117266
_cell_angle_gamma 90.000000
_cell_volume 2524.748724
_symmetry_space_group_name_H-M "C 2/C"
_symmetry_group_IT_number 15
_symmetry_cell_setting 'monoclinic'
loop_
_space_group_symop_operation_xyz
x,y,z
-x,y,1/2-z
-x,-y,-z
x,-y,1/2+z
1/2+x,1/2+y,z
1/2-x,1/2+y,1/2-z
1/2-x,1/2-y,-z
1/2+x,1/2-y,1/2+z
loop_
_atom_site_type_symbol
_atom_site_label
_atom_site_fract_x
_atom_site_fract_y
_atom_site_fract_z
Si Si1 0.202897 0.580802 0.309510
Si Si2 0.259649 0.515983 0.701064
Si Si3 0.929324 0.680432 0.009144
Si Si4 0.837069 0.832985 0.524691
Si Si5 0.253673 0.221020 0.631335
Si Si6 0.067391 0.493927 0.662568
Si Si7 0.203147 0.690228 0.566886
O O1 0.271143 0.536632 0.252395
O O2 0.196738 0.789493 0.315500
O O3 0.256446 0.464546 0.342751
O O4 0.070070 0.512661 0.322819
O O5 0.306275 0.362818 0.660814
O O6 0.121813 0.518617 0.705525
O O7 0.882482 0.721226 0.964175
O O8 0.028903 0.816880 0.011102
O O9 0.808386 0.670614 0.055491
O O10 0.000000 0.500000 0.000000
O O11 0.750000 0.750000 0.500000
O O12 0.827885 0.731281 0.574528
O O13 0.782908 0.021174 0.543066
O O14 0.126629 0.309267 0.638527
O O15 0.127286 0.640365 0.621794
#
# Coordination Sequence:
#
# PCOD9289671 Si02
#       7
#     8   8   8   8   8   8   8
#     4  12  20  44  70  89 136 172 203 281 334 382
#     4  10  22  40  66  98 126 168 218 265 326 406
#     4  11  22  37  65  90 121 177 216 269 329 382
#     4  11  21  42  63  92 131 172 216 274 327 384
#     4   9  23  42  61 100 128 163 232 256 324 408
#     4   9  22  41  60  94 129 165 215 271 321 397
#     4  10  22  41  58  92 128 161 225 266 316 394
#
# _framework density 22.180425
#
# number of rings (size 3 to 8) (size 9 to 14) (size 15 to 20)
#    0.857    0.857    2.857    1.714    0.000    2.286 
#    2.571    0.000    0.000    0.000    0.000    0.000 
#    0.000    0.000    0.000    0.000    0.000    0.000 
#
# Total GULP energy -156199.258009 kJ/mol
# GULP energy per Si atom -5578.544929 kJ/mol
# Density = 2.212994 g / cm^3
# Si number density = 22.180425 Si / 1000 Ang^3
#
#
#
# Elastic Constant Matrix: (Units=GPa)
#
#
# Indices 1 2 3 4 5 6 
#
# 1 98.3375 6.9112 11.8924 0.0000 -9.4261 0.0000
# 2 6.9112 105.1090 20.7195 0.0000 -1.2148 0.0000
# 3 11.8924 20.7195 94.6967 0.0000 6.6705 0.0000
# 4 0.0000 0.0000 0.0000 31.3236 0.0000 5.1719
# 5 -9.4261 -1.2148 6.6705 0.0000 17.9147 0.0000
# 6 0.0000 0.0000 0.0000 5.1719 0.0000 27.3048
#
#
#
# Elastic Compliance Matrix: (Units=1/GPa)
#
#
# Indices 1 2 3 4 5 6 
#
# 1 0.011022 -0.000301 -0.001772 0.000000 0.006439 0.000000
# 2 -0.000301 0.009992 -0.002244 0.000000 0.001355 0.000000
# 3 -0.001772 -0.002244 0.011656 0.000000 -0.005424 0.000000
# 4 0.000000 0.000000 0.000000 0.032955 0.000000 -0.006242
# 5 0.006439 0.001355 -0.005424 0.000000 0.061319 0.000000
# 6 0.000000 0.000000 0.000000 -0.006242 0.000000 0.037806
#
#
# Mechanical properties :
#
#
# Convention : Reuss Voigt Hill
#
# Bulk Modulus (GPa) = 41.60484 41.90994 41.75739
# Shear Modulus (GPa) = 27.56417 32.54995 30.05706
#
# Velocity S-wave (km/s) = 3.52905 3.83496 3.68518
# Velocity P-wave (km/s) = 5.95011 6.20848 6.08067
#
# Compressibility (1/GPa) = 0.02403567
#
# Stress axis : x y z
#
# Youngs Moduli (GPa) = 90.73051 100.08323 85.79594
#
# Poissons Ratio (x) = 0.03013 0.15201
# Poissons Ratio (y) = 0.02731 0.19251
# Poissons Ratio (z) = 0.16076 0.22457
#
# Static dielectric constant tensor:
#      x y z
#    x 1.829930 0.000000 -0.036320 
#    y 0.000000 1.935760 0.000000 
#    z -0.036320 0.000000 1.861870 
# 
# From -- ./inp_files/309907.got.cif
#   From: 2010.05.17/outbox.cif.g08.bks.cpg/sg15_155_cif.got.tgz:309907.got - 2010.06.03 18:47:42.
