data_PCOD9289251
_publ_section_title
;
Structure prediction by ZEFSAII (Michael W. Deem and Ramdas Pophale) SiO2 
 PCOD9289251
Probable space group: C 2/C
;
_chemical_formula_sum "Si O2"
_cell_formula_units_Z 32
_cell_length_a 15.475109
_cell_length_b 6.622644
_cell_length_c 13.518617
_cell_angle_alpha 90.000000
_cell_angle_beta 65.842438
_cell_angle_gamma 90.000000
_cell_volume 1264.136142
_symmetry_space_group_name_H-M "C 2/C"
_symmetry_group_IT_number 15
_symmetry_cell_setting 'monoclinic'
loop_
_space_group_symop_operation_xyz
x,y,z
-x,y,1/2-z
-x,-y,-z
x,-y,1/2+z
1/2+x,1/2+y,z
1/2-x,1/2+y,1/2-z
1/2-x,1/2-y,-z
1/2+x,1/2-y,1/2+z
loop_
_atom_site_type_symbol
_atom_site_label
_atom_site_fract_x
_atom_site_fract_y
_atom_site_fract_z
Si Si1 0.615198 0.164138 0.099944
Si Si2 0.187300 0.984073 0.919670
Si Si3 0.433811 0.252948 0.906547
Si Si4 0.119227 0.979148 0.750383
O O1 0.715164 0.050136 0.068914
O O2 0.605955 0.308289 0.200236
O O3 0.542923 0.981658 0.115869
O O4 0.624377 0.304909 0.999228
O O5 0.198068 0.973178 0.797188
O O6 0.127527 0.185582 0.970526
O O7 0.525095 0.395870 0.849289
O O8 0.368404 0.323478 0.844630
#
# Coordination Sequence:
#
# PCOD9289251 Si02
#       4
#     8   8   8   8
#     4  10  23  41  64  94 132 166 210 267 317 371
#     4  10  22  41  64  94 131 165 213 264 316 383
#     4  10  22  40  62  94 132 165 214 259 315 380
#     4  10  23  39  64  96 128 165 216 261 311 386
#
# _framework density 25.313728999999999
#
# number of rings (size 3 to 8) (size 9 to 14) (size 15 to 20)
#    0.000    2.000    0.000    1.500    3.500   11.000 
#    0.000    0.000    0.000    4.500    0.000    0.000 
#    0.000    0.000    0.000    0.000    0.000    0.000 
#
# Total GULP energy -89405.829595 kJ/mol
# GULP energy per Si atom -5587.864350 kJ/mol
# Density = 2.525611 g / cm^3
# Si number density = 25.313729 Si / 1000 Ang^3
#
#
#
# Elastic Constant Matrix: (Units=GPa)
#
#
# Indices 1 2 3 4 5 6 
#
# 1 15.7326 18.0789 16.3786 0.0000 2.8937 0.0000
# 2 18.0789 157.3372 21.3806 0.0000 -11.4610 0.0000
# 3 16.3786 21.3806 57.3157 0.0000 14.3203 0.0000
# 4 0.0000 0.0000 0.0000 24.0431 0.0000 -7.7389
# 5 2.8937 -11.4610 14.3203 0.0000 44.5892 0.0000
# 6 0.0000 0.0000 0.0000 -7.7389 0.0000 18.4923
#
#
#
# Elastic Compliance Matrix: (Units=1/GPa)
#
#
# Indices 1 2 3 4 5 6 
#
# 1 0.099084 -0.007982 -0.025243 0.000000 -0.000375 0.000000
# 2 -0.007982 0.007662 -0.001303 0.000000 0.002906 0.000000
# 3 -0.025243 -0.001303 0.026987 0.000000 -0.007364 0.000000
# 4 0.000000 0.000000 0.000000 0.048067 0.000000 0.020116
# 5 -0.000375 0.002906 -0.007364 0.000000 0.025563 0.000000
# 6 0.000000 0.000000 0.000000 0.020116 0.000000 0.062495
#
#
# Mechanical properties :
#
#
# Convention : Reuss Voigt Hill
#
# Bulk Modulus (GPa) = 15.46186 38.00685 26.73436
# Shear Modulus (GPa) = 13.87070 29.06141 21.46605
#
# Velocity S-wave (km/s) = 2.34338 3.39196 2.91520
# Velocity P-wave (km/s) = 3.66650 5.51248 4.68138
#
# Compressibility (1/GPa) = 0.06467526
#
# Stress axis : x y z
#
# Youngs Moduli (GPa) = 10.09249 130.51886 37.05531
#
# Poissons Ratio (x) = 1.04184 0.93539
# Poissons Ratio (y) = 0.08056 0.04829
# Poissons Ratio (z) = 0.25477 0.17008
#
# Static dielectric constant tensor:
#      x y z
#    x 2.056620 0.000000 -0.017740 
#    y 0.000000 2.036880 0.000000 
#    z -0.017740 0.000000 1.989600 
# 
# From -- ./inp_files/158173.got.cif
#   From: 2010.05.17/outbox.cif.g08.bks.cpg/sg15_80_cif.got.tgz:158173.got - 2010.06.03 18:47:42.
