data_PCOD9289806
_publ_section_title
;
Structure prediction by ZEFSAII (Michael W. Deem and Ramdas Pophale) SiO2 
 PCOD9289806
Probable space group: C 2/C
;
_chemical_formula_sum "Si O2"
_cell_formula_units_Z 48
_cell_length_a 19.769003
_cell_length_b 12.154122
_cell_length_c 13.321201
_cell_angle_alpha 90.000000
_cell_angle_beta 134.959580
_cell_angle_gamma 90.000000
_cell_volume 2264.868045
_symmetry_space_group_name_H-M "C 2/C"
_symmetry_group_IT_number 15
_symmetry_cell_setting 'monoclinic'
loop_
_space_group_symop_operation_xyz
x,y,z
-x,y,1/2-z
-x,-y,-z
x,-y,1/2+z
1/2+x,1/2+y,z
1/2-x,1/2+y,1/2-z
1/2-x,1/2-y,-z
1/2+x,1/2-y,1/2+z
loop_
_atom_site_type_symbol
_atom_site_label
_atom_site_fract_x
_atom_site_fract_y
_atom_site_fract_z
Si Si1 0.608932 0.529530 0.132677
Si Si2 0.780392 0.220220 0.146536
Si Si3 0.252066 0.874177 0.378989
Si Si4 0.109049 0.568939 0.980681
Si Si5 0.244144 0.115948 0.108136
Si Si6 0.607770 0.066313 0.735134
O O1 0.639272 0.626351 0.244501
O O2 0.662684 0.421682 0.226695
O O3 0.658504 0.563361 0.080580
O O4 0.500000 0.500000 0.000000
O O5 0.824762 0.334305 0.231130
O O6 0.750000 0.250000 0.000000
O O7 0.684409 0.164031 0.089766
O O8 0.233423 0.895976 0.477595
O O9 0.259700 0.744885 0.373603
O O10 0.343227 0.950327 0.447823
O O11 0.104949 0.574245 0.854356
O O12 0.002501 0.579164 0.910612
O O13 0.341269 0.049320 0.235576
#
# Coordination Sequence:
#
# PCOD9289806 Si02
#       6
#     8   8   8   8   8   8
#     4  11  25  42  64 101 136 174 231 287 343 417
#     4   9  19  38  60  88 132 169 211 278 341 402
#     4   9  21  44  63  92 133 176 224 270 349 407
#     4   8  16  34  59  87 122 162 213 267 318 406
#     4  10  22  40  68  91 131 180 217 285 335 414
#     4   9  17  32  60  92 116 163 219 260 331 393
#
# _framework density 21.193287999999999
#
# number of rings (size 3 to 8) (size 9 to 14) (size 15 to 20)
#    0.000    2.667    0.000    1.000    2.333    3.333 
#    3.000   15.000    0.000    0.000    0.000    0.000 
#    0.000    0.000    0.000    0.000    0.000    0.000 
#
# Total GULP energy -133969.046479 kJ/mol
# GULP energy per Si atom -5582.043603 kJ/mol
# Density = 2.114505 g / cm^3
# Si number density = 21.193288 Si / 1000 Ang^3
#
#
#
# Elastic Constant Matrix: (Units=GPa)
#
#
# Indices 1 2 3 4 5 6 
#
# 1 108.5045 76.7193 73.2299 0.0000 19.8033 0.0000
# 2 76.7193 138.5982 75.4621 0.0000 33.0942 0.0000
# 3 73.2299 75.4621 150.0675 0.0000 40.6557 0.0000
# 4 0.0000 0.0000 0.0000 21.4814 0.0000 -12.9378
# 5 19.8033 33.0942 40.6557 0.0000 51.5102 0.0000
# 6 0.0000 0.0000 0.0000 -12.9378 0.0000 25.8411
#
#
#
# Elastic Compliance Matrix: (Units=1/GPa)
#
#
# Indices 1 2 3 4 5 6 
#
# 1 0.017762 -0.007330 -0.005606 0.000000 0.002305 0.000000
# 2 -0.007330 0.013366 -0.002011 0.000000 -0.004182 0.000000
# 3 -0.005606 -0.002011 0.012054 0.000000 -0.006067 0.000000
# 4 0.000000 0.000000 0.000000 0.066649 0.000000 0.033369
# 5 0.002305 -0.004182 -0.006067 0.000000 0.026002 0.000000
# 6 0.000000 0.000000 0.000000 0.033369 0.000000 0.055405
#
#
# Mechanical properties :
#
#
# Convention : Reuss Voigt Hill
#
# Bulk Modulus (GPa) = 75.25974 94.22142 84.74058
# Shear Modulus (GPa) = 22.16676 31.21712 26.69194
#
# Velocity S-wave (km/s) = 3.23760 3.84210 3.55273
# Velocity P-wave (km/s) = 7.04019 8.01479 7.54325
#
# Compressibility (1/GPa) = 0.01328732
#
# Stress axis : x y z
#
# Youngs Moduli (GPa) = 56.30099 74.81546 82.95799
#
# Poissons Ratio (x) = 0.54839 0.46506
# Poissons Ratio (y) = 0.41268 0.16687
# Poissons Ratio (z) = 0.31562 0.15049
#
# Static dielectric constant tensor:
#      x y z
#    x 1.778400 0.000000 -0.053170 
#    y 0.000000 1.760730 0.000000 
#    z -0.053170 0.000000 1.803180 
# 
# From -- ./inp_files/167940.got.cif
#   From: 2010.05.17/outbox.cif.g08.bks.cpg/sg15_84_cif.got.tgz:167940.got - 2010.06.03 18:47:42.
