data_PCOD9289432
_publ_section_title
;
Structure prediction by ZEFSAII (Michael W. Deem and Ramdas Pophale) SiO2 
 PCOD9289432
Probable space group: C 2/C
;
_chemical_formula_sum "Si O2"
_cell_formula_units_Z 44
_cell_length_a 20.221193
_cell_length_b 14.783631
_cell_length_c 7.939036
_cell_angle_alpha 90.000000
_cell_angle_beta 61.492435
_cell_angle_gamma 90.000000
_cell_volume 2085.561619
_symmetry_space_group_name_H-M "C 2/C"
_symmetry_group_IT_number 15
_symmetry_cell_setting 'monoclinic'
loop_
_space_group_symop_operation_xyz
x,y,z
-x,y,1/2-z
-x,-y,-z
x,-y,1/2+z
1/2+x,1/2+y,z
1/2-x,1/2+y,1/2-z
1/2-x,1/2-y,-z
1/2+x,1/2-y,1/2+z
loop_
_atom_site_type_symbol
_atom_site_label
_atom_site_fract_x
_atom_site_fract_y
_atom_site_fract_z
Si Si1 0.127703 0.127568 0.994244
Si Si2 0.941246 0.964065 0.207954
Si Si3 0.796409 0.601581 0.837832
Si Si4 0.000000 0.535275 0.750000
Si Si5 0.150435 0.417908 0.606866
Si Si6 0.901279 0.324911 0.511970
O O1 0.213438 0.142966 0.942227
O O2 0.082209 0.220724 0.043038
O O3 0.123053 0.089159 0.810043
O O4 0.093106 0.050176 0.154922
O O5 0.000000 0.907299 0.250000
O O6 0.000000 0.000000 0.000000
O O7 0.793325 0.494338 0.886723
O O8 0.828251 0.609866 0.608735
O O9 0.849117 0.643519 0.918525
O O10 0.071437 0.472442 0.694232
O O11 0.027466 0.607042 0.575332
O O12 0.140798 0.340662 0.759272
#
# Coordination Sequence:
#
# PCOD9289432 Si02
#       6
#     8   8   8   4   8   8
#     4  11  23  44  65  93 128 171 216 275 328 381
#     4   9  21  42  63  87 122 163 215 267 325 382
#     4  11  22  41  64  95 133 173 209 263 329 394
#     4  10  22  40  64  94 132 172 202 270 328 380
#     4  11  22  41  64  97 133 174 215 259 338 396
#     4  11  25  39  66  97 130 165 227 269 313 401
#
# _framework density 21.097434
#
# number of rings (size 3 to 8) (size 9 to 14) (size 15 to 20)
#    0.000    1.455    3.636    2.182    6.364    0.727 
#    8.182    0.000    0.000    0.000    0.000    0.000 
#    0.000    0.000    0.000    0.000    0.000    0.000 
#
# Total GULP energy -122623.824094 kJ/mol
# GULP energy per Si atom -5573.810186 kJ/mol
# Density = 2.104942 g / cm^3
# Si number density = 21.097434 Si / 1000 Ang^3
#
#
#
# Elastic Constant Matrix: (Units=GPa)
#
#
# Indices 1 2 3 4 5 6 
#
# 1 63.0018 6.5731 26.7619 0.0000 -0.1602 0.0000
# 2 6.5731 75.3231 23.8671 0.0000 1.5745 0.0000
# 3 26.7619 23.8671 121.8339 0.0000 12.3881 0.0000
# 4 0.0000 0.0000 0.0000 9.3576 0.0000 20.5107
# 5 -0.1602 1.5745 12.3881 0.0000 31.1433 0.0000
# 6 0.0000 0.0000 0.0000 20.5107 0.0000 -8.5205
#
#
#
# Elastic Compliance Matrix: (Units=1/GPa)
#
#
# Indices 1 2 3 4 5 6 
#
# 1 0.017598 -0.000311 -0.003976 0.000000 0.001688 0.000000
# 2 -0.000311 0.014165 -0.002745 0.000000 0.000374 0.000000
# 3 -0.003976 -0.002745 0.010012 0.000000 -0.003864 0.000000
# 4 0.000000 0.000000 0.000000 0.017027 0.000000 0.040987
# 5 0.001688 0.000374 -0.003864 0.000000 0.033636 0.000000
# 6 0.000000 0.000000 0.000000 0.040987 0.000000 -0.018699
#
#
# Mechanical properties :
#
#
# Convention : Reuss Voigt Hill
#
# Bulk Modulus (GPa) = 36.08626 41.61812 38.85219
# Shear Modulus (GPa) = 51.52500 19.92653 35.72576
#
# Velocity S-wave (km/s) = 4.94726 3.07661 4.11952
# Velocity P-wave (km/s) = 7.05518 5.69123 6.40959
#
# Compressibility (1/GPa) = 0.02771138
#
# Stress axis : x y z
#
# Youngs Moduli (GPa) = 56.82342 70.59587 99.88089
#
# Poissons Ratio (x) = 0.02196 0.39716
# Poissons Ratio (y) = 0.01767 0.27414
# Poissons Ratio (z) = 0.22595 0.19376
#
# Static dielectric constant tensor:
#      x y z
#    x 1.892400 0.000000 0.071620 
#    y 0.000000 1.840710 0.000000 
#    z 0.071620 0.000000 1.838660 
# 
# From -- ./inp_files/54911.got.cif
#   From: 2010.05.17/outbox.cif.g08.bks.cpg/sg15_28_cif.got.tgz:54911.got - 2010.06.03 18:47:42.
