data_PCOD9289463
_publ_section_title
;
Structure prediction by ZEFSAII (Michael W. Deem and Ramdas Pophale) SiO2 
 PCOD9289463
Probable space group: C 2/C
;
_chemical_formula_sum "Si O2"
_cell_formula_units_Z 40
_cell_length_a 4.971716
_cell_length_b 30.174399
_cell_length_c 11.090356
_cell_angle_alpha 90.000000
_cell_angle_beta 72.755188
_cell_angle_gamma 90.000000
_cell_volume 1588.967734
_symmetry_space_group_name_H-M "C 2/C"
_symmetry_group_IT_number 15
_symmetry_cell_setting 'monoclinic'
loop_
_space_group_symop_operation_xyz
x,y,z
-x,y,1/2-z
-x,-y,-z
x,-y,1/2+z
1/2+x,1/2+y,z
1/2-x,1/2+y,1/2-z
1/2-x,1/2-y,-z
1/2+x,1/2-y,1/2+z
loop_
_atom_site_type_symbol
_atom_site_label
_atom_site_fract_x
_atom_site_fract_y
_atom_site_fract_z
Si Si1 0.949220 0.359282 0.113739
Si Si2 0.049068 0.447999 0.985668
Si Si3 0.992267 0.820714 0.898024
Si Si4 0.707809 0.231974 0.835923
Si Si5 0.641332 0.414094 0.863949
O O1 0.736766 0.317853 0.124502
O O2 0.000000 0.363169 0.250000
O O3 0.886980 0.409750 0.083118
O O4 0.211723 0.339616 0.999601
O O5 0.920941 0.437448 0.871793
O O6 0.375617 0.436696 0.967809
O O7 0.000000 0.500000 0.000000
O O8 0.934681 0.771170 0.567892
O O9 0.196962 0.862518 0.887940
O O10 0.000000 0.816276 0.750000
O O11 0.500000 0.225184 0.750000
O O12 0.000000 0.251233 0.750000
O O13 0.500000 0.414771 0.750000
#
# Coordination Sequence:
#
# PCOD9289463 Si02
#       5
#     8   8   8   8   8
#     4  10  23  43  66 100 142 185 231 289 353 419
#     4  11  24  43  65  96 133 177 228 286 350 415
#     4   9  20  41  67  97 135 183 233 284 338 412
#     4  10  22  40  64  97 137 184 230 280 343 415
#     4  10  22  41  68  96 126 167 226 287 339 401
#
# _framework density 25.173577000000002
#
# number of rings (size 3 to 8) (size 9 to 14) (size 15 to 20)
#    0.000    2.000    0.000    1.800    0.000   16.000 
#    0.000   10.000    0.000    0.000    0.000    0.000 
#    0.000    0.000    0.000    0.000    0.000    0.000 
#
# Total GULP energy -111436.081940 kJ/mol
# GULP energy per Si atom -5571.804097 kJ/mol
# Density = 2.511628 g / cm^3
# Si number density = 25.173577 Si / 1000 Ang^3
#
#
#
# Elastic Constant Matrix: (Units=GPa)
#
#
# Indices 1 2 3 4 5 6 
#
# 1 102.8017 20.8221 22.5433 0.0000 8.9704 0.0000
# 2 20.8221 263.7154 54.0994 0.0000 14.0122 0.0000
# 3 22.5433 54.0994 114.4079 0.0000 8.2673 0.0000
# 4 0.0000 0.0000 0.0000 -4.9751 0.0000 14.5099
# 5 8.9704 14.0122 8.2673 0.0000 35.9815 0.0000
# 6 0.0000 0.0000 0.0000 14.5099 0.0000 199.9504
#
#
#
# Elastic Compliance Matrix: (Units=1/GPa)
#
#
# Indices 1 2 3 4 5 6 
#
# 1 0.010356 -0.000355 -0.001725 0.000000 -0.002047 0.000000
# 2 -0.000355 0.004263 -0.001863 0.000000 -0.001143 0.000000
# 3 -0.001725 -0.001863 0.010045 0.000000 -0.001152 0.000000
# 4 0.000000 0.000000 0.000000 -0.165892 0.000000 0.012038
# 5 -0.002047 -0.001143 -0.001152 0.000000 0.029013 0.000000
# 6 0.000000 0.000000 0.000000 0.012038 0.000000 0.004128
#
#
# Mechanical properties :
#
#
# Convention : Reuss Voigt Hill
#
# Bulk Modulus (GPa) = 59.60218 75.09496 67.34857
# Shear Modulus (GPa) = -52.84927 71.75538 9.45305
#
# Velocity S-wave (km/s) = -4.58689 5.34473 1.93992
# Velocity P-wave (km/s) = 2.07962 8.24523 5.64176
#
# Compressibility (1/GPa) = 0.01677791
#
# Stress axis : x y z
#
# Youngs Moduli (GPa) = 96.55998 234.57727 99.55369
#
# Poissons Ratio (x) = 0.08330 0.17171
# Poissons Ratio (y) = 0.03429 0.18549
# Poissons Ratio (z) = 0.16654 0.43707
#
# Static dielectric constant tensor:
#      x y z
#    x 2.449120 0.000000 0.097000 
#    y 0.000000 2.028790 0.000000 
#    z 0.097000 0.000000 2.010630 
# 
# From -- ./inp_files/73608.got.cif
#   From: 2010.05.17/outbox.cif.g08.bks.cpg/sg15_37_cif.got.tgz:73608.got - 2010.06.03 18:47:42.
