data_PCOD9289543
_publ_section_title
;
Structure prediction by ZEFSAII (Michael W. Deem and Ramdas Pophale) SiO2 
 PCOD9289543
Probable space group: C 2/C
;
_chemical_formula_sum "Si O2"
_cell_formula_units_Z 60
_cell_length_a 19.470436
_cell_length_b 10.258883
_cell_length_c 31.262657
_cell_angle_alpha 90.000000
_cell_angle_beta 155.504268
_cell_angle_gamma 90.000000
_cell_volume 2589.152336
_symmetry_space_group_name_H-M "C 2/C"
_symmetry_group_IT_number 15
_symmetry_cell_setting 'monoclinic'
loop_
_space_group_symop_operation_xyz
x,y,z
-x,y,1/2-z
-x,-y,-z
x,-y,1/2+z
1/2+x,1/2+y,z
1/2-x,1/2+y,1/2-z
1/2-x,1/2-y,-z
1/2+x,1/2-y,1/2+z
loop_
_atom_site_type_symbol
_atom_site_label
_atom_site_fract_x
_atom_site_fract_y
_atom_site_fract_z
Si Si1 0.111588 0.557692 0.130994
Si Si2 0.626070 0.446291 0.535586
Si Si3 0.949344 0.121851 0.080049
Si Si4 0.837839 0.232106 0.681898
Si Si5 0.107670 0.231715 0.367281
Si Si6 0.231969 0.781087 0.261088
Si Si7 0.215047 0.455096 0.592828
Si Si8 0.500000 0.062518 0.750000
O O1 0.136296 0.691647 0.171630
O O2 0.226474 0.438003 0.215564
O O3 0.149654 0.583739 0.102522
O O4 0.928429 0.494303 0.022599
O O5 0.500000 0.500000 0.500000
O O6 0.560206 0.487772 0.451600
O O7 0.667750 0.297328 0.569027
O O8 0.814442 0.502606 0.644726
O O9 0.971552 0.132348 0.143587
O O10 0.088059 0.211782 0.137294
O O11 0.772791 0.191787 0.975217
O O12 0.850595 0.247763 0.739873
O O13 0.820118 0.082752 0.660818
O O14 0.000000 0.283567 0.750000
O O15 0.989279 0.347969 0.286442
O O16 0.172704 0.154197 0.363655
#
# Coordination Sequence:
#
# PCOD9289543 Si02
#       8
#     8   8   8   8   8   8   8   4
#     4  10  24  43  70 101 141 181 241 286 356 423
#     4  11  22  44  69 100 139 183 228 288 356 422
#     4  10  22  40  65  96 134 172 222 293 347 399
#     4  11  25  44  68  97 141 179 231 285 354 430
#     4  10  22  41  65  98 133 168 232 289 342 410
#     4  11  23  44  66 102 136 181 230 295 345 426
#     4  10  23  45  69  96 138 190 225 284 357 430
#     4  10  24  38  72 102 128 184 236 286 350 416
#
# _framework density 23.173608000000002
#
# number of rings (size 3 to 8) (size 9 to 14) (size 15 to 20)
#    0.000    1.600    3.333    0.000    2.800    4.267 
#    2.400    1.333    0.000    0.000    0.000    0.000 
#    0.000    0.000    0.000    0.000    0.000    0.000 
#
# Total GULP energy -167336.174525 kJ/mol
# GULP energy per Si atom -5577.872484 kJ/mol
# Density = 2.312086 g / cm^3
# Si number density = 23.173608 Si / 1000 Ang^3
#
#
#
# Elastic Constant Matrix: (Units=GPa)
#
#
# Indices 1 2 3 4 5 6 
#
# 1 79.7886 17.2104 21.8786 0.0003 7.3770 0.0001
# 2 17.2104 57.8882 15.2087 0.0003 -8.4400 0.0001
# 3 21.8786 15.2087 98.5737 0.0019 -7.4536 0.0001
# 4 0.0003 0.0003 0.0019 31.4721 0.0002 1.3116
# 5 7.3770 -8.4400 -7.4536 0.0002 20.9666 0.0000
# 6 0.0001 0.0001 0.0001 1.3116 0.0000 23.6920
#
#
#
# Elastic Compliance Matrix: (Units=1/GPa)
#
#
# Indices 1 2 3 4 5 6 
#
# 1 0.015282 -0.004925 -0.003277 0.000000 -0.008524 0.000000
# 2 -0.004925 0.020478 -0.001348 0.000000 0.009497 0.000000
# 3 -0.003277 -0.001348 0.011433 -0.000001 0.004675 0.000000
# 4 0.000000 0.000000 -0.000001 0.031848 -0.000001 -0.001763
# 5 -0.008524 0.009497 0.004675 -0.000001 0.056179 0.000000
# 6 0.000000 0.000000 0.000000 -0.001763 0.000000 0.042306
#
#
# Mechanical properties :
#
#
# Convention : Reuss Voigt Hill
#
# Bulk Modulus (GPa) = 35.59592 38.31622 36.95607
# Shear Modulus (GPa) = 24.27292 27.35632 25.81462
#
# Velocity S-wave (km/s) = 3.23993 3.43956 3.34123
# Velocity P-wave (km/s) = 5.42126 5.68722 5.55583
#
# Compressibility (1/GPa) = 0.02809311
#
# Stress axis : x y z
#
# Youngs Moduli (GPa) = 65.43588 48.83317 87.46298
#
# Poissons Ratio (x) = 0.24053 0.28658
# Poissons Ratio (y) = 0.32230 0.11791
# Poissons Ratio (z) = 0.21440 0.06583
#
# Static dielectric constant tensor:
#      x y z
#    x 1.916450 0.000000 -0.067380 
#    y 0.000000 1.947280 0.000000 
#    z -0.067380 0.000000 1.970810 
# 
# From -- ./inp_files/298979.got.cif
#   From: 2010.05.17/outbox.cif.g08.bks.cpg/sg15_150_cif.got.tgz:298979.got - 2010.06.03 18:47:42.
