data_PCOD9289186
_publ_section_title
;
Structure prediction by ZEFSAII (Michael W. Deem and Ramdas Pophale) SiO2 
 PCOD9289186
Probable space group: C 2/C
;
_chemical_formula_sum "Si O2"
_cell_formula_units_Z 44
_cell_length_a 23.570141
_cell_length_b 7.682483
_cell_length_c 11.080385
_cell_angle_alpha 90.000000
_cell_angle_beta 65.956991
_cell_angle_gamma 90.000000
_cell_volume 1832.329229
_symmetry_space_group_name_H-M "C 2/C"
_symmetry_group_IT_number 15
_symmetry_cell_setting 'monoclinic'
loop_
_space_group_symop_operation_xyz
x,y,z
-x,y,1/2-z
-x,-y,-z
x,-y,1/2+z
1/2+x,1/2+y,z
1/2-x,1/2+y,1/2-z
1/2-x,1/2-y,-z
1/2+x,1/2-y,1/2+z
loop_
_atom_site_type_symbol
_atom_site_label
_atom_site_fract_x
_atom_site_fract_y
_atom_site_fract_z
Si Si1 0.199382 0.225832 0.710149
Si Si2 0.000000 0.721507 0.250000
Si Si3 0.389101 0.003818 0.355571
Si Si4 0.473180 0.266363 0.643822
Si Si5 0.729834 0.892438 0.918933
Si Si6 0.573711 0.384813 0.398727
O O1 0.158538 0.364934 0.671075
O O2 0.241071 0.322184 0.773637
O O3 0.146781 0.128921 0.834161
O O4 0.234706 0.077883 0.603797
O O5 0.050881 0.600205 0.140024
O O6 0.043701 0.831297 0.297483
O O7 0.422588 0.877543 0.227409
O O8 0.343178 0.920182 0.492118
O O9 0.500000 0.328005 0.750000
O O10 0.538791 0.251007 0.517133
O O11 0.442263 0.410966 0.583511
O O12 0.750000 0.750000 0.000000
#
# Coordination Sequence:
#
# PCOD9289186 Si02
#       6
#     8   4   8   8   8   8
#     4  11  26  45  69 103 138 193 248 297 369 429
#     4  10  22  40  62 106 136 178 230 290 372 426
#     4  11  24  41  72 102 144 186 237 297 364 437
#     4  11  21  40  65 103 141 189 231 290 366 433
#     4  12  26  49  71 100 141 192 250 310 359 436
#     4  10  23  40  66 100 144 179 238 297 358 442
#
# _framework density 24.013152000000002
#
# number of rings (size 3 to 8) (size 9 to 14) (size 15 to 20)
#    0.000    1.091    1.818    3.818    2.545    1.455 
#    6.545    0.000    0.000    0.000    0.000    0.000 
#    0.000    0.000    0.000    0.000    0.000    0.000 
#
# Total GULP energy -122662.012643 kJ/mol
# GULP energy per Si atom -5575.546029 kJ/mol
# Density = 2.395850 g / cm^3
# Si number density = 24.013152 Si / 1000 Ang^3
#
#
#
# Elastic Constant Matrix: (Units=GPa)
#
#
# Indices 1 2 3 4 5 6 
#
# 1 77.2454 47.2876 26.5132 0.0000 -18.0047 0.0000
# 2 47.2876 126.2528 42.5547 0.0000 -21.0613 0.0000
# 3 26.5132 42.5547 85.1484 0.0000 -34.9869 0.0000
# 4 0.0000 0.0000 0.0000 58.6103 0.0000 -20.1207
# 5 -18.0047 -21.0613 -34.9869 0.0000 49.3352 0.0000
# 6 0.0000 0.0000 0.0000 -20.1207 0.0000 61.7857
#
#
#
# Elastic Compliance Matrix: (Units=1/GPa)
#
#
# Indices 1 2 3 4 5 6 
#
# 1 0.017563 -0.005592 -0.001441 0.000000 0.003000 0.000000
# 2 -0.005592 0.011339 -0.003916 0.000000 0.000022 0.000000
# 3 -0.001441 -0.003916 0.018695 0.000000 0.011060 0.000000
# 4 0.000000 0.000000 0.000000 0.019209 0.000000 0.006256
# 5 0.003000 0.000022 0.011060 0.000000 0.029217 0.000000
# 6 0.000000 0.000000 0.000000 0.006256 0.000000 0.018222
#
#
# Mechanical properties :
#
#
# Convention : Reuss Voigt Hill
#
# Bulk Modulus (GPa) = 38.91452 57.92862 48.42157
# Shear Modulus (GPa) = 34.55188 45.43232 39.99210
#
# Velocity S-wave (km/s) = 3.79736 4.35440 4.08539
# Velocity P-wave (km/s) = 5.95544 7.03258 6.51631
#
# Compressibility (1/GPa) = 0.02569735
#
# Stress axis : x y z
#
# Youngs Moduli (GPa) = 56.93802 88.19234 53.49130
#
# Poissons Ratio (x) = 0.49316 0.07709
# Poissons Ratio (y) = 0.31839 0.20950
# Poissons Ratio (z) = 0.08206 0.34540
#
# Static dielectric constant tensor:
#      x y z
#    x 1.884320 0.000000 -0.000780 
#    y 0.000000 2.097070 0.000000 
#    z -0.000780 0.000000 1.997540 
# 
# From -- ./inp_files/116680.got.cif
#   From: 2010.05.17/outbox.cif.g08.bks.cpg/sg15_59_cif.got.tgz:116680.got - 2010.06.03 18:47:42.
