data_PCOD9289833
_publ_section_title
;
Structure prediction by ZEFSAII (Michael W. Deem and Ramdas Pophale) SiO2 
 PCOD9289833
Probable space group: C 2/C
;
_chemical_formula_sum "Si O2"
_cell_formula_units_Z 44
_cell_length_a 4.980930
_cell_length_b 13.416634
_cell_length_c 29.620039
_cell_angle_alpha 90.000000
_cell_angle_beta 83.054528
_cell_angle_gamma 90.000000
_cell_volume 1964.902005
_symmetry_space_group_name_H-M "C 2/C"
_symmetry_group_IT_number 15
_symmetry_cell_setting 'monoclinic'
loop_
_space_group_symop_operation_xyz
x,y,z
-x,y,1/2-z
-x,-y,-z
x,-y,1/2+z
1/2+x,1/2+y,z
1/2-x,1/2+y,1/2-z
1/2-x,1/2-y,-z
1/2+x,1/2-y,1/2+z
loop_
_atom_site_type_symbol
_atom_site_label
_atom_site_fract_x
_atom_site_fract_y
_atom_site_fract_z
Si Si1 0.255676 0.499996 0.542459
Si Si2 0.499708 0.175341 0.001690
Si Si3 0.500000 0.022012 0.250000
Si Si4 0.556804 0.879769 0.322263
Si Si5 0.092861 0.149037 0.300019
Si Si6 0.501725 0.525715 0.864257
O O1 0.500000 0.500000 0.500000
O O2 0.068538 0.401568 0.541231
O O3 0.401296 0.508012 0.587197
O O4 0.061826 0.593806 0.535910
O O5 0.750000 0.250000 0.000000
O O6 0.250000 0.250000 0.000000
O O7 0.385297 0.097744 0.289675
O O8 0.668363 0.943262 0.277027
O O9 0.581767 0.763517 0.312589
O O10 0.246981 0.913427 0.335248
O O11 0.733177 0.911013 0.361570
O O12 0.000000 0.136591 0.250000
O O13 0.954200 0.079402 0.339938
#
# Coordination Sequence:
#
# PCOD9289833 Si02
#       6
#     8   8   4   8   8   8
#     4  11  26  47  76 105 146 191 244 304 363 425
#     4  11  24  44  72 104 135 185 236 293 365 431
#     4  10  22  40  68  96 136 178 236 282 346 418
#     4  11  25  42  67 101 139 183 230 289 345 419
#     4  11  23  42  69  97 138 185 229 281 356 414
#     4  11  28  44  67 104 144 178 241 290 348 418
#
# _framework density 22.392973999999999
#
# number of rings (size 3 to 8) (size 9 to 14) (size 15 to 20)
#    0.000    1.091    4.545    0.000    7.636    2.909 
#    0.000    0.000    0.000    0.000    0.000    0.000 
#    0.000    0.000    0.000    0.000    0.000    0.000 
#
# Total GULP energy -122669.395567 kJ/mol
# GULP energy per Si atom -5575.881617 kJ/mol
# Density = 2.234201 g / cm^3
# Si number density = 22.392974 Si / 1000 Ang^3
#
#
#
# Elastic Constant Matrix: (Units=GPa)
#
#
# Indices 1 2 3 4 5 6 
#
# 1 102.8309 49.4463 18.1328 0.0000 23.7812 0.0000
# 2 49.4463 222.3189 52.5195 0.0000 15.5026 0.0000
# 3 18.1328 52.5195 137.5572 0.0000 32.8505 0.0000
# 4 0.0000 0.0000 0.0000 14.6979 0.0000 19.1162
# 5 23.7812 15.5026 32.8505 0.0000 44.8892 0.0000
# 6 0.0000 0.0000 0.0000 19.1162 0.0000 32.1917
#
#
#
# Elastic Compliance Matrix: (Units=1/GPa)
#
#
# Indices 1 2 3 4 5 6 
#
# 1 0.012207 -0.002475 0.000819 0.000000 -0.006212 0.000000
# 2 -0.002475 0.005452 -0.001962 0.000000 0.000864 0.000000
# 3 0.000819 -0.001962 0.009515 0.000000 -0.006720 0.000000
# 4 0.000000 0.000000 0.000000 0.298848 0.000000 -0.177464
# 5 -0.006212 0.000864 -0.006720 0.000000 0.030187 0.000000
# 6 0.000000 0.000000 0.000000 -0.177464 0.000000 0.136446
#
#
# Mechanical properties :
#
#
# Convention : Reuss Voigt Hill
#
# Bulk Modulus (GPa) = 50.15221 78.10046 64.12634
# Shear Modulus (GPa) = 9.87093 41.19632 25.53363
#
# Velocity S-wave (km/s) = 2.10181 4.29382 3.38042
# Velocity P-wave (km/s) = 5.32308 7.71592 6.62837
#
# Compressibility (1/GPa) = 0.01993930
#
# Stress axis : x y z
#
# Youngs Moduli (GPa) = 81.91958 183.42793 105.09185
#
# Poissons Ratio (x) = 0.45406 -0.08612
# Poissons Ratio (y) = 0.20279 0.20614
# Poissons Ratio (z) = -0.06713 0.35980
#
# Static dielectric constant tensor:
#      x y z
#    x 1.982810 0.000000 -0.055850 
#    y 0.000000 1.784900 0.000000 
#    z -0.055850 0.000000 1.862450 
# 
# From -- ./inp_files/304965.got.cif
#   From: 2010.05.17/outbox.cif.g08.bks.cpg/sg15_153_cif.got.tgz:304965.got - 2010.06.03 18:47:42.
