data_PCOD9289547
_publ_section_title
;
Structure prediction by ZEFSAII (Michael W. Deem and Ramdas Pophale) SiO2 
 PCOD9289547
Probable space group: C 2/C
;
_chemical_formula_sum "Si O2"
_cell_formula_units_Z 40
_cell_length_a 10.461838
_cell_length_b 8.207578
_cell_length_c 21.559385
_cell_angle_alpha 90.000000
_cell_angle_beta 59.315499
_cell_angle_gamma 90.000000
_cell_volume 1592.036256
_symmetry_space_group_name_H-M "C 2/C"
_symmetry_group_IT_number 15
_symmetry_cell_setting 'monoclinic'
loop_
_space_group_symop_operation_xyz
x,y,z
-x,y,1/2-z
-x,-y,-z
x,-y,1/2+z
1/2+x,1/2+y,z
1/2-x,1/2+y,1/2-z
1/2-x,1/2-y,-z
1/2+x,1/2-y,1/2+z
loop_
_atom_site_type_symbol
_atom_site_label
_atom_site_fract_x
_atom_site_fract_y
_atom_site_fract_z
Si Si1 0.422758 0.758690 0.702075
Si Si2 0.708440 0.390381 0.081333
Si Si3 0.667414 0.559569 0.449897
Si Si4 0.308794 0.258252 0.914635
Si Si5 0.414098 0.141027 0.706138
O O1 0.500000 0.739432 0.750000
O O2 0.535767 0.659890 0.630311
O O3 0.255626 0.694972 0.746611
O O4 0.422775 0.950357 0.687331
O O5 0.801227 0.238535 0.084465
O O6 0.738053 0.568588 0.102307
O O7 0.514444 0.754258 0.134083
O O8 0.500000 0.500000 0.500000
O O9 0.738456 0.582367 0.500998
O O10 0.748232 0.406855 0.398329
O O11 0.250000 0.250000 0.000000
O O12 0.500000 0.166508 0.750000
#
# Coordination Sequence:
#
# PCOD9289547 Si02
#       5
#     8   8   8   8   8
#     4  11  25  44  70 101 144 184 237 292 350 420
#     4  10  22  41  64  95 133 178 227 280 347 410
#     4  10  22  40  65  96 137 173 224 285 346 410
#     4  10  22  42  66  99 136 176 232 283 351 419
#     4  11  25  45  71 101 142 187 235 295 353 418
#
# _framework density 25.125057999999999
#
# number of rings (size 3 to 8) (size 9 to 14) (size 15 to 20)
#    0.000    1.600    2.000    1.200    2.800    7.200 
#    0.000    0.000    0.000    0.000    0.000    0.000 
#    0.000    0.000    0.000    0.000    0.000    0.000 
#
# Total GULP energy -111891.987857 kJ/mol
# GULP energy per Si atom -5594.599393 kJ/mol
# Density = 2.506787 g / cm^3
# Si number density = 25.125058 Si / 1000 Ang^3
#
#
#
# Elastic Constant Matrix: (Units=GPa)
#
#
# Indices 1 2 3 4 5 6 
#
# 1 145.1996 67.3996 39.5038 0.0000 -17.5394 0.0000
# 2 67.3996 258.9217 27.0698 0.0000 -29.3192 0.0000
# 3 39.5038 27.0698 102.9679 0.0000 -24.4127 0.0000
# 4 0.0000 0.0000 0.0000 29.0368 0.0000 -24.5752
# 5 -17.5394 -29.3192 -24.4127 0.0000 47.7285 0.0000
# 6 0.0000 0.0000 0.0000 -24.5752 0.0000 27.4790
#
#
#
# Elastic Compliance Matrix: (Units=1/GPa)
#
#
# Indices 1 2 3 4 5 6 
#
# 1 0.008554 -0.001878 -0.002636 0.000000 0.000641 0.000000
# 2 -0.001878 0.004591 0.000021 0.000000 0.002141 0.000000
# 3 -0.002636 0.000021 0.011939 0.000000 0.005151 0.000000
# 4 0.000000 0.000000 0.000000 0.141672 0.000000 0.126701
# 5 0.000641 0.002141 0.005151 0.000000 0.025137 0.000000
# 6 0.000000 0.000000 0.000000 0.126701 0.000000 0.149703
#
#
# Mechanical properties :
#
#
# Convention : Reuss Voigt Hill
#
# Bulk Modulus (GPa) = 62.12066 86.11508 74.11787
# Shear Modulus (GPa) = 14.04699 45.72328 29.88513
#
# Velocity S-wave (km/s) = 2.36706 4.27057 3.45259
# Velocity P-wave (km/s) = 5.67881 7.65938 6.74221
#
# Compressibility (1/GPa) = 0.01609770
#
# Stress axis : x y z
#
# Youngs Moduli (GPa) = 116.91060 217.80076 83.76176
#
# Poissons Ratio (x) = 0.40911 0.22077
# Poissons Ratio (y) = 0.21960 -0.00178
# Poissons Ratio (z) = 0.30814 -0.00462
#
# Static dielectric constant tensor:
#      x y z
#    x 1.970430 0.000000 0.023970 
#    y 0.000000 2.078630 0.000000 
#    z 0.023970 0.000000 2.036550 
# 
# From -- ./inp_files/267299.got.cif
#   From: 2010.05.17/outbox.cif.g08.bks.cpg/sg15_134_cif.got.tgz:267299.got - 2010.06.03 18:47:42.
