data_PCOD9289556
_publ_section_title
;
Structure prediction by ZEFSAII (Michael W. Deem and Ramdas Pophale) SiO2 
 PCOD9289556
Probable space group: C 2/C
;
_chemical_formula_sum "Si O2"
_cell_formula_units_Z 32
_cell_length_a 11.023400
_cell_length_b 13.164725
_cell_length_c 13.712745
_cell_angle_alpha 90.000000
_cell_angle_beta 40.783442
_cell_angle_gamma 90.000000
_cell_volume 1299.867659
_symmetry_space_group_name_H-M "C 2/C"
_symmetry_group_IT_number 15
_symmetry_cell_setting 'monoclinic'
loop_
_space_group_symop_operation_xyz
x,y,z
-x,y,1/2-z
-x,-y,-z
x,-y,1/2+z
1/2+x,1/2+y,z
1/2-x,1/2+y,1/2-z
1/2-x,1/2-y,-z
1/2+x,1/2-y,1/2+z
loop_
_atom_site_type_symbol
_atom_site_label
_atom_site_fract_x
_atom_site_fract_y
_atom_site_fract_z
Si Si1 0.082133 0.109532 0.923114
Si Si2 0.691591 0.943803 0.376106
Si Si3 0.995132 0.293764 0.868927
Si Si4 0.104420 0.150631 0.277164
O O1 0.279392 0.097342 0.751482
O O2 0.973536 0.174795 0.908076
O O3 0.048474 0.163950 0.044913
O O4 0.000000 0.000000 0.000000
O O5 0.659679 0.855960 0.475536
O O6 0.500000 0.000000 0.500000
O O7 0.843378 0.034226 0.288637
O O8 0.000000 0.314531 0.750000
O O9 0.198852 0.316649 0.793587
O O10 0.000000 0.200785 0.250000
#
# Coordination Sequence:
#
# PCOD9289556 Si02
#       4
#     8   8   8   8
#     4  10  22  40  65  97 135 178 226 285 345 403
#     4   9  21  41  64  98 139 177 222 279 342 408
#     4  11  24  43  70 102 134 176 232 286 337 402
#     4  10  23  42  66  98 137 180 223 275 344 411
#
# _framework density 24.617891
#
# number of rings (size 3 to 8) (size 9 to 14) (size 15 to 20)
#    0.000    2.000    0.000    1.500    0.000   17.000 
#    0.000    3.750    0.000    1.500    0.000    0.000 
#    0.000    0.000    0.000    0.000    0.000    0.000 
#
# Total GULP energy -89104.215224 kJ/mol
# GULP energy per Si atom -5569.013452 kJ/mol
# Density = 2.456186 g / cm^3
# Si number density = 24.617891 Si / 1000 Ang^3
#
#
#
# Elastic Constant Matrix: (Units=GPa)
#
#
# Indices 1 2 3 4 5 6 
#
# 1 180.3977 23.4220 90.1227 -0.0002 15.6328 0.0001
# 2 23.4220 105.3193 34.8057 -0.0001 5.2042 0.0001
# 3 90.1227 34.8057 250.7921 -0.0005 38.7428 0.0006
# 4 -0.0002 -0.0001 -0.0005 40.3510 0.0003 0.8419
# 5 15.6328 5.2042 38.7428 0.0003 35.0858 -0.0004
# 6 0.0001 0.0001 0.0006 0.8419 -0.0004 -1.9966
#
#
#
# Elastic Compliance Matrix: (Units=1/GPa)
#
#
# Indices 1 2 3 4 5 6 
#
# 1 0.006816 -0.000741 -0.002284 0.000000 -0.000405 0.000000
# 2 -0.000741 0.010032 -0.001142 0.000000 0.000103 0.000000
# 3 -0.002284 -0.001142 0.005767 0.000000 -0.005181 0.000002
# 4 0.000000 0.000000 0.000000 0.024566 0.000000 0.010359
# 5 -0.000405 0.000103 -0.005181 0.000000 0.034388 -0.000008
# 6 0.000000 0.000000 0.000002 0.010359 -0.000008 -0.496495
#
#
# Mechanical properties :
#
#
# Convention : Reuss Voigt Hill
#
# Bulk Modulus (GPa) = 70.02258 92.57888 81.30073
# Shear Modulus (GPa) = -12.44298 40.56530 14.06116
#
# Velocity S-wave (km/s) = -2.25065 4.06371 2.39252
# Velocity P-wave (km/s) = 4.66387 7.72699 6.38193
#
# Compressibility (1/GPa) = 0.01428111
#
# Stress axis : x y z
#
# Youngs Moduli (GPa) = 146.72369 99.68097 173.40326
#
# Poissons Ratio (x) = 0.07386 0.39601
# Poissons Ratio (y) = 0.10872 0.19801
# Poissons Ratio (z) = 0.33508 0.11383
#
# Static dielectric constant tensor:
#      x y z
#    x 1.982060 0.000000 -0.026590 
#    y 0.000000 2.188100 0.000000 
#    z -0.026590 0.000000 1.922730 
# 
# From -- ./inp_files/143250.got.cif
#   From: 2010.05.17/outbox.cif.g08.bks.cpg/sg15_72_cif.got.tgz:143250.got - 2010.06.03 18:47:42.
