data_PCOD9289802
_publ_section_title
;
Structure prediction by ZEFSAII (Michael W. Deem and Ramdas Pophale) SiO2 
 PCOD9289802
Probable space group: C 2/C
;
_chemical_formula_sum "Si O2"
_cell_formula_units_Z 44
_cell_length_a 4.894201
_cell_length_b 23.021370
_cell_length_c 17.974720
_cell_angle_alpha 90.000000
_cell_angle_beta 71.969133
_cell_angle_gamma 90.000000
_cell_volume 1925.774073
_symmetry_space_group_name_H-M "C 2/C"
_symmetry_group_IT_number 15
_symmetry_cell_setting 'monoclinic'
loop_
_space_group_symop_operation_xyz
x,y,z
-x,y,1/2-z
-x,-y,-z
x,-y,1/2+z
1/2+x,1/2+y,z
1/2-x,1/2+y,1/2-z
1/2-x,1/2-y,-z
1/2+x,1/2-y,1/2+z
loop_
_atom_site_type_symbol
_atom_site_label
_atom_site_fract_x
_atom_site_fract_y
_atom_site_fract_z
Si Si1 0.202296 0.870020 0.956805
Si Si2 0.000000 0.991543 0.250000
Si Si3 0.770443 0.747870 0.621840
Si Si4 0.714949 0.407400 0.631962
Si Si5 0.000000 0.408854 0.250000
Si Si6 0.764574 0.829967 0.107985
Si Si7 0.000000 0.808468 0.750000
O O1 0.246825 0.802621 0.931481
O O2 0.504401 0.901163 0.942117
O O3 0.060919 0.898887 0.896233
O O4 0.975992 0.869897 0.042206
O O5 0.822334 0.033964 0.319232
O O6 0.775684 0.949683 0.229562
O O7 0.480375 0.710670 0.637810
O O8 0.050766 0.709712 0.577451
O O9 0.845243 0.771464 0.698553
O O10 0.715336 0.352953 0.689603
O O11 0.951290 0.367132 0.323937
#
# Coordination Sequence:
#
# PCOD9289802 Si02
#       7
#     8   4   8   8   4   8   4
#     4  11  22  40  63  97 127 160 204 254 307 366
#     4  11  24  48  67  90 117 158 208 265 328 360
#     4  11  22  38  61  92 133 172 200 244 297 367
#     4  10  22  40  68  91 119 154 206 273 316 355
#     4  12  27  44  63  86 123 166 209 256 304 376
#     4  12  25  41  60  91 131 173 207 241 298 374
#     4   9  21  36  60  96 124 160 211 249 302 366
#
# _framework density 22.847956
#
# number of rings (size 3 to 8) (size 9 to 14) (size 15 to 20)
#    0.000    1.091    0.000    7.091    0.000   12.364 
#    0.000    5.455    0.000    0.000    0.000    0.000 
#    0.000    0.000    0.000    0.000    0.000    0.000 
#
# Total GULP energy -123187.181011 kJ/mol
# GULP energy per Si atom -5599.417319 kJ/mol
# Density = 2.279595 g / cm^3
# Si number density = 22.847956 Si / 1000 Ang^3
#
#
#
# Elastic Constant Matrix: (Units=GPa)
#
#
# Indices 1 2 3 4 5 6 
#
# 1 94.6211 15.8678 -14.6246 0.0000 -8.1367 0.0000
# 2 15.8678 65.3445 7.1733 0.0000 -1.0238 0.0000
# 3 -14.6246 7.1733 70.0219 0.0000 -17.3991 0.0000
# 4 0.0000 0.0000 0.0000 11.2639 0.0000 -11.9099
# 5 -8.1367 -1.0238 -17.3991 0.0000 42.9881 0.0000
# 6 0.0000 0.0000 0.0000 -11.9099 0.0000 26.8602
#
#
#
# Elastic Compliance Matrix: (Units=1/GPa)
#
#
# Indices 1 2 3 4 5 6 
#
# 1 0.012021 -0.003275 0.003771 0.000000 0.003724 0.000000
# 2 -0.003275 0.016373 -0.002689 0.000000 -0.001318 0.000000
# 3 0.003771 -0.002689 0.017240 0.000000 0.007627 0.000000
# 4 0.000000 0.000000 0.000000 0.167141 0.000000 0.074111
# 5 0.003724 -0.001318 0.007627 0.000000 0.027023 0.000000
# 6 0.000000 0.000000 0.000000 0.074111 0.000000 0.070091
#
#
# Mechanical properties :
#
#
# Convention : Reuss Voigt Hill
#
# Bulk Modulus (GPa) = 24.24283 27.42451 25.83367
# Shear Modulus (GPa) = 15.24284 30.99384 23.11834
#
# Velocity S-wave (km/s) = 2.58571 3.68710 3.18438
# Velocity P-wave (km/s) = 4.42132 5.49139 4.98515
#
# Compressibility (1/GPa) = 0.04124932
#
# Stress axis : x y z
#
# Youngs Moduli (GPa) = 83.18957 61.07533 58.00577
#
# Poissons Ratio (x) = 0.20000 -0.21876
# Poissons Ratio (y) = 0.27242 0.15597
# Poissons Ratio (z) = -0.31374 0.16422
#
# Static dielectric constant tensor:
#      x y z
#    x 1.815670 0.000000 -0.012550 
#    y 0.000000 1.815450 0.000000 
#    z -0.012550 0.000000 1.870670 
# 
# From -- ./inp_files/185199.got.cif
#   From: 2010.05.17/outbox.cif.g08.bks.cpg/sg15_93_cif.got.tgz:185199.got - 2010.06.03 18:47:42.
