data_PCOD9289090
_publ_section_title
;
Structure prediction by ZEFSAII (Michael W. Deem and Ramdas Pophale) SiO2 
 PCOD9289090
Probable space group: C 2/C
;
_chemical_formula_sum "Si O2"
_cell_formula_units_Z 60
_cell_length_a 25.140285
_cell_length_b 11.972326
_cell_length_c 12.671798
_cell_angle_alpha 90.000000
_cell_angle_beta 58.390172
_cell_angle_gamma 90.000000
_cell_volume 3248.190671
_symmetry_space_group_name_H-M "C 2/C"
_symmetry_group_IT_number 15
_symmetry_cell_setting 'monoclinic'
loop_
_space_group_symop_operation_xyz
x,y,z
-x,y,1/2-z
-x,-y,-z
x,-y,1/2+z
1/2+x,1/2+y,z
1/2-x,1/2+y,1/2-z
1/2-x,1/2-y,-z
1/2+x,1/2-y,1/2+z
loop_
_atom_site_type_symbol
_atom_site_label
_atom_site_fract_x
_atom_site_fract_y
_atom_site_fract_z
Si Si1 0.318916 0.855570 0.181699
Si Si2 0.099085 0.173403 0.488329
Si Si3 0.712365 0.319464 0.625474
Si Si4 0.678060 0.663817 0.746654
Si Si5 0.000000 0.104600 0.750000
Si Si6 0.194739 0.956932 0.016772
Si Si7 0.434770 0.504381 0.131285
Si Si8 0.702970 0.092999 0.265303
O O1 0.325455 0.781203 0.279781
O O2 0.244183 0.859684 0.235812
O O3 0.337533 0.984216 0.166850
O O4 0.358387 0.783249 0.057389
O O5 0.038056 0.178100 0.625265
O O6 0.138665 0.073204 0.498179
O O7 0.087515 0.126314 0.382340
O O8 0.750000 0.250000 0.500000
O O9 0.687236 0.425764 0.585728
O O10 0.752197 0.374906 0.681324
O O11 0.692906 0.635857 0.610052
O O12 0.619631 0.585808 0.838624
O O13 0.665907 0.794174 0.777973
O O14 0.045954 0.026108 0.770049
O O15 0.255519 0.942088 0.879892
O O16 0.500000 0.500000 0.000000
#
# Coordination Sequence:
#
# PCOD9289090 Si02
#       8
#     8   8   8   8   4   8   8   8
#     4  11  22  38  56  94 131 168 198 256 324 389
#     4  11  22  36  62  89 124 157 211 261 310 373
#     4  11  22  34  52  82 131 170 200 242 310 385
#     4  11  21  35  59  89 123 161 208 254 309 381
#     4  10  22  40  60  88 114 164 216 262 304 354
#     4  12  20  34  59  86 123 172 201 248 315 375
#     4  10  22  40  60  89 118 161 211 262 307 358
#     4  11  23  35  53  87 130 162 203 247 311 389
#
# _framework density 18.471823000000001
#
# number of rings (size 3 to 8) (size 9 to 14) (size 15 to 20)
#    0.000    1.067    6.667    2.000    1.867    0.000 
#    0.000    0.000    0.000    3.200    0.000    1.867 
#    0.000    0.000    0.000    0.000    0.000    0.000 
#
# Total GULP energy -167001.487862 kJ/mol
# GULP energy per Si atom -5566.716262 kJ/mol
# Density = 1.842978 g / cm^3
# Si number density = 18.471823 Si / 1000 Ang^3
#
#
#
# Elastic Constant Matrix: (Units=GPa)
#
#
# Indices 1 2 3 4 5 6 
#
# 1 52.2594 37.4682 22.8043 0.0000 -10.3828 0.0000
# 2 37.4682 144.5268 47.9204 0.0000 0.9785 0.0000
# 3 22.8043 47.9204 87.9677 0.0000 -1.7439 0.0000
# 4 0.0000 0.0000 0.0000 37.2363 0.0000 5.3526
# 5 -10.3828 0.9785 -1.7439 0.0000 24.1077 0.0000
# 6 0.0000 0.0000 0.0000 5.3526 0.0000 17.7690
#
#
#
# Elastic Compliance Matrix: (Units=1/GPa)
#
#
# Indices 1 2 3 4 5 6 
#
# 1 0.027319 -0.005969 -0.003597 0.000000 0.011748 0.000000
# 2 -0.005969 0.009760 -0.003833 0.000000 -0.003244 0.000000
# 3 -0.003597 -0.003833 0.014382 0.000000 -0.000353 0.000000
# 4 0.000000 0.000000 0.000000 0.028071 0.000000 -0.008456
# 5 0.011748 -0.003244 -0.000353 0.000000 0.046646 0.000000
# 6 0.000000 0.000000 0.000000 -0.008456 0.000000 0.058825
#
#
# Mechanical properties :
#
#
# Convention : Reuss Voigt Hill
#
# Bulk Modulus (GPa) = 40.55136 55.68220 48.11678
# Shear Modulus (GPa) = 22.72498 27.59333 25.15916
#
# Velocity S-wave (km/s) = 3.51130 3.86917 3.69457
# Velocity P-wave (km/s) = 6.19998 7.08311 6.65621
#
# Compressibility (1/GPa) = 0.02466009
#
# Stress axis : x y z
#
# Youngs Moduli (GPa) = 36.60486 102.46303 69.53295
#
# Poissons Ratio (x) = 0.61161 0.25014
# Poissons Ratio (y) = 0.21850 0.26655
# Poissons Ratio (z) = 0.13168 0.39279
#
# Static dielectric constant tensor:
#      x y z
#    x 1.700070 0.000000 0.004140 
#    y 0.000000 1.646580 0.000000 
#    z 0.004140 0.000000 1.705860 
# 
# From -- ./inp_files/122656.got.cif
#   From: 2010.05.17/outbox.cif.g08.bks.cpg/sg15_62_cif.got.tgz:122656.got - 2010.06.03 18:47:42.
