data_PCOD9289177
_publ_section_title
;
Structure prediction by ZEFSAII (Michael W. Deem and Ramdas Pophale) SiO2 
 PCOD9289177
Probable space group: C 2/C
;
_chemical_formula_sum "Si O2"
_cell_formula_units_Z 64
_cell_length_a 17.540808
_cell_length_b 25.347589
_cell_length_c 15.449802
_cell_angle_alpha 90.000000
_cell_angle_beta 29.474316
_cell_angle_gamma 90.000000
_cell_volume 3379.898940
_symmetry_space_group_name_H-M "C 2/C"
_symmetry_group_IT_number 15
_symmetry_cell_setting 'monoclinic'
loop_
_space_group_symop_operation_xyz
x,y,z
-x,y,1/2-z
-x,-y,-z
x,-y,1/2+z
1/2+x,1/2+y,z
1/2-x,1/2+y,1/2-z
1/2-x,1/2-y,-z
1/2+x,1/2-y,1/2+z
loop_
_atom_site_type_symbol
_atom_site_label
_atom_site_fract_x
_atom_site_fract_y
_atom_site_fract_z
Si Si1 0.813790 0.868068 0.432471
Si Si2 0.309972 0.889448 0.248360
Si Si3 0.817089 0.390822 0.611317
Si Si4 0.317481 0.592226 0.435887
Si Si5 0.181311 0.494965 0.798408
Si Si6 0.821480 0.520470 0.402074
Si Si7 0.307036 0.687154 0.120157
Si Si8 0.677974 0.304843 0.248030
O O1 0.734302 0.924854 0.502390
O O2 0.765360 0.841171 0.570620
O O3 0.775551 0.830544 0.389853
O O4 0.000000 0.875367 0.250000
O O5 0.247354 0.888312 0.408045
O O6 0.251975 0.840906 0.249314
O O7 0.254414 0.945467 0.261477
O O8 0.496552 0.890740 0.067215
O O9 0.764396 0.381546 0.565560
O O10 0.756765 0.448779 0.701507
O O11 0.750825 0.348502 0.743610
O O12 0.500000 0.600245 0.250000
O O13 0.276487 0.529990 0.472174
O O14 0.194366 0.476433 0.686162
O O15 0.000000 0.500000 0.000000
O O16 0.000000 0.510401 0.250000
O O17 0.233473 0.744919 0.197314
O O18 0.492590 0.692302 0.938782
#
# Coordination Sequence:
#
# PCOD9289177 Si02
#       8
#     8   8   8   8   8   8   8   8
#     4  10  23  39  58  90 128 162 205 254 306 361
#     4  10  22  40  61  95 119 160 208 252 309 363
#     4  11  21  39  65  88 125 159 204 258 303 368
#     4  11  23  40  60  89 127 163 200 251 310 367
#     4   9  19  34  56  88 122 154 201 246 299 361
#     4  11  21  35  58  90 126 163 208 246 300 371
#     4  11  23  43  60  93 121 167 210 252 311 358
#     4  11  24  40  65  86 127 163 208 260 301 367
#
# _framework density 18.935478
#
# number of rings (size 3 to 8) (size 9 to 14) (size 15 to 20)
#    0.000    1.500    1.250    4.875    5.250    1.000 
#    0.000    2.500    0.000    0.000    0.000    0.000 
#    0.000    0.000    0.000    0.000    0.000    0.000 
#
# Total GULP energy -178853.995577 kJ/mol
# GULP energy per Si atom -5589.187362 kJ/mol
# Density = 1.889238 g / cm^3
# Si number density = 18.935478 Si / 1000 Ang^3
#
#
#
# Elastic Constant Matrix: (Units=GPa)
#
#
# Indices 1 2 3 4 5 6 
#
# 1 89.2570 38.2276 39.9798 0.0034 14.5498 -0.0052
# 2 38.2276 91.5989 46.2198 0.0446 13.7968 -0.0125
# 3 39.9798 46.2198 91.3319 0.0029 20.3752 0.0137
# 4 0.0034 0.0446 0.0029 32.7933 0.0128 -0.0139
# 5 14.5498 13.7968 20.3752 0.0128 33.9475 -0.0121
# 6 -0.0052 -0.0125 0.0137 -0.0139 -0.0121 19.1314
#
#
#
# Elastic Compliance Matrix: (Units=1/GPa)
#
#
# Indices 1 2 3 4 5 6 
#
# 1 0.015095 -0.003858 -0.004112 0.000005 -0.002433 0.000003
# 2 -0.003858 0.015736 -0.006023 -0.000020 -0.001127 0.000013
# 3 -0.004112 -0.006023 0.017155 0.000009 -0.006086 -0.000021
# 4 0.000005 -0.000020 0.000009 0.030494 -0.000011 0.000022
# 5 -0.002433 -0.001127 -0.006086 -0.000011 0.034611 0.000025
# 6 0.000003 0.000013 -0.000021 0.000022 0.000025 0.052270
#
#
# Mechanical properties :
#
#
# Convention : Reuss Voigt Hill
#
# Bulk Modulus (GPa) = 50.00339 57.89356 53.94848
# Shear Modulus (GPa) = 24.99816 27.02514 26.01165
#
# Velocity S-wave (km/s) = 3.63736 3.78196 3.71037
# Velocity P-wave (km/s) = 6.64117 7.05063 6.84896
#
# Compressibility (1/GPa) = 0.01999865
#
# Stress axis : x y z
#
# Youngs Moduli (GPa) = 66.24905 63.54721 58.29148
#
# Poissons Ratio (x) = 0.24517 0.23971
# Poissons Ratio (y) = 0.25559 0.35112
# Poissons Ratio (z) = 0.27243 0.38277
#
# Static dielectric constant tensor:
#      x y z
#    x 1.626460 -0.000010 0.004330 
#    y -0.000010 1.636520 0.000020 
#    z 0.004330 0.000020 1.637870 
# 
# From -- ./inp_files/164240.got.cif
#   From: 2010.05.17/outbox.cif.g08.bks.cpg/sg15_83_cif.got.tgz:164240.got - 2010.06.03 18:47:42.
