data_PCOD9289402
_publ_section_title
;
Structure prediction by ZEFSAII (Michael W. Deem and Ramdas Pophale) SiO2 
 PCOD9289402
Probable space group: C 2/C
;
_chemical_formula_sum "Si O2"
_cell_formula_units_Z 36
_cell_length_a 19.244022
_cell_length_b 16.129582
_cell_length_c 6.553019
_cell_angle_alpha 90.000000
_cell_angle_beta 126.045253
_cell_angle_gamma 90.000000
_cell_volume 1644.631520
_symmetry_space_group_name_H-M "C 2/C"
_symmetry_group_IT_number 15
_symmetry_cell_setting 'monoclinic'
loop_
_space_group_symop_operation_xyz
x,y,z
-x,y,1/2-z
-x,-y,-z
x,-y,1/2+z
1/2+x,1/2+y,z
1/2-x,1/2+y,1/2-z
1/2-x,1/2-y,-z
1/2+x,1/2-y,1/2+z
loop_
_atom_site_type_symbol
_atom_site_label
_atom_site_fract_x
_atom_site_fract_y
_atom_site_fract_z
Si Si1 0.169312 0.025049 0.116026
Si Si2 0.500000 0.582322 0.250000
Si Si3 0.403092 0.874380 0.501217
Si Si4 0.692765 0.007635 0.398584
Si Si5 0.582388 0.311737 0.536206
O O1 0.194744 0.994248 0.913844
O O2 0.282742 0.023316 0.312047
O O3 0.149058 0.122542 0.061874
O O4 0.076003 0.976294 0.967145
O O5 0.451781 0.644344 0.319986
O O6 0.343053 0.903225 0.586287
O O7 0.383940 0.781631 0.392012
O O8 0.380183 0.938802 0.281894
O O9 0.500000 0.880666 0.750000
O O10 0.500000 0.307342 0.250000
#
# Coordination Sequence:
#
# PCOD9289402 Si02
#       5
#     8   4   8   8   8
#     4  11  20  39  66  96 130 170 208 260 333 390
#     4  12  22  42  68  98 140 174 196 268 340 390
#     4  10  23  44  63  90 127 174 220 270 320 381
#     4  10  22  40  64  92 127 171 217 262 323 379
#     4  11  23  40  65 100 131 168 222 259 320 398
#
# _framework density 21.889400999999999
#
# number of rings (size 3 to 8) (size 9 to 14) (size 15 to 20)
#    0.000    1.333    3.333    2.667    0.000    1.778 
#   18.000    0.000    0.000    0.000    0.000    0.000 
#    0.000    0.000    0.000    0.000    0.000    0.000 
#
# Total GULP energy -100244.998757 kJ/mol
# GULP energy per Si atom -5569.166598 kJ/mol
# Density = 2.183958 g / cm^3
# Si number density = 21.889401 Si / 1000 Ang^3
#
#
#
# Elastic Constant Matrix: (Units=GPa)
#
#
# Indices 1 2 3 4 5 6 
#
# 1 120.0083 40.2958 25.7073 0.0000 -1.8255 0.0000
# 2 40.2958 177.6064 59.0089 0.0000 14.8808 0.0000
# 3 25.7073 59.0089 160.0864 0.0000 -9.8672 0.0000
# 4 0.0000 0.0000 0.0000 48.0532 0.0000 23.7337
# 5 -1.8255 14.8808 -9.8672 0.0000 37.6555 0.0000
# 6 0.0000 0.0000 0.0000 23.7337 0.0000 65.8831
#
#
#
# Elastic Compliance Matrix: (Units=1/GPa)
#
#
# Indices 1 2 3 4 5 6 
#
# 1 0.009145 -0.001930 -0.000694 0.000000 0.001024 0.000000
# 2 -0.001930 0.007229 -0.002578 0.000000 -0.003626 0.000000
# 3 -0.000694 -0.002578 0.007490 0.000000 0.002948 0.000000
# 4 0.000000 0.000000 0.000000 0.025314 0.000000 -0.009119
# 5 0.001024 -0.003626 0.002948 0.000000 0.028811 0.000000
# 6 0.000000 0.000000 0.000000 -0.009119 0.000000 0.018463
#
#
# Mechanical properties :
#
#
# Convention : Reuss Voigt Hill
#
# Bulk Modulus (GPa) = 74.29693 78.63613 76.46653
# Shear Modulus (GPa) = 44.90595 52.49764 48.70180
#
# Velocity S-wave (km/s) = 4.53425 4.90257 4.72201
# Velocity P-wave (km/s) = 7.83762 8.24919 8.04604
#
# Compressibility (1/GPa) = 0.01345951
#
# Stress axis : x y z
#
# Youngs Moduli (GPa) = 109.34844 138.33800 133.51034
#
# Poissons Ratio (x) = 0.26701 0.09265
# Poissons Ratio (y) = 0.21105 0.34420
# Poissons Ratio (z) = 0.07589 0.35665
#
# Static dielectric constant tensor:
#      x y z
#    x 1.936860 0.000000 -0.070860 
#    y 0.000000 1.714390 0.000000 
#    z -0.070860 0.000000 1.867200 
# 
# From -- ./inp_files/37470.got.cif
#   From: 2010.05.17/outbox.cif.g08.bks.cpg/sg15_19_cif.got.tgz:37470.got - 2010.06.03 18:47:42.
