data_PCOD9289471
_publ_section_title
;
Structure prediction by ZEFSAII (Michael W. Deem and Ramdas Pophale) SiO2 
 PCOD9289471
Probable space group: C 2/C
;
_chemical_formula_sum "Si O2"
_cell_formula_units_Z 56
_cell_length_a 25.573774
_cell_length_b 4.972677
_cell_length_c 19.656857
_cell_angle_alpha 90.000000
_cell_angle_beta 70.724337
_cell_angle_gamma 90.000000
_cell_volume 2359.631144
_symmetry_space_group_name_H-M "C 2/C"
_symmetry_group_IT_number 15
_symmetry_cell_setting 'monoclinic'
loop_
_space_group_symop_operation_xyz
x,y,z
-x,y,1/2-z
-x,-y,-z
x,-y,1/2+z
1/2+x,1/2+y,z
1/2-x,1/2+y,1/2-z
1/2-x,1/2-y,-z
1/2+x,1/2-y,1/2+z
loop_
_atom_site_type_symbol
_atom_site_label
_atom_site_fract_x
_atom_site_fract_y
_atom_site_fract_z
Si Si1 0.713126 0.622490 0.845985
Si Si2 0.592144 0.886966 0.053654
Si Si3 0.108929 0.092133 0.637573
Si Si4 0.029231 0.466865 0.878712
Si Si5 0.284340 0.629643 0.817351
Si Si6 0.500000 0.500000 0.000000
Si Si7 0.000000 0.789746 0.250000
Si Si8 0.886273 0.742620 0.573184
O O1 0.705314 0.613994 0.767720
O O2 0.734121 0.921433 0.854216
O O3 0.660932 0.459637 0.897108
O O4 0.764556 0.429577 0.841824
O O5 0.600062 0.116133 0.107613
O O6 0.524275 0.851571 0.071884
O O7 0.616440 0.620214 0.074671
O O8 0.623199 0.993666 0.973846
O O9 0.160405 0.073355 0.665278
O O10 0.051330 0.036001 0.701139
O O11 0.021232 0.388653 0.804172
O O12 0.086618 0.618207 0.869815
O O13 0.025585 0.201981 0.926271
O O14 0.439312 0.626961 0.014901
#
# Coordination Sequence:
#
# PCOD9289471 Si02
#       8
#     8   8   8   8   8   4   4   8
#     4  10  24  42  70  97 128 177 238 278 343 412
#     4  10  24  41  64  96 136 178 218 276 341 414
#     4  11  24  44  66  95 142 176 219 288 347 400
#     4  10  24  40  63 100 143 179 221 283 340 416
#     4  10  23  45  65  96 134 175 224 296 341 398
#     4  10  22  40  64  98 138 178 220 276 344 400
#     4  10  26  40  68 106 138 178 240 268 364 422
#     4  11  25  40  71  97 135 183 231 279 339 419
#
# _framework density 23.732520999999998
#
# number of rings (size 3 to 8) (size 9 to 14) (size 15 to 20)
#    0.000    1.714    0.000    2.571   16.000    6.857 
#    0.000    4.286    0.000    0.000    0.000    0.000 
#    0.000    0.000    0.000    0.000    0.000    0.000 
#
# Total GULP energy -156344.241288 kJ/mol
# GULP energy per Si atom -5583.722903 kJ/mol
# Density = 2.367850 g / cm^3
# Si number density = 23.732521 Si / 1000 Ang^3
#
#
#
# Elastic Constant Matrix: (Units=GPa)
#
#
# Indices 1 2 3 4 5 6 
#
# 1 111.4399 4.9673 28.7928 0.0001 18.3026 0.0000
# 2 4.9673 81.9616 6.0669 -0.0004 12.1420 -0.0003
# 3 28.7928 6.0669 69.3760 0.0000 6.4112 0.0000
# 4 0.0001 -0.0004 0.0000 23.7075 -0.0001 -0.7090
# 5 18.3026 12.1420 6.4112 -0.0001 41.0276 0.0000
# 6 0.0000 -0.0003 0.0000 -0.7090 0.0000 26.0894
#
#
#
# Elastic Compliance Matrix: (Units=1/GPa)
#
#
# Indices 1 2 3 4 5 6 
#
# 1 0.010708 0.000278 -0.004078 0.000000 -0.004222 0.000000
# 2 0.000278 0.012809 -0.000887 0.000000 -0.003776 0.000000
# 3 -0.004078 -0.000887 0.016226 0.000000 -0.000454 0.000000
# 4 0.000000 0.000000 0.000000 0.042215 0.000000 0.001147
# 5 -0.004222 -0.003776 -0.000454 0.000000 0.027446 0.000000
# 6 0.000000 0.000000 0.000000 0.001147 0.000000 0.038361
#
#
# Mechanical properties :
#
#
# Convention : Reuss Voigt Hill
#
# Bulk Modulus (GPa) = 32.92699 38.04795 35.48747
# Shear Modulus (GPa) = 29.89322 33.02827 31.46075
#
# Velocity S-wave (km/s) = 3.55292 3.73458 3.64488
# Velocity P-wave (km/s) = 5.54394 5.88752 5.71831
#
# Compressibility (1/GPa) = 0.03037022
#
# Stress axis : x y z
#
# Youngs Moduli (GPa) = 93.38659 78.06983 61.62837
#
# Poissons Ratio (x) = -0.02173 0.25134
# Poissons Ratio (y) = -0.02600 0.05465
# Poissons Ratio (z) = 0.38086 0.06922
#
# Static dielectric constant tensor:
#      x y z
#    x 1.866310 0.000000 -0.022320 
#    y 0.000000 1.824900 0.000000 
#    z -0.022320 0.000000 1.916480 
# 
# From -- ./inp_files/254350.got.cif
#   From: 2010.05.17/outbox.cif.g08.bks.cpg/sg15_128_cif.got.tgz:254350.got - 2010.06.03 18:47:42.
