data_PCOD9289706
_publ_section_title
;
Structure prediction by ZEFSAII (Michael W. Deem and Ramdas Pophale) SiO2 
 PCOD9289706
Probable space group: C 2/C
;
_chemical_formula_sum "Si O2"
_cell_formula_units_Z 40
_cell_length_a 21.231510
_cell_length_b 12.067399
_cell_length_c 15.945922
_cell_angle_alpha 90.000000
_cell_angle_beta 151.755894
_cell_angle_gamma 90.000000
_cell_volume 1933.372715
_symmetry_space_group_name_H-M "C 2/C"
_symmetry_group_IT_number 15
_symmetry_cell_setting 'monoclinic'
loop_
_space_group_symop_operation_xyz
x,y,z
-x,y,1/2-z
-x,-y,-z
x,-y,1/2+z
1/2+x,1/2+y,z
1/2-x,1/2+y,1/2-z
1/2-x,1/2-y,-z
1/2+x,1/2-y,1/2+z
loop_
_atom_site_type_symbol
_atom_site_label
_atom_site_fract_x
_atom_site_fract_y
_atom_site_fract_z
Si Si1 0.389232 0.285769 0.240938
Si Si2 0.111050 0.066003 0.514430
Si Si3 0.685292 0.479776 0.777204
Si Si4 0.348435 0.217497 0.539458
Si Si5 0.342529 0.341607 0.997009
O O1 0.319400 0.400147 0.185348
O O2 0.371898 0.283323 0.120348
O O3 0.547952 0.295844 0.440093
O O4 0.310802 0.189431 0.196588
O O5 0.157654 0.183543 0.535809
O O6 0.958162 0.072846 0.365989
O O7 0.188171 0.010169 0.682560
O O8 0.127905 0.972170 0.462728
O O9 0.798052 0.397382 0.940766
O O10 0.500000 0.211305 0.750000
O O11 0.250000 0.250000 0.500000
#
# Coordination Sequence:
#
# PCOD9289706 Si02
#       5
#     8   8   8   8   8
#     4   9  18  35  57  83 118 155 204 253 313 378
#     4  10  22  40  67  90 131 173 214 271 336 391
#     4  10  22  41  64  94 129 171 218 270 333 390
#     4  12  24  44  70  98 132 180 230 270 331 408
#     4   9  18  34  58  84 114 160 202 251 313 380
#
# _framework density 20.689233000000002
#
# number of rings (size 3 to 8) (size 9 to 14) (size 15 to 20)
#    0.000    2.000    2.000    1.200    5.600    0.000 
#   10.800    1.000    0.000    0.000    0.000    0.000 
#    0.000    0.000    0.000    0.000    0.000    0.000 
#
# Total GULP energy -111519.659037 kJ/mol
# GULP energy per Si atom -5575.982952 kJ/mol
# Density = 2.064214 g / cm^3
# Si number density = 20.689233 Si / 1000 Ang^3
#
#
#
# Elastic Constant Matrix: (Units=GPa)
#
#
# Indices 1 2 3 4 5 6 
#
# 1 76.9610 50.7024 40.2781 0.0000 8.2950 0.0000
# 2 50.7024 77.1023 34.6845 0.0000 12.0904 0.0000
# 3 40.2781 34.6845 81.3404 0.0000 9.5753 0.0000
# 4 0.0000 0.0000 0.0000 26.3777 0.0000 20.5102
# 5 8.2950 12.0904 9.5753 0.0000 24.0058 0.0000
# 6 0.0000 0.0000 0.0000 20.5102 0.0000 10.0187
#
#
#
# Elastic Compliance Matrix: (Units=1/GPa)
#
#
# Indices 1 2 3 4 5 6 
#
# 1 0.025674 -0.013928 -0.006879 0.000000 0.000887 0.000000
# 2 -0.013928 0.024360 -0.002741 0.000000 -0.006362 0.000000
# 3 -0.006879 -0.002741 0.017236 0.000000 -0.003117 0.000000
# 4 0.000000 0.000000 0.000000 -0.064059 0.000000 0.131141
# 5 0.000887 -0.006362 -0.003117 0.000000 0.045798 0.000000
# 6 0.000000 0.000000 0.000000 0.131141 0.000000 -0.168657
#
#
# Mechanical properties :
#
#
# Convention : Reuss Voigt Hill
#
# Bulk Modulus (GPa) = 49.56920 54.08152 51.82536
# Shear Modulus (GPa) = -75.95460 19.39635 -28.27912
#
# Velocity S-wave (km/s) = -6.06563 3.06520 -3.70111
# Velocity P-wave (km/s) = 5.00448 6.22286 2.61525
#
# Compressibility (1/GPa) = 0.02017382
#
# Stress axis : x y z
#
# Youngs Moduli (GPa) = 38.95052 41.05160 58.01775
#
# Poissons Ratio (x) = 0.57175 0.39908
# Poissons Ratio (y) = 0.54249 0.15906
# Poissons Ratio (z) = 0.26792 0.11254
#
# Static dielectric constant tensor:
#      x y z
#    x 1.894740 0.000000 -0.136930 
#    y 0.000000 1.734720 0.000000 
#    z -0.136930 0.000000 2.005480 
# 
# From -- ./inp_files/54226.got.cif
#   From: 2010.05.17/outbox.cif.g08.bks.cpg/sg15_28_cif.got.tgz:54226.got - 2010.06.03 18:47:42.
