data_PCOD9289208
_publ_section_title
;
Structure prediction by ZEFSAII (Michael W. Deem and Ramdas Pophale) SiO2 
 PCOD9289208
Probable space group: C 2/C
;
_chemical_formula_sum "Si O2"
_cell_formula_units_Z 48
_cell_length_a 8.795486
_cell_length_b 26.118522
_cell_length_c 13.236754
_cell_angle_alpha 90.000000
_cell_angle_beta 135.299670
_cell_angle_gamma 90.000000
_cell_volume 2138.905306
_symmetry_space_group_name_H-M "C 2/C"
_symmetry_group_IT_number 15
_symmetry_cell_setting 'monoclinic'
loop_
_space_group_symop_operation_xyz
x,y,z
-x,y,1/2-z
-x,-y,-z
x,-y,1/2+z
1/2+x,1/2+y,z
1/2-x,1/2+y,1/2-z
1/2-x,1/2-y,-z
1/2+x,1/2-y,1/2+z
loop_
_atom_site_type_symbol
_atom_site_label
_atom_site_fract_x
_atom_site_fract_y
_atom_site_fract_z
Si Si1 0.423702 0.726441 0.321777
Si Si2 0.488412 0.739516 0.568651
Si Si3 0.513942 0.607212 0.139292
Si Si4 0.575583 0.956874 0.677514
Si Si5 0.758530 0.365889 0.170156
Si Si6 0.247148 0.558013 0.649629
O O1 0.500000 0.746370 0.250000
O O2 0.503112 0.755775 0.457825
O O3 0.499118 0.668325 0.361033
O O4 0.165803 0.727415 0.209550
O O5 0.250000 0.750000 0.500000
O O6 0.591388 0.681469 0.616195
O O7 0.500000 0.588533 0.250000
O O8 0.744697 0.585902 0.215736
O O9 0.342533 0.598201 0.967690
O O10 0.500000 0.976255 0.750000
O O11 0.387032 0.935125 0.516851
O O12 0.676976 0.004322 0.665405
O O13 0.791158 0.397485 0.287848
O O14 0.000000 0.350647 0.250000
O O15 0.500000 0.556255 0.750000
#
# Coordination Sequence:
#
# PCOD9289208 Si02
#       6
#     8   8   8   8   8   8
#     4  10  22  40  62  89 123 168 216 265 327 397
#     4  11  24  41  63  94 130 168 215 275 334 397
#     4  10  22  40  64  92 125 168 217 271 328 393
#     4  11  24  42  65  94 133 176 219 273 332 396
#     4  11  24  43  67  97 131 172 223 276 337 405
#     4  11  25  42  65  98 133 174 223 274 332 396
#
# _framework density 22.441386999999999
#
# number of rings (size 3 to 8) (size 9 to 14) (size 15 to 20)
#    0.000    1.333    0.000    4.500    0.000   14.667 
#    0.000    0.000    0.000    0.000    0.000    0.000 
#    0.000    0.000    0.000    0.000    0.000    0.000 
#
# Total GULP energy -133965.454015 kJ/mol
# GULP energy per Si atom -5581.893917 kJ/mol
# Density = 2.239031 g / cm^3
# Si number density = 22.441387 Si / 1000 Ang^3
#
#
#
# Elastic Constant Matrix: (Units=GPa)
#
#
# Indices 1 2 3 4 5 6 
#
# 1 104.3179 33.7085 47.3563 0.0000 8.6511 0.0000
# 2 33.7085 38.6804 28.6644 0.0000 -6.4643 0.0000
# 3 47.3563 28.6644 138.3052 0.0000 3.6316 0.0000
# 4 0.0000 0.0000 0.0000 1.8857 0.0000 4.2100
# 5 8.6511 -6.4643 3.6316 0.0000 45.3938 0.0000
# 6 0.0000 0.0000 0.0000 4.2100 0.0000 12.7190
#
#
#
# Elastic Compliance Matrix: (Units=1/GPa)
#
#
# Indices 1 2 3 4 5 6 
#
# 1 0.014928 -0.011849 -0.002542 0.000000 -0.004329 0.000000
# 2 -0.011849 0.041060 -0.004676 0.000000 0.008479 0.000000
# 3 -0.002542 -0.004676 0.009094 0.000000 -0.000909 0.000000
# 4 0.000000 0.000000 0.000000 2.031560 0.000000 -0.672448
# 5 -0.004329 0.008479 -0.000909 0.000000 0.024135 0.000000
# 6 0.000000 0.000000 0.000000 -0.672448 0.000000 0.301204
#
#
# Mechanical properties :
#
#
# Convention : Reuss Voigt Hill
#
# Bulk Modulus (GPa) = 37.10649 55.64021 46.37335
# Shear Modulus (GPa) = 2.02503 23.43799 12.73151
#
# Velocity S-wave (km/s) = 0.95096 3.23524 2.38444
# Velocity P-wave (km/s) = 4.21622 6.22921 5.31882
#
# Compressibility (1/GPa) = 0.02694946
#
# Stress axis : x y z
#
# Youngs Moduli (GPa) = 66.98961 24.35434 109.96665
#
# Poissons Ratio (x) = 0.28857 0.27953
# Poissons Ratio (y) = 0.79373 0.51416
# Poissons Ratio (z) = 0.17028 0.11387
#
# Static dielectric constant tensor:
#      x y z
#    x 1.879730 0.000000 0.030190 
#    y 0.000000 1.818950 0.000000 
#    z 0.030190 0.000000 1.884930 
# 
# From -- ./inp_files/139014.got.cif
#   From: 2010.05.17/outbox.cif.g08.bks.cpg/sg15_70_cif.got.tgz:139014.got - 2010.06.03 18:47:42.
