data_PCOD9289945
_publ_section_title
;
Structure prediction by ZEFSAII (Michael W. Deem and Ramdas Pophale) SiO2 
 PCOD9289945
Probable space group: C 2/C
;
_chemical_formula_sum "Si O2"
_cell_formula_units_Z 44
_cell_length_a 14.796397
_cell_length_b 17.234970
_cell_length_c 9.795237
_cell_angle_alpha 90.000000
_cell_angle_beta 127.243252
_cell_angle_gamma 90.000000
_cell_volume 1988.540798
_symmetry_space_group_name_H-M "C 2/C"
_symmetry_group_IT_number 15
_symmetry_cell_setting 'monoclinic'
loop_
_space_group_symop_operation_xyz
x,y,z
-x,y,1/2-z
-x,-y,-z
x,-y,1/2+z
1/2+x,1/2+y,z
1/2-x,1/2+y,1/2-z
1/2-x,1/2-y,-z
1/2+x,1/2-y,1/2+z
loop_
_atom_site_type_symbol
_atom_site_label
_atom_site_fract_x
_atom_site_fract_y
_atom_site_fract_z
Si Si1 0.592900 0.687913 0.608579
Si Si2 0.500000 0.252205 0.750000
Si Si3 0.746194 0.030789 0.337525
Si Si4 0.457522 0.857755 0.858637
Si Si5 0.104304 0.967030 0.268989
Si Si6 0.840124 0.639842 0.738791
O O1 0.521547 0.698298 0.404480
O O2 0.576761 0.767452 0.675453
O O3 0.557848 0.611116 0.656732
O O4 0.725073 0.676470 0.692235
O O5 0.392218 0.195155 0.670799
O O6 0.650117 0.090088 0.202414
O O7 0.808126 0.057152 0.532265
O O8 0.833016 0.014380 0.292693
O O9 0.691265 0.947801 0.327464
O O10 0.500000 0.883802 0.750000
O O11 0.560626 0.865189 0.058272
O O12 0.000000 0.008617 0.250000
#
# Coordination Sequence:
#
# PCOD9289945 Si02
#       6
#     8   4   8   8   8   8
#     4  10  23  43  66 100 135 179 234 285 340 406
#     4  10  22  40  70  96 134 186 228 292 332 408
#     4  11  25  42  71 101 143 182 226 285 337 418
#     4  11  23  40  71 103 138 183 221 287 346 401
#     4  11  25  48  67  99 140 183 231 280 342 410
#     4  10  23  41  64  99 138 178 234 275 343 406
#
# _framework density 22.126777000000001
#
# number of rings (size 3 to 8) (size 9 to 14) (size 15 to 20)
#    0.000    1.455    0.000    4.364    6.364    5.818 
#   13.091    0.000    0.000    0.000    0.000    0.000 
#    0.000    0.000    0.000    0.000    0.000    0.000 
#
# Total GULP energy -123121.318869 kJ/mol
# GULP energy per Si atom -5596.423585 kJ/mol
# Density = 2.207642 g / cm^3
# Si number density = 22.126777 Si / 1000 Ang^3
#
#
#
# Elastic Constant Matrix: (Units=GPa)
#
#
# Indices 1 2 3 4 5 6 
#
# 1 83.7693 50.7361 20.3466 0.0000 -13.6873 0.0000
# 2 50.7361 95.2372 33.5954 0.0000 -2.0998 0.0000
# 3 20.3466 33.5954 86.3937 0.0000 -3.1344 0.0000
# 4 0.0000 0.0000 0.0000 75.0344 0.0000 15.3456
# 5 -13.6873 -2.0998 -3.1344 0.0000 32.1125 0.0000
# 6 0.0000 0.0000 0.0000 15.3456 0.0000 45.1508
#
#
#
# Elastic Compliance Matrix: (Units=1/GPa)
#
#
# Indices 1 2 3 4 5 6 
#
# 1 0.019311 -0.009983 -0.000392 0.000000 0.007540 0.000000
# 2 -0.009983 0.017334 -0.004519 0.000000 -0.003563 0.000000
# 3 -0.000392 -0.004519 0.013455 0.000000 0.000851 0.000000
# 4 0.000000 0.000000 0.000000 0.014323 0.000000 -0.004868
# 5 0.007540 -0.003563 0.000851 0.000000 0.034204 0.000000
# 6 0.000000 0.000000 0.000000 -0.004868 0.000000 0.023802
#
#
# Mechanical properties :
#
#
# Convention : Reuss Voigt Hill
#
# Bulk Modulus (GPa) = 49.23155 52.75072 50.99114
# Shear Modulus (GPa) = 31.44872 41.17435 36.31154
#
# Velocity S-wave (km/s) = 3.77410 4.31842 4.05540
# Velocity P-wave (km/s) = 6.42572 6.98262 6.70995
#
# Compressibility (1/GPa) = 0.02031218
#
# Stress axis : x y z
#
# Youngs Moduli (GPa) = 51.78335 57.69058 74.31997
#
# Poissons Ratio (x) = 0.57593 0.02916
# Poissons Ratio (y) = 0.51696 0.33583
# Poissons Ratio (z) = 0.02032 0.26068
#
# Static dielectric constant tensor:
#      x y z
#    x 1.823580 0.000000 -0.000300 
#    y 0.000000 1.794640 0.000000 
#    z -0.000300 0.000000 1.781050 
# 
# From -- ./inp_files/39728.got.cif
#   From: 2010.05.17/outbox.cif.g08.bks.cpg/sg15_20_cif.got.tgz:39728.got - 2010.06.03 18:47:42.
