data_PCOD9289293
_publ_section_title
;
Structure prediction by ZEFSAII (Michael W. Deem and Ramdas Pophale) SiO2 
 PCOD9289293
Probable space group: C 2/C
;
_chemical_formula_sum "Si O2"
_cell_formula_units_Z 48
_cell_length_a 14.891838
_cell_length_b 16.920882
_cell_length_c 18.136927
_cell_angle_alpha 90.000000
_cell_angle_beta 152.721488
_cell_angle_gamma 90.000000
_cell_volume 2094.595995
_symmetry_space_group_name_H-M "C 2/C"
_symmetry_group_IT_number 15
_symmetry_cell_setting 'monoclinic'
loop_
_space_group_symop_operation_xyz
x,y,z
-x,y,1/2-z
-x,-y,-z
x,-y,1/2+z
1/2+x,1/2+y,z
1/2-x,1/2+y,1/2-z
1/2-x,1/2-y,-z
1/2+x,1/2-y,1/2+z
loop_
_atom_site_type_symbol
_atom_site_label
_atom_site_fract_x
_atom_site_fract_y
_atom_site_fract_z
Si Si1 0.609384 0.220359 0.755165
Si Si2 0.567401 0.374349 0.079199
Si Si3 0.129020 0.170354 0.917273
Si Si4 0.322277 0.460602 0.792364
Si Si5 0.331416 0.871479 0.949561
Si Si6 0.165156 0.002809 0.433110
O O1 0.500000 0.195246 0.750000
O O2 0.816052 0.178919 0.892538
O O3 0.489537 0.189826 0.596711
O O4 0.649509 0.313605 0.795128
O O5 0.508268 0.330374 0.110719
O O6 0.704665 0.449367 0.201158
O O7 0.369644 0.406344 0.896581
O O8 0.243750 0.085682 0.004230
O O9 0.000000 0.168557 0.750000
O O10 0.250000 0.250000 0.000000
O O11 0.162553 0.425200 0.619849
O O12 0.535150 0.467718 0.906596
O O13 0.301534 0.931731 0.996009
O O14 0.000000 0.993305 0.250000
#
# Coordination Sequence:
#
# PCOD9289293 Si02
#       6
#     8   8   8   8   8   8
#     4  12  24  38  60  93 129 165 210 262 319 383
#     4  10  22  40  63  91 125 165 208 256 313 381
#     4  10  22  42  66  90 119 160 209 260 313 368
#     4   9  18  38  63  87 119 163 210 255 312 376
#     4  11  22  38  62  89 125 169 214 262 315 380
#     4   8  16  36  63  86 118 162 202 246 309 376
#
# _framework density 22.916114
#
# number of rings (size 3 to 8) (size 9 to 14) (size 15 to 20)
#    0.000    2.000    0.000    5.000    0.000    3.333 
#    0.000    7.500    0.000    0.000    0.000    0.000 
#    0.000    0.000    0.000    0.000    0.000    0.000 
#
# Total GULP energy -133840.763736 kJ/mol
# GULP energy per Si atom -5576.698489 kJ/mol
# Density = 2.286396 g / cm^3
# Si number density = 22.916114 Si / 1000 Ang^3
#
#
#
# Elastic Constant Matrix: (Units=GPa)
#
#
# Indices 1 2 3 4 5 6 
#
# 1 93.5766 38.4817 3.4898 0.0049 -11.2639 -0.0025
# 2 38.4817 151.6650 35.1504 0.0180 5.8939 -0.0024
# 3 3.4898 35.1504 53.7188 0.0145 -15.8371 -0.0020
# 4 0.0049 0.0180 0.0145 42.7762 -0.0002 -12.4004
# 5 -11.2639 5.8939 -15.8371 -0.0002 22.9948 -0.0030
# 6 -0.0025 -0.0024 -0.0020 -12.4004 -0.0030 37.8759
#
#
#
# Elastic Compliance Matrix: (Units=1/GPa)
#
#
# Indices 1 2 3 4 5 6 
#
# 1 0.014350 -0.005687 0.006639 -0.000001 0.013059 0.000002
# 2 -0.005687 0.011007 -0.010648 -0.000001 -0.012941 -0.000002
# 3 0.006639 -0.010648 0.033773 -0.000007 0.029242 0.000002
# 4 -0.000001 -0.000001 -0.000007 0.025829 -0.000004 0.008456
# 5 0.013059 -0.012941 0.029242 -0.000004 0.073342 0.000006
# 6 0.000002 -0.000002 0.000002 0.008456 0.000006 0.029171
#
#
# Mechanical properties :
#
#
# Convention : Reuss Voigt Hill
#
# Bulk Modulus (GPa) = 25.16536 50.35602 37.76069
# Shear Modulus (GPa) = 22.71610 35.51861 29.11736
#
# Velocity S-wave (km/s) = 3.15186 3.94120 3.56842
# Velocity P-wave (km/s) = 4.92453 6.53701 5.78721
#
# Compressibility (1/GPa) = 0.03973716
#
# Stress axis : x y z
#
# Youngs Moduli (GPa) = 69.68873 90.84944 29.60983
#
# Poissons Ratio (x) = 0.51667 -0.19659
# Poissons Ratio (y) = 0.39633 0.31529
# Poissons Ratio (z) = -0.46268 0.96738
#
# Static dielectric constant tensor:
#      x y z
#    x 1.907730 -0.000010 0.009000 
#    y -0.000010 1.945230 0.000000 
#    z 0.009000 0.000000 1.903440 
# 
# From -- ./inp_files/206496.got.cif
#   From: 2010.05.17/outbox.cif.g08.bks.cpg/sg15_104_cif.got.tgz:206496.got - 2010.06.03 18:47:42.
