data_PCOD9289530
_publ_section_title
;
Structure prediction by ZEFSAII (Michael W. Deem and Ramdas Pophale) SiO2 
 PCOD9289530
Probable space group: C 2/C
;
_chemical_formula_sum "Si O2"
_cell_formula_units_Z 52
_cell_length_a 8.927421
_cell_length_b 16.640062
_cell_length_c 31.155371
_cell_angle_alpha 90.000000
_cell_angle_beta 143.002329
_cell_angle_gamma 90.000000
_cell_volume 2785.181360
_symmetry_space_group_name_H-M "C 2/C"
_symmetry_group_IT_number 15
_symmetry_cell_setting 'monoclinic'
loop_
_space_group_symop_operation_xyz
x,y,z
-x,y,1/2-z
-x,-y,-z
x,-y,1/2+z
1/2+x,1/2+y,z
1/2-x,1/2+y,1/2-z
1/2-x,1/2-y,-z
1/2+x,1/2-y,1/2+z
loop_
_atom_site_type_symbol
_atom_site_label
_atom_site_fract_x
_atom_site_fract_y
_atom_site_fract_z
Si Si1 0.816314 0.341534 0.010607
Si Si2 0.500000 0.234354 0.250000
Si Si3 0.205646 0.032854 0.332612
Si Si4 0.748276 0.565795 0.670032
Si Si5 0.771645 0.533498 0.574830
Si Si6 0.375187 0.642226 0.644286
Si Si7 0.454340 0.391731 0.852714
O O1 0.807083 0.388920 0.053142
O O2 0.102425 0.344410 0.062801
O O3 0.750000 0.250000 0.000000
O O4 0.623128 0.379115 0.933208
O O5 0.545301 0.290596 0.302505
O O6 0.254884 0.177656 0.199802
O O7 0.000000 0.052506 0.250000
O O8 0.146185 0.094818 0.357320
O O9 0.491474 0.025151 0.381433
O O10 0.138723 0.943047 0.333897
O O11 0.772626 0.557902 0.624723
O O12 0.549872 0.627792 0.643527
O O13 0.684094 0.476583 0.672616
O O14 0.000000 0.591330 0.750000
O O15 0.500000 0.500000 0.500000
#
# Coordination Sequence:
#
# PCOD9289530 Si02
#       7
#     8   4   8   8   8   8   8
#     4  11  23  41  62  91 129 171 205 263 329 382
#     4  12  22  42  66  98 126 172 212 276 332 384
#     4  10  22  40  65  95 125 168 216 266 316 386
#     4  11  23  40  66  96 125 170 219 268 317 383
#     4  11  23  39  66  93 128 163 218 266 315 384
#     4  10  23  39  68  89 128 168 216 253 323 392
#     4  11  23  38  68  93 127 166 219 263 326 383
#
# _framework density 18.670238000000001
#
# number of rings (size 3 to 8) (size 9 to 14) (size 15 to 20)
#    0.000    1.231    4.615    1.846    4.308    1.846 
#    0.000    3.077    0.000    0.000    0.000    0.000 
#    0.000    0.000    0.000    0.000    0.000    0.000 
#
# Total GULP energy -145021.062969 kJ/mol
# GULP energy per Si atom -5577.733191 kJ/mol
# Density = 1.862774 g / cm^3
# Si number density = 18.670238 Si / 1000 Ang^3
#
#
#
# Elastic Constant Matrix: (Units=GPa)
#
#
# Indices 1 2 3 4 5 6 
#
# 1 154.3462 33.6745 59.0968 0.0000 16.4249 0.0000
# 2 33.6745 55.7194 1.7078 0.0000 13.1457 0.0000
# 3 59.0968 1.7078 77.9163 -0.0002 19.2417 -0.0001
# 4 0.0000 0.0000 -0.0002 23.3934 0.0000 2.7595
# 5 16.4249 13.1457 19.2417 0.0000 33.2440 0.0000
# 6 0.0000 0.0000 -0.0001 2.7595 0.0000 24.1800
#
#
#
# Elastic Compliance Matrix: (Units=1/GPa)
#
#
# Indices 1 2 3 4 5 6 
#
# 1 0.011175 -0.007054 -0.008922 0.000000 0.002432 0.000000
# 2 -0.007054 0.024453 0.007399 0.000000 -0.010467 0.000000
# 3 -0.008922 0.007399 0.022254 0.000000 -0.011398 0.000000
# 4 0.000000 0.000000 0.000000 0.043330 0.000000 -0.004945
# 5 0.002432 -0.010467 -0.011398 0.000000 0.039615 0.000000
# 6 0.000000 0.000000 0.000000 -0.004945 0.000000 0.041921
#
#
# Mechanical properties :
#
#
# Convention : Reuss Voigt Hill
#
# Bulk Modulus (GPa) = 24.55300 52.99333 38.77316
# Shear Modulus (GPa) = 23.42146 29.06365 26.24256
#
# Velocity S-wave (km/s) = 3.54571 3.94976 3.75318
# Velocity P-wave (km/s) = 5.47194 7.01757 6.29239
#
# Compressibility (1/GPa) = 0.04072823
#
# Stress axis : x y z
#
# Youngs Moduli (GPa) = 89.48290 40.89477 44.93555
#
# Poissons Ratio (x) = 0.28848 0.40092
# Poissons Ratio (y) = 0.63124 -0.33249
# Poissons Ratio (z) = 0.79838 -0.30259
#
# Static dielectric constant tensor:
#      x y z
#    x 1.673720 0.000000 -0.009750 
#    y 0.000000 1.605190 0.000000 
#    z -0.009750 0.000000 1.587370 
# 
# From -- ./inp_files/190398.got.cif
#   From: 2010.05.17/outbox.cif.g08.bks.cpg/sg15_96_cif.got.tgz:190398.got - 2010.06.03 18:47:42.
