data_PCOD9289212
_publ_section_title
;
Structure prediction by ZEFSAII (Michael W. Deem and Ramdas Pophale) SiO2 
 PCOD9289212
Probable space group: C 2/C
;
_chemical_formula_sum "Si O2"
_cell_formula_units_Z 64
_cell_length_a 13.071533
_cell_length_b 26.691063
_cell_length_c 16.654876
_cell_angle_alpha 90.000000
_cell_angle_beta 34.717100
_cell_angle_gamma 90.000000
_cell_volume 3309.378870
_symmetry_space_group_name_H-M "C 2/C"
_symmetry_group_IT_number 15
_symmetry_cell_setting 'monoclinic'
loop_
_space_group_symop_operation_xyz
x,y,z
-x,y,1/2-z
-x,-y,-z
x,-y,1/2+z
1/2+x,1/2+y,z
1/2-x,1/2+y,1/2-z
1/2-x,1/2-y,-z
1/2+x,1/2-y,1/2+z
loop_
_atom_site_type_symbol
_atom_site_label
_atom_site_fract_x
_atom_site_fract_y
_atom_site_fract_z
Si Si1 0.604215 0.953145 0.262379
Si Si2 0.391728 0.552383 0.241545
Si Si3 0.803281 0.053499 0.875393
Si Si4 0.304641 0.057734 0.374256
Si Si5 0.803415 0.199892 0.568181
Si Si6 0.971506 0.301236 0.401181
Si Si7 0.473174 0.096375 0.996683
Si Si8 0.465879 0.403641 0.004599
O O1 0.500000 0.934160 0.250000
O O2 0.481980 0.944249 0.418254
O O3 0.661400 0.009525 0.204738
O O4 0.782483 0.921402 0.164475
O O5 0.500000 0.570844 0.250000
O O6 0.334481 0.495821 0.300227
O O7 0.512898 0.559354 0.085377
O O8 0.215141 0.585196 0.339683
O O9 0.642797 0.085847 0.943065
O O10 0.000000 0.078749 0.750000
O O11 0.748396 0.040097 0.001982
O O12 0.500000 0.083759 0.250000
O O13 0.139827 0.089153 0.446735
O O14 0.913428 0.250708 0.483702
O O15 0.681704 0.190265 0.567691
O O16 0.660166 0.204415 0.732933
O O17 0.932315 0.152695 0.498181
O O18 0.976975 0.349156 0.454994
#
# Coordination Sequence:
#
# PCOD9289212 Si02
#       8
#     8   8   8   8   8   8   8   8
#     4  11  20  35  58  87 118 154 197 242 286 357
#     4  11  22  35  54  89 125 154 193 240 291 346
#     4  11  23  39  55  84 122 161 201 247 280 330
#     4  11  23  39  57  82 122 164 204 242 282 331
#     4  10  22  40  62  90 118 145 187 240 301 360
#     4  10  22  40  62  90 117 148 184 241 304 358
#     4  12  22  37  61  85 118 160 200 237 293 351
#     4  12  22  37  61  87 116 162 200 236 291 357
#
# _framework density 19.338975999999999
#
# number of rings (size 3 to 8) (size 9 to 14) (size 15 to 20)
#    0.000    1.000    1.250    8.250    1.750    0.000 
#    0.000    0.000    0.000    1.500    0.000    0.000 
#    0.000    0.000    0.000    0.000    0.000    0.000 
#
# Total GULP energy -178992.661703 kJ/mol
# GULP energy per Si atom -5593.520678 kJ/mol
# Density = 1.929496 g / cm^3
# Si number density = 19.338976 Si / 1000 Ang^3
#
#
#
# Elastic Constant Matrix: (Units=GPa)
#
#
# Indices 1 2 3 4 5 6 
#
# 1 88.9676 46.5347 16.0385 -0.0011 -26.3358 0.0011
# 2 46.5347 110.8907 28.0295 -0.0012 -8.4862 0.0005
# 3 16.0385 28.0295 62.6185 -0.0038 -8.6478 0.0017
# 4 -0.0011 -0.0012 -0.0038 19.2192 0.0017 -0.5894
# 5 -26.3358 -8.4862 -8.6478 0.0017 40.2832 -0.0015
# 6 0.0011 0.0005 0.0017 -0.5894 -0.0015 20.5023
#
#
#
# Elastic Compliance Matrix: (Units=1/GPa)
#
#
# Indices 1 2 3 4 5 6 
#
# 1 0.017747 -0.006625 -0.000176 0.000000 0.010169 0.000000
# 2 -0.006625 0.012698 -0.004345 0.000000 -0.002589 0.000000
# 3 -0.000176 -0.004345 0.018362 0.000003 0.002912 -0.000001
# 4 0.000000 0.000000 0.000003 0.052077 -0.000002 0.001497
# 5 0.010169 -0.002589 0.002912 -0.000002 0.031552 0.000002
# 6 0.000000 0.000000 -0.000001 0.001497 0.000002 0.048818
#
#
# Mechanical properties :
#
#
# Convention : Reuss Voigt Hill
#
# Bulk Modulus (GPa) = 37.71269 49.29802 43.50535
# Shear Modulus (GPa) = 23.54234 27.45921 25.50077
#
# Velocity S-wave (km/s) = 3.49284 3.77223 3.63522
# Velocity P-wave (km/s) = 5.98413 6.67232 6.33757
#
# Compressibility (1/GPa) = 0.02651628
#
# Stress axis : x y z
#
# Youngs Moduli (GPa) = 56.34729 78.75233 54.46151
#
# Poissons Ratio (x) = 0.52172 0.00957
# Poissons Ratio (y) = 0.37329 0.23662
# Poissons Ratio (z) = 0.00990 0.34215
#
# Static dielectric constant tensor:
#      x y z
#    x 1.701610 0.000000 0.000360 
#    y 0.000000 1.641920 0.000000 
#    z 0.000360 0.000000 1.675700 
# 
# From -- ./inp_files/148749.got.cif
#   From: 2010.05.17/outbox.cif.g08.bks.cpg/sg15_75_cif.got.tgz:148749.got - 2010.06.03 18:47:42.
