data_PCOD9289248
_publ_section_title
;
Structure prediction by ZEFSAII (Michael W. Deem and Ramdas Pophale) SiO2 
 PCOD9289248
Probable space group: C 2/C
;
_chemical_formula_sum "Si O2"
_cell_formula_units_Z 52
_cell_length_a 10.863361
_cell_length_b 8.489067
_cell_length_c 26.152015
_cell_angle_alpha 90.000000
_cell_angle_beta 101.337346
_cell_angle_gamma 90.000000
_cell_volume 2364.672769
_symmetry_space_group_name_H-M "C 2/C"
_symmetry_group_IT_number 15
_symmetry_cell_setting 'monoclinic'
loop_
_space_group_symop_operation_xyz
x,y,z
-x,y,1/2-z
-x,-y,-z
x,-y,1/2+z
1/2+x,1/2+y,z
1/2-x,1/2+y,1/2-z
1/2-x,1/2-y,-z
1/2+x,1/2-y,1/2+z
loop_
_atom_site_type_symbol
_atom_site_label
_atom_site_fract_x
_atom_site_fract_y
_atom_site_fract_z
Si Si1 0.402890 0.428747 0.032588
Si Si2 0.500000 0.417257 0.750000
Si Si3 0.408760 0.603371 0.647930
Si Si4 0.730552 0.179650 0.786711
Si Si5 0.172813 0.507855 0.182310
Si Si6 0.392857 0.979025 0.638273
Si Si7 0.373662 0.945665 0.517857
O O1 0.451843 0.441784 0.094619
O O2 0.386038 0.243579 0.019783
O O3 0.500000 0.500000 0.000000
O O4 0.260348 0.494701 0.017007
O O5 0.494591 0.526452 0.699057
O O6 0.615544 0.298951 0.766432
O O7 0.269378 0.529166 0.645062
O O8 0.390767 0.791821 0.649770
O O9 0.837109 0.305757 0.807889
O O10 0.734645 0.076883 0.736195
O O11 0.701489 0.069160 0.832225
O O12 0.031728 0.453603 0.161485
O O13 0.369534 0.000294 0.576471
O O14 0.500000 0.000000 0.500000
#
# Coordination Sequence:
#
# PCOD9289248 Si02
#       7
#     8   4   8   8   8   8   8
#     4  10  23  46  67  98 133 173 222 279 333 397
#     4  10  22  40  62  94 126 172 218 260 332 390
#     4  10  24  41  63  95 129 170 217 267 328 397
#     4  11  23  39  61  93 129 170 219 261 330 395
#     4  11  23  39  60  91 128 172 213 266 325 395
#     4  11  23  41  64  93 133 168 214 276 327 398
#     4  10  23  43  69  99 129 173 223 276 339 394
#
# _framework density 21.990358000000001
#
# number of rings (size 3 to 8) (size 9 to 14) (size 15 to 20)
#    0.000    1.538    1.538    1.846    6.462    5.538 
#    8.308    0.000    0.000    0.000    0.000    0.000 
#    0.000    0.000    0.000    0.000    0.000    0.000 
#
# Total GULP energy -145325.151219 kJ/mol
# GULP energy per Si atom -5589.428893 kJ/mol
# Density = 2.194031 g / cm^3
# Si number density = 21.990358 Si / 1000 Ang^3
#
#
#
# Elastic Constant Matrix: (Units=GPa)
#
#
# Indices 1 2 3 4 5 6 
#
# 1 71.4554 13.9547 36.4919 0.0000 -2.6604 0.0000
# 2 13.9547 65.8846 55.2874 0.0000 -12.3611 0.0000
# 3 36.4919 55.2874 148.2649 0.0000 -15.3021 0.0000
# 4 0.0000 0.0000 0.0000 27.4985 0.0000 -10.0785
# 5 -2.6604 -12.3611 -15.3021 0.0000 37.6350 0.0000
# 6 0.0000 0.0000 0.0000 -10.0785 0.0000 38.8236
#
#
#
# Elastic Compliance Matrix: (Units=1/GPa)
#
#
# Indices 1 2 3 4 5 6 
#
# 1 0.016017 -0.000200 -0.003922 0.000000 -0.000528 0.000000
# 2 -0.000200 0.022709 -0.007986 0.000000 0.004198 0.000000
# 3 -0.003922 -0.007986 0.010844 0.000000 0.001509 0.000000
# 4 0.000000 0.000000 0.000000 0.040189 0.000000 0.010433
# 5 -0.000528 0.004198 0.001509 0.000000 0.028526 0.000000
# 6 0.000000 0.000000 0.000000 0.010433 0.000000 0.028466
#
#
# Mechanical properties :
#
#
# Convention : Reuss Voigt Hill
#
# Bulk Modulus (GPa) = 39.44185 55.23032 47.33608
# Shear Modulus (GPa) = 27.86779 32.78280 30.32529
#
# Velocity S-wave (km/s) = 3.56374 3.86525 3.71755
# Velocity P-wave (km/s) = 5.90835 6.71494 6.32452
#
# Compressibility (1/GPa) = 0.02535378
#
# Stress axis : x y z
#
# Youngs Moduli (GPa) = 62.43302 44.03491 92.22100
#
# Poissons Ratio (x) = 0.00883 0.36169
# Poissons Ratio (y) = 0.01251 0.73644
# Poissons Ratio (z) = 0.24486 0.35165
#
# Static dielectric constant tensor:
#      x y z
#    x 1.858640 0.000000 0.030730 
#    y 0.000000 1.797830 0.000000 
#    z 0.030730 0.000000 1.793930 
# 
# From -- ./inp_files/291226.got.cif
#   From: 2010.05.17/outbox.cif.g08.bks.cpg/sg15_146_cif.got.tgz:291226.got - 2010.06.03 18:47:42.
