data_PCOD9289384
_publ_section_title
;
Structure prediction by ZEFSAII (Michael W. Deem and Ramdas Pophale) SiO2 
 PCOD9289384
Probable space group: C 2/C
;
_chemical_formula_sum "Si O2"
_cell_formula_units_Z 56
_cell_length_a 16.109666
_cell_length_b 13.284461
_cell_length_c 24.569706
_cell_angle_alpha 90.000000
_cell_angle_beta 29.936995
_cell_angle_gamma 90.000000
_cell_volume 2624.050641
_symmetry_space_group_name_H-M "C 2/C"
_symmetry_group_IT_number 15
_symmetry_cell_setting 'monoclinic'
loop_
_space_group_symop_operation_xyz
x,y,z
-x,y,1/2-z
-x,-y,-z
x,-y,1/2+z
1/2+x,1/2+y,z
1/2-x,1/2+y,1/2-z
1/2-x,1/2-y,-z
1/2+x,1/2-y,1/2+z
loop_
_atom_site_type_symbol
_atom_site_label
_atom_site_fract_x
_atom_site_fract_y
_atom_site_fract_z
Si Si1 0.672688 0.610893 0.991682
Si Si2 0.089539 0.336687 0.066983
Si Si3 0.396906 0.100446 0.569516
Si Si4 0.711895 0.600654 0.306088
Si Si5 0.396511 0.723217 0.754222
Si Si6 0.303058 0.107886 0.800840
Si Si7 0.062762 0.733189 0.387419
O O1 0.769913 0.585028 0.992219
O O2 0.778175 0.585509 0.878426
O O3 0.664413 0.731988 0.003308
O O4 0.482799 0.579337 0.090632
O O5 0.974125 0.366543 0.082862
O O6 0.964387 0.330288 0.189650
O O7 0.199720 0.116246 0.689413
O O8 0.435822 0.175218 0.497359
O O9 0.500000 0.000000 0.500000
O O10 0.759313 0.686665 0.323684
O O11 0.803312 0.498471 0.269923
O O12 0.789506 0.652224 0.208591
O O13 0.500000 0.738255 0.750000
O O14 0.493213 0.733973 0.641509
O O15 0.144438 0.172907 0.871703
#
# Coordination Sequence:
#
# PCOD9289384 Si02
#       7
#     8   8   8   8   8   8   8
#     4  11  22  39  64  93 123 164 207 260 317 371
#     4  11  22  40  61  92 130 158 208 262 312 381
#     4  12  23  45  66  91 132 177 210 258 328 382
#     4  10  22  42  64  93 124 167 208 263 320 373
#     4  10  23  44  65  93 130 163 219 267 308 383
#     4  12  20  40  66  91 127 170 207 260 324 377
#     4  10  22  40  64  90 127 168 206 266 322 365
#
# _framework density 21.341051
#
# number of rings (size 3 to 8) (size 9 to 14) (size 15 to 20)
#    0.857    0.286    5.714    1.714    0.000    1.714 
#    2.571    0.714    0.000    0.000    0.000    0.000 
#    0.000    0.000    0.000    0.000    0.000    0.000 
#
# Total GULP energy -155936.957236 kJ/mol
# GULP energy per Si atom -5569.177044 kJ/mol
# Density = 2.129248 g / cm^3
# Si number density = 21.341051 Si / 1000 Ang^3
#
#
#
# Elastic Constant Matrix: (Units=GPa)
#
#
# Indices 1 2 3 4 5 6 
#
# 1 116.4726 -9.4443 17.2280 0.0009 -3.6752 -0.0001
# 2 -9.4443 57.1484 -2.4336 0.0007 6.3461 0.0002
# 3 17.2280 -2.4336 59.0564 0.0007 10.3967 0.0007
# 4 0.0009 0.0007 0.0007 20.3212 0.0008 -1.7789
# 5 -3.6752 6.3461 10.3967 0.0008 29.3351 0.0000
# 6 -0.0001 0.0002 0.0007 -1.7789 0.0000 3.2180
#
#
#
# Elastic Compliance Matrix: (Units=1/GPa)
#
#
# Indices 1 2 3 4 5 6 
#
# 1 0.009182 0.001174 -0.002974 0.000000 0.001950 0.000001
# 2 0.001174 0.018207 0.001147 -0.000001 -0.004198 -0.000002
# 3 -0.002974 0.001147 0.019152 -0.000001 -0.007408 -0.000005
# 4 0.000000 -0.000001 -0.000001 0.051712 -0.000001 0.028586
# 5 0.001950 -0.004198 -0.007408 -0.000001 0.037867 0.000001
# 6 0.000001 -0.000002 -0.000005 0.028586 0.000001 0.326550
#
#
# Mechanical properties :
#
#
# Convention : Reuss Voigt Hill
#
# Bulk Modulus (GPa) = 22.10603 27.04194 24.57399
# Shear Modulus (GPa) = 10.43722 25.73003 18.08362
#
# Velocity S-wave (km/s) = 2.21389 3.47603 2.91411
# Velocity P-wave (km/s) = 4.11291 5.36742 4.78148
#
# Compressibility (1/GPa) = 0.04523652
#
# Stress axis : x y z
#
# Youngs Moduli (GPa) = 108.90508 54.92277 52.21414
#
# Poissons Ratio (x) = -0.06449 0.15526
# Poissons Ratio (y) = -0.12788 -0.05988
# Poissons Ratio (z) = 0.32384 -0.06299
#
# Static dielectric constant tensor:
#      x y z
#    x 1.875710 0.000000 -0.011870 
#    y 0.000000 1.801840 0.000000 
#    z -0.011870 0.000000 1.842740 
# 
# From -- ./inp_files/274443.got.cif
#   From: 2010.05.17/outbox.cif.g08.bks.cpg/sg15_138_cif.got.tgz:274443.got - 2010.06.03 18:47:42.
