data_PCOD9289692
_publ_section_title
;
Structure prediction by ZEFSAII (Michael W. Deem and Ramdas Pophale) SiO2 
 PCOD9289692
Probable space group: C 2/C
;
_chemical_formula_sum "Si O2"
_cell_formula_units_Z 52
_cell_length_a 6.200314
_cell_length_b 22.605635
_cell_length_c 20.270107
_cell_angle_alpha 90.000000
_cell_angle_beta 119.594423
_cell_angle_gamma 90.000000
_cell_volume 2470.458151
_symmetry_space_group_name_H-M "C 2/C"
_symmetry_group_IT_number 15
_symmetry_cell_setting 'monoclinic'
loop_
_space_group_symop_operation_xyz
x,y,z
-x,y,1/2-z
-x,-y,-z
x,-y,1/2+z
1/2+x,1/2+y,z
1/2-x,1/2+y,1/2-z
1/2-x,1/2-y,-z
1/2+x,1/2-y,1/2+z
loop_
_atom_site_type_symbol
_atom_site_label
_atom_site_fract_x
_atom_site_fract_y
_atom_site_fract_z
Si Si1 0.041779 0.518901 0.862879
Si Si2 0.688426 0.901180 0.835907
Si Si3 0.029580 0.773205 0.050437
Si Si4 0.413013 0.610380 0.875643
Si Si5 0.102516 0.575932 0.470556
Si Si6 0.682239 0.660239 0.439204
Si Si7 0.500000 0.449057 0.250000
O O1 0.197134 0.472940 0.840572
O O2 0.160043 0.582303 0.866589
O O3 0.752224 0.515347 0.802326
O O4 0.069456 0.491262 0.940081
O O5 0.500000 0.883953 0.750000
O O6 0.603411 0.890286 0.898927
O O7 0.950764 0.870062 0.868540
O O8 0.064924 0.819367 0.114475
O O9 0.203867 0.716376 0.080918
O O10 0.100538 0.812198 0.996817
O O11 0.750000 0.750000 0.000000
O O12 0.448032 0.589873 0.806521
O O13 0.638221 0.583820 0.953479
O O14 0.889427 0.609517 0.477991
#
# Coordination Sequence:
#
# PCOD9289692 Si02
#       7
#     8   8   8   8   8   8   4
#     4  10  26  44  67 103 141 181 220 290 351 415
#     4  10  22  40  67 100 145 170 228 284 350 411
#     4  11  23  45  74  98 138 178 239 291 342 409
#     4  12  24  47  69 103 140 179 240 285 345 421
#     4  10  24  40  72 105 134 173 235 283 348 418
#     4  11  22  41  75 103 130 189 226 291 354 405
#     4  12  28  42  72  98 144 196 220 276 364 414
#
# _framework density 21.048727
#
# number of rings (size 3 to 8) (size 9 to 14) (size 15 to 20)
#    0.923    0.308    3.077    1.846    6.462    1.231 
#    0.000    0.000   25.385    0.000    0.000    0.000 
#    0.000    0.000    0.000    0.000    0.000    0.000 
#
# Total GULP energy -145159.426054 kJ/mol
# GULP energy per Si atom -5583.054848 kJ/mol
# Density = 2.100082 g / cm^3
# Si number density = 21.048727 Si / 1000 Ang^3
#
#
#
# Elastic Constant Matrix: (Units=GPa)
#
#
# Indices 1 2 3 4 5 6 
#
# 1 87.6139 43.4073 27.9693 0.0000 12.3236 0.0000
# 2 43.4073 113.7725 16.8774 0.0000 6.4524 0.0000
# 3 27.9693 16.8774 89.0524 0.0000 -0.0446 0.0000
# 4 0.0000 0.0000 0.0000 14.0081 0.0000 4.4056
# 5 12.3236 6.4524 -0.0446 0.0000 42.9992 0.0000
# 6 0.0000 0.0000 0.0000 4.4056 0.0000 35.6447
#
#
#
# Elastic Compliance Matrix: (Units=1/GPa)
#
#
# Indices 1 2 3 4 5 6 
#
# 1 0.015798 -0.005225 -0.003973 0.000000 -0.003748 0.000000
# 2 -0.005225 0.010852 -0.000416 0.000000 -0.000131 0.000000
# 3 -0.003973 -0.000416 0.012557 0.000000 0.001214 0.000000
# 4 0.000000 0.000000 0.000000 0.074274 0.000000 -0.009180
# 5 -0.003748 -0.000131 0.001214 0.000000 0.024351 0.000000
# 6 0.000000 0.000000 0.000000 -0.009180 0.000000 0.029189
#
#
# Mechanical properties :
#
#
# Convention : Reuss Voigt Hill
#
# Bulk Modulus (GPa) = 50.05459 51.88296 50.96878
# Shear Modulus (GPa) = 25.91878 32.00939 28.96408
#
# Velocity S-wave (km/s) = 3.51290 3.90388 3.71354
# Velocity P-wave (km/s) = 6.34712 6.70991 6.53103
#
# Compressibility (1/GPa) = 0.01997819
#
# Stress axis : x y z
#
# Youngs Moduli (GPa) = 63.29834 92.14697 79.63903
#
# Poissons Ratio (x) = 0.48151 0.31644
# Poissons Ratio (y) = 0.33076 0.03310
# Poissons Ratio (z) = 0.25151 0.03830
#
# Static dielectric constant tensor:
#      x y z
#    x 1.805150 0.000000 -0.046720 
#    y 0.000000 1.786850 0.000000 
#    z -0.046720 0.000000 1.755990 
# 
# From -- ./inp_files/186308.got.cif
#   From: 2010.05.17/outbox.cif.g08.bks.cpg/sg15_94_cif.got.tgz:186308.got - 2010.06.03 18:47:42.
