data_PCOD9289842
_publ_section_title
;
Structure prediction by ZEFSAII (Michael W. Deem and Ramdas Pophale) SiO2 
 PCOD9289842
Probable space group: C 2/C
;
_chemical_formula_sum "Si O2"
_cell_formula_units_Z 56
_cell_length_a 34.441632
_cell_length_b 9.199966
_cell_length_c 11.709785
_cell_angle_alpha 90.000000
_cell_angle_beta 51.546587
_cell_angle_gamma 90.000000
_cell_volume 2905.653936
_symmetry_space_group_name_H-M "C 2/C"
_symmetry_group_IT_number 15
_symmetry_cell_setting 'monoclinic'
loop_
_space_group_symop_operation_xyz
x,y,z
-x,y,1/2-z
-x,-y,-z
x,-y,1/2+z
1/2+x,1/2+y,z
1/2-x,1/2+y,1/2-z
1/2-x,1/2-y,-z
1/2+x,1/2-y,1/2+z
loop_
_atom_site_type_symbol
_atom_site_label
_atom_site_fract_x
_atom_site_fract_y
_atom_site_fract_z
Si Si1 0.255171 0.321262 0.616494
Si Si2 0.652635 0.190260 0.912608
Si Si3 0.000000 0.007206 0.250000
Si Si4 0.000000 0.495768 0.750000
Si Si5 0.780869 0.613155 0.910684
Si Si6 0.450495 0.738963 0.976251
Si Si7 0.330000 0.126677 0.049348
Si Si8 0.429623 0.247566 0.783285
O O1 0.250000 0.250000 0.500000
O O2 0.305351 0.265559 0.585327
O O3 0.250424 0.493671 0.600222
O O4 0.208313 0.301715 0.789811
O O5 0.675464 0.177346 0.745271
O O6 0.644569 0.019095 0.950551
O O7 0.600217 0.269077 0.004709
O O8 0.044170 0.113431 0.207671
O O9 0.016544 0.899356 0.118292
O O10 0.978043 0.386473 0.885751
O O11 0.958734 0.603594 0.773554
O O12 0.750000 0.750000 0.000000
O O13 0.800566 0.559198 0.995577
O O14 0.436918 0.743252 0.133936
O O15 0.372635 0.232895 0.926682
#
# Coordination Sequence:
#
# PCOD9289842 Si02
#       8
#     8   8   4   4   8   8   8   8
#     4  11  24  41  62  94 135 165 209 262 311 375
#     4  11  22  40  64  95 125 166 216 258 313 379
#     4  10  26  44  60  96 134 162 212 266 326 390
#     4  10  22  40  68  98 120 156 214 270 322 384
#     4  11  22  40  64  89 128 169 206 262 314 374
#     4  11  22  42  67  93 126 166 211 267 323 381
#     4  11  22  40  67  95 125 166 219 257 313 382
#     4  11  22  43  68  93 126 168 210 266 324 381
#
# _framework density 19.272770000000001
#
# number of rings (size 3 to 8) (size 9 to 14) (size 15 to 20)
#    0.000    1.143    5.714    0.857    0.000    1.143 
#    2.571    1.429    0.000    0.000    0.000    0.000 
#    0.000    0.000    0.000    0.000    0.000    0.000 
#
# Total GULP energy -156106.243055 kJ/mol
# GULP energy per Si atom -5575.222966 kJ/mol
# Density = 1.922890 g / cm^3
# Si number density = 19.272770 Si / 1000 Ang^3
#
#
#
# Elastic Constant Matrix: (Units=GPa)
#
#
# Indices 1 2 3 4 5 6 
#
# 1 63.9743 25.7935 28.0860 0.0000 0.7415 0.0000
# 2 25.7935 90.8804 41.6582 0.0000 -15.8066 0.0000
# 3 28.0860 41.6582 114.2581 0.0000 6.6896 0.0000
# 4 0.0000 0.0000 0.0000 27.0918 0.0000 -5.7705
# 5 0.7415 -15.8066 6.6896 0.0000 26.3179 0.0000
# 6 0.0000 0.0000 0.0000 -5.7705 0.0000 28.4303
#
#
#
# Elastic Compliance Matrix: (Units=1/GPa)
#
#
# Indices 1 2 3 4 5 6 
#
# 1 0.018692 -0.004437 -0.002832 0.000000 -0.002471 0.000000
# 2 -0.004437 0.016964 -0.005784 0.000000 0.011784 0.000000
# 3 -0.002832 -0.005784 0.011934 0.000000 -0.006428 0.000000
# 4 0.000000 0.000000 0.000000 0.038579 0.000000 0.007830
# 5 -0.002471 0.011784 -0.006428 0.000000 0.046778 0.000000
# 6 0.000000 0.000000 0.000000 0.007830 0.000000 0.036763
#
#
# Mechanical properties :
#
#
# Convention : Reuss Voigt Hill
#
# Bulk Modulus (GPa) = 46.54910 51.13205 48.84058
# Shear Modulus (GPa) = 24.63334 27.93968 26.28651
#
# Velocity S-wave (km/s) = 3.57899 3.81162 3.69713
# Velocity P-wave (km/s) = 6.42527 6.77935 6.60468
#
# Compressibility (1/GPa) = 0.02148269
#
# Stress axis : x y z
#
# Youngs Moduli (GPa) = 53.49817 58.94992 83.79706
#
# Poissons Ratio (x) = 0.26154 0.23735
# Poissons Ratio (y) = 0.23735 0.48470
# Poissons Ratio (z) = 0.15153 0.34098
#
# Static dielectric constant tensor:
#      x y z
#    x 2.302960 0.000000 -0.180110 
#    y 0.000000 1.612700 0.000000 
#    z -0.180110 0.000000 1.692260 
# 
# From -- ./inp_files/125860.got.cif
#   From: 2010.05.17/outbox.cif.g08.bks.cpg/sg15_63_cif.got.tgz:125860.got - 2010.06.03 18:47:42.
