data_PCOD9289626
_publ_section_title
;
Structure prediction by ZEFSAII (Michael W. Deem and Ramdas Pophale) SiO2 
 PCOD9289626
Probable space group: C 2/C
;
_chemical_formula_sum "Si O2"
_cell_formula_units_Z 40
_cell_length_a 8.733544
_cell_length_b 25.736580
_cell_length_c 7.331780
_cell_angle_alpha 90.000000
_cell_angle_beta 93.051671
_cell_angle_gamma 90.000000
_cell_volume 1645.638639
_symmetry_space_group_name_H-M "C 2/C"
_symmetry_group_IT_number 15
_symmetry_cell_setting 'monoclinic'
loop_
_space_group_symop_operation_xyz
x,y,z
-x,y,1/2-z
-x,-y,-z
x,-y,1/2+z
1/2+x,1/2+y,z
1/2-x,1/2+y,1/2-z
1/2-x,1/2-y,-z
1/2+x,1/2-y,1/2+z
loop_
_atom_site_type_symbol
_atom_site_label
_atom_site_fract_x
_atom_site_fract_y
_atom_site_fract_z
Si Si1 0.322720 0.210740 0.220304
Si Si2 0.322725 0.393840 0.752742
Si Si3 0.373629 0.021654 0.356509
Si Si4 0.824646 0.077355 0.681845
Si Si5 0.175658 0.315298 0.208614
O O1 0.500000 0.223359 0.250000
O O2 0.273306 0.156842 0.306229
O O3 0.229014 0.259783 0.288705
O O4 0.299876 0.196416 0.005377
O O5 0.500000 0.380384 0.750000
O O6 0.265958 0.439905 0.618568
O O7 0.306359 0.415716 0.959636
O O8 0.500000 0.055016 0.250000
O O9 0.500000 0.000000 0.500000
O O10 0.289180 0.969995 0.275186
O O11 0.772831 0.133250 0.756934
O O12 0.000000 0.066410 0.750000
O O13 0.000000 0.325003 0.250000
#
# Coordination Sequence:
#
# PCOD9289626 Si02
#       5
#     8   8   8   8   8
#     4  10  22  40  66  93 130 168 212 264 317 380
#     4  11  25  42  64  95 130 170 215 265 322 382
#     4  12  25  43  67  94 128 169 217 267 320 381
#     4  11  25  42  64  94 131 169 215 266 320 382
#     4  10  22  41  64  96 128 168 215 260 319 380
#
# _framework density 24.306671999999999
#
# number of rings (size 3 to 8) (size 9 to 14) (size 15 to 20)
#    0.000    1.200    2.000    3.000    5.600    4.000 
#    0.000    0.000    0.000    0.000    0.000    0.000 
#    0.000    0.000    0.000    0.000    0.000    0.000 
#
# Total GULP energy -111669.613738 kJ/mol
# GULP energy per Si atom -5583.480687 kJ/mol
# Density = 2.425135 g / cm^3
# Si number density = 24.306672 Si / 1000 Ang^3
#
#
#
# Elastic Constant Matrix: (Units=GPa)
#
#
# Indices 1 2 3 4 5 6 
#
# 1 130.9270 40.2606 -1.1806 0.0000 22.7581 0.0000
# 2 40.2606 154.0094 16.3748 0.0000 18.0023 0.0000
# 3 -1.1806 16.3748 53.1259 0.0000 13.6429 0.0000
# 4 0.0000 0.0000 0.0000 32.2228 0.0000 6.6498
# 5 22.7581 18.0023 13.6429 0.0000 41.4838 0.0000
# 6 0.0000 0.0000 0.0000 6.6498 0.0000 51.6499
#
#
#
# Elastic Compliance Matrix: (Units=1/GPa)
#
#
# Indices 1 2 3 4 5 6 
#
# 1 0.009118 -0.002043 0.002063 0.000000 -0.004794 0.000000
# 2 -0.002043 0.007404 -0.001955 0.000000 -0.001450 0.000000
# 3 0.002063 -0.001955 0.021347 0.000000 -0.007304 0.000000
# 4 0.000000 0.000000 0.000000 0.031881 0.000000 -0.004105
# 5 -0.004794 -0.001450 -0.007304 0.000000 0.029767 0.000000
# 6 0.000000 0.000000 0.000000 -0.004105 0.000000 0.019890
#
#
# Mechanical properties :
#
#
# Convention : Reuss Voigt Hill
#
# Bulk Modulus (GPa) = 29.41111 49.88576 39.64844
# Shear Modulus (GPa) = 37.14432 43.91180 40.52806
#
# Velocity S-wave (km/s) = 3.91340 4.25499 4.08777
# Velocity P-wave (km/s) = 5.70490 6.68640 6.21506
#
# Compressibility (1/GPa) = 0.03400075
#
# Stress axis : x y z
#
# Youngs Moduli (GPa) = 109.67433 135.05458 46.84391
#
# Poissons Ratio (x) = 0.27586 -0.09666
# Poissons Ratio (y) = 0.22402 0.09160
# Poissons Ratio (z) = -0.22630 0.26408
#
# Static dielectric constant tensor:
#      x y z
#    x 1.836540 0.000000 -0.066400 
#    y 0.000000 1.912460 0.000000 
#    z -0.066400 0.000000 2.307950 
# 
# From -- ./inp_files/23490.got.cif
#   From: 2010.05.17/outbox.cif.g08.bks.cpg/sg15_12_cif.got.tgz:23490.got - 2010.06.03 18:47:42.
