data_PCOD9289315
_publ_section_title
;
Structure prediction by ZEFSAII (Michael W. Deem and Ramdas Pophale) SiO2 
 PCOD9289315
Probable space group: C 2/C
;
_chemical_formula_sum "Si O2"
_cell_formula_units_Z 64
_cell_length_a 15.857626
_cell_length_b 25.455397
_cell_length_c 12.130165
_cell_angle_alpha 90.000000
_cell_angle_beta 140.770592
_cell_angle_gamma 90.000000
_cell_volume 3096.671505
_symmetry_space_group_name_H-M "C 2/C"
_symmetry_group_IT_number 15
_symmetry_cell_setting 'monoclinic'
loop_
_space_group_symop_operation_xyz
x,y,z
-x,y,1/2-z
-x,-y,-z
x,-y,1/2+z
1/2+x,1/2+y,z
1/2-x,1/2+y,1/2-z
1/2-x,1/2-y,-z
1/2+x,1/2-y,1/2+z
loop_
_atom_site_type_symbol
_atom_site_label
_atom_site_fract_x
_atom_site_fract_y
_atom_site_fract_z
Si Si1 0.281031 0.183960 0.310211
Si Si2 0.520048 0.443292 0.076249
Si Si3 0.028437 0.140105 0.163671
Si Si4 0.085726 0.462871 0.508668
Si Si5 0.279827 0.286179 0.422177
Si Si6 0.816281 0.431745 0.466154
Si Si7 0.247589 0.094535 0.130318
Si Si8 0.566197 0.132492 0.625007
O O1 0.262701 0.245660 0.303856
O O2 0.236139 0.155291 0.153220
O O3 0.436391 0.169662 0.481729
O O4 0.180724 0.157992 0.299204
O O5 0.662564 0.435057 0.274420
O O6 0.500000 0.500000 0.000000
O O7 0.508025 0.398748 0.970542
O O8 0.395531 0.432032 0.029679
O O9 0.000000 0.111758 0.250000
O O10 0.928534 0.189929 0.068276
O O11 0.144758 0.506435 0.488897
O O12 0.188504 0.434066 0.696948
O O13 0.000000 0.500000 0.500000
O O14 0.990359 0.417766 0.366740
O O15 0.250000 0.250000 0.500000
O O16 0.179734 0.334611 0.301174
O O17 0.831829 0.410655 0.605287
O O18 0.886441 0.394499 0.443696
#
# Coordination Sequence:
#
# PCOD9289315 Si02
#       8
#     8   8   8   8   8   8   8   8
#     4  10  23  40  63  95 134 169 221 281 328 397
#     4  11  22  41  64  96 140 173 226 280 330 411
#     4  11  23  42  66  98 135 176 224 274 344 405
#     4   9  20  39  61  93 129 167 221 279 329 401
#     4  12  23  43  71  99 134 181 223 281 349 405
#     4  11  21  42  69  93 134 184 224 277 345 408
#     4  10  22  40  63  93 130 181 225 277 336 400
#     4  10  23  42  64  99 135 169 228 281 333 404
#
# _framework density 20.667352000000001
#
# number of rings (size 3 to 8) (size 9 to 14) (size 15 to 20)
#    0.000    1.500    3.750    1.125    0.000    5.500 
#    0.000    9.375    0.000    1.500    0.000    0.000 
#    0.000    0.000    0.000    0.000    0.000    0.000 
#
# Total GULP energy -178446.781795 kJ/mol
# GULP energy per Si atom -5576.461931 kJ/mol
# Density = 2.062031 g / cm^3
# Si number density = 20.667352 Si / 1000 Ang^3
#
#
#
# Elastic Constant Matrix: (Units=GPa)
#
#
# Indices 1 2 3 4 5 6 
#
# 1 115.9727 38.0641 41.4620 0.0000 -0.5562 0.0000
# 2 38.0641 122.6266 45.6144 0.0000 -4.1421 0.0000
# 3 41.4620 45.6144 59.2793 0.0000 16.5841 0.0000
# 4 0.0000 0.0000 0.0000 34.9816 0.0000 9.0403
# 5 -0.5562 -4.1421 16.5841 0.0000 38.8559 0.0000
# 6 0.0000 0.0000 0.0000 9.0403 0.0000 28.4349
#
#
#
# Elastic Compliance Matrix: (Units=1/GPa)
#
#
# Indices 1 2 3 4 5 6 
#
# 1 0.012099 -0.000024 -0.009643 0.000000 0.004286 0.000000
# 2 -0.000024 0.012630 -0.011445 0.000000 0.006231 0.000000
# 3 -0.009643 -0.011445 0.037249 0.000000 -0.017256 0.000000
# 4 0.000000 0.000000 0.000000 0.031145 0.000000 -0.009902
# 5 0.004286 0.006231 -0.017256 0.000000 0.033827 0.000000
# 6 0.000000 0.000000 0.000000 -0.009902 0.000000 0.038316
#
#
# Mechanical properties :
#
#
# Convention : Reuss Voigt Hill
#
# Bulk Modulus (GPa) = 50.62495 60.90663 55.76579
# Shear Modulus (GPa) = 23.35641 31.97037 27.66339
#
# Velocity S-wave (km/s) = 3.36536 3.93733 3.66253
# Velocity P-wave (km/s) = 6.29676 7.08548 6.70273
#
# Compressibility (1/GPa) = 0.01975311
#
# Stress axis : x y z
#
# Youngs Moduli (GPa) = 82.65416 79.17643 26.84670
#
# Poissons Ratio (x) = 0.00187 0.25889
# Poissons Ratio (y) = 0.00196 0.30727
# Poissons Ratio (z) = 0.79705 0.90619
#
# Static dielectric constant tensor:
#      x y z
#    x 1.797350 0.000000 0.007750 
#    y 0.000000 1.785200 0.000000 
#    z 0.007750 0.000000 1.782100 
# 
# From -- ./inp_files/101371.got.cif
#   From: 2010.05.17/outbox.cif.g08.bks.cpg/sg15_51_cif.got.tgz:101371.got - 2010.06.03 18:47:42.
