data_PCOD9289581
_publ_section_title
;
Structure prediction by ZEFSAII (Michael W. Deem and Ramdas Pophale) SiO2 
 PCOD9289581
Probable space group: C 2/C
;
_chemical_formula_sum "Si O2"
_cell_formula_units_Z 48
_cell_length_a 16.927679
_cell_length_b 16.912591
_cell_length_c 9.000790
_cell_angle_alpha 90.000000
_cell_angle_beta 124.202100
_cell_angle_gamma 90.000000
_cell_volume 2131.204836
_symmetry_space_group_name_H-M "C 2/C"
_symmetry_group_IT_number 15
_symmetry_cell_setting 'monoclinic'
loop_
_space_group_symop_operation_xyz
x,y,z
-x,y,1/2-z
-x,-y,-z
x,-y,1/2+z
1/2+x,1/2+y,z
1/2-x,1/2+y,1/2-z
1/2-x,1/2-y,-z
1/2+x,1/2-y,1/2+z
loop_
_atom_site_type_symbol
_atom_site_label
_atom_site_fract_x
_atom_site_fract_y
_atom_site_fract_z
Si Si1 0.935432 0.683256 0.040241
Si Si2 0.670859 0.969685 0.200217
Si Si3 0.750000 0.750000 0.000000
Si Si4 0.000000 0.962772 0.250000
Si Si5 0.884258 0.747293 0.434175
Si Si6 0.616914 0.424200 0.094299
Si Si7 0.892347 0.591340 0.578158
O O1 0.000000 0.661741 0.250000
O O2 0.007612 0.726048 0.003105
O O3 0.890402 0.603718 0.925435
O O4 0.847324 0.736193 0.000892
O O5 0.778959 0.958742 0.262151
O O6 0.670208 0.960290 0.376000
O O7 0.623039 0.050572 0.097001
O O8 0.685320 0.761822 0.779943
O O9 0.064207 0.017478 0.425031
O O10 0.063001 0.915166 0.196428
O O11 0.876883 0.838107 0.472075
O O12 0.861320 0.681891 0.533597
O O13 0.000000 0.584772 0.750000
#
# Coordination Sequence:
#
# PCOD9289581 Si02
#       7
#     8   8   4   4   8   8   8
#     4  10  22  40  66 102 138 187 232 294 353 427
#     4  12  25  45  69 102 144 190 244 285 366 437
#     4  10  22  42  68 102 140 184 238 290 356 434
#     4  10  26  48  70 100 136 188 234 294 362 416
#     4  11  25  43  70 105 141 186 239 297 363 418
#     4  11  25  48  72 100 139 184 238 297 351 432
#     4  12  27  44  70 108 145 191 232 298 368 430
#
# _framework density 22.522472
#
# number of rings (size 3 to 8) (size 9 to 14) (size 15 to 20)
#    0.000    1.000    3.333    2.000    9.333    2.000 
#    6.000    0.000    0.000    0.000    0.000    0.000 
#    0.000    0.000    0.000    0.000    0.000    0.000 
#
# Total GULP energy -133740.220190 kJ/mol
# GULP energy per Si atom -5572.509175 kJ/mol
# Density = 2.247121 g / cm^3
# Si number density = 22.522472 Si / 1000 Ang^3
#
#
#
# Elastic Constant Matrix: (Units=GPa)
#
#
# Indices 1 2 3 4 5 6 
#
# 1 80.8270 1.3359 42.3076 0.0000 20.3764 0.0000
# 2 1.3359 79.9631 34.2152 0.0000 10.4405 0.0000
# 3 42.3076 34.2152 64.8112 0.0000 19.5073 0.0000
# 4 0.0000 0.0000 0.0000 17.5897 0.0000 -11.3571
# 5 20.3764 10.4405 19.5073 0.0000 44.1236 0.0000
# 6 0.0000 0.0000 0.0000 -11.3571 0.0000 10.8587
#
#
#
# Elastic Compliance Matrix: (Units=1/GPa)
#
#
# Indices 1 2 3 4 5 6 
#
# 1 0.022452 0.007627 -0.017324 0.000000 -0.004514 0.000000
# 2 0.007627 0.018746 -0.014396 0.000000 -0.001593 0.000000
# 3 -0.017324 -0.014396 0.035649 0.000000 -0.004354 0.000000
# 4 0.000000 0.000000 0.000000 0.175093 0.000000 0.183130
# 5 -0.004514 -0.001593 -0.004354 0.000000 0.027050 0.000000
# 6 0.000000 0.000000 0.000000 0.183130 0.000000 0.283628
#
#
# Mechanical properties :
#
#
# Convention : Reuss Voigt Hill
#
# Bulk Modulus (GPa) = 34.89030 42.36874 38.62952
# Shear Modulus (GPa) = 8.05987 24.36389 16.21188
#
# Velocity S-wave (km/s) = 1.89377 3.29258 2.68584
# Velocity P-wave (km/s) = 4.50630 5.77125 5.17755
#
# Compressibility (1/GPa) = 0.02866126
#
# Stress axis : x y z
#
# Youngs Moduli (GPa) = 44.53925 53.34423 28.05158
#
# Poissons Ratio (x) = -0.40686 0.48597
# Poissons Ratio (y) = -0.33971 0.40382
# Poissons Ratio (z) = 0.77161 0.76793
#
# Static dielectric constant tensor:
#      x y z
#    x 1.890400 0.000000 -0.072260 
#    y 0.000000 1.832860 0.000000 
#    z -0.072260 0.000000 1.813290 
# 
# From -- ./inp_files/48741.got.cif
#   From: 2010.05.17/outbox.cif.g08.bks.cpg/sg15_25_cif.got.tgz:48741.got - 2010.06.03 18:47:42.
