data_PCOD9289369
_publ_section_title
;
Structure prediction by ZEFSAII (Michael W. Deem and Ramdas Pophale) SiO2 
 PCOD9289369
Probable space group: C 2/C
;
_chemical_formula_sum "Si O2"
_cell_formula_units_Z 64
_cell_length_a 30.008696
_cell_length_b 7.108732
_cell_length_c 18.192063
_cell_angle_alpha 90.000000
_cell_angle_beta 41.730895
_cell_angle_gamma 90.000000
_cell_volume 2583.187736
_symmetry_space_group_name_H-M "C 2/C"
_symmetry_group_IT_number 15
_symmetry_cell_setting 'monoclinic'
loop_
_space_group_symop_operation_xyz
x,y,z
-x,y,1/2-z
-x,-y,-z
x,-y,1/2+z
1/2+x,1/2+y,z
1/2-x,1/2+y,1/2-z
1/2-x,1/2-y,-z
1/2+x,1/2-y,1/2+z
loop_
_atom_site_type_symbol
_atom_site_label
_atom_site_fract_x
_atom_site_fract_y
_atom_site_fract_z
Si Si1 0.525962 0.527130 0.298194
Si Si2 0.561667 0.414115 0.465035
Si Si3 0.187577 0.553652 0.348189
Si Si4 0.322918 0.506054 0.599096
Si Si5 0.574302 0.036056 0.380301
Si Si6 0.945845 0.403483 0.757008
Si Si7 0.173111 0.065025 0.072594
Si Si8 0.304455 0.006896 0.494977
O O1 0.500000 0.576114 0.250000
O O2 0.476553 0.640215 0.412566
O O3 0.522576 0.298231 0.306213
O O4 0.605140 0.563062 0.203091
O O5 0.500000 0.500000 0.500000
O O6 0.617074 0.560210 0.423050
O O7 0.587853 0.257948 0.376910
O O8 0.252722 0.557376 0.217149
O O9 0.171139 0.768094 0.392577
O O10 0.130041 0.462026 0.368366
O O11 0.200937 0.459749 0.410804
O O12 0.333432 0.473866 0.500391
O O13 0.571817 0.990707 0.297488
O O14 0.500000 0.000000 0.500000
O O15 0.872445 0.392614 0.884307
O O16 0.000000 0.479741 0.750000
O O17 0.185894 0.284248 0.036719
O O18 0.233754 0.963316 0.040758
#
# Coordination Sequence:
#
# PCOD9289369 Si02
#       8
#     8   8   8   8   8   8   8   8
#     4  11  23  41  64  93 123 167 208 255 311 373
#     4  11  23  41  62  89 128 160 208 256 309 370
#     4  10  23  40  62  90 125 160 208 250 315 366
#     4  10  22  41  60  89 122 162 202 258 304 374
#     4  11  24  41  62  94 125 163 207 254 311 371
#     4  11  24  41  62  91 129 158 209 256 307 374
#     4  10  22  40  64  87 122 159 210 251 311 370
#     4  10  23  41  60  93 121 160 206 259 309 373
#
# _framework density 24.775589
#
# number of rings (size 3 to 8) (size 9 to 14) (size 15 to 20)
#    0.000    1.500    2.500    1.500    3.500    3.000 
#    0.000    0.000    0.000    0.000    0.000    0.000 
#    0.000    0.000    0.000    0.000    0.000    0.000 
#
# Total GULP energy -178682.271547 kJ/mol
# GULP energy per Si atom -5583.820986 kJ/mol
# Density = 2.471920 g / cm^3
# Si number density = 24.775589 Si / 1000 Ang^3
#
#
#
# Elastic Constant Matrix: (Units=GPa)
#
#
# Indices 1 2 3 4 5 6 
#
# 1 220.6423 17.4669 53.3557 0.0104 -9.0882 -0.0061
# 2 17.4669 74.5336 10.6305 0.0051 4.3002 -0.0351
# 3 53.3557 10.6305 115.8047 0.0109 -9.0034 -0.0092
# 4 0.0104 0.0051 0.0109 28.8345 -0.0021 -6.1483
# 5 -9.0882 4.3002 -9.0034 -0.0021 56.0017 0.0035
# 6 -0.0061 -0.0351 -0.0092 -6.1483 0.0035 -3.6564
#
#
#
# Elastic Compliance Matrix: (Units=1/GPa)
#
#
# Indices 1 2 3 4 5 6 
#
# 1 0.005173 -0.000922 -0.002256 0.000000 0.000548 0.000006
# 2 -0.000922 0.013847 -0.000952 -0.000022 -0.001366 -0.000094
# 3 -0.002256 -0.000952 0.009863 -0.000004 0.001293 -0.000005
# 4 0.000000 -0.000022 -0.000004 0.025528 0.000005 -0.042925
# 5 0.000548 -0.001366 0.001293 0.000005 0.018258 0.000018
# 6 0.000006 -0.000094 -0.000005 -0.042925 0.000018 -0.201311
#
#
# Mechanical properties :
#
#
# Convention : Reuss Voigt Hill
#
# Bulk Modulus (GPa) = 48.49281 63.76523 56.12902
# Shear Modulus (GPa) = -44.05096 38.20445 -2.92326
#
# Velocity S-wave (km/s) = -4.22121 3.93112 -1.08741
# Velocity P-wave (km/s) = 2.03539 6.81160 4.59647
#
# Compressibility (1/GPa) = 0.02062161
#
# Stress axis : x y z
#
# Youngs Moduli (GPa) = 193.29588 72.21523 101.39153
#
# Poissons Ratio (x) = 0.06659 0.22878
# Poissons Ratio (y) = 0.17825 0.09658
# Poissons Ratio (z) = 0.43615 0.06878
#
# Static dielectric constant tensor:
#      x y z
#    x 2.077090 -0.000100 -0.050170 
#    y -0.000100 2.061670 0.000050 
#    z -0.050170 0.000050 1.889730 
# 
# From -- ./inp_files/224607.got.cif
#   From: 2010.05.17/outbox.cif.g08.bks.cpg/sg15_113_cif.got.tgz:224607.got - 2010.06.03 18:47:42.
