data_PCOD9289892
_publ_section_title
;
Structure prediction by ZEFSAII (Michael W. Deem and Ramdas Pophale) SiO2 
 PCOD9289892
Probable space group: C 2/C
;
_chemical_formula_sum "Si O2"
_cell_formula_units_Z 36
_cell_length_a 17.741039
_cell_length_b 17.463566
_cell_length_c 5.436672
_cell_angle_alpha 90.000000
_cell_angle_beta 74.758574
_cell_angle_gamma 90.000000
_cell_volume 1625.153601
_symmetry_space_group_name_H-M "C 2/C"
_symmetry_group_IT_number 15
_symmetry_cell_setting 'monoclinic'
loop_
_space_group_symop_operation_xyz
x,y,z
-x,y,1/2-z
-x,-y,-z
x,-y,1/2+z
1/2+x,1/2+y,z
1/2-x,1/2+y,1/2-z
1/2-x,1/2-y,-z
1/2+x,1/2-y,1/2+z
loop_
_atom_site_type_symbol
_atom_site_label
_atom_site_fract_x
_atom_site_fract_y
_atom_site_fract_z
Si Si1 0.500000 0.448665 0.250000
Si Si2 0.923736 0.835356 0.989137
Si Si3 0.634364 0.804620 0.669734
Si Si4 0.910820 0.530052 0.349402
Si Si5 0.792502 0.807597 0.778195
O O1 0.500000 0.500000 0.500000
O O2 0.566990 0.388388 0.277324
O O3 0.849030 0.860227 0.890840
O O4 0.000000 0.839842 0.750000
O O5 0.908557 0.748009 0.090493
O O6 0.587972 0.878777 0.628255
O O7 0.719378 0.836624 0.683454
O O8 0.653287 0.745116 0.438580
O O9 0.873273 0.493978 0.623278
O O10 0.000000 0.499808 0.250000
O O11 0.750000 0.750000 0.000000
#
# Coordination Sequence:
#
# PCOD9289892 Si02
#       5
#     4   8   8   8   8
#     4  12  26  46  64  98 142 170 220 290 344 414
#     4  11  23  40  71 102 129 177 228 280 347 411
#     4  10  22  40  69  97 139 179 231 282 341 412
#     4  10  24  41  62  98 140 177 219 276 339 402
#     4   9  21  40  64  97 133 170 232 287 329 401
#
# _framework density 22.151754
#
# number of rings (size 3 to 8) (size 9 to 14) (size 15 to 20)
#    0.000    1.778    1.111    1.333   10.889    0.889 
#    0.000    2.222    0.000    0.000    0.000    0.000 
#    0.000    0.000    0.000    0.000    0.000    0.000 
#
# Total GULP energy -100291.197612 kJ/mol
# GULP energy per Si atom -5571.733201 kJ/mol
# Density = 2.210134 g / cm^3
# Si number density = 22.151754 Si / 1000 Ang^3
#
#
#
# Elastic Constant Matrix: (Units=GPa)
#
#
# Indices 1 2 3 4 5 6 
#
# 1 81.3352 20.2887 32.2888 0.0000 24.3697 0.0000
# 2 20.2887 83.7702 29.1492 0.0000 -0.0542 0.0000
# 3 32.2888 29.1492 130.2739 0.0000 11.5750 0.0000
# 4 0.0000 0.0000 0.0000 26.6058 0.0000 10.1201
# 5 24.3697 -0.0542 11.5750 0.0000 32.2601 0.0000
# 6 0.0000 0.0000 0.0000 10.1201 0.0000 19.1530
#
#
#
# Elastic Compliance Matrix: (Units=1/GPa)
#
#
# Indices 1 2 3 4 5 6 
#
# 1 0.017968 -0.003472 -0.002551 0.000000 -0.012664 0.000000
# 2 -0.003472 0.013654 -0.002510 0.000000 0.003546 0.000000
# 3 -0.002551 -0.002510 0.008986 0.000000 -0.001301 0.000000
# 4 0.000000 0.000000 0.000000 0.047040 0.000000 -0.024855
# 5 -0.012664 0.003546 -0.001301 0.000000 0.041037 0.000000
# 6 0.000000 0.000000 0.000000 -0.024855 0.000000 0.065344
#
#
# Mechanical properties :
#
#
# Convention : Reuss Voigt Hill
#
# Bulk Modulus (GPa) = 42.47850 50.98140 46.72995
# Shear Modulus (GPa) = 22.83710 29.84728 26.34219
#
# Velocity S-wave (km/s) = 3.21431 3.67468 3.45217
# Velocity P-wave (km/s) = 5.74399 6.40850 6.08533
#
# Compressibility (1/GPa) = 0.02354132
#
# Stress axis : x y z
#
# Youngs Moduli (GPa) = 55.65429 73.23900 111.28887
#
# Poissons Ratio (x) = 0.25430 0.28394
# Poissons Ratio (y) = 0.19324 0.27929
# Poissons Ratio (z) = 0.14199 0.18380
#
# Static dielectric constant tensor:
#      x y z
#    x 1.904350 0.000000 0.040990 
#    y 0.000000 1.815010 0.000000 
#    z 0.040990 0.000000 1.868190 
# 
# From -- ./inp_files/9770.got.cif
#   From: 2010.05.17/outbox.cif.g08.bks.cpg/sg15_5_cif.got.tgz:9770.got - 2010.06.03 18:47:42.
