data_PCOD9289467
_publ_section_title
;
Structure prediction by ZEFSAII (Michael W. Deem and Ramdas Pophale) SiO2 
 PCOD9289467
Probable space group: C 2/C
;
_chemical_formula_sum "Si O2"
_cell_formula_units_Z 56
_cell_length_a 18.936105
_cell_length_b 8.337711
_cell_length_c 23.660683
_cell_angle_alpha 90.000000
_cell_angle_beta 42.437335
_cell_angle_gamma 90.000000
_cell_volume 2520.746547
_symmetry_space_group_name_H-M "C 2/C"
_symmetry_group_IT_number 15
_symmetry_cell_setting 'monoclinic'
loop_
_space_group_symop_operation_xyz
x,y,z
-x,y,1/2-z
-x,-y,-z
x,-y,1/2+z
1/2+x,1/2+y,z
1/2-x,1/2+y,1/2-z
1/2-x,1/2-y,-z
1/2+x,1/2-y,1/2+z
loop_
_atom_site_type_symbol
_atom_site_label
_atom_site_fract_x
_atom_site_fract_y
_atom_site_fract_z
Si Si1 0.171327 0.394123 0.920264
Si Si2 0.581863 0.086383 0.068258
Si Si3 0.364774 0.600209 0.177573
Si Si4 0.401760 0.264331 0.772137
Si Si5 0.629222 0.228109 0.332191
Si Si6 0.169167 0.246943 0.413723
Si Si7 0.384563 0.100307 0.322939
O O1 0.291691 0.343668 0.855365
O O2 0.116461 0.278877 0.908014
O O3 0.167215 0.569705 0.893549
O O4 0.114000 0.429672 0.013056
O O5 0.458637 0.118070 0.143997
O O6 0.632150 0.083049 0.099867
O O7 0.621086 0.232964 0.004844
O O8 0.419148 0.697897 0.195878
O O9 0.376725 0.412287 0.182173
O O10 0.243735 0.656597 0.253704
O O11 0.389794 0.641827 0.097869
O O12 0.500000 0.324818 0.750000
O O13 0.390665 0.075867 0.791729
O O14 0.288423 0.192599 0.352246
O O15 0.500000 0.177689 0.250000
#
# Coordination Sequence:
#
# PCOD9289467 Si02
#       7
#     8   8   8   8   8   8   8
#     4   9  22  39  62  93 133 164 209 262 317 378
#     4  10  24  41  66  97 134 172 209 262 326 385
#     4  11  22  40  70  92 129 168 216 275 309 385
#     4  10  23  42  63  97 126 167 224 266 319 376
#     4  11  22  42  66  98 128 168 216 262 320 379
#     4  10  22  40  64  98 133 164 215 260 321 379
#     4  11  23  42  68  93 127 177 218 260 320 382
#
# _framework density 22.21564
#
# number of rings (size 3 to 8) (size 9 to 14) (size 15 to 20)
#    0.857    0.857    0.000    5.143    0.000    7.429 
#    0.000    0.000    0.000    0.000    0.000    0.000 
#    0.000    0.000    0.000    0.000    0.000    0.000 
#
# Total GULP energy -156362.731103 kJ/mol
# GULP energy per Si atom -5584.383254 kJ/mol
# Density = 2.216508 g / cm^3
# Si number density = 22.215640 Si / 1000 Ang^3
#
#
#
# Elastic Constant Matrix: (Units=GPa)
#
#
# Indices 1 2 3 4 5 6 
#
# 1 149.7930 28.7731 29.0750 0.0001 19.2216 -0.0003
# 2 28.7731 65.4014 20.5450 0.0004 8.7541 -0.0008
# 3 29.0750 20.5450 46.6729 0.0000 12.9813 0.0001
# 4 0.0001 0.0004 0.0000 32.1434 0.0000 4.7163
# 5 19.2216 8.7541 12.9813 0.0000 43.8066 0.0000
# 6 -0.0003 -0.0008 0.0001 4.7163 0.0000 31.4922
#
#
#
# Elastic Compliance Matrix: (Units=1/GPa)
#
#
# Indices 1 2 3 4 5 6 
#
# 1 0.008031 -0.002165 -0.003477 0.000000 -0.002061 0.000000
# 2 -0.002165 0.018400 -0.006531 0.000000 -0.000792 0.000001
# 3 -0.003477 -0.006531 0.027985 0.000000 -0.005462 0.000000
# 4 0.000000 0.000000 0.000000 0.031810 0.000000 -0.004764
# 5 -0.002061 -0.000792 -0.005462 0.000000 0.025509 0.000000
# 6 0.000000 0.000001 0.000000 -0.004764 0.000000 0.032467
#
#
# Mechanical properties :
#
#
# Convention : Reuss Voigt Hill
#
# Bulk Modulus (GPa) = 33.25364 46.51704 39.88534
# Shear Modulus (GPa) = 28.00002 33.72006 30.86004
#
# Velocity S-wave (km/s) = 3.55403 3.90019 3.73112
# Velocity P-wave (km/s) = 5.64292 6.42388 6.04602
#
# Compressibility (1/GPa) = 0.03007190
#
# Stress axis : x y z
#
# Youngs Moduli (GPa) = 124.51632 54.34714 35.73287
#
# Poissons Ratio (x) = 0.11767 0.12423
# Poissons Ratio (y) = 0.26961 0.23336
# Poissons Ratio (z) = 0.43290 0.35492
#
# Static dielectric constant tensor:
#      x y z
#    x 1.821630 0.000000 0.050920 
#    y 0.000000 1.781050 0.000000 
#    z 0.050920 0.000000 1.921000 
# 
# From -- ./inp_files/315505.got.cif
#   From: 2010.05.17/outbox.cif.g08.bks.cpg/sg15_158_cif.got.tgz:315505.got - 2010.06.03 18:47:42.
