data_PCOD9289926
_publ_section_title
;
Structure prediction by ZEFSAII (Michael W. Deem and Ramdas Pophale) SiO2 
 PCOD9289926
Probable space group: C 2/C
;
_chemical_formula_sum "Si O2"
_cell_formula_units_Z 44
_cell_length_a 21.394265
_cell_length_b 15.007489
_cell_length_c 17.811032
_cell_angle_alpha 90.000000
_cell_angle_beta 159.065022
_cell_angle_gamma 90.000000
_cell_volume 2043.325378
_symmetry_space_group_name_H-M "C 2/C"
_symmetry_group_IT_number 15
_symmetry_cell_setting 'monoclinic'
loop_
_space_group_symop_operation_xyz
x,y,z
-x,y,1/2-z
-x,-y,-z
x,-y,1/2+z
1/2+x,1/2+y,z
1/2-x,1/2+y,1/2-z
1/2-x,1/2-y,-z
1/2+x,1/2-y,1/2+z
loop_
_atom_site_type_symbol
_atom_site_label
_atom_site_fract_x
_atom_site_fract_y
_atom_site_fract_z
Si Si1 0.979364 0.102507 0.135802
Si Si2 0.246900 0.049043 0.174950
Si Si3 0.438396 0.924757 0.038374
Si Si4 0.318626 0.237426 0.662060
Si Si5 0.500000 0.031557 0.250000
Si Si6 0.205910 0.156891 0.990777
O O1 0.000000 0.086859 0.250000
O O2 0.130142 0.160323 0.264251
O O3 0.822716 0.175005 0.956560
O O4 0.923586 0.011260 0.033576
O O5 0.290214 0.070201 0.309104
O O6 0.403167 0.985729 0.319055
O O7 0.240443 0.139166 0.117981
O O8 0.513330 0.827063 0.140561
O O9 0.411378 0.972019 0.087157
O O10 0.250000 0.250000 0.500000
O O11 0.658599 0.089075 0.395235
O O12 0.000000 0.139414 0.750000
O O13 0.250000 0.250000 0.000000
#
# Coordination Sequence:
#
# PCOD9289926 Si02
#       6
#     8   8   8   8   4   8
#     4   9  17  32  54  81 114 152 195 245 304 371
#     4   9  19  38  59  86 125 165 206 261 324 377
#     4   9  19  37  60  87 125 168 203 257 330 382
#     4   9  18  31  54  85 112 151 196 248 304 372
#     4  10  22  40  70  90 124 174 212 266 330 396
#     4  11  22  42  67  93 125 169 223 266 320 386
#
# _framework density 21.533528
#
# number of rings (size 3 to 8) (size 9 to 14) (size 15 to 20)
#    0.000    2.545    0.909    0.545    3.818    1.455 
#    3.273    2.727    0.000    0.000    0.000    0.000 
#    0.000    0.000    0.000    0.000    0.000    0.000 
#
# Total GULP energy -122585.768325 kJ/mol
# GULP energy per Si atom -5572.080378 kJ/mol
# Density = 2.148452 g / cm^3
# Si number density = 21.533528 Si / 1000 Ang^3
#
#
#
# Elastic Constant Matrix: (Units=GPa)
#
#
# Indices 1 2 3 4 5 6 
#
# 1 78.7616 54.8123 56.9306 -0.0013 -22.0919 0.0000
# 2 54.8123 146.3996 73.7644 -0.0028 -27.5777 -0.0016
# 3 56.9306 73.7644 132.0261 -0.0021 -24.7717 -0.0014
# 4 -0.0013 -0.0028 -0.0021 41.6834 -0.0020 4.2694
# 5 -22.0919 -27.5777 -24.7717 -0.0020 45.5294 -0.0012
# 6 0.0000 -0.0016 -0.0014 4.2694 -0.0012 24.3420
#
#
#
# Elastic Compliance Matrix: (Units=1/GPa)
#
#
# Indices 1 2 3 4 5 6 
#
# 1 0.021109 -0.004024 -0.006002 0.000000 0.004539 0.000000
# 2 -0.004024 0.010710 -0.003784 0.000000 0.002476 0.000001
# 3 -0.006002 -0.003784 0.012585 0.000000 0.001643 0.000000
# 4 0.000000 0.000000 0.000000 0.024429 0.000002 -0.004285
# 5 0.004539 0.002476 0.001643 0.000002 0.026560 0.000001
# 6 0.000000 0.000001 0.000000 -0.004285 0.000001 0.041833
#
#
# Mechanical properties :
#
#
# Convention : Reuss Voigt Hill
#
# Bulk Modulus (GPa) = 59.58354 80.91132 70.24743
# Shear Modulus (GPa) = 29.33563 33.75629 31.54596
#
# Velocity S-wave (km/s) = 3.69497 3.96361 3.83164
# Velocity P-wave (km/s) = 6.77746 7.65526 7.22970
#
# Compressibility (1/GPa) = 0.01678316
#
# Stress axis : x y z
#
# Youngs Moduli (GPa) = 47.37388 93.36847 79.45898
#
# Poissons Ratio (x) = 0.37568 0.47695
# Poissons Ratio (y) = 0.19062 0.30070
# Poissons Ratio (z) = 0.28436 0.35334
#
# Static dielectric constant tensor:
#      x y z
#    x 1.762030 0.000000 0.116490 
#    y 0.000000 1.869190 0.000000 
#    z 0.116490 0.000000 1.847330 
# 
# From -- ./inp_files/66339.got.cif
#   From: 2010.05.17/outbox.cif.g08.bks.cpg/sg15_34_cif.got.tgz:66339.got - 2010.06.03 18:47:42.
