data_PCOD9289146
_publ_section_title
;
Structure prediction by ZEFSAII (Michael W. Deem and Ramdas Pophale) SiO2 
 PCOD9289146
Probable space group: C 2/C
;
_chemical_formula_sum "Si O2"
_cell_formula_units_Z 56
_cell_length_a 23.300543
_cell_length_b 14.806940
_cell_length_c 9.194502
_cell_angle_alpha 90.000000
_cell_angle_beta 59.004802
_cell_angle_gamma 90.000000
_cell_volume 2719.236830
_symmetry_space_group_name_H-M "C 2/C"
_symmetry_group_IT_number 15
_symmetry_cell_setting 'monoclinic'
loop_
_space_group_symop_operation_xyz
x,y,z
-x,y,1/2-z
-x,-y,-z
x,-y,1/2+z
1/2+x,1/2+y,z
1/2-x,1/2+y,1/2-z
1/2-x,1/2-y,-z
1/2+x,1/2-y,1/2+z
loop_
_atom_site_type_symbol
_atom_site_label
_atom_site_fract_x
_atom_site_fract_y
_atom_site_fract_z
Si Si1 0.255026 0.083999 0.391807
Si Si2 0.926546 0.118511 0.159782
Si Si3 0.038983 0.794590 0.336867
Si Si4 0.668384 0.751773 0.837360
Si Si5 0.173749 0.732840 0.648404
Si Si6 0.723947 0.097403 0.805960
Si Si7 0.900478 0.033146 0.899757
O O1 0.274377 0.178650 0.291606
O O2 0.288776 0.088551 0.506467
O O3 0.177251 0.058912 0.517477
O O4 0.276709 0.001616 0.261602
O O5 0.860504 0.179668 0.240342
O O6 0.922536 0.063993 0.313752
O O7 0.919561 0.044574 0.042265
O O8 0.988026 0.182113 0.034369
O O9 0.106088 0.748894 0.308909
O O10 0.062400 0.889902 0.239511
O O11 0.000000 0.749850 0.250000
O O12 0.704959 0.653295 0.797934
O O13 0.641885 0.781888 0.030841
O O14 0.250000 0.750000 0.500000
O O15 0.174761 0.656300 0.769022
#
# Coordination Sequence:
#
# PCOD9289146 Si02
#       7
#     8   8   8   8   8   8   8
#     4  12  23  38  70  95 135 172 219 279 340 394
#     4  11  24  39  61  91 137 176 219 269 333 397
#     4  10  24  40  60  92 133 183 225 261 320 398
#     4  11  23  43  65  96 136 178 227 272 334 394
#     4  10  22  40  61  89 129 167 220 278 335 388
#     4  11  23  40  62 101 129 169 219 280 340 392
#     4  11  21  38  58  91 131 172 217 265 326 400
#
# _framework density 20.594014000000001
#
# number of rings (size 3 to 8) (size 9 to 14) (size 15 to 20)
#    0.000    1.143    1.429    6.000    6.000    0.571 
#    0.000    0.000    0.000    0.857    0.000    0.000 
#    0.000    0.000    0.000    0.000    0.000    0.000 
#
# Total GULP energy -156358.411284 kJ/mol
# GULP energy per Si atom -5584.228974 kJ/mol
# Density = 2.054714 g / cm^3
# Si number density = 20.594014 Si / 1000 Ang^3
#
#
#
# Elastic Constant Matrix: (Units=GPa)
#
#
# Indices 1 2 3 4 5 6 
#
# 1 86.1975 18.4986 10.6804 0.0000 8.2438 0.0000
# 2 18.4986 50.3643 17.6039 0.0000 -2.2156 0.0000
# 3 10.6804 17.6039 78.4651 0.0000 7.1631 0.0000
# 4 0.0000 0.0000 0.0000 27.7230 0.0000 13.2214
# 5 8.2438 -2.2156 7.1631 0.0000 33.8489 0.0000
# 6 0.0000 0.0000 0.0000 13.2214 0.0000 13.2263
#
#
#
# Elastic Compliance Matrix: (Units=1/GPa)
#
#
# Indices 1 2 3 4 5 6 
#
# 1 0.013002 -0.004791 -0.000385 0.000000 -0.003399 0.000000
# 2 -0.004791 0.023516 -0.004967 0.000000 0.003757 0.000000
# 3 -0.000385 -0.004967 0.014207 0.000000 -0.003238 0.000000
# 4 0.000000 0.000000 0.000000 0.068934 0.000000 -0.068909
# 5 -0.003399 0.003757 -0.003238 0.000000 0.031302 0.000000
# 6 0.000000 0.000000 0.000000 -0.068909 0.000000 0.144490
#
#
# Mechanical properties :
#
#
# Convention : Reuss Voigt Hill
#
# Bulk Modulus (GPa) = 32.85074 34.28806 33.56940
# Shear Modulus (GPa) = 15.34294 26.17590 20.75942
#
# Velocity S-wave (km/s) = 2.73247 3.56904 3.17840
# Velocity P-wave (km/s) = 5.09327 5.80256 5.45945
#
# Compressibility (1/GPa) = 0.03044072
#
# Stress axis : x y z
#
# Youngs Moduli (GPa) = 76.91068 42.52373 70.38884
#
# Poissons Ratio (x) = 0.20372 0.02708
# Poissons Ratio (y) = 0.36845 0.34961
# Poissons Ratio (z) = 0.02959 0.21121
#
# Static dielectric constant tensor:
#      x y z
#    x 1.804220 0.000000 0.034490 
#    y 0.000000 1.700660 0.000000 
#    z 0.034490 0.000000 1.790820 
# 
# From -- ./inp_files/61812.got.cif
#   From: 2010.05.17/outbox.cif.g08.bks.cpg/sg15_31_cif.got.tgz:61812.got - 2010.06.03 18:47:42.
