data_PCOD9289516
_publ_section_title
;
Structure prediction by ZEFSAII (Michael W. Deem and Ramdas Pophale) SiO2 
 PCOD9289516
Probable space group: C 2/C
;
_chemical_formula_sum "Si O2"
_cell_formula_units_Z 64
_cell_length_a 31.263474
_cell_length_b 10.429523
_cell_length_c 18.312977
_cell_angle_alpha 90.000000
_cell_angle_beta 148.076807
_cell_angle_gamma 90.000000
_cell_volume 3157.455610
_symmetry_space_group_name_H-M "C 2/C"
_symmetry_group_IT_number 15
_symmetry_cell_setting 'monoclinic'
loop_
_space_group_symop_operation_xyz
x,y,z
-x,y,1/2-z
-x,-y,-z
x,-y,1/2+z
1/2+x,1/2+y,z
1/2-x,1/2+y,1/2-z
1/2-x,1/2-y,-z
1/2+x,1/2-y,1/2+z
loop_
_atom_site_type_symbol
_atom_site_label
_atom_site_fract_x
_atom_site_fract_y
_atom_site_fract_z
Si Si1 0.355674 0.549948 0.870685
Si Si2 0.015987 0.155908 0.530860
Si Si3 0.760969 0.107074 0.117794
Si Si4 0.258292 0.106785 0.671616
Si Si5 0.497371 0.405121 0.160474
Si Si6 0.635697 0.389022 0.877187
Si Si7 0.417900 0.101376 0.675150
Si Si8 0.568033 0.088914 0.633294
O O1 0.407922 0.667009 0.913610
O O2 0.323496 0.476081 0.753790
O O3 0.275666 0.587132 0.797856
O O4 0.412506 0.464036 0.006926
O O5 0.024273 0.182280 0.629896
O O6 0.952176 0.260092 0.409736
O O7 0.000000 0.000000 0.500000
O O8 0.755879 0.242865 0.150203
O O9 0.802375 0.130706 0.099566
O O10 0.669900 0.051016 0.979563
O O11 0.191666 0.049477 0.520327
O O12 0.346873 0.058913 0.781506
O O13 0.500000 0.359963 0.250000
O O14 0.561865 0.519885 0.252082
O O15 0.597307 0.255279 0.847637
O O16 0.500000 0.070036 0.750000
O O17 0.427223 0.066435 0.773447
O O18 0.500000 0.000000 0.500000
#
# Coordination Sequence:
#
# PCOD9289516 Si02
#       8
#     8   8   8   8   8   8   8   8
#     4  11  23  35  62  93 126 159 211 267 321 378
#     4  10  22  40  65  94 124 162 213 268 319 369
#     4  11  22  40  63  91 125 165 217 273 316 368
#     4  11  22  38  59  91 124 168 215 263 318 378
#     4  11  20  35  62  95 126 159 205 264 324 379
#     4  11  19  38  63  92 125 159 216 273 319 366
#     4  11  23  37  62  93 127 168 214 267 322 380
#     4  12  26  43  64  92 134 175 212 263 325 393
#
# _framework density 20.269486000000001
#
# number of rings (size 3 to 8) (size 9 to 14) (size 15 to 20)
#    0.000    1.000    5.000    4.125    7.000    0.000 
#    0.000    0.625    2.750    1.500    0.000    0.000 
#    0.000    0.000    0.000    0.000    0.000    0.000 
#
# Total GULP energy -178403.733108 kJ/mol
# GULP energy per Si atom -5575.116660 kJ/mol
# Density = 2.022335 g / cm^3
# Si number density = 20.269486 Si / 1000 Ang^3
#
#
#
# Elastic Constant Matrix: (Units=GPa)
#
#
# Indices 1 2 3 4 5 6 
#
# 1 146.7300 0.3536 35.0445 0.0000 5.3498 0.0000
# 2 0.3536 12.7717 13.4352 0.0000 3.0882 0.0000
# 3 35.0445 13.4352 135.1444 0.0000 9.3287 0.0000
# 4 0.0000 0.0000 0.0000 30.0023 0.0000 2.7506
# 5 5.3498 3.0882 9.3287 0.0000 37.8170 0.0000
# 6 0.0000 0.0000 0.0000 2.7506 0.0000 8.4867
#
#
#
# Elastic Compliance Matrix: (Units=1/GPa)
#
#
# Indices 1 2 3 4 5 6 
#
# 1 0.007329 0.002139 -0.002065 0.000000 -0.000702 0.000000
# 2 0.002139 0.089038 -0.009037 0.000000 -0.005344 0.000000
# 3 -0.002065 -0.009037 0.008914 0.000000 -0.001169 0.000000
# 4 0.000000 0.000000 0.000000 0.034352 0.000000 -0.011134
# 5 -0.000702 -0.005344 -0.001169 0.000000 0.027267 0.000000
# 6 0.000000 0.000000 0.000000 -0.011134 0.000000 0.121440
#
#
# Mechanical properties :
#
#
# Convention : Reuss Voigt Hill
#
# Bulk Modulus (GPa) = 11.44765 43.59032 27.51899
# Shear Modulus (GPa) = 14.90832 31.64872 23.27852
#
# Velocity S-wave (km/s) = 2.71496 3.95574 3.39256
# Velocity P-wave (km/s) = 3.93548 6.51275 5.38070
#
# Compressibility (1/GPa) = 0.08735414
#
# Stress axis : x y z
#
# Youngs Moduli (GPa) = 136.44829 11.23120 112.18346
#
# Poissons Ratio (x) = -0.02402 0.23161
# Poissons Ratio (y) = -0.29182 1.01383
# Poissons Ratio (z) = 0.28171 0.10150
#
# Static dielectric constant tensor:
#      x y z
#    x 1.840280 0.000000 -0.034520 
#    y 0.000000 1.716670 0.000000 
#    z -0.034520 0.000000 1.838420 
# 
# From -- ./inp_files/225213.got.cif
#   From: 2010.05.17/outbox.cif.g08.bks.cpg/sg15_113_cif.got.tgz:225213.got - 2010.06.03 18:47:42.
