data_PCOD9289435
_publ_section_title
;
Structure prediction by ZEFSAII (Michael W. Deem and Ramdas Pophale) SiO2 
 PCOD9289435
Probable space group: C 2/C
;
_chemical_formula_sum "Si O2"
_cell_formula_units_Z 52
_cell_length_a 20.244982
_cell_length_b 26.087890
_cell_length_c 13.682684
_cell_angle_alpha 90.000000
_cell_angle_beta 157.736265
_cell_angle_gamma 90.000000
_cell_volume 2737.905237
_symmetry_space_group_name_H-M "C 2/C"
_symmetry_group_IT_number 15
_symmetry_cell_setting 'monoclinic'
loop_
_space_group_symop_operation_xyz
x,y,z
-x,y,1/2-z
-x,-y,-z
x,-y,1/2+z
1/2+x,1/2+y,z
1/2-x,1/2+y,1/2-z
1/2-x,1/2-y,-z
1/2+x,1/2-y,1/2+z
loop_
_atom_site_type_symbol
_atom_site_label
_atom_site_fract_x
_atom_site_fract_y
_atom_site_fract_z
Si Si1 0.355112 0.266697 0.338077
Si Si2 0.835668 0.612050 0.477839
Si Si3 0.351928 0.130368 0.966971
Si Si4 0.747160 0.722213 0.393423
Si Si5 0.019745 0.941020 0.055972
Si Si6 0.644241 0.850062 0.715716
Si Si7 0.000000 0.094802 0.750000
O O1 0.228878 0.312386 0.132976
O O2 0.550683 0.284947 0.586712
O O3 0.337530 0.254024 0.430079
O O4 0.335795 0.211527 0.260528
O O5 0.820412 0.666047 0.512006
O O6 0.866761 0.628115 0.408604
O O7 0.649702 0.585189 0.224283
O O8 0.000000 0.583085 0.750000
O O9 0.194963 0.089107 0.760804
O O10 0.500000 0.120211 0.250000
O O11 0.467263 0.132941 0.026688
O O12 0.750000 0.750000 0.500000
O O13 0.005442 0.935237 0.154478
O O14 0.000000 0.000000 0.000000
O O15 0.821882 0.872185 0.005041
#
# Coordination Sequence:
#
# PCOD9289435 Si02
#       7
#     8   8   8   8   8   8   4
#     4  11  22  35  57  97 130 170 212 255 315 389
#     4  10  22  42  62  89 129 174 212 260 322 379
#     4  12  24  41  65  97 130 168 221 271 318 387
#     4  11  20  36  57  88 132 174 209 253 309 378
#     4  11  25  48  69  94 126 162 220 277 326 381
#     4  10  22  40  64  94 136 169 215 256 323 390
#     4  10  22  46  70  94 126 170 206 274 324 386
#
# _framework density 18.992622999999998
#
# number of rings (size 3 to 8) (size 9 to 14) (size 15 to 20)
#    0.000    1.231    4.615    2.308    1.077    1.231 
#    2.769    1.538    0.000    0.000    0.000    0.000 
#    0.000    0.000    0.000    0.000    0.000    0.000 
#
# Total GULP energy -145069.614089 kJ/mol
# GULP energy per Si atom -5579.600542 kJ/mol
# Density = 1.894939 g / cm^3
# Si number density = 18.992623 Si / 1000 Ang^3
#
#
#
# Elastic Constant Matrix: (Units=GPa)
#
#
# Indices 1 2 3 4 5 6 
#
# 1 63.6120 49.2195 29.8828 0.0000 18.5988 0.0000
# 2 49.2195 129.1897 69.6282 0.0000 9.4981 0.0000
# 3 29.8828 69.6282 165.5269 0.0000 14.7261 0.0000
# 4 0.0000 0.0000 0.0000 13.8584 0.0000 -2.9390
# 5 18.5988 9.4981 14.7261 0.0000 36.7106 0.0000
# 6 0.0000 0.0000 0.0000 -2.9390 0.0000 19.8909
#
#
#
# Elastic Compliance Matrix: (Units=1/GPa)
#
#
# Indices 1 2 3 4 5 6 
#
# 1 0.025890 -0.009141 0.000132 0.000000 -0.010805 0.000000
# 2 -0.009141 0.013268 -0.004187 0.000000 0.002878 0.000000
# 3 0.000132 -0.004187 0.007973 0.000000 -0.002182 0.000000
# 4 0.000000 0.000000 0.000000 0.074493 0.000000 0.011007
# 5 -0.010805 0.002878 -0.002182 0.000000 0.032845 0.000000
# 6 0.000000 0.000000 0.000000 0.011007 0.000000 0.051900
#
#
# Mechanical properties :
#
#
# Convention : Reuss Voigt Hill
#
# Bulk Modulus (GPa) = 48.21609 72.86552 60.54080
# Shear Modulus (GPa) = 20.86180 28.06519 24.46350
#
# Velocity S-wave (km/s) = 3.31783 3.84824 3.59284
# Velocity P-wave (km/s) = 6.33397 7.62848 7.01117
#
# Compressibility (1/GPa) = 0.02073997
#
# Stress axis : x y z
#
# Youngs Moduli (GPa) = 38.62543 75.36906 125.42655
#
# Poissons Ratio (x) = 0.68891 -0.01659
# Poissons Ratio (y) = 0.35306 0.52516
# Poissons Ratio (z) = -0.00511 0.31557
#
# Static dielectric constant tensor:
#      x y z
#    x 1.728420 0.000000 0.043870 
#    y 0.000000 1.667230 0.000000 
#    z 0.043870 0.000000 1.719400 
# 
# From -- ./inp_files/169882.got.cif
#   From: 2010.05.17/outbox.cif.g08.bks.cpg/sg15_85_cif.got.tgz:169882.got - 2010.06.03 18:47:42.
