data_PCOD9289784
_publ_section_title
;
Structure prediction by ZEFSAII (Michael W. Deem and Ramdas Pophale) SiO2 
 PCOD9289784
Probable space group: C 2/C
;
_chemical_formula_sum "Si O2"
_cell_formula_units_Z 36
_cell_length_a 17.395454
_cell_length_b 21.848919
_cell_length_c 5.237271
_cell_angle_alpha 90.000000
_cell_angle_beta 126.776229
_cell_angle_gamma 90.000000
_cell_volume 1594.381870
_symmetry_space_group_name_H-M "C 2/C"
_symmetry_group_IT_number 15
_symmetry_cell_setting 'monoclinic'
loop_
_space_group_symop_operation_xyz
x,y,z
-x,y,1/2-z
-x,-y,-z
x,-y,1/2+z
1/2+x,1/2+y,z
1/2-x,1/2+y,1/2-z
1/2-x,1/2-y,-z
1/2+x,1/2-y,1/2+z
loop_
_atom_site_type_symbol
_atom_site_label
_atom_site_fract_x
_atom_site_fract_y
_atom_site_fract_z
Si Si1 0.442399 0.630718 0.874649
Si Si2 0.500000 0.838301 0.250000
Si Si3 0.891440 0.620942 0.933097
Si Si4 0.142329 0.258837 0.884984
Si Si5 0.720693 0.539607 0.752705
O O1 0.500000 0.600815 0.750000
O O2 0.397821 0.691213 0.654893
O O3 0.360171 0.587284 0.822626
O O4 0.500000 0.647108 0.250000
O O5 0.415669 0.883370 0.184091
O O6 0.563145 0.792340 0.549259
O O7 0.854433 0.691130 0.883714
O O8 0.000000 0.615510 0.250000
O O9 0.820761 0.576127 0.933617
O O10 0.250000 0.250000 0.000000
O O11 0.712894 0.512357 0.452637
#
# Coordination Sequence:
#
# PCOD9289784 Si02
#       5
#     8   4   8   8   8
#     4  12  26  47  75 107 146 188 237 298 367 430
#     4  10  22  40  68 104 140 180 230 292 374 446
#     4  10  24  44  69 103 142 180 233 300 364 432
#     4  11  22  41  71 107 143 182 230 295 374 438
#     4  12  29  49  71 102 139 195 253 294 349 421
#
# _framework density 22.579281999999999
#
# number of rings (size 3 to 8) (size 9 to 14) (size 15 to 20)
#    0.000    0.889    3.333    3.333    6.222    6.222 
#    0.000    0.000    0.000    0.000    0.000    0.000 
#    0.000    0.000    0.000    0.000    0.000    0.000 
#
# Total GULP energy -100274.342608 kJ/mol
# GULP energy per Si atom -5570.796812 kJ/mol
# Density = 2.252789 g / cm^3
# Si number density = 22.579282 Si / 1000 Ang^3
#
#
#
# Elastic Constant Matrix: (Units=GPa)
#
#
# Indices 1 2 3 4 5 6 
#
# 1 81.3039 -60.8615 -35.2501 0.0000 9.3756 0.0000
# 2 -60.8615 -44.3720 -53.4060 0.0000 7.5317 0.0000
# 3 -35.2501 -53.4060 -4.7747 0.0000 1.2310 0.0000
# 4 0.0000 0.0000 0.0000 23.8149 0.0000 -3.6158
# 5 9.3756 7.5317 1.2310 0.0000 35.1395 0.0000
# 6 0.0000 0.0000 0.0000 -3.6158 0.0000 70.8339
#
#
#
# Elastic Compliance Matrix: (Units=1/GPa)
#
#
# Indices 1 2 3 4 5 6 
#
# 1 0.007140 -0.004314 -0.004668 0.000000 -0.000817 0.000000
# 2 -0.004314 0.004419 -0.017365 0.000000 0.000812 0.000000
# 3 -0.004668 -0.017365 0.020347 0.000000 0.004255 0.000000
# 4 0.000000 0.000000 0.000000 0.042318 0.000000 0.002160
# 5 -0.000817 0.000812 0.004255 0.000000 0.028353 0.000000
# 6 0.000000 0.000000 0.000000 0.002160 0.000000 0.014228
#
#
# Mechanical properties :
#
#
# Convention : Reuss Voigt Hill
#
# Bulk Modulus (GPa) = -48.10542 -29.65311 -38.87926
# Shear Modulus (GPa) = 30.75615 38.06933 34.41274
#
# Velocity S-wave (km/s) = 3.69472 4.11058 3.90819
# Velocity P-wave (km/s) = 1.77484 3.06069 1.76320
#
# Compressibility (1/GPa) = -0.02078768
#
# Stress axis : x y z
#
# Youngs Moduli (GPa) = 140.04924 226.30194 49.14831
#
# Poissons Ratio (x) = 0.97637 0.22941
# Poissons Ratio (y) = 0.60423 0.85344
# Poissons Ratio (z) = 0.65371 3.92964
#
# Static dielectric constant tensor:
#      x y z
#    x 2.116760 0.000000 -0.297750 
#    y 0.000000 1.857330 0.000000 
#    z -0.297750 0.000000 2.156120 
# 
# From -- ./inp_files/6840.got.cif
#   From: 2010.05.17/outbox.cif.g08.bks.cpg/sg15_4_cif.got.tgz:6840.got - 2010.06.03 18:47:42.
