data_PCOD9289935
_publ_section_title
;
Structure prediction by ZEFSAII (Michael W. Deem and Ramdas Pophale) SiO2 
 PCOD9289935
Probable space group: C 2/C
;
_chemical_formula_sum "Si O2"
_cell_formula_units_Z 56
_cell_length_a 8.422384
_cell_length_b 18.026388
_cell_length_c 24.640057
_cell_angle_alpha 90.000000
_cell_angle_beta 49.000826
_cell_angle_gamma 90.000000
_cell_volume 2823.389312
_symmetry_space_group_name_H-M "C 2/C"
_symmetry_group_IT_number 15
_symmetry_cell_setting 'monoclinic'
loop_
_space_group_symop_operation_xyz
x,y,z
-x,y,1/2-z
-x,-y,-z
x,-y,1/2+z
1/2+x,1/2+y,z
1/2-x,1/2+y,1/2-z
1/2-x,1/2-y,-z
1/2+x,1/2-y,1/2+z
loop_
_atom_site_type_symbol
_atom_site_label
_atom_site_fract_x
_atom_site_fract_y
_atom_site_fract_z
Si Si1 0.000000 0.245010 0.250000
Si Si2 0.000000 0.403363 0.750000
Si Si3 0.981722 0.360387 0.161051
Si Si4 0.807100 0.034951 0.701195
Si Si5 0.293260 0.836671 0.991122
Si Si6 0.049301 0.302970 0.836383
Si Si7 0.332387 0.644145 0.864736
Si Si8 0.601132 0.431509 0.445643
O O1 0.941405 0.295812 0.315462
O O2 0.200720 0.198821 0.222828
O O3 0.197829 0.454082 0.724649
O O4 0.944305 0.350276 0.812413
O O5 0.865507 0.417168 0.227694
O O6 0.807834 0.337725 0.155920
O O7 0.176835 0.397551 0.085528
O O8 0.843819 0.050454 0.629263
O O9 0.026138 0.069993 0.675463
O O10 0.485431 0.842641 0.906861
O O11 0.250000 0.750000 0.000000
O O12 0.308132 0.865168 0.049341
O O13 0.084797 0.872473 0.013042
O O14 0.977350 0.216408 0.845868
O O15 0.500000 0.500000 0.500000
#
# Coordination Sequence:
#
# PCOD9289935 Si02
#       8
#     4   4   8   8   8   8   8   8
#     4  12  21  40  68  97 128 174 224 272 317 400
#     4  12  23  40  62  97 136 166 206 280 339 376
#     4  12  20  39  69  96 121 166 239 265 305 393
#     4  11  21  40  64  93 127 170 222 265 317 393
#     4   9  20  40  60  85 128 163 208 262 324 383
#     4  11  23  41  64  97 134 168 210 277 342 378
#     4  10  22  40  70  94 119 176 226 265 316 406
#     4  11  21  38  63  91 123 175 210 261 331 392
#
# _framework density 19.834319000000001
#
# number of rings (size 3 to 8) (size 9 to 14) (size 15 to 20)
#    0.000    1.143    4.286    3.857    0.000    0.000 
#    2.571   12.143    0.000    0.000    0.000    0.000 
#    0.000    0.000    0.000    0.000    0.000    0.000 
#
# Total GULP energy -155987.212096 kJ/mol
# GULP energy per Si atom -5570.971861 kJ/mol
# Density = 1.978917 g / cm^3
# Si number density = 19.834319 Si / 1000 Ang^3
#
#
#
# Elastic Constant Matrix: (Units=GPa)
#
#
# Indices 1 2 3 4 5 6 
#
# 1 79.0795 26.0529 15.3317 0.0009 5.4500 -0.0014
# 2 26.0529 74.2187 36.9724 0.0002 -5.9869 -0.0002
# 3 15.3317 36.9724 90.7535 0.0006 -5.1250 -0.0003
# 4 0.0009 0.0002 0.0006 30.1326 -0.0007 9.1283
# 5 5.4500 -5.9869 -5.1250 -0.0007 27.0474 0.0013
# 6 -0.0014 -0.0002 -0.0003 9.1283 0.0013 2.8515
#
#
#
# Elastic Compliance Matrix: (Units=1/GPa)
#
#
# Indices 1 2 3 4 5 6 
#
# 1 0.014779 -0.005228 -0.000607 -0.000102 -0.004250 0.000336
# 2 -0.005228 0.018918 -0.006598 0.000045 0.003991 -0.000147
# 3 -0.000607 -0.006598 0.013882 -0.000005 0.001292 0.000016
# 4 -0.000102 0.000045 -0.000005 1.098266 0.000224 -3.515837
# 5 -0.004250 0.003991 0.001292 0.000224 0.038957 -0.000736
# 6 0.000336 -0.000147 0.000016 -3.515837 -0.000736 11.605809
#
#
# Mechanical properties :
#
#
# Convention : Reuss Voigt Hill
#
# Bulk Modulus (GPa) = 44.02939 44.52953 44.27946
# Shear Modulus (GPa) = 0.38992 23.05261 11.72126
#
# Velocity S-wave (km/s) = 0.44387 3.41289 2.43360
# Velocity P-wave (km/s) = 4.74441 6.16684 5.50179
#
# Compressibility (1/GPa) = 0.02271210
#
# Stress axis : x y z
#
# Youngs Moduli (GPa) = 67.66583 52.85985 72.03324
#
# Poissons Ratio (x) = 0.27637 0.04370
# Poissons Ratio (y) = 0.35378 0.47531
# Poissons Ratio (z) = 0.04105 0.34879
#
# Static dielectric constant tensor:
#      x y z
#    x 1.733880 0.000000 0.004510 
#    y 0.000000 1.710730 0.000000 
#    z 0.004510 0.000000 1.740590 
# 
# From -- ./inp_files/265499.got.cif
#   From: 2010.05.17/outbox.cif.g08.bks.cpg/sg15_133_cif.got.tgz:265499.got - 2010.06.03 18:47:42.
