data_PCOD9289243
_publ_section_title
;
Structure prediction by ZEFSAII (Michael W. Deem and Ramdas Pophale) SiO2 
 PCOD9289243
Probable space group: C 2/C
;
_chemical_formula_sum "Si O2"
_cell_formula_units_Z 64
_cell_length_a 17.230949
_cell_length_b 20.801559
_cell_length_c 16.112953
_cell_angle_alpha 90.000000
_cell_angle_beta 32.439554
_cell_angle_gamma 90.000000
_cell_volume 3097.966527
_symmetry_space_group_name_H-M "C 2/C"
_symmetry_group_IT_number 15
_symmetry_cell_setting 'monoclinic'
loop_
_space_group_symop_operation_xyz
x,y,z
-x,y,1/2-z
-x,-y,-z
x,-y,1/2+z
1/2+x,1/2+y,z
1/2-x,1/2+y,1/2-z
1/2-x,1/2-y,-z
1/2+x,1/2-y,1/2+z
loop_
_atom_site_type_symbol
_atom_site_label
_atom_site_fract_x
_atom_site_fract_y
_atom_site_fract_z
Si Si1 0.161324 0.038466 0.110667
Si Si2 0.895384 0.609211 0.015441
Si Si3 0.748412 0.684588 0.285863
Si Si4 0.596904 0.678037 0.895237
Si Si5 0.670450 0.814561 0.598252
Si Si6 0.632595 0.392049 0.187427
Si Si7 0.198597 0.596481 0.667846
Si Si8 0.623314 0.795663 0.101503
O O1 0.274189 0.072466 0.070966
O O2 0.000000 0.068861 0.250000
O O3 0.136616 0.968501 0.172754
O O4 0.229639 0.041425 0.955431
O O5 0.829886 0.626912 0.163277
O O6 0.902600 0.679432 0.965925
O O7 0.056772 0.580582 0.852937
O O8 0.574009 0.686757 0.428839
O O9 0.822569 0.753619 0.195641
O O10 0.775812 0.671243 0.357887
O O11 0.609454 0.636198 0.799304
O O12 0.684009 0.636352 0.885205
O O13 0.500000 0.806069 0.750000
O O14 0.750000 0.750000 0.500000
O O15 0.720548 0.866686 0.486193
O O16 0.500000 0.367839 0.250000
O O17 0.140086 0.645203 0.649972
O O18 0.500000 0.752238 0.250000
O O19 0.750000 0.750000 0.000000
#
# Coordination Sequence:
#
# PCOD9289243 Si02
#       8
#     8   8   8   8   8   8   8   8
#     4  10  22  44  69  92 129 175 224 270 327 391
#     4  10  22  40  62  93 130 169 214 269 324 389
#     4  12  24  39  65 100 136 168 216 270 330 398
#     4  12  24  40  66  98 135 171 215 270 329 393
#     4  12  24  41  66  92 129 173 219 271 335 385
#     4  11  24  46  66  94 127 175 223 275 328 386
#     4  10  22  40  64  91 130 172 214 270 326 388
#     4   9  18  32  52  82 119 160 199 246 312 380
#
# _framework density 20.658712000000001
#
# number of rings (size 3 to 8) (size 9 to 14) (size 15 to 20)
#    0.000    1.250    2.500    4.500    1.750    6.000 
#    2.250    2.500    0.000    0.000    0.000    0.000 
#    0.000    0.000    0.000    0.000    0.000    0.000 
#
# Total GULP energy -178326.257564 kJ/mol
# GULP energy per Si atom -5572.695549 kJ/mol
# Density = 2.061169 g / cm^3
# Si number density = 20.658712 Si / 1000 Ang^3
#
#
#
# Elastic Constant Matrix: (Units=GPa)
#
#
# Indices 1 2 3 4 5 6 
#
# 1 97.0443 8.8878 48.1798 0.0019 -1.5234 -0.0017
# 2 8.8878 42.9762 29.4424 0.0028 0.9104 -0.0015
# 3 48.1798 29.4424 148.4934 0.0053 -17.9118 -0.0042
# 4 0.0019 0.0028 0.0053 22.0627 -0.0032 2.0358
# 5 -1.5234 0.9104 -17.9118 -0.0032 53.7022 0.0012
# 6 -0.0017 -0.0015 -0.0042 2.0358 0.0012 26.4891
#
#
#
# Elastic Compliance Matrix: (Units=1/GPa)
#
#
# Indices 1 2 3 4 5 6 
#
# 1 0.012342 0.000348 -0.004201 0.000000 -0.001057 0.000000
# 2 0.000348 0.027219 -0.005797 -0.000003 -0.002385 0.000001
# 3 -0.004201 -0.005797 0.009632 -0.000001 0.003192 0.000001
# 4 0.000000 -0.000003 -0.000001 0.045649 0.000003 -0.003508
# 5 -0.001057 -0.002385 0.003192 0.000003 0.019696 -0.000001
# 6 0.000000 0.000001 0.000001 -0.003508 -0.000001 0.038021
#
#
# Mechanical properties :
#
#
# Convention : Reuss Voigt Hill
#
# Bulk Modulus (GPa) = 33.45391 51.28153 42.36772
# Shear Modulus (GPa) = 27.49920 33.91771 30.70845
#
# Velocity S-wave (km/s) = 3.65241 4.05632 3.85965
# Velocity P-wave (km/s) = 5.83228 6.84218 6.35732
#
# Compressibility (1/GPa) = 0.02989187
#
# Stress axis : x y z
#
# Youngs Moduli (GPa) = 81.02597 36.73906 103.82294
#
# Poissons Ratio (x) = -0.01278 0.43615
# Poissons Ratio (y) = -0.02820 0.60191
# Poissons Ratio (z) = 0.34038 0.21299
#
# Static dielectric constant tensor:
#      x y z
#    x 1.746680 0.000010 -0.012720 
#    y 0.000010 1.793930 0.000040 
#    z -0.012720 0.000040 1.864930 
# 
# From -- ./inp_files/164223.got.cif
#   From: 2010.05.17/outbox.cif.g08.bks.cpg/sg15_83_cif.got.tgz:164223.got - 2010.06.03 18:47:42.
