data_PCOD9289179
_publ_section_title
;
Structure prediction by ZEFSAII (Michael W. Deem and Ramdas Pophale) SiO2 
 PCOD9289179
Probable space group: C 2/C
;
_chemical_formula_sum "Si O2"
_cell_formula_units_Z 36
_cell_length_a 16.733491
_cell_length_b 15.903112
_cell_length_c 5.276799
_cell_angle_alpha 90.000000
_cell_angle_beta 95.530082
_cell_angle_gamma 90.000000
_cell_volume 1397.697490
_symmetry_space_group_name_H-M "C 2/C"
_symmetry_group_IT_number 15
_symmetry_cell_setting 'monoclinic'
loop_
_space_group_symop_operation_xyz
x,y,z
-x,y,1/2-z
-x,-y,-z
x,-y,1/2+z
1/2+x,1/2+y,z
1/2-x,1/2+y,1/2-z
1/2-x,1/2-y,-z
1/2+x,1/2-y,1/2+z
loop_
_atom_site_type_symbol
_atom_site_label
_atom_site_fract_x
_atom_site_fract_y
_atom_site_fract_z
Si Si1 0.757156 0.829914 0.324714
Si Si2 0.596780 0.447151 0.781895
Si Si3 0.868597 0.220196 0.459384
Si Si4 0.129731 0.552681 0.976278
Si Si5 0.000000 0.684509 0.750000
O O1 0.750000 0.750000 0.500000
O O2 0.690402 0.800811 0.090758
O O3 0.717947 0.909611 0.447917
O O4 0.841501 0.825258 0.207036
O O5 0.500000 0.435846 0.750000
O O6 0.617386 0.504833 0.545918
O O7 0.635698 0.355769 0.746683
O O8 0.955984 0.258194 0.444270
O O9 0.118221 0.483594 0.752299
O O10 0.065988 0.626298 0.904233
#
# Coordination Sequence:
#
# PCOD9289179 Si02
#       5
#     8   8   8   8   4
#     4  10  25  44  68  96 138 183 234 276 336 422
#     4  10  22  40  61  95 132 165 217 274 331 393
#     4  10  22  43  67  98 135 183 230 279 348 411
#     4  11  26  47  73 105 141 182 235 291 352 413
#     4  10  22  46  72 104 140 182 230 296 354 418
#
# _framework density 25.756647000000001
#
# number of rings (size 3 to 8) (size 9 to 14) (size 15 to 20)
#    0.000    1.778    1.111    0.667   12.444    1.778 
#    4.000    0.000    0.000    0.000    0.000    0.000 
#    0.000    0.000    0.000    0.000    0.000    0.000 
#
# Total GULP energy -100763.762537 kJ/mol
# GULP energy per Si atom -5597.986808 kJ/mol
# Density = 2.569802 g / cm^3
# Si number density = 25.756647 Si / 1000 Ang^3
#
#
#
# Elastic Constant Matrix: (Units=GPa)
#
#
# Indices 1 2 3 4 5 6 
#
# 1 107.1518 38.1109 22.6947 0.0000 -32.3563 0.0000
# 2 38.1109 108.3401 28.5311 0.0000 -8.8072 0.0000
# 3 22.6947 28.5311 116.8764 0.0000 -17.6490 0.0000
# 4 0.0000 0.0000 0.0000 18.1604 0.0000 -8.7961
# 5 -32.3563 -8.8072 -17.6490 0.0000 39.3063 0.0000
# 6 0.0000 0.0000 0.0000 -8.7961 0.0000 60.5878
#
#
#
# Elastic Compliance Matrix: (Units=1/GPa)
#
#
# Indices 1 2 3 4 5 6 
#
# 1 0.013976 -0.004023 -0.000140 0.000000 0.010540 0.000000
# 2 -0.004023 0.011076 -0.002197 0.000000 -0.001816 0.000000
# 3 -0.000140 -0.002197 0.009684 0.000000 0.003741 0.000000
# 4 0.000000 0.000000 0.000000 0.059230 0.000000 0.008599
# 5 0.010540 -0.001816 0.003741 0.000000 0.035391 0.000000
# 6 0.000000 0.000000 0.000000 0.008599 0.000000 0.017753
#
#
# Mechanical properties :
#
#
# Convention : Reuss Voigt Hill
#
# Bulk Modulus (GPa) = 45.41932 56.78240 51.10086
# Shear Modulus (GPa) = 29.90995 39.81302 34.86149
#
# Velocity S-wave (km/s) = 3.41141 3.93585 3.68298
# Velocity P-wave (km/s) = 5.76101 6.53821 6.16188
#
# Compressibility (1/GPa) = 0.02201706
#
# Stress axis : x y z
#
# Youngs Moduli (GPa) = 71.55234 90.28416 103.25833
#
# Poissons Ratio (x) = 0.36317 0.01447
# Poissons Ratio (y) = 0.28782 0.22686
# Poissons Ratio (z) = 0.01003 0.19835
#
# Static dielectric constant tensor:
#      x y z
#    x 2.161520 0.000000 0.135830 
#    y 0.000000 1.976720 0.000000 
#    z 0.135830 0.000000 2.076160 
# 
# From -- ./inp_files/9768.got.cif
#   From: 2010.05.17/outbox.cif.g08.bks.cpg/sg15_5_cif.got.tgz:9768.got - 2010.06.03 18:47:42.
