data_PCOD9289984
_publ_section_title
;
Structure prediction by ZEFSAII (Michael W. Deem and Ramdas Pophale) SiO2 
 PCOD9289984
Probable space group: C 2/C
;
_chemical_formula_sum "Si O2"
_cell_formula_units_Z 44
_cell_length_a 19.995385
_cell_length_b 6.631475
_cell_length_c 14.435259
_cell_angle_alpha 90.000000
_cell_angle_beta 80.765143
_cell_angle_gamma 90.000000
_cell_volume 1889.290408
_symmetry_space_group_name_H-M "C 2/C"
_symmetry_group_IT_number 15
_symmetry_cell_setting 'monoclinic'
loop_
_space_group_symop_operation_xyz
x,y,z
-x,y,1/2-z
-x,-y,-z
x,-y,1/2+z
1/2+x,1/2+y,z
1/2-x,1/2+y,1/2-z
1/2-x,1/2-y,-z
1/2+x,1/2-y,1/2+z
loop_
_atom_site_type_symbol
_atom_site_label
_atom_site_fract_x
_atom_site_fract_y
_atom_site_fract_z
Si Si1 0.000000 0.477848 0.750000
Si Si2 0.597316 0.732667 0.319981
Si Si3 0.289822 0.036939 0.264335
Si Si4 0.607239 0.644836 0.689143
Si Si5 0.791796 0.773438 0.085664
Si Si6 0.581898 0.497096 0.493438
O O1 0.966729 0.623908 0.682265
O O2 0.945555 0.327869 0.804878
O O3 0.587559 0.517894 0.271596
O O4 0.605790 0.684818 0.425270
O O5 0.657952 0.850963 0.256677
O O6 0.325118 0.237658 0.296859
O O7 0.372350 0.306628 0.050705
O O8 0.234027 0.966934 0.349647
O O9 0.775688 0.406143 0.660813
O O10 0.895536 0.030827 0.906741
O O11 0.750000 0.750000 0.000000
O O12 0.500000 0.500000 0.500000
#
# Coordination Sequence:
#
# PCOD9289984 Si02
#       6
#     4   8   8   8   8   8
#     4  10  22  40  72 100 152 200 242 304 380 452
#     4  11  23  46  70 107 148 195 252 312 371 460
#     4  11  27  49  76 106 149 202 259 317 386 456
#     4  11  24  45  71 106 150 199 246 309 383 454
#     4  12  28  49  79 113 152 203 265 321 388 466
#     4  12  26  44  76 109 153 194 251 316 384 467
#
# _framework density 23.289166000000002
#
# number of rings (size 3 to 8) (size 9 to 14) (size 15 to 20)
#    0.000    0.727    1.818    4.909    7.636    2.909 
#    0.000    0.000    0.000    0.000    0.000    0.000 
#    0.000    0.000    0.000    0.000    0.000    0.000 
#
# Total GULP energy -123013.394052 kJ/mol
# GULP energy per Si atom -5591.517911 kJ/mol
# Density = 2.323616 g / cm^3
# Si number density = 23.289166 Si / 1000 Ang^3
#
#
#
# Elastic Constant Matrix: (Units=GPa)
#
#
# Indices 1 2 3 4 5 6 
#
# 1 109.8911 31.0449 50.9250 0.0000 -6.7149 0.0000
# 2 31.0449 91.9451 17.0902 0.0000 -11.8573 0.0000
# 3 50.9250 17.0902 108.0137 0.0000 14.2604 0.0000
# 4 0.0000 0.0000 0.0000 40.7283 0.0000 0.8136
# 5 -6.7149 -11.8573 14.2604 0.0000 41.4112 0.0000
# 6 0.0000 0.0000 0.0000 0.8136 0.0000 48.3271
#
#
#
# Elastic Compliance Matrix: (Units=1/GPa)
#
#
# Indices 1 2 3 4 5 6 
#
# 1 0.012923 -0.002792 -0.006099 0.000000 0.003396 0.000000
# 2 -0.002792 0.012479 -0.001121 0.000000 0.003507 0.000000
# 3 -0.006099 -0.001121 0.013079 0.000000 -0.005814 0.000000
# 4 0.000000 0.000000 0.000000 0.024561 0.000000 -0.000414
# 5 0.003396 0.003507 -0.005814 0.000000 0.027705 0.000000
# 6 0.000000 0.000000 0.000000 -0.000414 0.000000 0.020699
#
#
# Mechanical properties :
#
#
# Convention : Reuss Voigt Hill
#
# Bulk Modulus (GPa) = 54.18247 56.44112 55.31179
# Shear Modulus (GPa) = 36.33125 40.14596 38.23861
#
# Velocity S-wave (km/s) = 3.95398 4.15638 4.05644
# Velocity P-wave (km/s) = 6.64536 6.87906 6.76322
#
# Compressibility (1/GPa) = 0.01845616
#
# Stress axis : x y z
#
# Youngs Moduli (GPa) = 77.38383 80.13290 76.46007
#
# Poissons Ratio (x) = 0.22369 0.46635
# Poissons Ratio (y) = 0.21602 0.08574
# Poissons Ratio (z) = 0.47199 0.08986
#
# Static dielectric constant tensor:
#      x y z
#    x 1.999570 0.000000 -0.060130 
#    y 0.000000 1.864430 0.000000 
#    z -0.060130 0.000000 1.854580 
# 
# From -- ./inp_files/217697.got.cif
#   From: 2010.05.17/outbox.cif.g08.bks.cpg/sg15_109_cif.got.tgz:217697.got - 2010.06.03 18:47:42.
