data_PCOD9289060
_publ_section_title
;
Structure prediction by ZEFSAII (Michael W. Deem and Ramdas Pophale) SiO2 
 PCOD9289060
Probable space group: C 2/C
;
_chemical_formula_sum "Si O2"
_cell_formula_units_Z 44
_cell_length_a 14.638765
_cell_length_b 17.587515
_cell_length_c 22.143297
_cell_angle_alpha 90.000000
_cell_angle_beta 160.866171
_cell_angle_gamma 90.000000
_cell_volume 1868.650346
_symmetry_space_group_name_H-M "C 2/C"
_symmetry_group_IT_number 15
_symmetry_cell_setting 'monoclinic'
loop_
_space_group_symop_operation_xyz
x,y,z
-x,y,1/2-z
-x,-y,-z
x,-y,1/2+z
1/2+x,1/2+y,z
1/2-x,1/2+y,1/2-z
1/2-x,1/2-y,-z
1/2+x,1/2-y,1/2+z
loop_
_atom_site_type_symbol
_atom_site_label
_atom_site_fract_x
_atom_site_fract_y
_atom_site_fract_z
Si Si1 0.215346 0.051724 0.096501
Si Si2 0.198022 0.224667 0.296594
Si Si3 0.443186 0.871151 0.850265
Si Si4 0.254834 0.529923 0.718820
Si Si5 0.000000 0.076080 0.750000
Si Si6 0.378472 0.839443 0.029213
O O1 0.500000 0.012343 0.250000
O O2 0.333936 0.118929 0.213520
O O3 0.022098 0.067863 0.918731
O O4 0.000000 0.000000 0.000000
O O5 0.348712 0.200233 0.330006
O O6 0.375790 0.215407 0.468244
O O7 0.066242 0.306352 0.200526
O O8 0.936463 0.167261 0.143801
O O9 0.302649 0.945346 0.794152
O O10 0.770126 0.877977 0.068590
O O11 0.326200 0.531796 0.692798
O O12 0.997207 0.581645 0.580030
#
# Coordination Sequence:
#
# PCOD9289060 Si02
#       6
#     8   8   8   8   4   8
#     4  10  22  40  59  89 132 168 206 252 313 382
#     4  10  23  42  65  93 126 164 212 261 313 372
#     4  11  24  39  66  94 127 165 207 260 315 375
#     4  11  24  39  66  94 127 165 207 260 315 375
#     4  12  22  38  62  94 130 158 212 254 318 370
#     4  10  23  42  65  93 126 164 212 261 313 372
#
# _framework density 23.546405
#
# number of rings (size 3 to 8) (size 9 to 14) (size 15 to 20)
#    0.000    1.455    3.636    0.545    5.091    1.455 
#    0.000    0.909    4.000    0.000    0.000    0.000 
#    0.000    0.000    0.000    0.000    0.000    0.000 
#
# Total GULP energy -122771.080726 kJ/mol
# GULP energy per Si atom -5580.503669 kJ/mol
# Density = 2.349281 g / cm^3
# Si number density = 23.546405 Si / 1000 Ang^3
#
#
#
# Elastic Constant Matrix: (Units=GPa)
#
#
# Indices 1 2 3 4 5 6 
#
# 1 95.5675 6.1831 19.9988 -0.0445 -1.2013 0.0545
# 2 6.1831 18.9466 -1.4943 -0.0276 8.0446 0.0370
# 3 19.9988 -1.4943 88.7025 0.0027 -12.6415 0.0159
# 4 -0.0445 -0.0276 0.0027 8.7359 0.0431 0.3487
# 5 -1.2013 8.0446 -12.6415 0.0431 58.9341 0.0625
# 6 0.0545 0.0370 0.0159 0.3487 0.0625 8.5238
#
#
#
# Elastic Compliance Matrix: (Units=1/GPa)
#
#
# Indices 1 2 3 4 5 6 
#
# 1 0.011262 -0.003971 -0.002575 0.000047 0.000219 -0.000054
# 2 -0.003971 0.057430 0.000757 0.000206 -0.007758 -0.000177
# 3 -0.002575 0.000757 0.012218 -0.000026 0.002465 -0.000027
# 4 0.000047 0.000206 -0.000026 0.114659 -0.000112 -0.004691
# 5 0.000219 -0.007758 0.002465 -0.000112 0.018560 -0.000104
# 6 -0.000054 -0.000177 -0.000027 -0.004691 -0.000104 0.117512
#
#
# Mechanical properties :
#
#
# Convention : Reuss Voigt Hill
#
# Bulk Modulus (GPa) = 14.42318 28.06577 21.24447
# Shear Modulus (GPa) = 13.64886 27.14070 20.39478
#
# Velocity S-wave (km/s) = 2.41022 3.39875 2.94624
# Velocity P-wave (km/s) = 3.72616 5.22946 4.54046
#
# Compressibility (1/GPa) = 0.06933285
#
# Stress axis : x y z
#
# Youngs Moduli (GPa) = 88.79116 17.41242 81.84498
#
# Poissons Ratio (x) = 0.06915 0.21074
# Poissons Ratio (y) = 0.35263 -0.06198
# Poissons Ratio (z) = 0.22862 -0.01319
#
# Static dielectric constant tensor:
#      x y z
#    x 1.949640 -0.000040 -0.052510 
#    y -0.000040 1.868050 0.000030 
#    z -0.052510 0.000030 1.963610 
# 
# From -- ./inp_files/274883.got.cif
#   From: 2010.05.17/outbox.cif.g08.bks.cpg/sg15_138_cif.got.tgz:274883.got - 2010.06.03 18:47:42.
