data_PCOD9289923
_publ_section_title
;
Structure prediction by ZEFSAII (Michael W. Deem and Ramdas Pophale) SiO2 
 PCOD9289923
Probable space group: C 2/C
;
_chemical_formula_sum "Si O2"
_cell_formula_units_Z 36
_cell_length_a 7.608549
_cell_length_b 22.293857
_cell_length_c 13.940546
_cell_angle_alpha 90.000000
_cell_angle_beta 47.420269
_cell_angle_gamma 90.000000
_cell_volume 1741.177962
_symmetry_space_group_name_H-M "C 2/C"
_symmetry_group_IT_number 15
_symmetry_cell_setting 'monoclinic'
loop_
_space_group_symop_operation_xyz
x,y,z
-x,y,1/2-z
-x,-y,-z
x,-y,1/2+z
1/2+x,1/2+y,z
1/2-x,1/2+y,1/2-z
1/2-x,1/2-y,-z
1/2+x,1/2-y,1/2+z
loop_
_atom_site_type_symbol
_atom_site_label
_atom_site_fract_x
_atom_site_fract_y
_atom_site_fract_z
Si Si1 0.754265 0.159019 0.689500
Si Si2 0.798357 0.002210 0.490552
Si Si3 0.000000 0.561818 0.250000
Si Si4 0.000000 0.082195 0.750000
Si Si5 0.502689 0.374900 0.590712
Si Si6 0.000000 0.776548 0.750000
O O1 0.500000 0.133092 0.750000
O O2 0.707493 0.230345 0.706053
O O3 0.821264 0.126662 0.761723
O O4 0.944040 0.143532 0.537954
O O5 0.567968 0.979240 0.633013
O O6 0.871802 0.959078 0.376672
O O7 0.000000 0.000000 0.500000
O O8 0.818923 0.070532 0.448763
O O9 0.769364 0.601255 0.306358
O O10 0.553630 0.319600 0.641418
#
# Coordination Sequence:
#
# PCOD9289923 Si02
#       6
#     8   8   4   4   8   4
#     4  10  25  43  72 102 145 184 249 289 351 424
#     4  10  22  40  70 107 146 175 239 291 363 431
#     4  10  22  40  70 108 144 182 228 300 358 440
#     4  12  21  47  74 106 140 200 222 300 368 422
#     4  11  22  47  68 103 149 179 246 298 355 433
#     4  10  25  45  70 100 140 198 234 312 346 402
#
# _framework density 20.675657999999999
#
# number of rings (size 3 to 8) (size 9 to 14) (size 15 to 20)
#    0.667    0.889    4.444    1.333    1.556    2.667 
#    0.000    8.889    0.000    0.000    0.000    0.000 
#    0.000    0.000    0.000    0.000    0.000    0.000 
#
# Total GULP energy -100482.671449 kJ/mol
# GULP energy per Si atom -5582.370636 kJ/mol
# Density = 2.062860 g / cm^3
# Si number density = 20.675658 Si / 1000 Ang^3
#
#
#
# Elastic Constant Matrix: (Units=GPa)
#
#
# Indices 1 2 3 4 5 6 
#
# 1 90.4594 53.3163 37.9931 0.0001 17.3587 0.0000
# 2 53.3163 182.4273 70.5570 0.0000 16.6896 0.0000
# 3 37.9931 70.5570 135.3376 0.0002 8.2308 0.0001
# 4 0.0001 0.0000 0.0002 -418.9792 -0.0002 -175.5152
# 5 17.3587 16.6896 8.2308 -0.0002 31.8990 -0.0001
# 6 0.0000 0.0000 0.0001 -175.5152 -0.0001 -30.1200
#
#
#
# Elastic Compliance Matrix: (Units=1/GPa)
#
#
# Indices 1 2 3 4 5 6 
#
# 1 0.014885 -0.002915 -0.002295 0.000000 -0.005983 0.000000
# 2 -0.002915 0.007676 -0.003084 0.000000 -0.001634 0.000000
# 3 -0.002295 -0.003084 0.009618 0.000000 0.000381 0.000000
# 4 0.000000 0.000000 0.000000 0.001656 0.000000 -0.009651
# 5 -0.005983 -0.001634 0.000381 0.000000 0.035361 0.000000
# 6 0.000000 0.000000 0.000000 -0.009651 0.000000 0.023039
#
#
# Mechanical properties :
#
#
# Convention : Reuss Voigt Hill
#
# Bulk Modulus (GPa) = 64.14295 81.32856 72.73576
# Shear Modulus (GPa) = 43.85209 -67.01618 -11.58204
#
# Velocity S-wave (km/s) = 4.61038 -5.69943 -2.36938
# Velocity P-wave (km/s) = 7.70918 1.97242 5.26978
#
# Compressibility (1/GPa) = 0.01559018
#
# Stress axis : x y z
#
# Youngs Moduli (GPa) = 67.18246 130.27710 103.97361
#
# Poissons Ratio (x) = 0.37980 0.23861
# Poissons Ratio (y) = 0.19586 0.32065
# Poissons Ratio (z) = 0.15417 0.40177
#
# Static dielectric constant tensor:
#      x y z
#    x 1.754560 0.000000 -0.028100 
#    y 0.000000 1.769200 0.000000 
#    z -0.028100 0.000000 1.753170 
# 
# From -- ./inp_files/136759.got.cif
#   From: 2010.05.17/outbox.cif.g08.bks.cpg/sg15_69_cif.got.tgz:136759.got - 2010.06.03 18:47:42.
