data_PCOD9289837
_publ_section_title
;
Structure prediction by ZEFSAII (Michael W. Deem and Ramdas Pophale) SiO2 
 PCOD9289837
Probable space group: C 2/C
;
_chemical_formula_sum "Si O2"
_cell_formula_units_Z 44
_cell_length_a 5.240069
_cell_length_b 18.100420
_cell_length_c 21.748649
_cell_angle_alpha 90.000000
_cell_angle_beta 107.980071
_cell_angle_gamma 90.000000
_cell_volume 1962.064684
_symmetry_space_group_name_H-M "C 2/C"
_symmetry_group_IT_number 15
_symmetry_cell_setting 'monoclinic'
loop_
_space_group_symop_operation_xyz
x,y,z
-x,y,1/2-z
-x,-y,-z
x,-y,1/2+z
1/2+x,1/2+y,z
1/2-x,1/2+y,1/2-z
1/2-x,1/2-y,-z
1/2+x,1/2-y,1/2+z
loop_
_atom_site_type_symbol
_atom_site_label
_atom_site_fract_x
_atom_site_fract_y
_atom_site_fract_z
Si Si1 0.340444 0.178090 0.109704
Si Si2 0.500000 0.443315 0.250000
Si Si3 0.776039 0.896520 0.567045
Si Si4 0.574641 0.041228 0.169296
Si Si5 0.232492 0.574740 0.929523
Si Si6 0.841292 0.148727 0.619973
O O1 0.511365 0.152389 0.062540
O O2 0.465437 0.123498 0.171153
O O3 0.375776 0.263649 0.124763
O O4 0.031147 0.156306 0.080931
O O5 0.240452 0.496581 0.231629
O O6 0.532445 0.391163 0.311173
O O7 0.785831 0.947587 0.628161
O O8 0.755705 0.942725 0.503259
O O9 0.341339 0.994253 0.119038
O O10 0.495437 0.615528 0.925064
O O11 0.971835 0.627585 0.904586
#
# Coordination Sequence:
#
# PCOD9289837 Si02
#       6
#     8   4   8   8   8   8
#     4  10  23  41  63  99 130 161 216 258 328 382
#     4  10  24  50  64  88 126 174 218 268 310 382
#     4  10  22  40  68  97 131 165 211 265 323 385
#     4   9  24  42  66  95 126 172 217 261 320 378
#     4  11  23  40  69  94 135 166 214 259 321 393
#     4  11  25  43  63  99 125 174 214 263 326 381
#
# _framework density 22.425355
#
# number of rings (size 3 to 8) (size 9 to 14) (size 15 to 20)
#    1.091    0.727    0.000    2.727    5.091    8.000 
#    3.273    0.000    0.000    0.000    0.000    0.000 
#    0.000    0.000    0.000    0.000    0.000    0.000 
#
# Total GULP energy -122932.929845 kJ/mol
# GULP energy per Si atom -5587.860447 kJ/mol
# Density = 2.237431 g / cm^3
# Si number density = 22.425355 Si / 1000 Ang^3
#
#
#
# Elastic Constant Matrix: (Units=GPa)
#
#
# Indices 1 2 3 4 5 6 
#
# 1 131.9270 31.5048 6.7761 0.0000 -5.9542 0.0000
# 2 31.5048 125.5914 -2.7574 0.0000 0.7544 0.0000
# 3 6.7761 -2.7574 63.0881 0.0000 4.0276 0.0000
# 4 0.0000 0.0000 0.0000 11.1088 0.0000 1.2502
# 5 -5.9542 0.7544 4.0276 0.0000 12.1512 0.0000
# 6 0.0000 0.0000 0.0000 1.2502 0.0000 26.8785
#
#
#
# Elastic Compliance Matrix: (Units=1/GPa)
#
#
# Indices 1 2 3 4 5 6 
#
# 1 0.008372 -0.002156 -0.001291 0.000000 0.004664 0.000000
# 2 -0.002156 0.008530 0.000721 0.000000 -0.001825 0.000000
# 3 -0.001291 0.000721 0.016412 0.000000 -0.006117 0.000000
# 4 0.000000 0.000000 0.000000 0.090492 0.000000 -0.004209
# 5 0.004664 -0.001825 -0.006117 0.000000 0.086722 0.000000
# 6 0.000000 0.000000 0.000000 -0.004209 0.000000 0.037400
#
#
# Mechanical properties :
#
#
# Convention : Reuss Voigt Hill
#
# Bulk Modulus (GPa) = 35.89364 43.51702 39.70533
# Shear Modulus (GPa) = 19.03541 29.03325 24.03433
#
# Velocity S-wave (km/s) = 2.91664 3.60204 3.27731
# Velocity P-wave (km/s) = 5.23287 6.06193 5.66260
#
# Compressibility (1/GPa) = 0.02786009
#
# Stress axis : x y z
#
# Youngs Moduli (GPa) = 119.44953 117.23243 60.93259
#
# Poissons Ratio (x) = 0.25280 0.07868
# Poissons Ratio (y) = 0.25758 -0.04393
# Poissons Ratio (z) = 0.15423 -0.08452
#
# Static dielectric constant tensor:
#      x y z
#    x 1.859170 0.000000 -0.028600 
#    y 0.000000 1.803160 0.000000 
#    z -0.028600 0.000000 1.866170 
# 
# From -- ./inp_files/227056.got.cif
#   From: 2010.05.17/outbox.cif.g08.bks.cpg/sg15_114_cif.got.tgz:227056.got - 2010.06.03 18:47:42.
