data_PCOD9289638
_publ_section_title
;
Structure prediction by ZEFSAII (Michael W. Deem and Ramdas Pophale) SiO2 
 PCOD9289638
Probable space group: C 2/C
;
_chemical_formula_sum "Si O2"
_cell_formula_units_Z 48
_cell_length_a 12.512908
_cell_length_b 22.444361
_cell_length_c 11.530822
_cell_angle_alpha 90.000000
_cell_angle_beta 132.664491
_cell_angle_gamma 90.000000
_cell_volume 2381.282118
_symmetry_space_group_name_H-M "C 2/C"
_symmetry_group_IT_number 15
_symmetry_cell_setting 'monoclinic'
loop_
_space_group_symop_operation_xyz
x,y,z
-x,y,1/2-z
-x,-y,-z
x,-y,1/2+z
1/2+x,1/2+y,z
1/2-x,1/2+y,1/2-z
1/2-x,1/2-y,-z
1/2+x,1/2-y,1/2+z
loop_
_atom_site_type_symbol
_atom_site_label
_atom_site_fract_x
_atom_site_fract_y
_atom_site_fract_z
Si Si1 0.733108 0.815331 0.713755
Si Si2 0.856910 0.900229 0.212366
Si Si3 0.433407 0.304622 0.462536
Si Si4 0.671989 0.489487 0.110327
Si Si5 0.837997 0.104827 0.086930
Si Si6 0.840687 0.399398 0.650371
O O1 0.647044 0.758000 0.606721
O O2 0.748350 0.866324 0.625936
O O3 0.650142 0.841660 0.762959
O O4 0.897150 0.800013 0.877260
O O5 0.910700 0.844539 0.330018
O O6 0.791343 0.949433 0.251119
O O7 0.000000 0.923576 0.250000
O O8 0.739709 0.885139 0.028652
O O9 0.358492 0.342638 0.508900
O O10 0.744829 0.553012 0.150077
O O11 0.500000 0.500000 0.000000
O O12 0.711573 0.452119 0.023550
O O13 0.000000 0.089730 0.250000
O O14 0.000000 0.424900 0.750000
#
# Coordination Sequence:
#
# PCOD9289638 Si02
#       6
#     8   8   8   8   8   8
#     4  11  23  42  65  94 128 171 215 266 323 381
#     4  11  22  43  66  93 126 164 223 260 314 394
#     4  10  22  40  66  95 125 168 214 268 317 381
#     4  11  22  40  70  94 125 175 214 263 318 385
#     4   9  20  39  65  97 125 164 219 263 313 382
#     4  12  28  42  61 100 131 168 213 271 329 377
#
# _framework density 20.157209000000002
#
# number of rings (size 3 to 8) (size 9 to 14) (size 15 to 20)
#    0.000    1.333    3.333    2.500    7.000    2.000 
#    0.000    0.000    0.000    0.000    0.000    0.000 
#    0.000    0.000    0.000    0.000    0.000    0.000 
#
# Total GULP energy -134095.750669 kJ/mol
# GULP energy per Si atom -5587.322945 kJ/mol
# Density = 2.011133 g / cm^3
# Si number density = 20.157209 Si / 1000 Ang^3
#
#
#
# Elastic Constant Matrix: (Units=GPa)
#
#
# Indices 1 2 3 4 5 6 
#
# 1 62.6601 6.0539 34.3263 0.0000 -6.4934 0.0000
# 2 6.0539 59.7454 19.0422 0.0000 -10.3020 0.0000
# 3 34.3263 19.0422 61.7228 0.0000 -18.4706 0.0000
# 4 0.0000 0.0000 0.0000 19.0313 0.0000 0.3312
# 5 -6.4934 -10.3020 -18.4706 0.0000 36.7714 0.0000
# 6 0.0000 0.0000 0.0000 0.3312 0.0000 15.2381
#
#
#
# Elastic Compliance Matrix: (Units=1/GPa)
#
#
# Indices 1 2 3 4 5 6 
#
# 1 0.023356 0.001747 -0.014297 0.000000 -0.002567 0.000000
# 2 0.001747 0.018930 -0.006041 0.000000 0.002578 0.000000
# 3 -0.014297 -0.006041 0.029133 0.000000 0.010417 0.000000
# 4 0.000000 0.000000 0.000000 0.052565 0.000000 -0.001142
# 5 -0.002567 0.002578 0.010417 0.000000 0.032696 0.000000
# 6 0.000000 0.000000 0.000000 -0.001142 0.000000 0.065650
#
#
# Mechanical properties :
#
#
# Convention : Reuss Voigt Hill
#
# Bulk Modulus (GPa) = 29.20549 33.66369 31.43459
# Shear Modulus (GPa) = 18.45536 22.52188 20.48862
#
# Velocity S-wave (km/s) = 3.02912 3.34625 3.19163
# Velocity P-wave (km/s) = 5.17247 5.62731 5.40468
#
# Compressibility (1/GPa) = 0.03424014
#
# Stress axis : x y z
#
# Youngs Moduli (GPa) = 42.81519 52.82505 34.32514
#
# Poissons Ratio (x) = -0.09230 0.49073
# Poissons Ratio (y) = -0.07481 0.20734
# Poissons Ratio (z) = 0.61211 0.31909
#
# Static dielectric constant tensor:
#      x y z
#    x 1.713170 0.000000 -0.031160 
#    y 0.000000 1.700590 0.000000 
#    z -0.031160 0.000000 1.720290 
# 
# From -- ./inp_files/89800.got.cif
#   From: 2010.05.17/outbox.cif.g08.bks.cpg/sg15_45_cif.got.tgz:89800.got - 2010.06.03 18:47:42.
