data_PCOD9289108
_publ_section_title
;
Structure prediction by ZEFSAII (Michael W. Deem and Ramdas Pophale) SiO2 
 PCOD9289108
Probable space group: C 2/C
;
_chemical_formula_sum "Si O2"
_cell_formula_units_Z 40
_cell_length_a 11.717610
_cell_length_b 25.362012
_cell_length_c 8.661116
_cell_angle_alpha 90.000000
_cell_angle_beta 133.087163
_cell_angle_gamma 90.000000
_cell_volume 1879.779996
_symmetry_space_group_name_H-M "C 2/C"
_symmetry_group_IT_number 15
_symmetry_cell_setting 'monoclinic'
loop_
_space_group_symop_operation_xyz
x,y,z
-x,y,1/2-z
-x,-y,-z
x,-y,1/2+z
1/2+x,1/2+y,z
1/2-x,1/2+y,1/2-z
1/2-x,1/2-y,-z
1/2+x,1/2-y,1/2+z
loop_
_atom_site_type_symbol
_atom_site_label
_atom_site_fract_x
_atom_site_fract_y
_atom_site_fract_z
Si Si1 0.677816 0.440071 0.859812
Si Si2 0.269651 0.628723 0.819931
Si Si3 0.177407 0.693354 0.469602
Si Si4 0.405635 0.608885 0.519452
Si Si5 0.606256 0.034126 0.483604
O O1 0.500000 0.447810 0.750000
O O2 0.677255 0.429517 0.676681
O O3 0.777519 0.491689 0.984182
O O4 0.743260 0.389404 0.014585
O O5 0.188401 0.677990 0.661671
O O6 0.453750 0.634542 0.950664
O O7 0.198555 0.578379 0.662708
O O8 0.250000 0.750000 0.500000
O O9 0.286610 0.650928 0.480812
O O10 0.000000 0.691035 0.250000
O O11 0.500000 0.583677 0.750000
O O12 0.500000 0.000000 0.500000
O O13 0.500000 0.058082 0.250000
#
# Coordination Sequence:
#
# PCOD9289108 Si02
#       5
#     8   8   8   8   8
#     4  10  23  41  60  88 127 169 211 257 315 382
#     4  10  22  40  60  90 126 169 205 263 313 373
#     4  11  23  41  67  96 123 161 211 263 319 380
#     4   9  21  38  64  88 120 162 209 258 314 376
#     4  12  25  39  59  92 131 168 219 262 314 378
#
# _framework density 21.279084999999998
#
# number of rings (size 3 to 8) (size 9 to 14) (size 15 to 20)
#    0.000    1.600    2.000    2.400    8.400    5.600 
#    0.000    1.000    0.000    2.400    0.000    0.000 
#    0.000    0.000    0.000    0.000    0.000    0.000 
#
# Total GULP energy -111746.028027 kJ/mol
# GULP energy per Si atom -5587.301401 kJ/mol
# Density = 2.123065 g / cm^3
# Si number density = 21.279085 Si / 1000 Ang^3
#
#
#
# Elastic Constant Matrix: (Units=GPa)
#
#
# Indices 1 2 3 4 5 6 
#
# 1 74.5900 38.3851 40.6286 0.0000 0.0683 0.0000
# 2 38.3851 86.5309 44.0331 0.0000 1.5337 0.0000
# 3 40.6286 44.0331 138.9106 0.0000 -5.5929 0.0000
# 4 0.0000 0.0000 0.0000 26.0280 0.0000 9.5051
# 5 0.0683 1.5337 -5.5929 0.0000 41.5609 0.0000
# 6 0.0000 0.0000 0.0000 9.5051 0.0000 26.1757
#
#
#
# Elastic Compliance Matrix: (Units=1/GPa)
#
#
# Indices 1 2 3 4 5 6 
#
# 1 0.018610 -0.006529 -0.003383 0.000000 -0.000245 0.000000
# 2 -0.006529 0.016121 -0.003241 0.000000 -0.001020 0.000000
# 3 -0.003383 -0.003241 0.009271 0.000000 0.001373 0.000000
# 4 0.000000 0.000000 0.000000 0.044294 0.000000 -0.016084
# 5 -0.000245 -0.001020 0.001373 0.000000 0.024284 0.000000
# 6 0.000000 0.000000 0.000000 -0.016084 0.000000 0.044044
#
#
# Mechanical properties :
#
#
# Convention : Reuss Voigt Hill
#
# Bulk Modulus (GPa) = 56.51747 60.68057 58.59902
# Shear Modulus (GPa) = 26.47902 30.55191 28.51546
#
# Velocity S-wave (km/s) = 3.53139 3.79327 3.66467
# Velocity P-wave (km/s) = 6.57612 6.91112 6.74570
#
# Compressibility (1/GPa) = 0.01769364
#
# Stress axis : x y z
#
# Youngs Moduli (GPa) = 53.73543 62.03270 107.86178
#
# Poissons Ratio (x) = 0.40503 0.36491
# Poissons Ratio (y) = 0.35086 0.34962
# Poissons Ratio (z) = 0.18179 0.20107
#
# Static dielectric constant tensor:
#      x y z
#    x 1.821920 0.000000 -0.019830 
#    y 0.000000 1.736570 0.000000 
#    z -0.019830 0.000000 1.811040 
# 
# From -- ./inp_files/33309.got.cif
#   From: 2010.05.17/outbox.cif.g08.bks.cpg/sg15_17_cif.got.tgz:33309.got - 2010.06.03 18:47:42.
