data_PCOD9289228
_publ_section_title
;
Structure prediction by ZEFSAII (Michael W. Deem and Ramdas Pophale) SiO2 
 PCOD9289228
Probable space group: C 2/C
;
_chemical_formula_sum "Si O2"
_cell_formula_units_Z 40
_cell_length_a 6.737670
_cell_length_b 14.755521
_cell_length_c 14.475728
_cell_angle_alpha 90.000000
_cell_angle_beta 100.552519
_cell_angle_gamma 90.000000
_cell_volume 1414.805865
_symmetry_space_group_name_H-M "C 2/C"
_symmetry_group_IT_number 15
_symmetry_cell_setting 'monoclinic'
loop_
_space_group_symop_operation_xyz
x,y,z
-x,y,1/2-z
-x,-y,-z
x,-y,1/2+z
1/2+x,1/2+y,z
1/2-x,1/2+y,1/2-z
1/2-x,1/2-y,-z
1/2+x,1/2-y,1/2+z
loop_
_atom_site_type_symbol
_atom_site_label
_atom_site_fract_x
_atom_site_fract_y
_atom_site_fract_z
Si Si1 0.821707 0.496790 0.110053
Si Si2 0.544851 0.642685 0.648371
Si Si3 0.112203 0.358316 0.040401
Si Si4 0.282043 0.862380 0.752215
Si Si5 0.108611 0.779361 0.880693
O O1 0.619020 0.437506 0.086149
O O2 0.798059 0.538821 0.209411
O O3 0.005970 0.429738 0.101564
O O4 0.847480 0.583991 0.047387
O O5 0.500000 0.615162 0.750000
O O6 0.329245 0.674671 0.592825
O O7 0.741567 0.708370 0.659216
O O8 0.956535 0.273038 0.032305
O O9 0.500000 0.820309 0.750000
O O10 0.232082 0.868072 0.857691
O O11 0.106267 0.808674 0.682690
#
# Coordination Sequence:
#
# PCOD9289228 Si02
#       5
#     8   8   8   8   8
#     4  10  25  40  65  98 135 171 228 278 339 394
#     4  11  22  39  69  95 127 181 224 279 327 407
#     4  10  22  45  64  94 135 179 219 279 337 407
#     4  11  23  40  62  95 132 171 220 287 322 400
#     4  10  22  40  62  91 129 170 224 260 335 397
#
# _framework density 28.272428000000001
#
# number of rings (size 3 to 8) (size 9 to 14) (size 15 to 20)
#    0.000    1.600    0.000    4.800    5.600    2.400 
#    0.000    2.000    0.000    0.000    0.000    0.000 
#    0.000    0.000    0.000    0.000    0.000    0.000 
#
# Total GULP energy -111643.066252 kJ/mol
# GULP energy per Si atom -5582.153313 kJ/mol
# Density = 2.820808 g / cm^3
# Si number density = 28.272428 Si / 1000 Ang^3
#
#
#
# Elastic Constant Matrix: (Units=GPa)
#
#
# Indices 1 2 3 4 5 6 
#
# 1 213.5917 52.7211 44.0234 0.0000 -25.7480 0.0000
# 2 52.7211 69.9428 36.3330 0.0000 -16.9591 0.0000
# 3 44.0234 36.3330 75.8216 0.0000 -38.3122 0.0000
# 4 0.0000 0.0000 0.0000 54.6349 0.0000 -24.8156
# 5 -25.7480 -16.9591 -38.3122 0.0000 51.3423 0.0000
# 6 0.0000 0.0000 0.0000 -24.8156 0.0000 70.1777
#
#
#
# Elastic Compliance Matrix: (Units=1/GPa)
#
#
# Indices 1 2 3 4 5 6 
#
# 1 0.005938 -0.003596 -0.001316 0.000000 0.000808 0.000000
# 2 -0.003596 0.021236 -0.008757 0.000000 -0.001323 0.000000
# 3 -0.001316 -0.008757 0.026253 0.000000 0.016038 0.000000
# 4 0.000000 0.000000 0.000000 0.021806 0.000000 0.007711
# 5 0.000808 -0.001323 0.016038 0.000000 0.031413 0.000000
# 6 0.000000 0.000000 0.000000 0.007711 0.000000 0.016976
#
#
# Mechanical properties :
#
#
# Convention : Reuss Voigt Hill
#
# Bulk Modulus (GPa) = 38.33089 69.50125 53.91607
# Shear Modulus (GPa) = 31.31714 50.31622 40.81668
#
# Velocity S-wave (km/s) = 3.33181 4.22322 3.80372
# Velocity P-wave (km/s) = 5.32808 6.95822 6.19698
#
# Compressibility (1/GPa) = 0.02608862
#
# Stress axis : x y z
#
# Youngs Moduli (GPa) = 168.40053 47.08922 38.09088
#
# Poissons Ratio (x) = 0.16935 0.05014
# Poissons Ratio (y) = 0.60564 0.33355
# Poissons Ratio (z) = 0.22166 0.41235
#
# Static dielectric constant tensor:
#      x y z
#    x 2.148680 0.000000 0.012210 
#    y 0.000000 2.317000 0.000000 
#    z 0.012210 0.000000 2.335540 
# 
# From -- ./inp_files/184257.got.cif
#   From: 2010.05.17/outbox.cif.g08.bks.cpg/sg15_93_cif.got.tgz:184257.got - 2010.06.03 18:47:42.
