data_PCOD9289609
_publ_section_title
;
Structure prediction by ZEFSAII (Michael W. Deem and Ramdas Pophale) SiO2 
 PCOD9289609
Probable space group: C 2/C
;
_chemical_formula_sum "Si O2"
_cell_formula_units_Z 64
_cell_length_a 13.595482
_cell_length_b 16.221654
_cell_length_c 18.092966
_cell_angle_alpha 90.000000
_cell_angle_beta 46.259733
_cell_angle_gamma 90.000000
_cell_volume 2882.877533
_symmetry_space_group_name_H-M "C 2/C"
_symmetry_group_IT_number 15
_symmetry_cell_setting 'monoclinic'
loop_
_space_group_symop_operation_xyz
x,y,z
-x,y,1/2-z
-x,-y,-z
x,-y,1/2+z
1/2+x,1/2+y,z
1/2-x,1/2+y,1/2-z
1/2-x,1/2-y,-z
1/2+x,1/2-y,1/2+z
loop_
_atom_site_type_symbol
_atom_site_label
_atom_site_fract_x
_atom_site_fract_y
_atom_site_fract_z
Si Si1 0.392283 0.074747 0.066078
Si Si2 0.213271 0.951541 0.088382
Si Si3 0.731206 0.606659 0.283207
Si Si4 0.653699 0.044629 0.134301
Si Si5 0.188835 0.876043 0.407753
Si Si6 0.404315 0.558302 0.696753
Si Si7 0.610899 0.765032 0.026761
Si Si8 0.600013 0.254868 0.756156
O O1 0.364360 0.079737 0.167296
O O2 0.261579 0.042842 0.086983
O O3 0.405520 0.167364 0.028884
O O4 0.500000 0.000000 0.000000
O O5 0.193255 0.915230 0.183156
O O6 0.061573 0.941419 0.136932
O O7 0.316012 0.928780 0.967070
O O8 0.767768 0.605828 0.349930
O O9 0.629462 0.533802 0.313083
O O10 0.681988 0.688185 0.268907
O O11 0.500000 0.036463 0.250000
O O12 0.735822 0.957322 0.101204
O O13 0.124720 0.890656 0.361270
O O14 0.080598 0.828392 0.515132
O O15 0.299783 0.805346 0.337101
O O16 0.501542 0.797731 0.141635
O O17 0.750000 0.750000 0.000000
O O18 0.500000 0.300573 0.750000
#
# Coordination Sequence:
#
# PCOD9289609 Si02
#       8
#     8   8   8   8   8   8   8   8
#     4  11  23  41  65  94 131 172 221 266 336 407
#     4  10  22  40  66  91 126 169 228 269 326 391
#     4  10  23  39  61  97 126 170 213 273 327 399
#     4  11  24  40  66  96 134 175 223 276 335 400
#     4  11  24  43  62 100 133 171 219 273 339 408
#     4   9  23  40  66  91 127 173 223 274 330 396
#     4  12  25  39  66  99 131 175 210 274 342 399
#     4  12  25  40  64  93 140 166 212 272 346 399
#
# _framework density 22.200040999999999
#
# number of rings (size 3 to 8) (size 9 to 14) (size 15 to 20)
#    0.000    1.250    2.500    1.875   15.750    1.000 
#    0.000    0.000    2.750    1.500    0.000    0.000 
#    0.000    0.000    0.000    0.000    0.000    0.000 
#
# Total GULP energy -178138.383089 kJ/mol
# GULP energy per Si atom -5566.824472 kJ/mol
# Density = 2.214951 g / cm^3
# Si number density = 22.200041 Si / 1000 Ang^3
#
#
#
# Elastic Constant Matrix: (Units=GPa)
#
#
# Indices 1 2 3 4 5 6 
#
# 1 79.8080 19.5545 14.9377 0.0000 13.3794 0.0000
# 2 19.5545 52.6471 -2.7175 0.0000 -0.0167 0.0000
# 3 14.9377 -2.7175 102.9154 0.0000 7.7016 0.0000
# 4 0.0000 0.0000 0.0000 23.1706 0.0000 -0.4276
# 5 13.3794 -0.0167 7.7016 0.0000 37.5967 0.0000
# 6 0.0000 0.0000 0.0000 -0.4276 0.0000 18.0307
#
#
#
# Elastic Compliance Matrix: (Units=1/GPa)
#
#
# Indices 1 2 3 4 5 6 
#
# 1 0.015139 -0.005726 -0.001975 0.000000 -0.004985 0.000000
# 2 -0.005726 0.021187 0.001257 0.000000 0.001790 0.000000
# 3 -0.001975 0.001257 0.010139 0.000000 -0.001373 0.000000
# 4 0.000000 0.000000 0.000000 0.043177 0.000000 0.001024
# 5 -0.004985 0.001790 -0.001373 0.000000 0.028654 0.000000
# 6 0.000000 0.000000 0.000000 0.001024 0.000000 0.055485
#
#
# Mechanical properties :
#
#
# Convention : Reuss Voigt Hill
#
# Bulk Modulus (GPa) = 29.78460 33.21333 31.49896
# Shear Modulus (GPa) = 25.26996 29.33265 27.30130
#
# Velocity S-wave (km/s) = 3.37751 3.63890 3.51064
# Velocity P-wave (km/s) = 5.35310 5.71392 5.53645
#
# Compressibility (1/GPa) = 0.03357440
#
# Stress axis : x y z
#
# Youngs Moduli (GPa) = 66.05602 47.19926 98.62501
#
# Poissons Ratio (x) = 0.27028 0.19483
# Poissons Ratio (y) = 0.37827 -0.12394
# Poissons Ratio (z) = 0.13049 -0.05931
#
# Static dielectric constant tensor:
#      x y z
#    x 1.865180 0.000000 -0.026560 
#    y 0.000000 1.837610 0.000000 
#    z -0.026560 0.000000 1.964080 
# 
# From -- ./inp_files/205718.got.cif
#   From: 2010.05.17/outbox.cif.g08.bks.cpg/sg15_103_cif.got.tgz:205718.got - 2010.06.03 18:47:42.
