data_PCOD9289838
_publ_section_title
;
Structure prediction by ZEFSAII (Michael W. Deem and Ramdas Pophale) SiO2 
 PCOD9289838
Probable space group: C 2/C
;
_chemical_formula_sum "Si O2"
_cell_formula_units_Z 40
_cell_length_a 7.572883
_cell_length_b 24.147109
_cell_length_c 9.855290
_cell_angle_alpha 90.000000
_cell_angle_beta 76.063731
_cell_angle_gamma 90.000000
_cell_volume 1749.121889
_symmetry_space_group_name_H-M "C 2/C"
_symmetry_group_IT_number 15
_symmetry_cell_setting 'monoclinic'
loop_
_space_group_symop_operation_xyz
x,y,z
-x,y,1/2-z
-x,-y,-z
x,-y,1/2+z
1/2+x,1/2+y,z
1/2-x,1/2+y,1/2-z
1/2-x,1/2-y,-z
1/2+x,1/2-y,1/2+z
loop_
_atom_site_type_symbol
_atom_site_label
_atom_site_fract_x
_atom_site_fract_y
_atom_site_fract_z
Si Si1 0.597810 0.033944 0.100430
Si Si2 0.093091 0.869715 0.598866
Si Si3 0.592502 0.457954 0.377739
Si Si4 0.517553 0.149878 0.090314
Si Si5 0.537536 0.246436 0.588644
O O1 0.500000 0.058074 0.250000
O O2 0.645427 0.095791 0.033799
O O3 0.713129 0.986887 0.156964
O O4 0.500000 0.000000 0.000000
O O5 0.084406 0.901192 0.459166
O O6 0.308420 0.865864 0.588973
O O7 0.989094 0.811456 0.600861
O O8 0.000000 0.897583 0.750000
O O9 0.500000 0.457423 0.250000
O O10 0.500000 0.500000 0.500000
O O11 0.500000 0.168042 0.250000
O O12 0.561603 0.203645 0.991809
O O13 0.500000 0.227091 0.750000
O O14 0.750000 0.250000 0.500000
#
# Coordination Sequence:
#
# PCOD9289838 Si02
#       5
#     8   8   8   8   8
#     4  11  23  42  63  95 133 175 226 279 336 402
#     4  10  22  44  68  93 136 177 220 285 347 407
#     4  12  26  42  64  95 133 178 225 275 342 409
#     4  10  22  40  68  97 134 177 230 283 346 408
#     4   9  20  43  68 100 136 176 226 288 346 411
#
# _framework density 22.868617
#
# number of rings (size 3 to 8) (size 9 to 14) (size 15 to 20)
#    0.000    1.600    2.000    1.800    8.400    1.600 
#    7.200    9.000    0.000    0.000    0.000    0.000 
#    0.000    0.000    0.000    0.000    0.000    0.000 
#
# Total GULP energy -111374.344745 kJ/mol
# GULP energy per Si atom -5568.717237 kJ/mol
# Density = 2.281657 g / cm^3
# Si number density = 22.868617 Si / 1000 Ang^3
#
#
#
# Elastic Constant Matrix: (Units=GPa)
#
#
# Indices 1 2 3 4 5 6 
#
# 1 63.1308 10.9523 38.9626 0.0000 29.6296 0.0000
# 2 10.9523 135.2655 74.5096 0.0000 40.2687 0.0000
# 3 38.9626 74.5096 177.2108 0.0000 51.8826 0.0000
# 4 0.0000 0.0000 0.0000 151.4998 0.0000 32.0489
# 5 29.6296 40.2687 51.8826 0.0000 51.2774 0.0000
# 6 0.0000 0.0000 0.0000 32.0489 0.0000 26.0449
#
#
#
# Elastic Compliance Matrix: (Units=1/GPa)
#
#
# Indices 1 2 3 4 5 6 
#
# 1 0.023223 0.003624 -0.002654 0.000000 -0.013580 0.000000
# 2 0.003624 0.011148 -0.003279 0.000000 -0.007531 0.000000
# 3 -0.002654 -0.003279 0.009097 0.000000 -0.005096 0.000000
# 4 0.000000 0.000000 0.000000 0.008924 0.000000 -0.010981
# 5 -0.013580 -0.007531 -0.005096 0.000000 0.038418 0.000000
# 6 0.000000 0.000000 0.000000 -0.010981 0.000000 0.051907
#
#
# Mechanical properties :
#
#
# Convention : Reuss Voigt Hill
#
# Bulk Modulus (GPa) = 25.74010 69.38402 47.56206
# Shear Modulus (GPa) = 31.19456 62.50993 46.85224
#
# Velocity S-wave (km/s) = 3.69735 5.23390 4.53123
# Velocity P-wave (km/s) = 5.43206 8.18114 6.94400
#
# Compressibility (1/GPa) = 0.03884989
#
# Stress axis : x y z
#
# Youngs Moduli (GPa) = 43.06112 89.70544 109.92398
#
# Poissons Ratio (x) = -0.32512 0.29174
# Poissons Ratio (y) = -0.15607 0.36046
# Poissons Ratio (z) = 0.11428 0.29416
#
# Static dielectric constant tensor:
#      x y z
#    x 1.874080 0.000000 0.002470 
#    y 0.000000 1.868770 0.000000 
#    z 0.002470 0.000000 1.872610 
# 
# From -- ./inp_files/23467.got.cif
#   From: 2010.05.17/outbox.cif.g08.bks.cpg/sg15_12_cif.got.tgz:23467.got - 2010.06.03 18:47:42.
