data_PCOD9289300
_publ_section_title
;
Structure prediction by ZEFSAII (Michael W. Deem and Ramdas Pophale) SiO2 
 PCOD9289300
Probable space group: C 2/C
;
_chemical_formula_sum "Si O2"
_cell_formula_units_Z 40
_cell_length_a 9.188093
_cell_length_b 25.301904
_cell_length_c 7.631683
_cell_angle_alpha 90.000000
_cell_angle_beta 85.891480
_cell_angle_gamma 90.000000
_cell_volume 1769.625615
_symmetry_space_group_name_H-M "C 2/C"
_symmetry_group_IT_number 15
_symmetry_cell_setting 'monoclinic'
loop_
_space_group_symop_operation_xyz
x,y,z
-x,y,1/2-z
-x,-y,-z
x,-y,1/2+z
1/2+x,1/2+y,z
1/2-x,1/2+y,1/2-z
1/2-x,1/2-y,-z
1/2+x,1/2-y,1/2+z
loop_
_atom_site_type_symbol
_atom_site_label
_atom_site_fract_x
_atom_site_fract_y
_atom_site_fract_z
Si Si1 0.834707 0.184447 0.693600
Si Si2 0.829632 0.932905 0.315802
Si Si3 0.382609 0.025926 0.139053
Si Si4 0.670268 0.288140 0.717948
Si Si5 0.668200 0.598713 0.289279
O O1 0.787724 0.125304 0.749856
O O2 0.753028 0.236063 0.771331
O O3 0.815140 0.193825 0.486885
O O4 0.000000 0.187115 0.750000
O O5 0.820810 0.931544 0.528078
O O6 0.000000 0.943931 0.250000
O O7 0.712391 0.977321 0.272507
O O8 0.500000 0.055800 0.250000
O O9 0.257531 0.069567 0.128019
O O10 0.500000 0.000000 0.000000
O O11 0.500000 0.277107 0.750000
O O12 0.714613 0.340933 0.817061
O O13 0.500000 0.600423 0.250000
#
# Coordination Sequence:
#
# PCOD9289300 Si02
#       5
#     8   8   8   8   8
#     4  10  22  40  63  94 124 165 210 258 313 373
#     4  11  24  42  67  92 126 171 214 257 316 383
#     4  12  27  44  63  97 131 165 213 267 323 373
#     4  10  22  40  63  92 126 163 211 258 311 376
#     4  11  24  42  67  92 126 172 213 259 315 383
#
# _framework density 22.603649999999998
#
# number of rings (size 3 to 8) (size 9 to 14) (size 15 to 20)
#    0.000    1.200    2.000    5.400    5.600    6.400 
#    3.600    0.000    0.000    0.000    0.000    0.000 
#    0.000    0.000    0.000    0.000    0.000    0.000 
#
# Total GULP energy -111548.819625 kJ/mol
# GULP energy per Si atom -5577.440981 kJ/mol
# Density = 2.255220 g / cm^3
# Si number density = 22.603650 Si / 1000 Ang^3
#
#
#
# Elastic Constant Matrix: (Units=GPa)
#
#
# Indices 1 2 3 4 5 6 
#
# 1 96.8406 93.1204 11.6600 0.0000 -25.1509 0.0000
# 2 93.1204 176.2603 12.1286 0.0000 -17.0432 0.0000
# 3 11.6600 12.1286 55.0294 0.0000 -8.8464 0.0000
# 4 0.0000 0.0000 0.0000 32.3665 0.0000 -3.5682
# 5 -25.1509 -17.0432 -8.8464 0.0000 35.2796 0.0000
# 6 0.0000 0.0000 0.0000 -3.5682 0.0000 32.8414
#
#
#
# Elastic Compliance Matrix: (Units=1/GPa)
#
#
# Indices 1 2 3 4 5 6 
#
# 1 0.025097 -0.012059 -0.000750 0.000000 0.011878 0.000000
# 2 -0.012059 0.011787 -0.000531 0.000000 -0.003036 0.000000
# 3 -0.000750 -0.000531 0.019090 0.000000 0.003996 0.000000
# 4 0.000000 0.000000 0.000000 0.031271 0.000000 0.003398
# 5 0.011878 -0.003036 0.003996 0.000000 0.036348 0.000000
# 6 0.000000 0.000000 0.000000 0.003398 0.000000 0.030819
#
#
# Mechanical properties :
#
#
# Convention : Reuss Voigt Hill
#
# Bulk Modulus (GPa) = 34.13608 62.43871 48.28739
# Shear Modulus (GPa) = 26.19746 34.17890 30.18818
#
# Velocity S-wave (km/s) = 3.40809 3.89279 3.65847
# Velocity P-wave (km/s) = 5.53368 6.92014 6.26538
#
# Compressibility (1/GPa) = 0.02929452
#
# Stress axis : x y z
#
# Youngs Moduli (GPa) = 39.84487 84.83667 52.38226
#
# Poissons Ratio (x) = 1.02305 0.03931
# Poissons Ratio (y) = 0.48049 0.02781
# Poissons Ratio (z) = 0.02990 0.04503
#
# Static dielectric constant tensor:
#      x y z
#    x 1.811050 0.000000 0.015570 
#    y 0.000000 1.828830 0.000000 
#    z 0.015570 0.000000 2.048850 
# 
# From -- ./inp_files/23650.got.cif
#   From: 2010.05.17/outbox.cif.g08.bks.cpg/sg15_12_cif.got.tgz:23650.got - 2010.06.03 18:47:42.
