data_PCOD9289364
_publ_section_title
;
Structure prediction by ZEFSAII (Michael W. Deem and Ramdas Pophale) SiO2 
 PCOD9289364
Probable space group: C 2/C
;
_chemical_formula_sum "Si O2"
_cell_formula_units_Z 48
_cell_length_a 14.714352
_cell_length_b 21.362904
_cell_length_c 11.944546
_cell_angle_alpha 90.000000
_cell_angle_beta 35.496231
_cell_angle_gamma 90.000000
_cell_volume 2180.143395
_symmetry_space_group_name_H-M "C 2/C"
_symmetry_group_IT_number 15
_symmetry_cell_setting 'monoclinic'
loop_
_space_group_symop_operation_xyz
x,y,z
-x,y,1/2-z
-x,-y,-z
x,-y,1/2+z
1/2+x,1/2+y,z
1/2-x,1/2+y,1/2-z
1/2-x,1/2-y,-z
1/2+x,1/2-y,1/2+z
loop_
_atom_site_type_symbol
_atom_site_label
_atom_site_fract_x
_atom_site_fract_y
_atom_site_fract_z
Si Si1 0.349909 0.838065 0.347397
Si Si2 0.121861 0.781622 0.387817
Si Si3 0.629336 0.953035 0.323337
Si Si4 0.814559 0.110242 0.831884
Si Si5 0.217420 0.837599 0.719158
Si Si6 0.162491 0.937604 0.952451
O O1 0.500000 0.802433 0.250000
O O2 0.243345 0.805127 0.361365
O O3 0.416485 0.900422 0.221073
O O4 0.243370 0.848965 0.562574
O O5 0.157732 0.818373 0.236041
O O6 0.149996 0.707701 0.360814
O O7 0.948494 0.803622 0.593338
O O8 0.690838 0.917357 0.370566
O O9 0.500000 0.000000 0.500000
O O10 0.769056 0.993167 0.125960
O O11 0.975660 0.071404 0.648451
O O12 0.774121 0.098145 0.000991
O O13 0.214954 0.901707 0.788925
#
# Coordination Sequence:
#
# PCOD9289364 Si02
#       6
#     8   8   8   8   8   8
#     4  11  23  39  60  90 123 161 201 252 309 365
#     4  10  22  41  63  90 126 160 204 258 303 371
#     4  11  24  39  61  88 125 161 202 260 306 364
#     4   9  22  43  60  88 120 164 211 245 309 361
#     4  11  22  39  64  92 122 161 206 251 313 360
#     4  10  22  40  64  86 121 164 208 252 295 377
#
# _framework density 22.016898999999999
#
# number of rings (size 3 to 8) (size 9 to 14) (size 15 to 20)
#    0.000    1.667    0.000    3.500    4.667    2.000 
#    6.000    0.000    0.000    0.000    0.000    0.000 
#    0.000    0.000    0.000    0.000    0.000    0.000 
#
# Total GULP energy -134132.086419 kJ/mol
# GULP energy per Si atom -5588.836934 kJ/mol
# Density = 2.196679 g / cm^3
# Si number density = 22.016899 Si / 1000 Ang^3
#
#
#
# Elastic Constant Matrix: (Units=GPa)
#
#
# Indices 1 2 3 4 5 6 
#
# 1 70.3974 -12.2228 -3.5356 0.0046 0.9744 -0.0014
# 2 -12.2228 38.5090 -3.0829 0.0018 -9.9336 0.0004
# 3 -3.5356 -3.0829 33.3710 0.0112 6.7357 -0.0134
# 4 0.0046 0.0018 0.0112 24.5915 -0.0012 -1.7183
# 5 0.9744 -9.9336 6.7357 -0.0012 31.4074 -0.0024
# 6 -0.0014 0.0004 -0.0134 -1.7183 -0.0024 24.3512
#
#
#
# Elastic Compliance Matrix: (Units=1/GPa)
#
#
# Indices 1 2 3 4 5 6 
#
# 1 0.015189 0.005169 0.001936 -0.000004 0.000749 0.000002
# 2 0.005169 0.030057 0.001503 -0.000003 0.009024 0.000001
# 3 0.001936 0.001503 0.031594 -0.000014 -0.006360 0.000016
# 4 -0.000004 -0.000003 -0.000014 0.040866 0.000004 0.002884
# 5 0.000749 0.009024 -0.006360 0.000004 0.036034 0.000000
# 6 0.000002 0.000001 0.000016 0.002884 0.000000 0.041269
#
#
# Mechanical properties :
#
#
# Convention : Reuss Voigt Hill
#
# Bulk Modulus (GPa) = 10.63195 11.62163 11.12679
# Shear Modulus (GPa) = 23.90679 26.81127 25.35903
#
# Velocity S-wave (km/s) = 3.29878 3.49343 3.39750
# Velocity P-wave (km/s) = 4.39872 4.64349 4.52276
#
# Compressibility (1/GPa) = 0.09405611
#
# Stress axis : x y z
#
# Youngs Moduli (GPa) = 65.83522 33.27045 31.65169
#
# Poissons Ratio (x) = -0.17198 -0.06127
# Poissons Ratio (y) = -0.34032 -0.04757
# Poissons Ratio (z) = -0.12744 -0.05001
#
# Static dielectric constant tensor:
#      x y z
#    x 1.785430 0.000000 -0.029060 
#    y 0.000000 1.824790 0.000000 
#    z -0.029060 0.000000 1.836460 
# 
# From -- ./inp_files/99962.got.cif
#   From: 2010.05.17/outbox.cif.g08.bks.cpg/sg15_50_cif.got.tgz:99962.got - 2010.06.03 18:47:42.
