data_PCOD9289509
_publ_section_title
;
Structure prediction by ZEFSAII (Michael W. Deem and Ramdas Pophale) SiO2 
 PCOD9289509
Probable space group: C 2/C
;
_chemical_formula_sum "Si O2"
_cell_formula_units_Z 44
_cell_length_a 15.312645
_cell_length_b 27.542269
_cell_length_c 9.229811
_cell_angle_alpha 90.000000
_cell_angle_beta 34.526241
_cell_angle_gamma 90.000000
_cell_volume 2206.276956
_symmetry_space_group_name_H-M "C 2/C"
_symmetry_group_IT_number 15
_symmetry_cell_setting 'monoclinic'
loop_
_space_group_symop_operation_xyz
x,y,z
-x,y,1/2-z
-x,-y,-z
x,-y,1/2+z
1/2+x,1/2+y,z
1/2-x,1/2+y,1/2-z
1/2-x,1/2-y,-z
1/2+x,1/2-y,1/2+z
loop_
_atom_site_type_symbol
_atom_site_label
_atom_site_fract_x
_atom_site_fract_y
_atom_site_fract_z
Si Si1 0.357154 0.386625 0.552071
Si Si2 0.317714 0.286182 0.752060
Si Si3 0.469987 0.448550 0.964120
Si Si4 0.684325 0.901242 0.518738
Si Si5 0.000000 0.744842 0.750000
Si Si6 0.317991 0.789320 0.018311
O O1 0.341362 0.329863 0.609572
O O2 0.403405 0.412641 0.637310
O O3 0.220403 0.408436 0.641080
O O4 0.500000 0.393922 0.250000
O O5 0.456375 0.279643 0.674588
O O6 0.297040 0.234501 0.702235
O O7 0.147167 0.290721 0.048607
O O8 0.500000 0.450777 0.750000
O O9 0.500000 0.500000 0.000000
O O10 0.299948 0.430823 0.253972
O O11 0.732587 0.844591 0.428268
O O12 0.500000 0.907511 0.750000
O O13 0.500000 0.790327 0.750000
O O14 0.250000 0.750000 0.000000
#
# Coordination Sequence:
#
# PCOD9289509 Si02
#       6
#     8   8   8   8   4   8
#     4  10  22  40  65  93 126 168 224 274 330 404
#     4  11  22  38  53  84 128 176 223 266 326 388
#     4  11  25  48  75 100 130 174 223 282 347 413
#     4  10  23  42  68 102 137 173 228 280 332 401
#     4  10  26  34  50  78 132 172 220 272 322 386
#     4  11  21  34  60  89 124 175 221 265 315 379
#
# _framework density 19.943100999999999
#
# number of rings (size 3 to 8) (size 9 to 14) (size 15 to 20)
#    0.000    1.455    1.818    3.273   11.455    1.455 
#    0.000    3.636    0.000    0.000    0.000    0.000 
#    0.000    0.000    0.000    0.000    0.000    0.000 
#
# Total GULP energy -122582.478691 kJ/mol
# GULP energy per Si atom -5571.930850 kJ/mol
# Density = 1.989771 g / cm^3
# Si number density = 19.943101 Si / 1000 Ang^3
#
#
#
# Elastic Constant Matrix: (Units=GPa)
#
#
# Indices 1 2 3 4 5 6 
#
# 1 169.4576 33.9956 69.6696 0.0000 6.9018 0.0000
# 2 33.9956 89.7436 40.6492 0.0000 0.5234 0.0000
# 3 69.6696 40.6492 66.1288 0.0000 1.2695 0.0000
# 4 0.0000 0.0000 0.0000 22.6180 0.0000 2.0614
# 5 6.9018 0.5234 1.2695 0.0000 40.2795 0.0000
# 6 0.0000 0.0000 0.0000 2.0614 0.0000 29.4579
#
#
#
# Elastic Compliance Matrix: (Units=1/GPa)
#
#
# Indices 1 2 3 4 5 6 
#
# 1 0.010628 0.001443 -0.012056 0.000000 -0.001460 0.000000
# 2 0.001443 0.015639 -0.011132 0.000000 -0.000100 0.000000
# 3 -0.012056 -0.011132 0.034645 0.000000 0.001118 0.000000
# 4 0.000000 0.000000 0.000000 0.044496 0.000000 -0.003114
# 5 -0.001460 -0.000100 0.001118 0.000000 0.025043 0.000000
# 6 0.000000 0.000000 0.000000 -0.003114 0.000000 0.034165
#
#
# Mechanical properties :
#
#
# Convention : Reuss Voigt Hill
#
# Bulk Modulus (GPa) = 57.39758 68.21765 62.80761
# Shear Modulus (GPa) = 23.37417 30.53878 26.95647
#
# Velocity S-wave (km/s) = 3.42723 3.91742 3.68049
# Velocity P-wave (km/s) = 6.67116 7.39878 7.04437
#
# Compressibility (1/GPa) = 0.01742234
#
# Stress axis : x y z
#
# Youngs Moduli (GPa) = 94.09400 63.94341 28.86444
#
# Poissons Ratio (x) = -0.09229 0.34799
# Poissons Ratio (y) = -0.13581 0.32132
# Poissons Ratio (z) = 1.13439 0.71181
#
# Static dielectric constant tensor:
#      x y z
#    x 1.795990 0.000000 -0.017100 
#    y 0.000000 1.745260 0.000000 
#    z -0.017100 0.000000 1.860940 
# 
# From -- ./inp_files/44198.got.cif
#   From: 2010.05.17/outbox.cif.g08.bks.cpg/sg15_23_cif.got.tgz:44198.got - 2010.06.03 18:47:42.
