data_PCOD9289869
_publ_section_title
;
Structure prediction by ZEFSAII (Michael W. Deem and Ramdas Pophale) SiO2 
 PCOD9289869
Probable space group: C 2/C
;
_chemical_formula_sum "Si O2"
_cell_formula_units_Z 52
_cell_length_a 28.794060
_cell_length_b 8.714049
_cell_length_c 9.789288
_cell_angle_alpha 90.000000
_cell_angle_beta 60.429422
_cell_angle_gamma 90.000000
_cell_volume 2136.326741
_symmetry_space_group_name_H-M "C 2/C"
_symmetry_group_IT_number 15
_symmetry_cell_setting 'monoclinic'
loop_
_space_group_symop_operation_xyz
x,y,z
-x,y,1/2-z
-x,-y,-z
x,-y,1/2+z
1/2+x,1/2+y,z
1/2-x,1/2+y,1/2-z
1/2-x,1/2-y,-z
1/2+x,1/2-y,1/2+z
loop_
_atom_site_type_symbol
_atom_site_label
_atom_site_fract_x
_atom_site_fract_y
_atom_site_fract_z
Si Si1 0.695450 0.301479 0.146399
Si Si2 0.169125 0.917392 0.796507
Si Si3 0.114508 0.329293 0.212814
Si Si4 0.279359 0.192333 0.097099
Si Si5 0.416552 0.837134 0.707343
Si Si6 0.573609 0.391878 0.554071
Si Si7 0.500000 0.640549 0.750000
O O1 0.676482 0.475783 0.149992
O O2 0.703192 0.293509 0.299076
O O3 0.645912 0.198001 0.175871
O O4 0.750000 0.250000 0.000000
O O5 0.143946 0.752315 0.797118
O O6 0.231413 0.899235 0.741634
O O7 0.125346 0.004686 0.947664
O O8 0.080410 0.478944 0.298323
O O9 0.164198 0.372716 0.039228
O O10 0.080420 0.195605 0.188353
O O11 0.250000 0.250000 0.000000
O O12 0.429565 0.747589 0.548387
O O13 0.454306 0.750955 0.758888
O O14 0.527074 0.516932 0.609810
#
# Coordination Sequence:
#
# PCOD9289869 Si02
#       7
#     8   8   8   8   8   8   4
#     4  11  23  42  72 110 157 201 257 310 377 465
#     4  10  23  40  71 105 151 201 247 298 379 452
#     4  11  23  46  71 110 155 195 247 320 382 461
#     4  10  22  40  69 112 158 198 251 301 383 446
#     4  11  26  47  73 110 148 193 256 313 390 450
#     4  11  24  50  73 103 146 195 259 313 385 457
#     4  12  28  50  80 104 142 196 254 326 384 466
#
# _framework density 24.340847
#
# number of rings (size 3 to 8) (size 9 to 14) (size 15 to 20)
#    0.000    1.231    3.077    3.231    4.308    4.308 
#    2.769    2.308    0.000    0.000    0.000    0.000 
#    0.000    0.000    0.000    0.000    0.000    0.000 
#
# Total GULP energy -144999.437057 kJ/mol
# GULP energy per Si atom -5576.901425 kJ/mol
# Density = 2.428545 g / cm^3
# Si number density = 24.340847 Si / 1000 Ang^3
#
#
#
# Elastic Constant Matrix: (Units=GPa)
#
#
# Indices 1 2 3 4 5 6 
#
# 1 92.6840 47.8830 36.3033 0.0000 9.6507 0.0000
# 2 47.8830 158.8513 34.5319 0.0000 -10.7117 0.0000
# 3 36.3033 34.5319 72.3197 0.0000 -3.7595 0.0000
# 4 0.0000 0.0000 0.0000 26.9654 0.0000 -0.9385
# 5 9.6507 -10.7117 -3.7595 0.0000 21.3610 0.0000
# 6 0.0000 0.0000 0.0000 -0.9385 0.0000 32.8619
#
#
#
# Elastic Compliance Matrix: (Units=1/GPa)
#
#
# Indices 1 2 3 4 5 6 
#
# 1 0.016913 -0.004321 -0.007001 0.000000 -0.011040 0.000000
# 2 -0.004321 0.008318 -0.001498 0.000000 0.005860 0.000000
# 3 -0.007001 -0.001498 0.018351 0.000000 0.005641 0.000000
# 4 0.000000 0.000000 0.000000 0.037121 0.000000 0.001060
# 5 -0.011040 0.005860 0.005641 0.000000 0.055733 0.000000
# 6 0.000000 0.000000 0.000000 0.001060 0.000000 0.030461
#
#
# Mechanical properties :
#
#
# Convention : Reuss Voigt Hill
#
# Bulk Modulus (GPa) = 55.73501 62.36570 59.05036
# Shear Modulus (GPa) = 25.18650 29.91343 27.54996
#
# Velocity S-wave (km/s) = 3.22023 3.50943 3.36793
# Velocity P-wave (km/s) = 6.06415 6.48837 6.27984
#
# Compressibility (1/GPa) = 0.01794204
#
# Stress axis : x y z
#
# Youngs Moduli (GPa) = 59.12495 120.21408 54.49411
#
# Poissons Ratio (x) = 0.51942 0.38151
# Poissons Ratio (y) = 0.25547 0.08166
# Poissons Ratio (z) = 0.41393 0.18013
#
# Static dielectric constant tensor:
#      x y z
#    x 1.994830 0.000000 0.007490 
#    y 0.000000 2.154570 0.000000 
#    z 0.007490 0.000000 2.005460 
# 
# From -- ./inp_files/125492.got.cif
#   From: 2010.05.17/outbox.cif.g08.bks.cpg/sg15_63_cif.got.tgz:125492.got - 2010.06.03 18:47:42.
