data_PCOD9289279
_publ_section_title
;
Structure prediction by ZEFSAII (Michael W. Deem and Ramdas Pophale) SiO2 
 PCOD9289279
Probable space group: C 2/C
;
_chemical_formula_sum "Si O2"
_cell_formula_units_Z 56
_cell_length_a 6.087096
_cell_length_b 27.029486
_cell_length_c 18.961465
_cell_angle_alpha 90.000000
_cell_angle_beta 57.496342
_cell_angle_gamma 90.000000
_cell_volume 2631.063643
_symmetry_space_group_name_H-M "C 2/C"
_symmetry_group_IT_number 15
_symmetry_cell_setting 'monoclinic'
loop_
_space_group_symop_operation_xyz
x,y,z
-x,y,1/2-z
-x,-y,-z
x,-y,1/2+z
1/2+x,1/2+y,z
1/2-x,1/2+y,1/2-z
1/2-x,1/2-y,-z
1/2+x,1/2-y,1/2+z
loop_
_atom_site_type_symbol
_atom_site_label
_atom_site_fract_x
_atom_site_fract_y
_atom_site_fract_z
Si Si1 0.452883 0.956068 0.674105
Si Si2 0.495365 0.422791 0.965572
Si Si3 0.000000 0.783988 0.750000
Si Si4 0.251594 0.138286 0.537700
Si Si5 0.500000 0.883290 0.250000
Si Si6 0.930259 0.442795 0.118161
Si Si7 0.077902 0.199675 0.817374
Si Si8 0.794738 0.129334 0.367161
O O1 0.500000 0.962999 0.750000
O O2 0.735055 0.952129 0.587223
O O3 0.298467 0.905667 0.681662
O O4 0.322559 0.003053 0.656891
O O5 0.451980 0.403248 0.894807
O O6 0.554150 0.379073 0.010961
O O7 0.223683 0.446862 0.036242
O O8 0.747449 0.749071 0.794391
O O9 0.959770 0.822412 0.820192
O O10 0.277212 0.092783 0.589917
O O11 0.530311 0.144205 0.452972
O O12 0.167348 0.188603 0.590913
O O13 0.448072 0.915256 0.189953
O O14 0.738641 0.846573 0.195604
O O15 0.000000 0.195167 0.750000
#
# Coordination Sequence:
#
# PCOD9289279 Si02
#       8
#     8   8   4   8   4   8   8   8
#     4  11  23  38  62  94 128 172 213 243 299 373
#     4  10  22  40  63  86 136 168 205 250 304 361
#     4  11  26  44  66  88 120 162 210 265 316 370
#     4  10  22  40  66  94 128 162 204 259 314 370
#     4  11  20  38  64  94 132 154 202 257 316 370
#     4  11  21  37  64  97 129 165 205 250 307 367
#     4  11  23  41  67  95 119 158 205 266 323 373
#     4  10  24  44  61  90 128 168 212 257 301 368
#
# _framework density 21.284167
#
# number of rings (size 3 to 8) (size 9 to 14) (size 15 to 20)
#    0.000    1.429    3.571    1.286    0.000    9.714 
#    0.000    2.857    0.000    0.000    0.000    0.000 
#    0.000    0.000    0.000    0.000    0.000    0.000 
#
# Total GULP energy -156315.448398 kJ/mol
# GULP energy per Si atom -5582.694586 kJ/mol
# Density = 2.123572 g / cm^3
# Si number density = 21.284167 Si / 1000 Ang^3
#
#
#
# Elastic Constant Matrix: (Units=GPa)
#
#
# Indices 1 2 3 4 5 6 
#
# 1 46.2345 13.6472 -1.4362 0.0000 6.4039 0.0000
# 2 13.6472 107.2355 36.3169 0.0000 -4.9005 0.0000
# 3 -1.4362 36.3169 79.8530 0.0000 9.9440 0.0000
# 4 0.0000 0.0000 0.0000 26.8125 0.0000 -3.7578
# 5 6.4039 -4.9005 9.9440 0.0000 33.7571 0.0000
# 6 0.0000 0.0000 0.0000 -3.7578 0.0000 -4.6784
#
#
#
# Elastic Compliance Matrix: (Units=1/GPa)
#
#
# Indices 1 2 3 4 5 6 
#
# 1 0.023872 -0.004397 0.003190 0.000000 -0.006107 0.000000
# 2 -0.004397 0.012175 -0.006167 0.000000 0.004418 0.000000
# 3 0.003190 -0.006167 0.016165 0.000000 -0.006262 0.000000
# 4 0.000000 0.000000 0.000000 0.033522 0.000000 -0.026926
# 5 -0.006107 0.004418 -0.006262 0.000000 0.033268 0.000000
# 6 0.000000 0.000000 0.000000 -0.026926 0.000000 -0.192120
#
#
# Mechanical properties :
#
#
# Convention : Reuss Voigt Hill
#
# Bulk Modulus (GPa) = 26.69278 36.70875 31.70076
# Shear Modulus (GPa) = -108.97445 23.49792 -42.73826
#
# Velocity S-wave (km/s) = -7.16316 3.32627 -4.48591
# Velocity P-wave (km/s) = 7.47303 5.66008 3.45034
#
# Compressibility (1/GPa) = 0.03746332
#
# Stress axis : x y z
#
# Youngs Moduli (GPa) = 41.89060 82.13443 61.86322
#
# Poissons Ratio (x) = 0.36117 -0.19732
# Poissons Ratio (y) = 0.18420 0.38148
# Poissons Ratio (z) = -0.13362 0.50648
#
# Static dielectric constant tensor:
#      x y z
#    x 1.802490 0.000000 -0.084260 
#    y 0.000000 1.766690 0.000000 
#    z -0.084260 0.000000 1.840570 
# 
# From -- ./inp_files/186690.got.cif
#   From: 2010.05.17/outbox.cif.g08.bks.cpg/sg15_94_cif.got.tgz:186690.got - 2010.06.03 18:47:42.
