data_PCOD9289291
_publ_section_title
;
Structure prediction by ZEFSAII (Michael W. Deem and Ramdas Pophale) SiO2 
 PCOD9289291
Probable space group: C 2/C
;
_chemical_formula_sum "Si O2"
_cell_formula_units_Z 64
_cell_length_a 14.197865
_cell_length_b 11.734049
_cell_length_c 30.576884
_cell_angle_alpha 90.000000
_cell_angle_beta 139.359756
_cell_angle_gamma 90.000000
_cell_volume 3317.799615
_symmetry_space_group_name_H-M "C 2/C"
_symmetry_group_IT_number 15
_symmetry_cell_setting 'monoclinic'
loop_
_space_group_symop_operation_xyz
x,y,z
-x,y,1/2-z
-x,-y,-z
x,-y,1/2+z
1/2+x,1/2+y,z
1/2-x,1/2+y,1/2-z
1/2-x,1/2-y,-z
1/2+x,1/2-y,1/2+z
loop_
_atom_site_type_symbol
_atom_site_label
_atom_site_fract_x
_atom_site_fract_y
_atom_site_fract_z
Si Si1 0.386336 0.397794 0.814721
Si Si2 0.855824 0.924817 0.448946
Si Si3 0.197740 0.540440 0.562577
Si Si4 0.496535 0.617816 0.801561
Si Si5 0.327745 0.011419 0.696427
Si Si6 0.309090 0.375843 0.529003
Si Si7 0.582182 0.828443 0.567622
Si Si8 0.304276 0.264875 0.303414
O O1 0.424671 0.502403 0.795859
O O2 0.255055 0.420084 0.802437
O O3 0.530234 0.372206 0.893438
O O4 0.331986 0.301893 0.763251
O O5 0.744761 0.981427 0.376510
O O6 0.805205 0.931031 0.480430
O O7 0.877482 0.790777 0.442883
O O8 0.000000 0.000000 0.500000
O O9 0.339196 0.611236 0.623962
O O10 0.218296 0.456388 0.528732
O O11 0.175070 0.443950 0.591999
O O12 0.069569 0.627174 0.505629
O O13 0.500000 0.627705 0.750000
O O14 0.407670 0.709235 0.798597
O O15 0.500000 0.002171 0.750000
O O16 0.269064 0.125629 0.699694
O O17 0.250000 0.250000 0.500000
O O18 0.602763 0.796991 0.625821
#
# Coordination Sequence:
#
# PCOD9289291 Si02
#       8
#     8   8   8   8   8   8   8   8
#     4  10  22  41  60  86 126 159 203 260 302 369
#     4  11  22  42  63  90 129 163 199 265 316 368
#     4  10  22  40  63  91 124 163 210 254 303 375
#     4  10  22  41  61  88 122 164 207 252 310 371
#     4  10  23  40  61  89 121 162 207 249 316 371
#     4  11  22  39  64  96 120 162 214 250 308 371
#     4  10  22  41  62  91 124 165 207 252 313 364
#     4  10  23  40  61  88 122 161 205 256 307 364
#
# _framework density 19.289892999999999
#
# number of rings (size 3 to 8) (size 9 to 14) (size 15 to 20)
#    0.000    1.750    2.500    0.750    3.500    4.500 
#    4.500    0.000    0.000    0.000    0.000    0.000 
#    0.000    0.000    0.000    0.000    0.000    0.000 
#
# Total GULP energy -178247.290825 kJ/mol
# GULP energy per Si atom -5570.227838 kJ/mol
# Density = 1.924599 g / cm^3
# Si number density = 19.289893 Si / 1000 Ang^3
#
#
#
# Elastic Constant Matrix: (Units=GPa)
#
#
# Indices 1 2 3 4 5 6 
#
# 1 88.7413 2.9927 28.4775 0.0000 -15.0242 0.0000
# 2 2.9927 31.4837 18.3132 0.0000 -6.0165 0.0000
# 3 28.4775 18.3132 79.3454 0.0000 -16.2460 0.0000
# 4 0.0000 0.0000 0.0000 24.7150 0.0000 2.7708
# 5 -15.0242 -6.0165 -16.2460 0.0000 43.4683 0.0000
# 6 0.0000 0.0000 0.0000 2.7708 0.0000 13.8755
#
#
#
# Elastic Compliance Matrix: (Units=1/GPa)
#
#
# Indices 1 2 3 4 5 6 
#
# 1 0.013193 0.001994 -0.004554 0.000000 0.003134 0.000000
# 2 0.001994 0.037162 -0.008770 0.000000 0.002555 0.000000
# 3 -0.004554 -0.008770 0.016991 0.000000 0.003563 0.000000
# 4 0.000000 0.000000 0.000000 0.041388 0.000000 -0.008265
# 5 0.003134 0.002555 0.003563 0.000000 0.025774 0.000000
# 6 0.000000 0.000000 0.000000 -0.008265 0.000000 0.073720
#
#
# Mechanical properties :
#
#
# Convention : Reuss Voigt Hill
#
# Bulk Modulus (GPa) = 22.37763 33.23746 27.80754
# Shear Modulus (GPa) = 20.34315 26.39755 23.37035
#
# Velocity S-wave (km/s) = 3.25099 3.70329 3.48449
# Velocity P-wave (km/s) = 5.07127 5.96269 5.53496
#
# Compressibility (1/GPa) = 0.04468749
#
# Stress axis : x y z
#
# Youngs Moduli (GPa) = 75.79568 26.90897 58.85503
#
# Poissons Ratio (x) = -0.05364 0.26800
# Poissons Ratio (y) = -0.15110 0.51613
# Poissons Ratio (z) = 0.34514 0.23598
#
# Static dielectric constant tensor:
#      x y z
#    x 1.693160 0.000000 0.012560 
#    y 0.000000 0.373990 0.000000 
#    z 0.012560 0.000000 1.634010 
# 
# From -- ./inp_files/313617.got.cif
#   From: 2010.05.17/outbox.cif.g08.bks.cpg/sg15_157_cif.got.tgz:313617.got - 2010.06.03 18:47:42.
