data_PCOD9289767
_publ_section_title
;
Structure prediction by ZEFSAII (Michael W. Deem and Ramdas Pophale) SiO2 
 PCOD9289767
Probable space group: C 2/C
;
_chemical_formula_sum "Si O2"
_cell_formula_units_Z 56
_cell_length_a 19.012813
_cell_length_b 8.218510
_cell_length_c 15.324469
_cell_angle_alpha 90.000000
_cell_angle_beta 93.812857
_cell_angle_gamma 90.000000
_cell_volume 2389.255280
_symmetry_space_group_name_H-M "C 2/C"
_symmetry_group_IT_number 15
_symmetry_cell_setting 'monoclinic'
loop_
_space_group_symop_operation_xyz
x,y,z
-x,y,1/2-z
-x,-y,-z
x,-y,1/2+z
1/2+x,1/2+y,z
1/2-x,1/2+y,1/2-z
1/2-x,1/2-y,-z
1/2+x,1/2-y,1/2+z
loop_
_atom_site_type_symbol
_atom_site_label
_atom_site_fract_x
_atom_site_fract_y
_atom_site_fract_z
Si Si1 0.704647 0.438288 0.363877
Si Si2 0.500000 0.192906 0.750000
Si Si3 0.595938 0.926340 0.695150
Si Si4 0.282555 0.923075 0.029678
Si Si5 0.937437 0.365447 0.999249
Si Si6 0.555230 0.431519 0.885855
Si Si7 0.761608 0.418364 0.706208
Si Si8 0.000000 0.835033 0.250000
O O1 0.761066 0.465375 0.445784
O O2 0.628773 0.474595 0.401322
O O3 0.707439 0.561623 0.281214
O O4 0.720273 0.263021 0.323683
O O5 0.554915 0.301241 0.806689
O O6 0.541671 0.074983 0.689297
O O7 0.596388 0.853317 0.599388
O O8 0.668675 0.984162 0.739636
O O9 0.565928 0.785471 0.755021
O O10 0.367609 0.917642 0.048612
O O11 0.250000 0.750000 0.000000
O O12 0.248051 0.981101 0.117347
O O13 0.961966 0.187545 0.035140
O O14 0.000000 0.500000 0.000000
O O15 0.501180 0.559873 0.838420
#
# Coordination Sequence:
#
# PCOD9289767 Si02
#       8
#     8   4   8   8   8   8   8   4
#     4  12  26  46  71 106 141 195 248 311 376 445
#     4  10  22  40  68 100 138 190 240 290 362 452
#     4  11  23  43  70 100 137 191 240 294 368 445
#     4  12  26  47  73 105 151 195 250 312 374 454
#     4  12  25  43  71 110 144 190 246 306 376 454
#     4  11  23  43  69 100 148 185 242 310 368 440
#     4  12  27  46  74 104 144 194 250 310 374 444
#     4  10  24  44  66 100 140 192 238 296 370 432
#
# _framework density 23.438264
#
# number of rings (size 3 to 8) (size 9 to 14) (size 15 to 20)
#    0.000    0.571    5.714    2.143    4.000    0.571 
#    0.000    0.000    0.000    0.000    0.000    0.000 
#    0.000    0.000    0.000    0.000    0.000    0.000 
#
# Total GULP energy -156359.965935 kJ/mol
# GULP energy per Si atom -5584.284498 kJ/mol
# Density = 2.338492 g / cm^3
# Si number density = 23.438264 Si / 1000 Ang^3
#
#
#
# Elastic Constant Matrix: (Units=GPa)
#
#
# Indices 1 2 3 4 5 6 
#
# 1 79.4181 19.1900 -2.6988 0.0000 10.6320 0.0000
# 2 19.1900 73.7829 5.7744 0.0000 9.0535 0.0000
# 3 -2.6988 5.7744 111.4405 0.0000 13.3553 0.0000
# 4 0.0000 0.0000 0.0000 48.1199 0.0000 0.9380
# 5 10.6320 9.0535 13.3553 0.0000 26.1050 0.0000
# 6 0.0000 0.0000 0.0000 0.9380 0.0000 20.3140
#
#
#
# Elastic Compliance Matrix: (Units=1/GPa)
#
#
# Indices 1 2 3 4 5 6 
#
# 1 0.014082 -0.003109 0.001129 0.000000 -0.005235 0.000000
# 2 -0.003109 0.014844 -0.000404 0.000000 -0.003675 0.000000
# 3 0.001129 -0.000404 0.009652 0.000000 -0.005258 0.000000
# 4 0.000000 0.000000 0.000000 0.020800 0.000000 -0.000960
# 5 -0.005235 -0.003675 -0.005258 0.000000 0.044403 0.000000
# 6 0.000000 0.000000 0.000000 -0.000960 0.000000 0.049272
#
#
# Mechanical properties :
#
#
# Convention : Reuss Voigt Hill
#
# Bulk Modulus (GPa) = 29.57537 34.35253 31.96395
# Shear Modulus (GPa) = 29.57005 35.06618 32.31811
#
# Velocity S-wave (km/s) = 3.55577 3.87215 3.71733
# Velocity P-wave (km/s) = 5.43174 5.88896 5.66497
#
# Compressibility (1/GPa) = 0.03381192
#
# Stress axis : x y z
#
# Youngs Moduli (GPa) = 71.01301 67.36557 103.60781
#
# Poissons Ratio (x) = 0.20941 -0.11702
# Poissons Ratio (y) = 0.22075 0.04186
# Poissons Ratio (z) = -0.08021 0.02721
#
# Static dielectric constant tensor:
#      x y z
#    x 1.991630 0.000000 -0.070140 
#    y 0.000000 1.911610 0.000000 
#    z -0.070140 0.000000 1.925200 
# 
# From -- ./inp_files/166699.got.cif
#   From: 2010.05.17/outbox.cif.g08.bks.cpg/sg15_84_cif.got.tgz:166699.got - 2010.06.03 18:47:42.
