data_PCOD9289746
_publ_section_title
;
Structure prediction by ZEFSAII (Michael W. Deem and Ramdas Pophale) SiO2 
 PCOD9289746
Probable space group: C 2/C
;
_chemical_formula_sum "Si O2"
_cell_formula_units_Z 56
_cell_length_a 14.149954
_cell_length_b 30.041833
_cell_length_c 11.395913
_cell_angle_alpha 90.000000
_cell_angle_beta 34.402196
_cell_angle_gamma 90.000000
_cell_volume 2737.020016
_symmetry_space_group_name_H-M "C 2/C"
_symmetry_group_IT_number 15
_symmetry_cell_setting 'monoclinic'
loop_
_space_group_symop_operation_xyz
x,y,z
-x,y,1/2-z
-x,-y,-z
x,-y,1/2+z
1/2+x,1/2+y,z
1/2-x,1/2+y,1/2-z
1/2-x,1/2-y,-z
1/2+x,1/2-y,1/2+z
loop_
_atom_site_type_symbol
_atom_site_label
_atom_site_fract_x
_atom_site_fract_y
_atom_site_fract_z
Si Si1 0.301805 0.800621 0.466530
Si Si2 0.141342 0.421333 0.458704
Si Si3 0.229766 0.402896 0.620612
Si Si4 0.774899 0.843564 0.195085
Si Si5 0.630257 0.228909 0.024586
Si Si6 0.638111 0.321022 0.882523
Si Si7 0.030067 0.025659 0.848063
O O1 0.500000 0.804936 0.250000
O O2 0.250000 0.750000 0.500000
O O3 0.225294 0.828397 0.438639
O O4 0.234771 0.813045 0.662663
O O5 0.199065 0.393911 0.514843
O O6 0.183999 0.390335 0.305577
O O7 0.274179 0.460929 0.337736
O O8 0.942073 0.428248 0.666284
O O9 0.250393 0.354813 0.657140
O O10 0.394214 0.433329 0.476964
O O11 0.690828 0.806338 0.366006
O O12 0.965573 0.846468 0.038838
O O13 0.587833 0.273743 0.993130
O O14 0.500000 0.208067 0.250000
O O15 0.750000 0.250000 0.000000
O O16 0.000000 0.003124 0.750000
O O17 0.000000 0.000000 0.000000
#
# Coordination Sequence:
#
# PCOD9289746 Si02
#       7
#     8   8   8   8   8   8   8
#     4  12  26  42  58  81 121 174 223 272 329 385
#     4  10  22  40  67  98 131 169 210 263 327 388
#     4  10  22  40  67  98 132 170 212 264 325 388
#     4  12  24  41  62  87 122 169 221 268 326 384
#     4  12  26  36  55  89 123 163 215 274 321 370
#     4  12  24  42  62  87 125 170 220 273 326 380
#     4  10  22  45  72 102 134 168 210 266 332 406
#
# _framework density 20.460208000000002
#
# number of rings (size 3 to 8) (size 9 to 14) (size 15 to 20)
#    0.000    0.857    4.286    3.000    6.000    0.571 
#    2.571    0.000    0.000    0.000    0.000    0.000 
#    0.000    0.000    0.000    0.000    0.000    0.000 
#
# Total GULP energy -156127.536857 kJ/mol
# GULP energy per Si atom -5575.983459 kJ/mol
# Density = 2.041364 g / cm^3
# Si number density = 20.460208 Si / 1000 Ang^3
#
#
#
# Elastic Constant Matrix: (Units=GPa)
#
#
# Indices 1 2 3 4 5 6 
#
# 1 74.7062 18.9609 25.7518 0.0000 14.0456 0.0000
# 2 18.9609 19.3943 8.4430 0.0000 9.5382 0.0000
# 3 25.7518 8.4430 106.0940 0.0000 6.1424 0.0000
# 4 0.0000 0.0000 0.0000 29.5024 0.0000 7.8766
# 5 14.0456 9.5382 6.1424 0.0000 52.2426 0.0000
# 6 0.0000 0.0000 0.0000 7.8766 0.0000 22.4430
#
#
#
# Elastic Compliance Matrix: (Units=1/GPa)
#
#
# Indices 1 2 3 4 5 6 
#
# 1 0.018948 -0.016271 -0.003203 0.000000 -0.001747 0.000000
# 2 -0.016271 0.072301 -0.001302 0.000000 -0.008673 0.000000
# 3 -0.003203 -0.001302 0.010313 0.000000 -0.000114 0.000000
# 4 0.000000 0.000000 0.000000 0.037400 0.000000 -0.013126
# 5 -0.001747 -0.008673 -0.000114 0.000000 0.021208 0.000000
# 6 0.000000 0.000000 0.000000 -0.013126 0.000000 0.049164
#
#
# Mechanical properties :
#
#
# Convention : Reuss Voigt Hill
#
# Bulk Modulus (GPa) = 16.66403 34.05622 25.36012
# Shear Modulus (GPa) = 18.45768 30.64020 24.54894
#
# Velocity S-wave (km/s) = 3.00680 3.87402 3.46763
# Velocity P-wave (km/s) = 4.49630 6.05739 5.33426
#
# Compressibility (1/GPa) = 0.06000951
#
# Stress axis : x y z
#
# Youngs Moduli (GPa) = 52.77589 13.83109 96.96205
#
# Poissons Ratio (x) = 0.22504 0.31059
# Poissons Ratio (y) = 0.85871 0.12627
# Poissons Ratio (z) = 0.16905 0.01801
#
# Static dielectric constant tensor:
#      x y z
#    x 1.766150 0.000000 -0.028070 
#    y 0.000000 1.742180 0.000000 
#    z -0.028070 0.000000 1.766020 
# 
# From -- ./inp_files/101758.got.cif
#   From: 2010.05.17/outbox.cif.g08.bks.cpg/sg15_51_cif.got.tgz:101758.got - 2010.06.03 18:47:42.
