data_PCOD9289648
_publ_section_title
;
Structure prediction by ZEFSAII (Michael W. Deem and Ramdas Pophale) SiO2 
 PCOD9289648
Probable space group: C 2/C
;
_chemical_formula_sum "Si O2"
_cell_formula_units_Z 44
_cell_length_a 14.417099
_cell_length_b 6.458920
_cell_length_c 21.494345
_cell_angle_alpha 90.000000
_cell_angle_beta 109.500103
_cell_angle_gamma 90.000000
_cell_volume 1886.723577
_symmetry_space_group_name_H-M "C 2/C"
_symmetry_group_IT_number 15
_symmetry_cell_setting 'monoclinic'
loop_
_space_group_symop_operation_xyz
x,y,z
-x,y,1/2-z
-x,-y,-z
x,-y,1/2+z
1/2+x,1/2+y,z
1/2-x,1/2+y,1/2-z
1/2-x,1/2-y,-z
1/2+x,1/2-y,1/2+z
loop_
_atom_site_type_symbol
_atom_site_label
_atom_site_fract_x
_atom_site_fract_y
_atom_site_fract_z
Si Si1 0.123325 0.822447 0.201167
Si Si2 0.037978 0.953677 0.417106
Si Si3 0.000000 0.161029 0.250000
Si Si4 0.729837 0.287917 0.422537
Si Si5 0.058333 0.688179 0.542852
Si Si6 0.830365 0.465072 0.190566
O O1 0.231384 0.869714 0.198647
O O2 0.069394 0.014244 0.223629
O O3 0.131703 0.636464 0.251466
O O4 0.046299 0.799843 0.127456
O O5 0.135485 0.935618 0.397547
O O6 0.067357 0.862265 0.490807
O O7 0.997015 0.184633 0.416254
O O8 0.919871 0.309741 0.200127
O O9 0.750000 0.250000 0.500000
O O10 0.830343 0.372136 0.415095
O O11 0.701235 0.080775 0.379577
O O12 0.000000 0.500000 0.500000
#
# Coordination Sequence:
#
# PCOD9289648 Si02
#       6
#     8   8   4   8   8   8
#     4  12  25  45  72 104 140 188 232 292 359 417
#     4  10  22  42  63  93 138 171 224 288 336 409
#     4  12  26  46  74 100 140 186 232 288 358 416
#     4  10  22  43  67  94 135 176 223 283 342 408
#     4  10  22  40  66  96 131 180 226 276 342 412
#     4  12  25  47  72 104 143 185 237 292 353 428
#
# _framework density 23.32085
#
# number of rings (size 3 to 8) (size 9 to 14) (size 15 to 20)
#    0.000    1.091    3.636    2.727    0.000    6.545 
#    3.273    0.000    0.000    0.000    0.000    0.000 
#    0.000    0.000    0.000    0.000    0.000    0.000 
#
# Total GULP energy -122974.233649 kJ/mol
# GULP energy per Si atom -5589.737893 kJ/mol
# Density = 2.326777 g / cm^3
# Si number density = 23.320850 Si / 1000 Ang^3
#
#
#
# Elastic Constant Matrix: (Units=GPa)
#
#
# Indices 1 2 3 4 5 6 
#
# 1 179.1632 61.9334 22.1201 0.0000 35.5324 0.0000
# 2 61.9334 61.8240 8.3621 0.0000 3.5623 0.0000
# 3 22.1201 8.3621 67.4626 0.0000 2.7506 0.0000
# 4 0.0000 0.0000 0.0000 44.1296 0.0000 -0.6339
# 5 35.5324 3.5623 2.7506 0.0000 44.1011 0.0000
# 6 0.0000 0.0000 0.0000 -0.6339 0.0000 43.1191
#
#
#
# Elastic Compliance Matrix: (Units=1/GPa)
#
#
# Indices 1 2 3 4 5 6 
#
# 1 0.010913 -0.010210 -0.001993 0.000000 -0.007843 0.000000
# 2 -0.010210 0.026068 -0.000133 0.000000 0.006129 0.000000
# 3 -0.001993 -0.000133 0.015466 0.000000 0.000652 0.000000
# 4 0.000000 0.000000 0.000000 0.022665 0.000000 0.000333
# 5 -0.007843 0.006129 0.000652 0.000000 0.028459 0.000000
# 6 0.000000 0.000000 0.000000 0.000333 0.000000 0.023196
#
#
# Mechanical properties :
#
#
# Convention : Reuss Voigt Hill
#
# Bulk Modulus (GPa) = 36.00428 54.80901 45.40664
# Shear Modulus (GPa) = 31.11406 40.67222 35.89314
#
# Velocity S-wave (km/s) = 3.65660 4.18069 3.92739
# Velocity P-wave (km/s) = 5.77060 6.84524 6.33076
#
# Compressibility (1/GPa) = 0.02777448
#
# Stress axis : x y z
#
# Youngs Moduli (GPa) = 91.63694 38.36065 64.65644
#
# Poissons Ratio (x) = 0.39168 0.12884
# Poissons Ratio (y) = 0.93566 0.00861
# Poissons Ratio (z) = 0.18261 0.00511
#
# Static dielectric constant tensor:
#      x y z
#    x 1.974320 0.000000 -0.054180 
#    y 0.000000 1.856950 0.000000 
#    z -0.054180 0.000000 1.947360 
# 
# From -- ./inp_files/294479.got.cif
#   From: 2010.05.17/outbox.cif.g08.bks.cpg/sg15_148_cif.got.tgz:294479.got - 2010.06.03 18:47:42.
