data_PCOD9289792
_publ_section_title
;
Structure prediction by ZEFSAII (Michael W. Deem and Ramdas Pophale) SiO2 
 PCOD9289792
Probable space group: C 2/C
;
_chemical_formula_sum "Si O2"
_cell_formula_units_Z 44
_cell_length_a 14.769214
_cell_length_b 19.063735
_cell_length_c 9.077462
_cell_angle_alpha 90.000000
_cell_angle_beta 41.438306
_cell_angle_gamma 90.000000
_cell_volume 1691.473705
_symmetry_space_group_name_H-M "C 2/C"
_symmetry_group_IT_number 15
_symmetry_cell_setting 'monoclinic'
loop_
_space_group_symop_operation_xyz
x,y,z
-x,y,1/2-z
-x,-y,-z
x,-y,1/2+z
1/2+x,1/2+y,z
1/2-x,1/2+y,1/2-z
1/2-x,1/2-y,-z
1/2+x,1/2-y,1/2+z
loop_
_atom_site_type_symbol
_atom_site_label
_atom_site_fract_x
_atom_site_fract_y
_atom_site_fract_z
Si Si1 0.337219 0.424653 0.870051
Si Si2 0.068697 0.428142 0.378652
Si Si3 0.666445 0.429253 0.287640
Si Si4 0.000000 0.324517 0.250000
Si Si5 0.135310 0.781215 0.246323
Si Si6 0.845305 0.769669 0.722654
O O1 0.605158 0.422720 0.529609
O O2 0.361710 0.494789 0.745029
O O3 0.348100 0.351483 0.768460
O O4 0.177357 0.434811 0.113273
O O5 0.171117 0.413395 0.388196
O O6 0.000000 0.500000 0.500000
O O7 0.966423 0.371295 0.436720
O O8 0.620364 0.364895 0.245096
O O9 0.884638 0.276646 0.316729
O O10 0.213039 0.762781 0.304722
O O11 0.977886 0.757765 0.452875
O O12 0.250000 0.750000 0.000000
#
# Coordination Sequence:
#
# PCOD9289792 Si02
#       6
#     8   8   8   4   8   8
#     4  10  24  45  72 114 151 215 266 340 404 491
#     4  10  22  40  68 113 154 203 258 338 402 480
#     4  10  24  46  71 115 159 209 279 327 422 487
#     4  12  22  42  78 110 152 210 278 324 406 492
#     4  12  28  49  75 119 159 217 269 349 412 497
#     4  12  26  50  80 111 163 211 280 338 413 501
#
# _framework density 26.012817999999999
#
# number of rings (size 3 to 8) (size 9 to 14) (size 15 to 20)
#    1.091    0.000    1.818    3.818    2.545    4.364 
#    3.273    0.000    0.000    0.000    0.000    0.000 
#    0.000    0.000    0.000    0.000    0.000    0.000 
#
# Total GULP energy -122819.210107 kJ/mol
# GULP energy per Si atom -5582.691369 kJ/mol
# Density = 2.595361 g / cm^3
# Si number density = 26.012818 Si / 1000 Ang^3
#
#
#
# Elastic Constant Matrix: (Units=GPa)
#
#
# Indices 1 2 3 4 5 6 
#
# 1 84.3658 26.3961 -5.8724 -0.0001 -14.3473 0.0001
# 2 26.3961 200.9831 27.9192 -0.0001 14.0797 0.0000
# 3 -5.8724 27.9192 90.1726 -0.0002 14.4529 0.0002
# 4 -0.0001 -0.0001 -0.0002 53.8808 0.0001 2.9637
# 5 -14.3473 14.0797 14.4529 0.0001 46.2764 -0.0001
# 6 0.0001 0.0000 0.0002 2.9637 -0.0001 52.7270
#
#
#
# Elastic Compliance Matrix: (Units=1/GPa)
#
#
# Indices 1 2 3 4 5 6 
#
# 1 0.013370 -0.002189 0.000818 0.000000 0.004555 0.000000
# 2 -0.002189 0.005615 -0.001577 0.000000 -0.001894 0.000000
# 3 0.000818 -0.001577 0.012121 0.000000 -0.003052 0.000000
# 4 0.000000 0.000000 0.000000 0.018617 0.000000 -0.001046
# 5 0.004555 -0.001894 -0.003052 0.000000 0.024551 0.000000
# 6 0.000000 0.000000 0.000000 -0.001046 0.000000 0.019024
#
#
# Mechanical properties :
#
#
# Convention : Reuss Voigt Hill
#
# Bulk Modulus (GPa) = 39.66784 52.48972 46.07878
# Shear Modulus (GPa) = 46.46992 52.38208 49.42600
#
# Velocity S-wave (km/s) = 4.23120 4.49230 4.36370
# Velocity P-wave (km/s) = 6.25725 6.86512 6.56822
#
# Compressibility (1/GPa) = 0.02520934
#
# Stress axis : x y z
#
# Youngs Moduli (GPa) = 74.79666 178.10039 82.50366
#
# Poissons Ratio (x) = 0.38980 -0.06750
# Poissons Ratio (y) = 0.16371 0.13014
# Poissons Ratio (z) = -0.06120 0.28093
#
# Static dielectric constant tensor:
#      x y z
#    x 2.477570 0.000000 -0.303920 
#    y 0.000000 2.052810 0.000000 
#    z -0.303920 0.000000 2.508390 
# 
# From -- ./inp_files/99666.got.cif
#   From: 2010.05.17/outbox.cif.g08.bks.cpg/sg15_50_cif.got.tgz:99666.got - 2010.06.03 18:47:42.
