data_PCOD9289586
_publ_section_title
;
Structure prediction by ZEFSAII (Michael W. Deem and Ramdas Pophale) SiO2 
 PCOD9289586
Probable space group: C 2/C
;
_chemical_formula_sum "Si O2"
_cell_formula_units_Z 40
_cell_length_a 18.260363
_cell_length_b 7.833182
_cell_length_c 26.603827
_cell_angle_alpha 90.000000
_cell_angle_beta 22.479748
_cell_angle_gamma 90.000000
_cell_volume 1454.992030
_symmetry_space_group_name_H-M "C 2/C"
_symmetry_group_IT_number 15
_symmetry_cell_setting 'monoclinic'
loop_
_space_group_symop_operation_xyz
x,y,z
-x,y,1/2-z
-x,-y,-z
x,-y,1/2+z
1/2+x,1/2+y,z
1/2-x,1/2+y,1/2-z
1/2-x,1/2-y,-z
1/2+x,1/2-y,1/2+z
loop_
_atom_site_type_symbol
_atom_site_label
_atom_site_fract_x
_atom_site_fract_y
_atom_site_fract_z
Si Si1 0.923538 0.407517 0.709088
Si Si2 0.643945 0.531973 0.954597
Si Si3 0.207734 0.937850 0.260183
Si Si4 0.284756 0.560616 0.453764
Si Si5 0.231978 0.085707 0.145102
O O1 0.816190 0.406892 0.830508
O O2 0.840184 0.561019 0.725968
O O3 0.148264 0.437848 0.573029
O O4 0.848793 0.246611 0.725116
O O5 0.732095 0.718482 0.892453
O O6 0.500000 0.500000 0.000000
O O7 0.498741 0.517159 0.092916
O O8 0.316908 0.029989 0.144799
O O9 0.250000 0.750000 0.500000
O O10 0.509690 0.551501 0.299408
O O11 0.211495 0.505650 0.443853
#
# Coordination Sequence:
#
# PCOD9289586 Si02
#       5
#     8   8   8   8   8
#     4  11  25  43  72 105 150 193 241 309 365 442
#     4  10  22  40  66 103 142 185 238 300 365 424
#     4  11  25  44  71 111 147 186 252 305 369 430
#     4  11  24  44  70 101 136 196 242 291 370 441
#     4  11  24  44  72  99 143 190 243 303 363 441
#
# _framework density 27.491561999999998
#
# number of rings (size 3 to 8) (size 9 to 14) (size 15 to 20)
#    0.000    1.200    2.000    3.600    8.400    1.600 
#    0.000    0.000    0.000    0.000    0.000    0.000 
#    0.000    0.000    0.000    0.000    0.000    0.000 
#
# Total GULP energy -111733.613301 kJ/mol
# GULP energy per Si atom -5586.680665 kJ/mol
# Density = 2.742899 g / cm^3
# Si number density = 27.491562 Si / 1000 Ang^3
#
#
#
# Elastic Constant Matrix: (Units=GPa)
#
#
# Indices 1 2 3 4 5 6 
#
# 1 102.1964 -3.5809 53.9903 0.0065 29.4523 -0.0156
# 2 -3.5809 77.8527 16.1256 0.0133 9.2199 -0.0217
# 3 53.9903 16.1256 213.7481 -0.0102 27.4653 -0.0074
# 4 0.0065 0.0133 -0.0102 28.3697 -0.0037 -5.9182
# 5 29.4523 9.2199 27.4653 -0.0037 71.8761 0.0034
# 6 -0.0156 -0.0217 -0.0074 -5.9182 0.0034 31.2951
#
#
#
# Elastic Compliance Matrix: (Units=1/GPa)
#
#
# Indices 1 2 3 4 5 6 
#
# 1 0.012528 0.001652 -0.002737 -0.000004 -0.004300 0.000006
# 2 0.001652 0.013395 -0.001178 -0.000005 -0.001945 0.000009
# 3 -0.002737 -0.001178 0.005568 0.000003 -0.000855 0.000000
# 4 -0.000004 -0.000005 0.000003 0.036697 0.000003 0.006940
# 5 -0.004300 -0.001945 -0.000855 0.000003 0.016251 -0.000005
# 6 0.000006 0.000009 0.000000 0.006940 -0.000005 0.033266
#
#
# Mechanical properties :
#
#
# Convention : Reuss Voigt Hill
#
# Bulk Modulus (GPa) = 37.08253 58.54081 47.81167
# Shear Modulus (GPa) = 38.10433 48.12567 43.11500
#
# Velocity S-wave (km/s) = 3.72699 4.18851 3.96447
# Velocity P-wave (km/s) = 5.66026 6.68819 6.19558
#
# Compressibility (1/GPa) = 0.02696687
#
# Stress axis : x y z
#
# Youngs Moduli (GPa) = 79.82217 74.65403 179.58476
#
# Poissons Ratio (x) = -0.12335 0.49144
# Poissons Ratio (y) = -0.13189 0.21154
# Poissons Ratio (z) = 0.21844 0.08794
#
# Static dielectric constant tensor:
#      x y z
#    x 2.274980 0.000020 0.097290 
#    y 0.000020 2.249190 -0.000030 
#    z 0.097290 -0.000030 1.893590 
# 
# From -- ./inp_files/317454.got.cif
#   From: 2010.05.17/outbox.cif.g08.bks.cpg/sg15_159_cif.got.tgz:317454.got - 2010.06.03 18:47:42.
