data_PCOD9289620
_publ_section_title
;
Structure prediction by ZEFSAII (Michael W. Deem and Ramdas Pophale) SiO2 
 PCOD9289620
Probable space group: C 2/C
;
_chemical_formula_sum "Si O2"
_cell_formula_units_Z 44
_cell_length_a 5.150059
_cell_length_b 31.345017
_cell_length_c 11.611096
_cell_angle_alpha 90.000000
_cell_angle_beta 81.654041
_cell_angle_gamma 90.000000
_cell_volume 1854.513862
_symmetry_space_group_name_H-M "C 2/C"
_symmetry_group_IT_number 15
_symmetry_cell_setting 'monoclinic'
loop_
_space_group_symop_operation_xyz
x,y,z
-x,y,1/2-z
-x,-y,-z
x,-y,1/2+z
1/2+x,1/2+y,z
1/2-x,1/2+y,1/2-z
1/2-x,1/2-y,-z
1/2+x,1/2-y,1/2+z
loop_
_atom_site_type_symbol
_atom_site_label
_atom_site_fract_x
_atom_site_fract_y
_atom_site_fract_z
Si Si1 0.936010 0.804970 0.009201
Si Si2 0.188808 0.030428 0.126543
Si Si3 0.279219 0.935851 0.167160
Si Si4 0.620392 0.604201 0.460744
Si Si5 0.000000 0.406956 0.750000
Si Si6 0.100704 0.727454 0.871071
O O1 0.118254 0.790721 0.106949
O O2 0.633057 0.791550 0.035199
O O3 0.940692 0.855408 0.995487
O O4 0.079040 0.778014 0.898912
O O5 0.413690 0.061624 0.154102
O O6 0.000000 0.026966 0.250000
O O7 0.033058 0.058918 0.044268
O O8 0.294118 0.982840 0.106836
O O9 0.500000 0.932665 0.250000
O O10 0.000000 0.931468 0.250000
O O11 0.294403 0.901822 0.063893
O O12 0.764507 0.615580 0.330647
O O13 0.000000 0.717867 0.750000
#
# Coordination Sequence:
#
# PCOD9289620 Si02
#       6
#     8   8   8   8   4   8
#     4  10  24  42  66 105 128 164 227 261 330 404
#     4   9  20  41  61  95 129 180 231 276 332 390
#     4  11  25  43  66  97 137 184 231 273 334 399
#     4  11  25  41  68  99 135 175 224 289 333 394
#     4  10  22  40  66  92 132 178 230 278 334 382
#     4  10  22  45  70  93 133 176 207 266 332 404
#
# _framework density 23.725892000000002
#
# number of rings (size 3 to 8) (size 9 to 14) (size 15 to 20)
#    0.000    1.818    0.909    1.091    5.091    5.091 
#    6.545    0.000    0.000    0.000    0.000    0.000 
#    0.000    0.000    0.000    0.000    0.000    0.000 
#
# Total GULP energy -122813.622362 kJ/mol
# GULP energy per Si atom -5582.437380 kJ/mol
# Density = 2.367189 g / cm^3
# Si number density = 23.725892 Si / 1000 Ang^3
#
#
#
# Elastic Constant Matrix: (Units=GPa)
#
#
# Indices 1 2 3 4 5 6 
#
# 1 96.7181 4.9178 23.3880 0.0000 22.9054 0.0000
# 2 4.9178 70.0691 14.4297 0.0000 3.2125 0.0000
# 3 23.3880 14.4297 68.3109 0.0000 12.6740 0.0000
# 4 0.0000 0.0000 0.0000 3.8292 0.0000 4.1444
# 5 22.9054 3.2125 12.6740 0.0000 38.7429 0.0000
# 6 0.0000 0.0000 0.0000 4.1444 0.0000 19.2660
#
#
#
# Elastic Compliance Matrix: (Units=1/GPa)
#
#
# Indices 1 2 3 4 5 6 
#
# 1 0.012620 0.000056 -0.003138 0.000000 -0.006439 0.000000
# 2 0.000056 0.014923 -0.003125 0.000000 -0.000248 0.000000
# 3 -0.003138 -0.003125 0.017014 0.000000 -0.003451 0.000000
# 4 0.000000 0.000000 0.000000 0.340402 0.000000 -0.073226
# 5 -0.006439 -0.000248 -0.003451 0.000000 0.030768 0.000000
# 6 0.000000 0.000000 0.000000 -0.073226 0.000000 0.067657
#
#
# Mechanical properties :
#
#
# Convention : Reuss Voigt Hill
#
# Bulk Modulus (GPa) = 31.11209 35.61877 33.36543
# Shear Modulus (GPa) = 9.87141 25.19180 17.53161
#
# Velocity S-wave (km/s) = 2.04197 3.26204 2.72126
# Velocity P-wave (km/s) = 4.32448 5.40676 4.89562
#
# Compressibility (1/GPa) = 0.03214185
#
# Stress axis : x y z
#
# Youngs Moduli (GPa) = 79.23729 67.01205 58.77576
#
# Poissons Ratio (x) = -0.00373 0.18443
# Poissons Ratio (y) = -0.00441 0.18369
# Poissons Ratio (z) = 0.24864 0.20943
#
# Static dielectric constant tensor:
#      x y z
#    x 2.318360 0.000000 -0.137680 
#    y 0.000000 1.884980 0.000000 
#    z -0.137680 0.000000 1.976090 
# 
# From -- ./inp_files/73968.got.cif
#   From: 2010.05.17/outbox.cif.g08.bks.cpg/sg15_37_cif.got.tgz:73968.got - 2010.06.03 18:47:42.
