data_PCOD9289442
_publ_section_title
;
Structure prediction by ZEFSAII (Michael W. Deem and Ramdas Pophale) SiO2 
 PCOD9289442
Probable space group: C 2/C
;
_chemical_formula_sum "Si O2"
_cell_formula_units_Z 40
_cell_length_a 21.408569
_cell_length_b 9.112390
_cell_length_c 16.768159
_cell_angle_alpha 90.000000
_cell_angle_beta 30.351014
_cell_angle_gamma 90.000000
_cell_volume 1652.918033
_symmetry_space_group_name_H-M "C 2/C"
_symmetry_group_IT_number 15
_symmetry_cell_setting 'monoclinic'
loop_
_space_group_symop_operation_xyz
x,y,z
-x,y,1/2-z
-x,-y,-z
x,-y,1/2+z
1/2+x,1/2+y,z
1/2-x,1/2+y,1/2-z
1/2-x,1/2-y,-z
1/2+x,1/2-y,1/2+z
loop_
_atom_site_type_symbol
_atom_site_label
_atom_site_fract_x
_atom_site_fract_y
_atom_site_fract_z
Si Si1 0.272584 0.494725 0.966862
Si Si2 0.383787 0.254059 0.435352
Si Si3 0.099621 0.389517 0.930345
Si Si4 0.891805 0.272775 0.256266
Si Si5 0.212015 0.675619 0.805628
O O1 0.335358 0.584074 0.969365
O O2 0.368230 0.388678 0.816522
O O3 0.213954 0.626505 0.980150
O O4 0.166676 0.389120 0.118190
O O5 0.500000 0.228643 0.250000
O O6 0.394378 0.236052 0.518118
O O7 0.212213 0.501920 0.818751
O O8 0.160705 0.257511 0.814684
O O9 0.000000 0.500000 0.000000
O O10 0.031446 0.320098 0.081497
O O11 0.820017 0.290378 0.250999
#
# Coordination Sequence:
#
# PCOD9289442 Si02
#       5
#     8   8   8   8   8
#     4  10  23  40  60  90 127 162 206 258 316 376
#     4  11  23  40  60  89 125 163 205 259 317 373
#     4  10  22  40  64  95 129 163 209 268 315 368
#     4  10  22  42  64  90 126 167 210 263 316 373
#     4  11  22  40  67  94 124 169 220 258 310 388
#
# _framework density 24.199628000000001
#
# number of rings (size 3 to 8) (size 9 to 14) (size 15 to 20)
#    0.000    1.600    0.000    4.800    0.000    8.000 
#    0.000   10.000    0.000    0.000    0.000    0.000 
#    0.000    0.000    0.000    0.000    0.000    0.000 
#
# Total GULP energy -111765.465251 kJ/mol
# GULP energy per Si atom -5588.273263 kJ/mol
# Density = 2.414455 g / cm^3
# Si number density = 24.199628 Si / 1000 Ang^3
#
#
#
# Elastic Constant Matrix: (Units=GPa)
#
#
# Indices 1 2 3 4 5 6 
#
# 1 50.1780 16.9184 9.9797 0.0001 8.5780 0.0000
# 2 16.9184 183.9457 79.8988 0.0004 -7.9474 -0.0002
# 3 9.9797 79.8988 134.6229 0.0002 10.6034 -0.0001
# 4 0.0001 0.0004 0.0002 56.0341 0.0000 -1.2572
# 5 8.5780 -7.9474 10.6034 0.0000 27.5690 0.0000
# 6 0.0000 -0.0002 -0.0001 -1.2572 0.0000 15.9794
#
#
#
# Elastic Compliance Matrix: (Units=1/GPa)
#
#
# Indices 1 2 3 4 5 6 
#
# 1 0.022032 -0.002588 0.000517 0.000000 -0.007800 0.000000
# 2 -0.002588 0.008060 -0.004989 0.000000 0.005047 0.000000
# 3 0.000517 -0.004989 0.010804 0.000000 -0.005754 0.000000
# 4 0.000000 0.000000 0.000000 0.017878 0.000000 0.001407
# 5 -0.007800 0.005047 -0.005754 0.000000 0.042368 0.000000
# 6 0.000000 0.000000 0.000000 0.001407 0.000000 0.062691
#
#
# Mechanical properties :
#
#
# Convention : Reuss Voigt Hill
#
# Bulk Modulus (GPa) = 37.34697 64.70447 51.02572
# Shear Modulus (GPa) = 26.75539 37.37980 32.06760
#
# Velocity S-wave (km/s) = 3.32868 3.93446 3.64418
# Velocity P-wave (km/s) = 5.49908 6.88737 6.23200
#
# Compressibility (1/GPa) = 0.02677593
#
# Stress axis : x y z
#
# Youngs Moduli (GPa) = 45.38795 124.07653 92.55766
#
# Poissons Ratio (x) = 0.32111 -0.04786
# Poissons Ratio (y) = 0.11747 0.46177
# Poissons Ratio (z) = -0.02347 0.61902
#
# Static dielectric constant tensor:
#      x y z
#    x 2.027320 0.000000 -0.059910 
#    y 0.000000 1.883290 0.000000 
#    z -0.059910 0.000000 1.959950 
# 
# From -- ./inp_files/218762.got.cif
#   From: 2010.05.17/outbox.cif.g08.bks.cpg/sg15_110_cif.got.tgz:218762.got - 2010.06.03 18:47:42.
