data_PCOD9289872
_publ_section_title
;
Structure prediction by ZEFSAII (Michael W. Deem and Ramdas Pophale) SiO2 
 PCOD9289872
Probable space group: C 2/C
;
_chemical_formula_sum "Si O2"
_cell_formula_units_Z 60
_cell_length_a 16.527248
_cell_length_b 8.603551
_cell_length_c 23.290402
_cell_angle_alpha 90.000000
_cell_angle_beta 69.007292
_cell_angle_gamma 90.000000
_cell_volume 3091.919774
_symmetry_space_group_name_H-M "C 2/C"
_symmetry_group_IT_number 15
_symmetry_cell_setting 'monoclinic'
loop_
_space_group_symop_operation_xyz
x,y,z
-x,y,1/2-z
-x,-y,-z
x,-y,1/2+z
1/2+x,1/2+y,z
1/2-x,1/2+y,1/2-z
1/2-x,1/2-y,-z
1/2+x,1/2-y,1/2+z
loop_
_atom_site_type_symbol
_atom_site_label
_atom_site_fract_x
_atom_site_fract_y
_atom_site_fract_z
Si Si1 0.792763 0.156891 0.617475
Si Si2 0.000000 0.739810 0.250000
Si Si3 0.888317 0.524660 0.350214
Si Si4 0.673746 0.703161 0.561924
Si Si5 0.109268 0.966812 0.295786
Si Si6 0.192844 0.967701 0.656827
Si Si7 0.529243 0.288043 0.643355
Si Si8 0.079749 0.935268 0.515796
O O1 0.703618 0.058485 0.636828
O O2 0.847589 0.096822 0.657650
O O3 0.765940 0.336701 0.631361
O O4 0.847343 0.128837 0.545703
O O5 0.078243 0.631823 0.209698
O O6 0.035051 0.849205 0.291862
O O7 0.876260 0.642727 0.406008
O O8 0.958527 0.390222 0.343094
O O9 0.750000 0.750000 0.500000
O O10 0.706240 0.613636 0.611120
O O11 0.615864 0.579165 0.543256
O O12 0.176963 0.982957 0.226365
O O13 0.061521 0.130781 0.319198
O O14 0.103615 0.883425 0.658938
O O15 0.549883 0.311106 0.570860
O O16 0.000000 0.000000 0.500000
#
# Coordination Sequence:
#
# PCOD9289872 Si02
#       8
#     8   4   8   8   8   8   8   8
#     4  11  26  40  66  98 131 168 223 270 326 394
#     4  12  24  42  66  90 136 168 220 262 332 392
#     4  11  25  42  64 101 124 172 221 274 322 394
#     4  11  22  42  67  92 129 168 213 271 328 385
#     4  12  22  44  65  94 132 177 215 269 330 393
#     4  10  23  40  65  92 129 174 214 266 330 389
#     4  10  22  40  69  90 126 177 217 264 322 401
#     4  11  22  43  66  93 130 173 217 266 331 391
#
# _framework density 19.405418999999998
#
# number of rings (size 3 to 8) (size 9 to 14) (size 15 to 20)
#    0.000    1.067    5.333    0.800    7.467    1.600 
#    0.000    3.333    0.000    0.000    0.000    0.000 
#    0.000    0.000    0.000    0.000    0.000    0.000 
#
# Total GULP energy -167646.004204 kJ/mol
# GULP energy per Si atom -5588.200140 kJ/mol
# Density = 1.936125 g / cm^3
# Si number density = 19.405419 Si / 1000 Ang^3
#
#
#
# Elastic Constant Matrix: (Units=GPa)
#
#
# Indices 1 2 3 4 5 6 
#
# 1 56.3785 27.4737 24.2550 0.0000 3.4010 0.0000
# 2 27.4737 119.5858 42.7094 0.0000 -2.9502 0.0000
# 3 24.2550 42.7094 118.5623 0.0000 -0.7219 0.0000
# 4 0.0000 0.0000 0.0000 32.6821 0.0000 -12.5903
# 5 3.4010 -2.9502 -0.7219 0.0000 33.5956 0.0000
# 6 0.0000 0.0000 0.0000 -12.5903 0.0000 28.1223
#
#
#
# Elastic Compliance Matrix: (Units=1/GPa)
#
#
# Indices 1 2 3 4 5 6 
#
# 1 0.021025 -0.003846 -0.002931 0.000000 -0.002529 0.000000
# 2 -0.003846 0.010320 -0.002923 0.000000 0.001233 0.000000
# 3 -0.002931 -0.002923 0.010089 0.000000 0.000257 0.000000
# 4 0.000000 0.000000 0.000000 0.036975 0.000000 0.016554
# 5 -0.002529 0.001233 0.000257 0.000000 0.030136 0.000000
# 6 0.000000 0.000000 0.000000 0.016554 0.000000 0.042970
#
#
# Mechanical properties :
#
#
# Convention : Reuss Voigt Hill
#
# Bulk Modulus (GPa) = 45.38633 53.71143 49.54888
# Shear Modulus (GPa) = 28.04900 32.21922 30.13411
#
# Velocity S-wave (km/s) = 3.80599 4.07912 3.94492
# Velocity P-wave (km/s) = 6.53861 7.06571 6.80726
#
# Compressibility (1/GPa) = 0.02203306
#
# Stress axis : x y z
#
# Youngs Moduli (GPa) = 47.56247 96.89719 99.12093
#
# Poissons Ratio (x) = 0.37265 0.29055
# Poissons Ratio (y) = 0.18292 0.28977
# Poissons Ratio (z) = 0.13942 0.28327
#
# Static dielectric constant tensor:
#      x y z
#    x 1.571030 0.000000 -0.024070 
#    y 0.000000 1.629160 0.000000 
#    z -0.024070 0.000000 1.692750 
# 
# From -- ./inp_files/247395.got.cif
#   From: 2010.05.17/outbox.cif.g08.bks.cpg/sg15_124_cif.got.tgz:247395.got - 2010.06.03 18:47:42.
