data_PCOD9289100
_publ_section_title
;
Structure prediction by ZEFSAII (Michael W. Deem and Ramdas Pophale) SiO2 
 PCOD9289100
Probable space group: C 2/C
;
_chemical_formula_sum "Si O2"
_cell_formula_units_Z 52
_cell_length_a 24.295982
_cell_length_b 11.522346
_cell_length_c 9.016850
_cell_angle_alpha 90.000000
_cell_angle_beta 108.596036
_cell_angle_gamma 90.000000
_cell_volume 2392.448260
_symmetry_space_group_name_H-M "C 2/C"
_symmetry_group_IT_number 15
_symmetry_cell_setting 'monoclinic'
loop_
_space_group_symop_operation_xyz
x,y,z
-x,y,1/2-z
-x,-y,-z
x,-y,1/2+z
1/2+x,1/2+y,z
1/2-x,1/2+y,1/2-z
1/2-x,1/2-y,-z
1/2+x,1/2-y,1/2+z
loop_
_atom_site_type_symbol
_atom_site_label
_atom_site_fract_x
_atom_site_fract_y
_atom_site_fract_z
Si Si1 0.109009 0.175903 0.320104
Si Si2 0.957494 0.891221 0.470585
Si Si3 0.883588 0.724880 0.001037
Si Si4 0.843043 0.072082 0.688763
Si Si5 0.798033 0.654478 0.505917
Si Si6 0.784433 0.448940 0.303001
Si Si7 0.500000 0.220639 0.250000
O O1 0.053797 0.146324 0.371494
O O2 0.141367 0.280505 0.430528
O O3 0.149969 0.061435 0.357239
O O4 0.099124 0.218018 0.143216
O O5 0.893471 0.920861 0.354528
O O6 0.980941 0.798031 0.374061
O O7 0.000000 0.000000 0.500000
O O8 0.858846 0.831538 0.078934
O O9 0.939191 0.668508 0.134601
O O10 0.833749 0.631071 0.921565
O O11 0.779330 0.091201 0.699840
O O12 0.750000 0.750000 0.500000
O O13 0.790249 0.583132 0.351044
O O14 0.792129 0.564269 0.634969
#
# Coordination Sequence:
#
# PCOD9289100 Si02
#       7
#     8   8   8   8   8   8   4
#     4  11  22  38  64  95 138 174 224 283 346 407
#     4  11  22  37  61  95 135 177 217 279 345 416
#     4  10  24  41  62  96 132 183 229 280 341 409
#     4  11  21  36  62  95 135 176 225 281 343 404
#     4  11  24  44  66 100 140 181 227 285 342 409
#     4  11  25  41  68  97 136 181 233 283 341 408
#     4  10  22  40  60  88 132 174 230 274 336 412
#
# _framework density 21.735057000000001
#
# number of rings (size 3 to 8) (size 9 to 14) (size 15 to 20)
#    0.000    1.231    1.538    5.077    2.154    5.538 
#    0.000    0.769    0.000   10.154    0.000    0.000 
#    0.000    0.000    0.000    0.000    0.000    0.000 
#
# Total GULP energy -145362.602500 kJ/mol
# GULP energy per Si atom -5590.869327 kJ/mol
# Density = 2.168559 g / cm^3
# Si number density = 21.735057 Si / 1000 Ang^3
#
#
#
# Elastic Constant Matrix: (Units=GPa)
#
#
# Indices 1 2 3 4 5 6 
#
# 1 132.6358 10.4058 45.0881 0.0000 4.2054 0.0000
# 2 10.4058 50.5649 16.1608 0.0000 -6.0854 0.0000
# 3 45.0881 16.1608 34.7108 0.0000 4.2073 0.0000
# 4 0.0000 0.0000 0.0000 30.6193 0.0000 -9.5574
# 5 4.2054 -6.0854 4.2073 0.0000 44.1800 0.0000
# 6 0.0000 0.0000 0.0000 -9.5574 0.0000 23.6559
#
#
#
# Elastic Compliance Matrix: (Units=1/GPa)
#
#
# Indices 1 2 3 4 5 6 
#
# 1 0.014042 0.003655 -0.020073 0.000000 0.001078 0.000000
# 2 0.003655 0.025014 -0.016966 0.000000 0.004713 0.000000
# 3 -0.020073 -0.016966 0.063568 0.000000 -0.006480 0.000000
# 4 0.000000 0.000000 0.000000 0.037372 0.000000 0.015099
# 5 0.001078 0.004713 -0.006480 0.000000 0.023798 0.000000
# 6 0.000000 0.000000 0.000000 0.015099 0.000000 0.048373
#
#
# Mechanical properties :
#
#
# Convention : Reuss Voigt Hill
#
# Bulk Modulus (GPa) = 27.88806 40.13567 34.01187
# Shear Modulus (GPa) = 17.18889 29.44147 23.31518
#
# Velocity S-wave (km/s) = 2.81523 3.68443 3.27876
# Velocity P-wave (km/s) = 4.84006 6.05029 5.47869
#
# Compressibility (1/GPa) = 0.03585764
#
# Stress axis : x y z
#
# Youngs Moduli (GPa) = 71.21510 39.97782 15.73127
#
# Poissons Ratio (x) = -0.14614 0.31577
# Poissons Ratio (y) = -0.26032 0.26689
# Poissons Ratio (z) = 1.42948 0.67825
#
# Static dielectric constant tensor:
#      x y z
#    x 1.771960 0.000000 0.017590 
#    y 0.000000 1.777640 0.000000 
#    z 0.017590 0.000000 1.832200 
# 
# From -- ./inp_files/65213.got.cif
#   From: 2010.05.17/outbox.cif.g08.bks.cpg/sg15_33_cif.got.tgz:65213.got - 2010.06.03 18:47:42.
