data_PCOD9289025
_publ_section_title
;
Structure prediction by ZEFSAII (Michael W. Deem and Ramdas Pophale) SiO2 
 PCOD9289025
Probable space group: C 2/C
;
_chemical_formula_sum "Si O2"
_cell_formula_units_Z 40
_cell_length_a 16.342616
_cell_length_b 26.482019
_cell_length_c 16.112773
_cell_angle_alpha 90.000000
_cell_angle_beta 162.712317
_cell_angle_gamma 90.000000
_cell_volume 2072.274901
_symmetry_space_group_name_H-M "C 2/C"
_symmetry_group_IT_number 15
_symmetry_cell_setting 'monoclinic'
loop_
_space_group_symop_operation_xyz
x,y,z
-x,y,1/2-z
-x,-y,-z
x,-y,1/2+z
1/2+x,1/2+y,z
1/2-x,1/2+y,1/2-z
1/2-x,1/2-y,-z
1/2+x,1/2-y,1/2+z
loop_
_atom_site_type_symbol
_atom_site_label
_atom_site_fract_x
_atom_site_fract_y
_atom_site_fract_z
Si Si1 0.046622 0.781322 0.695916
Si Si2 0.155379 0.078121 0.481188
Si Si3 0.413933 0.050706 0.968916
Si Si4 0.364593 0.461385 0.034125
Si Si5 0.146851 0.382082 0.559208
O O1 0.000000 0.787913 0.750000
O O2 0.744181 0.766924 0.372005
O O3 0.202781 0.828512 0.806656
O O4 0.426954 0.106947 0.772800
O O5 0.000000 0.099332 0.250000
O O6 0.213374 0.019698 0.522660
O O7 0.910690 0.080839 0.311036
O O8 0.592350 0.058034 0.225430
O O9 0.474948 0.099832 0.972059
O O10 0.102341 0.043232 0.695557
O O11 0.500000 0.000000 0.000000
O O12 0.500000 0.440570 0.250000
#
# Coordination Sequence:
#
# PCOD9289025 Si02
#       5
#     8   8   8   8   8
#     4  10  22  40  57  77 111 149 189 239 286 330
#     4  11  21  32  49  76 108 146 189 223 261 326
#     4  12  21  36  54  81 114 143 186 238 275 325
#     4  11  22  37  52  74 113 156 185 219 272 330
#     4  12  22  34  56  79 106 144 189 234 278 327
#
# _framework density 19.302458000000001
#
# number of rings (size 3 to 8) (size 9 to 14) (size 15 to 20)
#    0.000    0.800    4.000    4.800    0.000    6.400 
#    0.000    0.000    0.000    0.000    0.000    0.000 
#    0.000   16.000    0.000    0.000    0.000    0.000 
#
# Total GULP energy -111606.109266 kJ/mol
# GULP energy per Si atom -5580.305463 kJ/mol
# Density = 1.925852 g / cm^3
# Si number density = 19.302458 Si / 1000 Ang^3
#
#
#
# Elastic Constant Matrix: (Units=GPa)
#
#
# Indices 1 2 3 4 5 6 
#
# 1 59.4996 28.0883 17.5350 -0.0007 2.8198 -0.0017
# 2 28.0883 70.1831 16.0721 -0.0024 3.4002 0.0001
# 3 17.5350 16.0721 105.8246 0.0020 3.4189 0.0043
# 4 -0.0007 -0.0024 0.0020 22.1170 0.0003 9.1809
# 5 2.8198 3.4002 3.4189 0.0003 47.2710 0.0003
# 6 -0.0017 0.0001 0.0043 9.1809 0.0003 15.0880
#
#
#
# Elastic Compliance Matrix: (Units=1/GPa)
#
#
# Indices 1 2 3 4 5 6 
#
# 1 0.021267 -0.007959 -0.002298 -0.000002 -0.000530 0.000004
# 2 -0.007959 0.017779 -0.001359 0.000003 -0.000706 -0.000002
# 3 -0.002298 -0.001359 0.010053 0.000000 -0.000492 -0.000003
# 4 -0.000002 0.000003 0.000000 0.060494 0.000000 -0.036810
# 5 -0.000530 -0.000706 -0.000492 0.000000 0.021273 0.000000
# 6 0.000004 -0.000002 -0.000003 -0.036810 0.000000 0.088676
#
#
# Mechanical properties :
#
#
# Convention : Reuss Voigt Hill
#
# Bulk Modulus (GPa) = 38.65958 39.87756 39.26857
# Shear Modulus (GPa) = 19.88903 28.48267 24.18585
#
# Velocity S-wave (km/s) = 3.21345 3.84552 3.54360
# Velocity P-wave (km/s) = 5.81723 6.35779 6.09351
#
# Compressibility (1/GPa) = 0.02586681
#
# Stress axis : x y z
#
# Youngs Moduli (GPa) = 47.02222 56.24560 99.47678
#
# Poissons Ratio (x) = 0.44767 0.22859
# Poissons Ratio (y) = 0.37426 0.13515
# Poissons Ratio (z) = 0.10805 0.07641
#
# Static dielectric constant tensor:
#      x y z
#    x 1.755140 0.000000 -0.004010 
#    y 0.000000 1.692690 -0.000010 
#    z -0.004010 -0.000010 1.704630 
# 
# From -- ./inp_files/157270.got.cif
#   From: 2010.05.17/outbox.cif.g08.bks.cpg/sg15_79_cif.got.tgz:157270.got - 2010.06.03 18:47:42.
