data_PCOD9289717
_publ_section_title
;
Structure prediction by ZEFSAII (Michael W. Deem and Ramdas Pophale) SiO2 
 PCOD9289717
Probable space group: C 2/C
;
_chemical_formula_sum "Si O2"
_cell_formula_units_Z 44
_cell_length_a 31.243471
_cell_length_b 11.452602
_cell_length_c 16.204234
_cell_angle_alpha 90.000000
_cell_angle_beta 162.736491
_cell_angle_gamma 90.000000
_cell_volume 1720.707983
_symmetry_space_group_name_H-M "C 2/C"
_symmetry_group_IT_number 15
_symmetry_cell_setting 'monoclinic'
loop_
_space_group_symop_operation_xyz
x,y,z
-x,y,1/2-z
-x,-y,-z
x,-y,1/2+z
1/2+x,1/2+y,z
1/2-x,1/2+y,1/2-z
1/2-x,1/2-y,-z
1/2+x,1/2-y,1/2+z
loop_
_atom_site_type_symbol
_atom_site_label
_atom_site_fract_x
_atom_site_fract_y
_atom_site_fract_z
Si Si1 0.881996 0.445400 0.634499
Si Si2 0.886795 0.642253 0.434212
Si Si3 0.000000 0.241123 0.750000
Si Si4 0.284725 0.340654 0.728241
Si Si5 0.060609 0.820343 0.643063
Si Si6 0.691394 0.565563 0.931444
O O1 0.754388 0.527711 0.366943
O O2 0.839277 0.425754 0.650098
O O3 0.895123 0.330501 0.605221
O O4 0.027674 0.520646 0.895987
O O5 0.838632 0.694872 0.433810
O O6 0.996042 0.726052 0.586447
O O7 0.746172 0.610546 0.120572
O O8 0.924431 0.167070 0.541358
O O9 0.323578 0.278329 0.713643
O O10 0.924773 0.861992 0.336173
O O11 0.127957 0.934056 0.812047
#
# Coordination Sequence:
#
# PCOD9289717 Si02
#       6
#     8   8   4   8   8   8
#     4  11  24  43  63 102 137 173 238 282 335 422
#     4  12  22  42  67  98 140 178 225 288 337 403
#     4  12  22  42  70  90 138 186 216 286 348 384
#     4  11  24  42  68  99 137 179 231 281 338 411
#     4  10  23  42  66  99 136 177 233 282 333 412
#     4  10  22  40  67  93 133 179 227 280 346 401
#
# _framework density 25.570869999999999
#
# number of rings (size 3 to 8) (size 9 to 14) (size 15 to 20)
#    0.000    1.091    1.818    4.364    0.000    4.364 
#    0.000    0.000    4.000    0.000    0.000    0.000 
#    0.000    0.000    0.000    0.000    0.000    0.000 
#
# Total GULP energy -123219.901723 kJ/mol
# GULP energy per Si atom -5600.904624 kJ/mol
# Density = 2.551267 g / cm^3
# Si number density = 25.570870 Si / 1000 Ang^3
#
#
#
# Elastic Constant Matrix: (Units=GPa)
#
#
# Indices 1 2 3 4 5 6 
#
# 1 205.9118 39.7475 40.9163 0.0000 5.7822 0.0000
# 2 39.7475 75.2707 50.3669 0.0000 -13.9704 0.0000
# 3 40.9163 50.3669 109.7341 0.0000 -4.7669 0.0000
# 4 0.0000 0.0000 0.0000 35.4567 0.0000 2.7401
# 5 5.7822 -13.9704 -4.7669 0.0000 44.2912 0.0000
# 6 0.0000 0.0000 0.0000 2.7401 0.0000 27.7806
#
#
#
# Elastic Compliance Matrix: (Units=1/GPa)
#
#
# Indices 1 2 3 4 5 6 
#
# 1 0.005600 -0.002627 -0.000954 0.000000 -0.001662 0.000000
# 2 -0.002627 0.021639 -0.008682 0.000000 0.006234 0.000000
# 3 -0.000954 -0.008682 0.013403 0.000000 -0.001171 0.000000
# 4 0.000000 0.000000 0.000000 0.028420 0.000000 -0.002803
# 5 -0.001662 0.006234 -0.001171 0.000000 0.024635 0.000000
# 6 0.000000 0.000000 0.000000 -0.002803 0.000000 0.036273
#
#
# Mechanical properties :
#
#
# Convention : Reuss Voigt Hill
#
# Bulk Modulus (GPa) = 62.05300 72.55309 67.30304
# Shear Modulus (GPa) = 31.27586 38.83143 35.05364
#
# Velocity S-wave (km/s) = 3.50109 3.90112 3.70651
# Velocity P-wave (km/s) = 6.37677 6.98045 6.68543
#
# Compressibility (1/GPa) = 0.01611526
#
# Stress axis : x y z
#
# Youngs Moduli (GPa) = 178.57549 46.21300 74.61126
#
# Poissons Ratio (x) = 0.12140 0.07122
# Poissons Ratio (y) = 0.46910 0.64776
# Poissons Ratio (z) = 0.17045 0.40121
#
# Static dielectric constant tensor:
#      x y z
#    x 2.159130 0.000000 0.068630 
#    y 0.000000 1.936220 0.000000 
#    z 0.068630 0.000000 2.071360 
# 
# From -- ./inp_files/182384.got.cif
#   From: 2010.05.17/outbox.cif.g08.bks.cpg/sg15_92_cif.got.tgz:182384.got - 2010.06.03 18:47:42.
