data_PCOD9289592
_publ_section_title
;
Structure prediction by ZEFSAII (Michael W. Deem and Ramdas Pophale) SiO2 
 PCOD9289592
Probable space group: C 2/C
;
_chemical_formula_sum "Si O2"
_cell_formula_units_Z 40
_cell_length_a 22.529920
_cell_length_b 6.297963
_cell_length_c 13.299583
_cell_angle_alpha 90.000000
_cell_angle_beta 63.835920
_cell_angle_gamma 90.000000
_cell_volume 1693.749436
_symmetry_space_group_name_H-M "C 2/C"
_symmetry_group_IT_number 15
_symmetry_cell_setting 'monoclinic'
loop_
_space_group_symop_operation_xyz
x,y,z
-x,y,1/2-z
-x,-y,-z
x,-y,1/2+z
1/2+x,1/2+y,z
1/2-x,1/2+y,1/2-z
1/2-x,1/2-y,-z
1/2+x,1/2-y,1/2+z
loop_
_atom_site_type_symbol
_atom_site_label
_atom_site_fract_x
_atom_site_fract_y
_atom_site_fract_z
Si Si1 0.601757 0.315546 0.227710
Si Si2 0.351838 0.933017 0.172814
Si Si3 0.518021 0.703893 0.351649
Si Si4 0.599741 0.977461 0.065688
Si Si5 0.305164 0.699715 0.377708
O O1 0.632353 0.154539 0.285356
O O2 0.543003 0.460747 0.318712
O O3 0.663145 0.467876 0.151760
O O4 0.578750 0.185054 0.145423
O O5 0.346114 0.959677 0.058453
O O6 0.419699 0.801536 0.137903
O O7 0.295534 0.801021 0.274068
O O8 0.500000 0.768553 0.250000
O O9 0.454242 0.822493 0.447043
O O10 0.634302 0.836008 0.123693
O O11 0.250000 0.750000 0.500000
#
# Coordination Sequence:
#
# PCOD9289592 Si02
#       5
#     8   8   8   8   8
#     4  10  22  40  66  81 133 166 195 264 322 357
#     4  10  23  40  61  96 121 159 218 253 314 381
#     4  11  20  38  60  90 126 165 200 250 315 391
#     4  11  23  40  63  95 124 161 217 258 310 383
#     4  10  23  44  61  89 125 164 214 255 318 377
#
# _framework density 23.616242
#
# number of rings (size 3 to 8) (size 9 to 14) (size 15 to 20)
#    0.000    1.600    6.000    0.600    2.800    7.200 
#    7.200    0.000    0.000    0.000    0.000    0.000 
#    0.000    0.000    0.000    0.000    0.000    0.000 
#
# Total GULP energy -111385.425604 kJ/mol
# GULP energy per Si atom -5569.271280 kJ/mol
# Density = 2.356249 g / cm^3
# Si number density = 23.616242 Si / 1000 Ang^3
#
#
#
# Elastic Constant Matrix: (Units=GPa)
#
#
# Indices 1 2 3 4 5 6 
#
# 1 19.4177 12.6817 -1.8234 0.0000 -5.6407 0.0000
# 2 12.6817 147.1940 49.0030 -0.0001 -10.7563 0.0000
# 3 -1.8234 49.0030 104.9526 0.0000 -1.5325 0.0000
# 4 0.0000 -0.0001 0.0000 26.1561 0.0000 4.7377
# 5 -5.6407 -10.7563 -1.5325 0.0000 39.3773 0.0000
# 6 0.0000 0.0000 0.0000 4.7377 0.0000 0.6960
#
#
#
# Elastic Compliance Matrix: (Units=1/GPa)
#
#
# Indices 1 2 3 4 5 6 
#
# 1 0.057571 -0.005715 0.003769 0.000000 0.006832 0.000000
# 2 -0.005715 0.008781 -0.004178 0.000000 0.001417 0.000001
# 3 0.003769 -0.004178 0.011542 0.000000 -0.000152 0.000000
# 4 0.000000 0.000000 0.000000 -0.164147 0.000000 1.117290
# 5 0.006832 0.001417 -0.000152 0.000000 0.026755 0.000000
# 6 0.000000 0.000001 0.000000 1.117290 0.000000 -6.168311
#
#
# Mechanical properties :
#
#
# Convention : Reuss Voigt Hill
#
# Bulk Modulus (GPa) = 15.23388 43.47632 29.35510
# Shear Modulus (GPa) = -0.80727 27.35941 13.27607
#
# Velocity S-wave (km/s) = -0.58530 3.40737 2.37356
# Velocity P-wave (km/s) = 2.45109 5.82492 4.46864
#
# Compressibility (1/GPa) = 0.06564316
#
# Stress axis : x y z
#
# Youngs Moduli (GPa) = 17.36997 113.88504 86.63795
#
# Poissons Ratio (x) = 0.65090 -0.32650
# Poissons Ratio (y) = 0.09928 0.36201
# Poissons Ratio (z) = -0.06546 0.47586
#
# Static dielectric constant tensor:
#      x y z
#    x 1.903210 0.000000 -0.062410 
#    y 0.000000 1.943190 0.000000 
#    z -0.062410 0.000000 2.022180 
# 
# From -- ./inp_files/175540.got.cif
#   From: 2010.05.17/outbox.cif.g08.bks.cpg/sg15_88_cif.got.tgz:175540.got - 2010.06.03 18:47:42.
