data_PCOD9289392
_publ_section_title
;
Structure prediction by ZEFSAII (Michael W. Deem and Ramdas Pophale) SiO2 
 PCOD9289392
Probable space group: C 2/C
;
_chemical_formula_sum "Si O2"
_cell_formula_units_Z 60
_cell_length_a 20.047283
_cell_length_b 7.722731
_cell_length_c 27.123413
_cell_angle_alpha 90.000000
_cell_angle_beta 135.965635
_cell_angle_gamma 90.000000
_cell_volume 2918.848906
_symmetry_space_group_name_H-M "C 2/C"
_symmetry_group_IT_number 15
_symmetry_cell_setting 'monoclinic'
loop_
_space_group_symop_operation_xyz
x,y,z
-x,y,1/2-z
-x,-y,-z
x,-y,1/2+z
1/2+x,1/2+y,z
1/2-x,1/2+y,1/2-z
1/2-x,1/2-y,-z
1/2+x,1/2-y,1/2+z
loop_
_atom_site_type_symbol
_atom_site_label
_atom_site_fract_x
_atom_site_fract_y
_atom_site_fract_z
Si Si1 0.273794 0.598554 0.323794
Si Si2 0.190062 0.407831 0.506068
Si Si3 0.203949 0.479894 0.182321
Si Si4 0.517925 0.531235 0.567101
Si Si5 0.606422 0.410984 0.907471
Si Si6 0.499776 0.064377 0.055666
Si Si7 0.000000 0.160911 0.250000
Si Si8 0.282435 0.774264 0.149975
O O1 0.228902 0.517391 0.251390
O O2 0.252537 0.801995 0.316125
O O3 0.385426 0.572184 0.373011
O O4 0.244217 0.472070 0.352318
O O5 0.289491 0.500809 0.544282
O O6 0.142218 0.286279 0.438613
O O7 0.226232 0.289248 0.571237
O O8 0.104614 0.529633 0.478252
O O9 0.089376 0.460521 0.124106
O O10 0.241409 0.641312 0.169604
O O11 0.500000 0.500000 0.500000
O O12 0.443670 0.471747 0.569117
O O13 0.527496 0.736747 0.576748
O O14 0.537721 0.426585 0.822389
O O15 0.500000 0.000000 0.000000
O O16 0.898498 0.254911 0.209122
#
# Coordination Sequence:
#
# PCOD9289392 Si02
#       8
#     8   8   8   8   8   8   4   8
#     4  12  23  39  62  97 131 170 220 278 335 394
#     4  10  22  40  64  91 131 174 221 273 330 394
#     4  12  23  38  64  94 135 172 220 281 332 393
#     4  12  24  40  68 101 132 170 225 278 334 396
#     4  10  22  42  66  93 130 176 222 270 331 404
#     4  12  22  39  63  99 133 174 222 278 331 390
#     4  10  24  42  72  88 132 184 216 264 340 398
#     4  11  22  43  62  96 129 176 223 271 336 397
#
# _framework density 20.556049000000002
#
# number of rings (size 3 to 8) (size 9 to 14) (size 15 to 20)
#    0.000    0.800    4.000    4.000    1.867    0.533 
#    0.000    0.667    8.800    0.000    0.000    0.000 
#    0.000    0.000    0.000    0.000    0.000    0.000 
#
# Total GULP energy -167246.491718 kJ/mol
# GULP energy per Si atom -5574.883057 kJ/mol
# Density = 2.050926 g / cm^3
# Si number density = 20.556049 Si / 1000 Ang^3
#
#
#
# Elastic Constant Matrix: (Units=GPa)
#
#
# Indices 1 2 3 4 5 6 
#
# 1 121.3469 14.4586 30.1008 0.0000 15.4769 0.0000
# 2 14.4586 82.8150 12.4546 0.0001 10.4690 -0.0001
# 3 30.1008 12.4546 129.8556 0.0000 3.4617 0.0000
# 4 0.0000 0.0001 0.0000 21.5684 0.0000 -12.2319
# 5 15.4769 10.4690 3.4617 0.0000 38.8795 0.0000
# 6 0.0000 -0.0001 0.0000 -12.2319 0.0000 48.2628
#
#
#
# Elastic Compliance Matrix: (Units=1/GPa)
#
#
# Indices 1 2 3 4 5 6 
#
# 1 0.009254 -0.000907 -0.001971 0.000000 -0.003264 0.000000
# 2 -0.000907 0.012752 -0.000933 0.000000 -0.002990 0.000000
# 3 -0.001971 -0.000933 0.008239 0.000000 0.000302 0.000000
# 4 0.000000 0.000000 0.000000 0.054147 0.000000 0.013723
# 5 -0.003264 -0.002990 0.000302 0.000000 0.027798 0.000000
# 6 0.000000 0.000000 0.000000 0.013723 0.000000 0.024198
#
#
# Mechanical properties :
#
#
# Convention : Reuss Voigt Hill
#
# Bulk Modulus (GPa) = 44.20251 49.78287 46.99269
# Shear Modulus (GPa) = 32.99228 40.20904 36.60066
#
# Velocity S-wave (km/s) = 4.01058 4.42754 4.22421
# Velocity P-wave (km/s) = 6.55717 7.09987 6.83391
#
# Compressibility (1/GPa) = 0.02262315
#
# Stress axis : x y z
#
# Youngs Moduli (GPa) = 108.05974 78.42114 121.37068
#
# Poissons Ratio (x) = 0.07110 0.23924
# Poissons Ratio (y) = 0.09797 0.11326
# Poissons Ratio (z) = 0.21300 0.07318
#
# Static dielectric constant tensor:
#      x y z
#    x 1.793390 0.000000 -0.006560 
#    y 0.000000 1.746520 0.000000 
#    z -0.006560 0.000000 1.742260 
# 
# From -- ./inp_files/300535.got.cif
#   From: 2010.05.17/outbox.cif.g08.bks.cpg/sg15_151_cif.got.tgz:300535.got - 2010.06.03 18:47:42.
