data_PCOD9289122
_publ_section_title
;
Structure prediction by ZEFSAII (Michael W. Deem and Ramdas Pophale) SiO2 
 PCOD9289122
Probable space group: C 2/C
;
_chemical_formula_sum "Si O2"
_cell_formula_units_Z 52
_cell_length_a 11.082394
_cell_length_b 8.633829
_cell_length_c 25.559914
_cell_angle_alpha 90.000000
_cell_angle_beta 78.092177
_cell_angle_gamma 90.000000
_cell_volume 2393.033261
_symmetry_space_group_name_H-M "C 2/C"
_symmetry_group_IT_number 15
_symmetry_cell_setting 'monoclinic'
loop_
_space_group_symop_operation_xyz
x,y,z
-x,y,1/2-z
-x,-y,-z
x,-y,1/2+z
1/2+x,1/2+y,z
1/2-x,1/2+y,1/2-z
1/2-x,1/2-y,-z
1/2+x,1/2-y,1/2+z
loop_
_atom_site_type_symbol
_atom_site_label
_atom_site_fract_x
_atom_site_fract_y
_atom_site_fract_z
Si Si1 0.616989 0.935000 0.520526
Si Si2 0.500000 0.606028 0.250000
Si Si3 0.273326 0.027752 0.308375
Si Si4 0.392157 0.431738 0.472896
Si Si5 0.492545 0.041006 0.356727
Si Si6 0.185386 0.663405 0.794076
Si Si7 0.487159 0.593801 0.649562
O O1 0.615816 0.750245 0.512858
O O2 0.753483 0.996127 0.494009
O O3 0.585371 0.966196 0.583640
O O4 0.500000 0.000000 0.500000
O O5 0.400172 0.720940 0.232735
O O6 0.466696 0.494813 0.302354
O O7 0.402282 0.975894 0.320308
O O8 0.278451 0.213645 0.309928
O O9 0.262408 0.959192 0.251388
O O10 0.151317 0.970698 0.348533
O O11 0.500000 0.500000 0.500000
O O12 0.431020 0.443270 0.408559
O O13 0.525548 0.220442 0.343341
O O14 0.610801 0.930899 0.344223
#
# Coordination Sequence:
#
# PCOD9289122 Si02
#       7
#     8   4   8   8   8   8   8
#     4  10  24  44  67 101 130 171 231 276 340 400
#     4  10  22  40  60  94 132 168 216 268 322 404
#     4  11  23  40  61  93 129 172 213 269 325 398
#     4  10  22  46  70  96 133 174 222 285 338 397
#     4  11  23  42  65  91 133 174 213 278 332 395
#     4  11  23  39  63  93 129 170 220 262 329 399
#     4  10  24  40  63  97 129 171 218 267 332 397
#
# _framework density 21.729742999999999
#
# number of rings (size 3 to 8) (size 9 to 14) (size 15 to 20)
#    0.000    1.538    1.538    1.846    6.462    6.769 
#    5.538    0.000    0.000    0.000    0.000    0.000 
#    0.000    0.000    0.000    0.000    0.000    0.000 
#
# Total GULP energy -145220.410500 kJ/mol
# GULP energy per Si atom -5585.400404 kJ/mol
# Density = 2.168028 g / cm^3
# Si number density = 21.729743 Si / 1000 Ang^3
#
#
#
# Elastic Constant Matrix: (Units=GPa)
#
#
# Indices 1 2 3 4 5 6 
#
# 1 84.3283 30.9374 35.9540 0.0000 -11.8467 0.0000
# 2 30.9374 80.7474 56.2860 0.0000 -18.8925 0.0000
# 3 35.9540 56.2860 73.0217 0.0000 -14.8285 0.0000
# 4 0.0000 0.0000 0.0000 31.3226 0.0000 -4.2728
# 5 -11.8467 -18.8925 -14.8285 0.0000 37.4484 0.0000
# 6 0.0000 0.0000 0.0000 -4.2728 0.0000 40.2926
#
#
#
# Elastic Compliance Matrix: (Units=1/GPa)
#
#
# Indices 1 2 3 4 5 6 
#
# 1 0.015178 -0.000951 -0.006375 0.000000 0.001797 0.000000
# 2 -0.000951 0.028036 -0.019934 0.000000 0.005950 0.000000
# 3 -0.006375 -0.019934 0.032349 0.000000 0.000736 0.000000
# 4 0.000000 0.000000 0.000000 0.032394 0.000000 0.003435
# 5 0.001797 0.005950 0.000736 0.000000 0.030565 0.000000
# 6 0.000000 0.000000 0.000000 0.003435 0.000000 0.025183
#
#
# Mechanical properties :
#
#
# Convention : Reuss Voigt Hill
#
# Bulk Modulus (GPa) = 47.52412 53.82801 50.67607
# Shear Modulus (GPa) = 22.19862 29.47406 25.83634
#
# Velocity S-wave (km/s) = 3.19968 3.68692 3.45191
# Velocity P-wave (km/s) = 5.96394 6.55361 6.26572
#
# Compressibility (1/GPa) = 0.02104195
#
# Stress axis : x y z
#
# Youngs Moduli (GPa) = 65.88533 35.66840 30.91323
#
# Poissons Ratio (x) = 0.03391 0.19709
# Poissons Ratio (y) = 0.06263 0.61623
# Poissons Ratio (z) = 0.42005 0.71102
#
# Static dielectric constant tensor:
#      x y z
#    x 1.844010 0.000000 0.019370 
#    y 0.000000 1.799020 0.000000 
#    z 0.019370 0.000000 1.892000 
# 
# From -- ./inp_files/291113.got.cif
#   From: 2010.05.17/outbox.cif.g08.bks.cpg/sg15_146_cif.got.tgz:291113.got - 2010.06.03 18:47:42.
