data_PCOD9289225
_publ_section_title
;
Structure prediction by ZEFSAII (Michael W. Deem and Ramdas Pophale) SiO2 
 PCOD9289225
Probable space group: C 2/C
;
_chemical_formula_sum "Si O2"
_cell_formula_units_Z 40
_cell_length_a 18.885883
_cell_length_b 11.663710
_cell_length_c 8.785941
_cell_angle_alpha 90.000000
_cell_angle_beta 69.139403
_cell_angle_gamma 90.000000
_cell_volume 1808.498557
_symmetry_space_group_name_H-M "C 2/C"
_symmetry_group_IT_number 15
_symmetry_cell_setting 'monoclinic'
loop_
_space_group_symop_operation_xyz
x,y,z
-x,y,1/2-z
-x,-y,-z
x,-y,1/2+z
1/2+x,1/2+y,z
1/2-x,1/2+y,1/2-z
1/2-x,1/2-y,-z
1/2+x,1/2-y,1/2+z
loop_
_atom_site_type_symbol
_atom_site_label
_atom_site_fract_x
_atom_site_fract_y
_atom_site_fract_z
Si Si1 0.062448 0.806718 0.092186
Si Si2 0.789849 0.128977 0.514944
Si Si3 0.479550 0.120980 0.942877
Si Si4 0.296091 0.583856 0.170633
Si Si5 0.848998 0.280323 0.698673
O O1 0.106113 0.725781 0.179461
O O2 0.000000 0.864979 0.250000
O O3 0.022546 0.725662 0.996979
O O4 0.125698 0.888884 0.973628
O O5 0.750000 0.250000 0.500000
O O6 0.813478 0.076220 0.336198
O O7 0.850703 0.164757 0.596667
O O8 0.751200 0.024561 0.634586
O O9 0.500000 0.124802 0.750000
O O10 0.390541 0.133912 0.051018
O O11 0.500000 0.000000 0.000000
O O12 0.237172 0.688402 0.199600
#
# Coordination Sequence:
#
# PCOD9289225 Si02
#       5
#     8   8   8   8   8
#     4  10  22  40  62  91 125 165 212 261 320 381
#     4  10  23  40  63  97 127 162 213 266 321 381
#     4  11  23  40  61  91 129 169 211 264 322 380
#     4  11  22  40  64  89 125 168 209 264 317 377
#     4  10  22  40  63  92 124 162 214 263 314 383
#
# _framework density 22.117795000000001
#
# number of rings (size 3 to 8) (size 9 to 14) (size 15 to 20)
#    0.000    1.600    0.000    4.800    0.000   11.200 
#    0.000   10.000    0.000    0.000    0.000    0.000 
#    0.000    0.000    0.000    0.000    0.000    0.000 
#
# Total GULP energy -111420.388693 kJ/mol
# GULP energy per Si atom -5571.019435 kJ/mol
# Density = 2.206745 g / cm^3
# Si number density = 22.117795 Si / 1000 Ang^3
#
#
#
# Elastic Constant Matrix: (Units=GPa)
#
#
# Indices 1 2 3 4 5 6 
#
# 1 68.0277 5.6097 39.5947 0.0000 -1.4820 0.0000
# 2 5.6097 68.4259 48.6086 0.0000 1.6705 0.0000
# 3 39.5947 48.6086 172.6224 0.0000 12.3760 0.0000
# 4 0.0000 0.0000 0.0000 39.0969 0.0000 11.5185
# 5 -1.4820 1.6705 12.3760 0.0000 31.2938 0.0000
# 6 0.0000 0.0000 0.0000 11.5185 0.0000 33.8474
#
#
#
# Elastic Compliance Matrix: (Units=1/GPa)
#
#
# Indices 1 2 3 4 5 6 
#
# 1 0.017326 0.001839 -0.004676 0.000000 0.002572 0.000000
# 2 0.001839 0.018500 -0.005729 0.000000 0.001365 0.000000
# 3 -0.004676 -0.005729 0.008720 0.000000 -0.003364 0.000000
# 4 0.000000 0.000000 0.000000 0.028428 0.000000 -0.009674
# 5 0.002572 0.001365 -0.003364 0.000000 0.033335 0.000000
# 6 0.000000 0.000000 0.000000 -0.009674 0.000000 0.032837
#
#
# Mechanical properties :
#
#
# Convention : Reuss Voigt Hill
#
# Bulk Modulus (GPa) = 36.47906 55.18913 45.83409
# Shear Modulus (GPa) = 30.22685 35.19846 32.71266
#
# Velocity S-wave (km/s) = 3.70081 3.99357 3.84997
# Velocity P-wave (km/s) = 5.89832 6.80231 6.36638
#
# Compressibility (1/GPa) = 0.02741299
#
# Stress axis : x y z
#
# Youngs Moduli (GPa) = 57.71656 54.05375 114.67866
#
# Poissons Ratio (x) = -0.09939 0.53627
# Poissons Ratio (y) = -0.10612 0.65700
# Poissons Ratio (z) = 0.26990 0.30968
#
# Static dielectric constant tensor:
#      x y z
#    x 1.905360 0.000000 -0.006170 
#    y 0.000000 1.926250 0.000000 
#    z -0.006170 0.000000 1.803870 
# 
# From -- ./inp_files/54131.got.cif
#   From: 2010.05.17/outbox.cif.g08.bks.cpg/sg15_28_cif.got.tgz:54131.got - 2010.06.03 18:47:42.
