data_PCOD9289348
_publ_section_title
;
Structure prediction by ZEFSAII (Michael W. Deem and Ramdas Pophale) SiO2 
 PCOD9289348
Probable space group: C 2/C
;
_chemical_formula_sum "Si O2"
_cell_formula_units_Z 52
_cell_length_a 17.947378
_cell_length_b 5.153259
_cell_length_c 27.670591
_cell_angle_alpha 90.000000
_cell_angle_beta 112.697817
_cell_angle_gamma 90.000000
_cell_volume 2360.981820
_symmetry_space_group_name_H-M "C 2/C"
_symmetry_group_IT_number 15
_symmetry_cell_setting 'monoclinic'
loop_
_space_group_symop_operation_xyz
x,y,z
-x,y,1/2-z
-x,-y,-z
x,-y,1/2+z
1/2+x,1/2+y,z
1/2-x,1/2+y,1/2-z
1/2-x,1/2-y,-z
1/2+x,1/2-y,1/2+z
loop_
_atom_site_type_symbol
_atom_site_label
_atom_site_fract_x
_atom_site_fract_y
_atom_site_fract_z
Si Si1 0.327304 0.335966 0.214474
Si Si2 0.168446 0.000592 0.672310
Si Si3 0.892752 0.568966 0.097400
Si Si4 0.000000 0.813164 0.250000
Si Si5 0.792119 0.500059 0.988422
Si Si6 0.510820 0.420296 0.854394
Si Si7 0.267772 0.713506 0.123228
O O1 0.325252 0.411327 0.270267
O O2 0.411492 0.178184 0.227078
O O3 0.327945 0.569134 0.175633
O O4 0.241384 0.202272 0.184501
O O5 0.194381 0.206943 0.639094
O O6 0.075579 0.931968 0.641061
O O7 0.922700 0.865853 0.110847
O O8 0.814796 0.453833 0.108110
O O9 0.960179 0.372913 0.133443
O O10 0.878233 0.513006 0.036696
O O11 0.995294 0.992161 0.295849
O O12 0.771334 0.471951 0.927208
O O13 0.750000 0.750000 0.000000
O O14 0.750000 0.250000 0.000000
#
# Coordination Sequence:
#
# PCOD9289348 Si02
#       7
#     8   8   8   4   8   8   8
#     4  11  22  42  62  98 138 177 226 275 338 418
#     4  11  25  40  65  98 141 183 219 270 352 418
#     4  11  23  45  68  98 131 175 233 285 327 392
#     4  10  22  40  64 100 126 182 224 274 334 400
#     4  10  23  41  70 101 129 174 234 287 337 390
#     4  11  25  42  66  97 140 174 222 281 336 400
#     4  11  23  41  69  95 135 179 225 284 339 399
#
# _framework density 22.024736999999998
#
# number of rings (size 3 to 8) (size 9 to 14) (size 15 to 20)
#    0.000    1.231    3.077    2.769    6.462    0.615 
#    0.000    1.538    0.000    0.000    0.000    0.000 
#    0.000    0.000    0.000    0.000    0.000    0.000 
#
# Total GULP energy -144952.416175 kJ/mol
# GULP energy per Si atom -5575.092930 kJ/mol
# Density = 2.197461 g / cm^3
# Si number density = 22.024737 Si / 1000 Ang^3
#
#
#
# Elastic Constant Matrix: (Units=GPa)
#
#
# Indices 1 2 3 4 5 6 
#
# 1 133.0642 10.9624 23.8507 -0.0001 -6.8324 -0.0002
# 2 10.9624 57.9447 4.6171 -0.0004 -15.8814 -0.0005
# 3 23.8507 4.6171 99.3297 0.0001 -16.0711 -0.0001
# 4 -0.0001 -0.0004 0.0001 11.2298 -0.0001 6.4212
# 5 -6.8324 -15.8814 -16.0711 -0.0001 19.3241 0.0000
# 6 -0.0002 -0.0005 -0.0001 6.4212 0.0000 35.0718
#
#
#
# Elastic Compliance Matrix: (Units=1/GPa)
#
#
# Indices 1 2 3 4 5 6 
#
# 1 0.007959 -0.001295 -0.001812 0.000000 0.000244 0.000000
# 2 -0.001295 0.022920 0.002564 0.000001 0.020512 0.000000
# 3 -0.001812 0.002564 0.012272 0.000000 0.011673 0.000000
# 4 0.000000 0.000001 0.000000 0.099461 0.000001 -0.018210
# 5 0.000244 0.020512 0.011673 0.000001 0.078400 0.000000
# 6 0.000000 0.000000 0.000000 -0.018210 0.000000 0.031847
#
#
# Mechanical properties :
#
#
# Convention : Reuss Voigt Hill
#
# Bulk Modulus (GPa) = 23.77147 41.02210 32.39678
# Shear Modulus (GPa) = 18.65908 29.85238 24.25573
#
# Velocity S-wave (km/s) = 2.91381 3.68557 3.32218
# Velocity P-wave (km/s) = 4.70498 6.06442 5.42743
#
# Compressibility (1/GPa) = 0.04206723
#
# Stress axis : x y z
#
# Youngs Moduli (GPa) = 125.64345 43.62948 81.48698
#
# Poissons Ratio (x) = 0.05649 0.14761
# Poissons Ratio (y) = 0.16267 -0.20895
# Poissons Ratio (z) = 0.22760 -0.11187
#
# Static dielectric constant tensor:
#      x y z
#    x 1.863110 0.000000 0.057590 
#    y 0.000000 1.876210 0.000000 
#    z 0.057590 0.000000 1.898030 
# 
# From -- ./inp_files/297530.got.cif
#   From: 2010.05.17/outbox.cif.g08.bks.cpg/sg15_149_cif.got.tgz:297530.got - 2010.06.03 18:47:42.
