data_PCOD9289407
_publ_section_title
;
Structure prediction by ZEFSAII (Michael W. Deem and Ramdas Pophale) SiO2 
 PCOD9289407
Probable space group: C 2/C
;
_chemical_formula_sum "Si O2"
_cell_formula_units_Z 40
_cell_length_a 18.135077
_cell_length_b 19.385602
_cell_length_c 5.078359
_cell_angle_alpha 90.000000
_cell_angle_beta 98.108956
_cell_angle_gamma 90.000000
_cell_volume 1767.494213
_symmetry_space_group_name_H-M "C 2/C"
_symmetry_group_IT_number 15
_symmetry_cell_setting 'monoclinic'
loop_
_space_group_symop_operation_xyz
x,y,z
-x,y,1/2-z
-x,-y,-z
x,-y,1/2+z
1/2+x,1/2+y,z
1/2-x,1/2+y,1/2-z
1/2-x,1/2-y,-z
1/2+x,1/2-y,1/2+z
loop_
_atom_site_type_symbol
_atom_site_label
_atom_site_fract_x
_atom_site_fract_y
_atom_site_fract_z
Si Si1 0.080389 0.241687 0.778704
Si Si2 0.336134 0.548668 0.544503
Si Si3 0.500000 0.950671 0.250000
Si Si4 0.611955 0.171528 0.817445
Si Si5 0.267593 0.682630 0.686717
Si Si6 0.500000 0.449828 0.250000
O O1 0.076281 0.304727 0.573007
O O2 0.148856 0.200330 0.682305
O O3 0.000000 0.206618 0.750000
O O4 0.095297 0.273407 0.075041
O O5 0.329119 0.511098 0.261213
O O6 0.277287 0.610613 0.538240
O O7 0.417879 0.581134 0.653972
O O8 0.428057 0.900924 0.251541
O O9 0.500000 0.000000 0.500000
O O10 0.702079 0.171174 0.863105
O O11 0.250000 0.750000 0.500000
O O12 0.500000 0.500000 0.500000
#
# Coordination Sequence:
#
# PCOD9289407 Si02
#       6
#     8   8   4   8   8   4
#     4  11  21  41  68  92 128 170 215 273 340 392
#     4  10  22  40  64  92 133 172 214 263 331 395
#     4  12  24  40  66  94 128 182 232 272 330 398
#     4  11  23  43  61  93 134 168 217 283 328 390
#     4  10  25  42  69 102 136 174 225 278 340 401
#     4   8  16  34  56  84 118 162 208 254 304 388
#
# _framework density 22.63091
#
# number of rings (size 3 to 8) (size 9 to 14) (size 15 to 20)
#    0.000    1.600    2.000    1.800    1.400    8.000 
#    0.000    0.000    0.000    0.000    0.000    0.000 
#    0.000    0.000    0.000    0.000    0.000    0.000 
#
# Total GULP energy -111478.216232 kJ/mol
# GULP energy per Si atom -5573.910812 kJ/mol
# Density = 2.257940 g / cm^3
# Si number density = 22.630910 Si / 1000 Ang^3
#
#
#
# Elastic Constant Matrix: (Units=GPa)
#
#
# Indices 1 2 3 4 5 6 
#
# 1 150.1889 33.0404 1.8244 0.0000 -17.7495 0.0000
# 2 33.0404 65.3244 -16.2757 0.0000 -1.3563 0.0000
# 3 1.8244 -16.2757 70.3019 0.0000 0.6264 0.0000
# 4 0.0000 0.0000 0.0000 7.7667 0.0000 5.8251
# 5 -17.7495 -1.3563 0.6264 0.0000 18.9079 0.0000
# 6 0.0000 0.0000 0.0000 5.8251 0.0000 45.4111
#
#
#
# Elastic Compliance Matrix: (Units=1/GPa)
#
#
# Indices 1 2 3 4 5 6 
#
# 1 0.008587 -0.004515 -0.001337 0.000000 0.007782 0.000000
# 2 -0.004515 0.018640 0.004460 0.000000 -0.003049 0.000000
# 3 -0.001337 0.004460 0.015304 0.000000 -0.001443 0.000000
# 4 0.000000 0.000000 0.000000 0.142462 0.000000 -0.018274
# 5 0.007782 -0.003049 -0.001443 0.000000 0.060022 0.000000
# 6 0.000000 0.000000 0.000000 -0.018274 0.000000 0.024365
#
#
# Mechanical properties :
#
#
# Convention : Reuss Voigt Hill
#
# Bulk Modulus (GPa) = 25.15998 35.88816 30.52407
# Shear Modulus (GPa) = 17.51835 32.23221 24.87528
#
# Velocity S-wave (km/s) = 2.78526 3.77803 3.31897
# Velocity P-wave (km/s) = 4.63522 5.90963 5.31079
#
# Compressibility (1/GPa) = 0.03974566
#
# Stress axis : x y z
#
# Youngs Moduli (GPa) = 116.44860 53.64886 65.34073
#
# Poissons Ratio (x) = 0.24223 0.08739
# Poissons Ratio (y) = 0.52578 -0.29140
# Poissons Ratio (z) = 0.15575 -0.23925
#
# Static dielectric constant tensor:
#      x y z
#    x 1.997210 0.000000 -0.007600 
#    y 0.000000 1.922900 0.000000 
#    z -0.007600 0.000000 1.840110 
# 
# From -- ./inp_files/9883.got.cif
#   From: 2010.05.17/outbox.cif.g08.bks.cpg/sg15_5_cif.got.tgz:9883.got - 2010.06.03 18:47:42.
