data_PCOD9289199
_publ_section_title
;
Structure prediction by ZEFSAII (Michael W. Deem and Ramdas Pophale) SiO2 
 PCOD9289199
Probable space group: C 2/C
;
_chemical_formula_sum "Si O2"
_cell_formula_units_Z 40
_cell_length_a 21.732073
_cell_length_b 8.237936
_cell_length_c 10.753193
_cell_angle_alpha 90.000000
_cell_angle_beta 90.722458
_cell_angle_gamma 90.000000
_cell_volume 1924.963431
_symmetry_space_group_name_H-M "C 2/C"
_symmetry_group_IT_number 15
_symmetry_cell_setting 'monoclinic'
loop_
_space_group_symop_operation_xyz
x,y,z
-x,y,1/2-z
-x,-y,-z
x,-y,1/2+z
1/2+x,1/2+y,z
1/2-x,1/2+y,1/2-z
1/2-x,1/2-y,-z
1/2+x,1/2-y,1/2+z
loop_
_atom_site_type_symbol
_atom_site_label
_atom_site_fract_x
_atom_site_fract_y
_atom_site_fract_z
Si Si1 0.245810 0.355371 0.124297
Si Si2 0.917200 0.602701 0.625863
Si Si3 0.103462 0.388902 0.107176
Si Si4 0.515745 0.385057 0.614401
Si Si5 0.787986 0.201594 0.123044
O O1 0.175983 0.419542 0.117053
O O2 0.247982 0.254503 0.252237
O O3 0.292222 0.506474 0.125522
O O4 0.250000 0.250000 0.000000
O O5 0.918085 0.468076 0.520602
O O6 0.923207 0.536667 0.766225
O O7 0.852833 0.703689 0.621378
O O8 0.970943 0.730237 0.604046
O O9 0.083330 0.198709 0.111809
O O10 0.500000 0.458166 0.750000
O O11 0.500000 0.500000 0.500000
O O12 0.750000 0.250000 0.000000
#
# Coordination Sequence:
#
# PCOD9289199 Si02
#       5
#     8   8   8   8   8
#     4  11  24  39  61  91 125 163 208 253 312 370
#     4  10  22  40  63  89 122 160 206 253 306 370
#     4  10  22  40  62  88 121 161 202 253 306 370
#     4  10  23  42  61  90 122 156 208 257 310 365
#     4  11  22  40  61  90 126 163 205 257 308 371
#
# _framework density 20.779616000000001
#
# number of rings (size 3 to 8) (size 9 to 14) (size 15 to 20)
#    0.000    1.600    2.000    1.800    5.600    1.600 
#    3.600    0.000    0.000    0.000    0.000    0.000 
#    0.000    0.000    0.000    0.000    0.000    0.000 
#
# Total GULP energy -111661.063425 kJ/mol
# GULP energy per Si atom -5583.053171 kJ/mol
# Density = 2.073232 g / cm^3
# Si number density = 20.779616 Si / 1000 Ang^3
#
#
#
# Elastic Constant Matrix: (Units=GPa)
#
#
# Indices 1 2 3 4 5 6 
#
# 1 45.5343 -6.8291 2.6333 0.0000 -5.4099 0.0000
# 2 -6.8291 62.8185 64.0321 0.0000 -7.9997 0.0000
# 3 2.6333 64.0321 204.0955 0.0000 8.2681 0.0000
# 4 0.0000 0.0000 0.0000 49.4356 0.0000 11.1832
# 5 -5.4099 -7.9997 8.2681 0.0000 29.1372 0.0000
# 6 0.0000 0.0000 0.0000 11.1832 0.0000 28.2278
#
#
#
# Elastic Compliance Matrix: (Units=1/GPa)
#
#
# Indices 1 2 3 4 5 6 
#
# 1 0.023793 0.005934 -0.002442 0.000000 0.006740 0.000000
# 2 0.005934 0.027231 -0.009072 0.000000 0.011152 0.000000
# 3 -0.002442 -0.009072 0.007988 0.000000 -0.005211 0.000000
# 4 0.000000 0.000000 0.000000 0.022220 0.000000 -0.008803
# 5 0.006740 0.011152 -0.005211 0.000000 0.040112 0.000000
# 6 0.000000 0.000000 0.000000 -0.008803 0.000000 0.038914
#
#
# Mechanical properties :
#
#
# Convention : Reuss Voigt Hill
#
# Bulk Modulus (GPa) = 20.89715 48.01346 34.45531
# Shear Modulus (GPa) = 26.68531 38.20091 32.44311
#
# Velocity S-wave (km/s) = 3.58747 4.29229 3.95561
# Velocity P-wave (km/s) = 5.21903 6.90805 6.12207
#
# Compressibility (1/GPa) = 0.04785342
#
# Stress axis : x y z
#
# Youngs Moduli (GPa) = 42.02864 36.72270 125.18162
#
# Poissons Ratio (x) = -0.21790 0.30565
# Poissons Ratio (y) = -0.24938 1.13561
# Poissons Ratio (z) = 0.10262 0.33314
#
# Static dielectric constant tensor:
#      x y z
#    x 1.569220 0.000000 0.201370 
#    y 0.000000 1.541350 0.000000 
#    z 0.201370 0.000000 1.548280 
# 
# From -- ./inp_files/59905.got.cif
#   From: 2010.05.17/outbox.cif.g08.bks.cpg/sg15_30_cif.got.tgz:59905.got - 2010.06.03 18:47:42.
