data_PCOD9289078
_publ_section_title
;
Structure prediction by ZEFSAII (Michael W. Deem and Ramdas Pophale) SiO2 
 PCOD9289078
Probable space group: C 2/C
;
_chemical_formula_sum "Si O2"
_cell_formula_units_Z 56
_cell_length_a 9.566637
_cell_length_b 27.297363
_cell_length_c 10.825718
_cell_angle_alpha 90.000000
_cell_angle_beta 103.771656
_cell_angle_gamma 90.000000
_cell_volume 2745.798725
_symmetry_space_group_name_H-M "C 2/C"
_symmetry_group_IT_number 15
_symmetry_cell_setting 'monoclinic'
loop_
_space_group_symop_operation_xyz
x,y,z
-x,y,1/2-z
-x,-y,-z
x,-y,1/2+z
1/2+x,1/2+y,z
1/2-x,1/2+y,1/2-z
1/2-x,1/2-y,-z
1/2+x,1/2-y,1/2+z
loop_
_atom_site_type_symbol
_atom_site_label
_atom_site_fract_x
_atom_site_fract_y
_atom_site_fract_z
Si Si1 0.187678 0.219527 0.185611
Si Si2 0.389415 0.143723 0.112916
Si Si3 0.137864 0.207220 0.445266
Si Si4 0.639443 0.009063 0.651604
Si Si5 0.153563 0.821366 0.218147
Si Si6 0.675378 0.966022 0.906242
Si Si7 0.084045 0.377311 0.148568
O O1 0.282376 0.188817 0.109920
O O2 0.178178 0.190248 0.314992
O O3 0.262987 0.270875 0.232063
O O4 0.025954 0.226359 0.102750
O O5 0.500000 0.144484 0.250000
O O6 0.304162 0.092008 0.097237
O O7 0.463237 0.144097 0.993392
O O8 0.250000 0.250000 0.500000
O O9 0.142656 0.173230 0.567325
O O10 0.728401 0.009545 0.543917
O O11 0.576586 0.064024 0.646855
O O12 0.720725 0.993492 0.792112
O O13 0.499334 0.973907 0.618372
O O14 0.250449 0.863561 0.296675
O O15 0.000000 0.819267 0.250000
O O16 0.000000 0.357474 0.250000
#
# Coordination Sequence:
#
# PCOD9289078 Si02
#       7
#     8   8   8   8   8   8   8
#     4  10  22  40  60  86 120 160 201 250 297 359
#     4  11  22  34  57  91 124 159 197 244 306 364
#     4   9  21  40  61  82 114 159 206 250 295 349
#     4   9  16  32  50  80 118 148 191 253 296 335
#     4  11  24  40  59  86 124 163 197 245 307 359
#     4   9  16  30  51  80 119 150 191 245 299 344
#     4  11  24  35  58  90 121 158 208 253 293 358
#
# _framework density 20.394794000000001
#
# number of rings (size 3 to 8) (size 9 to 14) (size 15 to 20)
#    0.000    2.000    2.857    1.286    6.000    3.429 
#    0.000    0.000    0.000    0.000    3.714    3.000 
#    0.000    0.000    0.000    0.000    0.000    0.000 
#
# Total GULP energy -156185.266428 kJ/mol
# GULP energy per Si atom -5578.045230 kJ/mol
# Density = 2.034838 g / cm^3
# Si number density = 20.394794 Si / 1000 Ang^3
#
#
#
# Elastic Constant Matrix: (Units=GPa)
#
#
# Indices 1 2 3 4 5 6 
#
# 1 45.2232 13.1937 35.5309 0.0000 -0.9235 0.0000
# 2 13.1937 51.6293 13.3758 0.0000 -2.9971 0.0000
# 3 35.5309 13.3758 154.0464 0.0000 -22.5329 0.0000
# 4 0.0000 0.0000 0.0000 24.6639 0.0000 -6.5393
# 5 -0.9235 -2.9971 -22.5329 0.0000 31.3001 0.0000
# 6 0.0000 0.0000 0.0000 -6.5393 0.0000 6.7251
#
#
#
# Elastic Compliance Matrix: (Units=1/GPa)
#
#
# Indices 1 2 3 4 5 6 
#
# 1 0.029167 -0.005938 -0.006895 0.000000 -0.004672 0.000000
# 2 -0.005938 0.021039 -0.000210 0.000000 0.001688 0.000000
# 3 -0.006895 -0.000210 0.009017 0.000000 0.006268 0.000000
# 4 0.000000 0.000000 0.000000 0.054629 0.000000 0.053120
# 5 -0.004672 0.001688 0.006268 0.000000 0.036485 0.000000
# 6 0.000000 0.000000 0.000000 0.053120 0.000000 0.200348
#
#
# Mechanical properties :
#
#
# Convention : Reuss Voigt Hill
#
# Bulk Modulus (GPa) = 30.17919 41.67773 35.92846
# Shear Modulus (GPa) = 12.89266 25.12440 19.00853
#
# Velocity S-wave (km/s) = 2.51700 3.51365 3.05623
# Velocity P-wave (km/s) = 4.82459 6.07790 5.48714
#
# Compressibility (1/GPa) = 0.03313541
#
# Stress axis : x y z
#
# Youngs Moduli (GPa) = 34.28532 47.53113 110.90200
#
# Poissons Ratio (x) = 0.28226 0.76468
# Poissons Ratio (y) = 0.20360 0.02331
# Poissons Ratio (z) = 0.23640 0.00999
#
# Static dielectric constant tensor:
#      x y z
#    x 1.705610 0.000000 -0.051720 
#    y 0.000000 1.702590 0.000000 
#    z -0.051720 0.000000 1.841680 
# 
# From -- ./inp_files/81404.got.cif
#   From: 2010.05.17/outbox.cif.g08.bks.cpg/sg15_41_cif.got.tgz:81404.got - 2010.06.03 18:47:42.
