data_PCOD9289729
_publ_section_title
;
Structure prediction by ZEFSAII (Michael W. Deem and Ramdas Pophale) SiO2 
 PCOD9289729
Probable space group: C 2/C
;
_chemical_formula_sum "Si O2"
_cell_formula_units_Z 36
_cell_length_a 13.076629
_cell_length_b 10.154478
_cell_length_c 17.060948
_cell_angle_alpha 90.000000
_cell_angle_beta 33.559496
_cell_angle_gamma 90.000000
_cell_volume 1252.352648
_symmetry_space_group_name_H-M "C 2/C"
_symmetry_group_IT_number 15
_symmetry_cell_setting 'monoclinic'
loop_
_space_group_symop_operation_xyz
x,y,z
-x,y,1/2-z
-x,-y,-z
x,-y,1/2+z
1/2+x,1/2+y,z
1/2-x,1/2+y,1/2-z
1/2-x,1/2-y,-z
1/2+x,1/2-y,1/2+z
loop_
_atom_site_type_symbol
_atom_site_label
_atom_site_fract_x
_atom_site_fract_y
_atom_site_fract_z
Si Si1 0.111778 0.477503 0.010213
Si Si2 0.755757 0.464702 0.824122
Si Si3 0.500000 0.622628 0.750000
Si Si4 0.219972 0.719403 0.616114
Si Si5 0.323338 0.291040 0.224940
O O1 0.309107 0.544057 0.874175
O O2 0.156649 0.326866 0.007363
O O3 0.000000 0.500000 0.000000
O O4 0.973385 0.532410 0.164099
O O5 0.724925 0.564130 0.916298
O O6 0.683294 0.555441 0.798628
O O7 0.696113 0.312319 0.858778
O O8 0.503468 0.703527 0.828251
O O9 0.277679 0.765351 0.668632
O O10 0.000000 0.738152 0.750000
#
# Coordination Sequence:
#
# PCOD9289729 Si02
#       5
#     8   8   4   8   8
#     4  12  20  44  68  95 129 182 215 262 336 388
#     4  10  23  42  66  94 136 165 219 272 320 384
#     4  12  24  38  74  94 134 172 224 266 318 406
#     4  10  22  40  67  95 130 169 221 268 314 396
#     4  10  22  41  66  99 130 169 222 264 324 392
#
# _framework density 28.745896999999999
#
# number of rings (size 3 to 8) (size 9 to 14) (size 15 to 20)
#    1.333    0.000    5.556    0.000    1.556    1.778 
#    0.000    1.111    0.000    0.000    0.000    0.000 
#    0.000    0.000    0.000    0.000    0.000    0.000 
#
# Total GULP energy -100210.871587 kJ/mol
# GULP energy per Si atom -5567.270644 kJ/mol
# Density = 2.868047 g / cm^3
# Si number density = 28.745897 Si / 1000 Ang^3
#
#
#
# Elastic Constant Matrix: (Units=GPa)
#
#
# Indices 1 2 3 4 5 6 
#
# 1 85.3612 41.3912 49.9226 -0.0001 -33.7771 0.0000
# 2 41.3912 159.9314 37.7015 0.0001 -42.1003 0.0000
# 3 49.9226 37.7015 147.2036 0.0006 -27.0187 0.0001
# 4 -0.0001 0.0001 0.0006 50.4492 0.0000 -3.0844
# 5 -33.7771 -42.1003 -27.0187 0.0000 39.1045 0.0000
# 6 0.0000 0.0000 0.0001 -3.0844 0.0000 29.6056
#
#
#
# Elastic Compliance Matrix: (Units=1/GPa)
#
#
# Indices 1 2 3 4 5 6 
#
# 1 0.019765 -0.000562 -0.004050 0.000000 0.013668 0.000000
# 2 -0.000562 0.008786 -0.000472 0.000000 0.008647 0.000000
# 3 -0.004050 -0.000472 0.008649 0.000000 0.001969 0.000000
# 4 0.000000 0.000000 0.000000 0.019949 0.000000 0.002078
# 5 0.013668 0.008647 0.001969 0.000000 0.048048 0.000000
# 6 0.000000 0.000000 0.000000 0.002078 0.000000 0.033994
#
#
# Mechanical properties :
#
#
# Convention : Reuss Voigt Hill
#
# Bulk Modulus (GPa) = 36.99629 72.28073 54.63851
# Shear Modulus (GPa) = 31.57142 41.39725 36.48434
#
# Velocity S-wave (km/s) = 3.31765 3.79900 3.56645
# Velocity P-wave (km/s) = 5.25107 6.66652 6.00068
#
# Compressibility (1/GPa) = 0.02702974
#
# Stress axis : x y z
#
# Youngs Moduli (GPa) = 50.59490 113.82077 115.61610
#
# Poissons Ratio (x) = 0.06402 0.46827
# Poissons Ratio (y) = 0.02846 0.05461
# Poissons Ratio (z) = 0.20492 0.05377
#
# Static dielectric constant tensor:
#      x y z
#    x 2.425720 0.000000 0.083860 
#    y 0.000000 2.482200 0.000000 
#    z 0.083860 0.000000 2.260860 
# 
# From -- ./inp_files/273569.got.cif
#   From: 2010.05.17/outbox.cif.g08.bks.cpg/sg15_137_cif.got.tgz:273569.got - 2010.06.03 18:47:42.
