data_PCOD9289997
_publ_section_title
;
Structure prediction by ZEFSAII (Michael W. Deem and Ramdas Pophale) SiO2 
 PCOD9289997
Probable space group: C 2/C
;
_chemical_formula_sum "Si O2"
_cell_formula_units_Z 48
_cell_length_a 22.056799
_cell_length_b 7.605491
_cell_length_c 27.051451
_cell_angle_alpha 90.000000
_cell_angle_beta 22.462983
_cell_angle_gamma 90.000000
_cell_volume 1733.891664
_symmetry_space_group_name_H-M "C 2/C"
_symmetry_group_IT_number 15
_symmetry_cell_setting 'monoclinic'
loop_
_space_group_symop_operation_xyz
x,y,z
-x,y,1/2-z
-x,-y,-z
x,-y,1/2+z
1/2+x,1/2+y,z
1/2-x,1/2+y,1/2-z
1/2-x,1/2-y,-z
1/2+x,1/2-y,1/2+z
loop_
_atom_site_type_symbol
_atom_site_label
_atom_site_fract_x
_atom_site_fract_y
_atom_site_fract_z
Si Si1 0.717586 0.133945 0.962052
Si Si2 0.266949 0.215029 0.216413
Si Si3 0.764514 0.871035 0.312063
Si Si4 0.000000 0.869024 0.750000
Si Si5 0.377790 0.500298 0.979191
Si Si6 0.000000 0.000000 0.000000
Si Si7 0.514764 0.831087 0.141224
O O1 0.704219 0.125764 0.912436
O O2 0.763821 0.156837 0.045850
O O3 0.861810 0.007956 0.867144
O O4 0.567310 0.032099 0.098247
O O5 0.311277 0.027004 0.162336
O O6 0.226584 0.203051 0.305704
O O7 0.407601 0.343611 0.098225
O O8 0.115282 0.287496 0.302112
O O9 0.951229 0.920864 0.169197
O O10 0.958326 0.741899 0.735987
O O11 0.349062 0.310991 0.976287
O O12 0.394294 0.467702 0.025478
#
# Coordination Sequence:
#
# PCOD9289997 Si02
#       7
#     8   8   8   4   8   4   8
#     4  12  26  47  78 103 149 200 251 320 376 446
#     4  10  22  42  71 105 157 190 239 308 375 456
#     4  10  23  44  66 114 150 187 243 305 375 463
#     4  12  26  56  74 108 154 196 276 320 366 458
#     4  10  24  43  71 110 148 190 249 305 379 458
#     4  10  22  40  72 112 150 190 236 302 378 466
#     4  11  26  49  73 109 150 199 252 311 380 447
#
# _framework density 27.683391
#
# number of rings (size 3 to 8) (size 9 to 14) (size 15 to 20)
#    0.000    1.333    3.333    1.500   11.667    1.333 
#    0.000    1.667    0.000    0.000    0.000    0.000 
#    0.000    0.000    0.000    0.000    0.000    0.000 
#
# Total GULP energy -134126.336290 kJ/mol
# GULP energy per Si atom -5588.597345 kJ/mol
# Density = 2.762038 g / cm^3
# Si number density = 27.683391 Si / 1000 Ang^3
#
#
#
# Elastic Constant Matrix: (Units=GPa)
#
#
# Indices 1 2 3 4 5 6 
#
# 1 131.3218 26.3602 24.5175 0.0036 21.5222 -0.0018
# 2 26.3602 132.0989 5.0635 -0.0002 10.6691 -0.0028
# 3 24.5175 5.0635 63.9785 -0.0142 14.6600 -0.0011
# 4 0.0036 -0.0002 -0.0142 32.4121 -0.0015 4.9825
# 5 21.5222 10.6691 14.6600 -0.0015 38.5673 0.0010
# 6 -0.0018 -0.0028 -0.0011 4.9825 0.0010 53.7245
#
#
#
# Elastic Compliance Matrix: (Units=1/GPa)
#
#
# Indices 1 2 3 4 5 6 
#
# 1 0.008960 -0.001396 -0.002482 -0.000002 -0.003670 0.000000
# 2 -0.001396 0.007962 0.000253 0.000000 -0.001519 0.000000
# 3 -0.002482 0.000253 0.017811 0.000008 -0.005455 0.000000
# 4 -0.000002 0.000000 0.000008 0.031299 0.000000 -0.002903
# 5 -0.003670 -0.001519 -0.005455 0.000000 0.030471 -0.000001
# 6 0.000000 0.000000 0.000000 -0.002903 -0.000001 0.018883
#
#
# Mechanical properties :
#
#
# Convention : Reuss Voigt Hill
#
# Bulk Modulus (GPa) = 36.38664 48.80906 42.59785
# Shear Modulus (GPa) = 37.93706 43.03798 40.48752
#
# Velocity S-wave (km/s) = 3.70589 3.94718 3.82844
# Velocity P-wave (km/s) = 5.61105 6.20025 5.91300
#
# Compressibility (1/GPa) = 0.02748261
#
# Stress axis : x y z
#
# Youngs Moduli (GPa) = 111.60575 125.60046 56.14375
#
# Poissons Ratio (x) = 0.17539 0.13935
# Poissons Ratio (y) = 0.15585 -0.01421
# Poissons Ratio (z) = 0.27702 -0.03180
#
# Static dielectric constant tensor:
#      x y z
#    x 2.183410 0.000000 -0.062970 
#    y 0.000000 2.036610 0.000010 
#    z -0.062970 0.000010 2.141130 
# 
# From -- ./inp_files/300477.got.cif
#   From: 2010.05.17/outbox.cif.g08.bks.cpg/sg15_151_cif.got.tgz:300477.got - 2010.06.03 18:47:42.
