data_PCOD9289143
_publ_section_title
;
Structure prediction by ZEFSAII (Michael W. Deem and Ramdas Pophale) SiO2 
 PCOD9289143
Probable space group: C 2/C
;
_chemical_formula_sum "Si O2"
_cell_formula_units_Z 52
_cell_length_a 29.418730
_cell_length_b 8.547012
_cell_length_c 28.316570
_cell_angle_alpha 90.000000
_cell_angle_beta 19.414758
_cell_angle_gamma 90.000000
_cell_volume 2366.710925
_symmetry_space_group_name_H-M "C 2/C"
_symmetry_group_IT_number 15
_symmetry_cell_setting 'monoclinic'
loop_
_space_group_symop_operation_xyz
x,y,z
-x,y,1/2-z
-x,-y,-z
x,-y,1/2+z
1/2+x,1/2+y,z
1/2-x,1/2+y,1/2-z
1/2-x,1/2-y,-z
1/2+x,1/2-y,1/2+z
loop_
_atom_site_type_symbol
_atom_site_label
_atom_site_fract_x
_atom_site_fract_y
_atom_site_fract_z
Si Si1 0.428927 0.122013 0.884529
Si Si2 0.104249 0.564103 0.358343
Si Si3 0.157892 0.429464 0.697010
Si Si4 0.343058 0.437979 0.321473
Si Si5 0.442055 0.607233 0.442582
Si Si6 0.500000 0.379732 0.750000
Si Si7 0.380530 0.380662 0.106404
O O1 0.400014 0.249326 0.871696
O O2 0.561393 0.009854 0.751995
O O3 0.472061 0.242944 0.882318
O O4 0.300849 0.021566 0.027316
O O5 0.085050 0.556091 0.320316
O O6 0.240676 0.471154 0.237144
O O7 0.126001 0.745079 0.349460
O O8 0.000000 0.500000 0.500000
O O9 0.174432 0.247963 0.666329
O O10 0.305456 0.514421 0.559091
O O11 0.435486 0.505997 0.274055
O O12 0.425949 0.497009 0.193955
O O13 0.416840 0.676883 0.518639
O O14 0.500000 0.500000 0.000000
#
# Coordination Sequence:
#
# PCOD9289143 Si02
#       7
#     8   8   8   8   8   4   8
#     4  11  23  43  68  90 122 164 204 251 309 381
#     4  11  24  40  61  91 127 167 211 257 308 363
#     4  11  24  41  63  94 127 162 207 260 312 362
#     4  11  23  41  66  94 124 159 205 262 313 369
#     4  10  22  40  61  89 123 165 208 249 309 371
#     4  10  24  44  66  96 124 158 204 254 316 382
#     4  11  23  38  59  87 124 165 208 257 305 362
#
# _framework density 21.971422
#
# number of rings (size 3 to 8) (size 9 to 14) (size 15 to 20)
#    0.000    1.231    0.000    6.000    0.000   11.692 
#    0.000    4.615    0.000    0.000    0.000    0.000 
#    0.000    0.000    0.000    0.000    0.000    0.000 
#
# Total GULP energy -145069.011060 kJ/mol
# GULP energy per Si atom -5579.577348 kJ/mol
# Density = 2.192141 g / cm^3
# Si number density = 21.971422 Si / 1000 Ang^3
#
#
#
# Elastic Constant Matrix: (Units=GPa)
#
#
# Indices 1 2 3 4 5 6 
#
# 1 31.1905 3.1916 -13.8075 -0.0019 -4.8104 -0.0002
# 2 3.1916 110.4268 -16.4430 -0.0083 -0.3820 0.0046
# 3 -13.8075 -16.4430 29.2568 -0.0054 3.8317 0.0023
# 4 -0.0019 -0.0083 -0.0054 23.2618 0.0016 4.6782
# 5 -4.8104 -0.3820 3.8317 0.0016 21.3013 0.0000
# 6 -0.0002 0.0046 0.0023 4.6782 0.0000 39.8288
#
#
#
# Elastic Compliance Matrix: (Units=1/GPa)
#
#
# Indices 1 2 3 4 5 6 
#
# 1 0.041568 0.001774 0.019849 0.000009 0.005849 -0.000002
# 2 0.001774 0.009973 0.006520 0.000006 -0.000593 -0.000002
# 3 0.019849 0.006520 0.047734 0.000016 -0.003987 -0.000005
# 4 0.000009 0.000006 0.000016 0.044029 -0.000004 -0.005172
# 5 0.005849 -0.000593 -0.003987 -0.000004 0.048973 0.000001
# 6 -0.000002 -0.000002 -0.000005 -0.005172 0.000001 0.025715
#
#
# Mechanical properties :
#
#
# Convention : Reuss Voigt Hill
#
# Bulk Modulus (GPa) = 6.42822 12.97291 9.70056
# Shear Modulus (GPa) = 23.41266 30.07392 26.74329
#
# Velocity S-wave (km/s) = 3.26789 3.70371 3.49260
# Velocity P-wave (km/s) = 4.14377 4.92008 4.54852
#
# Compressibility (1/GPa) = 0.15556408
#
# Stress axis : x y z
#
# Youngs Moduli (GPa) = 24.05676 100.26716 20.94923
#
# Poissons Ratio (x) = -0.17792 -0.41582
# Poissons Ratio (y) = -0.04269 -0.13660
# Poissons Ratio (z) = -0.47751 -0.65378
#
# Static dielectric constant tensor:
#      x y z
#    x 1.863240 0.000000 0.046750 
#    y 0.000000 1.754610 0.000000 
#    z 0.046750 0.000000 1.827170 
# 
# From -- ./inp_files/320175.got.cif
#   From: 2010.05.17/outbox.cif.g08.bks.cpg/sg15_161_cif.got.tgz:320175.got - 2010.06.03 18:47:42.
