data_PCOD9289863
_publ_section_title
;
Structure prediction by ZEFSAII (Michael W. Deem and Ramdas Pophale) SiO2 
 PCOD9289863
Probable space group: C 2/C
;
_chemical_formula_sum "Si O2"
_cell_formula_units_Z 48
_cell_length_a 17.786816
_cell_length_b 12.221746
_cell_length_c 22.082253
_cell_angle_alpha 90.000000
_cell_angle_beta 25.812654
_cell_angle_gamma 90.000000
_cell_volume 2090.225410
_symmetry_space_group_name_H-M "C 2/C"
_symmetry_group_IT_number 15
_symmetry_cell_setting 'monoclinic'
loop_
_space_group_symop_operation_xyz
x,y,z
-x,y,1/2-z
-x,-y,-z
x,-y,1/2+z
1/2+x,1/2+y,z
1/2-x,1/2+y,1/2-z
1/2-x,1/2-y,-z
1/2+x,1/2-y,1/2+z
loop_
_atom_site_type_symbol
_atom_site_label
_atom_site_fract_x
_atom_site_fract_y
_atom_site_fract_z
Si Si1 0.000000 0.534666 0.250000
Si Si2 0.717849 0.208517 0.441587
Si Si3 0.000000 0.979665 0.750000
Si Si4 0.910424 0.361309 0.227458
Si Si5 0.310058 0.291425 0.228814
Si Si6 0.839002 0.856370 0.466205
Si Si7 0.490120 0.128776 0.022624
O O1 0.992283 0.473504 0.190074
O O2 0.820223 0.596161 0.381377
O O3 0.811286 0.320296 0.358495
O O4 0.575440 0.217012 0.596714
O O5 0.602470 0.185038 0.466647
O O6 0.844823 0.105484 0.349591
O O7 0.918765 0.059252 0.859464
O O8 0.785256 0.350310 0.259899
O O9 0.497665 0.335697 0.109238
O O10 0.182433 0.318198 0.377878
O O11 0.364809 0.167521 0.168456
O O12 0.750000 0.750000 0.500000
O O13 0.500000 0.000000 0.000000
#
# Coordination Sequence:
#
# PCOD9289863 Si02
#       7
#     4   8   4   8   8   8   8
#     4  12  26  46  72  98 138 180 228 290 346 404
#     4  10  22  40  69 101 136 169 228 282 347 409
#     4  12  24  44  68 100 132 190 226 274 352 410
#     4  10  23  45  69 106 134 175 224 293 345 408
#     4  10  25  46  70 102 138 183 235 285 340 419
#     4  12  29  45  67  98 140 186 233 282 337 410
#     4  10  22  45  71  98 137 183 228 286 345 407
#
# _framework density 22.964030999999999
#
# number of rings (size 3 to 8) (size 9 to 14) (size 15 to 20)
#    0.000    1.333    1.667    2.000    9.333    2.000 
#    6.000    0.000    0.000    0.000    0.000    0.000 
#    0.000    0.000    0.000    0.000    0.000    0.000 
#
# Total GULP energy -133742.172364 kJ/mol
# GULP energy per Si atom -5572.590515 kJ/mol
# Density = 2.291176 g / cm^3
# Si number density = 22.964031 Si / 1000 Ang^3
#
#
#
# Elastic Constant Matrix: (Units=GPa)
#
#
# Indices 1 2 3 4 5 6 
#
# 1 52.3103 -11.2373 28.9961 0.0005 -28.2309 -0.0006
# 2 -11.2373 49.8424 22.2478 0.0000 -3.0658 -0.0002
# 3 28.9961 22.2478 148.7478 -0.0016 -21.2673 0.0011
# 4 0.0005 0.0000 -0.0016 41.3436 0.0003 1.3658
# 5 -28.2309 -3.0658 -21.2673 0.0003 48.9854 0.0003
# 6 -0.0006 -0.0002 0.0011 1.3658 0.0003 23.2008
#
#
#
# Elastic Compliance Matrix: (Units=1/GPa)
#
#
# Indices 1 2 3 4 5 6 
#
# 1 0.034653 0.011558 -0.005891 -0.000001 0.018137 0.000001
# 2 0.011558 0.025353 -0.005188 0.000000 0.005995 0.000001
# 3 -0.005891 -0.005188 0.008652 0.000000 0.000037 -0.000001
# 4 -0.000001 0.000000 0.000000 0.024235 0.000000 -0.001427
# 5 0.018137 0.005995 0.000037 0.000000 0.031258 0.000000
# 6 0.000001 0.000001 -0.000001 -0.001427 0.000000 0.043186
#
#
# Mechanical properties :
#
#
# Convention : Reuss Voigt Hill
#
# Bulk Modulus (GPa) = 14.36435 36.76820 25.56627
# Shear Modulus (GPa) = 26.37349 36.76554 31.56952
#
# Velocity S-wave (km/s) = 3.39258 4.00560 3.71177
# Velocity P-wave (km/s) = 4.64918 6.11875 5.43387
#
# Compressibility (1/GPa) = 0.06961682
#
# Stress axis : x y z
#
# Youngs Moduli (GPa) = 28.85772 39.44241 115.57648
#
# Poissons Ratio (x) = -0.45586 0.68081
# Poissons Ratio (y) = -0.33353 0.59959
# Poissons Ratio (z) = 0.16999 0.20462
#
# Static dielectric constant tensor:
#      x y z
#    x 2.161790 0.000010 0.254490 
#    y 0.000010 1.931740 0.000010 
#    z 0.254490 0.000010 2.026470 
# 
# From -- ./inp_files/300939.got.cif
#   From: 2010.05.17/outbox.cif.g08.bks.cpg/sg15_151_cif.got.tgz:300939.got - 2010.06.03 18:47:42.
