data_PCOD9289739
_publ_section_title
;
Structure prediction by ZEFSAII (Michael W. Deem and Ramdas Pophale) SiO2 
 PCOD9289739
Probable space group: C 2/C
;
_chemical_formula_sum "Si O2"
_cell_formula_units_Z 64
_cell_length_a 16.089913
_cell_length_b 9.724175
_cell_length_c 24.159364
_cell_angle_alpha 90.000000
_cell_angle_beta 47.573982
_cell_angle_gamma 90.000000
_cell_volume 2790.204484
_symmetry_space_group_name_H-M "C 2/C"
_symmetry_group_IT_number 15
_symmetry_cell_setting 'monoclinic'
loop_
_space_group_symop_operation_xyz
x,y,z
-x,y,1/2-z
-x,-y,-z
x,-y,1/2+z
1/2+x,1/2+y,z
1/2-x,1/2+y,1/2-z
1/2-x,1/2-y,-z
1/2+x,1/2-y,1/2+z
loop_
_atom_site_type_symbol
_atom_site_label
_atom_site_fract_x
_atom_site_fract_y
_atom_site_fract_z
Si Si1 0.970285 0.976273 0.098219
Si Si2 0.680491 0.031859 0.501367
Si Si3 0.111252 0.370234 0.737831
Si Si4 0.204792 0.861395 0.137613
Si Si5 0.940350 0.275010 0.894189
Si Si6 0.087046 0.100136 0.257793
Si Si7 0.355211 0.671582 0.503144
Si Si8 0.732563 0.852778 0.171788
O O1 0.845199 0.923563 0.144049
O O2 0.044006 0.836389 0.065088
O O3 0.965941 0.052289 0.160515
O O4 0.034360 0.085967 0.031694
O O5 0.611996 0.172618 0.525808
O O6 0.792877 0.090787 0.480961
O O7 0.701610 0.955634 0.433405
O O8 0.623629 0.914861 0.563634
O O9 0.214942 0.278161 0.668704
O O10 0.140530 0.528646 0.720751
O O11 0.000000 0.347231 0.750000
O O12 0.064201 0.316281 0.817008
O O13 0.132056 0.808146 0.118290
O O14 0.136457 0.962962 0.207767
O O15 0.183905 0.214484 0.220625
O O16 0.000000 0.154524 0.250000
O O17 0.264736 0.677431 0.593439
#
# Coordination Sequence:
#
# PCOD9289739 Si02
#       8
#     8   8   8   8   8   8   8   8
#     4  12  27  44  68  97 143 180 217 285 353 406
#     4  11  23  39  72 103 129 175 236 287 327 407
#     4  10  22  40  67  97 130 168 227 283 332 400
#     4  11  19  42  67  99 130 171 223 291 333 393
#     4  11  22  39  64 103 132 168 223 280 338 399
#     4  12  23  45  74 100 133 183 232 287 337 409
#     4  11  24  45  66  99 137 177 230 279 344 401
#     4  12  28  44  67  98 141 180 228 278 349 411
#
# _framework density 22.937387000000001
#
# number of rings (size 3 to 8) (size 9 to 14) (size 15 to 20)
#    0.000    0.750    5.000    3.000    7.000    0.000 
#    0.000    1.875    0.000    0.000    0.000    0.000 
#    0.000    0.000    0.000    0.000    0.000    0.000 
#
# Total GULP energy -178688.128779 kJ/mol
# GULP energy per Si atom -5584.004024 kJ/mol
# Density = 2.288518 g / cm^3
# Si number density = 22.937387 Si / 1000 Ang^3
#
#
#
# Elastic Constant Matrix: (Units=GPa)
#
#
# Indices 1 2 3 4 5 6 
#
# 1 28.6776 20.8115 -0.9756 0.0000 -11.1325 0.0000
# 2 20.8115 186.0048 37.3920 0.0000 -6.6179 0.0000
# 3 -0.9756 37.3920 41.6027 0.0000 6.1756 0.0000
# 4 0.0000 0.0000 0.0000 28.8758 0.0000 -2.9676
# 5 -11.1325 -6.6179 6.1756 0.0000 20.1434 0.0000
# 6 0.0000 0.0000 0.0000 -2.9676 0.0000 14.9160
#
#
#
# Elastic Compliance Matrix: (Units=1/GPa)
#
#
# Indices 1 2 3 4 5 6 
#
# 1 0.047904 -0.004878 0.001902 0.000000 0.024289 0.000000
# 2 -0.004878 0.007408 -0.007055 0.000000 0.001901 0.000000
# 3 0.001902 -0.007055 0.032069 0.000000 -0.011098 0.000000
# 4 0.000000 0.000000 0.000000 0.035354 0.000000 0.007034
# 5 0.024289 0.001901 -0.011098 0.000000 0.067095 0.000000
# 6 0.000000 0.000000 0.000000 0.007034 0.000000 0.068442
#
#
# Mechanical properties :
#
#
# Convention : Reuss Voigt Hill
#
# Bulk Modulus (GPa) = 14.85433 41.19345 28.02389
# Shear Modulus (GPa) = 16.62387 26.05751 21.34069
#
# Velocity S-wave (km/s) = 2.69504 3.37416 3.05354
# Velocity P-wave (km/s) = 4.02174 5.76003 4.96751
#
# Compressibility (1/GPa) = 0.06732044
#
# Stress axis : x y z
#
# Youngs Moduli (GPa) = 20.87508 134.99343 31.18229
#
# Poissons Ratio (x) = 0.65850 -0.05931
# Poissons Ratio (y) = 0.10183 0.21998
# Poissons Ratio (z) = -0.03971 0.95232
#
# Static dielectric constant tensor:
#      x y z
#    x 1.927940 0.000000 0.031490 
#    y 0.000000 1.821010 0.000000 
#    z 0.031490 0.000000 1.893060 
# 
# From -- ./inp_files/315680.got.cif
#   From: 2010.05.17/outbox.cif.g08.bks.cpg/sg15_158_cif.got.tgz:315680.got - 2010.06.03 18:47:42.
