data_PCOD9289999
_publ_section_title
;
Structure prediction by ZEFSAII (Michael W. Deem and Ramdas Pophale) SiO2 
 PCOD9289999
Probable space group: C 2/C
;
_chemical_formula_sum "Si O2"
_cell_formula_units_Z 56
_cell_length_a 16.805615
_cell_length_b 8.758428
_cell_length_c 24.007842
_cell_angle_alpha 90.000000
_cell_angle_beta 132.451513
_cell_angle_gamma 90.000000
_cell_volume 2607.360438
_symmetry_space_group_name_H-M "C 2/C"
_symmetry_group_IT_number 15
_symmetry_cell_setting 'monoclinic'
loop_
_space_group_symop_operation_xyz
x,y,z
-x,y,1/2-z
-x,-y,-z
x,-y,1/2+z
1/2+x,1/2+y,z
1/2-x,1/2+y,1/2-z
1/2-x,1/2-y,-z
1/2+x,1/2-y,1/2+z
loop_
_atom_site_type_symbol
_atom_site_label
_atom_site_fract_x
_atom_site_fract_y
_atom_site_fract_z
Si Si1 0.043237 0.091852 0.073897
Si Si2 0.091800 0.182663 0.678633
Si Si3 0.692798 0.148916 0.675415
Si Si4 0.316067 0.626030 0.169738
Si Si5 0.500000 0.583238 0.750000
Si Si6 0.985038 0.514543 0.124392
Si Si7 0.500000 0.126697 0.750000
Si Si8 0.838694 0.703348 0.497884
O O1 0.139631 0.217317 0.111971
O O2 0.079358 0.971212 0.137895
O O3 0.938671 0.182809 0.045461
O O4 0.000000 0.000000 0.000000
O O5 0.217956 0.223875 0.742029
O O6 0.051850 0.170803 0.723570
O O7 0.016506 0.315969 0.621111
O O8 0.591333 0.081414 0.659373
O O9 0.756607 0.002840 0.679598
O O10 0.403942 0.519909 0.178969
O O11 0.399639 0.764801 0.222962
O O12 0.219839 0.695372 0.088611
O O13 0.964747 0.475362 0.180053
O O14 0.887186 0.456913 0.040660
O O15 0.750000 0.750000 0.500000
#
# Coordination Sequence:
#
# PCOD9289999 Si02
#       8
#     8   8   8   8   4   8   4   8
#     4  11  27  44  65 102 143 175 227 286 343 408
#     4  11  23  44  67  97 141 176 225 294 337 407
#     4  10  25  42  70  98 129 182 233 270 346 408
#     4  10  22  40  72  92 132 175 219 280 340 396
#     4   9  21  42  68  96 128 174 230 274 344 404
#     4  11  25  39  69  99 132 172 232 272 338 413
#     4  11  23  42  70 102 132 174 232 288 340 406
#     4  11  23  44  65  96 131 178 221 267 344 410
#
# _framework density 21.47766
#
# number of rings (size 3 to 8) (size 9 to 14) (size 15 to 20)
#    0.000    1.429    1.429    2.143   16.000    2.286 
#    5.143    1.429    0.000    0.000    0.000    0.000 
#    0.000    0.000    0.000    0.000    0.000    0.000 
#
# Total GULP energy -156042.902034 kJ/mol
# GULP energy per Si atom -5572.960787 kJ/mol
# Density = 2.142878 g / cm^3
# Si number density = 21.477660 Si / 1000 Ang^3
#
#
#
# Elastic Constant Matrix: (Units=GPa)
#
#
# Indices 1 2 3 4 5 6 
#
# 1 60.9481 16.7375 12.4676 0.0000 15.3359 0.0000
# 2 16.7375 89.0541 32.2455 0.0000 7.8658 0.0000
# 3 12.4676 32.2455 101.2291 0.0000 21.5728 0.0000
# 4 0.0000 0.0000 0.0000 44.3931 0.0000 3.4158
# 5 15.3359 7.8658 21.5728 0.0000 33.6964 0.0000
# 6 0.0000 0.0000 0.0000 3.4158 0.0000 19.0628
#
#
#
# Elastic Compliance Matrix: (Units=1/GPa)
#
#
# Indices 1 2 3 4 5 6 
#
# 1 0.019247 -0.003014 0.000355 0.000000 -0.008283 0.000000
# 2 -0.003014 0.013171 -0.004008 0.000000 0.000863 0.000000
# 3 0.000355 -0.004008 0.012676 0.000000 -0.007341 0.000000
# 4 0.000000 0.000000 0.000000 0.022841 0.000000 -0.004093
# 5 -0.008283 0.000863 -0.007341 0.000000 0.037945 0.000000
# 6 0.000000 0.000000 0.000000 -0.004093 0.000000 0.053191
#
#
# Mechanical properties :
#
#
# Convention : Reuss Voigt Hill
#
# Bulk Modulus (GPa) = 31.48756 41.57029 36.52892
# Shear Modulus (GPa) = 27.32355 32.08251 29.70303
#
# Velocity S-wave (km/s) = 3.57064 3.86911 3.72287
# Velocity P-wave (km/s) = 5.62954 6.27353 5.96024
#
# Compressibility (1/GPa) = 0.03175857
#
# Stress axis : x y z
#
# Youngs Moduli (GPa) = 51.95667 75.92615 78.88854
#
# Poissons Ratio (x) = 0.22886 -0.02800
# Poissons Ratio (y) = 0.15661 0.31620
# Poissons Ratio (z) = -0.01844 0.30432
#
# Static dielectric constant tensor:
#      x y z
#    x 1.723100 0.000000 0.027910 
#    y 0.000000 1.864470 0.000000 
#    z 0.027910 0.000000 1.719320 
# 
# From -- ./inp_files/276648.got.cif
#   From: 2010.05.17/outbox.cif.g08.bks.cpg/sg15_139_cif.got.tgz:276648.got - 2010.06.03 18:47:42.
