data_PCOD9289275
_publ_section_title
;
Structure prediction by ZEFSAII (Michael W. Deem and Ramdas Pophale) SiO2 
 PCOD9289275
Probable space group: C 2/C
;
_chemical_formula_sum "Si O2"
_cell_formula_units_Z 44
_cell_length_a 19.024802
_cell_length_b 11.587893
_cell_length_c 12.031800
_cell_angle_alpha 90.000000
_cell_angle_beta 45.999957
_cell_angle_gamma 90.000000
_cell_volume 1908.046706
_symmetry_space_group_name_H-M "C 2/C"
_symmetry_group_IT_number 15
_symmetry_cell_setting 'monoclinic'
loop_
_space_group_symop_operation_xyz
x,y,z
-x,y,1/2-z
-x,-y,-z
x,-y,1/2+z
1/2+x,1/2+y,z
1/2-x,1/2+y,1/2-z
1/2-x,1/2-y,-z
1/2+x,1/2-y,1/2+z
loop_
_atom_site_type_symbol
_atom_site_label
_atom_site_fract_x
_atom_site_fract_y
_atom_site_fract_z
Si Si1 0.089203 0.411106 0.297711
Si Si2 0.707718 0.355552 0.308657
Si Si3 0.362633 0.279079 0.891202
Si Si4 0.929314 0.669457 0.143378
Si Si5 0.000000 0.833498 0.250000
Si Si6 0.585908 0.486368 0.812932
O O1 0.181556 0.365309 0.270843
O O2 0.094493 0.346161 0.175334
O O3 0.099020 0.547780 0.270949
O O4 0.992258 0.371914 0.468842
O O5 0.636225 0.345214 0.494326
O O6 0.666119 0.246365 0.283470
O O7 0.682377 0.471429 0.270210
O O8 0.404650 0.360735 0.749135
O O9 0.250000 0.250000 0.000000
O O10 0.000254 0.745946 0.144807
O O11 0.075368 0.926302 0.219668
O O12 0.500000 0.500000 0.000000
#
# Coordination Sequence:
#
# PCOD9289275 Si02
#       6
#     8   8   8   8   4   8
#     4  10  23  41  66  94 135 179 218 277 344 404
#     4  10  23  41  66  94 132 174 226 277 338 403
#     4  10  22  40  63 101 131 170 228 279 339 405
#     4  10  23  44  64  97 136 178 221 279 336 406
#     4  10  22  42  62  98 126 170 228 266 336 402
#     4  11  22  40  68  93 132 175 223 284 335 401
#
# _framework density 23.060231000000002
#
# number of rings (size 3 to 8) (size 9 to 14) (size 15 to 20)
#    0.000    1.818    0.000    3.273    5.091    5.091 
#    6.545    1.818    0.000    0.000    0.000    0.000 
#    0.000    0.000    0.000    0.000    0.000    0.000 
#
# Total GULP energy -122550.612969 kJ/mol
# GULP energy per Si atom -5570.482408 kJ/mol
# Density = 2.300774 g / cm^3
# Si number density = 23.060231 Si / 1000 Ang^3
#
#
#
# Elastic Constant Matrix: (Units=GPa)
#
#
# Indices 1 2 3 4 5 6 
#
# 1 105.0440 9.9357 6.8587 0.0000 -6.3663 0.0000
# 2 9.9357 125.3973 27.7726 0.0000 4.5419 0.0000
# 3 6.8587 27.7726 41.7261 0.0000 2.7667 0.0000
# 4 0.0000 0.0000 0.0000 -31.2356 0.0000 -36.0425
# 5 -6.3663 4.5419 2.7667 0.0000 37.9873 0.0000
# 6 0.0000 0.0000 0.0000 -36.0425 0.0000 -3.9940
#
#
#
# Elastic Compliance Matrix: (Units=1/GPa)
#
#
# Indices 1 2 3 4 5 6 
#
# 1 0.009769 -0.000536 -0.001368 0.000000 0.001801 0.000000
# 2 -0.000536 0.009400 -0.006117 0.000000 -0.000768 0.000000
# 3 -0.001368 -0.006117 0.028366 0.000000 -0.001564 0.000000
# 4 0.000000 0.000000 0.000000 0.003401 0.000000 -0.030693
# 5 0.001801 -0.000768 -0.001564 0.000000 0.026832 0.000000
# 6 0.000000 0.000000 0.000000 -0.030693 0.000000 0.026599
#
#
# Mechanical properties :
#
#
# Convention : Reuss Voigt Hill
#
# Bulk Modulus (GPa) = 31.75491 40.14459 35.94975
# Shear Modulus (GPa) = 38.19466 15.72490 26.95978
#
# Velocity S-wave (km/s) = 4.07418 2.61416 3.42292
# Velocity P-wave (km/s) = 5.99435 5.15346 5.58974
#
# Compressibility (1/GPa) = 0.03149119
#
# Stress axis : x y z
#
# Youngs Moduli (GPa) = 102.36434 106.38492 35.25333
#
# Poissons Ratio (x) = 0.05705 0.04824
# Poissons Ratio (y) = 0.05489 0.21566
# Poissons Ratio (z) = 0.14006 0.65080
#
# Static dielectric constant tensor:
#      x y z
#    x 1.881280 0.000000 0.041820 
#    y 0.000000 1.990400 0.000000 
#    z 0.041820 0.000000 1.862390 
# 
# From -- ./inp_files/110839.got.cif
#   From: 2010.05.17/outbox.cif.g08.bks.cpg/sg15_56_cif.got.tgz:110839.got - 2010.06.03 18:47:42.
