data_PCOD9289577
_publ_section_title
;
Structure prediction by ZEFSAII (Michael W. Deem and Ramdas Pophale) SiO2 
 PCOD9289577
Probable space group: C 2/C
;
_chemical_formula_sum "Si O2"
_cell_formula_units_Z 36
_cell_length_a 4.881879
_cell_length_b 29.633567
_cell_length_c 11.450344
_cell_angle_alpha 90.000000
_cell_angle_beta 55.308424
_cell_angle_gamma 90.000000
_cell_volume 1362.014077
_symmetry_space_group_name_H-M "C 2/C"
_symmetry_group_IT_number 15
_symmetry_cell_setting 'monoclinic'
loop_
_space_group_symop_operation_xyz
x,y,z
-x,y,1/2-z
-x,-y,-z
x,-y,1/2+z
1/2+x,1/2+y,z
1/2-x,1/2+y,1/2-z
1/2-x,1/2-y,-z
1/2+x,1/2-y,1/2+z
loop_
_atom_site_type_symbol
_atom_site_label
_atom_site_fract_x
_atom_site_fract_y
_atom_site_fract_z
Si Si1 0.722680 0.113334 0.465082
Si Si2 0.393366 0.210409 0.044164
Si Si3 0.000000 0.767031 0.250000
Si Si4 0.002014 0.918003 0.389198
Si Si5 0.108535 0.015785 0.090343
O O1 0.799319 0.163597 0.409622
O O2 0.372521 0.098707 0.494165
O O3 0.956632 0.070247 0.387940
O O4 0.742983 0.112552 0.601224
O O5 0.402394 0.232421 0.169655
O O6 0.250000 0.250000 0.000000
O O7 0.740321 0.202335 0.887506
O O8 0.000000 0.915135 0.250000
O O9 0.076133 0.969844 0.421094
O O10 0.000000 0.005148 0.250000
O O11 0.500000 0.000000 0.000000
#
# Coordination Sequence:
#
# PCOD9289577 Si02
#       5
#     8   8   4   8   8
#     4  11  24  41  69 101 137 183 239 291 358 430
#     4  11  26  47  73 105 144 190 247 307 380 446
#     4  10  26  48  72 100 150 188 244 316 378 446
#     4  10  22  40  66 101 141 184 232 286 348 427
#     4   9  20  42  66 100 144 188 236 293 359 431
#
# _framework density 26.431446000000001
#
# number of rings (size 3 to 8) (size 9 to 14) (size 15 to 20)
#    0.000    1.778    0.000    2.000    7.778    3.556 
#    4.000    6.667    0.000    0.000    0.000    0.000 
#    0.000    0.000    0.000    0.000    0.000    0.000 
#
# Total GULP energy -100236.113595 kJ/mol
# GULP energy per Si atom -5568.672978 kJ/mol
# Density = 2.637129 g / cm^3
# Si number density = 26.431446 Si / 1000 Ang^3
#
#
#
# Elastic Constant Matrix: (Units=GPa)
#
#
# Indices 1 2 3 4 5 6 
#
# 1 118.6387 40.2731 15.3549 0.0000 32.5316 0.0000
# 2 40.2731 206.7295 43.2801 0.0000 42.8202 0.0000
# 3 15.3549 43.2801 124.0800 0.0000 10.4774 0.0000
# 4 0.0000 0.0000 0.0000 10.7695 0.0000 8.3505
# 5 32.5316 42.8202 10.4774 0.0000 42.4881 0.0000
# 6 0.0000 0.0000 0.0000 8.3505 0.0000 46.1198
#
#
#
# Elastic Compliance Matrix: (Units=1/GPa)
#
#
# Indices 1 2 3 4 5 6 
#
# 1 0.010742 -0.000383 -0.000545 0.000000 -0.007705 0.000000
# 2 -0.000383 0.006475 -0.001721 0.000000 -0.005808 0.000000
# 3 -0.000545 -0.001721 0.008727 0.000000 0.000000 0.000000
# 4 0.000000 0.000000 0.000000 0.108020 0.000000 -0.019558
# 5 -0.007705 -0.005808 0.000000 0.000000 0.035289 0.000000
# 6 0.000000 0.000000 0.000000 -0.019558 0.000000 0.025224
#
#
# Mechanical properties :
#
#
# Convention : Reuss Voigt Hill
#
# Bulk Modulus (GPa) = 48.43325 71.91827 60.17576
# Shear Modulus (GPa) = 24.19465 43.24481 33.71973
#
# Velocity S-wave (km/s) = 3.02880 4.04928 3.57563
# Velocity P-wave (km/s) = 5.53131 7.00932 6.31371
#
# Compressibility (1/GPa) = 0.02064697
#
# Stress axis : x y z
#
# Youngs Moduli (GPa) = 93.09159 154.43670 114.58641
#
# Poissons Ratio (x) = 0.05909 0.06248
# Poissons Ratio (y) = 0.03562 0.19718
# Poissons Ratio (z) = 0.05076 0.26575
#
# Static dielectric constant tensor:
#      x y z
#    x 3.151190 0.000000 0.025570 
#    y 0.000000 2.058410 0.000000 
#    z 0.025570 0.000000 2.334670 
# 
# From -- ./inp_files/73549.got.cif
#   From: 2010.05.17/outbox.cif.g08.bks.cpg/sg15_37_cif.got.tgz:73549.got - 2010.06.03 18:47:42.
