data_PCOD9289418
_publ_section_title
;
Structure prediction by ZEFSAII (Michael W. Deem and Ramdas Pophale) SiO2 
 PCOD9289418
Probable space group: C 2/C
;
_chemical_formula_sum "Si O2"
_cell_formula_units_Z 36
_cell_length_a 30.263446
_cell_length_b 8.819237
_cell_length_c 12.279913
_cell_angle_alpha 90.000000
_cell_angle_beta 148.217919
_cell_angle_gamma 90.000000
_cell_volume 1726.234251
_symmetry_space_group_name_H-M "C 2/C"
_symmetry_group_IT_number 15
_symmetry_cell_setting 'monoclinic'
loop_
_space_group_symop_operation_xyz
x,y,z
-x,y,1/2-z
-x,-y,-z
x,-y,1/2+z
1/2+x,1/2+y,z
1/2-x,1/2+y,1/2-z
1/2-x,1/2-y,-z
1/2+x,1/2-y,1/2+z
loop_
_atom_site_type_symbol
_atom_site_label
_atom_site_fract_x
_atom_site_fract_y
_atom_site_fract_z
Si Si1 0.561204 0.332965 0.973027
Si Si2 0.000000 0.130869 0.750000
Si Si3 0.319764 0.150143 0.415647
Si Si4 0.353820 0.808901 0.414971
Si Si5 0.949932 0.657860 0.888771
O O1 0.500000 0.266407 0.750000
O O2 0.549048 0.512132 0.931055
O O3 0.520509 0.278627 0.999135
O O4 0.648163 0.260954 0.115493
O O5 0.926852 0.237123 0.643627
O O6 0.226831 0.202149 0.251869
O O7 0.379107 0.162091 0.645997
O O8 0.326871 0.977510 0.391038
O O9 0.400930 0.817144 0.398003
O O10 0.000000 0.500000 0.000000
#
# Coordination Sequence:
#
# PCOD9289418 Si02
#       5
#     8   4   8   8   8
#     4   8  19  40  63  86 129 156 211 258 321 365
#     4  10  22  40  64  94 122 180 204 266 320 384
#     4  11  23  42  62  96 130 169 208 275 317 379
#     4  12  24  40  68  92 133 170 220 259 331 378
#     4  11  21  40  70  97 124 170 218 265 320 389
#
# _framework density 20.854642999999999
#
# number of rings (size 3 to 8) (size 9 to 14) (size 15 to 20)
#    0.667    0.889    2.222    3.333    1.556    0.889 
#    0.000    1.111    0.000    0.000    0.000    0.000 
#    0.000    0.000    0.000    0.000    0.000    0.000 
#
# Total GULP energy -100324.886376 kJ/mol
# GULP energy per Si atom -5573.604799 kJ/mol
# Density = 2.080718 g / cm^3
# Si number density = 20.854643 Si / 1000 Ang^3
#
#
#
# Elastic Constant Matrix: (Units=GPa)
#
#
# Indices 1 2 3 4 5 6 
#
# 1 156.1842 66.0344 55.8268 0.0000 29.7868 0.0000
# 2 66.0344 154.2028 52.5918 0.0000 29.9061 0.0000
# 3 55.8268 52.5918 117.9557 0.0000 34.7148 0.0000
# 4 0.0000 0.0000 0.0000 38.4164 0.0000 15.1045
# 5 29.7868 29.9061 34.7148 0.0000 40.7809 0.0000
# 6 0.0000 0.0000 0.0000 15.1045 0.0000 31.3021
#
#
#
# Elastic Compliance Matrix: (Units=1/GPa)
#
#
# Indices 1 2 3 4 5 6 
#
# 1 0.008762 -0.002463 -0.002264 0.000000 -0.002666 0.000000
# 2 -0.002463 0.008760 -0.001840 0.000000 -0.003059 0.000000
# 3 -0.002264 -0.001840 0.012657 0.000000 -0.007771 0.000000
# 4 0.000000 0.000000 0.000000 0.032125 0.000000 -0.015502
# 5 -0.002666 -0.003059 -0.007771 0.000000 0.035327 0.000000
# 6 0.000000 0.000000 0.000000 -0.015502 0.000000 0.039427
#
#
# Mechanical properties :
#
#
# Convention : Reuss Voigt Hill
#
# Bulk Modulus (GPa) = 58.66718 86.36097 72.51407
# Shear Modulus (GPa) = 32.07717 39.02585 35.55151
#
# Velocity S-wave (km/s) = 3.92616 4.33058 4.13332
# Velocity P-wave (km/s) = 6.98180 8.15512 7.59116
#
# Compressibility (1/GPa) = 0.01704530
#
# Stress axis : x y z
#
# Youngs Moduli (GPa) = 114.13274 114.14934 79.00927
#
# Poissons Ratio (x) = 0.28112 0.17888
# Poissons Ratio (y) = 0.28108 0.14538
# Poissons Ratio (z) = 0.25840 0.21004
#
# Static dielectric constant tensor:
#      x y z
#    x 1.778770 0.000000 -0.032110 
#    y 0.000000 1.763630 0.000000 
#    z -0.032110 0.000000 1.756680 
# 
# From -- ./inp_files/180971.got.cif
#   From: 2010.05.17/outbox.cif.g08.bks.cpg/sg15_91_cif.got.tgz:180971.got - 2010.06.03 18:47:42.
