data_PCOD9289257
_publ_section_title
;
Structure prediction by ZEFSAII (Michael W. Deem and Ramdas Pophale) SiO2 
 PCOD9289257
Probable space group: C 2/C
;
_chemical_formula_sum "Si O2"
_cell_formula_units_Z 44
_cell_length_a 25.445798
_cell_length_b 16.468157
_cell_length_c 9.593412
_cell_angle_alpha 90.000000
_cell_angle_beta 152.258224
_cell_angle_gamma 90.000000
_cell_volume 1871.294676
_symmetry_space_group_name_H-M "C 2/C"
_symmetry_group_IT_number 15
_symmetry_cell_setting 'monoclinic'
loop_
_space_group_symop_operation_xyz
x,y,z
-x,y,1/2-z
-x,-y,-z
x,-y,1/2+z
1/2+x,1/2+y,z
1/2-x,1/2+y,1/2-z
1/2-x,1/2-y,-z
1/2+x,1/2-y,1/2+z
loop_
_atom_site_type_symbol
_atom_site_label
_atom_site_fract_x
_atom_site_fract_y
_atom_site_fract_z
Si Si1 0.101369 0.549332 0.572311
Si Si2 0.590656 0.220240 0.677472
Si Si3 0.250058 0.161137 0.060853
Si Si4 0.000000 0.321894 0.250000
Si Si5 0.243530 0.476006 0.137787
Si Si6 0.834334 0.849390 0.845081
O O1 0.060038 0.639434 0.518556
O O2 0.134977 0.507002 0.794792
O O3 0.206246 0.546612 0.707859
O O4 0.000000 0.509731 0.250000
O O5 0.523380 0.226967 0.662936
O O6 0.585457 0.299561 0.569138
O O7 0.716177 0.193503 0.022042
O O8 0.375574 0.139367 0.419579
O O9 0.218575 0.100745 0.862499
O O10 0.163551 0.161865 0.985179
O O11 0.250000 0.250000 0.000000
O O12 0.325750 0.553249 0.312852
#
# Coordination Sequence:
#
# PCOD9289257 Si02
#       6
#     8   8   8   4   8   8
#     4  11  21  32  52  87 123 162 200 249 321 378
#     4   9  19  36  59  80 123 164 200 253 306 372
#     4  11  22  38  62  93 126 166 214 256 318 383
#     4  10  22  40  62  96 124 160 214 262 316 378
#     4  11  21  35  56  87 126 167 200 256 312 381
#     4   9  19  37  54  87 121 163 208 248 303 377
#
# _framework density 23.513131999999999
#
# number of rings (size 3 to 8) (size 9 to 14) (size 15 to 20)
#    0.000    1.818    1.818    2.727    1.273    1.455 
#    0.000    0.000    0.000    1.091    2.364    0.000 
#    0.000    0.000    0.000    0.000    0.000    0.000 
#
# Total GULP energy -122736.690684 kJ/mol
# GULP energy per Si atom -5578.940486 kJ/mol
# Density = 2.345961 g / cm^3
# Si number density = 23.513132 Si / 1000 Ang^3
#
#
#
# Elastic Constant Matrix: (Units=GPa)
#
#
# Indices 1 2 3 4 5 6 
#
# 1 167.4365 79.6456 32.9482 0.0000 -38.2631 0.0000
# 2 79.6456 175.4432 -2.0608 0.0000 -23.8293 0.0000
# 3 32.9482 -2.0608 41.6373 0.0000 -1.4879 0.0000
# 4 0.0000 0.0000 0.0000 15.6438 0.0000 -5.4096
# 5 -38.2631 -23.8293 -1.4879 0.0000 38.4674 0.0000
# 6 0.0000 0.0000 0.0000 -5.4096 0.0000 18.0111
#
#
#
# Elastic Compliance Matrix: (Units=1/GPa)
#
#
# Indices 1 2 3 4 5 6 
#
# 1 0.011841 -0.004295 -0.009269 0.000000 0.008759 0.000000
# 2 -0.004295 0.007789 0.003809 0.000000 0.000701 0.000000
# 3 -0.009269 0.003809 0.031339 0.000000 -0.005649 0.000000
# 4 0.000000 0.000000 0.000000 0.071332 0.000000 0.021425
# 5 0.008759 0.000701 -0.005649 0.000000 0.034924 0.000000
# 6 0.000000 0.000000 0.000000 0.021425 0.000000 0.061956
#
#
# Mechanical properties :
#
#
# Convention : Reuss Voigt Hill
#
# Bulk Modulus (GPa) = 31.78764 67.28698 49.53731
# Shear Modulus (GPa) = 20.06598 32.69006 26.37802
#
# Velocity S-wave (km/s) = 2.92446 3.73270 3.35302
# Velocity P-wave (km/s) = 4.99517 6.87432 6.00866
#
# Compressibility (1/GPa) = 0.03145877
#
# Stress axis : x y z
#
# Youngs Moduli (GPa) = 84.45235 128.37975 31.90946
#
# Poissons Ratio (x) = 0.55134 0.29578
# Poissons Ratio (y) = 0.36269 -0.12154
# Poissons Ratio (z) = 0.78283 -0.48899
#
# Static dielectric constant tensor:
#      x y z
#    x 1.902840 0.000000 0.074940 
#    y 0.000000 1.973380 0.000000 
#    z 0.074940 0.000000 1.951350 
# 
# From -- ./inp_files/62834.got.cif
#   From: 2010.05.17/outbox.cif.g08.bks.cpg/sg15_32_cif.got.tgz:62834.got - 2010.06.03 18:47:42.
