data_PCOD9289478
_publ_section_title
;
Structure prediction by ZEFSAII (Michael W. Deem and Ramdas Pophale) SiO2 
 PCOD9289478
Probable space group: C 2/C
;
_chemical_formula_sum "Si O2"
_cell_formula_units_Z 52
_cell_length_a 25.756656
_cell_length_b 12.772413
_cell_length_c 10.079158
_cell_angle_alpha 90.000000
_cell_angle_beta 43.974408
_cell_angle_gamma 90.000000
_cell_volume 2302.273906
_symmetry_space_group_name_H-M "C 2/C"
_symmetry_group_IT_number 15
_symmetry_cell_setting 'monoclinic'
loop_
_space_group_symop_operation_xyz
x,y,z
-x,y,1/2-z
-x,-y,-z
x,-y,1/2+z
1/2+x,1/2+y,z
1/2-x,1/2+y,1/2-z
1/2-x,1/2-y,-z
1/2+x,1/2-y,1/2+z
loop_
_atom_site_type_symbol
_atom_site_label
_atom_site_fract_x
_atom_site_fract_y
_atom_site_fract_z
Si Si1 0.391081 0.778826 0.140676
Si Si2 0.848410 0.065665 0.918901
Si Si3 0.726879 0.233183 0.854289
Si Si4 0.000000 0.852080 0.250000
Si Si5 0.049860 0.492261 0.538267
Si Si6 0.739149 0.496331 0.162709
Si Si7 0.138838 0.669836 0.517027
O O1 0.314786 0.744557 0.209845
O O2 0.394409 0.771607 0.293533
O O3 0.456881 0.718647 0.940033
O O4 0.392568 0.902204 0.103312
O O5 0.825102 0.004743 0.830156
O O6 0.934790 0.080553 0.798676
O O7 0.812645 0.182897 0.977991
O O8 0.802100 0.011410 0.121896
O O9 0.719148 0.115283 0.916574
O O10 0.813229 0.256193 0.666320
O O11 0.083026 0.600966 0.530286
O O12 0.000000 0.450792 0.750000
O O13 0.000000 0.500000 0.500000
O O14 0.802154 0.584490 0.034335
#
# Coordination Sequence:
#
# PCOD9289478 Si02
#       7
#     8   8   8   4   8   8   8
#     4  11  21  41  65  91 134 169 209 268 324 387
#     4  10  24  41  66  96 128 171 216 261 324 388
#     4  10  22  40  65 100 125 166 216 275 322 377
#     4  10  24  42  62  96 132 176 214 260 322 392
#     4  12  24  39  61  92 129 171 211 261 331 392
#     4  11  22  42  67  95 127 166 217 274 321 374
#     4  11  24  40  67  97 130 168 221 271 326 389
#
# _framework density 22.586366000000002
#
# number of rings (size 3 to 8) (size 9 to 14) (size 15 to 20)
#    0.000    1.231    3.846    1.846    2.154    4.308 
#    0.000    0.000    0.000    0.000    0.000    0.000 
#    0.000    0.000    0.000    0.000    0.000    0.000 
#
# Total GULP energy -145333.685399 kJ/mol
# GULP energy per Si atom -5589.757131 kJ/mol
# Density = 2.253496 g / cm^3
# Si number density = 22.586366 Si / 1000 Ang^3
#
#
#
# Elastic Constant Matrix: (Units=GPa)
#
#
# Indices 1 2 3 4 5 6 
#
# 1 127.9052 11.8666 30.9817 0.0000 10.8969 0.0000
# 2 11.8666 41.6865 -5.0372 0.0000 2.0048 0.0000
# 3 30.9817 -5.0372 75.0878 0.0000 9.8801 0.0000
# 4 0.0000 0.0000 0.0000 16.6167 0.0000 -2.4257
# 5 10.8969 2.0048 9.8801 0.0000 33.1318 0.0000
# 6 0.0000 0.0000 0.0000 -2.4257 0.0000 39.1751
#
#
#
# Elastic Compliance Matrix: (Units=1/GPa)
#
#
# Indices 1 2 3 4 5 6 
#
# 1 0.009148 -0.002975 -0.003749 0.000000 -0.001711 0.000000
# 2 -0.002975 0.025284 0.003119 0.000000 -0.001481 0.000000
# 3 -0.003749 0.003119 0.015546 0.000000 -0.003592 0.000000
# 4 0.000000 0.000000 0.000000 0.060729 0.000000 0.003760
# 5 -0.001711 -0.001481 -0.003592 0.000000 0.031906 0.000000
# 6 0.000000 0.000000 0.000000 0.003760 0.000000 0.025759
#
#
# Mechanical properties :
#
#
# Convention : Reuss Voigt Hill
#
# Bulk Modulus (GPa) = 23.38237 35.58908 29.48573
# Shear Modulus (GPa) = 26.33808 31.57594 28.95701
#
# Velocity S-wave (km/s) = 3.41853 3.74305 3.58447
# Velocity P-wave (km/s) = 5.09477 5.87126 5.49674
#
# Compressibility (1/GPa) = 0.04276726
#
# Stress axis : x y z
#
# Youngs Moduli (GPa) = 109.31172 39.55147 64.32340
#
# Poissons Ratio (x) = 0.11766 0.24115
# Poissons Ratio (y) = 0.32519 -0.20059
# Poissons Ratio (z) = 0.40982 -0.12334
#
# Static dielectric constant tensor:
#      x y z
#    x 1.917440 0.000000 0.011920 
#    y 0.000000 1.872880 0.000000 
#    z 0.011920 0.000000 1.820270 
# 
# From -- ./inp_files/66133.got.cif
#   From: 2010.05.17/outbox.cif.g08.bks.cpg/sg15_34_cif.got.tgz:66133.got - 2010.06.03 18:47:42.
