data_PCOD9289270
_publ_section_title
;
Structure prediction by ZEFSAII (Michael W. Deem and Ramdas Pophale) SiO2 
 PCOD9289270
Probable space group: C 2/C
;
_chemical_formula_sum "Si O2"
_cell_formula_units_Z 44
_cell_length_a 23.756983
_cell_length_b 9.539636
_cell_length_c 27.174611
_cell_angle_alpha 90.000000
_cell_angle_beta 160.043036
_cell_angle_gamma 90.000000
_cell_volume 2102.039224
_symmetry_space_group_name_H-M "C 2/C"
_symmetry_group_IT_number 15
_symmetry_cell_setting 'monoclinic'
loop_
_space_group_symop_operation_xyz
x,y,z
-x,y,1/2-z
-x,-y,-z
x,-y,1/2+z
1/2+x,1/2+y,z
1/2-x,1/2+y,1/2-z
1/2-x,1/2-y,-z
1/2+x,1/2-y,1/2+z
loop_
_atom_site_type_symbol
_atom_site_label
_atom_site_fract_x
_atom_site_fract_y
_atom_site_fract_z
Si Si1 0.500000 0.924462 0.250000
Si Si2 0.133034 0.162503 0.466339
Si Si3 0.698841 0.768750 0.056834
Si Si4 0.498566 0.976517 0.356683
Si Si5 0.124334 0.987840 0.557546
Si Si6 0.037242 0.882359 0.338854
O O1 0.671126 0.838668 0.385559
O O2 0.499989 0.014961 0.299684
O O3 0.058862 0.316556 0.404373
O O4 0.102923 0.100022 0.496015
O O5 0.051612 0.047073 0.363450
O O6 0.685217 0.687558 0.992661
O O7 0.619765 0.919835 0.983692
O O8 0.607189 0.663885 0.018123
O O9 0.876165 0.801469 0.225924
O O10 0.316530 0.991999 0.228924
O O11 0.000000 0.000000 0.500000
O O12 0.000000 0.871233 0.250000
#
# Coordination Sequence:
#
# PCOD9289270 Si02
#       6
#     4   8   8   8   8   8
#     4  10  22  40  62  98 140 178 210 276 330 404
#     4  10  24  41  67  98 134 178 227 275 334 408
#     4  11  23  42  65  95 134 172 221 274 334 396
#     4  11  23  40  66  98 131 173 223 272 338 400
#     4  10  24  47  66  90 131 174 230 289 336 392
#     4  11  23  39  65  99 138 179 215 269 338 404
#
# _framework density 20.932054999999998
#
# number of rings (size 3 to 8) (size 9 to 14) (size 15 to 20)
#    0.000    1.455    1.818    2.182    7.636    1.455 
#    0.000    0.909    0.000    0.000    0.000    0.000 
#    0.000    0.000    0.000    0.000    0.000    0.000 
#
# Total GULP energy -122849.366769 kJ/mol
# GULP energy per Si atom -5584.062126 kJ/mol
# Density = 2.088441 g / cm^3
# Si number density = 20.932055 Si / 1000 Ang^3
#
#
#
# Elastic Constant Matrix: (Units=GPa)
#
#
# Indices 1 2 3 4 5 6 
#
# 1 109.6636 34.6498 48.2282 0.0008 32.3466 0.0002
# 2 34.6498 150.5101 60.7369 0.0011 3.2224 0.0004
# 3 48.2282 60.7369 108.2903 -0.0002 6.6397 0.0000
# 4 0.0008 0.0011 -0.0002 30.5329 -0.0001 -4.7286
# 5 32.3466 3.2224 6.6397 -0.0001 35.9876 -0.0001
# 6 0.0002 0.0004 0.0000 -4.7286 -0.0001 22.7852
#
#
#
# Elastic Compliance Matrix: (Units=1/GPa)
#
#
# Indices 1 2 3 4 5 6 
#
# 1 0.015783 -0.001086 -0.005620 -0.000001 -0.013053 0.000000
# 2 -0.001086 0.008663 -0.004438 0.000000 0.001019 0.000000
# 3 -0.005620 -0.004438 0.014051 0.000000 0.002856 0.000000
# 4 -0.000001 0.000000 0.000000 0.033839 0.000001 0.007023
# 5 -0.013053 0.001019 0.002856 0.000001 0.038901 0.000000
# 6 0.000000 0.000000 0.000000 0.007023 0.000000 0.045346
#
#
# Mechanical properties :
#
#
# Convention : Reuss Voigt Hill
#
# Bulk Modulus (GPa) = 61.68920 72.85487 67.27204
# Shear Modulus (GPa) = 27.13348 32.85106 29.99227
#
# Velocity S-wave (km/s) = 3.60427 3.96588 3.78939
# Velocity P-wave (km/s) = 6.84516 7.47341 7.16617
#
# Compressibility (1/GPa) = 0.01621029
#
# Stress axis : x y z
#
# Youngs Moduli (GPa) = 63.35731 115.43249 71.16929
#
# Poissons Ratio (x) = 0.12540 0.39995
# Poissons Ratio (y) = 0.06883 0.31582
# Poissons Ratio (z) = 0.35605 0.51224
#
# Static dielectric constant tensor:
#      x y z
#    x 1.752680 0.000000 -0.014610 
#    y 0.000000 1.767140 0.000000 
#    z -0.014610 0.000000 1.807400 
# 
# From -- ./inp_files/318653.got.cif
#   From: 2010.05.17/outbox.cif.g08.bks.cpg/sg15_160_cif.got.tgz:318653.got - 2010.06.03 18:47:42.
