data_PCOD9289325
_publ_section_title
;
Structure prediction by ZEFSAII (Michael W. Deem and Ramdas Pophale) SiO2 
 PCOD9289325
Probable space group: C 2/C
;
_chemical_formula_sum "Si O2"
_cell_formula_units_Z 60
_cell_length_a 20.623523
_cell_length_b 7.842232
_cell_length_c 23.518218
_cell_angle_alpha 90.000000
_cell_angle_beta 128.120308
_cell_angle_gamma 90.000000
_cell_volume 2992.437474
_symmetry_space_group_name_H-M "C 2/C"
_symmetry_group_IT_number 15
_symmetry_cell_setting 'monoclinic'
loop_
_space_group_symop_operation_xyz
x,y,z
-x,y,1/2-z
-x,-y,-z
x,-y,1/2+z
1/2+x,1/2+y,z
1/2-x,1/2+y,1/2-z
1/2-x,1/2-y,-z
1/2+x,1/2-y,1/2+z
loop_
_atom_site_type_symbol
_atom_site_label
_atom_site_fract_x
_atom_site_fract_y
_atom_site_fract_z
Si Si1 0.915231 0.554144 0.891686
Si Si2 0.361918 0.827037 0.240209
Si Si3 0.471217 0.730671 0.965458
Si Si4 0.627908 0.485302 0.520960
Si Si5 0.355629 0.552985 0.601826
Si Si6 0.300138 0.169678 0.147371
Si Si7 0.500000 0.614232 0.250000
Si Si8 0.244419 0.020761 0.351586
O O1 0.882192 0.627355 0.815596
O O2 0.982040 0.673986 0.957609
O O3 0.838715 0.520267 0.892202
O O4 0.953523 0.367199 0.907101
O O5 0.439332 0.732424 0.253700
O O6 0.289173 0.686042 0.198490
O O7 0.341241 0.001172 0.195076
O O8 0.538748 0.603081 0.977394
O O9 0.389398 0.646987 0.947881
O O10 0.645330 0.502030 0.463672
O O11 0.704505 0.378436 0.586402
O O12 0.337700 0.751715 0.608845
O O13 0.441202 0.497723 0.677629
O O14 0.282741 0.457940 0.597472
O O15 0.302826 0.340811 0.188171
#
# Coordination Sequence:
#
# PCOD9289325 Si02
#       8
#     8   8   8   8   8   8   4   8
#     4  11  22  41  60  90 126 164 206 254 316 370
#     4  11  24  41  65  90 124 169 200 264 318 358
#     4  10  23  37  61  93 125 160 207 259 303 383
#     4  11  20  41  62  92 125 163 206 257 318 359
#     4   9  21  39  65  84 124 167 194 264 312 353
#     4  10  22  40  63  95 114 162 218 247 301 387
#     4  10  22  44  56  94 128 156 214 256 312 382
#     4   9  22  41  59  91 126 151 213 260 290 378
#
# _framework density 20.050543000000001
#
# number of rings (size 3 to 8) (size 9 to 14) (size 15 to 20)
#    0.800    1.067    1.333    2.000    1.867    2.667 
#    4.800    8.667    0.000    0.000    0.000    0.000 
#    0.000    0.000    0.000    0.000    0.000    0.000 
#
# Total GULP energy -167090.677413 kJ/mol
# GULP energy per Si atom -5569.689247 kJ/mol
# Density = 2.000491 g / cm^3
# Si number density = 20.050543 Si / 1000 Ang^3
#
#
#
# Elastic Constant Matrix: (Units=GPa)
#
#
# Indices 1 2 3 4 5 6 
#
# 1 63.8420 17.6586 19.9984 0.0000 6.7610 0.0000
# 2 17.6586 93.2648 26.9212 0.0000 -3.3658 0.0000
# 3 19.9984 26.9212 49.7391 0.0000 -9.1800 0.0000
# 4 0.0000 0.0000 0.0000 25.8992 0.0000 13.6601
# 5 6.7610 -3.3658 -9.1800 0.0000 25.7782 0.0000
# 6 0.0000 0.0000 0.0000 13.6601 0.0000 32.3046
#
#
#
# Elastic Compliance Matrix: (Units=1/GPa)
#
#
# Indices 1 2 3 4 5 6 
#
# 1 0.019691 -0.001538 -0.008643 0.000000 -0.008443 0.000000
# 2 -0.001538 0.012845 -0.006368 0.000000 -0.000187 0.000000
# 3 -0.008643 -0.006368 0.029212 0.000000 0.011838 0.000000
# 4 0.000000 0.000000 0.000000 0.049694 0.000000 -0.021013
# 5 -0.008443 -0.000187 0.011838 0.000000 0.045198 0.000000
# 6 0.000000 0.000000 0.000000 -0.021013 0.000000 0.039841
#
#
# Mechanical properties :
#
#
# Convention : Reuss Voigt Hill
#
# Bulk Modulus (GPa) = 34.90573 37.33359 36.11966
# Shear Modulus (GPa) = 20.90930 26.28092 23.59511
#
# Velocity S-wave (km/s) = 3.23279 3.62433 3.43415
# Velocity P-wave (km/s) = 5.60190 6.01453 5.81188
#
# Compressibility (1/GPa) = 0.02864859
#
# Stress axis : x y z
#
# Youngs Moduli (GPa) = 50.78583 77.85195 34.23305
#
# Poissons Ratio (x) = 0.11975 0.29586
# Poissons Ratio (y) = 0.07812 0.21801
# Poissons Ratio (z) = 0.43892 0.49579
#
# Static dielectric constant tensor:
#      x y z
#    x 1.710880 0.000000 -0.000750 
#    y 0.000000 1.775170 0.000000 
#    z -0.000750 0.000000 1.682420 
# 
# From -- ./inp_files/281691.got.cif
#   From: 2010.05.17/outbox.cif.g08.bks.cpg/sg15_141_cif.got.tgz:281691.got - 2010.06.03 18:47:42.
