data_PCOD9289393
_publ_section_title
;
Structure prediction by ZEFSAII (Michael W. Deem and Ramdas Pophale) SiO2 
 PCOD9289393
Probable space group: C 2/C
;
_chemical_formula_sum "Si O2"
_cell_formula_units_Z 60
_cell_length_a 9.642814
_cell_length_b 21.614484
_cell_length_c 19.054427
_cell_angle_alpha 90.000000
_cell_angle_beta 132.546202
_cell_angle_gamma 90.000000
_cell_volume 2925.864946
_symmetry_space_group_name_H-M "C 2/C"
_symmetry_group_IT_number 15
_symmetry_cell_setting 'monoclinic'
loop_
_space_group_symop_operation_xyz
x,y,z
-x,y,1/2-z
-x,-y,-z
x,-y,1/2+z
1/2+x,1/2+y,z
1/2-x,1/2+y,1/2-z
1/2-x,1/2-y,-z
1/2+x,1/2-y,1/2+z
loop_
_atom_site_type_symbol
_atom_site_label
_atom_site_fract_x
_atom_site_fract_y
_atom_site_fract_z
Si Si1 0.500000 0.094100 0.250000
Si Si2 0.470412 0.175267 0.380030
Si Si3 0.127312 0.143465 0.356208
Si Si4 0.891408 0.801123 0.281969
Si Si5 0.826535 0.881451 0.476691
Si Si6 0.776951 0.988205 0.932468
Si Si7 0.634568 0.624168 0.961778
Si Si8 0.521355 0.786027 0.338764
O O1 0.445849 0.136550 0.298716
O O2 0.331065 0.050421 0.164171
O O3 0.335235 0.150137 0.394822
O O4 0.410594 0.245592 0.344523
O O5 0.688770 0.170060 0.475256
O O6 0.114644 0.106318 0.423463
O O7 0.048923 0.212275 0.347694
O O8 0.000000 0.118027 0.250000
O O9 0.671663 0.806793 0.191156
O O10 0.000000 0.781522 0.250000
O O11 0.996307 0.860209 0.350771
O O12 0.697632 0.821049 0.430977
O O13 0.003290 0.870012 0.486108
O O14 0.706604 0.941492 0.412267
O O15 0.771966 0.943795 0.999078
O O16 0.000000 0.000000 0.000000
O O17 0.500000 0.804926 0.250000
#
# Coordination Sequence:
#
# PCOD9289393 Si02
#       8
#     4   8   8   8   8   8   8   8
#     4  10  22  40  64  92 122 164 212 260 298 388
#     4  11  22  39  62  91 125 162 205 251 317 371
#     4  11  24  39  62  93 127 158 209 259 315 369
#     4  12  24  37  63  93 128 164 199 253 317 376
#     4  11  23  41  67  89 125 168 209 261 308 365
#     4   9  22  39  66  89 119 162 219 251 306 361
#     4  10  23  41  60  91 124 161 212 253 303 372
#     4  11  22  40  61  93 127 160 208 254 311 378
#
# _framework density 20.506754999999998
#
# number of rings (size 3 to 8) (size 9 to 14) (size 15 to 20)
#    0.000    1.333    4.667    0.800   10.267    0.000 
#    0.000    3.333    0.000    0.000    0.000    0.000 
#    0.000    0.000    0.000    0.000    0.000    0.000 
#
# Total GULP energy -167410.033864 kJ/mol
# GULP energy per Si atom -5580.334462 kJ/mol
# Density = 2.046008 g / cm^3
# Si number density = 20.506755 Si / 1000 Ang^3
#
#
#
# Elastic Constant Matrix: (Units=GPa)
#
#
# Indices 1 2 3 4 5 6 
#
# 1 86.6659 -9.5844 13.0748 0.0000 13.9340 0.0000
# 2 -9.5844 29.0723 4.8055 0.0000 1.5654 0.0000
# 3 13.0748 4.8055 70.8109 0.0000 11.4228 0.0000
# 4 0.0000 0.0000 0.0000 31.2384 0.0000 3.9788
# 5 13.9340 1.5654 11.4228 0.0000 32.9431 0.0000
# 6 0.0000 0.0000 0.0000 3.9788 0.0000 12.3673
#
#
#
# Elastic Compliance Matrix: (Units=1/GPa)
#
#
# Indices 1 2 3 4 5 6 
#
# 1 0.013207 0.004953 -0.001944 0.000000 -0.005147 0.000000
# 2 0.004953 0.036669 -0.002949 0.000000 -0.002815 0.000000
# 3 -0.001944 -0.002949 0.015387 0.000000 -0.004373 0.000000
# 4 0.000000 0.000000 0.000000 0.033380 0.000000 -0.010739
# 5 -0.005147 -0.002815 -0.004373 0.000000 0.034183 0.000000
# 6 0.000000 0.000000 0.000000 -0.010739 0.000000 0.084314
#
#
# Mechanical properties :
#
#
# Convention : Reuss Voigt Hill
#
# Bulk Modulus (GPa) = 15.29486 22.57120 18.93303
# Shear Modulus (GPa) = 20.93684 27.19330 24.06507
#
# Velocity S-wave (km/s) = 3.19873 3.64547 3.42938
# Velocity P-wave (km/s) = 4.59534 5.36189 4.99335
#
# Compressibility (1/GPa) = 0.06538143
#
# Stress axis : x y z
#
# Youngs Moduli (GPa) = 75.71616 27.27112 64.99145
#
# Poissons Ratio (x) = -0.13506 0.12637
# Poissons Ratio (y) = -0.37500 0.19165
# Poissons Ratio (z) = 0.14722 0.08042
#
# Static dielectric constant tensor:
#      x y z
#    x 1.728340 0.000000 0.014770 
#    y 0.000000 1.795760 0.000000 
#    z 0.014770 0.000000 1.765750 
# 
# From -- ./inp_files/234087.got.cif
#   From: 2010.05.17/outbox.cif.g08.bks.cpg/sg15_118_cif.got.tgz:234087.got - 2010.06.03 18:47:42.
