data_PCOD9289990
_publ_section_title
;
Structure prediction by ZEFSAII (Michael W. Deem and Ramdas Pophale) SiO2 
 PCOD9289990
Probable space group: C 2/C
;
_chemical_formula_sum "Si O2"
_cell_formula_units_Z 40
_cell_length_a 12.905225
_cell_length_b 11.946817
_cell_length_c 10.077561
_cell_angle_alpha 90.000000
_cell_angle_beta 87.917779
_cell_angle_gamma 90.000000
_cell_volume 1552.695790
_symmetry_space_group_name_H-M "C 2/C"
_symmetry_group_IT_number 15
_symmetry_cell_setting 'monoclinic'
loop_
_space_group_symop_operation_xyz
x,y,z
-x,y,1/2-z
-x,-y,-z
x,-y,1/2+z
1/2+x,1/2+y,z
1/2-x,1/2+y,1/2-z
1/2-x,1/2-y,-z
1/2+x,1/2-y,1/2+z
loop_
_atom_site_type_symbol
_atom_site_label
_atom_site_fract_x
_atom_site_fract_y
_atom_site_fract_z
Si Si1 0.462825 0.331515 0.395527
Si Si2 0.858969 0.255019 0.417305
Si Si3 0.226438 0.080931 0.478976
Si Si4 0.071577 0.503302 0.124521
Si Si5 0.850544 0.967865 0.786016
O O1 0.500000 0.286692 0.250000
O O2 0.549090 0.288681 0.491686
O O3 0.349508 0.319593 0.471395
O O4 0.440575 0.463803 0.358708
O O5 0.750000 0.250000 0.500000
O O6 0.880354 0.379132 0.365551
O O7 0.858249 0.164394 0.299845
O O8 0.165655 0.009011 0.367697
O O9 0.336532 0.091029 0.403503
O O10 0.243161 0.009890 0.614097
O O11 0.000000 0.530185 0.250000
O O12 0.000000 0.500000 0.000000
#
# Coordination Sequence:
#
# PCOD9289990 Si02
#       5
#     8   8   8   8   8
#     4  10  24  40  74 109 142 183 235 299 363 416
#     4  12  25  44  71 109 143 186 242 296 358 443
#     4  10  23  45  72 101 145 185 244 296 356 430
#     4  12  29  49  71  99 147 198 238 296 378 427
#     4  10  22  40  72 103 142 180 238 299 351 417
#
# _framework density 25.761647
#
# number of rings (size 3 to 8) (size 9 to 14) (size 15 to 20)
#    1.200    0.000    2.000    3.000    5.600    0.800 
#    0.000    1.000    0.000    0.000    0.000    0.000 
#    0.000    0.000    0.000    0.000    0.000    0.000 
#
# Total GULP energy -111620.052347 kJ/mol
# GULP energy per Si atom -5581.002617 kJ/mol
# Density = 2.570301 g / cm^3
# Si number density = 25.761647 Si / 1000 Ang^3
#
#
#
# Elastic Constant Matrix: (Units=GPa)
#
#
# Indices 1 2 3 4 5 6 
#
# 1 209.4500 38.7575 63.9896 0.0000 -41.9373 0.0000
# 2 38.7575 163.2898 21.7358 0.0000 -13.0473 0.0000
# 3 63.9896 21.7358 174.6599 0.0000 -34.8060 0.0000
# 4 0.0000 0.0000 0.0000 15.1221 0.0000 3.6646
# 5 -41.9373 -13.0473 -34.8060 0.0000 50.7813 0.0000
# 6 0.0000 0.0000 0.0000 3.6646 0.0000 23.5985
#
#
#
# Elastic Compliance Matrix: (Units=1/GPa)
#
#
# Indices 1 2 3 4 5 6 
#
# 1 0.006148 -0.000967 -0.001355 0.000000 0.003900 0.000000
# 2 -0.000967 0.006447 -0.000321 0.000000 0.000638 0.000000
# 3 -0.001355 -0.000321 0.006975 0.000000 0.003579 0.000000
# 4 0.000000 0.000000 0.000000 0.068714 0.000000 -0.010670
# 5 0.003900 0.000638 0.003579 0.000000 0.025531 0.000000
# 6 0.000000 0.000000 0.000000 -0.010670 0.000000 0.044033
#
#
# Mechanical properties :
#
#
# Convention : Reuss Voigt Hill
#
# Bulk Modulus (GPa) = 70.00597 88.48505 79.24551
# Shear Modulus (GPa) = 29.78043 46.09484 37.93764
#
# Velocity S-wave (km/s) = 3.40369 4.23458 3.84166
# Velocity P-wave (km/s) = 6.53301 7.63748 7.10673
#
# Compressibility (1/GPa) = 0.01428450
#
# Stress axis : x y z
#
# Youngs Moduli (GPa) = 162.64686 155.10259 143.36861
#
# Poissons Ratio (x) = 0.15003 0.19425
# Poissons Ratio (y) = 0.15733 0.04600
# Poissons Ratio (z) = 0.22037 0.04977
#
# Static dielectric constant tensor:
#      x y z
#    x 2.187570 0.000000 -0.112590 
#    y 0.000000 2.031560 0.000000 
#    z -0.112590 0.000000 2.017490 
# 
# From -- ./inp_files/85620.got.cif
#   From: 2010.05.17/outbox.cif.g08.bks.cpg/sg15_43_cif.got.tgz:85620.got - 2010.06.03 18:47:42.
