data_PCOD9289076
_publ_section_title
;
Structure prediction by ZEFSAII (Michael W. Deem and Ramdas Pophale) SiO2 
 PCOD9289076
Probable space group: C 2/C
;
_chemical_formula_sum "Si O2"
_cell_formula_units_Z 36
_cell_length_a 8.232925
_cell_length_b 27.361009
_cell_length_c 13.687543
_cell_angle_alpha 90.000000
_cell_angle_beta 35.922754
_cell_angle_gamma 90.000000
_cell_volume 1808.936886
_symmetry_space_group_name_H-M "C 2/C"
_symmetry_group_IT_number 15
_symmetry_cell_setting 'monoclinic'
loop_
_space_group_symop_operation_xyz
x,y,z
-x,y,1/2-z
-x,-y,-z
x,-y,1/2+z
1/2+x,1/2+y,z
1/2-x,1/2+y,1/2-z
1/2-x,1/2-y,-z
1/2+x,1/2-y,1/2+z
loop_
_atom_site_type_symbol
_atom_site_label
_atom_site_fract_x
_atom_site_fract_y
_atom_site_fract_z
Si Si1 0.292292 0.964027 0.989487
Si Si2 0.000000 0.355116 0.250000
Si Si3 0.948696 0.192194 0.993991
Si Si4 0.500000 0.273666 0.250000
Si Si5 0.165950 0.554895 0.799575
Si Si6 0.000000 0.611531 0.250000
O O1 0.494205 0.924258 0.843939
O O2 0.421134 0.016194 0.898362
O O3 0.302345 0.951716 0.099332
O O4 0.973971 0.958263 0.110646
O O5 0.256516 0.319678 0.103391
O O6 0.081844 0.392378 0.297915
O O7 0.986329 0.197076 0.858185
O O8 0.773359 0.239044 0.115232
O O9 0.761273 0.146132 0.112025
#
# Coordination Sequence:
#
# PCOD9289076 Si02
#       6
#     8   4   8   4   8   4
#     4  10  22  40  60  84 128 171 207 240 300 350
#     4  12  23  36  63 100 120 152 205 260 295 354
#     4  10  23  40  69  90 118 153 203 248 315 368
#     4   9  22  48  67  86 118 162 193 246 324 389
#     4  10  23  39  59  88 127 169 204 251 294 349
#     4  11  21  36  64  92 114 166 206 246 291 367
#
# _framework density 19.901192000000002
#
# number of rings (size 3 to 8) (size 9 to 14) (size 15 to 20)
#    0.000    1.778    2.222    0.667    6.222    2.667 
#    0.000    0.000    0.000    0.000    0.000    0.000 
#    0.000    0.000    0.000    0.000    0.000    0.000 
#
# Total GULP energy -100394.627167 kJ/mol
# GULP energy per Si atom -5577.479287 kJ/mol
# Density = 1.985590 g / cm^3
# Si number density = 19.901192 Si / 1000 Ang^3
#
#
#
# Elastic Constant Matrix: (Units=GPa)
#
#
# Indices 1 2 3 4 5 6 
#
# 1 58.3534 21.2610 48.7952 0.0000 -19.9123 0.0000
# 2 21.2610 69.1382 55.2457 0.0000 -17.3310 0.0000
# 3 48.7952 55.2457 135.8017 0.0000 -10.2575 0.0000
# 4 0.0000 0.0000 0.0000-1829.7003 0.0000 -837.7461
# 5 -19.9123 -17.3310 -10.2575 0.0000 38.3381 0.0000
# 6 0.0000 0.0000 0.0000 -837.7461 0.0000 -342.1695
#
#
#
# Elastic Compliance Matrix: (Units=1/GPa)
#
#
# Indices 1 2 3 4 5 6 
#
# 1 0.029961 0.003045 -0.010946 0.000000 0.014009 0.000000
# 2 0.003045 0.024088 -0.010157 0.000000 0.009753 0.000000
# 3 -0.010946 -0.010157 0.014954 0.000000 -0.006275 0.000000
# 4 0.000000 0.000000 0.000000 0.004517 0.000000 -0.011059
# 5 0.014009 0.009753 -0.006275 0.000000 0.036090 0.000000
# 6 0.000000 0.000000 0.000000 -0.011059 0.000000 0.024154
#
#
# Mechanical properties :
#
#
# Convention : Reuss Voigt Hill
#
# Bulk Modulus (GPa) = 30.40634 57.09967 43.75300
# Shear Modulus (GPa) = 27.64841 -417.50689 -194.92924
#
# Velocity S-wave (km/s) = 3.73135 -14.49984 -9.90763
# Velocity P-wave (km/s) = 5.82029 15.86106 10.43306
#
# Compressibility (1/GPa) = 0.03288788
#
# Stress axis : x y z
#
# Youngs Moduli (GPa) = 33.37689 41.51435 66.86983
#
# Poissons Ratio (x) = -0.12639 0.73194
# Poissons Ratio (y) = -0.10162 0.67917
# Poissons Ratio (z) = 0.36533 0.42164
#
# Static dielectric constant tensor:
#      x y z
#    x 1.726650 0.000000 -0.007710 
#    y 0.000000 1.696790 0.000000 
#    z -0.007710 0.000000 1.747110 
# 
# From -- ./inp_files/23364.got.cif
#   From: 2010.05.17/outbox.cif.g08.bks.cpg/sg15_12_cif.got.tgz:23364.got - 2010.06.03 18:47:42.
