data_PCOD9289700
_publ_section_title
;
Structure prediction by ZEFSAII (Michael W. Deem and Ramdas Pophale) SiO2 
 PCOD9289700
Probable space group: C 2/C
;
_chemical_formula_sum "Si O2"
_cell_formula_units_Z 44
_cell_length_a 10.555768
_cell_length_b 18.374795
_cell_length_c 11.974998
_cell_angle_alpha 90.000000
_cell_angle_beta 113.015524
_cell_angle_gamma 90.000000
_cell_volume 2137.784405
_symmetry_space_group_name_H-M "C 2/C"
_symmetry_group_IT_number 15
_symmetry_cell_setting 'monoclinic'
loop_
_space_group_symop_operation_xyz
x,y,z
-x,y,1/2-z
-x,-y,-z
x,-y,1/2+z
1/2+x,1/2+y,z
1/2-x,1/2+y,1/2-z
1/2-x,1/2-y,-z
1/2+x,1/2-y,1/2+z
loop_
_atom_site_type_symbol
_atom_site_label
_atom_site_fract_x
_atom_site_fract_y
_atom_site_fract_z
Si Si1 0.355419 0.184232 0.554295
Si Si2 0.000000 0.402956 0.750000
Si Si3 0.356134 0.413182 0.136327
Si Si4 0.249683 0.320450 0.919882
Si Si5 0.859687 0.539389 0.411204
Si Si6 0.165806 0.296711 0.194585
O O1 0.250000 0.250000 0.500000
O O2 0.332912 0.113017 0.471688
O O3 0.345003 0.174328 0.683800
O O4 0.514157 0.205215 0.589368
O O5 0.901185 0.355438 0.637287
O O6 0.894620 0.445940 0.793214
O O7 0.500000 0.419437 0.250000
O O8 0.268717 0.486727 0.112478
O O9 0.265565 0.353508 0.170116
O O10 0.354100 0.379286 0.009704
O O11 0.279821 0.285347 0.808706
O O12 0.250000 0.250000 0.000000
O O13 0.000000 0.500000 0.500000
#
# Coordination Sequence:
#
# PCOD9289700 Si02
#       6
#     8   4   8   8   8   8
#     4  11  24  44  68  98 139 179 229 297 354 418
#     4  12  24  42  76  98 134 184 238 298 348 438
#     4  11  25  43  68 101 142 186 232 295 351 429
#     4  10  22  40  67 103 132 174 232 285 354 414
#     4  12  24  46  70 102 138 187 243 287 359 428
#     4  10  23  40  69 100 134 180 231 287 357 413
#
# _framework density 20.582056999999999
#
# number of rings (size 3 to 8) (size 9 to 14) (size 15 to 20)
#    0.000    1.091    3.636    2.182   10.182    0.000 
#    6.545    1.818    0.000    0.000    0.000    0.000 
#    0.000    0.000    0.000    0.000    0.000    0.000 
#
# Total GULP energy -122715.333623 kJ/mol
# GULP energy per Si atom -5577.969710 kJ/mol
# Density = 2.053521 g / cm^3
# Si number density = 20.582057 Si / 1000 Ang^3
#
#
#
# Elastic Constant Matrix: (Units=GPa)
#
#
# Indices 1 2 3 4 5 6 
#
# 1 86.3073 57.2171 31.7404 0.0000 9.9517 0.0000
# 2 57.2171 127.8293 48.1261 0.0000 8.5793 0.0000
# 3 31.7404 48.1261 82.8285 0.0000 10.7568 0.0000
# 4 0.0000 0.0000 0.0000 26.0939 0.0000 5.0868
# 5 9.9517 8.5793 10.7568 0.0000 55.2066 0.0000
# 6 0.0000 0.0000 0.0000 5.0868 0.0000 38.6411
#
#
#
# Elastic Compliance Matrix: (Units=1/GPa)
#
#
# Indices 1 2 3 4 5 6 
#
# 1 0.017054 -0.006585 -0.002506 0.000000 -0.001563 0.000000
# 2 -0.006585 0.012566 -0.004800 0.000000 0.000169 0.000000
# 3 -0.002506 -0.004800 0.016074 0.000000 -0.001934 0.000000
# 4 0.000000 0.000000 0.000000 0.039332 0.000000 -0.005178
# 5 -0.001563 0.000169 -0.001934 0.000000 0.018746 0.000000
# 6 0.000000 0.000000 0.000000 -0.005178 0.000000 0.026561
#
#
# Mechanical properties :
#
#
# Convention : Reuss Voigt Hill
#
# Bulk Modulus (GPa) = 55.83008 63.45914 59.64461
# Shear Modulus (GPa) = 30.47192 34.64709 32.55950
#
# Velocity S-wave (km/s) = 3.85191 4.10733 3.98167
# Velocity P-wave (km/s) = 6.85328 7.30704 7.08379
#
# Compressibility (1/GPa) = 0.01791149
#
# Stress axis : x y z
#
# Youngs Moduli (GPa) = 58.63783 79.57880 62.21379
#
# Poissons Ratio (x) = 0.52403 0.15591
# Poissons Ratio (y) = 0.38613 0.29862
# Poissons Ratio (z) = 0.14695 0.38197
#
# Static dielectric constant tensor:
#      x y z
#    x 0.764040 0.000000 5.479550 
#    y 0.000000 1.746750 0.000000 
#    z 5.479550 0.000000 -29.465980 
# 
# From -- ./inp_files/143901.got.cif
#   From: 2010.05.17/outbox.cif.g08.bks.cpg/sg15_72_cif.got.tgz:143901.got - 2010.06.03 18:47:42.
