data_PCOD9289026
_publ_section_title
;
Structure prediction by ZEFSAII (Michael W. Deem and Ramdas Pophale) SiO2 
 PCOD9289026
Probable space group: C 2/C
;
_chemical_formula_sum "Si O2"
_cell_formula_units_Z 56
_cell_length_a 14.473175
_cell_length_b 24.214407
_cell_length_c 8.921223
_cell_angle_alpha 90.000000
_cell_angle_beta 82.619903
_cell_angle_gamma 90.000000
_cell_volume 3100.625381
_symmetry_space_group_name_H-M "C 2/C"
_symmetry_group_IT_number 15
_symmetry_cell_setting 'monoclinic'
loop_
_space_group_symop_operation_xyz
x,y,z
-x,y,1/2-z
-x,-y,-z
x,-y,1/2+z
1/2+x,1/2+y,z
1/2-x,1/2+y,1/2-z
1/2-x,1/2-y,-z
1/2+x,1/2-y,1/2+z
loop_
_atom_site_type_symbol
_atom_site_label
_atom_site_fract_x
_atom_site_fract_y
_atom_site_fract_z
Si Si1 0.516055 0.273552 0.075279
Si Si2 0.326489 0.876809 0.562029
Si Si3 0.347934 0.101528 0.407922
Si Si4 0.574819 0.981658 0.103897
Si Si5 0.284824 0.691424 0.920093
Si Si6 0.507047 0.166070 0.924423
Si Si7 0.195212 0.801340 0.437499
O O1 0.500000 0.251589 0.250000
O O2 0.604583 0.313480 0.069895
O O3 0.416841 0.296147 0.041327
O O4 0.548615 0.225114 0.957163
O O5 0.337607 0.882222 0.736764
O O6 0.363768 0.930629 0.466009
O O7 0.401776 0.830861 0.502093
O O8 0.228750 0.855156 0.522144
O O9 0.268348 0.137289 0.507828
O O10 0.439027 0.122428 0.481560
O O11 0.358068 0.035106 0.394437
O O12 0.500000 0.968262 0.250000
O O13 0.500000 0.000000 0.000000
O O14 0.273523 0.694700 0.742857
O O15 0.250000 0.750000 0.000000
O O16 0.500000 0.155104 0.750000
O O17 0.250000 0.750000 0.500000
#
# Coordination Sequence:
#
# PCOD9289026 Si02
#       7
#     8   8   8   8   8   8   8
#     4  10  22  40  57  81 122 161 200 249 300 356
#     4  12  24  38  59  87 126 161 201 250 306 370
#     4  12  24  39  58  88 125 162 199 252 309 364
#     4  12  24  41  63  91 125 163 201 248 310 370
#     4  11  23  38  60  87 121 163 206 251 307 363
#     4  12  22  32  57  86 118 159 202 245 296 365
#     4  11  23  38  60  88 120 162 207 251 305 368
#
# _framework density 18.060872
#
# number of rings (size 3 to 8) (size 9 to 14) (size 15 to 20)
#    0.000    0.571    5.714    3.429    2.000    1.143 
#    0.000    0.000    0.000    0.857    0.000    0.000 
#    0.000    0.000    0.000    0.000    0.000    0.000 
#
# Total GULP energy -156033.601640 kJ/mol
# GULP energy per Si atom -5572.628630 kJ/mol
# Density = 1.801976 g / cm^3
# Si number density = 18.060872 Si / 1000 Ang^3
#
#
#
# Elastic Constant Matrix: (Units=GPa)
#
#
# Indices 1 2 3 4 5 6 
#
# 1 112.7143 51.6716 48.1207 0.0000 14.3630 0.0000
# 2 51.6716 95.4059 45.2686 0.0000 3.7463 0.0000
# 3 48.1207 45.2686 129.6546 0.0000 13.0303 0.0000
# 4 0.0000 0.0000 0.0000 18.2676 0.0000 -7.2612
# 5 14.3630 3.7463 13.0303 0.0000 30.0921 0.0000
# 6 0.0000 0.0000 0.0000 -7.2612 0.0000 29.5546
#
#
#
# Elastic Compliance Matrix: (Units=1/GPa)
#
#
# Indices 1 2 3 4 5 6 
#
# 1 0.013126 -0.005795 -0.002395 0.000000 -0.004506 0.000000
# 2 -0.005795 0.015125 -0.003365 0.000000 0.002340 0.000000
# 3 -0.002395 -0.003365 0.010057 0.000000 -0.002793 0.000000
# 4 0.000000 0.000000 0.000000 0.060666 0.000000 0.014905
# 5 -0.004506 0.002340 -0.002793 0.000000 0.036300 0.000000
# 6 0.000000 0.000000 0.000000 0.014905 0.000000 0.037498
#
#
# Mechanical properties :
#
#
# Convention : Reuss Voigt Hill
#
# Bulk Modulus (GPa) = 65.80409 69.76629 67.78519
# Shear Modulus (GPa) = 24.88196 28.43044 26.65620
#
# Velocity S-wave (km/s) = 3.71573 3.97185 3.84592
# Velocity P-wave (km/s) = 7.41097 7.72958 7.57195
#
# Compressibility (1/GPa) = 0.01519662
#
# Stress axis : x y z
#
# Youngs Moduli (GPa) = 76.18741 66.11519 99.42938
#
# Poissons Ratio (x) = 0.38316 0.23815
# Poissons Ratio (y) = 0.44153 0.33460
# Poissons Ratio (z) = 0.18248 0.22249
#
# Static dielectric constant tensor:
#      x y z
#    x 1.596940 0.000000 -0.011390 
#    y 0.000000 1.656070 0.000000 
#    z -0.011390 0.000000 1.615770 
# 
# From -- ./inp_files/41273.got.cif
#   From: 2010.05.17/outbox.cif.g08.bks.cpg/sg15_21_cif.got.tgz:41273.got - 2010.06.03 18:47:42.
