data_PCOD9289351
_publ_section_title
;
Structure prediction by ZEFSAII (Michael W. Deem and Ramdas Pophale) SiO2 
 PCOD9289351
Probable space group: C 2/C
;
_chemical_formula_sum "Si O2"
_cell_formula_units_Z 60
_cell_length_a 27.847901
_cell_length_b 10.789895
_cell_length_c 8.825526
_cell_angle_alpha 90.000000
_cell_angle_beta 112.739707
_cell_angle_gamma 90.000000
_cell_volume 2445.730317
_symmetry_space_group_name_H-M "C 2/C"
_symmetry_group_IT_number 15
_symmetry_cell_setting 'monoclinic'
loop_
_space_group_symop_operation_xyz
x,y,z
-x,y,1/2-z
-x,-y,-z
x,-y,1/2+z
1/2+x,1/2+y,z
1/2-x,1/2+y,1/2-z
1/2-x,1/2-y,-z
1/2+x,1/2-y,1/2+z
loop_
_atom_site_type_symbol
_atom_site_label
_atom_site_fract_x
_atom_site_fract_y
_atom_site_fract_z
Si Si1 0.890222 0.112258 0.552840
Si Si2 0.946133 0.860498 0.598304
Si Si3 0.000000 0.499593 0.750000
Si Si4 0.895894 0.638413 0.655316
Si Si5 0.930321 0.304056 0.794160
Si Si6 0.255524 0.615479 0.926985
Si Si7 0.821187 0.977329 0.245960
Si Si8 0.651420 0.012652 0.174277
O O1 0.920325 0.238336 0.621594
O O2 0.861123 0.084229 0.677232
O O3 0.930553 0.002524 0.570946
O O4 0.847615 0.091356 0.370019
O O5 0.901338 0.783562 0.633929
O O6 0.947004 0.798116 0.435571
O O7 0.000000 0.846936 0.750000
O O8 0.950364 0.584977 0.656992
O O9 0.975285 0.406437 0.841592
O O10 0.853440 0.564157 0.502324
O O11 0.886626 0.598075 0.815501
O O12 0.875873 0.371489 0.771527
O O13 0.298974 0.615325 0.846366
O O14 0.206577 0.545491 0.788463
O O15 0.250000 0.750000 0.000000
O O16 0.275746 0.527739 0.085074
#
# Coordination Sequence:
#
# PCOD9289351 Si02
#       8
#     8   8   4   8   8   8   8   8
#     4  11  23  45  65  97 138 184 232 280 356 406
#     4  11  24  39  68  96 135 184 230 282 334 418
#     4  10  22  40  64 100 130 174 222 282 352 408
#     4  10  22  40  66  96 137 172 226 280 343 415
#     4  10  24  42  65  94 140 176 228 286 346 422
#     4  11  25  45  74 105 140 181 240 289 359 430
#     4  10  25  44  67  99 136 176 230 292 344 418
#     4  10  23  40  65  98 133 172 220 283 350 411
#
# _framework density 24.532551999999999
#
# number of rings (size 3 to 8) (size 9 to 14) (size 15 to 20)
#    0.000    1.600    2.000    0.800    6.533    7.467 
#    0.000    2.667    0.000    0.000    0.000    0.000 
#    0.000    0.000    0.000    0.000    0.000    0.000 
#
# Total GULP energy -167655.333719 kJ/mol
# GULP energy per Si atom -5588.511124 kJ/mol
# Density = 2.447671 g / cm^3
# Si number density = 24.532552 Si / 1000 Ang^3
#
#
#
# Elastic Constant Matrix: (Units=GPa)
#
#
# Indices 1 2 3 4 5 6 
#
# 1 83.1590 18.0620 45.8266 0.0000 21.4951 0.0000
# 2 18.0620 70.7052 38.2416 0.0000 14.6385 0.0000
# 3 45.8266 38.2416 115.4769 0.0000 17.3932 0.0000
# 4 0.0000 0.0000 0.0000 39.3924 0.0000 -4.7124
# 5 21.4951 14.6385 17.3932 0.0000 46.4504 0.0000
# 6 0.0000 0.0000 0.0000 -4.7124 0.0000 29.9894
#
#
#
# Elastic Compliance Matrix: (Units=1/GPa)
#
#
# Indices 1 2 3 4 5 6 
#
# 1 0.016635 0.000021 -0.005774 0.000000 -0.005543 0.000000
# 2 0.000021 0.017780 -0.005353 0.000000 -0.003609 0.000000
# 3 -0.005774 -0.005353 0.012788 0.000000 -0.000430 0.000000
# 4 0.000000 0.000000 0.000000 0.025872 0.000000 0.004065
# 5 -0.005543 -0.003609 -0.000430 0.000000 0.025391 0.000000
# 6 0.000000 0.000000 0.000000 0.004065 0.000000 0.033984
#
#
# Mechanical properties :
#
#
# Convention : Reuss Voigt Hill
#
# Bulk Modulus (GPa) = 40.01263 52.62239 46.31751
# Shear Modulus (GPa) = 30.67623 34.31385 32.49504
#
# Velocity S-wave (km/s) = 3.53998 3.74399 3.64341
# Velocity P-wave (km/s) = 5.74926 6.33928 6.05147
#
# Compressibility (1/GPa) = 0.02499211
#
# Stress axis : x y z
#
# Youngs Moduli (GPa) = 60.11437 56.24252 78.19606
#
# Poissons Ratio (x) = -0.00116 0.45147
# Poissons Ratio (y) = -0.00124 0.41857
# Poissons Ratio (z) = 0.34707 0.30106
#
# Static dielectric constant tensor:
#      x y z
#    x 2.012710 0.000000 -0.008450 
#    y 0.000000 1.985400 0.000000 
#    z -0.008450 0.000000 1.978140 
# 
# From -- ./inp_files/69427.got.cif
#   From: 2010.05.17/outbox.cif.g08.bks.cpg/sg15_35_cif.got.tgz:69427.got - 2010.06.03 18:47:42.
