data_PCOD9289308
_publ_section_title
;
Structure prediction by ZEFSAII (Michael W. Deem and Ramdas Pophale) SiO2 
 PCOD9289308
Probable space group: C 2/C
;
_chemical_formula_sum "Si O2"
_cell_formula_units_Z 32
_cell_length_a 17.122437
_cell_length_b 10.873166
_cell_length_c 11.146047
_cell_angle_alpha 90.000000
_cell_angle_beta 131.393810
_cell_angle_gamma 90.000000
_cell_volume 1556.716041
_symmetry_space_group_name_H-M "C 2/C"
_symmetry_group_IT_number 15
_symmetry_cell_setting 'monoclinic'
loop_
_space_group_symop_operation_xyz
x,y,z
-x,y,1/2-z
-x,-y,-z
x,-y,1/2+z
1/2+x,1/2+y,z
1/2-x,1/2+y,1/2-z
1/2-x,1/2-y,-z
1/2+x,1/2-y,1/2+z
loop_
_atom_site_type_symbol
_atom_site_label
_atom_site_fract_x
_atom_site_fract_y
_atom_site_fract_z
Si Si1 0.563643 0.374505 0.586235
Si Si2 0.648282 0.697160 0.541354
Si Si3 0.244935 0.564882 0.047165
Si Si4 0.703660 0.798740 0.076587
O O1 0.500000 0.500000 0.500000
O O2 0.474594 0.302089 0.566285
O O3 0.661303 0.413785 0.764652
O O4 0.608891 0.287154 0.526758
O O5 0.697803 0.577955 0.523793
O O6 0.673253 0.816263 0.487440
O O7 0.709212 0.706441 0.729610
O O8 0.185271 0.442028 0.025523
O O9 0.750000 0.750000 0.000000
#
# Coordination Sequence:
#
# PCOD9289308 Si02
#       4
#     8   8   8   8
#     4  11  21  40  68  93 124 166 211 254 315 383
#     4  10  22  40  63  93 124 169 207 260 319 371
#     4  10  22  41  65  90 130 162 209 265 314 376
#     4  11  24  38  64  94 124 167 212 263 315 374
#
# _framework density 20.556092
#
# number of rings (size 3 to 8) (size 9 to 14) (size 15 to 20)
#    0.000    1.500    2.500    2.250    3.500    2.000 
#    0.000    0.000   16.500    0.000    0.000    0.000 
#    0.000    0.000    0.000    0.000    0.000    0.000 
#
# Total GULP energy -89193.290479 kJ/mol
# GULP energy per Si atom -5574.580655 kJ/mol
# Density = 2.050931 g / cm^3
# Si number density = 20.556092 Si / 1000 Ang^3
#
#
#
# Elastic Constant Matrix: (Units=GPa)
#
#
# Indices 1 2 3 4 5 6 
#
# 1 172.0612 78.0798 30.8353 0.0000 2.8548 0.0000
# 2 78.0798 130.4593 21.4946 0.0000 10.3740 0.0000
# 3 30.8353 21.4946 23.4734 0.0000 -7.3377 0.0000
# 4 0.0000 0.0000 0.0000 27.5189 0.0000 4.7668
# 5 2.8548 10.3740 -7.3377 0.0000 39.2402 0.0000
# 6 0.0000 0.0000 0.0000 4.7668 0.0000 47.5937
#
#
#
# Elastic Compliance Matrix: (Units=1/GPa)
#
#
# Indices 1 2 3 4 5 6 
#
# 1 0.009220 -0.003950 -0.008899 0.000000 -0.001291 0.000000
# 2 -0.003950 0.011413 -0.006496 0.000000 -0.003945 0.000000
# 3 -0.008899 -0.006496 0.064764 0.000000 0.014475 0.000000
# 4 0.000000 0.000000 0.000000 0.036980 0.000000 -0.003704
# 5 -0.001291 -0.003945 0.014475 0.000000 0.029328 0.000000
# 6 0.000000 0.000000 0.000000 -0.003704 0.000000 0.021382
#
#
# Mechanical properties :
#
#
# Convention : Reuss Voigt Hill
#
# Bulk Modulus (GPa) = 21.40908 65.20148 43.30528
# Shear Modulus (GPa) = 21.99297 35.90952 28.95125
#
# Velocity S-wave (km/s) = 3.27448 4.18413 3.75694
# Velocity P-wave (km/s) = 4.97332 7.42498 6.31918
#
# Compressibility (1/GPa) = 0.04670916
#
# Stress axis : x y z
#
# Youngs Moduli (GPa) = 108.45574 87.62008 15.44064
#
# Poissons Ratio (x) = 0.34606 0.13741
# Poissons Ratio (y) = 0.42835 0.10030
# Poissons Ratio (z) = 0.96514 0.56915
#
# Static dielectric constant tensor:
#      x y z
#    x 1.841940 0.000000 0.013990 
#    y 0.000000 1.831910 0.000000 
#    z 0.013990 0.000000 1.735230 
# 
# From -- ./inp_files/93951.got.cif
#   From: 2010.05.17/outbox.cif.g08.bks.cpg/sg15_47_cif.got.tgz:93951.got - 2010.06.03 18:47:42.
