data_PCOD9289249
_publ_section_title
;
Structure prediction by ZEFSAII (Michael W. Deem and Ramdas Pophale) SiO2 
 PCOD9289249
Probable space group: C 2/C
;
_chemical_formula_sum "Si O2"
_cell_formula_units_Z 44
_cell_length_a 5.186733
_cell_length_b 18.733424
_cell_length_c 18.459451
_cell_angle_alpha 90.000000
_cell_angle_beta 98.948953
_cell_angle_gamma 90.000000
_cell_volume 1771.784384
_symmetry_space_group_name_H-M "C 2/C"
_symmetry_group_IT_number 15
_symmetry_cell_setting 'monoclinic'
loop_
_space_group_symop_operation_xyz
x,y,z
-x,y,1/2-z
-x,-y,-z
x,-y,1/2+z
1/2+x,1/2+y,z
1/2-x,1/2+y,1/2-z
1/2-x,1/2-y,-z
1/2+x,1/2-y,1/2+z
loop_
_atom_site_type_symbol
_atom_site_label
_atom_site_fract_x
_atom_site_fract_y
_atom_site_fract_z
Si Si1 0.000000 0.156807 0.250000
Si Si2 0.773620 0.642610 0.040842
Si Si3 0.268748 0.825326 0.040619
Si Si4 0.181185 0.266018 0.147339
Si Si5 0.579819 0.057696 0.168830
Si Si6 0.737024 0.912546 0.203368
O O1 0.181568 0.209749 0.211917
O O2 0.170200 0.110407 0.314116
O O3 0.770082 0.720766 0.081143
O O4 0.856010 0.589639 0.108646
O O5 0.498249 0.634672 0.988310
O O6 0.997658 0.636122 0.991176
O O7 0.389023 0.799088 0.121890
O O8 0.250000 0.750000 0.000000
O O9 0.327427 0.338691 0.171294
O O10 0.500000 0.053414 0.250000
O O11 0.641586 0.976988 0.148463
O O12 0.500000 0.899241 0.250000
O O13 0.000000 0.943387 0.250000
#
# Coordination Sequence:
#
# PCOD9289249 Si02
#       6
#     4   8   8   8   8   8
#     4  12  22  40  66  98 124 168 220 262 316 386
#     4  11  23  40  67  92 126 168 219 253 312 380
#     4  10  22  40  62  94 130 165 206 269 312 369
#     4  11  23  41  67  99 129 166 216 266 321 374
#     4  11  23  41  63  93 127 172 211 265 317 382
#     4  11  26  42  61  94 138 165 203 268 332 369
#
# _framework density 24.833721000000001
#
# number of rings (size 3 to 8) (size 9 to 14) (size 15 to 20)
#    0.000    1.091    3.636    4.364    2.545    4.364 
#    0.000    1.818    0.000    0.000    0.000    1.273 
#    0.000    0.000    0.000    0.000    0.000    0.000 
#
# Total GULP energy -122928.397254 kJ/mol
# GULP energy per Si atom -5587.654421 kJ/mol
# Density = 2.477720 g / cm^3
# Si number density = 24.833721 Si / 1000 Ang^3
#
#
#
# Elastic Constant Matrix: (Units=GPa)
#
#
# Indices 1 2 3 4 5 6 
#
# 1 138.4637 17.1849 20.8215 0.0000 8.0467 0.0000
# 2 17.1849 132.4373 30.6738 0.0000 -2.1732 0.0000
# 3 20.8215 30.6738 59.2111 0.0000 8.0409 0.0000
# 4 0.0000 0.0000 0.0000 20.0838 0.0000 15.8019
# 5 8.0467 -2.1732 8.0409 0.0000 34.1248 0.0000
# 6 0.0000 0.0000 0.0000 15.8019 0.0000 20.2551
#
#
#
# Elastic Compliance Matrix: (Units=1/GPa)
#
#
# Indices 1 2 3 4 5 6 
#
# 1 0.007702 -0.000494 -0.002274 0.000000 -0.001312 0.000000
# 2 -0.000494 0.008702 -0.004572 0.000000 0.001748 0.000000
# 3 -0.002274 -0.004572 0.020685 0.000000 -0.004629 0.000000
# 4 0.000000 0.000000 0.000000 0.128933 0.000000 -0.100587
# 5 -0.001312 0.001748 -0.004629 0.000000 0.030816 0.000000
# 6 0.000000 0.000000 0.000000 -0.100587 0.000000 0.127843
#
#
# Mechanical properties :
#
#
# Convention : Reuss Voigt Hill
#
# Bulk Modulus (GPa) = 44.62439 51.94136 48.28287
# Shear Modulus (GPa) = 14.41625 32.32153 23.36889
#
# Velocity S-wave (km/s) = 2.41199 3.61157 3.07092
# Velocity P-wave (km/s) = 5.07595 6.19292 5.66205
#
# Compressibility (1/GPa) = 0.02240927
#
# Stress axis : x y z
#
# Youngs Moduli (GPa) = 129.84244 114.91043 48.34313
#
# Poissons Ratio (x) = 0.05678 0.10994
# Poissons Ratio (y) = 0.06416 0.22102
# Poissons Ratio (z) = 0.29528 0.52535
#
# Static dielectric constant tensor:
#      x y z
#    x 2.137600 0.000000 -0.020910 
#    y 0.000000 1.983930 0.000000 
#    z -0.020910 0.000000 2.066950 
# 
# From -- ./inp_files/227018.got.cif
#   From: 2010.05.17/outbox.cif.g08.bks.cpg/sg15_114_cif.got.tgz:227018.got - 2010.06.03 18:47:42.
