data_PCOD9289722
_publ_section_title
;
Structure prediction by ZEFSAII (Michael W. Deem and Ramdas Pophale) SiO2 
 PCOD9289722
Probable space group: C 2/C
;
_chemical_formula_sum "Si O2"
_cell_formula_units_Z 56
_cell_length_a 23.171417
_cell_length_b 15.210717
_cell_length_c 8.590105
_cell_angle_alpha 90.000000
_cell_angle_beta 122.649452
_cell_angle_gamma 90.000000
_cell_volume 2549.213290
_symmetry_space_group_name_H-M "C 2/C"
_symmetry_group_IT_number 15
_symmetry_cell_setting 'monoclinic'
loop_
_space_group_symop_operation_xyz
x,y,z
-x,y,1/2-z
-x,-y,-z
x,-y,1/2+z
1/2+x,1/2+y,z
1/2-x,1/2+y,1/2-z
1/2-x,1/2-y,-z
1/2+x,1/2-y,1/2+z
loop_
_atom_site_type_symbol
_atom_site_label
_atom_site_fract_x
_atom_site_fract_y
_atom_site_fract_z
Si Si1 0.653885 0.406108 0.032534
Si Si2 0.073226 0.012368 0.690500
Si Si3 0.795555 0.539257 0.579803
Si Si4 0.678005 0.223764 0.970375
Si Si5 0.881887 0.558767 0.011218
Si Si6 0.000000 0.581784 0.750000
Si Si7 0.448311 0.794392 0.445039
Si Si8 0.000000 0.155016 0.750000
O O1 0.596048 0.427088 0.818949
O O2 0.661967 0.301274 0.068525
O O3 0.630178 0.456844 0.151029
O O4 0.722983 0.445539 0.055879
O O5 0.062617 0.090554 0.799657
O O6 0.000000 0.000000 0.500000
O O7 0.810470 0.620167 0.480687
O O8 0.815218 0.449541 0.522943
O O9 0.852014 0.546290 0.796293
O O10 0.617786 0.229998 0.754894
O O11 0.750000 0.250000 0.000000
O O12 0.935831 0.483151 0.133455
O O13 0.921759 0.649720 0.055195
O O14 0.991687 0.643502 0.890462
O O15 0.486103 0.712445 0.576359
#
# Coordination Sequence:
#
# PCOD9289722 Si02
#       8
#     8   8   8   8   8   4   8   4
#     4  11  23  42  69  92 127 167 214 265 326 377
#     4  12  24  44  66  95 126 165 215 268 321 385
#     4  10  22  40  67  94 129 168 216 258 318 388
#     4   9  20  41  66  91 125 167 211 261 315 385
#     4  11  21  41  62  96 131 169 216 257 317 384
#     4  12  23  40  65  92 128 182 212 261 324 383
#     4  11  25  40  63  96 134 168 215 266 321 377
#     4  12  27  42  63 100 130 164 212 271 320 377
#
# _framework density 21.967562999999998
#
# number of rings (size 3 to 8) (size 9 to 14) (size 15 to 20)
#    0.000    1.143    4.286    2.571    4.000    0.000 
#    0.000    0.000    0.000    3.429    0.000    0.000 
#    0.000    0.000    0.000    0.000    0.000    0.000 
#
# Total GULP energy -156236.238509 kJ/mol
# GULP energy per Si atom -5579.865661 kJ/mol
# Density = 2.191756 g / cm^3
# Si number density = 21.967563 Si / 1000 Ang^3
#
#
#
# Elastic Constant Matrix: (Units=GPa)
#
#
# Indices 1 2 3 4 5 6 
#
# 1 97.0921 33.7314 -0.0539 0.0000 -3.5734 0.0000
# 2 33.7314 62.6398 -9.2933 0.0000 -10.1088 0.0000
# 3 -0.0539 -9.2933 26.3868 0.0000 6.8616 0.0000
# 4 0.0000 0.0000 0.0000 31.4778 0.0000 -8.6733
# 5 -3.5734 -10.1088 6.8616 0.0000 32.9223 0.0000
# 6 0.0000 0.0000 0.0000 -8.6733 0.0000 28.6385
#
#
#
# Elastic Compliance Matrix: (Units=1/GPa)
#
#
# Indices 1 2 3 4 5 6 
#
# 1 0.012833 -0.007332 -0.002466 0.000000 -0.000344 0.000000
# 2 -0.007332 0.021590 0.006420 0.000000 0.004495 0.000000
# 3 -0.002466 0.006420 0.041986 0.000000 -0.007047 0.000000
# 4 0.000000 0.000000 0.000000 0.034661 0.000000 0.010497
# 5 -0.000344 0.004495 -0.007047 0.000000 0.033186 0.000000
# 6 0.000000 0.000000 0.000000 0.010497 0.000000 0.038097
#
#
# Mechanical properties :
#
#
# Convention : Reuss Voigt Hill
#
# Bulk Modulus (GPa) = 14.35690 26.09856 20.22773
# Shear Modulus (GPa) = 23.54849 29.39002 26.46926
#
# Velocity S-wave (km/s) = 3.27764 3.66168 3.47497
# Velocity P-wave (km/s) = 4.56876 5.45742 5.03275
#
# Compressibility (1/GPa) = 0.06965292
#
# Stress axis : x y z
#
# Youngs Moduli (GPa) = 77.92610 46.31672 23.81728
#
# Poissons Ratio (x) = 0.33959 0.05875
# Poissons Ratio (y) = 0.57134 -0.15291
# Poissons Ratio (z) = 0.19220 -0.29736
#
# Static dielectric constant tensor:
#      x y z
#    x 1.783780 0.000000 0.078680 
#    y 0.000000 1.836510 0.000000 
#    z 0.078680 0.000000 1.642850 
# 
# From -- ./inp_files/61506.got.cif
#   From: 2010.05.17/outbox.cif.g08.bks.cpg/sg15_31_cif.got.tgz:61506.got - 2010.06.03 18:47:42.
