data_PCOD9289415
_publ_section_title
;
Structure prediction by ZEFSAII (Michael W. Deem and Ramdas Pophale) SiO2 
 PCOD9289415
Probable space group: C 2/C
;
_chemical_formula_sum "Si O2"
_cell_formula_units_Z 60
_cell_length_a 11.560008
_cell_length_b 15.780797
_cell_length_c 16.615097
_cell_angle_alpha 90.000000
_cell_angle_beta 75.306938
_cell_angle_gamma 90.000000
_cell_volume 2931.908762
_symmetry_space_group_name_H-M "C 2/C"
_symmetry_group_IT_number 15
_symmetry_cell_setting 'monoclinic'
loop_
_space_group_symop_operation_xyz
x,y,z
-x,y,1/2-z
-x,-y,-z
x,-y,1/2+z
1/2+x,1/2+y,z
1/2-x,1/2+y,1/2-z
1/2-x,1/2-y,-z
1/2+x,1/2-y,1/2+z
loop_
_atom_site_type_symbol
_atom_site_label
_atom_site_fract_x
_atom_site_fract_y
_atom_site_fract_z
Si Si1 0.066666 0.783972 0.524045
Si Si2 0.744431 0.321281 0.763827
Si Si3 0.954328 0.125580 0.900816
Si Si4 0.779819 0.452156 0.125803
Si Si5 0.500000 0.241190 0.250000
Si Si6 0.564438 0.178035 0.821920
Si Si7 0.105189 0.019788 0.294069
Si Si8 0.217768 0.363058 0.926742
O O1 0.977355 0.836178 0.484129
O O2 0.114258 0.702851 0.466133
O O3 0.177532 0.843703 0.528273
O O4 0.015497 0.743697 0.614102
O O5 0.686166 0.229843 0.785642
O O6 0.668125 0.396677 0.817811
O O7 0.737889 0.340690 0.670370
O O8 0.881397 0.315353 0.765760
O O9 0.990101 0.196643 0.828553
O O10 0.817607 0.099286 0.908919
O O11 0.040462 0.044981 0.866181
O O12 0.896462 0.400757 0.130826
O O13 0.705775 0.473821 0.221273
O O14 0.811930 0.538345 0.074006
O O15 0.500000 0.155445 0.750000
O O16 0.000000 0.045769 0.250000
#
# Coordination Sequence:
#
# PCOD9289415 Si02
#       8
#     8   8   8   8   4   8   8   8
#     4  11  25  40  70  95 132 177 219 274 335 393
#     4  11  21  40  69  96 126 174 224 273 323 400
#     4  11  20  40  65  96 129 174 220 271 335 390
#     4  10  22  40  64  93 134 168 216 275 330 386
#     4  12  20  40  68  96 134 174 216 270 340 400
#     4  12  24  42  68  99 131 176 230 276 330 395
#     4   9  19  37  66  92 125 170 219 271 322 388
#     4  10  23  44  63  94 131 174 215 273 334 399
#
# _framework density 20.464483999999999
#
# number of rings (size 3 to 8) (size 9 to 14) (size 15 to 20)
#    0.000    1.333    6.000    0.400    3.733    1.600 
#    4.800    0.000    0.000    0.000    0.000    0.000 
#    0.000    0.000    0.000    0.000    0.000    0.000 
#
# Total GULP energy -167578.896183 kJ/mol
# GULP energy per Si atom -5585.963206 kJ/mol
# Density = 2.041791 g / cm^3
# Si number density = 20.464484 Si / 1000 Ang^3
#
#
#
# Elastic Constant Matrix: (Units=GPa)
#
#
# Indices 1 2 3 4 5 6 
#
# 1 73.0977 62.5214 21.1754 0.0000 22.1803 0.0000
# 2 62.5214 119.3871 32.7390 0.0000 30.3678 0.0000
# 3 21.1754 32.7390 51.8732 0.0000 15.1208 0.0000
# 4 0.0000 0.0000 0.0000 18.4419 0.0000 5.2639
# 5 22.1803 30.3678 15.1208 0.0000 20.7934 0.0000
# 6 0.0000 0.0000 0.0000 5.2639 0.0000 -12.0397
#
#
#
# Elastic Compliance Matrix: (Units=1/GPa)
#
#
# Indices 1 2 3 4 5 6 
#
# 1 0.026791 -0.010683 -0.000522 0.000000 -0.012596 0.000000
# 2 -0.010683 0.018099 -0.003399 0.000000 -0.012566 0.000000
# 3 -0.000522 -0.003399 0.025414 0.000000 -0.012959 0.000000
# 4 0.000000 0.000000 0.000000 0.048208 0.000000 0.021077
# 5 -0.012596 -0.012566 -0.012959 0.000000 0.089304 0.000000
# 6 0.000000 0.000000 0.000000 0.021077 0.000000 -0.073844
#
#
# Mechanical properties :
#
#
# Convention : Reuss Voigt Hill
#
# Bulk Modulus (GPa) = 24.33390 53.02550 38.67970
# Shear Modulus (GPa) = 28.26792 13.96728 21.11760
#
# Velocity S-wave (km/s) = 3.72064 2.61533 3.21583
# Velocity P-wave (km/s) = 5.51127 5.92344 5.72107
#
# Compressibility (1/GPa) = 0.04109493
#
# Stress axis : x y z
#
# Youngs Moduli (GPa) = 37.32624 55.25210 39.34846
#
# Poissons Ratio (x) = 0.59024 0.02056
# Poissons Ratio (y) = 0.39874 0.13375
# Poissons Ratio (z) = 0.01950 0.18781
#
# Static dielectric constant tensor:
#      x y z
#    x 1.722120 0.000000 -0.027790 
#    y 0.000000 1.762080 0.000000 
#    z -0.027790 0.000000 1.721490 
# 
# From -- ./inp_files/197892.got.cif
#   From: 2010.05.17/outbox.cif.g08.bks.cpg/sg15_99_cif.got.tgz:197892.got - 2010.06.03 18:47:42.
