data_PCOD9289235
_publ_section_title
;
Structure prediction by ZEFSAII (Michael W. Deem and Ramdas Pophale) SiO2 
 PCOD9289235
Probable space group: C 2/C
;
_chemical_formula_sum "Si O2"
_cell_formula_units_Z 36
_cell_length_a 27.985523
_cell_length_b 6.140997
_cell_length_c 21.007943
_cell_angle_alpha 90.000000
_cell_angle_beta 150.142653
_cell_angle_gamma 90.000000
_cell_volume 1797.411834
_symmetry_space_group_name_H-M "C 2/C"
_symmetry_group_IT_number 15
_symmetry_cell_setting 'monoclinic'
loop_
_space_group_symop_operation_xyz
x,y,z
-x,y,1/2-z
-x,-y,-z
x,-y,1/2+z
1/2+x,1/2+y,z
1/2-x,1/2+y,1/2-z
1/2-x,1/2-y,-z
1/2+x,1/2-y,1/2+z
loop_
_atom_site_type_symbol
_atom_site_label
_atom_site_fract_x
_atom_site_fract_y
_atom_site_fract_z
Si Si1 0.898717 0.213986 0.548652
Si Si2 0.407536 0.449062 0.435923
Si Si3 0.215021 0.400599 0.646124
Si Si4 0.183366 0.174842 0.480317
Si Si5 0.500000 0.022478 0.750000
O O1 0.823022 0.375913 0.428248
O O2 0.986158 0.359911 0.674749
O O3 0.930712 0.045341 0.532116
O O4 0.849429 0.075353 0.548465
O O5 0.500000 0.500000 0.500000
O O6 0.314065 0.565605 0.297464
O O7 0.367267 0.205495 0.403751
O O8 0.227796 0.241742 0.600131
O O9 0.250000 0.250000 0.500000
O O10 0.089918 0.320679 0.359970
#
# Coordination Sequence:
#
# PCOD9289235 Si02
#       5
#     8   8   8   8   4
#     4  10  22  41  63  91 137 167 219 281 322 407
#     4  11  23  40  65  94 130 180 221 274 339 393
#     4  10  22  41  61  93 135 171 225 279 324 405
#     4  10  23  40  65  94 129 175 219 277 334 397
#     4  10  22  40  62  92 130 170 220 266 330 392
#
# _framework density 20.028797000000001
#
# number of rings (size 3 to 8) (size 9 to 14) (size 15 to 20)
#    0.000    1.778    2.222    0.667    0.000   13.333 
#    0.000    0.000    0.000    0.000    0.000    0.000 
#    0.000    0.000    0.000    0.000    0.000    0.000 
#
# Total GULP energy -100330.081919 kJ/mol
# GULP energy per Si atom -5573.893440 kJ/mol
# Density = 1.998321 g / cm^3
# Si number density = 20.028797 Si / 1000 Ang^3
#
#
#
# Elastic Constant Matrix: (Units=GPa)
#
#
# Indices 1 2 3 4 5 6 
#
# 1 111.1387 36.3438 30.2143 -0.0001 15.1697 0.0000
# 2 36.3438 102.8085 40.7990 0.0007 9.2811 0.0000
# 3 30.2143 40.7990 103.4421 0.0003 -10.3198 0.0000
# 4 -0.0001 0.0007 0.0003 36.7506 0.0001 -9.4700
# 5 15.1697 9.2811 -10.3198 0.0001 22.4633 0.0000
# 6 0.0000 0.0000 0.0000 -9.4700 0.0000 21.8542
#
#
#
# Elastic Compliance Matrix: (Units=1/GPa)
#
#
# Indices 1 2 3 4 5 6 
#
# 1 0.011807 -0.001973 -0.003547 0.000000 -0.008788 0.000000
# 2 -0.001973 0.013085 -0.005231 0.000000 -0.006477 0.000000
# 3 -0.003547 -0.005231 0.013856 0.000000 0.010922 0.000000
# 4 0.000000 0.000000 0.000000 0.030631 0.000000 0.013273
# 5 -0.008788 -0.006477 0.010922 0.000000 0.058145 0.000000
# 6 0.000000 0.000000 0.000000 0.013273 0.000000 0.051509
#
#
# Mechanical properties :
#
#
# Convention : Reuss Voigt Hill
#
# Bulk Modulus (GPa) = 57.98435 59.12261 58.55348
# Shear Modulus (GPa) = 24.23856 30.21577 27.22716
#
# Velocity S-wave (km/s) = 3.48255 3.88830 3.69101
# Velocity P-wave (km/s) = 6.72192 7.05276 6.88933
#
# Compressibility (1/GPa) = 0.01724603
#
# Stress axis : x y z
#
# Youngs Moduli (GPa) = 84.69761 76.42512 72.17060
#
# Poissons Ratio (x) = 0.15077 0.25601
# Poissons Ratio (y) = 0.16709 0.37750
# Poissons Ratio (z) = 0.30044 0.39976
#
# Static dielectric constant tensor:
#      x y z
#    x 1.782870 0.000000 0.179760 
#    y 0.000000 1.781410 0.000000 
#    z 0.179760 0.000000 2.263080 
# 
# From -- ./inp_files/115571.got.cif
#   From: 2010.05.17/outbox.cif.g08.bks.cpg/sg15_58_cif.got.tgz:115571.got - 2010.06.03 18:47:42.
