data_PCOD9289738
_publ_section_title
;
Structure prediction by ZEFSAII (Michael W. Deem and Ramdas Pophale) SiO2 
 PCOD9289738
Probable space group: C 2/C
;
_chemical_formula_sum "Si O2"
_cell_formula_units_Z 48
_cell_length_a 18.529017
_cell_length_b 20.866825
_cell_length_c 10.377948
_cell_angle_alpha 90.000000
_cell_angle_beta 34.451805
_cell_angle_gamma 90.000000
_cell_volume 2269.949835
_symmetry_space_group_name_H-M "C 2/C"
_symmetry_group_IT_number 15
_symmetry_cell_setting 'monoclinic'
loop_
_space_group_symop_operation_xyz
x,y,z
-x,y,1/2-z
-x,-y,-z
x,-y,1/2+z
1/2+x,1/2+y,z
1/2-x,1/2+y,1/2-z
1/2-x,1/2-y,-z
1/2+x,1/2-y,1/2+z
loop_
_atom_site_type_symbol
_atom_site_label
_atom_site_fract_x
_atom_site_fract_y
_atom_site_fract_z
Si Si1 0.149015 0.923423 0.070776
Si Si2 0.483630 0.253272 0.490422
Si Si3 0.249314 0.208238 0.311686
Si Si4 0.819974 0.935617 0.954874
Si Si5 0.056311 0.892188 0.477381
Si Si6 0.626941 0.161966 0.626727
O O1 0.145036 0.912223 0.229562
O O2 0.000000 0.923183 0.250000
O O3 0.217086 0.863659 0.904398
O O4 0.206871 0.992958 0.956868
O O5 0.635594 0.234916 0.267538
O O6 0.387695 0.256666 0.508582
O O7 0.490828 0.325217 0.536946
O O8 0.416680 0.205724 0.690040
O O9 0.306336 0.204105 0.082799
O O10 0.711484 0.897230 0.044328
O O11 0.863919 0.891267 0.009172
O O12 0.940981 0.940313 0.680358
O O13 0.500000 0.135287 0.750000
#
# Coordination Sequence:
#
# PCOD9289738 Si02
#       6
#     8   8   8   8   8   8
#     4  12  23  42  62  95 132 174 210 265 324 389
#     4  11  22  40  66  98 130 162 222 264 331 380
#     4  11  24  39  68  95 135 169 213 272 329 383
#     4  11  23  38  68  96 127 165 222 270 310 379
#     4  11  23  36  67  99 122 162 218 269 321 370
#     4  10  22  40  67  97 126 171 213 271 321 381
#
# _framework density 21.145841999999998
#
# number of rings (size 3 to 8) (size 9 to 14) (size 15 to 20)
#    0.000    1.000    5.000    2.000    9.333    0.667 
#    0.000    3.333    3.667    0.000    0.000    0.000 
#    0.000    0.000    0.000    0.000    0.000    0.000 
#
# Total GULP energy -134052.727826 kJ/mol
# GULP energy per Si atom -5585.530326 kJ/mol
# Density = 2.109771 g / cm^3
# Si number density = 21.145842 Si / 1000 Ang^3
#
#
#
# Elastic Constant Matrix: (Units=GPa)
#
#
# Indices 1 2 3 4 5 6 
#
# 1 121.6228 27.8635 43.3426 0.0001 -37.7011 0.0000
# 2 27.8635 61.0708 7.5486 0.0002 -16.5002 -0.0001
# 3 43.3426 7.5486 69.6413 0.0005 -16.7169 -0.0002
# 4 0.0001 0.0002 0.0005 29.1141 -0.0002 -0.6659
# 5 -37.7011 -16.5002 -16.7169 -0.0002 40.3708 0.0000
# 6 0.0000 -0.0001 -0.0002 -0.6659 0.0000 3.3981
#
#
#
# Elastic Compliance Matrix: (Units=1/GPa)
#
#
# Indices 1 2 3 4 5 6 
#
# 1 0.013997 -0.003128 -0.006153 0.000000 0.009245 0.000000
# 2 -0.003128 0.019109 0.001165 0.000000 0.005371 0.000001
# 3 -0.006153 0.001165 0.018651 0.000000 0.002453 0.000001
# 4 0.000000 0.000000 0.000000 0.034502 0.000000 0.006762
# 5 0.009245 0.005371 0.002453 0.000000 0.036616 0.000000
# 6 0.000000 0.000001 0.000001 0.006762 0.000000 0.295607
#
#
# Mechanical properties :
#
#
# Convention : Reuss Voigt Hill
#
# Bulk Modulus (GPa) = 28.14909 45.53827 36.84368
# Shear Modulus (GPa) = 11.19679 26.14863 18.67271
#
# Velocity S-wave (km/s) = 2.30359 3.52033 2.97483
# Velocity P-wave (km/s) = 4.51842 6.17298 5.40934
#
# Compressibility (1/GPa) = 0.03552512
#
# Stress axis : x y z
#
# Youngs Moduli (GPa) = 71.44139 52.33195 53.61509
#
# Poissons Ratio (x) = 0.16368 0.32991
# Poissons Ratio (y) = 0.22346 -0.06245
# Poissons Ratio (z) = 0.43960 -0.06095
#
# Static dielectric constant tensor:
#      x y z
#    x 1.811870 0.000000 -0.003590 
#    y 0.000000 1.731860 0.000000 
#    z -0.003590 0.000000 1.797210 
# 
# From -- ./inp_files/114195.got.cif
#   From: 2010.05.17/outbox.cif.g08.bks.cpg/sg15_58_cif.got.tgz:114195.got - 2010.06.03 18:47:42.
