data_PCOD9289683
_publ_section_title
;
Structure prediction by ZEFSAII (Michael W. Deem and Ramdas Pophale) SiO2 
 PCOD9289683
Probable space group: C 2/C
;
_chemical_formula_sum "Si O2"
_cell_formula_units_Z 56
_cell_length_a 18.737930
_cell_length_b 8.615412
_cell_length_c 14.542470
_cell_angle_alpha 90.000000
_cell_angle_beta 87.706355
_cell_angle_gamma 90.000000
_cell_volume 2345.782602
_symmetry_space_group_name_H-M "C 2/C"
_symmetry_group_IT_number 15
_symmetry_cell_setting 'monoclinic'
loop_
_space_group_symop_operation_xyz
x,y,z
-x,y,1/2-z
-x,-y,-z
x,-y,1/2+z
1/2+x,1/2+y,z
1/2-x,1/2+y,1/2-z
1/2-x,1/2-y,-z
1/2+x,1/2-y,1/2+z
loop_
_atom_site_type_symbol
_atom_site_label
_atom_site_fract_x
_atom_site_fract_y
_atom_site_fract_z
Si Si1 0.722206 0.592965 0.454477
Si Si2 0.953883 0.779409 0.335841
Si Si3 0.084466 0.000317 0.517380
Si Si4 0.786553 0.432328 0.619421
Si Si5 0.429277 0.160741 0.024681
Si Si6 0.278209 0.878499 0.296895
Si Si7 0.934751 0.438300 0.321068
O O1 0.750000 0.750000 0.500000
O O2 0.636528 0.596075 0.447960
O O3 0.741596 0.464185 0.530346
O O4 0.757865 0.527106 0.361218
O O5 0.908074 0.912159 0.385848
O O6 0.916339 0.621144 0.305577
O O7 0.000000 0.844774 0.250000
O O8 0.009162 0.713322 0.408913
O O9 0.105539 0.822594 0.506337
O O10 0.000000 0.000000 0.500000
O O11 0.868985 0.434801 0.581541
O O12 0.767553 0.267562 0.666575
O O13 0.769472 0.567562 0.692859
O O14 0.453985 0.086132 0.927422
O O15 0.362361 0.846158 0.305840
O O16 0.000000 0.399827 0.250000
#
# Coordination Sequence:
#
# PCOD9289683 Si02
#       7
#     8   8   8   8   8   8   8
#     4  12  24  45  73 101 140 186 238 292 356 428
#     4  10  22  40  66  98 139 180 234 290 351 424
#     4  10  23  43  65  96 138 184 230 283 356 422
#     4  12  25  45  72 100 141 183 234 293 353 422
#     4  11  22  44  70  97 141 189 223 297 354 420
#     4  12  25  45  69 102 139 184 236 291 357 423
#     4  11  23  43  67 101 135 177 238 291 355 420
#
# _framework density 23.872630000000001
#
# number of rings (size 3 to 8) (size 9 to 14) (size 15 to 20)
#    0.000    0.857    2.857    5.143    0.000    1.714 
#    7.714    0.000    0.000    0.000    0.000    0.000 
#    0.000    0.000    0.000    0.000    0.000    0.000 
#
# Total GULP energy -156560.065787 kJ/mol
# GULP energy per Si atom -5591.430921 kJ/mol
# Density = 2.381829 g / cm^3
# Si number density = 23.872630 Si / 1000 Ang^3
#
#
#
# Elastic Constant Matrix: (Units=GPa)
#
#
# Indices 1 2 3 4 5 6 
#
# 1 105.2445 0.9160 29.3890 0.0000 -22.5197 0.0000
# 2 0.9160 63.3272 4.0014 0.0000 -14.0734 0.0000
# 3 29.3890 4.0014 129.4356 0.0000 -25.5390 0.0000
# 4 0.0000 0.0000 0.0000 36.4300 0.0000 -10.0255
# 5 -22.5197 -14.0734 -25.5390 0.0000 41.3816 0.0000
# 6 0.0000 0.0000 0.0000 -10.0255 0.0000 20.3478
#
#
#
# Elastic Compliance Matrix: (Units=1/GPa)
#
#
# Indices 1 2 3 4 5 6 
#
# 1 0.011082 0.001159 -0.001462 0.000000 0.005522 0.000000
# 2 0.001159 0.017260 0.000553 0.000000 0.006842 0.000000
# 3 -0.001462 0.000553 0.009019 0.000000 0.004959 0.000000
# 4 0.000000 0.000000 0.000000 0.031756 0.000000 0.015646
# 5 0.005522 0.006842 0.004959 0.000000 0.032558 0.000000
# 6 0.000000 0.000000 0.000000 0.015646 0.000000 0.056854
#
#
# Mechanical properties :
#
#
# Convention : Reuss Voigt Hill
#
# Bulk Modulus (GPa) = 26.41236 40.73559 33.57397
# Shear Modulus (GPa) = 29.29999 37.21194 33.25596
#
# Velocity S-wave (km/s) = 3.50715 3.95241 3.73642
# Velocity P-wave (km/s) = 5.24290 6.15869 5.71916
#
# Compressibility (1/GPa) = 0.03786106
#
# Stress axis : x y z
#
# Youngs Moduli (GPa) = 90.23974 57.93792 110.87504
#
# Poissons Ratio (x) = -0.06717 0.16214
# Poissons Ratio (y) = -0.10462 -0.06134
# Poissons Ratio (z) = 0.13196 -0.03205
#
# Static dielectric constant tensor:
#      x y z
#    x 1.994060 0.000000 -0.008030 
#    y 0.000000 1.963600 0.000000 
#    z -0.008030 0.000000 1.890740 
# 
# From -- ./inp_files/166667.got.cif
#   From: 2010.05.17/outbox.cif.g08.bks.cpg/sg15_84_cif.got.tgz:166667.got - 2010.06.03 18:47:42.
