data_PCOD9289828
_publ_section_title
;
Structure prediction by ZEFSAII (Michael W. Deem and Ramdas Pophale) SiO2 
 PCOD9289828
Probable space group: C 2/C
;
_chemical_formula_sum "Si O2"
_cell_formula_units_Z 56
_cell_length_a 12.225103
_cell_length_b 17.115040
_cell_length_c 17.801221
_cell_angle_alpha 90.000000
_cell_angle_beta 49.158363
_cell_angle_gamma 90.000000
_cell_volume 2817.738324
_symmetry_space_group_name_H-M "C 2/C"
_symmetry_group_IT_number 15
_symmetry_cell_setting 'monoclinic'
loop_
_space_group_symop_operation_xyz
x,y,z
-x,y,1/2-z
-x,-y,-z
x,-y,1/2+z
1/2+x,1/2+y,z
1/2-x,1/2+y,1/2-z
1/2-x,1/2-y,-z
1/2+x,1/2-y,1/2+z
loop_
_atom_site_type_symbol
_atom_site_label
_atom_site_fract_x
_atom_site_fract_y
_atom_site_fract_z
Si Si1 0.375868 0.173102 0.368626
Si Si2 0.621443 0.204040 0.962520
Si Si3 0.814005 0.268460 0.552400
Si Si4 0.133202 0.552285 0.863303
Si Si5 0.838025 0.369418 0.308786
Si Si6 0.833727 0.932676 0.847571
Si Si7 0.819435 0.501432 0.946816
O O1 0.500000 0.169719 0.250000
O O2 0.426187 0.202020 0.428683
O O3 0.251829 0.234234 0.398906
O O4 0.319936 0.085338 0.412057
O O5 0.654544 0.116056 0.919805
O O6 0.485894 0.226301 0.972296
O O7 0.750000 0.250000 0.500000
O O8 0.771983 0.199483 0.626997
O O9 0.743224 0.349236 0.609954
O O10 0.170628 0.595765 0.769619
O O11 0.241941 0.481961 0.828972
O O12 0.969395 0.520219 0.925170
O O13 0.817039 0.437586 0.379335
O O14 0.000000 0.337827 0.250000
O O15 0.000000 0.926351 0.750000
O O16 0.808527 0.977348 0.938260
#
# Coordination Sequence:
#
# PCOD9289828 Si02
#       7
#     8   8   8   8   8   8   8
#     4  11  25  45  69 104 135 179 237 286 346 414
#     4  11  25  43  70  98 140 184 223 289 350 413
#     4  12  23  45  67  99 141 179 226 287 346 412
#     4  11  22  45  69  93 131 185 226 275 357 418
#     4  10  22  40  68  96 130 172 223 284 339 409
#     4  12  25  41  69  97 132 179 231 279 335 414
#     4  11  21  47  68  96 136 175 228 284 343 417
#
# _framework density 19.874095000000001
#
# number of rings (size 3 to 8) (size 9 to 14) (size 15 to 20)
#    0.000    0.857    4.286    3.857    2.000    1.714 
#    5.143    1.429    0.000    0.000    0.000    0.000 
#    0.000    0.000    0.000    0.000    0.000    0.000 
#
# Total GULP energy -156524.104253 kJ/mol
# GULP energy per Si atom -5590.146580 kJ/mol
# Density = 1.982886 g / cm^3
# Si number density = 19.874095 Si / 1000 Ang^3
#
#
#
# Elastic Constant Matrix: (Units=GPa)
#
#
# Indices 1 2 3 4 5 6 
#
# 1 98.1620 46.8662 32.5261 0.0000 1.3937 0.0000
# 2 46.8662 138.6242 32.2215 0.0000 -7.2180 0.0000
# 3 32.5261 32.2215 98.8760 0.0000 5.9064 0.0000
# 4 0.0000 0.0000 0.0000 22.8017 0.0000 -8.6083
# 5 1.3937 -7.2180 5.9064 0.0000 21.8255 0.0000
# 6 0.0000 0.0000 0.0000 -8.6083 0.0000 24.1435
#
#
#
# Elastic Compliance Matrix: (Units=1/GPa)
#
#
# Indices 1 2 3 4 5 6 
#
# 1 0.012988 -0.003767 -0.002969 0.000000 -0.001272 0.000000
# 2 -0.003767 0.009142 -0.001967 0.000000 0.003796 0.000000
# 3 -0.002969 -0.001967 0.011952 0.000000 -0.003695 0.000000
# 4 0.000000 0.000000 0.000000 0.050678 0.000000 0.018069
# 5 -0.001272 0.003796 -0.003695 0.000000 0.048155 0.000000
# 6 0.000000 0.000000 0.000000 0.018069 0.000000 0.047862
#
#
# Mechanical properties :
#
#
# Convention : Reuss Voigt Hill
#
# Bulk Modulus (GPa) = 59.96494 62.09887 61.03191
# Shear Modulus (GPa) = 24.54112 28.69071 26.61592
#
# Velocity S-wave (km/s) = 3.51783 3.80363 3.66351
# Velocity P-wave (km/s) = 6.83652 7.11365 6.97647
#
# Compressibility (1/GPa) = 0.01667641
#
# Stress axis : x y z
#
# Youngs Moduli (GPa) = 76.99707 109.38390 83.66820
#
# Poissons Ratio (x) = 0.41205 0.24839
# Poissons Ratio (y) = 0.29005 0.16456
# Poissons Ratio (z) = 0.22859 0.21514
#
# Static dielectric constant tensor:
#      x y z
#    x 1.710250 0.000000 -0.024680 
#    y 0.000000 1.711700 0.000000 
#    z -0.024680 0.000000 1.793990 
# 
# From -- ./inp_files/199458.got.cif
#   From: 2010.05.17/outbox.cif.g08.bks.cpg/sg15_100_cif.got.tgz:199458.got - 2010.06.03 18:47:42.
