data_PCOD9289260
_publ_section_title
;
Structure prediction by ZEFSAII (Michael W. Deem and Ramdas Pophale) SiO2 
 PCOD9289260
Probable space group: C 2/C
;
_chemical_formula_sum "Si O2"
_cell_formula_units_Z 56
_cell_length_a 18.407869
_cell_length_b 20.576376
_cell_length_c 15.108396
_cell_angle_alpha 90.000000
_cell_angle_beta 145.160645
_cell_angle_gamma 90.000000
_cell_volume 3269.172601
_symmetry_space_group_name_H-M "C 2/C"
_symmetry_group_IT_number 15
_symmetry_cell_setting 'monoclinic'
loop_
_space_group_symop_operation_xyz
x,y,z
-x,y,1/2-z
-x,-y,-z
x,-y,1/2+z
1/2+x,1/2+y,z
1/2-x,1/2+y,1/2-z
1/2-x,1/2-y,-z
1/2+x,1/2-y,1/2+z
loop_
_atom_site_type_symbol
_atom_site_label
_atom_site_fract_x
_atom_site_fract_y
_atom_site_fract_z
Si Si1 1.000000 0.955400 0.356360
Si Si2 0.249999 0.750000 0.700562
Si Si3 0.000000 0.200930 0.647151
Si Si4 0.204626 1.000000 0.204626
Si Si5 0.150339 0.371502 0.210820
Si Si6 0.350236 0.190062 0.600235
Si Si7 0.150339 0.371501 0.589859
O O1 0.000000 0.877121 0.363489
O O2 0.000000 0.971535 0.250000
O O3 0.118787 0.981760 0.532942
O O4 0.881212 0.981759 0.295367
O O5 0.373506 0.730568 0.768546
O O6 0.213653 0.688248 0.722960
O O7 0.286347 0.811751 0.795654
O O8 0.126492 0.769432 0.521533
O O9 0.000000 0.216025 0.750000
O O10 0.287365 0.061855 0.315887
O O11 0.287366 0.938146 0.258843
O O12 0.168506 0.354244 0.332107
O O13 1.000000 0.372726 0.042620
O O14 0.500000 0.212609 0.750000
O O15 0.250000 0.250000 0.500000
O O16 0.331493 0.145756 0.495094
#
# Coordination Sequence:
#
# PCOD9289260 Si02
#       7
#     8   8   8   8   8   8   8
#     4  10  23  41  62  93 122 156 207 253 303 375
#     4  12  21  39  66  90 122 164 200 261 305 366
#     4  11  23  41  63  90 123 158 203 256 308 364
#     4  11  23  42  64  88 123 171 200 252 318 362
#     4  11  23  40  63  90 126 160 210 251 313 369
#     4  10  22  40  62  96 126 161 202 261 310 371
#     4  11  23  40  63  90 126 160 210 251 313 369
#
# _framework density 17.129718
#
# number of rings (size 3 to 8) (size 9 to 14) (size 15 to 20)
#    0.000    1.143    5.714    0.857    2.000    0.000 
#    5.143    0.000    0.000    0.000    0.000    0.000 
#    0.000    0.000    0.000    0.000    0.000    0.000 
#
# Total GULP energy -156281.955887 kJ/mol
# GULP energy per Si atom -5581.498425 kJ/mol
# Density = 1.709073 g / cm^3
# Si number density = 17.129718 Si / 1000 Ang^3
#
#
#
# Elastic Constant Matrix: (Units=GPa)
#
#
# Indices 1 2 3 4 5 6 
#
# 1 150.9152 85.5867 98.7026 0.0000 -4.8529 0.0000
# 2 85.5867 155.0572 87.6233 0.0000 2.0452 0.0000
# 3 98.7026 87.6233 147.1484 0.0000 1.0885 0.0000
# 4 0.0000 0.0000 0.0000 33.9567 0.0000 7.3815
# 5 -4.8529 2.0452 1.0885 0.0000 29.6320 0.0000
# 6 0.0000 0.0000 0.0000 7.3815 0.0000 26.5868
#
#
#
# Elastic Compliance Matrix: (Units=1/GPa)
#
#
# Indices 1 2 3 4 5 6 
#
# 1 0.013067 -0.003441 -0.006735 0.000000 0.002625 0.000000
# 2 -0.003441 0.010633 -0.004015 0.000000 -0.001150 0.000000
# 3 -0.006735 -0.004015 0.013714 0.000000 -0.001330 0.000000
# 4 0.000000 0.000000 0.000000 0.031341 0.000000 -0.008701
# 5 0.002625 -0.001150 -0.001330 0.000000 0.034305 0.000000
# 6 0.000000 0.000000 0.000000 -0.008701 0.000000 0.040028
#
#
# Mechanical properties :
#
#
# Convention : Reuss Voigt Hill
#
# Bulk Modulus (GPa) = 110.72297 110.77178 110.74738
# Shear Modulus (GPa) = 28.65627 30.11566 29.38596
#
# Velocity S-wave (km/s) = 4.09454 4.19751 4.14635
# Velocity P-wave (km/s) = 9.33445 9.39675 9.36565
#
# Compressibility (1/GPa) = 0.00903155
#
# Stress axis : x y z
#
# Youngs Moduli (GPa) = 76.52636 94.05114 72.91662
#
# Poissons Ratio (x) = 0.32365 0.49113
# Poissons Ratio (y) = 0.26334 0.29274
# Poissons Ratio (z) = 0.51544 0.37758
#
# Static dielectric constant tensor:
#      x y z
#    x 1.582060 0.000000 -0.013880 
#    y 0.000000 1.538010 0.000000 
#    z -0.013880 0.000000 1.568200 
# 
# From -- ./inp_files/50125.got.cif
#   From: 2010.05.17/outbox.cif.g08.bks.cpg/sg15_26_cif.got.tgz:50125.got - 2010.06.03 18:47:42.
