data_PCOD9289053
_publ_section_title
;
Structure prediction by ZEFSAII (Michael W. Deem and Ramdas Pophale) SiO2 
 PCOD9289053
Probable space group: C 2/C
;
_chemical_formula_sum "Si O2"
_cell_formula_units_Z 64
_cell_length_a 22.717211
_cell_length_b 27.540979
_cell_length_c 5.340560
_cell_angle_alpha 90.000000
_cell_angle_beta 118.787150
_cell_angle_gamma 90.000000
_cell_volume 2928.402975
_symmetry_space_group_name_H-M "C 2/C"
_symmetry_group_IT_number 15
_symmetry_cell_setting 'monoclinic'
loop_
_space_group_symop_operation_xyz
x,y,z
-x,y,1/2-z
-x,-y,-z
x,-y,1/2+z
1/2+x,1/2+y,z
1/2-x,1/2+y,1/2-z
1/2-x,1/2-y,-z
1/2+x,1/2-y,1/2+z
loop_
_atom_site_type_symbol
_atom_site_label
_atom_site_fract_x
_atom_site_fract_y
_atom_site_fract_z
Si Si1 0.073932 0.911613 0.797766
Si Si2 0.673302 0.158477 0.285117
Si Si3 0.310809 0.615212 0.568018
Si Si4 0.329770 0.528784 0.263329
Si Si5 0.536839 0.761192 0.074572
Si Si6 0.636149 0.319600 0.712384
Si Si7 0.275642 0.801953 0.134614
Si Si8 0.519480 0.870238 0.537786
O O1 0.093578 0.955418 0.649510
O O2 0.081026 0.859581 0.674543
O O3 0.000000 0.917611 0.750000
O O4 0.132239 0.908106 0.134835
O O5 0.732526 0.120796 0.477969
O O6 0.686563 0.199096 0.524323
O O7 0.597526 0.142455 0.177146
O O8 0.685693 0.174227 0.022937
O O9 0.304952 0.581001 0.307613
O O10 0.339598 0.666447 0.517845
O O11 0.310017 0.495411 0.459462
O O12 0.500000 0.744723 0.250000
O O13 0.607379 0.733900 0.203484
O O14 0.500000 0.744010 0.750000
O O15 0.525908 0.819881 0.052525
O O16 0.702877 0.328084 0.013775
O O17 0.250000 0.750000 0.000000
O O18 0.500000 0.896344 0.750000
O O19 0.500000 0.898022 0.250000
#
# Coordination Sequence:
#
# PCOD9289053 Si02
#       8
#     8   8   8   8   8   8   8   8
#     4  11  23  40  59  87 124 164 208 249 304 363
#     4  11  23  42  62  83 124 160 207 258 317 374
#     4  10  23  43  61  89 123 164 201 252 314 366
#     4  11  23  43  68  93 123 156 199 250 302 374
#     4  10  23  34  53  74 107 150 203 263 309 336
#     4  10  23  36  54  80 115 159 216 255 304 358
#     4  11  24  36  57  83 111 159 212 267 312 355
#     4  10  22  40  59  86 116 155 206 261 312 363
#
# _framework density 21.854914999999998
#
# number of rings (size 3 to 8) (size 9 to 14) (size 15 to 20)
#    0.000    1.500    2.500    1.500   10.500    2.000 
#    0.000    0.000    0.000    0.000    0.000    0.000 
#    0.000    3.000    0.000    0.000    0.000    0.000 
#
# Total GULP energy -178254.958153 kJ/mol
# GULP energy per Si atom -5570.467442 kJ/mol
# Density = 2.180517 g / cm^3
# Si number density = 21.854915 Si / 1000 Ang^3
#
#
#
# Elastic Constant Matrix: (Units=GPa)
#
#
# Indices 1 2 3 4 5 6 
#
# 1 114.2780 1.0080 46.9265 0.0000 -3.4797 0.0000
# 2 1.0080 23.2543 8.4634 0.0000 -0.8138 0.0000
# 3 46.9265 8.4634 105.9883 0.0000 -10.2036 0.0000
# 4 0.0000 0.0000 0.0000 20.9221 0.0000 -10.4064
# 5 -3.4797 -0.8138 -10.2036 0.0000 37.7659 0.0000
# 6 0.0000 0.0000 0.0000 -10.4064 0.0000 20.1643
#
#
#
# Elastic Compliance Matrix: (Units=1/GPa)
#
#
# Indices 1 2 3 4 5 6 
#
# 1 0.010737 0.001303 -0.004887 0.000000 -0.000303 0.000000
# 2 0.001303 0.044448 -0.004130 0.000000 -0.000038 0.000000
# 3 -0.004887 -0.004130 0.012194 0.000000 0.002755 0.000000
# 4 0.000000 0.000000 0.000000 0.064302 0.000000 0.033185
# 5 -0.000303 -0.000038 0.002755 0.000000 0.027195 0.000000
# 6 0.000000 0.000000 0.000000 0.033185 0.000000 0.066719
#
#
# Mechanical properties :
#
#
# Convention : Reuss Voigt Hill
#
# Bulk Modulus (GPa) = 19.24915 39.59073 29.41994
# Shear Modulus (GPa) = 19.35445 28.24531 23.79988
#
# Velocity S-wave (km/s) = 2.97911 3.59890 3.30357
# Velocity P-wave (km/s) = 4.54536 5.95181 5.29548
#
# Compressibility (1/GPa) = 0.05195035
#
# Stress axis : x y z
#
# Youngs Moduli (GPa) = 93.13962 22.49825 82.00987
#
# Poissons Ratio (x) = -0.02930 0.40077
# Poissons Ratio (y) = -0.12132 0.33867
# Poissons Ratio (z) = 0.45516 0.09291
#
# Static dielectric constant tensor:
#      x y z
#    x 1.884460 0.000000 -0.046770 
#    y 0.000000 1.876490 0.000000 
#    z -0.046770 0.000000 1.907890 
# 
# From -- ./inp_files/14664.got.cif
#   From: 2010.05.17/outbox.cif.g08.bks.cpg/sg15_8_cif.got.tgz:14664.got - 2010.06.03 18:47:42.
