data_PCOD9289914
_publ_section_title
;
Structure prediction by ZEFSAII (Michael W. Deem and Ramdas Pophale) SiO2 
 PCOD9289914
Probable space group: C 2/C
;
_chemical_formula_sum "Si O2"
_cell_formula_units_Z 64
_cell_length_a 19.211428
_cell_length_b 5.406041
_cell_length_c 26.814813
_cell_angle_alpha 90.000000
_cell_angle_beta 86.221820
_cell_angle_gamma 90.000000
_cell_volume 2778.873951
_symmetry_space_group_name_H-M "C 2/C"
_symmetry_group_IT_number 15
_symmetry_cell_setting 'monoclinic'
loop_
_space_group_symop_operation_xyz
x,y,z
-x,y,1/2-z
-x,-y,-z
x,-y,1/2+z
1/2+x,1/2+y,z
1/2-x,1/2+y,1/2-z
1/2-x,1/2-y,-z
1/2+x,1/2-y,1/2+z
loop_
_atom_site_type_symbol
_atom_site_label
_atom_site_fract_x
_atom_site_fract_y
_atom_site_fract_z
Si Si1 0.955993 0.251598 0.010826
Si Si2 0.475720 0.090300 0.830260
Si Si3 0.079588 0.247614 0.590810
Si Si4 0.816754 0.043457 0.244160
Si Si5 0.398307 0.034237 0.232716
Si Si6 0.221392 0.004306 0.858659
Si Si7 0.206450 0.004868 0.136967
Si Si8 0.059190 0.031296 0.384612
O O1 0.900261 0.260410 0.968197
O O2 0.933216 0.225324 0.069317
O O3 0.000000 0.500000 0.000000
O O4 0.000000 0.000000 0.000000
O O5 0.542623 0.926538 0.811787
O O6 0.431211 0.069856 0.782422
O O7 0.515560 0.339858 0.842256
O O8 0.426589 0.998787 0.877190
O O9 0.130986 0.063994 0.617777
O O10 0.998072 0.167187 0.595160
O O11 0.865281 0.800900 0.240359
O O12 0.762185 0.997083 0.201911
O O13 0.797264 0.038769 0.303008
O O14 0.848746 0.303198 0.223252
O O15 0.260431 0.236017 0.881800
O O16 0.246881 0.737836 0.876522
O O17 0.138087 0.041768 0.868378
#
# Coordination Sequence:
#
# PCOD9289914 Si02
#       8
#     8   8   8   8   8   8   8   8
#     4  10  22  40  70 104 130 166 227 285 346 398
#     4  11  22  37  64  98 138 167 222 281 344 390
#     4  11  24  44  72  99 134 175 228 285 338 407
#     4  12  22  44  61  88 134 183 228 262 324 411
#     4  11  24  35  63 100 133 173 219 280 333 395
#     4  12  27  44  66  97 137 183 225 275 340 407
#     4  12  27  44  66  97 137 183 225 275 340 407
#     4  11  24  44  72  99 134 175 228 285 338 407
#
# _framework density 23.030911
#
# number of rings (size 3 to 8) (size 9 to 14) (size 15 to 20)
#    0.000    0.750    3.750    3.750    3.500    1.000 
#    0.000    1.250    0.000    0.000    0.000    0.000 
#    0.000    0.000    0.000    0.000    0.000    0.000 
#
# Total GULP energy -178539.857625 kJ/mol
# GULP energy per Si atom -5579.370551 kJ/mol
# Density = 2.297849 g / cm^3
# Si number density = 23.030911 Si / 1000 Ang^3
#
#
#
# Elastic Constant Matrix: (Units=GPa)
#
#
# Indices 1 2 3 4 5 6 
#
# 1 103.3818 53.6154 11.4138 0.0000 5.1108 0.0000
# 2 53.6154 113.8022 11.2662 0.0000 2.7538 0.0000
# 3 11.4138 11.2662 58.0103 0.0000 18.1551 0.0000
# 4 0.0000 0.0000 0.0000 34.7086 0.0000 -18.1840
# 5 5.1108 2.7538 18.1551 0.0000 18.3871 0.0000
# 6 0.0000 0.0000 0.0000 -18.1840 0.0000 78.9749
#
#
#
# Elastic Compliance Matrix: (Units=1/GPa)
#
#
# Indices 1 2 3 4 5 6 
#
# 1 0.012956 -0.005980 -0.000783 0.000000 -0.001932 0.000000
# 2 -0.005980 0.011723 -0.001550 0.000000 0.001437 0.000000
# 3 -0.000783 -0.001550 0.025402 0.000000 -0.024632 0.000000
# 4 0.000000 0.000000 0.000000 0.032764 0.000000 0.007544
# 5 -0.001932 0.001437 -0.024632 0.000000 0.079029 0.000000
# 6 0.000000 0.000000 0.000000 0.007544 0.000000 0.014399
#
#
# Mechanical properties :
#
#
# Convention : Reuss Voigt Hill
#
# Bulk Modulus (GPa) = 29.88974 47.53168 38.71071
# Shear Modulus (GPa) = 24.50375 39.67405 32.08890
#
# Velocity S-wave (km/s) = 3.26536 4.15498 3.73674
# Velocity P-wave (km/s) = 5.21757 6.61071 5.95502
#
# Compressibility (1/GPa) = 0.03345630
#
# Stress axis : x y z
#
# Youngs Moduli (GPa) = 77.18426 85.30213 39.36647
#
# Poissons Ratio (x) = 0.51008 0.03083
# Poissons Ratio (y) = 0.46154 0.06101
# Poissons Ratio (z) = 0.06044 0.13220
#
# Static dielectric constant tensor:
#      x y z
#    x 2.128320 0.000000 -0.193910 
#    y 0.000000 2.170950 0.000000 
#    z -0.193910 0.000000 2.108900 
# 
# From -- ./inp_files/315091.got.cif
#   From: 2010.05.17/outbox.cif.g08.bks.cpg/sg15_158_cif.got.tgz:315091.got - 2010.06.03 18:47:42.
