data_PCOD9289525
_publ_section_title
;
Structure prediction by ZEFSAII (Michael W. Deem and Ramdas Pophale) SiO2 
 PCOD9289525
Probable space group: C 2/C
;
_chemical_formula_sum "Si O2"
_cell_formula_units_Z 44
_cell_length_a 6.082105
_cell_length_b 28.720688
_cell_length_c 12.306387
_cell_angle_alpha 90.000000
_cell_angle_beta 68.557440
_cell_angle_gamma 90.000000
_cell_volume 2000.914238
_symmetry_space_group_name_H-M "C 2/C"
_symmetry_group_IT_number 15
_symmetry_cell_setting 'monoclinic'
loop_
_space_group_symop_operation_xyz
x,y,z
-x,y,1/2-z
-x,-y,-z
x,-y,1/2+z
1/2+x,1/2+y,z
1/2-x,1/2+y,1/2-z
1/2-x,1/2-y,-z
1/2+x,1/2-y,1/2+z
loop_
_atom_site_type_symbol
_atom_site_label
_atom_site_fract_x
_atom_site_fract_y
_atom_site_fract_z
Si Si1 0.368104 0.425913 0.167334
Si Si2 0.006274 0.740174 0.615798
Si Si3 0.811049 0.420089 0.944035
Si Si4 0.591451 0.861406 0.065969
Si Si5 0.919831 0.161309 0.139509
Si Si6 0.000000 0.505487 0.250000
O O1 0.500000 0.408067 0.250000
O O2 0.192705 0.387066 0.153168
O O3 0.223490 0.471890 0.224264
O O4 0.561474 0.436139 0.039472
O O5 0.250000 0.750000 0.500000
O O6 0.945394 0.686603 0.601305
O O7 0.845683 0.785789 0.621358
O O8 0.000000 0.740570 0.750000
O O9 0.757651 0.378424 0.868132
O O10 0.948575 0.461455 0.861229
O O11 0.956320 0.398231 0.016512
O O12 0.835421 0.847702 0.964952
O O13 0.000000 0.158205 0.250000
#
# Coordination Sequence:
#
# PCOD9289525 Si02
#       6
#     8   8   8   8   8   4
#     4  11  26  43  64  93 130 170 229 274 334 396
#     4   9  19  36  65  95 135 176 217 272 330 397
#     4  11  24  41  67  96 127 175 220 272 339 396
#     4  10  22  40  65  94 132 171 217 274 331 395
#     4   9  19  39  62  95 134 169 219 265 324 400
#     4  12  26  44  64  92 132 172 220 282 338 394
#
# _framework density 21.989947000000001
#
# number of rings (size 3 to 8) (size 9 to 14) (size 15 to 20)
#    0.000    1.818    0.000    2.727    3.818    7.273 
#    0.000    0.000    0.000    0.000    0.000    0.000 
#    0.000    0.000    0.000    0.000    0.000    0.000 
#
# Total GULP energy -122706.898844 kJ/mol
# GULP energy per Si atom -5577.586311 kJ/mol
# Density = 2.193990 g / cm^3
# Si number density = 21.989947 Si / 1000 Ang^3
#
#
#
# Elastic Constant Matrix: (Units=GPa)
#
#
# Indices 1 2 3 4 5 6 
#
# 1 72.8288 58.9071 37.4165 0.0000 13.7486 0.0000
# 2 58.9071 148.2921 63.4943 0.0000 1.1146 0.0000
# 3 37.4165 63.4943 128.4789 0.0000 -6.0406 0.0000
# 4 0.0000 0.0000 0.0000 38.2688 0.0000 -4.0892
# 5 13.7486 1.1146 -6.0406 0.0000 44.5890 0.0000
# 6 0.0000 0.0000 0.0000 -4.0892 0.0000 -36.0598
#
#
#
# Elastic Compliance Matrix: (Units=1/GPa)
#
#
# Indices 1 2 3 4 5 6 
#
# 1 0.023007 -0.007696 -0.003242 0.000000 -0.007341 0.000000
# 2 -0.007696 0.011155 -0.003194 0.000000 0.001661 0.000000
# 3 -0.003242 -0.003194 0.010423 0.000000 0.002492 0.000000
# 4 0.000000 0.000000 0.000000 0.025818 0.000000 -0.002928
# 5 -0.007341 0.001661 0.002492 0.000000 0.024987 0.000000
# 6 0.000000 0.000000 0.000000 -0.002928 0.000000 -0.027400
#
#
# Mechanical properties :
#
#
# Convention : Reuss Voigt Hill
#
# Bulk Modulus (GPa) = 61.26617 74.35952 67.81285
# Shear Modulus (GPa) = 49.16676 22.01171 35.58923
#
# Velocity S-wave (km/s) = 4.73363 3.16727 4.02734
# Velocity P-wave (km/s) = 7.60249 6.87489 7.24783
#
# Compressibility (1/GPa) = 0.01632222
#
# Stress axis : x y z
#
# Youngs Moduli (GPa) = 43.46487 89.64190 95.94143
#
# Poissons Ratio (x) = 0.68988 0.31105
# Poissons Ratio (y) = 0.33450 0.30641
# Poissons Ratio (z) = 0.14092 0.28629
#
# Static dielectric constant tensor:
#      x y z
#    x 1.769900 0.000000 -0.047080 
#    y 0.000000 1.823420 0.000000 
#    z -0.047080 0.000000 1.844010 
# 
# From -- ./inp_files/73860.got.cif
#   From: 2010.05.17/outbox.cif.g08.bks.cpg/sg15_37_cif.got.tgz:73860.got - 2010.06.03 18:47:42.
