data_PCOD9289230
_publ_section_title
;
Structure prediction by ZEFSAII (Michael W. Deem and Ramdas Pophale) SiO2 
 PCOD9289230
Probable space group: C 2/C
;
_chemical_formula_sum "Si O2"
_cell_formula_units_Z 56
_cell_length_a 19.426724
_cell_length_b 5.433925
_cell_length_c 23.660039
_cell_angle_alpha 90.000000
_cell_angle_beta 102.262824
_cell_angle_gamma 90.000000
_cell_volume 2440.646225
_symmetry_space_group_name_H-M "C 2/C"
_symmetry_group_IT_number 15
_symmetry_cell_setting 'monoclinic'
loop_
_space_group_symop_operation_xyz
x,y,z
-x,y,1/2-z
-x,-y,-z
x,-y,1/2+z
1/2+x,1/2+y,z
1/2-x,1/2+y,1/2-z
1/2-x,1/2-y,-z
1/2+x,1/2-y,1/2+z
loop_
_atom_site_type_symbol
_atom_site_label
_atom_site_fract_x
_atom_site_fract_y
_atom_site_fract_z
Si Si1 0.842245 0.848245 0.562601
Si Si2 0.241169 0.939184 0.548381
Si Si3 0.264371 0.573988 0.158700
Si Si4 0.327388 0.810270 0.272424
Si Si5 0.003973 0.022875 0.381553
Si Si6 0.474129 0.027602 0.309090
Si Si7 0.852040 0.968223 0.375021
O O1 0.814769 0.574093 0.574430
O O2 0.806113 0.996481 0.609142
O O3 0.922187 0.934107 0.574876
O O4 0.811111 0.873150 0.494182
O O5 0.250000 0.750000 0.500000
O O6 0.195987 0.855639 0.594117
O O7 0.312227 0.761393 0.204452
O O8 0.241690 0.388394 0.204500
O O9 0.193097 0.719227 0.128917
O O10 0.389172 0.008370 0.291732
O O11 0.352245 0.569117 0.311109
O O12 0.996461 0.277933 0.345250
O O13 0.933381 0.981776 0.406537
O O14 0.002540 0.775613 0.343209
O O15 0.500000 0.017094 0.250000
#
# Coordination Sequence:
#
# PCOD9289230 Si02
#       7
#     8   8   8   8   8   8   8
#     4  10  24  40  64  94 126 165 226 274 336 393
#     4  10  22  44  67  91 125 169 221 281 337 392
#     4  11  20  37  60  93 126 167 220 272 326 399
#     4  11  21  35  61  92 125 174 217 266 333 397
#     4  11  24  43  64  98 132 177 222 275 336 404
#     4  11  24  41  64  93 141 179 221 268 335 401
#     4  10  22  40  62  91 130 167 221 272 331 403
#
# _framework density 22.944745000000001
#
# number of rings (size 3 to 8) (size 9 to 14) (size 15 to 20)
#    0.000    1.429    2.857    2.143    2.000    2.857 
#    0.000    0.714    0.000    0.000    0.000    0.000 
#    0.000    0.000    0.000    0.000    0.000    0.000 
#
# Total GULP energy -156104.232992 kJ/mol
# GULP energy per Si atom -5575.151178 kJ/mol
# Density = 2.289252 g / cm^3
# Si number density = 22.944745 Si / 1000 Ang^3
#
#
#
# Elastic Constant Matrix: (Units=GPa)
#
#
# Indices 1 2 3 4 5 6 
#
# 1 101.8570 12.0677 25.5722 0.0000 17.4139 0.0000
# 2 12.0677 79.2228 4.3104 0.0001 8.0878 0.0000
# 3 25.5722 4.3104 88.2186 0.0000 -2.2215 0.0000
# 4 0.0000 0.0001 0.0000 22.1373 0.0000 0.7375
# 5 17.4139 8.0878 -2.2215 0.0000 40.2495 0.0000
# 6 0.0000 0.0000 0.0000 0.7375 0.0000 16.3678
#
#
#
# Elastic Compliance Matrix: (Units=1/GPa)
#
#
# Indices 1 2 3 4 5 6 
#
# 1 0.011672 -0.001077 -0.003457 0.000000 -0.005024 0.000000
# 2 -0.001077 0.013029 -0.000379 0.000000 -0.002173 0.000000
# 3 -0.003457 -0.000379 0.012413 0.000000 0.002257 0.000000
# 4 0.000000 0.000000 0.000000 0.045241 0.000000 -0.002038
# 5 -0.005024 -0.002173 0.002257 0.000000 0.027580 0.000000
# 6 0.000000 0.000000 0.000000 -0.002038 0.000000 0.061187
#
#
# Mechanical properties :
#
#
# Convention : Reuss Voigt Hill
#
# Bulk Modulus (GPa) = 36.64678 39.24432 37.94555
# Shear Modulus (GPa) = 26.30953 30.90746 28.60849
#
# Velocity S-wave (km/s) = 3.38989 3.67418 3.53490
# Velocity P-wave (km/s) = 5.59716 5.92794 5.76493
#
# Compressibility (1/GPa) = 0.02728753
#
# Stress axis : x y z
#
# Youngs Moduli (GPa) = 85.67298 76.75093 80.56044
#
# Poissons Ratio (x) = 0.08266 0.27853
# Poissons Ratio (y) = 0.09227 0.03054
# Poissons Ratio (z) = 0.29620 0.02910
#
# Static dielectric constant tensor:
#      x y z
#    x 1.929660 0.000000 0.035440 
#    y 0.000000 2.040430 0.000000 
#    z 0.035440 0.000000 1.874600 
# 
# From -- ./inp_files/278631.got.cif
#   From: 2010.05.17/outbox.cif.g08.bks.cpg/sg15_140_cif.got.tgz:278631.got - 2010.06.03 18:47:42.
