data_PCOD9289694
_publ_section_title
;
Structure prediction by ZEFSAII (Michael W. Deem and Ramdas Pophale) SiO2 
 PCOD9289694
Probable space group: C 2/C
;
_chemical_formula_sum "Si O2"
_cell_formula_units_Z 40
_cell_length_a 15.439191
_cell_length_b 7.598108
_cell_length_c 23.514926
_cell_angle_alpha 90.000000
_cell_angle_beta 147.534064
_cell_angle_gamma 90.000000
_cell_volume 1480.759688
_symmetry_space_group_name_H-M "C 2/C"
_symmetry_group_IT_number 15
_symmetry_cell_setting 'monoclinic'
loop_
_space_group_symop_operation_xyz
x,y,z
-x,y,1/2-z
-x,-y,-z
x,-y,1/2+z
1/2+x,1/2+y,z
1/2-x,1/2+y,1/2-z
1/2-x,1/2-y,-z
1/2+x,1/2-y,1/2+z
loop_
_atom_site_type_symbol
_atom_site_label
_atom_site_fract_x
_atom_site_fract_y
_atom_site_fract_z
Si Si1 0.595224 0.388174 0.717672
Si Si2 0.924863 0.526742 0.076633
Si Si3 0.750000 0.250000 0.000000
Si Si4 0.709554 0.374298 0.549406
Si Si5 0.225137 0.958130 0.179219
Si Si6 0.500000 0.661323 0.750000
O O1 0.423526 0.296663 0.633630
O O2 0.601803 0.478491 0.659020
O O3 0.609716 0.545186 0.770192
O O4 0.738284 0.248358 0.802817
O O5 0.880290 0.346542 0.020752
O O6 0.761987 0.485902 0.029242
O O7 0.099573 0.524677 0.201158
O O8 0.895503 0.709699 0.028935
O O9 0.682165 0.459611 0.594735
O O10 0.884699 0.281069 0.649247
#
# Coordination Sequence:
#
# PCOD9289694 Si02
#       6
#     8   8   4   8   8   4
#     4  11  26  44  70 100 138 179 233 279 344 407
#     4  10  22  40  67 101 134 177 228 271 340 414
#     4  10  22  44  66  98 138 178 226 278 330 416
#     4  11  22  40  71  97 138 179 224 276 348 402
#     4  11  24  44  66 100 138 175 226 292 333 398
#     4  12  22  42  70  94 136 186 224 276 348 408
#
# _framework density 27.013162000000001
#
# number of rings (size 3 to 8) (size 9 to 14) (size 15 to 20)
#    0.000    1.200    4.000    1.200    5.600    0.000 
#    3.600    5.000    0.000    0.000    0.000    0.000 
#    0.000    0.000    0.000    0.000    0.000    0.000 
#
# Total GULP energy -111611.608442 kJ/mol
# GULP energy per Si atom -5580.580422 kJ/mol
# Density = 2.695168 g / cm^3
# Si number density = 27.013162 Si / 1000 Ang^3
#
#
#
# Elastic Constant Matrix: (Units=GPa)
#
#
# Indices 1 2 3 4 5 6 
#
# 1 109.6652 44.4064 10.4531 0.0000 -10.1646 0.0000
# 2 44.4064 173.1827 33.2273 0.0000 -6.4754 0.0000
# 3 10.4531 33.2273 101.4866 0.0002 19.2680 0.0001
# 4 0.0000 0.0000 0.0002 62.2781 0.0000 3.6954
# 5 -10.1646 -6.4754 19.2680 0.0000 52.4222 0.0000
# 6 0.0000 0.0000 0.0001 3.6954 0.0000 30.1447
#
#
#
# Elastic Compliance Matrix: (Units=1/GPa)
#
#
# Indices 1 2 3 4 5 6 
#
# 1 0.010355 -0.002462 -0.000628 0.000000 0.001934 0.000000
# 2 -0.002462 0.006877 -0.002224 0.000000 0.001189 0.000000
# 3 -0.000628 -0.002224 0.011526 0.000000 -0.004633 0.000000
# 4 0.000000 0.000000 0.000000 0.016175 0.000000 -0.001983
# 5 0.001934 0.001189 -0.004633 0.000000 0.021301 0.000000
# 6 0.000000 0.000000 0.000000 -0.001983 0.000000 0.033416
#
#
# Mechanical properties :
#
#
# Convention : Reuss Voigt Hill
#
# Bulk Modulus (GPa) = 55.15694 62.27866 58.71780
# Shear Modulus (GPa) = 42.98501 48.71886 45.85193
#
# Velocity S-wave (km/s) = 3.99339 4.25140 4.12441
# Velocity P-wave (km/s) = 6.45955 6.87053 6.66820
#
# Compressibility (1/GPa) = 0.01813009
#
# Stress axis : x y z
#
# Youngs Moduli (GPa) = 96.57303 145.41768 86.76219
#
# Poissons Ratio (x) = 0.35808 0.05445
# Poissons Ratio (y) = 0.23780 0.19293
# Poissons Ratio (z) = 0.06061 0.32336
#
# Static dielectric constant tensor:
#      x y z
#    x 2.348130 0.000000 -0.045920 
#    y 0.000000 2.306000 0.000000 
#    z -0.045920 0.000000 2.138010 
# 
# From -- ./inp_files/150715.got.cif
#   From: 2010.05.17/outbox.cif.g08.bks.cpg/sg15_76_cif.got.tgz:150715.got - 2010.06.03 18:47:42.
