data_PCOD9289277
_publ_section_title
;
Structure prediction by ZEFSAII (Michael W. Deem and Ramdas Pophale) SiO2 
 PCOD9289277
Probable space group: C 2/C
;
_chemical_formula_sum "Si O2"
_cell_formula_units_Z 52
_cell_length_a 19.048845
_cell_length_b 19.039934
_cell_length_c 8.524304
_cell_angle_alpha 90.000000
_cell_angle_beta 53.352063
_cell_angle_gamma 90.000000
_cell_volume 2480.502936
_symmetry_space_group_name_H-M "C 2/C"
_symmetry_group_IT_number 15
_symmetry_cell_setting 'monoclinic'
loop_
_space_group_symop_operation_xyz
x,y,z
-x,y,1/2-z
-x,-y,-z
x,-y,1/2+z
1/2+x,1/2+y,z
1/2-x,1/2+y,1/2-z
1/2-x,1/2-y,-z
1/2+x,1/2-y,1/2+z
loop_
_atom_site_type_symbol
_atom_site_label
_atom_site_fract_x
_atom_site_fract_y
_atom_site_fract_z
Si Si1 0.160403 0.320208 0.684993
Si Si2 0.939252 0.545981 0.189262
Si Si3 0.208294 0.911739 0.191705
Si Si4 0.047120 0.186673 0.848399
Si Si5 0.000000 0.752533 0.750000
Si Si6 0.803624 0.303432 0.535702
Si Si7 0.267913 0.955082 0.456853
O O1 0.102240 0.384731 0.829644
O O2 0.220549 0.358671 0.479001
O O3 0.097121 0.257435 0.723310
O O4 0.216039 0.290287 0.755174
O O5 0.860803 0.494954 0.344737
O O6 0.000000 0.570731 0.250000
O O7 0.000000 0.500000 0.000000
O O8 0.117785 0.870943 0.306712
O O9 0.243192 0.933509 0.314704
O O10 0.202989 0.984807 0.104107
O O11 0.000000 0.162299 0.750000
O O12 0.000581 0.206969 0.078312
O O13 0.092269 0.710375 0.627138
O O14 0.750000 0.250000 0.500000
O O15 0.774416 0.382637 0.540480
#
# Coordination Sequence:
#
# PCOD9289277 Si02
#       7
#     8   8   8   8   4   8   8
#     4  10  22  40  63 104 135 180 232 279 354 433
#     4  11  21  33  57  94 138 174 208 270 349 420
#     4  11  24  45  67 100 134 188 235 284 360 427
#     4  11  25  44  73  99 142 183 239 301 346 421
#     4  10  26  44  68 118 138 180 242 292 374 424
#     4  11  24  42  71  99 140 181 223 299 353 427
#     4  11  23  40  65  92 135 179 228 280 343 432
#
# _framework density 20.96349
#
# number of rings (size 3 to 8) (size 9 to 14) (size 15 to 20)
#    0.000    1.231    0.000    7.385    9.692    0.000 
#    2.769    0.769    1.692    0.000    0.000    0.000 
#    0.000    0.000    0.000    0.000    0.000    0.000 
#
# Total GULP energy -145148.069369 kJ/mol
# GULP energy per Si atom -5582.618053 kJ/mol
# Density = 2.091578 g / cm^3
# Si number density = 20.963490 Si / 1000 Ang^3
#
#
#
# Elastic Constant Matrix: (Units=GPa)
#
#
# Indices 1 2 3 4 5 6 
#
# 1 89.2015 27.0328 27.7867 0.0000 25.7467 0.0000
# 2 27.0328 108.1379 23.7830 0.0000 -12.5510 0.0000
# 3 27.7867 23.7830 79.5181 0.0000 12.2268 0.0000
# 4 0.0000 0.0000 0.0000 39.2585 0.0000 -0.5354
# 5 25.7467 -12.5510 12.2268 0.0000 31.8347 0.0000
# 6 0.0000 0.0000 0.0000 -0.5354 0.0000 23.9412
#
#
#
# Elastic Compliance Matrix: (Units=1/GPa)
#
#
# Indices 1 2 3 4 5 6 
#
# 1 0.018478 -0.006077 -0.002097 0.000000 -0.016535 0.000000
# 2 -0.006077 0.012838 -0.003454 0.000000 0.011303 0.000000
# 3 -0.002097 -0.003454 0.015187 0.000000 -0.005499 0.000000
# 4 0.000000 0.000000 0.000000 0.025480 0.000000 0.000570
# 5 -0.016535 0.011303 -0.005499 0.000000 0.051354 0.000000
# 6 0.000000 0.000000 0.000000 0.000570 0.000000 0.041782
#
#
# Mechanical properties :
#
#
# Convention : Reuss Voigt Hill
#
# Bulk Modulus (GPa) = 43.01648 48.22918 45.62283
# Shear Modulus (GPa) = 25.49408 32.22388 28.85898
#
# Velocity S-wave (km/s) = 3.49107 3.92489 3.71432
# Velocity P-wave (km/s) = 6.06748 6.60272 6.34075
#
# Compressibility (1/GPa) = 0.02324690
#
# Stress axis : x y z
#
# Youngs Moduli (GPa) = 54.11824 77.89229 65.84533
#
# Poissons Ratio (x) = 0.47337 0.13807
# Poissons Ratio (y) = 0.32889 0.22744
# Poissons Ratio (z) = 0.11348 0.26905
#
# Static dielectric constant tensor:
#      x y z
#    x 1.714390 0.000000 -0.024070 
#    y 0.000000 1.809710 0.000000 
#    z -0.024070 0.000000 1.815560 
# 
# From -- ./inp_files/48955.got.cif
#   From: 2010.05.17/outbox.cif.g08.bks.cpg/sg15_25_cif.got.tgz:48955.got - 2010.06.03 18:47:42.
