data_PCOD9289972
_publ_section_title
;
Structure prediction by ZEFSAII (Michael W. Deem and Ramdas Pophale) SiO2 
 PCOD9289972
Probable space group: C 2/C
;
_chemical_formula_sum "Si O2"
_cell_formula_units_Z 48
_cell_length_a 22.576722
_cell_length_b 7.364052
_cell_length_c 14.191077
_cell_angle_alpha 90.000000
_cell_angle_beta 98.422637
_cell_angle_gamma 90.000000
_cell_volume 2333.907177
_symmetry_space_group_name_H-M "C 2/C"
_symmetry_group_IT_number 15
_symmetry_cell_setting 'monoclinic'
loop_
_space_group_symop_operation_xyz
x,y,z
-x,y,1/2-z
-x,-y,-z
x,-y,1/2+z
1/2+x,1/2+y,z
1/2-x,1/2+y,1/2-z
1/2-x,1/2-y,-z
1/2+x,1/2-y,1/2+z
loop_
_atom_site_type_symbol
_atom_site_label
_atom_site_fract_x
_atom_site_fract_y
_atom_site_fract_z
Si Si1 0.278131 0.741486 0.611027
Si Si2 0.304414 0.981326 0.781940
Si Si3 0.115322 0.005357 0.411322
Si Si4 0.014168 0.943163 0.145406
Si Si5 0.107169 0.205597 0.215553
Si Si6 0.141185 0.867473 0.115269
O O1 0.250000 0.750000 0.500000
O O2 0.241162 0.598198 0.666033
O O3 0.345027 0.661831 0.614864
O O4 0.282835 0.927193 0.671993
O O5 0.365184 0.099058 0.791094
O O6 0.181265 0.291975 0.663777
O O7 0.149233 0.941002 0.671112
O O8 0.108032 0.145142 0.324103
O O9 0.147450 0.096462 0.506830
O O10 0.048339 0.941828 0.423040
O O11 0.042360 0.147450 0.160157
O O12 0.000000 0.886786 0.250000
O O13 0.070247 0.829861 0.119576
#
# Coordination Sequence:
#
# PCOD9289972 Si02
#       6
#     8   8   8   8   8   8
#     4  12  28  42  70  97 136 182 227 276 319 402
#     4  12  25  47  64  97 131 175 225 271 332 384
#     4  11  20  42  66  97 130 171 215 268 338 385
#     4   8  17  39  67  94 129 167 207 271 336 392
#     4   9  21  41  64  95 128 161 214 271 322 394
#     4  10  22  40  71  94 126 175 208 275 332 393
#
# _framework density 20.566369999999999
#
# number of rings (size 3 to 8) (size 9 to 14) (size 15 to 20)
#    1.000    0.667    1.667    2.500    4.667    0.667 
#    0.000    8.333    0.000    0.000    0.000    0.000 
#    0.000    0.000    0.000    0.000    0.000    0.000 
#
# Total GULP energy -133847.167271 kJ/mol
# GULP energy per Si atom -5576.965303 kJ/mol
# Density = 2.051956 g / cm^3
# Si number density = 20.566370 Si / 1000 Ang^3
#
#
#
# Elastic Constant Matrix: (Units=GPa)
#
#
# Indices 1 2 3 4 5 6 
#
# 1 91.0393 18.8184 8.5167 0.0000 0.4273 0.0000
# 2 18.8184 72.8169 27.4183 0.0000 -0.7562 0.0000
# 3 8.5167 27.4183 107.3505 0.0000 -5.6136 0.0000
# 4 0.0000 0.0000 0.0000 25.8547 0.0000 2.6356
# 5 0.4273 -0.7562 -5.6136 0.0000 19.0066 0.0000
# 6 0.0000 0.0000 0.0000 2.6356 0.0000 33.6925
#
#
#
# Elastic Compliance Matrix: (Units=1/GPa)
#
#
# Indices 1 2 3 4 5 6 
#
# 1 0.011611 -0.002932 -0.000195 0.000000 -0.000435 0.000000
# 2 -0.002932 0.015940 -0.003862 0.000000 -0.000440 0.000000
# 3 -0.000195 -0.003862 0.010471 0.000000 0.002943 0.000000
# 4 0.000000 0.000000 0.000000 0.038989 0.000000 -0.003050
# 5 -0.000435 -0.000440 0.002943 0.000000 0.053475 0.000000
# 6 0.000000 0.000000 0.000000 -0.003050 0.000000 0.029919
#
#
# Mechanical properties :
#
#
# Convention : Reuss Voigt Hill
#
# Bulk Modulus (GPa) = 41.58899 42.30149 41.94524
# Shear Modulus (GPa) = 27.41293 30.14100 28.77696
#
# Velocity S-wave (km/s) = 3.65485 3.83240 3.74468
# Velocity P-wave (km/s) = 6.17060 6.34003 6.25589
#
# Compressibility (1/GPa) = 0.02404482
#
# Stress axis : x y z
#
# Youngs Moduli (GPa) = 86.12864 62.73441 95.50196
#
# Poissons Ratio (x) = 0.18391 0.01864
# Poissons Ratio (y) = 0.25249 0.36880
# Poissons Ratio (z) = 0.01681 0.24226
#
# Static dielectric constant tensor:
#      x y z
#    x 1.798130 0.000000 0.009920 
#    y 0.000000 1.692830 0.000000 
#    z 0.009920 0.000000 1.760260 
# 
# From -- ./inp_files/208690.got.cif
#   From: 2010.05.17/outbox.cif.g08.bks.cpg/sg15_105_cif.got.tgz:208690.got - 2010.06.03 18:47:42.
