data_PCOD9289240
_publ_section_title
;
Structure prediction by ZEFSAII (Michael W. Deem and Ramdas Pophale) SiO2 
 PCOD9289240
Probable space group: C 2/C
;
_chemical_formula_sum "Si O2"
_cell_formula_units_Z 44
_cell_length_a 14.325088
_cell_length_b 5.125458
_cell_length_c 28.535628
_cell_angle_alpha 90.000000
_cell_angle_beta 68.813631
_cell_angle_gamma 90.000000
_cell_volume 1953.548714
_symmetry_space_group_name_H-M "C 2/C"
_symmetry_group_IT_number 15
_symmetry_cell_setting 'monoclinic'
loop_
_space_group_symop_operation_xyz
x,y,z
-x,y,1/2-z
-x,-y,-z
x,-y,1/2+z
1/2+x,1/2+y,z
1/2-x,1/2+y,1/2-z
1/2-x,1/2-y,-z
1/2+x,1/2-y,1/2+z
loop_
_atom_site_type_symbol
_atom_site_label
_atom_site_fract_x
_atom_site_fract_y
_atom_site_fract_z
Si Si1 0.000000 0.546650 0.750000
Si Si2 0.081828 0.822648 0.645381
Si Si3 0.209856 0.678562 0.125587
Si Si4 0.865686 0.245956 0.016222
Si Si5 0.935807 0.745518 0.956084
Si Si6 0.215671 0.708485 0.228395
O O1 0.019527 0.727658 0.701224
O O2 0.099578 0.377830 0.742601
O O3 0.176640 0.623018 0.628658
O O4 0.034753 0.773728 0.603225
O O5 0.116274 0.121438 0.642347
O O6 0.277521 0.753374 0.069547
O O7 0.258820 0.719219 0.167768
O O8 0.965411 0.250962 0.030099
O O9 0.876000 0.484497 0.978817
O O10 0.868687 0.985395 0.985266
O O11 0.269430 0.483428 0.248805
#
# Coordination Sequence:
#
# PCOD9289240 Si02
#       6
#     4   8   8   8   8   8
#     4  10  26  48  66 104 142 170 232 290 310 430
#     4  11  24  42  66  93 131 172 212 268 341 371
#     4  11  24  42  63  98 128 163 224 271 316 407
#     4  10  22  41  61  92 132 157 223 265 307 409
#     4  10  22  40  62  93 123 177 205 260 338 377
#     4  11  25  45  69 100 132 184 226 274 347 392
#
# _framework density 22.523114
#
# number of rings (size 3 to 8) (size 9 to 14) (size 15 to 20)
#    0.000    1.455    0.000    4.364    2.545   10.909 
#    6.545    0.000    0.000    0.000    0.000    0.000 
#    0.000    0.000    0.000    0.000    0.000    0.000 
#
# Total GULP energy -123147.614728 kJ/mol
# GULP energy per Si atom -5597.618851 kJ/mol
# Density = 2.247185 g / cm^3
# Si number density = 22.523114 Si / 1000 Ang^3
#
#
#
# Elastic Constant Matrix: (Units=GPa)
#
#
# Indices 1 2 3 4 5 6 
#
# 1 60.1152 3.4165 28.8405 0.0002 -1.3074 -0.0032
# 2 3.4165 93.3222 20.3464 -0.0001 3.5225 -0.0162
# 3 28.8405 20.3464 155.5908 0.0009 5.2688 -0.0046
# 4 0.0002 -0.0001 0.0009 37.4258 0.0005 7.2689
# 5 -1.3074 3.5225 5.2688 0.0005 41.5942 -0.0002
# 6 -0.0032 -0.0162 -0.0046 7.2689 -0.0002 7.6204
#
#
#
# Elastic Compliance Matrix: (Units=1/GPa)
#
#
# Indices 1 2 3 4 5 6 
#
# 1 0.018301 0.000040 -0.003432 -0.000001 0.001007 0.000007
# 2 0.000040 0.011054 -0.001427 -0.000005 -0.000754 0.000028
# 3 -0.003432 -0.001427 0.007281 0.000000 -0.000909 0.000000
# 4 -0.000001 -0.000005 0.000000 0.032795 0.000000 -0.031282
# 5 0.001007 -0.000754 -0.000909 0.000000 0.024253 -0.000001
# 6 0.000007 0.000028 0.000000 -0.031282 -0.000001 0.161065
#
#
# Mechanical properties :
#
#
# Convention : Reuss Voigt Hill
#
# Bulk Modulus (GPa) = 37.04047 46.02611 41.53329
# Shear Modulus (GPa) = 18.28926 34.42305 26.35616
#
# Velocity S-wave (km/s) = 2.85269 3.91364 3.42450
# Velocity P-wave (km/s) = 5.22797 6.39543 5.84094
#
# Compressibility (1/GPa) = 0.02699750
#
# Stress axis : x y z
#
# Youngs Moduli (GPa) = 54.64284 90.46688 137.35043
#
# Poissons Ratio (x) = -0.00364 0.47133
# Poissons Ratio (y) = -0.00220 0.19605
# Poissons Ratio (z) = 0.18751 0.12913
#
# Static dielectric constant tensor:
#      x y z
#    x 1.851650 0.000000 0.015900 
#    y 0.000000 1.801170 0.000000 
#    z 0.015900 0.000000 1.803810 
# 
# From -- ./inp_files/294230.got.cif
#   From: 2010.05.17/outbox.cif.g08.bks.cpg/sg15_148_cif.got.tgz:294230.got - 2010.06.03 18:47:42.
