data_PCOD9289378
_publ_section_title
;
Structure prediction by ZEFSAII (Michael W. Deem and Ramdas Pophale) SiO2 
 PCOD9289378
Probable space group: C 2/C
;
_chemical_formula_sum "Si O2"
_cell_formula_units_Z 64
_cell_length_a 12.236876
_cell_length_b 16.997680
_cell_length_c 28.494181
_cell_angle_alpha 90.000000
_cell_angle_beta 149.502249
_cell_angle_gamma 90.000000
_cell_volume 3007.851007
_symmetry_space_group_name_H-M "C 2/C"
_symmetry_group_IT_number 15
_symmetry_cell_setting 'monoclinic'
loop_
_space_group_symop_operation_xyz
x,y,z
-x,y,1/2-z
-x,-y,-z
x,-y,1/2+z
1/2+x,1/2+y,z
1/2-x,1/2+y,1/2-z
1/2-x,1/2-y,-z
1/2+x,1/2-y,1/2+z
loop_
_atom_site_type_symbol
_atom_site_label
_atom_site_fract_x
_atom_site_fract_y
_atom_site_fract_z
Si Si1 0.071434 0.333182 0.659457
Si Si2 0.606154 0.909136 0.494427
Si Si3 0.564074 0.344005 0.130165
Si Si4 0.548770 0.129898 0.656839
Si Si5 0.110970 0.590350 0.491571
Si Si6 0.283764 0.131268 0.137890
Si Si7 0.473678 0.688620 0.373816
Si Si8 0.715126 0.050204 0.862330
O O1 0.087876 0.250228 0.638297
O O2 0.282626 0.343342 0.769469
O O3 0.040009 0.400564 0.609654
O O4 0.867387 0.334624 0.619505
O O5 0.434271 0.904039 0.388874
O O6 0.508316 0.878677 0.506574
O O7 0.812614 0.860325 0.555217
O O8 0.668575 0.000100 0.522777
O O9 0.734067 0.373301 0.232427
O O10 0.623448 0.391008 0.104743
O O11 0.325853 0.363442 0.058585
O O12 0.493854 0.221552 0.629268
O O13 0.364852 0.084689 0.617893
O O14 0.500000 0.130752 0.250000
O O15 0.111108 0.179722 0.104206
O O16 0.210814 0.040225 0.106096
O O17 0.500000 0.049162 0.750000
#
# Coordination Sequence:
#
# PCOD9289378 Si02
#       8
#     8   8   8   8   8   8   8   8
#     4  10  22  40  64  90 122 162 205 258 315 366
#     4  11  25  41  59  89 127 167 209 249 299 373
#     4  10  22  40  64  90 122 162 205 258 315 366
#     4  10  22  40  64  90 122 162 205 258 315 366
#     4  11  25  41  59  89 127 167 209 249 299 373
#     4   9  18  35  61  91 118 150 202 258 306 365
#     4  10  22  40  64  90 122 162 205 258 315 366
#     4   9  18  35  61  91 118 150 202 258 306 365
#
# _framework density 21.277649
#
# number of rings (size 3 to 8) (size 9 to 14) (size 15 to 20)
#    0.000    2.000    0.000    2.250    3.500    5.000 
#    0.000    5.000    0.000    0.000    0.000    0.000 
#    0.000    0.000    0.000    0.000    0.000    0.000 
#
# Total GULP energy -178877.499041 kJ/mol
# GULP energy per Si atom -5589.921845 kJ/mol
# Density = 2.122922 g / cm^3
# Si number density = 21.277649 Si / 1000 Ang^3
#
#
#
# Elastic Constant Matrix: (Units=GPa)
#
#
# Indices 1 2 3 4 5 6 
#
# 1 102.3264 3.0720 13.1973 0.0000 -14.1688 0.0000
# 2 3.0720 33.5151 6.4639 0.0000 -5.1648 0.0000
# 3 13.1973 6.4639 50.2064 0.0001 1.5771 0.0001
# 4 0.0000 0.0000 0.0001 22.1235 0.0000 -3.1075
# 5 -14.1688 -5.1648 1.5771 0.0000 23.4417 0.0000
# 6 0.0000 0.0000 0.0001 -3.1075 0.0000 38.7813
#
#
#
# Elastic Compliance Matrix: (Units=1/GPa)
#
#
# Indices 1 2 3 4 5 6 
#
# 1 0.011156 0.000700 -0.003246 0.000000 0.007115 0.000000
# 2 0.000700 0.031839 -0.004526 0.000000 0.007743 0.000000
# 3 -0.003246 -0.004526 0.021492 0.000000 -0.004405 0.000000
# 4 0.000000 0.000000 0.000000 0.045715 0.000000 0.003663
# 5 0.007115 0.007743 -0.004405 0.000000 0.048962 0.000000
# 6 0.000000 0.000000 0.000000 0.003663 0.000000 0.026079
#
#
# Mechanical properties :
#
#
# Convention : Reuss Voigt Hill
#
# Bulk Modulus (GPa) = 19.86404 25.72380 22.79392
# Shear Modulus (GPa) = 23.13006 27.75695 25.44351
#
# Velocity S-wave (km/s) = 3.30063 3.61572 3.46176
# Velocity P-wave (km/s) = 4.88687 5.43572 5.16859
#
# Compressibility (1/GPa) = 0.05034223
#
# Stress axis : x y z
#
# Youngs Moduli (GPa) = 89.64169 31.40774 46.52855
#
# Poissons Ratio (x) = -0.02199 0.15103
# Poissons Ratio (y) = -0.06275 0.21061
# Poissons Ratio (z) = 0.29098 0.14216
#
# Static dielectric constant tensor:
#      x y z
#    x 1.735350 0.000000 -0.023370 
#    y 0.000000 1.759790 0.000000 
#    z -0.023370 0.000000 1.794260 
# 
# From -- ./inp_files/311645.got.cif
#   From: 2010.05.17/outbox.cif.g08.bks.cpg/sg15_156_cif.got.tgz:311645.got - 2010.06.03 18:47:42.
