data_PCOD9289482
_publ_section_title
;
Structure prediction by ZEFSAII (Michael W. Deem and Ramdas Pophale) SiO2 
 PCOD9289482
Probable space group: C 2/C
;
_chemical_formula_sum "Si O2"
_cell_formula_units_Z 60
_cell_length_a 23.445347
_cell_length_b 7.592751
_cell_length_c 16.459279
_cell_angle_alpha 90.000000
_cell_angle_beta 111.754653
_cell_angle_gamma 90.000000
_cell_volume 2721.317600
_symmetry_space_group_name_H-M "C 2/C"
_symmetry_group_IT_number 15
_symmetry_cell_setting 'monoclinic'
loop_
_space_group_symop_operation_xyz
x,y,z
-x,y,1/2-z
-x,-y,-z
x,-y,1/2+z
1/2+x,1/2+y,z
1/2-x,1/2+y,1/2-z
1/2-x,1/2-y,-z
1/2+x,1/2-y,1/2+z
loop_
_atom_site_type_symbol
_atom_site_label
_atom_site_fract_x
_atom_site_fract_y
_atom_site_fract_z
Si Si1 0.737512 0.444858 0.805323
Si Si2 0.189788 0.756267 0.020679
Si Si3 0.572718 0.002211 0.546409
Si Si4 0.000000 0.653807 0.750000
Si Si5 0.881939 0.878440 0.392542
Si Si6 0.895842 0.213374 0.308995
Si Si7 0.891270 0.485727 0.605222
Si Si8 0.687693 0.193973 0.294315
O O1 0.787348 0.355527 0.889426
O O2 0.672364 0.339052 0.760786
O O3 0.728363 0.637032 0.839326
O O4 0.769083 0.441978 0.732548
O O5 0.163266 0.923213 0.055166
O O6 0.250000 0.750000 0.000000
O O7 0.141469 0.670120 0.933757
O O8 0.599879 0.103813 0.638721
O O9 0.602125 0.092303 0.481711
O O10 0.500000 0.000000 0.500000
O O11 0.584608 0.792439 0.555031
O O12 0.948776 0.767364 0.769747
O O13 0.959399 0.527946 0.671633
O O14 0.853817 0.795765 0.294747
O O15 0.913383 0.055831 0.379778
O O16 0.851496 0.387914 0.653164
#
# Coordination Sequence:
#
# PCOD9289482 Si02
#       8
#     8   8   8   4   8   8   8   8
#     4  10  24  42  69  99 139 180 229 293 354 429
#     4  10  22  40  65 100 140 173 221 295 351 409
#     4  11  23  46  67  96 134 183 227 285 345 406
#     4  12  24  44  70 102 136 194 236 282 348 426
#     4   9  23  43  63  99 133 171 229 281 340 415
#     4  11  24  44  71  98 136 187 232 280 358 416
#     4  11  25  41  69 100 137 182 235 290 347 425
#     4  10  23  41  65 101 133 180 230 284 355 422
#
# _framework density 22.048144000000001
#
# number of rings (size 3 to 8) (size 9 to 14) (size 15 to 20)
#    0.000    1.600    1.333    1.600   13.067    2.133 
#    4.800    0.000    0.000    0.000    0.000    0.000 
#    0.000    0.000    0.000    0.000    0.000    0.000 
#
# Total GULP energy -167047.477189 kJ/mol
# GULP energy per Si atom -5568.249240 kJ/mol
# Density = 2.199796 g / cm^3
# Si number density = 22.048144 Si / 1000 Ang^3
#
#
#
# Elastic Constant Matrix: (Units=GPa)
#
#
# Indices 1 2 3 4 5 6 
#
# 1 111.2772 18.0203 34.1944 0.0000 -21.1411 0.0000
# 2 18.0203 67.5844 1.7568 0.0000 -9.6241 0.0000
# 3 34.1944 1.7568 60.7055 0.0000 -8.0031 0.0000
# 4 0.0000 0.0000 0.0000 24.2851 0.0000 -7.3796
# 5 -21.1411 -9.6241 -8.0031 0.0000 56.7315 0.0000
# 6 0.0000 0.0000 0.0000 -7.3796 0.0000 34.8317
#
#
#
# Elastic Compliance Matrix: (Units=1/GPa)
#
#
# Indices 1 2 3 4 5 6 
#
# 1 0.011908 -0.002568 -0.006221 0.000000 0.003124 0.000000
# 2 -0.002568 0.015717 0.001240 0.000000 0.001884 0.000000
# 3 -0.006221 0.001240 0.020036 0.000000 0.000719 0.000000
# 4 0.000000 0.000000 0.000000 0.044011 0.000000 0.009324
# 5 0.003124 0.001884 0.000719 0.000000 0.019212 0.000000
# 6 0.000000 0.000000 0.000000 0.009324 0.000000 0.030685
#
#
# Mechanical properties :
#
#
# Convention : Reuss Voigt Hill
#
# Bulk Modulus (GPa) = 30.71029 38.61222 34.66125
# Shear Modulus (GPa) = 29.84684 35.54271 32.69478
#
# Velocity S-wave (km/s) = 3.68327 4.01939 3.85500
# Velocity P-wave (km/s) = 5.66107 6.25231 5.96402
#
# Compressibility (1/GPa) = 0.03256238
#
# Stress axis : x y z
#
# Youngs Moduli (GPa) = 83.97885 63.62455 49.90985
#
# Poissons Ratio (x) = 0.16341 0.31050
# Poissons Ratio (y) = 0.21569 -0.06190
# Poissons Ratio (z) = 0.52245 -0.07891
#
# Static dielectric constant tensor:
#      x y z
#    x 1.973250 0.000000 -0.031210 
#    y 0.000000 1.834470 0.000000 
#    z -0.031210 0.000000 1.848770 
# 
# From -- ./inp_files/172438.got.cif
#   From: 2010.05.17/outbox.cif.g08.bks.cpg/sg15_87_cif.got.tgz:172438.got - 2010.06.03 18:47:42.
