data_PCOD9289022
_publ_section_title
;
Structure prediction by ZEFSAII (Michael W. Deem and Ramdas Pophale) SiO2 
 PCOD9289022
Probable space group: C 2/C
;
_chemical_formula_sum "Si O2"
_cell_formula_units_Z 36
_cell_length_a 16.754243
_cell_length_b 15.854398
_cell_length_c 17.798185
_cell_angle_alpha 90.000000
_cell_angle_beta 155.341438
_cell_angle_gamma 90.000000
_cell_volume 1972.444959
_symmetry_space_group_name_H-M "C 2/C"
_symmetry_group_IT_number 15
_symmetry_cell_setting 'monoclinic'
loop_
_space_group_symop_operation_xyz
x,y,z
-x,y,1/2-z
-x,-y,-z
x,-y,1/2+z
1/2+x,1/2+y,z
1/2-x,1/2+y,1/2-z
1/2-x,1/2-y,-z
1/2+x,1/2-y,1/2+z
loop_
_atom_site_type_symbol
_atom_site_label
_atom_site_fract_x
_atom_site_fract_y
_atom_site_fract_z
Si Si1 0.342393 0.141429 0.264953
Si Si2 0.500000 0.437662 0.250000
Si Si3 0.728486 0.671145 0.824456
Si Si4 0.546524 0.596893 0.518316
Si Si5 0.199506 0.519551 0.882475
O O1 0.303436 0.229621 0.189687
O O2 0.548752 0.147659 0.479457
O O3 0.336314 0.062493 0.202264
O O4 0.166417 0.134097 0.173129
O O5 0.384594 0.380457 0.209630
O O6 0.651045 0.491759 0.426150
O O7 0.641951 0.644316 0.670193
O O8 0.500000 0.500000 0.500000
O O9 0.694821 0.590082 0.577242
O O10 0.000000 0.543864 0.750000
#
# Coordination Sequence:
#
# PCOD9289022 Si02
#       5
#     8   4   8   8   8
#     4  11  22  37  60  89 118 157 188 237 290 357
#     4  12  22  34  58  90 124 152 186 230 296 358
#     4  12  22  36  62  88 121 155 188 235 298 347
#     4  10  22  40  56  88 121 149 201 237 280 356
#     4  11  23  38  58  87 122 153 194 236 292 341
#
# _framework density 18.251460000000002
#
# number of rings (size 3 to 8) (size 9 to 14) (size 15 to 20)
#    0.000    0.889    8.889    0.000    1.556    7.111 
#    0.000    0.000    0.000    1.333    0.000    0.000 
#    0.000    0.000    0.000    0.000    0.000    0.000 
#
# Total GULP energy -100464.427891 kJ/mol
# GULP energy per Si atom -5581.357105 kJ/mol
# Density = 1.820992 g / cm^3
# Si number density = 18.251460 Si / 1000 Ang^3
#
#
#
# Elastic Constant Matrix: (Units=GPa)
#
#
# Indices 1 2 3 4 5 6 
#
# 1 159.3401 23.2908 56.4916 0.0010 36.7110 0.0012
# 2 23.2908 10.8261 16.8488 0.0005 1.8707 -0.0003
# 3 56.4916 16.8488 102.8169 0.0021 54.6420 0.0023
# 4 0.0010 0.0005 0.0021 -6.8440 -0.0022 -8.0093
# 5 36.7110 1.8707 54.6420 -0.0022 26.9680 -0.0021
# 6 0.0012 -0.0003 0.0023 -8.0093 -0.0021 9.1358
#
#
#
# Elastic Compliance Matrix: (Units=1/GPa)
#
#
# Indices 1 2 3 4 5 6 
#
# 1 0.006781 0.001856 -0.012292 -0.000007 0.015547 0.000000
# 2 0.001856 0.031479 0.047845 0.000045 -0.101654 0.000005
# 3 -0.012292 0.047845 -0.019664 -0.000022 0.053257 0.000000
# 4 -0.000007 0.000045 -0.000022 -0.072121 0.000041 -0.063227
# 5 0.015547 -0.101654 0.053257 0.000041 -0.084939 -0.000002
# 6 0.000000 0.000005 0.000000 -0.063227 -0.000002 0.054028
#
#
# Mechanical properties :
#
#
# Convention : Reuss Voigt Hill
#
# Bulk Modulus (GPa) = 10.70498 51.80506 31.25502
# Shear Modulus (GPa) = -39.02678 17.60877 -10.70900
#
# Velocity S-wave (km/s) = -4.62917 3.10947 -2.42492
# Velocity P-wave (km/s) = 4.76386 6.42942 3.05312
#
# Compressibility (1/GPa) = 0.09341443
#
# Stress axis : x y z
#
# Youngs Moduli (GPa) = 147.47919 31.76748 -50.85415
#
# Poissons Ratio (x) = -0.05897 -0.62510
# Poissons Ratio (y) = -0.27377 2.43313
# Poissons Ratio (z) = 1.81282 -1.51993
#
# Static dielectric constant tensor:
#      x y z
#    x 1.649440 0.000000 0.024120 
#    y 0.000000 1.622520 0.000000 
#    z 0.024120 0.000000 1.624040 
# 
# From -- ./inp_files/37577.got.cif
#   From: 2010.05.17/outbox.cif.g08.bks.cpg/sg15_19_cif.got.tgz:37577.got - 2010.06.03 18:47:42.
