data_PCOD9289414
_publ_section_title
;
Structure prediction by ZEFSAII (Michael W. Deem and Ramdas Pophale) SiO2 
 PCOD9289414
Probable space group: C 2/C
;
_chemical_formula_sum "Si O2"
_cell_formula_units_Z 48
_cell_length_a 29.466446
_cell_length_b 8.651680
_cell_length_c 18.208548
_cell_angle_alpha 90.000000
_cell_angle_beta 150.517845
_cell_angle_gamma 90.000000
_cell_volume 2284.563226
_symmetry_space_group_name_H-M "C 2/C"
_symmetry_group_IT_number 15
_symmetry_cell_setting 'monoclinic'
loop_
_space_group_symop_operation_xyz
x,y,z
-x,y,1/2-z
-x,-y,-z
x,-y,1/2+z
1/2+x,1/2+y,z
1/2-x,1/2+y,1/2-z
1/2-x,1/2-y,-z
1/2+x,1/2-y,1/2+z
loop_
_atom_site_type_symbol
_atom_site_label
_atom_site_fract_x
_atom_site_fract_y
_atom_site_fract_z
Si Si1 0.152568 0.688684 0.147991
Si Si2 0.509604 0.345008 0.844562
Si Si3 0.922245 0.812896 0.082242
Si Si4 0.741023 0.313841 0.405600
Si Si5 0.335433 0.821803 0.326353
Si Si6 0.815837 0.154147 0.146316
O O1 0.156118 0.759162 0.235033
O O2 0.238919 0.758953 0.223973
O O3 0.164433 0.505952 0.171085
O O4 0.062505 0.737202 0.976139
O O5 0.500000 0.272197 0.750000
O O6 0.566979 0.503358 0.913599
O O7 0.409191 0.387638 0.734274
O O8 0.000000 0.764887 0.250000
O O9 0.828105 0.758551 0.986858
O O10 0.917205 0.738595 0.994517
O O11 0.750000 0.250000 0.500000
O O12 0.735693 0.498466 0.401185
O O13 0.341698 0.754584 0.253748
O O14 0.750000 0.250000 0.000000
#
# Coordination Sequence:
#
# PCOD9289414 Si02
#       6
#     8   8   8   8   8   8
#     4  11  23  41  66  94 131 174 218 270 324 383
#     4  11  24  43  67  95 129 170 217 269 325 386
#     4  10  22  40  64  93 128 168 211 262 321 385
#     4  11  22  40  66  94 129 169 212 264 322 382
#     4  11  23  41  64  95 132 173 219 268 326 383
#     4  12  26  43  67  97 132 172 217 268 323 387
#
# _framework density 21.010580000000001
#
# number of rings (size 3 to 8) (size 9 to 14) (size 15 to 20)
#    0.000    1.000    0.000    9.000    0.000    8.000 
#    0.000    0.000    0.000    0.000    0.000    0.000 
#    0.000    0.000    0.000    0.000    0.000    0.000 
#
# Total GULP energy -134202.038778 kJ/mol
# GULP energy per Si atom -5591.751616 kJ/mol
# Density = 2.096276 g / cm^3
# Si number density = 21.010580 Si / 1000 Ang^3
#
#
#
# Elastic Constant Matrix: (Units=GPa)
#
#
# Indices 1 2 3 4 5 6 
#
# 1 102.1424 39.2725 46.5161 0.0000 -22.3628 0.0000
# 2 39.2725 163.3443 58.7751 0.0000 -20.4554 0.0000
# 3 46.5161 58.7751 132.1310 0.0000 -43.1906 0.0000
# 4 0.0000 0.0000 0.0000 33.6930 0.0000 -6.2062
# 5 -22.3628 -20.4554 -43.1906 0.0000 54.9865 0.0000
# 6 0.0000 0.0000 0.0000 -6.2062 0.0000 32.2860
#
#
#
# Elastic Compliance Matrix: (Units=1/GPa)
#
#
# Indices 1 2 3 4 5 6 
#
# 1 0.012187 -0.001632 -0.002883 0.000000 0.002085 0.000000
# 2 -0.001632 0.007509 -0.002785 0.000000 -0.000057 0.000000
# 3 -0.002883 -0.002785 0.012244 0.000000 0.007409 0.000000
# 4 0.000000 0.000000 0.000000 0.030769 0.000000 0.005915
# 5 0.002085 -0.000057 0.007409 0.000000 0.024832 0.000000
# 6 0.000000 0.000000 0.000000 0.005915 0.000000 0.032110
#
#
# Mechanical properties :
#
#
# Convention : Reuss Voigt Hill
#
# Bulk Modulus (GPa) = 57.66646 76.30501 66.98573
# Shear Modulus (GPa) = 35.70657 41.06336 38.38497
#
# Velocity S-wave (km/s) = 4.12692 4.42567 4.27890
# Velocity P-wave (km/s) = 7.08623 7.90643 7.50754
#
# Compressibility (1/GPa) = 0.01734110
#
# Stress axis : x y z
#
# Youngs Moduli (GPa) = 82.05455 133.17186 81.67534
#
# Poissons Ratio (x) = 0.21728 0.23548
# Poissons Ratio (y) = 0.13388 0.22743
# Poissons Ratio (z) = 0.23657 0.37083
#
# Static dielectric constant tensor:
#      x y z
#    x 1.770970 0.000000 -0.010040 
#    y 0.000000 1.721840 0.000000 
#    z -0.010040 0.000000 1.801710 
# 
# From -- ./inp_files/224701.got.cif
#   From: 2010.05.17/outbox.cif.g08.bks.cpg/sg15_113_cif.got.tgz:224701.got - 2010.06.03 18:47:42.
