data_PCOD9289310
_publ_section_title
;
Structure prediction by ZEFSAII (Michael W. Deem and Ramdas Pophale) SiO2 
 PCOD9289310
Probable space group: C 2/C
;
_chemical_formula_sum "Si O2"
_cell_formula_units_Z 40
_cell_length_a 8.695013
_cell_length_b 25.854527
_cell_length_c 8.234050
_cell_angle_alpha 90.000000
_cell_angle_beta 73.368307
_cell_angle_gamma 90.000000
_cell_volume 1773.619126
_symmetry_space_group_name_H-M "C 2/C"
_symmetry_group_IT_number 15
_symmetry_cell_setting 'monoclinic'
loop_
_space_group_symop_operation_xyz
x,y,z
-x,y,1/2-z
-x,-y,-z
x,-y,1/2+z
1/2+x,1/2+y,z
1/2-x,1/2+y,1/2-z
1/2-x,1/2-y,-z
1/2+x,1/2-y,1/2+z
loop_
_atom_site_type_symbol
_atom_site_label
_atom_site_fract_x
_atom_site_fract_y
_atom_site_fract_z
Si Si1 0.824705 0.127650 0.844846
Si Si2 0.692599 0.775617 0.188742
Si Si3 0.183865 0.535034 0.740569
Si Si4 0.830296 0.169418 0.205240
Si Si5 0.186372 0.932178 0.640649
O O1 0.776612 0.172894 0.731809
O O2 0.706261 0.079286 0.868775
O O3 0.000000 0.106932 0.750000
O O4 0.839575 0.148680 0.021432
O O5 0.500000 0.785552 0.250000
O O6 0.737114 0.726997 0.288796
O O7 0.750000 0.750000 0.000000
O O8 0.238582 0.479298 0.783348
O O9 0.285688 0.554556 0.555083
O O10 0.000000 0.532608 0.750000
O O11 0.743694 0.124473 0.335510
O O12 0.000000 0.176416 0.250000
O O13 0.000000 0.930160 0.750000
#
# Coordination Sequence:
#
# PCOD9289310 Si02
#       5
#     8   8   8   8   8
#     4  12  23  41  67  96 128 172 217 264 321 382
#     4  11  23  43  66  96 132 169 212 265 319 382
#     4  12  25  42  64  97 132 167 210 267 324 382
#     4  10  22  40  63  93 126 165 213 263 313 375
#     4  11  22  42  66  92 126 171 216 261 314 383
#
# _framework density 22.552755999999999
#
# number of rings (size 3 to 8) (size 9 to 14) (size 15 to 20)
#    0.000    0.800    0.000   10.200    0.000    0.000 
#    0.000    3.000    0.000    0.000    0.000    0.000 
#    0.000    0.000    0.000    0.000    0.000    0.000 
#
# Total GULP energy -111786.045276 kJ/mol
# GULP energy per Si atom -5589.302264 kJ/mol
# Density = 2.250143 g / cm^3
# Si number density = 22.552756 Si / 1000 Ang^3
#
#
#
# Elastic Constant Matrix: (Units=GPa)
#
#
# Indices 1 2 3 4 5 6 
#
# 1 91.4690 34.9946 8.5872 0.0000 7.4691 0.0000
# 2 34.9946 128.9075 -31.7985 0.0000 15.1268 0.0000
# 3 8.5872 -31.7985 69.3074 0.0000 6.6641 0.0000
# 4 0.0000 0.0000 0.0000 37.9117 0.0000 2.4160
# 5 7.4691 15.1268 6.6641 0.0000 23.0723 0.0000
# 6 0.0000 0.0000 0.0000 2.4160 0.0000 -16.8751
#
#
#
# Elastic Compliance Matrix: (Units=1/GPa)
#
#
# Indices 1 2 3 4 5 6 
#
# 1 0.012964 -0.004368 -0.003582 0.000000 -0.000299 0.000000
# 2 -0.004368 0.011514 0.006597 0.000000 -0.008040 0.000000
# 3 -0.003582 0.006597 0.018723 0.000000 -0.008574 0.000000
# 4 0.000000 0.000000 0.000000 0.026139 0.000000 0.003742
# 5 -0.000299 -0.008040 -0.008574 0.000000 0.051187 0.000000
# 6 0.000000 0.000000 0.000000 0.003742 0.000000 -0.058723
#
#
# Mechanical properties :
#
#
# Convention : Reuss Voigt Hill
#
# Bulk Modulus (GPa) = 24.69327 34.80562 29.74945
# Shear Modulus (GPa) = 64.09608 27.34847 45.72228
#
# Velocity S-wave (km/s) = 5.33687 3.48608 4.50749
# Velocity P-wave (km/s) = 6.99637 5.62763 6.34899
#
# Compressibility (1/GPa) = 0.04049687
#
# Stress axis : x y z
#
# Youngs Moduli (GPa) = 77.13435 86.85011 53.40931
#
# Poissons Ratio (x) = 0.37935 0.19129
# Poissons Ratio (y) = 0.33691 -0.35234
# Poissons Ratio (z) = 0.27626 -0.57295
#
# Static dielectric constant tensor:
#      x y z
#    x 1.808730 0.000000 -0.028140 
#    y 0.000000 1.862050 0.000000 
#    z -0.028140 0.000000 1.902570 
# 
# From -- ./inp_files/23494.got.cif
#   From: 2010.05.17/outbox.cif.g08.bks.cpg/sg15_12_cif.got.tgz:23494.got - 2010.06.03 18:47:42.
