data_PCOD9289005
_publ_section_title
;
Structure prediction by ZEFSAII (Michael W. Deem and Ramdas Pophale) SiO2 
 PCOD9289005
Probable space group: C 2/C
;
_chemical_formula_sum "Si O2"
_cell_formula_units_Z 48
_cell_length_a 13.186827
_cell_length_b 11.033002
_cell_length_c 14.975685
_cell_angle_alpha 90.000000
_cell_angle_beta 61.586996
_cell_angle_gamma 90.000000
_cell_volume 1916.357780
_symmetry_space_group_name_H-M "C 2/C"
_symmetry_group_IT_number 15
_symmetry_cell_setting 'monoclinic'
loop_
_space_group_symop_operation_xyz
x,y,z
-x,y,1/2-z
-x,-y,-z
x,-y,1/2+z
1/2+x,1/2+y,z
1/2-x,1/2+y,1/2-z
1/2-x,1/2-y,-z
1/2+x,1/2-y,1/2+z
loop_
_atom_site_type_symbol
_atom_site_label
_atom_site_fract_x
_atom_site_fract_y
_atom_site_fract_z
Si Si1 0.797469 0.260767 0.838586
Si Si2 0.290799 0.330856 0.901495
Si Si3 0.583267 0.085305 0.355763
Si Si4 0.560990 0.548971 0.634768
Si Si5 0.552895 0.707999 0.497477
Si Si6 0.900614 0.687196 0.696424
O O1 0.872246 0.357218 0.754948
O O2 0.877902 0.171390 0.857616
O O3 0.690922 0.315218 0.938339
O O4 0.727737 0.182150 0.794139
O O5 0.189172 0.387142 0.880611
O O6 0.348652 0.446659 0.922414
O O7 0.373793 0.247475 0.802908
O O8 0.250000 0.250000 0.000000
O O9 0.480611 0.163917 0.442875
O O10 0.552996 0.947480 0.342312
O O11 0.500000 0.503992 0.750000
O O12 0.507510 0.600594 0.921906
O O13 0.532012 0.723415 0.400297
#
# Coordination Sequence:
#
# PCOD9289005 Si02
#       6
#     8   8   8   8   8   8
#     4   9  21  38  66  96 137 172 233 279 345 398
#     4  11  26  43  65 100 142 182 227 296 351 404
#     4  11  20  44  69  99 137 183 231 284 345 421
#     4  12  23  44  67 105 139 178 234 288 341 422
#     4  10  22  39  73 101 132 183 231 284 346 408
#     4   9  22  41  67  94 136 179 229 276 347 409
#
# _framework density 25.047515000000001
#
# number of rings (size 3 to 8) (size 9 to 14) (size 15 to 20)
#    1.000    0.667    3.333    1.000    2.333    1.333 
#    0.000    1.667    0.000    0.000    0.000    0.000 
#    0.000    0.000    0.000    0.000    0.000    0.000 
#
# Total GULP energy -133989.061340 kJ/mol
# GULP energy per Si atom -5582.877556 kJ/mol
# Density = 2.499051 g / cm^3
# Si number density = 25.047515 Si / 1000 Ang^3
#
#
#
# Elastic Constant Matrix: (Units=GPa)
#
#
# Indices 1 2 3 4 5 6 
#
# 1 53.7853 25.6957 18.4203 0.0000 6.0930 0.0000
# 2 25.6957 126.5447 71.3276 0.0000 21.4330 0.0000
# 3 18.4203 71.3276 168.1966 0.0000 7.4620 0.0000
# 4 0.0000 0.0000 0.0000 48.1091 0.0000 -6.8708
# 5 6.0930 21.4330 7.4620 0.0000 33.5361 0.0000
# 6 0.0000 0.0000 0.0000 -6.8708 0.0000 29.5320
#
#
#
# Elastic Compliance Matrix: (Units=1/GPa)
#
#
# Indices 1 2 3 4 5 6 
#
# 1 0.020692 -0.003594 -0.000684 0.000000 -0.001310 0.000000
# 2 -0.003594 0.012219 -0.004515 0.000000 -0.006152 0.000000
# 3 -0.000684 -0.004515 0.007879 0.000000 0.001257 0.000000
# 4 0.000000 0.000000 0.000000 0.021501 0.000000 0.005002
# 5 -0.001310 -0.006152 0.001257 0.000000 0.033708 0.000000
# 6 0.000000 0.000000 0.000000 0.005002 0.000000 0.035025
#
#
# Mechanical properties :
#
#
# Convention : Reuss Voigt Hill
#
# Bulk Modulus (GPa) = 43.09606 64.37930 53.73768
# Shear Modulus (GPa) = 31.98025 37.77431 34.87728
#
# Velocity S-wave (km/s) = 3.57709 3.88765 3.73560
# Velocity P-wave (km/s) = 5.85695 6.77572 6.33302
#
# Compressibility (1/GPa) = 0.02320398
#
# Stress axis : x y z
#
# Youngs Moduli (GPa) = 48.32731 81.83876 126.91411
#
# Poissons Ratio (x) = 0.29416 0.08677
# Poissons Ratio (y) = 0.17371 0.57305
# Poissons Ratio (z) = 0.03304 0.36952
#
# Static dielectric constant tensor:
#      x y z
#    x 2.040560 0.000000 0.051690 
#    y 0.000000 1.905330 0.000000 
#    z 0.051690 0.000000 2.135080 
# 
# From -- ./inp_files/167155.got.cif
#   From: 2010.05.17/outbox.cif.g08.bks.cpg/sg15_84_cif.got.tgz:167155.got - 2010.06.03 18:47:42.
