data_PCOD9289213
_publ_section_title
;
Structure prediction by ZEFSAII (Michael W. Deem and Ramdas Pophale) SiO2 
 PCOD9289213
Probable space group: C 2/C
;
_chemical_formula_sum "Si O2"
_cell_formula_units_Z 52
_cell_length_a 14.314213
_cell_length_b 9.147437
_cell_length_c 28.461428
_cell_angle_alpha 90.000000
_cell_angle_beta 137.559017
_cell_angle_gamma 90.000000
_cell_volume 2514.885648
_symmetry_space_group_name_H-M "C 2/C"
_symmetry_group_IT_number 15
_symmetry_cell_setting 'monoclinic'
loop_
_space_group_symop_operation_xyz
x,y,z
-x,y,1/2-z
-x,-y,-z
x,-y,1/2+z
1/2+x,1/2+y,z
1/2-x,1/2+y,1/2-z
1/2-x,1/2-y,-z
1/2+x,1/2-y,1/2+z
loop_
_atom_site_type_symbol
_atom_site_label
_atom_site_fract_x
_atom_site_fract_y
_atom_site_fract_z
Si Si1 0.298929 0.899566 0.650997
Si Si2 0.520168 0.396736 0.941431
Si Si3 0.484484 0.926970 0.045228
Si Si4 0.720532 0.100239 0.462647
Si Si5 0.000000 0.348026 0.250000
Si Si6 0.593086 0.350891 0.702409
Si Si7 0.732255 0.359311 0.294589
O O1 0.339905 0.879304 0.611993
O O2 0.336082 0.754955 0.694532
O O3 0.133543 0.921843 0.595377
O O4 0.371227 0.042424 0.698469
O O5 0.565854 0.240122 0.978574
O O6 0.498097 0.382448 0.877277
O O7 0.635107 0.516837 0.991797
O O8 0.631849 0.916989 0.126905
O O9 0.379787 0.009206 0.040785
O O10 0.500000 0.000000 0.000000
O O11 0.750000 0.250000 0.500000
O O12 0.010213 0.243959 0.209075
O O13 0.648154 0.501845 0.744925
O O14 0.715620 0.245152 0.728538
#
# Coordination Sequence:
#
# PCOD9289213 Si02
#       7
#     8   8   8   8   4   8   8
#     4  10  23  42  62  89 126 164 208 258 308 366
#     4  10  23  42  62  87 124 165 206 254 306 367
#     4  10  22  41  64  91 124 162 206 256 308 369
#     4  12  24  38  62  93 124 162 207 255 308 367
#     4  12  24  38  62  94 124 160 204 256 312 370
#     4  10  22  40  62  90 119 161 206 253 311 369
#     4  10  22  42  63  87 122 163 205 255 310 368
#
# _framework density 20.676884000000001
#
# number of rings (size 3 to 8) (size 9 to 14) (size 15 to 20)
#    0.000    1.846    0.000    6.462    0.000    8.000 
#    0.000    0.000    0.000    0.000    0.000    0.000 
#    0.000    0.000    0.000    0.000    0.000    0.000 
#
# Total GULP energy -145330.677975 kJ/mol
# GULP energy per Si atom -5589.641461 kJ/mol
# Density = 2.062982 g / cm^3
# Si number density = 20.676884 Si / 1000 Ang^3
#
#
#
# Elastic Constant Matrix: (Units=GPa)
#
#
# Indices 1 2 3 4 5 6 
#
# 1 107.5933 48.8848 38.5554 0.0000 -19.2862 0.0000
# 2 48.8848 152.0566 52.0490 0.0000 -3.4268 0.0000
# 3 38.5554 52.0490 62.8202 0.0000 -23.6868 0.0000
# 4 0.0000 0.0000 0.0000 28.4258 0.0000 -16.9201
# 5 -19.2862 -3.4268 -23.6868 0.0000 29.0547 0.0000
# 6 0.0000 0.0000 0.0000 -16.9201 0.0000 12.6664
#
#
#
# Elastic Compliance Matrix: (Units=1/GPa)
#
#
# Indices 1 2 3 4 5 6 
#
# 1 0.012769 -0.002765 -0.003571 0.000000 0.005239 0.000000
# 2 -0.002765 0.011027 -0.011032 0.000000 -0.009529 0.000000
# 3 -0.003571 -0.011032 0.037347 0.000000 0.026775 0.000000
# 4 0.000000 0.000000 0.000000 0.171721 0.000000 0.229390
# 5 0.005239 -0.009529 0.026775 0.000000 0.058600 0.000000
# 6 0.000000 0.000000 0.000000 0.229390 0.000000 0.385375
#
#
# Mechanical properties :
#
#
# Convention : Reuss Voigt Hill
#
# Bulk Modulus (GPa) = 37.86915 66.82761 52.34838
# Shear Modulus (GPa) = 6.94082 26.22809 16.58445
#
# Velocity S-wave (km/s) = 1.83414 3.56543 2.83517
# Velocity P-wave (km/s) = 4.77911 7.02423 6.00749
#
# Compressibility (1/GPa) = 0.02640672
#
# Stress axis : x y z
#
# Youngs Moduli (GPa) = 78.31419 90.68679 26.77618
#
# Poissons Ratio (x) = 0.25073 0.09561
# Poissons Ratio (y) = 0.21652 0.29540
# Poissons Ratio (z) = 0.27965 1.00049
#
# Static dielectric constant tensor:
#      x y z
#    x 1.779960 0.000000 0.240980 
#    y 0.000000 1.726670 0.000000 
#    z 0.240980 0.000000 3.346390 
# 
# From -- ./inp_files/242382.got.cif
#   From: 2010.05.17/outbox.cif.g08.bks.cpg/sg15_122_cif.got.tgz:242382.got - 2010.06.03 18:47:42.
