data_PCOD9289779
_publ_section_title
;
Structure prediction by ZEFSAII (Michael W. Deem and Ramdas Pophale) SiO2 
 PCOD9289779
Probable space group: C 2/C
;
_chemical_formula_sum "Si O2"
_cell_formula_units_Z 56
_cell_length_a 10.342024
_cell_length_b 23.779775
_cell_length_c 19.472066
_cell_angle_alpha 90.000000
_cell_angle_beta 145.478346
_cell_angle_gamma 90.000000
_cell_volume 2713.888887
_symmetry_space_group_name_H-M "C 2/C"
_symmetry_group_IT_number 15
_symmetry_cell_setting 'monoclinic'
loop_
_space_group_symop_operation_xyz
x,y,z
-x,y,1/2-z
-x,-y,-z
x,-y,1/2+z
1/2+x,1/2+y,z
1/2-x,1/2+y,1/2-z
1/2-x,1/2-y,-z
1/2+x,1/2-y,1/2+z
loop_
_atom_site_type_symbol
_atom_site_label
_atom_site_fract_x
_atom_site_fract_y
_atom_site_fract_z
Si Si1 0.242147 0.652937 0.318290
Si Si2 0.393307 0.679726 0.626917
Si Si3 0.098614 0.280540 0.627077
Si Si4 0.011414 0.963600 0.574166
Si Si5 0.077532 0.935828 0.205723
Si Si6 0.715115 0.285822 0.052805
Si Si7 0.453176 0.902848 0.150563
O O1 0.213849 0.674841 0.228083
O O2 0.306918 0.587156 0.350116
O O3 0.457574 0.687528 0.443533
O O4 0.000000 0.663842 0.250000
O O5 0.500000 0.679951 0.750000
O O6 0.519835 0.727868 0.639423
O O7 0.433034 0.617344 0.614091
O O8 0.127101 0.693341 0.506472
O O9 0.244368 0.254405 0.630255
O O10 0.767121 0.934219 0.474247
O O11 0.052058 0.007126 0.652828
O O12 0.000000 0.000000 0.500000
O O13 0.334919 0.915072 0.305671
O O14 0.000000 0.943857 0.250000
O O15 0.888881 0.337536 0.126621
O O16 0.750000 0.250000 0.000000
O O17 0.500000 0.921710 0.250000
#
# Coordination Sequence:
#
# PCOD9289779 Si02
#       7
#     8   8   8   8   8   8   8
#     4  11  26  45  70 107 138 182 243 289 357 425
#     4  10  22  40  68 102 136 174 231 279 351 416
#     4  11  22  40  69  98 140 180 225 297 339 418
#     4  11  26  47  72 104 138 186 246 300 354 423
#     4  11  26  45  73 103 138 189 237 297 355 427
#     4  11  27  43  65 103 144 186 228 283 356 431
#     4  11  24  45  72 101 138 185 237 288 358 425
#
# _framework density 20.634595999999998
#
# number of rings (size 3 to 8) (size 9 to 14) (size 15 to 20)
#    0.000    1.143    1.429    3.857   14.000    0.571 
#    5.143    0.000    0.000    0.000    0.000    0.000 
#    0.000    0.000    0.000    0.000    0.000    0.000 
#
# Total GULP energy -156653.493241 kJ/mol
# GULP energy per Si atom -5594.767616 kJ/mol
# Density = 2.058763 g / cm^3
# Si number density = 20.634596 Si / 1000 Ang^3
#
#
#
# Elastic Constant Matrix: (Units=GPa)
#
#
# Indices 1 2 3 4 5 6 
#
# 1 142.2250 53.1057 49.8167 0.0006 7.8908 -0.0001
# 2 53.1057 129.3188 40.6768 0.0012 -2.9414 -0.0001
# 3 49.8167 40.6768 84.7533 0.0034 -2.6369 -0.0091
# 4 0.0006 0.0012 0.0034 8.4627 -0.0009 7.5778
# 5 7.8908 -2.9414 -2.6369 -0.0009 30.3428 -0.0005
# 6 -0.0001 -0.0001 -0.0091 7.5778 -0.0005 12.5952
#
#
#
# Elastic Compliance Matrix: (Units=1/GPa)
#
#
# Indices 1 2 3 4 5 6 
#
# 1 0.009809 -0.002657 -0.004590 0.000009 -0.003207 -0.000009
# 2 -0.002657 0.009835 -0.003116 0.000005 0.001374 -0.000005
# 3 -0.004590 -0.003116 0.016063 -0.000034 0.002288 0.000032
# 4 0.000009 0.000005 -0.000034 0.256181 0.000000 -0.154130
# 5 -0.003207 0.001374 0.002288 0.000000 0.034123 0.000003
# 6 -0.000009 -0.000005 0.000032 -0.154130 0.000003 0.172127
#
#
# Mechanical properties :
#
#
# Convention : Reuss Voigt Hill
#
# Bulk Modulus (GPa) = 66.74825 71.49949 69.12387
# Shear Modulus (GPa) = 9.54455 24.45999 17.00227
#
# Velocity S-wave (km/s) = 2.15303 3.44668 2.87360
# Velocity P-wave (km/s) = 6.21278 7.11091 6.67696
#
# Compressibility (1/GPa) = 0.01498167
#
# Stress axis : x y z
#
# Youngs Moduli (GPa) = 101.94702 101.67385 62.25314
#
# Poissons Ratio (x) = 0.27018 0.28574
# Poissons Ratio (y) = 0.27091 0.19396
# Poissons Ratio (z) = 0.46794 0.31679
#
# Static dielectric constant tensor:
#      x y z
#    x 1.732610 0.000000 0.007070 
#    y 0.000000 1.747250 0.000000 
#    z 0.007070 0.000000 1.758540 
# 
# From -- ./inp_files/193885.got.cif
#   From: 2010.05.17/outbox.cif.g08.bks.cpg/sg15_97_cif.got.tgz:193885.got - 2010.06.03 18:47:42.
