data_PCOD9289971
_publ_section_title
;
Structure prediction by ZEFSAII (Michael W. Deem and Ramdas Pophale) SiO2 
 PCOD9289971
Probable space group: C 2/C
;
_chemical_formula_sum "Si O2"
_cell_formula_units_Z 28
_cell_length_a 13.033923
_cell_length_b 20.285101
_cell_length_c 8.393285
_cell_angle_alpha 90.000000
_cell_angle_beta 144.855759
_cell_angle_gamma 90.000000
_cell_volume 1277.417489
_symmetry_space_group_name_H-M "C 2/C"
_symmetry_group_IT_number 15
_symmetry_cell_setting 'monoclinic'
loop_
_space_group_symop_operation_xyz
x,y,z
-x,y,1/2-z
-x,-y,-z
x,-y,1/2+z
1/2+x,1/2+y,z
1/2-x,1/2+y,1/2-z
1/2-x,1/2-y,-z
1/2+x,1/2-y,1/2+z
loop_
_atom_site_type_symbol
_atom_site_label
_atom_site_fract_x
_atom_site_fract_y
_atom_site_fract_z
Si Si1 0.770784 0.457620 0.843991
Si Si2 0.500000 0.588240 0.750000
Si Si3 0.708880 0.181045 0.536271
Si Si4 0.853322 0.410027 0.289975
O O1 0.596135 0.448846 0.516222
O O2 0.830927 0.533143 0.895703
O O3 0.753926 0.436348 0.005557
O O4 0.936618 0.413343 0.988517
O O5 0.346183 0.633118 0.626614
O O6 0.750000 0.250000 0.500000
O O7 0.721063 0.159459 0.739104
O O8 0.500000 0.167830 0.250000
#
# Coordination Sequence:
#
# PCOD9289971 Si02
#       4
#     8   4   8   8
#     4  10  22  40  71 111 137 180 221 299 360 413
#     4  12  24  42  76 104 138 182 234 284 360 414
#     4  12  25  45  70  98 137 192 238 284 340 414
#     4  10  22  42  69 104 148 174 231 288 357 418
#
# _framework density 21.919224
#
# number of rings (size 3 to 8) (size 9 to 14) (size 15 to 20)
#    0.000    1.143    4.286    1.714    4.000    5.714 
#    0.000    1.429    6.286    0.000    0.000    0.000 
#    0.000    0.000    0.000    0.000    0.000    0.000 
#
# Total GULP energy -78085.353538 kJ/mol
# GULP energy per Si atom -5577.525253 kJ/mol
# Density = 2.186933 g / cm^3
# Si number density = 21.919224 Si / 1000 Ang^3
#
#
#
# Elastic Constant Matrix: (Units=GPa)
#
#
# Indices 1 2 3 4 5 6 
#
# 1 140.7864 77.6752 50.8485 0.0000 -5.2569 0.0000
# 2 77.6752 89.7190 34.2223 0.0000 -11.0420 0.0000
# 3 50.8485 34.2223 155.3923 0.0000 -11.0580 0.0000
# 4 0.0000 0.0000 0.0000 19.4540 0.0000 4.9963
# 5 -5.2569 -11.0420 -11.0580 0.0000 51.6313 0.0000
# 6 0.0000 0.0000 0.0000 4.9963 0.0000 57.0037
#
#
#
# Elastic Compliance Matrix: (Units=1/GPa)
#
#
# Indices 1 2 3 4 5 6 
#
# 1 0.014325 -0.011747 -0.002209 0.000000 -0.001527 0.000000
# 2 -0.011747 0.022021 -0.000767 0.000000 0.003349 0.000000
# 3 -0.002209 -0.000767 0.007412 0.000000 0.001199 0.000000
# 4 0.000000 0.000000 0.000000 0.052587 0.000000 -0.004609
# 5 -0.001527 0.003349 0.001199 0.000000 0.020186 0.000000
# 6 0.000000 0.000000 0.000000 -0.004609 0.000000 0.017947
#
#
# Mechanical properties :
#
#
# Convention : Reuss Voigt Hill
#
# Bulk Modulus (GPa) = 69.87570 79.04326 74.45948
# Shear Modulus (GPa) = 29.63903 40.49458 35.06680
#
# Velocity S-wave (km/s) = 3.68121 4.30286 4.00411
# Velocity P-wave (km/s) = 7.07222 7.79907 7.44452
#
# Compressibility (1/GPa) = 0.01431113
#
# Stress axis : x y z
#
# Youngs Moduli (GPa) = 69.80735 45.41062 134.90761
#
# Poissons Ratio (x) = 0.53346 0.29802
# Poissons Ratio (y) = 0.82006 0.10352
# Poissons Ratio (z) = 0.15421 0.03485
#
# Static dielectric constant tensor:
#      x y z
#    x 1.867860 0.000000 -0.033370 
#    y 0.000000 1.825790 0.000000 
#    z -0.033370 0.000000 1.841030 
# 
# From -- ./inp_files/22472.got.cif
#   From: 2010.05.17/outbox.cif.g08.bks.cpg/sg15_12_cif.got.tgz:22472.got - 2010.06.03 18:47:42.
