data_PCOD9289370
_publ_section_title
;
Structure prediction by ZEFSAII (Michael W. Deem and Ramdas Pophale) SiO2 
 PCOD9289370
Probable space group: C 2/C
;
_chemical_formula_sum "Si O2"
_cell_formula_units_Z 40
_cell_length_a 34.272723
_cell_length_b 8.040955
_cell_length_c 17.016396
_cell_angle_alpha 90.000000
_cell_angle_beta 20.318302
_cell_angle_gamma 90.000000
_cell_volume 1628.349407
_symmetry_space_group_name_H-M "C 2/C"
_symmetry_group_IT_number 15
_symmetry_cell_setting 'monoclinic'
loop_
_space_group_symop_operation_xyz
x,y,z
-x,y,1/2-z
-x,-y,-z
x,-y,1/2+z
1/2+x,1/2+y,z
1/2-x,1/2+y,1/2-z
1/2-x,1/2-y,-z
1/2+x,1/2-y,1/2+z
loop_
_atom_site_type_symbol
_atom_site_label
_atom_site_fract_x
_atom_site_fract_y
_atom_site_fract_z
Si Si1 0.589603 0.368754 0.649509
Si Si2 0.389255 0.991931 0.156456
Si Si3 0.686503 0.934780 0.044385
Si Si4 0.179697 0.808213 0.008870
Si Si5 0.174380 0.248645 0.338173
O O1 0.500000 0.374845 0.750000
O O2 0.599509 0.535420 0.683301
O O3 0.711042 0.357175 0.377793
O O4 0.590341 0.194069 0.695217
O O5 0.303192 0.906507 0.382037
O O6 0.311743 0.143969 0.273260
O O7 0.411603 0.870739 0.041492
O O8 0.500000 0.000000 0.000000
O O9 0.663363 0.130545 0.079202
O O10 0.790555 0.895748 0.789227
O O11 0.150491 0.793483 0.971825
#
# Coordination Sequence:
#
# PCOD9289370 Si02
#       5
#     8   8   8   8   8
#     4   9  22  36  62  90 125 163 214 254 322 371
#     4  11  24  41  65  99 129 168 217 262 322 376
#     4  10  22  40  64  87 131 166 208 267 321 364
#     4  11  22  42  65  93 129 168 216 261 317 389
#     4   9  22  41  63  88 132 165 207 263 317 379
#
# _framework density 24.564751000000001
#
# number of rings (size 3 to 8) (size 9 to 14) (size 15 to 20)
#    1.200    0.800    0.000    3.600    2.800    2.400 
#    0.000    1.000    0.000    0.000    0.000    0.000 
#    0.000    0.000    0.000    0.000    0.000    0.000 
#
# Total GULP energy -111456.090495 kJ/mol
# GULP energy per Si atom -5572.804525 kJ/mol
# Density = 2.450884 g / cm^3
# Si number density = 24.564751 Si / 1000 Ang^3
#
#
#
# Elastic Constant Matrix: (Units=GPa)
#
#
# Indices 1 2 3 4 5 6 
#
# 1 119.5479 28.4409 21.9149 0.0000 -21.5805 0.0000
# 2 28.4409 165.6823 16.1345 0.0000 -22.6532 0.0000
# 3 21.9149 16.1345 55.9745 0.0000 -29.7567 0.0000
# 4 0.0000 0.0000 0.0000 17.4400 0.0000 -5.8922
# 5 -21.5805 -22.6532 -29.7567 0.0000 52.3843 0.0000
# 6 0.0000 0.0000 0.0000 -5.8922 0.0000 37.2819
#
#
#
# Elastic Compliance Matrix: (Units=1/GPa)
#
#
# Indices 1 2 3 4 5 6 
#
# 1 0.009423 -0.001108 -0.002236 0.000000 0.002133 0.000000
# 2 -0.001108 0.006557 -0.000274 0.000000 0.002223 0.000000
# 3 -0.002236 -0.000274 0.026170 0.000000 0.013826 0.000000
# 4 0.000000 0.000000 0.000000 0.060574 0.000000 0.009573
# 5 0.002133 0.002223 0.013826 0.000000 0.028783 0.000000
# 6 0.000000 0.000000 0.000000 0.009573 0.000000 0.028336
#
#
# Mechanical properties :
#
#
# Convention : Reuss Voigt Hill
#
# Bulk Modulus (GPa) = 28.64330 52.68726 40.66528
# Shear Modulus (GPa) = 27.97713 39.73553 33.85633
#
# Velocity S-wave (km/s) = 3.37844 4.02628 3.71650
# Velocity P-wave (km/s) = 5.18692 6.56578 5.91665
#
# Compressibility (1/GPa) = 0.03491218
#
# Stress axis : x y z
#
# Youngs Moduli (GPa) = 106.11860 152.51944 38.21200
#
# Poissons Ratio (x) = 0.16903 0.08545
# Poissons Ratio (y) = 0.11761 0.01048
# Poissons Ratio (z) = 0.23731 0.04183
#
# Static dielectric constant tensor:
#      x y z
#    x 1.906960 0.000000 -0.011940 
#    y 0.000000 2.109370 0.000000 
#    z -0.011940 0.000000 2.037050 
# 
# From -- ./inp_files/224202.got.cif
#   From: 2010.05.17/outbox.cif.g08.bks.cpg/sg15_113_cif.got.tgz:224202.got - 2010.06.03 18:47:42.
