data_PCOD9289166
_publ_section_title
;
Structure prediction by ZEFSAII (Michael W. Deem and Ramdas Pophale) SiO2 
 PCOD9289166
Probable space group: C 2/C
;
_chemical_formula_sum "Si O2"
_cell_formula_units_Z 56
_cell_length_a 11.662863
_cell_length_b 16.821719
_cell_length_c 15.810910
_cell_angle_alpha 90.000000
_cell_angle_beta 122.891585
_cell_angle_gamma 90.000000
_cell_volume 2604.692006
_symmetry_space_group_name_H-M "C 2/C"
_symmetry_group_IT_number 15
_symmetry_cell_setting 'monoclinic'
loop_
_space_group_symop_operation_xyz
x,y,z
-x,y,1/2-z
-x,-y,-z
x,-y,1/2+z
1/2+x,1/2+y,z
1/2-x,1/2+y,1/2-z
1/2-x,1/2-y,-z
1/2+x,1/2-y,1/2+z
loop_
_atom_site_type_symbol
_atom_site_label
_atom_site_fract_x
_atom_site_fract_y
_atom_site_fract_z
Si Si1 0.165925 0.460140 0.682451
Si Si2 0.403874 0.799039 0.928176
Si Si3 0.500000 0.608710 0.750000
Si Si4 0.555700 0.132840 0.635038
Si Si5 0.500000 0.115968 0.250000
Si Si6 0.872843 0.248931 0.614104
Si Si7 0.406375 0.476688 0.382467
Si Si8 0.291944 0.839540 0.137603
O O1 0.164480 0.385194 0.618878
O O2 0.036022 0.439319 0.687515
O O3 0.298144 0.462158 0.796453
O O4 0.130706 0.550104 0.639764
O O5 0.483091 0.759594 0.879985
O O6 0.290643 0.739431 0.918148
O O7 0.526043 0.814869 0.042103
O O8 0.380934 0.670186 0.674297
O O9 0.521946 0.557450 0.674024
O O10 0.638957 0.174412 0.743215
O O11 0.404995 0.127193 0.618269
O O12 0.623919 0.173661 0.325283
O O13 0.750000 0.250000 0.500000
O O14 0.500000 0.500000 0.500000
O O15 0.315267 0.407854 0.386352
#
# Coordination Sequence:
#
# PCOD9289166 Si02
#       8
#     8   8   4   8   4   8   8   8
#     4  10  22  40  61  92 129 164 222 272 325 406
#     4  11  22  39  65  99 122 170 227 277 330 397
#     4  11  24  46  60  98 133 166 230 268 335 402
#     4  10  22  40  64  89 130 178 211 276 343 406
#     4   9  20  38  60  90 121 160 218 260 323 398
#     4  10  23  37  65  94 126 169 210 283 334 389
#     4  11  25  42  66  93 133 181 216 279 344 405
#     4  10  22  42  62  93 130 170 223 276 334 408
#
# _framework density 21.499662000000001
#
# number of rings (size 3 to 8) (size 9 to 14) (size 15 to 20)
#    0.000    1.714    1.429    2.571    6.000    2.286 
#    0.000    1.429    0.000    0.000    0.000    0.000 
#    0.000    0.000    0.000    0.000    0.000    0.000 
#
# Total GULP energy -156068.179759 kJ/mol
# GULP energy per Si atom -5573.863563 kJ/mol
# Density = 2.145073 g / cm^3
# Si number density = 21.499662 Si / 1000 Ang^3
#
#
#
# Elastic Constant Matrix: (Units=GPa)
#
#
# Indices 1 2 3 4 5 6 
#
# 1 59.7650 17.0241 25.1291 0.0000 -4.5680 0.0000
# 2 17.0241 37.0791 31.7666 0.0000 11.5372 0.0000
# 3 25.1291 31.7666 146.9520 0.0000 6.7562 0.0000
# 4 0.0000 0.0000 0.0000 20.0401 0.0000 4.3521
# 5 -4.5680 11.5372 6.7562 0.0000 28.6781 0.0000
# 6 0.0000 0.0000 0.0000 4.3521 0.0000 12.5694
#
#
#
# Elastic Compliance Matrix: (Units=1/GPa)
#
#
# Indices 1 2 3 4 5 6 
#
# 1 0.021123 -0.010806 -0.001648 0.000000 0.008100 0.000000
# 2 -0.010806 0.043076 -0.006660 0.000000 -0.017482 0.000000
# 3 -0.001648 -0.006660 0.008508 0.000000 0.000413 0.000000
# 4 0.000000 0.000000 0.000000 0.053957 0.000000 -0.018683
# 5 0.008100 -0.017482 0.000413 0.000000 0.043096 0.000000
# 6 0.000000 0.000000 0.000000 -0.018683 0.000000 0.086027
#
#
# Mechanical properties :
#
#
# Convention : Reuss Voigt Hill
#
# Bulk Modulus (GPa) = 29.00498 43.51508 36.26003
# Shear Modulus (GPa) = 16.36618 23.58260 19.97439
#
# Velocity S-wave (km/s) = 2.76203 3.31551 3.05135
# Velocity P-wave (km/s) = 4.86744 5.91106 5.41445
#
# Compressibility (1/GPa) = 0.03447684
#
# Stress axis : x y z
#
# Youngs Moduli (GPa) = 47.34277 23.21477 117.54206
#
# Poissons Ratio (x) = 0.25086 0.19376
# Poissons Ratio (y) = 0.51159 0.78285
# Poissons Ratio (z) = 0.07804 0.15461
#
# Static dielectric constant tensor:
#      x y z
#    x 1.858250 0.000000 -0.010010 
#    y 0.000000 1.834530 0.000000 
#    z -0.010010 0.000000 1.821470 
# 
# From -- ./inp_files/199616.got.cif
#   From: 2010.05.17/outbox.cif.g08.bks.cpg/sg15_100_cif.got.tgz:199616.got - 2010.06.03 18:47:42.
