data_PCOD9289116
_publ_section_title
;
Structure prediction by ZEFSAII (Michael W. Deem and Ramdas Pophale) SiO2 
 PCOD9289116
Probable space group: C 2/C
;
_chemical_formula_sum "Si O2"
_cell_formula_units_Z 24
_cell_length_a 15.772851
_cell_length_b 11.440815
_cell_length_c 6.744651
_cell_angle_alpha 90.000000
_cell_angle_beta 117.034992
_cell_angle_gamma 90.000000
_cell_volume 1084.107338
_symmetry_space_group_name_H-M "C 2/C"
_symmetry_group_IT_number 15
_symmetry_cell_setting 'monoclinic'
loop_
_space_group_symop_operation_xyz
x,y,z
-x,y,1/2-z
-x,-y,-z
x,-y,1/2+z
1/2+x,1/2+y,z
1/2-x,1/2+y,1/2-z
1/2-x,1/2-y,-z
1/2+x,1/2-y,1/2+z
loop_
_atom_site_type_symbol
_atom_site_label
_atom_site_fract_x
_atom_site_fract_y
_atom_site_fract_z
Si Si1 0.074768 0.478162 0.457215
Si Si2 0.606833 0.287932 0.889358
Si Si3 0.225185 0.323377 0.167012
O O1 0.048447 0.495374 0.176646
O O2 0.094849 0.339390 0.480170
O O3 0.166506 0.561997 0.550700
O O4 0.500000 0.335792 0.750000
O O5 0.658177 0.257260 0.736947
O O6 0.680988 0.355080 0.106481
O O7 0.250000 0.250000 0.000000
#
# Coordination Sequence:
#
# PCOD9289116 Si02
#       3
#     8   8   8
#     4  11  19  37  65  91 121 159 209 257 303 366
#     4  10  22  40  60  92 129 162 207 263 306 373
#     4  11  23  35  62  98 127 160 210 259 316 363
#
# _framework density 22.138030000000001
#
# number of rings (size 3 to 8) (size 9 to 14) (size 15 to 20)
#    0.000    1.333    6.667    2.000    0.000    0.000 
#    0.000    0.000    0.000   10.000    0.000    0.000 
#    0.000    0.000    0.000    0.000    0.000    0.000 
#
# Total GULP energy -67027.167201 kJ/mol
# GULP energy per Si atom -5585.597267 kJ/mol
# Density = 2.208764 g / cm^3
# Si number density = 22.138030 Si / 1000 Ang^3
#
#
#
# Elastic Constant Matrix: (Units=GPa)
#
#
# Indices 1 2 3 4 5 6 
#
# 1 149.8086 17.6184 61.5994 0.0000 17.2475 0.0000
# 2 17.6184 45.3958 26.3852 0.0000 20.5624 0.0000
# 3 61.5994 26.3852 164.6217 0.0000 54.2930 0.0000
# 4 0.0000 0.0000 0.0000 46.1809 0.0000 9.0106
# 5 17.2475 20.5624 54.2930 0.0000 74.4198 0.0000
# 6 0.0000 0.0000 0.0000 9.0106 0.0000 31.5583
#
#
#
# Elastic Compliance Matrix: (Units=1/GPa)
#
#
# Indices 1 2 3 4 5 6 
#
# 1 0.008015 -0.001738 -0.002984 0.000000 0.000800 0.000000
# 2 -0.001738 0.026232 -0.001707 0.000000 -0.005600 0.000000
# 3 -0.002984 -0.001707 0.009325 0.000000 -0.005640 0.000000
# 4 0.000000 0.000000 0.000000 0.022931 0.000000 -0.006547
# 5 0.000800 -0.005600 -0.005640 0.000000 0.018913 0.000000
# 6 0.000000 0.000000 0.000000 -0.006547 0.000000 0.033557
#
#
# Mechanical properties :
#
#
# Convention : Reuss Voigt Hill
#
# Bulk Modulus (GPa) = 32.56083 63.44801 48.00442
# Shear Modulus (GPa) = 35.19409 47.38003 41.28706
#
# Velocity S-wave (km/s) = 3.99150 4.63126 4.32323
# Velocity P-wave (km/s) = 5.99857 7.57103 6.83020
#
# Compressibility (1/GPa) = 0.03071174
#
# Stress axis : x y z
#
# Youngs Moduli (GPa) = 124.77265 38.12175 107.24155
#
# Poissons Ratio (x) = 0.06627 0.32003
# Poissons Ratio (y) = 0.21690 0.18307
# Poissons Ratio (z) = 0.37234 0.06508
#
# Static dielectric constant tensor:
#      x y z
#    x 1.850020 0.000000 -0.040260 
#    y 0.000000 1.725800 0.000000 
#    z -0.040260 0.000000 1.930840 
# 
# From -- ./inp_files/3200.got.cif
#   From: 2010.05.17/outbox.cif.g08.bks.cpg/sg15_2_cif.got.tgz:3200.got - 2010.06.03 18:47:42.
