data_PCOD9289636
_publ_section_title
;
Structure prediction by ZEFSAII (Michael W. Deem and Ramdas Pophale) SiO2 
 PCOD9289636
Probable space group: C 2/C
;
_chemical_formula_sum "Si O2"
_cell_formula_units_Z 60
_cell_length_a 25.213797
_cell_length_b 9.958711
_cell_length_c 20.959366
_cell_angle_alpha 90.000000
_cell_angle_beta 31.106224
_cell_angle_gamma 90.000000
_cell_volume 2718.917743
_symmetry_space_group_name_H-M "C 2/C"
_symmetry_group_IT_number 15
_symmetry_cell_setting 'monoclinic'
loop_
_space_group_symop_operation_xyz
x,y,z
-x,y,1/2-z
-x,-y,-z
x,-y,1/2+z
1/2+x,1/2+y,z
1/2-x,1/2+y,1/2-z
1/2-x,1/2-y,-z
1/2+x,1/2-y,1/2+z
loop_
_atom_site_type_symbol
_atom_site_label
_atom_site_fract_x
_atom_site_fract_y
_atom_site_fract_z
Si Si1 0.181616 0.164690 0.254280
Si Si2 0.000000 0.865852 0.750000
Si Si3 0.596455 0.248137 0.286323
Si Si4 0.814761 0.003497 0.876322
Si Si5 0.475276 0.185458 0.661911
Si Si6 0.713304 0.613140 0.778504
Si Si7 0.614348 0.028911 0.164113
Si Si8 0.059779 0.554889 0.000588
O O1 0.207096 0.092887 0.161188
O O2 0.074643 0.238895 0.346762
O O3 0.260976 0.284860 0.189758
O O4 0.169331 0.041609 0.318943
O O5 0.106046 0.939802 0.655940
O O6 0.973731 0.784908 0.841366
O O7 0.615532 0.377021 0.223752
O O8 0.653413 0.289780 0.292112
O O9 0.636381 0.129131 0.200061
O O10 0.488024 0.189910 0.420723
O O11 0.706670 0.042087 0.019134
O O12 0.390638 0.114898 0.795385
O O13 0.545014 0.064477 0.566123
O O14 0.825410 0.583302 0.635587
O O15 0.500000 0.051476 0.250000
O O16 0.000000 0.500000 0.000000
#
# Coordination Sequence:
#
# PCOD9289636 Si02
#       8
#     8   4   8   8   8   8   8   8
#     4  10  23  41  69  98 140 174 236 281 343 416
#     4  10  22  40  66  94 146 174 226 282 356 410
#     4  10  25  40  65 104 131 175 235 278 350 409
#     4  10  24  44  66  98 141 180 224 293 348 416
#     4  10  22  41  64 104 129 178 240 277 342 423
#     4  11  23  43  70  99 140 185 225 291 345 411
#     4  11  24  42  71 100 132 180 239 283 345 421
#     4  11  22  42  73  95 137 184 233 283 344 419
#
# _framework density 22.067605
#
# number of rings (size 3 to 8) (size 9 to 14) (size 15 to 20)
#    0.000    1.600    2.000    1.200   10.267    4.267 
#    0.000    2.667    5.867    0.000    0.000    0.000 
#    0.000    0.000    0.000    0.000    0.000    0.000 
#
# Total GULP energy -167222.981797 kJ/mol
# GULP energy per Si atom -5574.099393 kJ/mol
# Density = 2.201738 g / cm^3
# Si number density = 22.067605 Si / 1000 Ang^3
#
#
#
# Elastic Constant Matrix: (Units=GPa)
#
#
# Indices 1 2 3 4 5 6 
#
# 1 77.8225 50.3510 2.1390 0.0000 -18.9045 -0.0001
# 2 50.3510 97.7338 23.0053 -0.0003 -18.8727 0.0004
# 3 2.1390 23.0053 56.2236 -0.0001 -12.0536 0.0004
# 4 0.0000 -0.0003 -0.0001 11.6970 0.0000 3.7533
# 5 -18.9045 -18.8727 -12.0536 0.0000 22.1208 0.0000
# 6 -0.0001 0.0004 0.0004 3.7533 0.0000 31.8865
#
#
#
# Elastic Compliance Matrix: (Units=1/GPa)
#
#
# Indices 1 2 3 4 5 6 
#
# 1 0.022989 -0.010652 0.006508 0.000000 0.014105 0.000000
# 2 -0.010652 0.017695 -0.006284 0.000000 0.002569 0.000000
# 3 0.006508 -0.006284 0.022818 0.000000 0.012634 0.000000
# 4 0.000000 0.000000 0.000000 0.088848 0.000000 -0.010458
# 5 0.014105 0.002569 0.012634 0.000000 0.066336 0.000000
# 6 0.000000 0.000000 0.000000 -0.010458 0.000000 0.032592
#
#
# Mechanical properties :
#
#
# Convention : Reuss Voigt Hill
#
# Bulk Modulus (GPa) = 23.44909 42.53004 32.98956
# Shear Modulus (GPa) = 17.46113 23.55984 20.51049
#
# Velocity S-wave (km/s) = 2.81598 3.27099 3.05198
# Velocity P-wave (km/s) = 4.60674 5.79485 5.23461
#
# Compressibility (1/GPa) = 0.04264558
#
# Stress axis : x y z
#
# Youngs Moduli (GPa) = 43.49955 56.51372 43.82430
#
# Poissons Ratio (x) = 0.60196 -0.28519
# Poissons Ratio (y) = 0.46334 0.27540
# Poissons Ratio (z) = -0.28308 0.35514
#
# Static dielectric constant tensor:
#      x y z
#    x 1.848850 0.000000 0.009400 
#    y 0.000000 1.930340 0.000000 
#    z 0.009400 0.000000 1.819940 
# 
# From -- ./inp_files/283386.got.cif
#   From: 2010.05.17/outbox.cif.g08.bks.cpg/sg15_142_cif.got.tgz:283386.got - 2010.06.03 18:47:42.
