data_PCOD9289591
_publ_section_title
;
Structure prediction by ZEFSAII (Michael W. Deem and Ramdas Pophale) SiO2 
 PCOD9289591
Probable space group: C 2/C
;
_chemical_formula_sum "Si O2"
_cell_formula_units_Z 60
_cell_length_a 18.758453
_cell_length_b 18.339866
_cell_length_c 11.458669
_cell_angle_alpha 90.000000
_cell_angle_beta 139.432186
_cell_angle_gamma 90.000000
_cell_volume 2563.733563
_symmetry_space_group_name_H-M "C 2/C"
_symmetry_group_IT_number 15
_symmetry_cell_setting 'monoclinic'
loop_
_space_group_symop_operation_xyz
x,y,z
-x,y,1/2-z
-x,-y,-z
x,-y,1/2+z
1/2+x,1/2+y,z
1/2-x,1/2+y,1/2-z
1/2-x,1/2-y,-z
1/2+x,1/2-y,1/2+z
loop_
_atom_site_type_symbol
_atom_site_label
_atom_site_fract_x
_atom_site_fract_y
_atom_site_fract_z
Si Si1 0.080994 0.677160 0.113863
Si Si2 0.107158 0.409710 0.246791
Si Si3 0.398208 0.451375 0.043436
Si Si4 0.829327 0.566719 0.104417
Si Si5 0.220035 0.921365 0.234110
Si Si6 0.324353 0.211685 0.493584
Si Si7 0.992848 0.161904 0.987695
Si Si8 0.000000 0.831200 0.750000
O O1 0.117810 0.640094 0.279485
O O2 0.010401 0.751424 0.037091
O O3 0.185589 0.690072 0.155765
O O4 0.000132 0.620125 0.949894
O O5 0.105480 0.495132 0.272981
O O6 0.213313 0.397138 0.296496
O O7 0.129838 0.360545 0.387866
O O8 0.500000 0.477911 0.250000
O O9 0.440637 0.381000 0.027393
O O10 0.292524 0.438143 0.991905
O O11 0.355764 0.510667 0.897436
O O12 0.810329 0.562579 0.943425
O O13 0.133575 0.863400 0.174268
O O14 0.250000 0.250000 0.500000
O O15 0.411059 0.276191 0.590353
O O16 0.037935 0.136112 0.173086
#
# Coordination Sequence:
#
# PCOD9289591 Si02
#       8
#     8   8   8   8   8   8   8   4
#     4  11  25  47  69 107 142 184 239 290 359 426
#     4  11  23  45  68  97 143 188 234 290 357 417
#     4  11  25  47  71  99 139 189 236 298 365 423
#     4  11  27  45  68 103 139 191 236 290 357 433
#     4  11  26  44  68 105 134 185 241 286 360 426
#     4  11  22  42  72 105 139 182 239 297 346 411
#     4  11  23  43  71 101 139 179 231 297 353 425
#     4  10  22  40  66 110 130 176 228 290 358 402
#
# _framework density 23.403368
#
# number of rings (size 3 to 8) (size 9 to 14) (size 15 to 20)
#    0.000    1.067    4.000    2.400    6.533    3.200 
#    4.800    0.000    0.000    0.000    0.000    0.000 
#    0.000    0.000    0.000    0.000    0.000    0.000 
#
# Total GULP energy -167525.997040 kJ/mol
# GULP energy per Si atom -5584.199901 kJ/mol
# Density = 2.335010 g / cm^3
# Si number density = 23.403368 Si / 1000 Ang^3
#
#
#
# Elastic Constant Matrix: (Units=GPa)
#
#
# Indices 1 2 3 4 5 6 
#
# 1 62.4930 37.5943 8.6962 0.0000 -2.4345 0.0000
# 2 37.5943 89.5921 56.2424 0.0000 -14.3082 0.0000
# 3 8.6962 56.2424 98.6804 0.0000 -19.8606 0.0000
# 4 0.0000 0.0000 0.0000 33.9826 0.0000 2.4265
# 5 -2.4345 -14.3082 -19.8606 0.0000 32.0571 0.0000
# 6 0.0000 0.0000 0.0000 2.4265 0.0000 -0.1177
#
#
#
# Elastic Compliance Matrix: (Units=1/GPa)
#
#
# Indices 1 2 3 4 5 6 
#
# 1 0.023161 -0.013182 0.005303 0.000000 -0.000839 0.000000
# 2 -0.013182 0.024979 -0.012604 0.000000 0.002339 0.000000
# 3 0.005303 -0.012604 0.018049 0.000000 0.005959 0.000000
# 4 0.000000 0.000000 0.000000 0.011905 0.000000 0.245391
# 5 -0.000839 0.002339 0.005959 0.000000 0.035867 0.000000
# 6 0.000000 0.000000 0.000000 0.245391 0.000000 -3.436697
#
#
# Mechanical properties :
#
#
# Convention : Reuss Voigt Hill
#
# Bulk Modulus (GPa) = 39.64576 50.64792 45.14684
# Shear Modulus (GPa) = -1.52748 23.06657 10.76955
#
# Velocity S-wave (km/s) = -0.80876 3.14285 2.14749
# Velocity P-wave (km/s) = 4.01308 5.90409 5.04793
#
# Compressibility (1/GPa) = 0.02522338
#
# Stress axis : x y z
#
# Youngs Moduli (GPa) = 43.17617 40.03376 55.40323
#
# Poissons Ratio (x) = 0.52771 -0.29380
# Poissons Ratio (y) = 0.56913 0.69831
# Poissons Ratio (z) = -0.22896 0.50459
#
# Static dielectric constant tensor:
#      x y z
#    x 2.021280 0.000000 -0.040010 
#    y 0.000000 1.876690 0.000000 
#    z -0.040010 0.000000 1.896530 
# 
# From -- ./inp_files/113829.got.cif
#   From: 2010.05.17/outbox.cif.g08.bks.cpg/sg15_57_cif.got.tgz:113829.got - 2010.06.03 18:47:42.
