data_PCOD9289062
_publ_section_title
;
Structure prediction by ZEFSAII (Michael W. Deem and Ramdas Pophale) SiO2 
 PCOD9289062
Probable space group: C 2/C
;
_chemical_formula_sum "Si O2"
_cell_formula_units_Z 24
_cell_length_a 6.313999
_cell_length_b 11.872236
_cell_length_c 11.444138
_cell_angle_alpha 90.000000
_cell_angle_beta 96.482818
_cell_angle_gamma 90.000000
_cell_volume 852.381894
_symmetry_space_group_name_H-M "C 2/C"
_symmetry_group_IT_number 15
_symmetry_cell_setting 'monoclinic'
loop_
_space_group_symop_operation_xyz
x,y,z
-x,y,1/2-z
-x,-y,-z
x,-y,1/2+z
1/2+x,1/2+y,z
1/2-x,1/2+y,1/2-z
1/2-x,1/2-y,-z
1/2+x,1/2-y,1/2+z
loop_
_atom_site_type_symbol
_atom_site_label
_atom_site_fract_x
_atom_site_fract_y
_atom_site_fract_z
Si Si1 0.557499 0.316351 0.424805
Si Si2 0.855992 0.801822 0.639132
Si Si3 0.063773 0.555563 0.628881
O O1 0.750000 0.250000 0.500000
O O2 0.393002 0.225552 0.359100
O O3 0.419962 0.364351 0.524333
O O4 0.686000 0.407950 0.358082
O O5 0.000000 0.851148 0.750000
O O6 0.943052 0.674658 0.629409
O O7 0.000000 0.499686 0.750000
O O8 0.000000 0.500000 0.500000
#
# Coordination Sequence:
#
# PCOD9289062 Si02
#       3
#     8   8   8
#     4   9  19  38  61  91 124 156 214 268 317 378
#     4   9  19  38  65  93 117 166 216 267 320 373
#     4  10  22  40  59  91 129 171 209 261 325 386
#
# _framework density 28.156393000000001
#
# number of rings (size 3 to 8) (size 9 to 14) (size 15 to 20)
#    0.000    2.667    0.000    0.000    0.000   13.333 
#   18.000    0.000    0.000    0.000    0.000    0.000 
#    0.000    0.000    0.000    0.000    0.000    0.000 
#
# Total GULP energy -66937.540710 kJ/mol
# GULP energy per Si atom -5578.128393 kJ/mol
# Density = 2.809231 g / cm^3
# Si number density = 28.156393 Si / 1000 Ang^3
#
#
#
# Elastic Constant Matrix: (Units=GPa)
#
#
# Indices 1 2 3 4 5 6 
#
# 1 262.1222 39.1818 108.2322 0.0000 4.3837 0.0000
# 2 39.1818 95.8694 30.5740 0.0000 -16.4014 0.0000
# 3 108.2322 30.5740 222.8513 0.0000 -34.3747 0.0000
# 4 0.0000 0.0000 0.0000 36.9017 0.0000 2.6377
# 5 4.3837 -16.4014 -34.3747 0.0000 47.4792 0.0000
# 6 0.0000 0.0000 0.0000 2.6377 0.0000 29.8291
#
#
#
# Elastic Compliance Matrix: (Units=1/GPa)
#
#
# Indices 1 2 3 4 5 6 
#
# 1 0.005299 -0.001808 -0.002811 0.000000 -0.003149 0.000000
# 2 -0.001808 0.011924 -0.000109 0.000000 0.004207 0.000000
# 3 -0.002811 -0.000109 0.006644 0.000000 0.005032 0.000000
# 4 0.000000 0.000000 0.000000 0.027271 0.000000 -0.002412
# 5 -0.003149 0.004207 0.005032 0.000000 0.026449 0.000000
# 6 0.000000 0.000000 0.000000 -0.002412 0.000000 0.033738
#
#
# Mechanical properties :
#
#
# Convention : Reuss Voigt Hill
#
# Bulk Modulus (GPa) = 69.39248 104.09098 86.74173
# Shear Modulus (GPa) = 39.81407 49.69899 44.75653
#
# Velocity S-wave (km/s) = 3.76444 4.20587 3.99127
# Velocity P-wave (km/s) = 6.60254 7.78684 7.21902
#
# Compressibility (1/GPa) = 0.01441078
#
# Stress axis : x y z
#
# Youngs Moduli (GPa) = 188.72858 83.86297 150.51920
#
# Poissons Ratio (x) = 0.15160 0.42312
# Poissons Ratio (y) = 0.34118 0.01641
# Poissons Ratio (z) = 0.53053 0.00914
#
# Static dielectric constant tensor:
#      x y z
#    x 2.363630 0.000000 0.034440 
#    y 0.000000 2.284590 0.000000 
#    z 0.034440 0.000000 2.451240 
# 
# From -- ./inp_files/71428.got.cif
#   From: 2010.05.17/outbox.cif.g08.bks.cpg/sg15_36_cif.got.tgz:71428.got - 2010.06.03 18:47:42.
