data_PCOD9289540
_publ_section_title
;
Structure prediction by ZEFSAII (Michael W. Deem and Ramdas Pophale) SiO2 
 PCOD9289540
Probable space group: C 2/C
;
_chemical_formula_sum "Si O2"
_cell_formula_units_Z 40
_cell_length_a 21.477199
_cell_length_b 8.043281
_cell_length_c 10.452231
_cell_angle_alpha 90.000000
_cell_angle_beta 120.454089
_cell_angle_gamma 90.000000
_cell_volume 1556.485467
_symmetry_space_group_name_H-M "C 2/C"
_symmetry_group_IT_number 15
_symmetry_cell_setting 'monoclinic'
loop_
_space_group_symop_operation_xyz
x,y,z
-x,y,1/2-z
-x,-y,-z
x,-y,1/2+z
1/2+x,1/2+y,z
1/2-x,1/2+y,1/2-z
1/2-x,1/2-y,-z
1/2+x,1/2-y,1/2+z
loop_
_atom_site_type_symbol
_atom_site_label
_atom_site_fract_x
_atom_site_fract_y
_atom_site_fract_z
Si Si1 0.551293 0.689017 0.184539
Si Si2 0.709155 0.460672 0.594303
Si Si3 0.088479 0.133189 0.621940
Si Si4 0.085793 0.509321 0.106176
Si Si5 0.702200 0.937752 0.061120
O O1 0.500000 0.722526 0.250000
O O2 0.590902 0.511586 0.229193
O O3 0.602110 0.841993 0.201421
O O4 0.493577 0.663200 0.008928
O O5 0.637136 0.565569 0.555299
O O6 0.697382 0.262837 0.564214
O O7 0.754896 0.504296 0.516065
O O8 0.756168 0.497558 0.769546
O O9 0.111045 0.315846 0.692629
O O10 0.121756 0.502889 0.003999
O O11 0.000000 0.500000 0.000000
#
# Coordination Sequence:
#
# PCOD9289540 Si02
#       5
#     8   8   8   8   8
#     4  10  22  40  65  96 132 174 225 276 334 409
#     4  11  25  44  71  99 141 182 231 286 343 416
#     4  10  22  41  64  95 133 174 221 278 340 395
#     4  10  22  42  66  96 133 176 224 278 342 402
#     4  11  25  45  68 102 138 183 231 284 346 412
#
# _framework density 25.698920999999999
#
# number of rings (size 3 to 8) (size 9 to 14) (size 15 to 20)
#    0.000    1.600    2.000    1.200    2.800    7.200 
#    0.000    0.000    0.000    0.000    0.000    0.000 
#    0.000    0.000    0.000    0.000    0.000    0.000 
#
# Total GULP energy -111852.091918 kJ/mol
# GULP energy per Si atom -5592.604596 kJ/mol
# Density = 2.564043 g / cm^3
# Si number density = 25.698921 Si / 1000 Ang^3
#
#
#
# Elastic Constant Matrix: (Units=GPa)
#
#
# Indices 1 2 3 4 5 6 
#
# 1 174.5380 46.1697 33.4976 0.0000 -28.4298 0.0000
# 2 46.1697 189.0065 19.4312 0.0000 -18.6497 0.0000
# 3 33.4976 19.4312 72.8933 0.0000 -21.4869 0.0000
# 4 0.0000 0.0000 0.0000 14.5588 0.0000 0.1859
# 5 -28.4298 -18.6497 -21.4869 0.0000 51.0870 0.0000
# 6 0.0000 0.0000 0.0000 0.1859 0.0000 36.5697
#
#
#
# Elastic Compliance Matrix: (Units=1/GPa)
#
#
# Indices 1 2 3 4 5 6 
#
# 1 0.006858 -0.001214 -0.002093 0.000000 0.002493 0.000000
# 2 -0.001214 0.005768 -0.000637 0.000000 0.001162 0.000000
# 3 -0.002093 -0.000637 0.016482 0.000000 0.005535 0.000000
# 4 0.000000 0.000000 0.000000 0.068691 0.000000 -0.000349
# 5 0.002493 0.001162 0.005535 0.000000 0.023714 0.000000
# 6 0.000000 0.000000 0.000000 -0.000349 0.000000 0.027347
#
#
# Mechanical properties :
#
#
# Convention : Reuss Voigt Hill
#
# Bulk Modulus (GPa) = 47.12721 70.51496 58.82109
# Shear Modulus (GPa) = 30.52098 42.93240 36.72669
#
# Velocity S-wave (km/s) = 3.44995 4.09172 3.78446
# Velocity P-wave (km/s) = 5.85214 7.05842 6.48340
#
# Compressibility (1/GPa) = 0.02121916
#
# Stress axis : x y z
#
# Youngs Moduli (GPa) = 145.80670 173.38393 60.67263
#
# Poissons Ratio (x) = 0.21051 0.12700
# Poissons Ratio (y) = 0.17703 0.03865
# Poissons Ratio (z) = 0.30520 0.11045
#
# Static dielectric constant tensor:
#      x y z
#    x 2.054410 0.000000 0.071860 
#    y 0.000000 2.178420 0.000000 
#    z 0.071860 0.000000 2.049250 
# 
# From -- ./inp_files/109781.got.cif
#   From: 2010.05.17/outbox.cif.g08.bks.cpg/sg15_55_cif.got.tgz:109781.got - 2010.06.03 18:47:42.
