data_PCOD9289138
_publ_section_title
;
Structure prediction by ZEFSAII (Michael W. Deem and Ramdas Pophale) SiO2 
 PCOD9289138
Probable space group: C 2/C
;
_chemical_formula_sum "Si O2"
_cell_formula_units_Z 40
_cell_length_a 8.086464
_cell_length_b 27.636286
_cell_length_c 14.095467
_cell_angle_alpha 90.000000
_cell_angle_beta 142.493525
_cell_angle_gamma 90.000000
_cell_volume 1917.912931
_symmetry_space_group_name_H-M "C 2/C"
_symmetry_group_IT_number 15
_symmetry_cell_setting 'monoclinic'
loop_
_space_group_symop_operation_xyz
x,y,z
-x,y,1/2-z
-x,-y,-z
x,-y,1/2+z
1/2+x,1/2+y,z
1/2-x,1/2+y,1/2-z
1/2-x,1/2-y,-z
1/2+x,1/2-y,1/2+z
loop_
_atom_site_type_symbol
_atom_site_label
_atom_site_fract_x
_atom_site_fract_y
_atom_site_fract_z
Si Si1 0.795107 0.123055 0.840674
Si Si2 0.176892 0.801822 0.425972
Si Si3 0.033599 0.532258 0.156214
Si Si4 0.132608 0.943616 0.953645
Si Si5 0.469839 0.112264 0.977395
O O1 0.500000 0.137540 0.750000
O O2 0.733180 0.107791 0.704335
O O3 0.005012 0.166832 0.924240
O O4 0.895924 0.079965 0.954723
O O5 0.250000 0.750000 0.500000
O O6 0.426315 0.835844 0.505722
O O7 0.000000 0.795439 0.250000
O O8 0.000000 0.546401 0.250000
O O9 0.359167 0.531519 0.293063
O O10 0.918181 0.572113 0.032990
O O11 0.874223 0.482635 0.067467
O O12 0.238349 0.900345 0.934999
#
# Coordination Sequence:
#
# PCOD9289138 Si02
#       5
#     8   8   8   8   8
#     4   9  20  42  64  88 125 166 208 261 317 372
#     4  10  22  41  65  91 119 158 207 262 324 381
#     4  12  24  38  60  94 130 173 215 257 308 369
#     4  11  24  41  62  93 130 171 214 260 309 369
#     4  10  22  40  61  88 124 164 205 256 312 371
#
# _framework density 20.856006000000001
#
# number of rings (size 3 to 8) (size 9 to 14) (size 15 to 20)
#    0.000    1.600    0.000    4.800    0.000    8.800 
#    0.000   13.000    0.000    0.000    0.000    0.000 
#    0.000    0.000    0.000    0.000    0.000    0.000 
#
# Total GULP energy -111765.726333 kJ/mol
# GULP energy per Si atom -5588.286317 kJ/mol
# Density = 2.080854 g / cm^3
# Si number density = 20.856006 Si / 1000 Ang^3
#
#
#
# Elastic Constant Matrix: (Units=GPa)
#
#
# Indices 1 2 3 4 5 6 
#
# 1 110.6681 64.1981 51.2650 0.0000 2.4873 0.0000
# 2 64.1981 165.3206 83.2487 0.0000 -1.3800 0.0000
# 3 51.2650 83.2487 86.8105 0.0000 13.7519 0.0000
# 4 0.0000 0.0000 0.0000 38.8544 0.0000 -0.2463
# 5 2.4873 -1.3800 13.7519 0.0000 38.4009 0.0000
# 6 0.0000 0.0000 0.0000 -0.2463 0.0000 27.3516
#
#
#
# Elastic Compliance Matrix: (Units=1/GPa)
#
#
# Indices 1 2 3 4 5 6 
#
# 1 0.012908 -0.002070 -0.005824 0.000000 0.001175 0.000000
# 2 -0.002070 0.012890 -0.011909 0.000000 0.004862 0.000000
# 3 -0.005824 -0.011909 0.027974 0.000000 -0.010069 0.000000
# 4 0.000000 0.000000 0.000000 0.025739 0.000000 0.000232
# 5 0.001175 0.004862 -0.010069 0.000000 0.029745 0.000000
# 6 0.000000 0.000000 0.000000 0.000232 0.000000 0.036563
#
#
# Mechanical properties :
#
#
# Convention : Reuss Voigt Hill
#
# Bulk Modulus (GPa) = 70.58925 84.46919 77.52922
# Shear Modulus (GPa) = 26.29534 31.86054 29.07794
#
# Velocity S-wave (km/s) = 3.55463 3.91275 3.73798
# Velocity P-wave (km/s) = 7.12508 7.81037 7.47558
#
# Compressibility (1/GPa) = 0.01416646
#
# Stress axis : x y z
#
# Youngs Moduli (GPa) = 77.46973 77.57778 35.74755
#
# Poissons Ratio (x) = 0.16060 0.20818
# Poissons Ratio (y) = 0.16038 0.42572
# Poissons Ratio (z) = 0.45116 0.92388
#
# Static dielectric constant tensor:
#      x y z
#    x 1.831520 0.000000 0.012360 
#    y 0.000000 1.712180 0.000000 
#    z 0.012360 0.000000 1.777730 
# 
# From -- ./inp_files/137619.got.cif
#   From: 2010.05.17/outbox.cif.g08.bks.cpg/sg15_69_cif.got.tgz:137619.got - 2010.06.03 18:47:42.
