data_PCOD9289719
_publ_section_title
;
Structure prediction by ZEFSAII (Michael W. Deem and Ramdas Pophale) SiO2 
 PCOD9289719
Probable space group: C 2/C
;
_chemical_formula_sum "Si O2"
_cell_formula_units_Z 48
_cell_length_a 20.763213
_cell_length_b 5.039947
_cell_length_c 21.221715
_cell_angle_alpha 90.000000
_cell_angle_beta 121.838389
_cell_angle_gamma 90.000000
_cell_volume 1886.620501
_symmetry_space_group_name_H-M "C 2/C"
_symmetry_group_IT_number 15
_symmetry_cell_setting 'monoclinic'
loop_
_space_group_symop_operation_xyz
x,y,z
-x,y,1/2-z
-x,-y,-z
x,-y,1/2+z
1/2+x,1/2+y,z
1/2-x,1/2+y,1/2-z
1/2-x,1/2-y,-z
1/2+x,1/2-y,1/2+z
loop_
_atom_site_type_symbol
_atom_site_label
_atom_site_fract_x
_atom_site_fract_y
_atom_site_fract_z
Si Si1 0.759768 0.043524 0.335060
Si Si2 0.057317 0.841779 0.837656
Si Si3 0.289250 0.570922 0.585836
Si Si4 0.136753 0.558656 0.466938
Si Si5 0.654992 0.044723 0.164227
Si Si6 0.996811 0.832379 0.063023
O O1 0.733942 0.172695 0.386228
O O2 0.688401 0.069746 0.251658
O O3 0.826405 0.242844 0.345323
O O4 0.790611 0.746678 0.346473
O O5 0.089055 0.578962 0.887687
O O6 0.000000 0.811044 0.750000
O O7 0.136109 0.942997 0.846218
O O8 0.021696 0.004460 0.880398
O O9 0.211885 0.415148 0.530315
O O10 0.326793 0.673214 0.540831
O O11 0.074415 0.635884 0.484910
O O12 0.571285 0.158280 0.114224
O O13 0.000000 0.000000 0.000000
#
# Coordination Sequence:
#
# PCOD9289719 Si02
#       6
#     8   8   8   8   8   8
#     4  10  22  40  67  93 137 180 235 284 355 417
#     4  11  25  42  67 101 137 180 232 295 358 424
#     4  10  22  43  66  94 130 176 233 289 343 423
#     4  10  24  42  68  96 129 180 229 287 357 423
#     4  10  23  40  62 101 133 183 228 290 351 428
#     4  11  25  43  67  98 137 179 234 294 356 424
#
# _framework density 25.442319000000001
#
# number of rings (size 3 to 8) (size 9 to 14) (size 15 to 20)
#    0.000    1.667    0.000    2.500    7.000    4.667 
#    0.000    0.000    0.000    0.000    0.000    0.000 
#    0.000    0.000    0.000    0.000    0.000    0.000 
#
# Total GULP energy -134070.503621 kJ/mol
# GULP energy per Si atom -5586.270984 kJ/mol
# Density = 2.538441 g / cm^3
# Si number density = 25.442319 Si / 1000 Ang^3
#
#
#
# Elastic Constant Matrix: (Units=GPa)
#
#
# Indices 1 2 3 4 5 6 
#
# 1 110.8808 -0.2839 71.5369 -0.0010 21.9137 -0.0029
# 2 -0.2839 54.6027 22.5316 -0.0032 -0.9991 -0.0076
# 3 71.5369 22.5316 208.4131 -0.0008 25.2501 -0.0036
# 4 -0.0010 -0.0032 -0.0008 30.9650 -0.0006 -8.6950
# 5 21.9137 -0.9991 25.2501 -0.0006 55.2279 -0.0015
# 6 -0.0029 -0.0076 -0.0036 -8.6950 -0.0015 12.8183
#
#
#
# Elastic Compliance Matrix: (Units=1/GPa)
#
#
# Indices 1 2 3 4 5 6 
#
# 1 0.012195 0.001661 -0.004005 0.000001 -0.002978 0.000003
# 2 0.001661 0.019494 -0.002796 0.000006 0.000971 0.000016
# 3 -0.004005 -0.002796 0.006657 -0.000001 -0.001505 -0.000001
# 4 0.000001 0.000006 -0.000001 0.039893 0.000001 0.027061
# 5 -0.002978 0.000971 -0.001505 0.000001 0.019994 0.000003
# 6 0.000003 0.000016 -0.000001 0.027061 0.000003 0.096370
#
#
# Mechanical properties :
#
#
# Convention : Reuss Voigt Hill
#
# Bulk Modulus (GPa) = 35.62639 62.38507 49.00573
# Shear Modulus (GPa) = 23.33852 38.47635 30.90743
#
# Velocity S-wave (km/s) = 3.03200 3.89305 3.48919
# Velocity P-wave (km/s) = 5.12743 6.69187 5.96120
#
# Compressibility (1/GPa) = 0.02806908
#
# Stress axis : x y z
#
# Youngs Moduli (GPa) = 81.99909 51.29758 150.20903
#
# Poissons Ratio (x) = -0.08523 0.60156
# Poissons Ratio (y) = -0.13624 0.41991
# Poissons Ratio (z) = 0.32839 0.14340
#
# Static dielectric constant tensor:
#      x y z
#    x 2.042790 0.000000 0.013600 
#    y 0.000000 2.084920 0.000000 
#    z 0.013600 0.000000 2.069160 
# 
# From -- ./inp_files/279026.got.cif
#   From: 2010.05.17/outbox.cif.g08.bks.cpg/sg15_140_cif.got.tgz:279026.got - 2010.06.03 18:47:42.
