data_PCOD9289459
_publ_section_title
;
Structure prediction by ZEFSAII (Michael W. Deem and Ramdas Pophale) SiO2 
 PCOD9289459
Probable space group: C 2/C
;
_chemical_formula_sum "Si O2"
_cell_formula_units_Z 40
_cell_length_a 22.964833
_cell_length_b 10.101351
_cell_length_c 18.166636
_cell_angle_alpha 90.000000
_cell_angle_beta 154.548254
_cell_angle_gamma 90.000000
_cell_volume 1811.064663
_symmetry_space_group_name_H-M "C 2/C"
_symmetry_group_IT_number 15
_symmetry_cell_setting 'monoclinic'
loop_
_space_group_symop_operation_xyz
x,y,z
-x,y,1/2-z
-x,-y,-z
x,-y,1/2+z
1/2+x,1/2+y,z
1/2-x,1/2+y,1/2-z
1/2-x,1/2-y,-z
1/2+x,1/2-y,1/2+z
loop_
_atom_site_type_symbol
_atom_site_label
_atom_site_fract_x
_atom_site_fract_y
_atom_site_fract_z
Si Si1 0.309060 0.471365 0.839001
Si Si2 0.065315 0.355601 0.070157
Si Si3 0.834722 0.305691 0.706162
Si Si4 0.851071 0.939379 0.117876
Si Si5 0.083309 0.885398 0.687780
O O1 0.220702 0.603675 0.744375
O O2 0.248006 0.349807 0.815761
O O3 0.315751 0.428683 0.762092
O O4 0.455925 0.515582 0.034241
O O5 0.041296 0.260238 0.112313
O O6 0.000000 0.500000 0.000000
O O7 0.989510 0.301729 0.911298
O O8 0.818493 0.168287 0.644683
O O9 0.772592 0.416622 0.579915
O O10 0.000000 0.912624 0.250000
O O11 0.858995 0.082083 0.166239
#
# Coordination Sequence:
#
# PCOD9289459 Si02
#       5
#     8   8   8   8   8
#     4  10  22  40  64  97 132 173 239 284 346 412
#     4  10  24  40  65  99 133 172 237 301 338 409
#     4  10  22  41  66  99 136 177 236 293 339 419
#     4  11  23  40  67 101 142 184 228 287 363 422
#     4  11  23  39  69  97 135 188 226 294 350 413
#
# _framework density 22.086455000000001
#
# number of rings (size 3 to 8) (size 9 to 14) (size 15 to 20)
#    0.000    1.600    2.000    2.400    8.400    1.600 
#    0.000    4.000    0.000    0.000    0.000    0.000 
#    0.000    0.000    0.000    0.000    0.000    0.000 
#
# Total GULP energy -111426.486067 kJ/mol
# GULP energy per Si atom -5571.324303 kJ/mol
# Density = 2.203619 g / cm^3
# Si number density = 22.086455 Si / 1000 Ang^3
#
#
#
# Elastic Constant Matrix: (Units=GPa)
#
#
# Indices 1 2 3 4 5 6 
#
# 1 99.2180 42.8726 39.4479 0.0000 1.3223 0.0000
# 2 42.8726 117.8030 26.3556 0.0000 -4.6484 0.0000
# 3 39.4479 26.3556 86.4513 0.0000 -14.1340 0.0000
# 4 0.0000 0.0000 0.0000 56.2316 0.0000 -2.4827
# 5 1.3223 -4.6484 -14.1340 0.0000 31.1460 0.0000
# 6 0.0000 0.0000 0.0000 -2.4827 0.0000 60.4264
#
#
#
# Elastic Compliance Matrix: (Units=1/GPa)
#
#
# Indices 1 2 3 4 5 6 
#
# 1 0.014204 -0.004003 -0.005894 0.000000 -0.003875 0.000000
# 2 -0.004003 0.010239 -0.001099 0.000000 0.001200 0.000000
# 3 -0.005894 -0.001099 0.015776 0.000000 0.007246 0.000000
# 4 0.000000 0.000000 0.000000 0.017816 0.000000 0.000732
# 5 -0.003875 0.001200 0.007246 0.000000 0.035738 0.000000
# 6 0.000000 0.000000 0.000000 0.000732 0.000000 0.016579
#
#
# Mechanical properties :
#
#
# Convention : Reuss Voigt Hill
#
# Bulk Modulus (GPa) = 54.86564 57.86941 56.36752
# Shear Modulus (GPa) = 36.12177 42.54722 39.33449
#
# Velocity S-wave (km/s) = 4.04848 4.39383 4.22469
# Velocity P-wave (km/s) = 6.83731 7.21105 7.02667
#
# Compressibility (1/GPa) = 0.01822634
#
# Stress axis : x y z
#
# Youngs Moduli (GPa) = 70.40313 97.66718 63.38626
#
# Poissons Ratio (x) = 0.39101 0.37362
# Poissons Ratio (y) = 0.28186 0.06963
# Poissons Ratio (z) = 0.41498 0.10729
#
# Static dielectric constant tensor:
#      x y z
#    x 1.868340 0.000000 0.021320 
#    y 0.000000 1.856920 0.000000 
#    z 0.021320 0.000000 1.895320 
# 
# From -- ./inp_files/215131.got.cif
#   From: 2010.05.17/outbox.cif.g08.bks.cpg/sg15_108_cif.got.tgz:215131.got - 2010.06.03 18:47:42.
