data_PCOD9289002
_publ_section_title
;
Structure prediction by ZEFSAII (Michael W. Deem and Ramdas Pophale) SiO2 
 PCOD9289002
Probable space group: C 2/C
;
_chemical_formula_sum "Si O2"
_cell_formula_units_Z 64
_cell_length_a 17.819019
_cell_length_b 11.202525
_cell_length_c 13.102876
_cell_angle_alpha 90.000000
_cell_angle_beta 88.990855
_cell_angle_gamma 90.000000
_cell_volume 2615.164294
_symmetry_space_group_name_H-M "C 2/C"
_symmetry_group_IT_number 15
_symmetry_cell_setting 'monoclinic'
loop_
_space_group_symop_operation_xyz
x,y,z
-x,y,1/2-z
-x,-y,-z
x,-y,1/2+z
1/2+x,1/2+y,z
1/2-x,1/2+y,1/2-z
1/2-x,1/2-y,-z
1/2+x,1/2-y,1/2+z
loop_
_atom_site_type_symbol
_atom_site_label
_atom_site_fract_x
_atom_site_fract_y
_atom_site_fract_z
Si Si1 0.421965 0.999860 0.063239
Si Si2 0.058453 0.162029 0.047385
Si Si3 0.949726 0.715971 0.160099
Si Si4 0.838863 0.726247 0.502316
Si Si5 0.311426 0.169334 0.941262
Si Si6 0.911173 0.949287 0.606016
Si Si7 0.225541 0.980384 0.271153
Si Si8 0.690837 0.231356 0.218105
O O1 0.443401 0.072291 0.163933
O O2 0.359418 0.083634 0.012521
O O3 0.500000 0.000000 0.000000
O O4 0.380264 0.874818 0.067416
O O5 0.124182 0.237689 0.099436
O O6 0.994335 0.104344 0.118883
O O7 0.025804 0.243316 0.953676
O O8 0.088061 0.054301 0.977348
O O9 0.865407 0.755548 0.187485
O O10 0.000000 0.764681 0.250000
O O11 0.750000 0.750000 0.500000
O O12 0.867975 0.846385 0.549068
O O13 0.855870 0.700537 0.382744
O O14 0.270072 0.080349 0.864714
O O15 0.250000 0.250000 0.000000
O O16 0.861190 0.988915 0.702299
O O17 0.227627 0.863074 0.197566
O O18 0.261839 0.112450 0.253760
#
# Coordination Sequence:
#
# PCOD9289002 Si02
#       8
#     8   8   8   8   8   8   8   8
#     4  11  23  42  68 101 138 184 230 288 349 433
#     4  10  22  39  72 100 137 182 236 291 353 432
#     4  11  23  42  69 103 140 183 233 295 365 426
#     4  12  24  41  69 100 133 183 240 288 350 427
#     4  11  20  41  69 102 134 182 237 291 351 434
#     4  11  21  43  67  99 135 181 236 294 346 440
#     4  12  25  45  70 102 149 184 245 301 374 431
#     4  12  26  45  69 105 147 189 235 307 368 434
#
# _framework density 24.472649000000001
#
# number of rings (size 3 to 8) (size 9 to 14) (size 15 to 20)
#    0.000    0.750    5.000    3.750    1.750    1.000 
#    0.000    0.000    0.000    0.750    0.000    0.000 
#    0.000    0.000    0.000    0.000    0.000    0.000 
#
# Total GULP energy -178539.476844 kJ/mol
# GULP energy per Si atom -5579.358651 kJ/mol
# Density = 2.441695 g / cm^3
# Si number density = 24.472649 Si / 1000 Ang^3
#
#
#
# Elastic Constant Matrix: (Units=GPa)
#
#
# Indices 1 2 3 4 5 6 
#
# 1 130.2735 57.6324 15.9368 0.0000 -16.5179 0.0000
# 2 57.6324 177.2726 21.9458 0.0000 2.1198 0.0000
# 3 15.9368 21.9458 34.5498 0.0000 -1.0088 0.0000
# 4 0.0000 0.0000 0.0000 32.7118 0.0000 2.5274
# 5 -16.5179 2.1198 -1.0088 0.0000 34.1399 0.0000
# 6 0.0000 0.0000 0.0000 2.5274 0.0000 47.0391
#
#
#
# Elastic Compliance Matrix: (Units=1/GPa)
#
#
# Indices 1 2 3 4 5 6 
#
# 1 0.009924 -0.002970 -0.002548 0.000000 0.004911 0.000000
# 2 -0.002970 0.007020 -0.003146 0.000000 -0.001966 0.000000
# 3 -0.002548 -0.003146 0.032115 0.000000 -0.000089 0.000000
# 4 0.000000 0.000000 0.000000 0.030697 0.000000 -0.001649
# 5 0.004911 -0.001966 -0.000089 0.000000 0.031787 0.000000
# 6 0.000000 0.000000 0.000000 -0.001649 0.000000 0.021348
#
#
# Mechanical properties :
#
#
# Convention : Reuss Voigt Hill
#
# Bulk Modulus (GPa) = 31.51528 59.23622 45.37575
# Shear Modulus (GPa) = 31.09539 39.21688 35.15614
#
# Velocity S-wave (km/s) = 3.56844 4.00744 3.79429
# Velocity P-wave (km/s) = 5.46663 6.75799 6.14632
#
# Compressibility (1/GPa) = 0.03173064
#
# Stress axis : x y z
#
# Youngs Moduli (GPa) = 100.76251 142.45997 31.13813
#
# Poissons Ratio (x) = 0.42307 0.07934
# Poissons Ratio (y) = 0.29924 0.09797
# Poissons Ratio (z) = 0.25675 0.44822
#
# Static dielectric constant tensor:
#      x y z
#    x 2.015410 0.000000 -0.032910 
#    y 0.000000 2.031890 0.000000 
#    z -0.032910 0.000000 1.980430 
# 
# From -- ./inp_files/161326.got.cif
#   From: 2010.05.17/outbox.cif.g08.bks.cpg/sg15_81_cif.got.tgz:161326.got - 2010.06.03 18:47:42.
