data_PCOD9289639
_publ_section_title
;
Structure prediction by ZEFSAII (Michael W. Deem and Ramdas Pophale) SiO2 
 PCOD9289639
Probable space group: C 2/C
;
_chemical_formula_sum "Si O2"
_cell_formula_units_Z 64
_cell_length_a 9.966678
_cell_length_b 17.573651
_cell_length_c 31.436121
_cell_angle_alpha 90.000000
_cell_angle_beta 142.430430
_cell_angle_gamma 90.000000
_cell_volume 3357.181901
_symmetry_space_group_name_H-M "C 2/C"
_symmetry_group_IT_number 15
_symmetry_cell_setting 'monoclinic'
loop_
_space_group_symop_operation_xyz
x,y,z
-x,y,1/2-z
-x,-y,-z
x,-y,1/2+z
1/2+x,1/2+y,z
1/2-x,1/2+y,1/2-z
1/2-x,1/2-y,-z
1/2+x,1/2-y,1/2+z
loop_
_atom_site_type_symbol
_atom_site_label
_atom_site_fract_x
_atom_site_fract_y
_atom_site_fract_z
Si Si1 0.475488 0.949440 0.176712
Si Si2 0.341928 0.199440 0.823288
Si Si3 0.691100 0.707211 0.028409
Si Si4 0.738734 0.470804 0.546002
Si Si5 0.122114 0.948651 0.161112
Si Si6 0.299053 0.957212 0.971591
Si Si7 0.758722 0.279196 0.953998
Si Si8 0.433444 0.301349 0.161112
O O1 0.540547 0.875000 0.166219
O O2 0.270002 0.931886 0.156445
O O3 0.691103 0.971848 0.257858
O O4 0.400899 0.014575 0.125876
O O5 0.521520 0.264575 0.874124
O O6 0.237777 0.181886 0.843555
O O7 0.151815 0.221848 0.742142
O O8 0.725066 0.617671 0.031404
O O9 0.833988 0.739742 0.103844
O O10 0.750000 0.750000 0.000000
O O11 0.440980 0.728809 0.976430
O O12 0.500000 0.500000 0.500000
O O13 0.808829 0.521191 0.523570
O O14 0.998906 0.875000 0.149562
O O15 0.935230 0.010257 0.103843
O O16 0.318043 0.867672 0.968595
O O17 0.500000 0.000000 0.000000
O O18 0.750000 0.250000 0.000000
#
# Coordination Sequence:
#
# PCOD9289639 Si02
#       8
#     8   8   8   8   8   8   8   8
#     4  10  22  40  66  95 127 168 212 262 316 379
#     4  10  22  40  66  95 127 168 212 262 316 379
#     4  12  26  43  63  93 130 169 209 262 318 376
#     4  12  24  41  65  94 126 164 214 264 312 372
#     4  10  22  41  64  94 131 169 208 257 324 383
#     4  12  26  43  63  93 130 169 209 262 318 376
#     4  12  24  41  65  94 126 164 214 264 312 372
#     4  10  22  41  64  94 131 169 208 257 324 383
#
# _framework density 19.063607000000001
#
# number of rings (size 3 to 8) (size 9 to 14) (size 15 to 20)
#    0.000    1.000    2.500    4.500    3.500    1.000 
#    0.000    2.500    0.000    3.000    0.000    0.000 
#    0.000    0.000    0.000    0.000    0.000    0.000 
#
# Total GULP energy -178886.961378 kJ/mol
# GULP energy per Si atom -5590.217543 kJ/mol
# Density = 1.902022 g / cm^3
# Si number density = 19.063607 Si / 1000 Ang^3
#
#
#
# Elastic Constant Matrix: (Units=GPa)
#
#
# Indices 1 2 3 4 5 6 
#
# 1 93.2480 -0.5811 27.9615 0.0000 -0.0129 0.0000
# 2 -0.5811 71.2785 34.9347 0.0000 -0.4672 0.0000
# 3 27.9615 34.9347 92.7943 0.0000 0.0189 0.0000
# 4 0.0000 0.0000 0.0000 39.0678 0.0000 -0.1635
# 5 -0.0129 -0.4672 0.0189 0.0000 33.1326 0.0000
# 6 0.0000 0.0000 0.0000 -0.1635 0.0000 26.6422
#
#
#
# Elastic Compliance Matrix: (Units=1/GPa)
#
#
# Indices 1 2 3 4 5 6 
#
# 1 0.012092 0.002311 -0.004514 0.000000 0.000040 0.000000
# 2 0.002311 0.017648 -0.007340 0.000000 0.000254 0.000000
# 3 -0.004514 -0.007340 0.014900 0.000000 -0.000114 0.000000
# 4 0.000000 0.000000 0.000000 0.025597 0.000000 0.000157
# 5 0.000040 0.000254 -0.000114 0.000000 0.030185 0.000000
# 6 0.000000 0.000000 0.000000 0.000157 0.000000 0.037535
#
#
# Mechanical properties :
#
#
# Convention : Reuss Voigt Hill
#
# Bulk Modulus (GPa) = 39.13315 42.43898 40.78607
# Shear Modulus (GPa) = 30.20027 32.76892 31.48460
#
# Velocity S-wave (km/s) = 3.98450 4.15049 4.06834
# Velocity P-wave (km/s) = 6.46069 6.72896 6.59619
#
# Compressibility (1/GPa) = 0.02555378
#
# Stress axis : x y z
#
# Youngs Moduli (GPa) = 82.69934 56.66503 67.11369
#
# Poissons Ratio (x) = -0.13096 0.30293
# Poissons Ratio (y) = -0.19113 0.49263
# Poissons Ratio (z) = 0.37328 0.41594
#
# Static dielectric constant tensor:
#      x y z
#    x 1.618780 0.000000 -0.000800 
#    y 0.000000 1.616310 0.000000 
#    z -0.000800 0.000000 1.679740 
# 
# From -- ./inp_files/308814.got.cif
#   From: 2010.05.17/outbox.cif.g08.bks.cpg/sg15_155_cif.got.tgz:308814.got - 2010.06.03 18:47:42.
