data_PCOD9289978
_publ_section_title
;
Structure prediction by ZEFSAII (Michael W. Deem and Ramdas Pophale) SiO2 
 PCOD9289978
Probable space group: C 2/C
;
_chemical_formula_sum "Si O2"
_cell_formula_units_Z 60
_cell_length_a 9.415197
_cell_length_b 22.994752
_cell_length_c 19.911393
_cell_angle_alpha 90.000000
_cell_angle_beta 138.971728
_cell_angle_gamma 90.000000
_cell_volume 2829.756730
_symmetry_space_group_name_H-M "C 2/C"
_symmetry_group_IT_number 15
_symmetry_cell_setting 'monoclinic'
loop_
_space_group_symop_operation_xyz
x,y,z
-x,y,1/2-z
-x,-y,-z
x,-y,1/2+z
1/2+x,1/2+y,z
1/2-x,1/2+y,1/2-z
1/2-x,1/2-y,-z
1/2+x,1/2-y,1/2+z
loop_
_atom_site_type_symbol
_atom_site_label
_atom_site_fract_x
_atom_site_fract_y
_atom_site_fract_z
Si Si1 0.252487 0.714780 0.673108
Si Si2 0.500000 0.061195 0.250000
Si Si3 0.443216 0.632510 0.530466
Si Si4 0.369627 0.418011 0.636700
Si Si5 0.242525 0.270361 0.318503
Si Si6 0.558084 0.493160 0.098565
Si Si7 0.807133 0.851642 0.832678
Si Si8 0.484770 0.162041 0.038331
O O1 0.500000 0.697665 0.750000
O O2 0.213781 0.699467 0.736087
O O3 0.236739 0.784922 0.668361
O O4 0.094518 0.689116 0.561084
O O5 0.400705 0.110970 0.265778
O O6 0.301287 0.016835 0.188230
O O7 0.621917 0.683085 0.590578
O O8 0.534336 0.575608 0.599924
O O9 0.371146 0.620940 0.427942
O O10 0.233451 0.651452 0.497693
O O11 0.500000 0.435249 0.750000
O O12 0.404553 0.469476 0.594185
O O13 0.497594 0.363756 0.648246
O O14 0.134702 0.393759 0.574277
O O15 0.378607 0.210772 0.372365
O O16 0.000000 0.255742 0.250000
O O17 0.500000 0.500000 0.000000
#
# Coordination Sequence:
#
# PCOD9289978 Si02
#       8
#     8   4   8   8   8   8   8   8
#     4  12  23  41  66 105 143 184 231 285 365 429
#     4  10  22  40  72 100 126 178 240 292 332 414
#     4  12  25  46  70 100 144 188 241 295 363 425
#     4  11  26  46  72 108 140 181 246 300 358 419
#     4  12  27  43  70 107 145 192 235 293 366 446
#     4  11  25  47  71 103 135 185 245 297 355 426
#     4  11  22  41  76  98 134 186 236 285 347 427
#     4  12  26  46  69 107 150 185 236 302 365 432
#
# _framework density 21.203234999999999
#
# number of rings (size 3 to 8) (size 9 to 14) (size 15 to 20)
#    0.000    0.533    6.000    3.200    6.533    1.600 
#    2.400    0.000    0.000    0.000    0.000    0.000 
#    0.000    0.000    0.000    0.000    0.000    0.000 
#
# Total GULP energy -167277.176613 kJ/mol
# GULP energy per Si atom -5575.905887 kJ/mol
# Density = 2.115498 g / cm^3
# Si number density = 21.203235 Si / 1000 Ang^3
#
#
#
# Elastic Constant Matrix: (Units=GPa)
#
#
# Indices 1 2 3 4 5 6 
#
# 1 59.2377 1.7052 20.8647 0.0000 -5.3326 0.0000
# 2 1.7052 102.2944 31.5894 0.0000 14.4198 0.0000
# 3 20.8647 31.5894 76.7229 0.0000 -2.0590 0.0002
# 4 0.0000 0.0000 0.0000 30.3012 0.0000 1.2275
# 5 -5.3326 14.4198 -2.0590 0.0000 48.3739 0.0000
# 6 0.0000 0.0000 0.0002 1.2275 0.0000 40.4214
#
#
#
# Elastic Compliance Matrix: (Units=1/GPa)
#
#
# Indices 1 2 3 4 5 6 
#
# 1 0.018957 0.001207 -0.005612 0.000000 0.001491 0.000000
# 2 0.001207 0.011916 -0.005332 0.000000 -0.003646 0.000000
# 3 -0.005612 -0.005332 0.016801 0.000000 0.001686 0.000000
# 4 0.000000 0.000000 0.000000 0.033043 0.000000 -0.001003
# 5 0.001491 -0.003646 0.001686 0.000000 0.021995 0.000000
# 6 0.000000 0.000000 0.000000 -0.001003 0.000000 0.024770
#
#
# Mechanical properties :
#
#
# Convention : Reuss Voigt Hill
#
# Bulk Modulus (GPa) = 35.46225 38.50815 36.98520
# Shear Modulus (GPa) = 31.97796 36.09235 34.03515
#
# Velocity S-wave (km/s) = 3.88772 4.13026 4.01082
# Velocity P-wave (km/s) = 6.07567 6.39893 6.23939
#
# Compressibility (1/GPa) = 0.02819900
#
# Stress axis : x y z
#
# Youngs Moduli (GPa) = 52.74981 83.91916 59.52039
#
# Poissons Ratio (x) = -0.10129 0.33405
# Poissons Ratio (y) = -0.06367 0.31739
# Poissons Ratio (z) = 0.29605 0.44749
#
# Static dielectric constant tensor:
#      x y z
#    x 1.769490 0.000000 -0.037700 
#    y 0.000000 1.814230 0.000000 
#    z -0.037700 0.000000 1.806610 
# 
# From -- ./inp_files/234608.got.cif
#   From: 2010.05.17/outbox.cif.g08.bks.cpg/sg15_118_cif.got.tgz:234608.got - 2010.06.03 18:47:42.
