data_PCOD9289713
_publ_section_title
;
Structure prediction by ZEFSAII (Michael W. Deem and Ramdas Pophale) SiO2 
 PCOD9289713
Probable space group: C 2/C
;
_chemical_formula_sum "Si O2"
_cell_formula_units_Z 48
_cell_length_a 13.161248
_cell_length_b 12.599424
_cell_length_c 13.325813
_cell_angle_alpha 90.000000
_cell_angle_beta 87.397564
_cell_angle_gamma 90.000000
_cell_volume 2207.462494
_symmetry_space_group_name_H-M "C 2/C"
_symmetry_group_IT_number 15
_symmetry_cell_setting 'monoclinic'
loop_
_space_group_symop_operation_xyz
x,y,z
-x,y,1/2-z
-x,-y,-z
x,-y,1/2+z
1/2+x,1/2+y,z
1/2-x,1/2+y,1/2-z
1/2-x,1/2-y,-z
1/2+x,1/2-y,1/2+z
loop_
_atom_site_type_symbol
_atom_site_label
_atom_site_fract_x
_atom_site_fract_y
_atom_site_fract_z
Si Si1 0.399831 0.021707 0.934770
Si Si2 0.639323 0.261782 0.559314
Si Si3 0.736696 0.947763 0.882851
Si Si4 0.388612 0.844019 0.763877
Si Si5 0.021213 0.903989 0.422317
Si Si6 0.659447 0.378164 0.226889
O O1 0.393499 0.145876 0.899786
O O2 0.394068 0.935194 0.846635
O O3 0.297679 0.011374 0.007508
O O4 0.500000 0.000000 0.000000
O O5 0.750000 0.250000 0.500000
O O6 0.668249 0.366030 0.624096
O O7 0.552652 0.302909 0.487704
O O8 0.639843 0.887564 0.843142
O O9 0.752272 0.043301 0.806175
O O10 0.500000 0.793634 0.750000
O O11 0.313188 0.745520 0.781563
O O12 0.112375 0.910969 0.336265
O O13 0.922099 0.894363 0.358388
O O14 0.000000 0.000000 0.500000
#
# Coordination Sequence:
#
# PCOD9289713 Si02
#       6
#     8   8   8   8   8   8
#     4  11  23  43  68  96 129 171 221 271 331 396
#     4  10  22  40  67  93 129 172 213 263 329 394
#     4  11  25  41  66 100 127 170 222 271 329 387
#     4  12  24  43  68  91 132 180 215 265 332 405
#     4  11  21  41  68  96 129 169 215 273 328 386
#     4  11  24  42  68  96 128 174 222 264 334 396
#
# _framework density 21.744423000000001
#
# number of rings (size 3 to 8) (size 9 to 14) (size 15 to 20)
#    0.000    1.000    5.000    3.000    7.000    0.667 
#    0.000    3.333    0.000    0.000    0.000    0.000 
#    0.000    0.000    0.000    0.000    0.000    0.000 
#
# Total GULP energy -133825.111634 kJ/mol
# GULP energy per Si atom -5576.046318 kJ/mol
# Density = 2.169493 g / cm^3
# Si number density = 21.744423 Si / 1000 Ang^3
#
#
#
# Elastic Constant Matrix: (Units=GPa)
#
#
# Indices 1 2 3 4 5 6 
#
# 1 39.4356 15.2828 1.4816 0.0000 12.1409 0.0000
# 2 15.2828 152.9020 47.6704 0.0000 -7.8137 0.0000
# 3 1.4816 47.6704 84.1483 0.0000 10.4284 0.0000
# 4 0.0000 0.0000 0.0000 45.4433 0.0000 1.1173
# 5 12.1409 -7.8137 10.4284 0.0000 20.6424 0.0000
# 6 0.0000 0.0000 0.0000 1.1173 0.0000 33.7837
#
#
#
# Elastic Compliance Matrix: (Units=1/GPa)
#
#
# Indices 1 2 3 4 5 6 
#
# 1 0.036367 -0.007176 0.006841 0.000000 -0.027562 0.000000
# 2 -0.007176 0.010024 -0.006983 0.000000 0.011543 0.000000
# 3 0.006841 -0.006983 0.017651 0.000000 -0.015584 0.000000
# 4 0.000000 0.000000 0.000000 0.022023 0.000000 -0.000728
# 5 -0.027562 0.011543 -0.015584 0.000000 0.076896 0.000000
# 6 0.000000 0.000000 0.000000 -0.000728 0.000000 0.029624
#
#
# Mechanical properties :
#
#
# Convention : Reuss Voigt Hill
#
# Bulk Modulus (GPa) = 20.24085 45.03950 32.64017
# Shear Modulus (GPa) = 22.35226 34.11062 28.23144
#
# Velocity S-wave (km/s) = 3.20965 3.96499 3.60714
# Velocity P-wave (km/s) = 4.80256 6.45907 5.69140
#
# Compressibility (1/GPa) = 0.04940504
#
# Stress axis : x y z
#
# Youngs Moduli (GPa) = 27.49740 99.75676 56.65557
#
# Poissons Ratio (x) = 0.71587 -0.38756
# Poissons Ratio (y) = 0.19733 0.39563
# Poissons Ratio (z) = -0.18810 0.69660
#
# Static dielectric constant tensor:
#      x y z
#    x 1.817790 0.000000 0.016260 
#    y 0.000000 1.872320 0.000000 
#    z 0.016260 0.000000 1.788520 
# 
# From -- ./inp_files/151929.got.cif
#   From: 2010.05.17/outbox.cif.g08.bks.cpg/sg15_76_cif.got.tgz:151929.got - 2010.06.03 18:47:42.
