data_PCOD9289008
_publ_section_title
;
Structure prediction by ZEFSAII (Michael W. Deem and Ramdas Pophale) SiO2 
 PCOD9289008
Probable space group: C 2/C
;
_chemical_formula_sum "Si O2"
_cell_formula_units_Z 52
_cell_length_a 20.237919
_cell_length_b 8.123204
_cell_length_c 13.905529
_cell_angle_alpha 90.000000
_cell_angle_beta 70.046900
_cell_angle_gamma 90.000000
_cell_volume 2148.798885
_symmetry_space_group_name_H-M "C 2/C"
_symmetry_group_IT_number 15
_symmetry_cell_setting 'monoclinic'
loop_
_space_group_symop_operation_xyz
x,y,z
-x,y,1/2-z
-x,-y,-z
x,-y,1/2+z
1/2+x,1/2+y,z
1/2-x,1/2+y,1/2-z
1/2-x,1/2-y,-z
1/2+x,1/2-y,1/2+z
loop_
_atom_site_type_symbol
_atom_site_label
_atom_site_fract_x
_atom_site_fract_y
_atom_site_fract_z
Si Si1 0.000000 0.433056 0.250000
Si Si2 0.246765 0.991301 0.414077
Si Si3 0.887571 0.964781 0.257573
Si Si4 0.505183 0.306362 0.911841
Si Si5 0.906178 0.896098 0.470443
Si Si6 0.632046 0.885256 0.774974
Si Si7 0.235388 0.390649 0.877859
O O1 0.974612 0.330080 0.355946
O O2 0.065416 0.528555 0.262114
O O3 0.238969 0.808806 0.371975
O O4 0.269866 0.950366 0.510741
O O5 0.173542 0.088401 0.455462
O O6 0.304526 0.099997 0.332661
O O7 0.908102 0.895363 0.353569
O O8 0.887458 0.801756 0.194926
O O9 0.940640 0.095545 0.185681
O O10 0.810079 0.042516 0.302381
O O11 0.443475 0.428991 0.971824
O O12 0.549283 0.268337 0.986994
O O13 0.668943 0.955828 0.851440
#
# Coordination Sequence:
#
# PCOD9289008 Si02
#       7
#     4   8   8   8   8   8   8
#     4  12  28  42  64  94 138 178 216 268 316 398
#     4  10  23  43  69 101 128 163 224 273 325 390
#     4  11  23  43  69  95 131 167 219 274 321 395
#     4  11  22  43  67  94 128 175 220 258 328 390
#     4  10  22  39  73  95 123 173 217 269 321 387
#     4  12  26  42  64 101 134 174 213 274 328 382
#     4  10  22  42  72  95 129 174 216 268 330 386
#
# _framework density 24.199565
#
# number of rings (size 3 to 8) (size 9 to 14) (size 15 to 20)
#    0.000    1.231    1.538    3.692    6.462    4.923 
#    0.000    1.538    0.000    0.000    0.000    0.000 
#    0.000    0.000    0.000    0.000    0.000    0.000 
#
# Total GULP energy -145523.105704 kJ/mol
# GULP energy per Si atom -5597.042527 kJ/mol
# Density = 2.414449 g / cm^3
# Si number density = 24.199565 Si / 1000 Ang^3
#
#
#
# Elastic Constant Matrix: (Units=GPa)
#
#
# Indices 1 2 3 4 5 6 
#
# 1 141.2722 15.5621 48.8512 0.0000 36.7169 0.0000
# 2 15.5621 31.7360 12.8960 0.0000 11.7052 0.0000
# 3 48.8512 12.8960 81.0777 0.0000 22.2644 0.0000
# 4 0.0000 0.0000 0.0000 16.0347 0.0000 -3.0735
# 5 36.7169 11.7052 22.2644 0.0000 41.4858 0.0000
# 6 0.0000 0.0000 0.0000 -3.0735 0.0000 17.2168
#
#
#
# Elastic Compliance Matrix: (Units=1/GPa)
#
#
# Indices 1 2 3 4 5 6 
#
# 1 0.010387 -0.000902 -0.004293 0.000000 -0.006634 0.000000
# 2 -0.000902 0.036049 -0.003069 0.000000 -0.007726 0.000000
# 3 -0.004293 -0.003069 0.016569 0.000000 -0.004227 0.000000
# 4 0.000000 0.000000 0.000000 0.064574 0.000000 0.011528
# 5 -0.006634 -0.007726 -0.004227 0.000000 0.034425 0.000000
# 6 0.000000 0.000000 0.000000 0.011528 0.000000 0.060141
#
#
# Mechanical properties :
#
#
# Convention : Reuss Voigt Hill
#
# Bulk Modulus (GPa) = 21.51576 45.41161 33.46369
# Shear Modulus (GPa) = 19.67234 26.73258 23.20246
#
# Velocity S-wave (km/s) = 2.85427 3.32727 3.09980
# Velocity P-wave (km/s) = 4.44666 5.79372 5.16430
#
# Compressibility (1/GPa) = 0.04647756
#
# Stress axis : x y z
#
# Youngs Moduli (GPa) = 96.27772 27.74019 60.35245
#
# Poissons Ratio (x) = 0.02502 0.25909
# Poissons Ratio (y) = 0.08683 0.18521
# Poissons Ratio (z) = 0.41331 0.08513
#
# Static dielectric constant tensor:
#      x y z
#    x 1.929450 0.000000 0.064900 
#    y 0.000000 1.931590 0.000000 
#    z 0.064900 0.000000 1.957510 
# 
# From -- ./inp_files/166250.got.cif
#   From: 2010.05.17/outbox.cif.g08.bks.cpg/sg15_84_cif.got.tgz:166250.got - 2010.06.03 18:47:42.
