data_PCOD9289320
_publ_section_title
;
Structure prediction by ZEFSAII (Michael W. Deem and Ramdas Pophale) SiO2 
 PCOD9289320
Probable space group: C 2/C
;
_chemical_formula_sum "Si O2"
_cell_formula_units_Z 44
_cell_length_a 13.255318
_cell_length_b 8.003548
_cell_length_c 16.940468
_cell_angle_alpha 90.000000
_cell_angle_beta 83.287179
_cell_angle_gamma 90.000000
_cell_volume 1784.886310
_symmetry_space_group_name_H-M "C 2/C"
_symmetry_group_IT_number 15
_symmetry_cell_setting 'monoclinic'
loop_
_space_group_symop_operation_xyz
x,y,z
-x,y,1/2-z
-x,-y,-z
x,-y,1/2+z
1/2+x,1/2+y,z
1/2-x,1/2+y,1/2-z
1/2-x,1/2-y,-z
1/2+x,1/2-y,1/2+z
loop_
_atom_site_type_symbol
_atom_site_label
_atom_site_fract_x
_atom_site_fract_y
_atom_site_fract_z
Si Si1 0.000000 0.543988 0.250000
Si Si2 0.182871 0.229833 0.789778
Si Si3 0.410732 0.960070 0.911168
Si Si4 0.278633 0.907860 0.549871
Si Si5 0.804438 0.129385 0.149108
Si Si6 0.912193 0.126757 0.983821
O O1 0.906688 0.666684 0.241734
O O2 0.973446 0.452706 0.335153
O O3 0.212037 0.337452 0.863621
O O4 0.275059 0.237254 0.718265
O O5 0.154724 0.040920 0.814936
O O6 0.297681 0.934864 0.885410
O O7 0.450898 0.773768 0.924356
O O8 0.384230 0.036591 0.998781
O O9 0.250000 0.750000 0.500000
O O10 0.185673 0.038956 0.548413
O O11 0.872369 0.195216 0.071682
O O12 0.000000 0.000000 0.000000
#
# Coordination Sequence:
#
# PCOD9289320 Si02
#       6
#     4   8   8   8   8   8
#     4  10  24  42  60  96 124 170 216 268 328 394
#     4  11  23  41  65  90 131 168 221 266 337 399
#     4  10  22  41  68  91 132 169 216 270 334 394
#     4  11  22  42  66  92 127 173 214 273 333 401
#     4  10  22  40  63  94 126 171 213 267 332 399
#     4  11  23  43  64  97 127 171 224 265 332 400
#
# _framework density 24.651429
#
# number of rings (size 3 to 8) (size 9 to 14) (size 15 to 20)
#    0.000    1.455    3.636    3.273    7.636    0.727 
#    0.000    0.000    0.000    0.000    0.000    0.000 
#    0.000    0.000    0.000    0.000    0.000    0.000 
#
# Total GULP energy -123052.463601 kJ/mol
# GULP energy per Si atom -5593.293800 kJ/mol
# Density = 2.459532 g / cm^3
# Si number density = 24.651429 Si / 1000 Ang^3
#
#
#
# Elastic Constant Matrix: (Units=GPa)
#
#
# Indices 1 2 3 4 5 6 
#
# 1 66.4634 2.0780 17.0269 0.0000 -0.1173 0.0000
# 2 2.0780 62.7872 19.1213 0.0000 5.3084 0.0000
# 3 17.0269 19.1213 157.3648 0.0000 -21.5363 0.0000
# 4 0.0000 0.0000 0.0000 35.3464 0.0000 6.5836
# 5 -0.1173 5.3084 -21.5363 0.0000 43.5108 0.0000
# 6 0.0000 0.0000 0.0000 6.5836 0.0000 35.9078
#
#
#
# Elastic Compliance Matrix: (Units=1/GPa)
#
#
# Indices 1 2 3 4 5 6 
#
# 1 0.015505 0.000111 -0.001810 0.000000 -0.000868 0.000000
# 2 0.000111 0.016974 -0.002529 0.000000 -0.003323 0.000000
# 3 -0.001810 -0.002529 0.007401 0.000000 0.003967 0.000000
# 4 0.000000 0.000000 0.000000 0.029292 0.000000 -0.005371
# 5 -0.000868 -0.003323 0.003967 0.000000 0.025349 0.000000
# 6 0.000000 0.000000 0.000000 -0.005371 0.000000 0.028834
#
#
# Mechanical properties :
#
#
# Convention : Reuss Voigt Hill
#
# Bulk Modulus (GPa) = 31.82278 40.34084 36.08181
# Shear Modulus (GPa) = 35.14088 39.51229 37.32659
#
# Velocity S-wave (km/s) = 3.77969 4.00789 3.89546
# Velocity P-wave (km/s) = 5.65555 6.14960 5.90774
#
# Compressibility (1/GPa) = 0.03142403
#
# Stress axis : x y z
#
# Youngs Moduli (GPa) = 64.49732 58.91254 135.12238
#
# Poissons Ratio (x) = -0.00656 0.24455
# Poissons Ratio (y) = -0.00719 0.34176
# Poissons Ratio (z) = 0.11673 0.14901
#
# Static dielectric constant tensor:
#      x y z
#    x 1.989710 0.000000 -0.029170 
#    y 0.000000 1.987080 0.000000 
#    z -0.029170 0.000000 2.056480 
# 
# From -- ./inp_files/202613.got.cif
#   From: 2010.05.17/outbox.cif.g08.bks.cpg/sg15_102_cif.got.tgz:202613.got - 2010.06.03 18:47:42.
