data_PCOD9289867
_publ_section_title
;
Structure prediction by ZEFSAII (Michael W. Deem and Ramdas Pophale) SiO2 
 PCOD9289867
Probable space group: C 2/C
;
_chemical_formula_sum "Si O2"
_cell_formula_units_Z 44
_cell_length_a 12.545989
_cell_length_b 18.484042
_cell_length_c 9.006170
_cell_angle_alpha 90.000000
_cell_angle_beta 80.090379
_cell_angle_gamma 90.000000
_cell_volume 2057.376080
_symmetry_space_group_name_H-M "C 2/C"
_symmetry_group_IT_number 15
_symmetry_cell_setting 'monoclinic'
loop_
_space_group_symop_operation_xyz
x,y,z
-x,y,1/2-z
-x,-y,-z
x,-y,1/2+z
1/2+x,1/2+y,z
1/2-x,1/2+y,1/2-z
1/2-x,1/2-y,-z
1/2+x,1/2-y,1/2+z
loop_
_atom_site_type_symbol
_atom_site_label
_atom_site_fract_x
_atom_site_fract_y
_atom_site_fract_z
Si Si1 0.786036 0.074347 0.005216
Si Si2 0.129083 0.056269 0.203240
Si Si3 0.553864 0.703950 0.584115
Si Si4 0.552055 0.870929 0.571582
Si Si5 0.500000 0.170803 0.750000
Si Si6 0.145146 0.784704 0.596755
O O1 0.808676 0.044913 0.161170
O O2 0.658865 0.083003 0.014804
O O3 0.848982 0.150564 0.977079
O O4 0.843747 0.014574 0.893423
O O5 0.170686 0.134352 0.139897
O O6 0.000000 0.063537 0.250000
O O7 0.500000 0.678549 0.750000
O O8 0.586458 0.787566 0.592493
O O9 0.456166 0.704662 0.489633
O O10 0.500000 0.891589 0.750000
O O11 0.494726 0.867961 0.416815
O O12 0.602387 0.226190 0.726946
O O13 0.250000 0.750000 0.500000
#
# Coordination Sequence:
#
# PCOD9289867 Si02
#       6
#     8   8   8   8   4   8
#     4  12  26  43  70  98 141 185 230 287 351 419
#     4  12  25  45  66  99 142 181 227 286 350 424
#     4  10  22  40  69 105 137 174 229 292 342 417
#     4  10  24  46  72 106 136 181 241 295 350 417
#     4  10  22  46  72 104 140 180 228 302 354 414
#     4  11  24  41  72 105 138 181 228 287 357 412
#
# _framework density 21.386464
#
# number of rings (size 3 to 8) (size 9 to 14) (size 15 to 20)
#    0.000    1.091    2.727    2.727   12.727    0.000 
#    0.000    0.909    2.000    0.000    0.000    0.000 
#    0.000    0.000    0.000    0.000    0.000    0.000 
#
# Total GULP energy -122606.782912 kJ/mol
# GULP energy per Si atom -5573.035587 kJ/mol
# Density = 2.133779 g / cm^3
# Si number density = 21.386464 Si / 1000 Ang^3
#
#
#
# Elastic Constant Matrix: (Units=GPa)
#
#
# Indices 1 2 3 4 5 6 
#
# 1 61.8695 26.8132 34.8237 0.0000 -11.4662 0.0000
# 2 26.8132 45.4735 22.6709 0.0000 -10.9650 0.0000
# 3 34.8237 22.6709 86.4079 0.0000 -3.3497 0.0000
# 4 0.0000 0.0000 0.0000 34.7583 0.0000 5.6320
# 5 -11.4662 -10.9650 -3.3497 0.0000 40.9234 0.0000
# 6 0.0000 0.0000 0.0000 5.6320 0.0000 59.7726
#
#
#
# Elastic Compliance Matrix: (Units=1/GPa)
#
#
# Indices 1 2 3 4 5 6 
#
# 1 0.025570 -0.010479 -0.007411 0.000000 0.003750 0.000000
# 2 -0.010479 0.031298 -0.003789 0.000000 0.005140 0.000000
# 3 -0.007411 -0.003789 0.015483 0.000000 -0.001824 0.000000
# 4 0.000000 0.000000 0.000000 0.029216 0.000000 -0.002753
# 5 0.003750 0.005140 -0.001824 0.000000 0.026715 0.000000
# 6 0.000000 0.000000 0.000000 -0.002753 0.000000 0.016989
#
#
# Mechanical properties :
#
#
# Convention : Reuss Voigt Hill
#
# Bulk Modulus (GPa) = 34.48946 40.26296 37.37621
# Shear Modulus (GPa) = 25.21511 34.38707 29.80109
#
# Velocity S-wave (km/s) = 3.43741 4.01420 3.73695
# Velocity P-wave (km/s) = 5.64944 6.35235 6.01118
#
# Compressibility (1/GPa) = 0.02899437
#
# Stress axis : x y z
#
# Youngs Moduli (GPa) = 39.10766 31.95088 64.58647
#
# Poissons Ratio (x) = 0.33480 0.47863
# Poissons Ratio (y) = 0.40979 0.24474
# Poissons Ratio (z) = 0.28981 0.12108
#
# Static dielectric constant tensor:
#      x y z
#    x 1.747520 0.000000 0.023990 
#    y 0.000000 1.707030 0.000000 
#    z 0.023990 0.000000 1.913120 
# 
# From -- ./inp_files/30694.got.cif
#   From: 2010.05.17/outbox.cif.g08.bks.cpg/sg15_16_cif.got.tgz:30694.got - 2010.06.03 18:47:42.
