data_PCOD9289451
_publ_section_title
;
Structure prediction by ZEFSAII (Michael W. Deem and Ramdas Pophale) SiO2 
 PCOD9289451
Probable space group: C 2/C
;
_chemical_formula_sum "Si O2"
_cell_formula_units_Z 44
_cell_length_a 24.572040
_cell_length_b 11.186775
_cell_length_c 7.684612
_cell_angle_alpha 90.000000
_cell_angle_beta 53.894625
_cell_angle_gamma 90.000000
_cell_volume 1706.649243
_symmetry_space_group_name_H-M "C 2/C"
_symmetry_group_IT_number 15
_symmetry_cell_setting 'monoclinic'
loop_
_space_group_symop_operation_xyz
x,y,z
-x,y,1/2-z
-x,-y,-z
x,-y,1/2+z
1/2+x,1/2+y,z
1/2-x,1/2+y,1/2-z
1/2-x,1/2-y,-z
1/2+x,1/2-y,1/2+z
loop_
_atom_site_type_symbol
_atom_site_label
_atom_site_fract_x
_atom_site_fract_y
_atom_site_fract_z
Si Si1 0.497678 0.860378 0.961716
Si Si2 0.709583 0.955839 0.474184
Si Si3 0.422347 0.649184 0.617170
Si Si4 0.000000 0.010863 0.750000
Si Si5 0.704730 0.389363 0.893874
Si Si6 0.650776 0.176627 0.780617
O O1 0.500000 0.847766 0.750000
O O2 0.557878 0.787314 0.938933
O O3 0.424311 0.807476 0.145994
O O4 0.500000 0.000000 0.000000
O O5 0.730627 0.875721 0.599299
O O6 0.653930 0.896600 0.457765
O O7 0.775594 0.984062 0.231435
O O8 0.686450 0.085673 0.582148
O O9 0.482146 0.597903 0.626852
O O10 0.436142 0.572353 0.418688
O O11 0.357272 0.623454 0.856155
O O12 0.688170 0.297074 0.769768
#
# Coordination Sequence:
#
# PCOD9289451 Si02
#       6
#     8   8   8   4   8   8
#     4  12  25  43  66  96 135 179 223 272 336 393
#     4  10  24  40  66  97 127 181 215 269 329 382
#     4  11  22  42  66  99 130 174 213 284 334 393
#     4  10  22  40  64  96 132 166 224 262 350 394
#     4  11  21  41  66  94 133 166 223 269 330 393
#     4  11  22  43  63  95 132 171 225 271 318 398
#
# _framework density 25.781514000000001
#
# number of rings (size 3 to 8) (size 9 to 14) (size 15 to 20)
#    0.000    1.091    2.727    3.273    1.273    1.455 
#    0.000    0.000    0.000    0.000    0.000    0.000 
#    0.000    0.000    0.000    0.000    0.000    0.000 
#
# Total GULP energy -122954.404654 kJ/mol
# GULP energy per Si atom -5588.836575 kJ/mol
# Density = 2.572283 g / cm^3
# Si number density = 25.781514 Si / 1000 Ang^3
#
#
#
# Elastic Constant Matrix: (Units=GPa)
#
#
# Indices 1 2 3 4 5 6 
#
# 1 74.0317 12.0226 15.9418 0.0000 -6.6086 0.0000
# 2 12.0226 80.5201 8.7247 0.0000 1.9578 0.0000
# 3 15.9418 8.7247 52.9083 0.0000 -18.3274 0.0000
# 4 0.0000 0.0000 0.0000 38.5271 0.0000 15.7560
# 5 -6.6086 1.9578 -18.3274 0.0000 37.3232 0.0000
# 6 0.0000 0.0000 0.0000 15.7560 0.0000 36.9465
#
#
#
# Elastic Compliance Matrix: (Units=1/GPa)
#
#
# Indices 1 2 3 4 5 6 
#
# 1 0.014701 -0.001797 -0.003855 0.000000 0.000805 0.000000
# 2 -0.001797 0.012994 -0.002347 0.000000 -0.002152 0.000000
# 3 -0.003855 -0.002347 0.024407 0.000000 0.011425 0.000000
# 4 0.000000 0.000000 0.000000 0.031439 0.000000 -0.013407
# 5 0.000805 -0.002152 0.011425 0.000000 0.032659 0.000000
# 6 0.000000 0.000000 0.000000 -0.013407 0.000000 0.032784
#
#
# Mechanical properties :
#
#
# Convention : Reuss Voigt Hill
#
# Bulk Modulus (GPa) = 27.69665 31.20426 29.45045
# Shear Modulus (GPa) = 28.24609 33.94410 31.09509
#
# Velocity S-wave (km/s) = 3.31357 3.63244 3.47666
# Velocity P-wave (km/s) = 5.04042 5.45183 5.25016
#
# Compressibility (1/GPa) = 0.03610545
#
# Stress axis : x y z
#
# Youngs Moduli (GPa) = 68.02059 76.95746 40.97219
#
# Poissons Ratio (x) = 0.13829 0.15793
# Poissons Ratio (y) = 0.12223 0.09615
# Poissons Ratio (z) = 0.26220 0.18061
#
# Static dielectric constant tensor:
#      x y z
#    x 2.032750 0.000000 -0.001440 
#    y 0.000000 2.058260 0.000000 
#    z -0.001440 0.000000 2.109680 
# 
# From -- ./inp_files/65334.got.cif
#   From: 2010.05.17/outbox.cif.g08.bks.cpg/sg15_33_cif.got.tgz:65334.got - 2010.06.03 18:47:42.
