data_PCOD9289039
_publ_section_title
;
Structure prediction by ZEFSAII (Michael W. Deem and Ramdas Pophale) SiO2 
 PCOD9289039
Probable space group: C 2/C
;
_chemical_formula_sum "Si O2"
_cell_formula_units_Z 48
_cell_length_a 27.603207
_cell_length_b 15.106729
_cell_length_c 15.420735
_cell_angle_alpha 90.000000
_cell_angle_beta 19.449387
_cell_angle_gamma 90.000000
_cell_volume 2141.141763
_symmetry_space_group_name_H-M "C 2/C"
_symmetry_group_IT_number 15
_symmetry_cell_setting 'monoclinic'
loop_
_space_group_symop_operation_xyz
x,y,z
-x,y,1/2-z
-x,-y,-z
x,-y,1/2+z
1/2+x,1/2+y,z
1/2-x,1/2+y,1/2-z
1/2-x,1/2-y,-z
1/2+x,1/2-y,1/2+z
loop_
_atom_site_type_symbol
_atom_site_label
_atom_site_fract_x
_atom_site_fract_y
_atom_site_fract_z
Si Si1 0.032176 0.209075 0.861469
Si Si2 0.039822 0.973339 0.284080
Si Si3 0.076842 0.157546 0.027116
Si Si4 0.632159 0.997036 0.707952
Si Si5 0.688750 0.839422 0.489364
Si Si6 0.102443 0.302411 0.258901
O O1 0.967580 0.112999 0.949580
O O2 0.168988 0.183690 0.692069
O O3 0.088191 0.256232 0.680445
O O4 0.944230 0.282929 0.063193
O O5 0.000000 0.968869 0.250000
O O6 0.983226 0.067258 0.416194
O O7 0.214459 0.974077 0.003487
O O8 0.019192 0.251013 0.089959
O O9 0.000000 0.151747 0.250000
O O10 0.247869 0.153239 0.714802
O O11 0.631851 0.098758 0.679787
O O12 0.622202 0.927705 0.645262
O O13 0.500000 0.000000 0.000000
O O14 0.250000 0.250000 0.000000
#
# Coordination Sequence:
#
# PCOD9289039 Si02
#       6
#     8   8   8   8   8   8
#     4   9  19  36  58  89 115 158 204 247 307 373
#     4  10  22  40  59  88 126 167 203 251 308 373
#     4  10  22  40  58  86 124 167 207 258 311 370
#     4  11  21  38  67  94 123 161 209 258 309 371
#     4   9  19  36  62  85 121 156 204 252 306 371
#     4  11  21  36  61  93 123 156 212 259 303 371
#
# _framework density 22.417945
#
# number of rings (size 3 to 8) (size 9 to 14) (size 15 to 20)
#    0.000    2.000    3.333    0.000    4.667    2.000 
#    3.000    0.000    0.000    0.000    0.000    0.000 
#    0.000    0.000    0.000    0.000    0.000    0.000 
#
# Total GULP energy -133721.179471 kJ/mol
# GULP energy per Si atom -5571.715811 kJ/mol
# Density = 2.236692 g / cm^3
# Si number density = 22.417945 Si / 1000 Ang^3
#
#
#
# Elastic Constant Matrix: (Units=GPa)
#
#
# Indices 1 2 3 4 5 6 
#
# 1 49.6514 20.9800 8.2636 0.0000 9.9434 0.0000
# 2 20.9800 149.4385 28.9872 0.0000 15.1417 0.0000
# 3 8.2636 28.9872 117.5942 -0.0001 29.1749 0.0000
# 4 0.0000 0.0000 -0.0001 36.9736 0.0000 5.5572
# 5 9.9434 15.1417 29.1749 0.0000 29.7805 0.0000
# 6 0.0000 0.0000 0.0000 5.5572 0.0000 2.4125
#
#
#
# Elastic Compliance Matrix: (Units=1/GPa)
#
#
# Indices 1 2 3 4 5 6 
#
# 1 0.022505 -0.002607 0.000788 0.000000 -0.006961 0.000000
# 2 -0.002607 0.007471 -0.001231 0.000000 -0.001722 0.000000
# 3 0.000788 -0.001231 0.011443 0.000000 -0.010848 -0.000001
# 4 0.000000 0.000000 0.000000 0.041369 0.000000 -0.095292
# 5 -0.006961 -0.001722 -0.010848 0.000000 0.047406 0.000001
# 6 0.000000 0.000000 -0.000001 -0.095292 0.000001 0.634003
#
#
# Mechanical properties :
#
#
# Convention : Reuss Voigt Hill
#
# Bulk Modulus (GPa) = 28.31363 48.12731 38.22047
# Shear Modulus (GPa) = 6.39329 31.06353 18.72841
#
# Velocity S-wave (km/s) = 1.69058 3.72648 2.89350
# Velocity P-wave (km/s) = 4.05809 6.32695 5.31500
#
# Compressibility (1/GPa) = 0.03531867
#
# Stress axis : x y z
#
# Youngs Moduli (GPa) = 44.43487 133.85033 87.38806
#
# Poissons Ratio (x) = 0.34896 -0.06887
# Poissons Ratio (y) = 0.11585 0.10759
# Poissons Ratio (z) = -0.03502 0.16480
#
# Static dielectric constant tensor:
#      x y z
#    x 1.872820 0.000000 0.048890 
#    y 0.000000 1.761640 0.000000 
#    z 0.048890 0.000000 1.926240 
# 
# From -- ./inp_files/182433.got.cif
#   From: 2010.05.17/outbox.cif.g08.bks.cpg/sg15_92_cif.got.tgz:182433.got - 2010.06.03 18:47:42.
