data_PCOD9289367
_publ_section_title
;
Structure prediction by ZEFSAII (Michael W. Deem and Ramdas Pophale) SiO2 
 PCOD9289367
Probable space group: C 2/C
;
_chemical_formula_sum "Si O2"
_cell_formula_units_Z 28
_cell_length_a 10.015510
_cell_length_b 27.779540
_cell_length_c 5.071638
_cell_angle_alpha 90.000000
_cell_angle_beta 66.384452
_cell_angle_gamma 90.000000
_cell_volume 1292.892083
_symmetry_space_group_name_H-M "C 2/C"
_symmetry_group_IT_number 15
_symmetry_cell_setting 'monoclinic'
loop_
_space_group_symop_operation_xyz
x,y,z
-x,y,1/2-z
-x,-y,-z
x,-y,1/2+z
1/2+x,1/2+y,z
1/2-x,1/2+y,1/2-z
1/2-x,1/2-y,-z
1/2+x,1/2-y,1/2+z
loop_
_atom_site_type_symbol
_atom_site_label
_atom_site_fract_x
_atom_site_fract_y
_atom_site_fract_z
Si Si1 0.906999 0.394077 0.088409
Si Si2 0.000000 0.233555 0.750000
Si Si3 0.708951 0.792884 0.230643
Si Si4 0.667188 0.531674 0.584241
O O1 0.839647 0.346919 0.286734
O O2 0.780252 0.428098 0.081219
O O3 0.000000 0.418342 0.250000
O O4 0.000000 0.381366 0.750000
O O5 0.139852 0.203015 0.726256
O O6 0.070977 0.269542 0.484670
O O7 0.750000 0.750000 0.000000
O O8 0.500000 0.548255 0.750000
O O9 0.686641 0.512888 0.271863
#
# Coordination Sequence:
#
# PCOD9289367 Si02
#       4
#     8   4   8   8
#     4  12  26  43  69 102 138 181 232 284 341 416
#     4  10  22  40  64  86 132 176 224 280 338 394
#     4  11  23  42  63  96 133 180 230 283 338 405
#     4  10  23  46  71 102 137 175 225 286 346 414
#
# _framework density 21.656872
#
# number of rings (size 3 to 8) (size 9 to 14) (size 15 to 20)
#    0.000    1.143    1.429    4.286    6.000    3.429 
#    0.000    2.857    0.000    0.000    0.000    0.000 
#    0.000    0.000    0.000    0.000    0.000    0.000 
#
# Total GULP energy -78106.093875 kJ/mol
# GULP energy per Si atom -5579.006705 kJ/mol
# Density = 2.160758 g / cm^3
# Si number density = 21.656872 Si / 1000 Ang^3
#
#
#
# Elastic Constant Matrix: (Units=GPa)
#
#
# Indices 1 2 3 4 5 6 
#
# 1 132.4481 42.1150 7.8876 0.0000 -3.8515 0.0000
# 2 42.1150 57.1074 15.6872 0.0000 -23.7636 0.0000
# 3 7.8876 15.6872 98.3138 0.0000 -7.6301 0.0000
# 4 0.0000 0.0000 0.0000 13.7975 0.0000 12.4772
# 5 -3.8515 -23.7636 -7.6301 0.0000 32.6537 0.0000
# 6 0.0000 0.0000 0.0000 12.4772 0.0000 -4.4750
#
#
#
# Elastic Compliance Matrix: (Units=1/GPa)
#
#
# Indices 1 2 3 4 5 6 
#
# 1 0.010743 -0.010696 0.000345 0.000000 -0.006436 0.000000
# 2 -0.010696 0.036455 -0.003053 0.000000 0.024555 0.000000
# 3 0.000345 -0.003053 0.010655 0.000000 0.000309 0.000000
# 4 0.000000 0.000000 0.000000 0.020582 0.000000 0.057386
# 5 -0.006436 0.024555 0.000309 0.000000 0.047807 0.000000
# 6 0.000000 0.000000 0.000000 0.057386 0.000000 -0.063458
#
#
# Mechanical properties :
#
#
# Convention : Reuss Voigt Hill
#
# Bulk Modulus (GPa) = 32.21009 46.58319 39.39664
# Shear Modulus (GPa) = 50.02939 23.20719 36.61829
#
# Velocity S-wave (km/s) = 4.81156 3.27706 4.11644
# Velocity P-wave (km/s) = 6.76560 5.98959 6.38939
#
# Compressibility (1/GPa) = 0.03104617
#
# Stress axis : x y z
#
# Youngs Moduli (GPa) = 93.07994 27.43071 93.85337
#
# Poissons Ratio (x) = 0.29340 -0.03240
# Poissons Ratio (y) = 0.99558 0.28654
# Poissons Ratio (z) = -0.03214 0.08375
#
# Static dielectric constant tensor:
#      x y z
#    x 1.861110 0.000000 0.057860 
#    y 0.000000 1.798060 0.000000 
#    z 0.057860 0.000000 1.783810 
# 
# From -- ./inp_files/2515.got.cif
#   From: 2010.05.17/outbox.cif.g08.bks.cpg/sg15_2_cif.got.tgz:2515.got - 2010.06.03 18:47:42.
