data_PCOD9289629
_publ_section_title
;
Structure prediction by ZEFSAII (Michael W. Deem and Ramdas Pophale) SiO2 
 PCOD9289629
Probable space group: C 2/C
;
_chemical_formula_sum "Si O2"
_cell_formula_units_Z 56
_cell_length_a 14.387060
_cell_length_b 23.673734
_cell_length_c 10.488543
_cell_angle_alpha 90.000000
_cell_angle_beta 43.999141
_cell_angle_gamma 90.000000
_cell_volume 2481.524184
_symmetry_space_group_name_H-M "C 2/C"
_symmetry_group_IT_number 15
_symmetry_cell_setting 'monoclinic'
loop_
_space_group_symop_operation_xyz
x,y,z
-x,y,1/2-z
-x,-y,-z
x,-y,1/2+z
1/2+x,1/2+y,z
1/2-x,1/2+y,1/2-z
1/2-x,1/2-y,-z
1/2+x,1/2-y,1/2+z
loop_
_atom_site_type_symbol
_atom_site_label
_atom_site_fract_x
_atom_site_fract_y
_atom_site_fract_z
Si Si1 0.906077 0.554155 0.096836
Si Si2 0.406077 0.554155 0.096836
Si Si3 0.000000 0.622372 0.250000
Si Si4 0.633621 0.710778 0.970681
Si Si5 0.388466 0.670191 0.037688
Si Si6 0.888467 0.670191 0.037687
Si Si7 0.366378 0.789223 0.029320
Si Si8 0.500000 0.622372 0.250000
O O1 0.750000 0.537628 0.250000
O O2 0.947799 0.584255 0.187164
O O3 0.925214 0.605070 0.973127
O O4 0.000000 0.500000 0.000000
O O5 0.425214 0.605070 0.973127
O O6 0.447799 0.584255 0.187164
O O7 0.500000 0.500000 0.000000
O O8 0.875350 0.662453 0.414380
O O9 0.627816 0.774220 0.034529
O O10 0.749999 0.707671 0.750001
O O11 0.500309 0.693684 0.024131
O O12 0.624650 0.662453 0.085620
O O13 0.249999 0.665089 0.250000
O O14 0.372184 0.725780 0.965471
O O15 0.000311 0.693684 0.024128
#
# Coordination Sequence:
#
# PCOD9289629 Si02
#       8
#     8   8   4   8   8   8   8   4
#     4  10  22  41  62  88 126 164 210 262 299 360
#     4  10  22  41  62  88 126 164 210 262 299 360
#     4  10  22  40  66  94 124 164 204 252 324 374
#     4   9  17  34  61  89 121 156 194 247 310 372
#     4   8  16  34  56  84 123 153 187 252 304 346
#     4   8  16  34  56  84 123 153 187 252 304 346
#     4   9  17  34  61  89 121 156 194 247 310 372
#     4  10  22  40  66  94 124 164 204 252 324 374
#
# _framework density 22.566775
#
# number of rings (size 3 to 8) (size 9 to 14) (size 15 to 20)
#    0.000    2.857    0.000    0.000    0.000    5.714 
#    0.000   52.857    0.000    6.857    0.000    0.000 
#    0.000    0.000    0.000    0.000    0.000    0.000 
#
# Total GULP energy -155932.104571 kJ/mol
# GULP energy per Si atom -5569.003735 kJ/mol
# Density = 2.251541 g / cm^3
# Si number density = 22.566775 Si / 1000 Ang^3
#
#
#
# Elastic Constant Matrix: (Units=GPa)
#
#
# Indices 1 2 3 4 5 6 
#
# 1 83.7666 51.7621 38.3419 0.0000 -24.2954 0.0000
# 2 51.7621 259.2098 83.3944 0.0000 -18.0729 0.0000
# 3 38.3419 83.3944 108.3060 0.0000 -11.3688 0.0000
# 4 0.0000 0.0000 0.0000 53.9700 0.0000 -11.7519
# 5 -24.2954 -18.0729 -11.3688 0.0000 37.7194 0.0000
# 6 0.0000 0.0000 0.0000 -11.7519 0.0000 30.9416
#
#
#
# Elastic Compliance Matrix: (Units=1/GPa)
#
#
# Indices 1 2 3 4 5 6 
#
# 1 0.017412 -0.001543 -0.004003 0.000000 0.009270 0.000000
# 2 -0.001543 0.005328 -0.003504 0.000000 0.000503 0.000000
# 3 -0.004003 -0.003504 0.013323 0.000000 -0.000242 0.000000
# 4 0.000000 0.000000 0.000000 0.020199 0.000000 0.007672
# 5 0.009270 0.000503 -0.000242 0.000000 0.032650 0.000000
# 6 0.000000 0.000000 0.000000 0.007672 0.000000 0.035233
#
#
# Mechanical properties :
#
#
# Convention : Reuss Voigt Hill
#
# Bulk Modulus (GPa) = 55.66772 88.69769 72.18270
# Shear Modulus (GPa) = 33.73065 43.04513 38.38789
#
# Velocity S-wave (km/s) = 3.87033 4.37218 4.12889
# Velocity P-wave (km/s) = 6.68537 8.05468 7.40176
#
# Compressibility (1/GPa) = 0.01796373
#
# Stress axis : x y z
#
# Youngs Moduli (GPa) = 57.43112 187.67738 75.05972
#
# Poissons Ratio (x) = 0.28956 0.30048
# Poissons Ratio (y) = 0.08861 0.26299
# Poissons Ratio (z) = 0.22991 0.65757
#
# Static dielectric constant tensor:
#      x y z
#    x 1.931380 0.000000 0.047000 
#    y 0.000000 1.943930 0.000000 
#    z 0.047000 0.000000 1.843280 
# 
# From -- ./inp_files/107932.got.cif
#   From: 2010.05.17/outbox.cif.g08.bks.cpg/sg15_54_cif.got.tgz:107932.got - 2010.06.03 18:47:42.
