data_PCOD9289527
_publ_section_title
;
Structure prediction by ZEFSAII (Michael W. Deem and Ramdas Pophale) SiO2 
 PCOD9289527
Probable space group: C 2/C
;
_chemical_formula_sum "Si O2"
_cell_formula_units_Z 64
_cell_length_a 33.949611
_cell_length_b 14.280569
_cell_length_c 9.392013
_cell_angle_alpha 90.000000
_cell_angle_beta 43.628236
_cell_angle_gamma 90.000000
_cell_volume 3141.761388
_symmetry_space_group_name_H-M "C 2/C"
_symmetry_group_IT_number 15
_symmetry_cell_setting 'monoclinic'
loop_
_space_group_symop_operation_xyz
x,y,z
-x,y,1/2-z
-x,-y,-z
x,-y,1/2+z
1/2+x,1/2+y,z
1/2-x,1/2+y,1/2-z
1/2-x,1/2-y,-z
1/2+x,1/2-y,1/2+z
loop_
_atom_site_type_symbol
_atom_site_label
_atom_site_fract_x
_atom_site_fract_y
_atom_site_fract_z
Si Si1 0.722336 0.395265 0.436493
Si Si2 0.124001 0.762219 0.736145
Si Si3 0.066381 0.088150 0.597229
Si Si4 0.064689 0.698620 0.604367
Si Si5 0.332769 0.545380 0.716526
Si Si6 0.041850 0.486270 0.756406
Si Si7 0.646820 0.139809 0.927627
Si Si8 0.376598 0.699921 0.805575
O O1 0.689469 0.297286 0.550591
O O2 0.700924 0.463282 0.616649
O O3 0.697332 0.427531 0.350488
O O4 0.790159 0.399690 0.252532
O O5 0.095525 0.745312 0.658519
O O6 0.123537 0.669542 0.833626
O O7 0.089127 0.841057 0.915027
O O8 0.079871 0.137938 0.713343
O O9 0.000000 0.070549 0.750000
O O10 0.104580 0.995164 0.484434
O O11 0.061094 0.587522 0.645258
O O12 0.095908 0.729525 0.379497
O O13 0.000000 0.731370 0.750000
O O14 0.338401 0.629870 0.813196
O O15 0.098775 0.425104 0.625642
O O16 0.000000 0.439315 0.750000
O O17 0.000000 0.500000 0.000000
O O18 0.654180 0.235306 0.998321
#
# Coordination Sequence:
#
# PCOD9289527 Si02
#       8
#     8   8   8   8   8   8   8   8
#     4  11  24  45  66  95 131 176 218 271 326 391
#     4  10  22  42  64  95 132 171 221 272 320 388
#     4  10  22  40  65  94 133 180 216 261 332 392
#     4  11  22  38  66  98 132 170 215 272 330 386
#     4  11  23  43  65  93 136 172 215 275 323 382
#     4  11  24  43  65  95 132 165 212 273 331 392
#     4  11  25  44  68  93 127 178 223 261 337 394
#     4  11  23  41  63  97 128 165 226 270 320 384
#
# _framework density 20.370739
#
# number of rings (size 3 to 8) (size 9 to 14) (size 15 to 20)
#    0.000    1.250    2.500    3.375    0.000    7.500 
#    2.250    0.000    0.000    0.000    0.000    0.000 
#    0.000    0.000    0.000    0.000    0.000    0.000 
#
# Total GULP energy -178782.431382 kJ/mol
# GULP energy per Si atom -5586.950981 kJ/mol
# Density = 2.032437 g / cm^3
# Si number density = 20.370739 Si / 1000 Ang^3
#
#
#
# Elastic Constant Matrix: (Units=GPa)
#
#
# Indices 1 2 3 4 5 6 
#
# 1 63.1525 1.8855 49.9395 0.0000 0.1700 0.0000
# 2 1.8855 48.2978 25.6245 0.0000 -7.6408 0.0000
# 3 49.9395 25.6245 100.7223 0.0000 -12.0331 0.0000
# 4 0.0000 0.0000 0.0000 34.2299 0.0000 75.5339
# 5 0.1700 -7.6408 -12.0331 0.0000 48.6363 0.0000
# 6 0.0000 0.0000 0.0000 75.5339 0.0000 1095.4434
#
#
#
# Elastic Compliance Matrix: (Units=1/GPa)
#
#
# Indices 1 2 3 4 5 6 
#
# 1 0.028518 0.007054 -0.016296 0.000000 -0.003023 0.000000
# 2 0.007054 0.025938 -0.009905 0.000000 0.001600 0.000000
# 3 -0.016296 -0.009905 0.020969 0.000000 0.003689 0.000000
# 4 0.000000 0.000000 0.000000 0.034457 0.000000 -0.002376
# 5 -0.003023 0.001600 0.003689 0.000000 0.021735 0.000000
# 6 0.000000 0.000000 0.000000 -0.002376 0.000000 0.001077
#
#
# Mechanical properties :
#
#
# Convention : Reuss Voigt Hill
#
# Bulk Modulus (GPa) = 26.93149 40.78573 33.85861
# Shear Modulus (GPa) = 27.26814 244.64345 135.95580
#
# Velocity S-wave (km/s) = 3.66265 10.97070 8.17836
# Velocity P-wave (km/s) = 5.57997 13.43652 10.28776
#
# Compressibility (1/GPa) = 0.03713125
#
# Stress axis : x y z
#
# Youngs Moduli (GPa) = 35.06509 38.55385 47.69056
#
# Poissons Ratio (x) = -0.27196 0.77715
# Poissons Ratio (y) = -0.24735 0.47238
# Poissons Ratio (z) = 0.57141 0.38188
#
# Static dielectric constant tensor:
#      x y z
#    x 1.703690 0.000000 0.009900 
#    y 0.000000 1.744240 0.000000 
#    z 0.009900 0.000000 1.713160 
# 
# From -- ./inp_files/70115.got.cif
#   From: 2010.05.17/outbox.cif.g08.bks.cpg/sg15_36_cif.got.tgz:70115.got - 2010.06.03 18:47:42.
