data_PCOD9289827
_publ_section_title
;
Structure prediction by ZEFSAII (Michael W. Deem and Ramdas Pophale) SiO2 
 PCOD9289827
Probable space group: C 2/C
;
_chemical_formula_sum "Si O2"
_cell_formula_units_Z 40
_cell_length_a 21.784755
_cell_length_b 5.138939
_cell_length_c 19.736927
_cell_angle_alpha 90.000000
_cell_angle_beta 51.285116
_cell_angle_gamma 90.000000
_cell_volume 1724.048387
_symmetry_space_group_name_H-M "C 2/C"
_symmetry_group_IT_number 15
_symmetry_cell_setting 'monoclinic'
loop_
_space_group_symop_operation_xyz
x,y,z
-x,y,1/2-z
-x,-y,-z
x,-y,1/2+z
1/2+x,1/2+y,z
1/2-x,1/2+y,1/2-z
1/2-x,1/2-y,-z
1/2+x,1/2-y,1/2+z
loop_
_atom_site_type_symbol
_atom_site_label
_atom_site_fract_x
_atom_site_fract_y
_atom_site_fract_z
Si Si1 0.577735 0.237640 0.825339
Si Si2 0.781210 0.292334 0.373463
Si Si3 0.010500 0.772119 0.160477
Si Si4 0.818315 0.438078 0.979394
Si Si5 0.285363 0.635561 0.188782
O O1 0.648274 0.291521 0.723453
O O2 0.546032 0.950051 0.832365
O O3 0.623759 0.284531 0.863952
O O4 0.512353 0.449231 0.853940
O O5 0.821359 0.346120 0.417639
O O6 0.742933 0.546569 0.365470
O O7 0.711871 0.087115 0.433467
O O8 0.000000 0.770458 0.250000
O O9 0.098665 0.700873 0.078337
O O10 0.750000 0.250000 0.000000
O O11 0.234624 0.872402 0.254551
#
# Coordination Sequence:
#
# PCOD9289827 Si02
#       5
#     8   8   8   8   8
#     4  11  23  42  66  98 126 167 222 267 320 378
#     4  10  23  42  65  97 127 175 217 271 317 391
#     4  12  24  40  65  95 133 169 214 272 322 383
#     4  11  25  41  66  95 134 172 217 266 334 390
#     4  10  22  40  68  96 128 171 223 269 315 387
#
# _framework density 23.201205999999999
#
# number of rings (size 3 to 8) (size 9 to 14) (size 15 to 20)
#    0.000    1.200    2.000    4.200   11.200    0.000 
#    0.000    2.000    0.000    0.000    0.000    0.000 
#    0.000    0.000    0.000    0.000    0.000    0.000 
#
# Total GULP energy -111879.788838 kJ/mol
# GULP energy per Si atom -5593.989442 kJ/mol
# Density = 2.314840 g / cm^3
# Si number density = 23.201206 Si / 1000 Ang^3
#
#
#
# Elastic Constant Matrix: (Units=GPa)
#
#
# Indices 1 2 3 4 5 6 
#
# 1 75.0871 -7.6576 -0.9353 -0.0949 -7.1873 0.0717
# 2 -7.6576 73.5132 -21.5609 -0.0895 13.8130 -0.0412
# 3 -0.9353 -21.5609 55.1810 -0.0523 -9.7657 0.0880
# 4 -0.0949 -0.0895 -0.0523 25.1327 0.0495 -2.6321
# 5 -7.1873 13.8130 -9.7657 0.0495 28.4908 -0.0664
# 6 0.0717 -0.0412 0.0880 -2.6321 -0.0664 57.0420
#
#
#
# Elastic Compliance Matrix: (Units=1/GPa)
#
#
# Indices 1 2 3 4 5 6 
#
# 1 0.013775 0.001185 0.001288 0.000051 0.003342 -0.000012
# 2 0.001185 0.016401 0.005402 0.000085 -0.005801 -0.000001
# 3 0.001288 0.005402 0.021131 0.000056 0.004949 -0.000022
# 4 0.000051 0.000085 0.000056 0.039983 -0.000075 0.001845
# 5 0.003342 -0.005801 0.004949 -0.000075 0.040451 0.000028
# 6 -0.000012 -0.000001 -0.000022 0.001845 0.000028 0.017616
#
#
# Mechanical properties :
#
#
# Convention : Reuss Voigt Hill
#
# Bulk Modulus (GPa) = 14.91315 15.94151 15.42733
# Shear Modulus (GPa) = 32.05974 37.72878 34.89426
#
# Velocity S-wave (km/s) = 3.72131 4.03694 3.88233
# Velocity P-wave (km/s) = 4.99058 5.34930 5.17305
#
# Compressibility (1/GPa) = 0.06705491
#
# Stress axis : x y z
#
# Youngs Moduli (GPa) = 72.59691 60.97241 47.32488
#
# Poissons Ratio (x) = -0.07224 -0.06095
# Poissons Ratio (y) = -0.08601 -0.25564
# Poissons Ratio (z) = -0.09350 -0.32936
#
# Static dielectric constant tensor:
#      x y z
#    x 1.933400 -0.000030 0.074620 
#    y -0.000030 1.896390 0.000070 
#    z 0.074620 0.000070 1.915370 
# 
# From -- ./inp_files/212595.got.cif
#   From: 2010.05.17/outbox.cif.g08.bks.cpg/sg15_107_cif.got.tgz:212595.got - 2010.06.03 18:47:42.
