data_PCOD9289136
_publ_section_title
;
Structure prediction by ZEFSAII (Michael W. Deem and Ramdas Pophale) SiO2 
 PCOD9289136
Probable space group: C 2/C
;
_chemical_formula_sum "Si O2"
_cell_formula_units_Z 64
_cell_length_a 12.752259
_cell_length_b 22.980572
_cell_length_c 11.282960
_cell_angle_alpha 90.000000
_cell_angle_beta 95.262264
_cell_angle_gamma 90.000000
_cell_volume 3292.582963
_symmetry_space_group_name_H-M "C 2/C"
_symmetry_group_IT_number 15
_symmetry_cell_setting 'monoclinic'
loop_
_space_group_symop_operation_xyz
x,y,z
-x,y,1/2-z
-x,-y,-z
x,-y,1/2+z
1/2+x,1/2+y,z
1/2-x,1/2+y,1/2-z
1/2-x,1/2-y,-z
1/2+x,1/2-y,1/2+z
loop_
_atom_site_type_symbol
_atom_site_label
_atom_site_fract_x
_atom_site_fract_y
_atom_site_fract_z
Si Si1 0.115215 0.339849 0.295355
Si Si2 0.243072 0.640672 0.039669
Si Si3 0.940131 0.774771 0.575080
Si Si4 0.157775 0.174388 0.086897
Si Si5 0.786858 0.209317 0.660927
Si Si6 0.380537 0.545136 0.378241
Si Si7 0.080791 0.716600 0.162652
Si Si8 0.870904 0.027954 0.114209
O O1 0.176100 0.367602 0.412514
O O2 0.097347 0.273327 0.336620
O O3 0.193901 0.332837 0.194231
O O4 0.000000 0.363608 0.250000
O O5 0.340701 0.685233 0.033298
O O6 0.167972 0.671348 0.127978
O O7 0.292126 0.580946 0.086148
O O8 0.974377 0.737680 0.463182
O O9 0.042304 0.809766 0.622730
O O10 0.237642 0.226535 0.127947
O O11 0.174640 0.108484 0.130411
O O12 0.158205 0.179112 0.944449
O O13 0.867357 0.226222 0.772809
O O14 0.357632 0.510627 0.252167
O O15 0.508254 0.550094 0.388951
O O16 0.354086 0.516005 0.502366
O O17 0.000000 0.692176 0.250000
#
# Coordination Sequence:
#
# PCOD9289136 Si02
#       8
#     8   8   8   8   8   8   8   8
#     4  11  21  33  52  81 123 164 202 245 291 362
#     4  11  21  35  58  84 114 166 209 241 300 361
#     4  11  19  32  52  81 118 161 202 229 290 366
#     4  11  22  32  54  84 117 158 190 235 295 363
#     4  11  21  33  50  81 118 155 193 233 294 362
#     4  10  22  40  61  88 121 153 197 251 305 358
#     4  11  20  33  49  80 122 156 195 242 287 353
#     4  10  22  40  62  89 116 155 203 247 303 368
#
# _framework density 19.437626999999999
#
# number of rings (size 3 to 8) (size 9 to 14) (size 15 to 20)
#    0.000    1.250    6.250    1.500    0.000    1.000 
#    0.000    1.250    0.000    0.000    0.000   14.875 
#    0.000    0.000    0.000    0.000    0.000    0.000 
#
# Total GULP energy -178485.226535 kJ/mol
# GULP energy per Si atom -5577.663329 kJ/mol
# Density = 1.939339 g / cm^3
# Si number density = 19.437627 Si / 1000 Ang^3
#
#
#
# Elastic Constant Matrix: (Units=GPa)
#
#
# Indices 1 2 3 4 5 6 
#
# 1 56.5336 10.8307 24.6936 0.0000 -8.3688 0.0000
# 2 10.8307 38.3671 29.8142 0.0000 -2.8746 0.0000
# 3 24.6936 29.8142 101.6640 0.0000 -9.9102 0.0000
# 4 0.0000 0.0000 0.0000 19.1786 0.0000 -0.4855
# 5 -8.3688 -2.8746 -9.9102 0.0000 39.0302 0.0000
# 6 0.0000 0.0000 0.0000 -0.4855 0.0000 19.7652
#
#
#
# Elastic Compliance Matrix: (Units=1/GPa)
#
#
# Indices 1 2 3 4 5 6 
#
# 1 0.020339 -0.002468 -0.003906 0.000000 0.003188 0.000000
# 2 -0.002468 0.034056 -0.009428 0.000000 -0.000415 0.000000
# 3 -0.003906 -0.009428 0.013741 0.000000 0.001957 0.000000
# 4 0.000000 0.000000 0.000000 0.052174 0.000000 0.001281
# 5 0.003188 -0.000415 0.001957 0.000000 0.026771 0.000000
# 6 0.000000 0.000000 0.000000 0.001281 0.000000 0.050625
#
#
# Mechanical properties :
#
#
# Convention : Reuss Voigt Hill
#
# Bulk Modulus (GPa) = 27.37299 36.36019 31.86659
# Shear Modulus (GPa) = 20.70496 24.34321 22.52409
#
# Velocity S-wave (km/s) = 3.26728 3.54273 3.40779
# Velocity P-wave (km/s) = 5.32415 5.95662 5.64924
#
# Compressibility (1/GPa) = 0.03653236
#
# Stress axis : x y z
#
# Youngs Moduli (GPa) = 49.16591 29.36329 72.77583
#
# Poissons Ratio (x) = 0.07246 0.28426
# Poissons Ratio (y) = 0.12132 0.68616
# Poissons Ratio (z) = 0.19204 0.27685
#
# Static dielectric constant tensor:
#      x y z
#    x 1.700420 0.000000 0.016500 
#    y 0.000000 1.648020 0.000000 
#    z 0.016500 0.000000 1.755890 
# 
# From -- ./inp_files/90833.got.cif
#   From: 2010.05.17/outbox.cif.g08.bks.cpg/sg15_46_cif.got.tgz:90833.got - 2010.06.03 18:47:42.
