data_PCOD9289986
_publ_section_title
;
Structure prediction by ZEFSAII (Michael W. Deem and Ramdas Pophale) SiO2 
 PCOD9289986
Probable space group: C 2/C
;
_chemical_formula_sum "Si O2"
_cell_formula_units_Z 44
_cell_length_a 7.738049
_cell_length_b 20.044722
_cell_length_c 15.952809
_cell_angle_alpha 90.000000
_cell_angle_beta 127.213211
_cell_angle_gamma 90.000000
_cell_volume 1970.583057
_symmetry_space_group_name_H-M "C 2/C"
_symmetry_group_IT_number 15
_symmetry_cell_setting 'monoclinic'
loop_
_space_group_symop_operation_xyz
x,y,z
-x,y,1/2-z
-x,-y,-z
x,-y,1/2+z
1/2+x,1/2+y,z
1/2-x,1/2+y,1/2-z
1/2-x,1/2-y,-z
1/2+x,1/2-y,1/2+z
loop_
_atom_site_type_symbol
_atom_site_label
_atom_site_fract_x
_atom_site_fract_y
_atom_site_fract_z
Si Si1 0.730503 0.298351 0.572269
Si Si2 0.203682 0.137049 0.614105
Si Si3 0.793852 0.462451 0.402527
Si Si4 0.148168 0.324346 0.161227
Si Si5 0.000000 0.385984 0.750000
Si Si6 0.173659 0.998666 0.177776
O O1 0.750000 0.250000 0.500000
O O2 0.522508 0.344521 0.493939
O O3 0.691374 0.248621 0.638600
O O4 0.946632 0.340217 0.654640
O O5 0.210873 0.161433 0.713486
O O6 0.401405 0.168553 0.620834
O O7 0.247909 0.058064 0.634625
O O8 0.810728 0.381927 0.397083
O O9 0.757724 0.482621 0.295589
O O10 0.584261 0.488237 0.391854
O O11 0.000000 0.500000 0.500000
O O12 0.787208 0.431805 0.692680
#
# Coordination Sequence:
#
# PCOD9289986 Si02
#       6
#     8   8   8   8   4   8
#     4  12  26  43  67  99 138 189 226 282 350 413
#     4  10  22  44  72  95 138 183 222 293 343 412
#     4  10  22  40  72 101 137 176 223 292 341 410
#     4  10  22  44  68 101 135 176 236 274 349 415
#     4  12  28  44  66 102 138 174 236 284 340 428
#     4  10  23  43  64 104 136 175 229 282 349 404
#
# _framework density 22.328417000000002
#
# number of rings (size 3 to 8) (size 9 to 14) (size 15 to 20)
#    0.000    1.455    0.000    4.909    7.636    3.636 
#    0.000    1.818    0.000    0.000    0.000    0.000 
#    0.000    0.000    0.000    0.000    0.000    0.000 
#
# Total GULP energy -123055.392193 kJ/mol
# GULP energy per Si atom -5593.426918 kJ/mol
# Density = 2.227760 g / cm^3
# Si number density = 22.328417 Si / 1000 Ang^3
#
#
#
# Elastic Constant Matrix: (Units=GPa)
#
#
# Indices 1 2 3 4 5 6 
#
# 1 85.9918 35.6992 30.6079 0.0000 16.4751 0.0000
# 2 35.6992 111.9578 61.7859 0.0000 7.5883 0.0000
# 3 30.6079 61.7859 114.1978 0.0000 29.7148 0.0000
# 4 0.0000 0.0000 0.0000 35.0596 0.0000 -3.8056
# 5 16.4751 7.5883 29.7148 0.0000 34.2309 0.0000
# 6 0.0000 0.0000 0.0000 -3.8056 0.0000 26.1482
#
#
#
# Elastic Compliance Matrix: (Units=1/GPa)
#
#
# Indices 1 2 3 4 5 6 
#
# 1 0.014546 -0.004195 -0.000063 0.000000 -0.006016 0.000000
# 2 -0.004195 0.014401 -0.008218 0.000000 0.005961 0.000000
# 3 -0.000063 -0.008218 0.016455 0.000000 -0.012432 0.000000
# 4 0.000000 0.000000 0.000000 0.028981 0.000000 0.004218
# 5 -0.006016 0.005961 -0.012432 0.000000 0.041579 0.000000
# 6 0.000000 0.000000 0.000000 0.004218 0.000000 0.038857
#
#
# Mechanical properties :
#
#
# Convention : Reuss Voigt Hill
#
# Bulk Modulus (GPa) = 48.90492 63.14814 56.02653
# Shear Modulus (GPa) = 26.79698 31.35804 29.07751
#
# Velocity S-wave (km/s) = 3.46805 3.75160 3.61261
# Velocity P-wave (km/s) = 6.16332 6.86359 6.52286
#
# Compressibility (1/GPa) = 0.02044784
#
# Stress axis : x y z
#
# Youngs Moduli (GPa) = 68.74820 69.43982 60.77240
#
# Poissons Ratio (x) = 0.29133 0.00386
# Poissons Ratio (y) = 0.28842 0.49943
# Poissons Ratio (z) = 0.00436 0.57066
#
# Static dielectric constant tensor:
#      x y z
#    x 1.871760 0.000000 0.021530 
#    y 0.000000 1.872330 0.000000 
#    z 0.021530 0.000000 1.817090 
# 
# From -- ./inp_files/134713.got.cif
#   From: 2010.05.17/outbox.cif.g08.bks.cpg/sg15_68_cif.got.tgz:134713.got - 2010.06.03 18:47:42.
