data_PCOD9289044
_publ_section_title
;
Structure prediction by ZEFSAII (Michael W. Deem and Ramdas Pophale) SiO2 
 PCOD9289044
Probable space group: C 2/C
;
_chemical_formula_sum "Si O2"
_cell_formula_units_Z 36
_cell_length_a 15.180398
_cell_length_b 8.548617
_cell_length_c 21.287157
_cell_angle_alpha 90.000000
_cell_angle_beta 144.760308
_cell_angle_gamma 90.000000
_cell_volume 1593.937120
_symmetry_space_group_name_H-M "C 2/C"
_symmetry_group_IT_number 15
_symmetry_cell_setting 'monoclinic'
loop_
_space_group_symop_operation_xyz
x,y,z
-x,y,1/2-z
-x,-y,-z
x,-y,1/2+z
1/2+x,1/2+y,z
1/2-x,1/2+y,1/2-z
1/2-x,1/2-y,-z
1/2+x,1/2-y,1/2+z
loop_
_atom_site_type_symbol
_atom_site_label
_atom_site_fract_x
_atom_site_fract_y
_atom_site_fract_z
Si Si1 0.617744 0.455340 0.515300
Si Si2 0.065183 0.263767 0.657049
Si Si3 0.000000 0.907157 0.250000
Si Si4 0.103318 0.162151 0.389176
Si Si5 0.161699 0.590907 0.760363
O O1 0.500000 0.500000 0.500000
O O2 0.587404 0.280900 0.471947
O O3 0.561884 0.556245 0.424381
O O4 0.774321 0.512390 0.637720
O O5 0.097211 0.446977 0.682173
O O6 0.205328 0.180586 0.701389
O O7 0.048486 0.195186 0.718278
O O8 0.126089 0.034231 0.347509
O O9 0.250000 0.250000 0.500000
O O10 0.968956 0.285015 0.300635
#
# Coordination Sequence:
#
# PCOD9289044 Si02
#       5
#     8   8   4   8   8
#     4   9  20  39  60  87 121 160 208 254 304 370
#     4  10  22  40  65  93 125 167 212 257 315 377
#     4  10  22  40  58  90 126 156 206 264 306 370
#     4  11  23  39  61  89 123 165 210 259 316 371
#     4  11  22  42  65  90 127 170 209 260 313 375
#
# _framework density 22.585583
#
# number of rings (size 3 to 8) (size 9 to 14) (size 15 to 20)
#    0.000    1.778    0.000    5.333    0.000    6.222 
#    0.000   11.111    0.000    0.000    0.000    0.000 
#    0.000    0.000    0.000    0.000    0.000    0.000 
#
# Total GULP energy -100414.973186 kJ/mol
# GULP energy per Si atom -5578.609621 kJ/mol
# Density = 2.253418 g / cm^3
# Si number density = 22.585583 Si / 1000 Ang^3
#
#
#
# Elastic Constant Matrix: (Units=GPa)
#
#
# Indices 1 2 3 4 5 6 
#
# 1 70.6805 8.7207 2.3584 0.0000 -9.8499 0.0000
# 2 8.7207 91.3717 6.9994 0.0000 1.7291 0.0000
# 3 2.3584 6.9994 70.0709 0.0000 -0.2513 0.0000
# 4 0.0000 0.0000 0.0000 -3.7601 0.0000 21.2520
# 5 -9.8499 1.7291 -0.2513 0.0000 32.1551 0.0000
# 6 0.0000 0.0000 0.0000 21.2520 0.0000 21.6097
#
#
#
# Elastic Compliance Matrix: (Units=1/GPa)
#
#
# Indices 1 2 3 4 5 6 
#
# 1 0.014995 -0.001494 -0.000339 0.000000 0.004671 0.000000
# 2 -0.001494 0.011189 -0.001071 0.000000 -0.001068 0.000000
# 3 -0.000339 -0.001071 0.014390 0.000000 0.000066 0.000000
# 4 0.000000 0.000000 0.000000 -0.040551 0.000000 0.039880
# 5 0.004671 -0.001068 0.000066 0.000000 0.032588 0.000000
# 6 0.000000 0.000000 0.000000 0.039880 0.000000 0.007056
#
#
# Mechanical properties :
#
#
# Convention : Reuss Voigt Hill
#
# Bulk Modulus (GPa) = 28.76323 29.80891 29.28607
# Shear Modulus (GPa) = 87.62308 24.27057 55.94682
#
# Velocity S-wave (km/s) = 6.23540 3.28167 4.98245
# Velocity P-wave (km/s) = 8.03761 5.25224 6.78930
#
# Compressibility (1/GPa) = 0.03476660
#
# Stress axis : x y z
#
# Youngs Moduli (GPa) = 66.69031 89.37256 69.49321
#
# Poissons Ratio (x) = 0.13348 0.02354
# Poissons Ratio (y) = 0.09961 0.07444
# Poissons Ratio (z) = 0.02259 0.09574
#
# Static dielectric constant tensor:
#      x y z
#    x 1.727660 0.000000 0.064360 
#    y 0.000000 1.970690 0.000000 
#    z 0.064360 0.000000 1.900140 
# 
# From -- ./inp_files/102436.got.cif
#   From: 2010.05.17/outbox.cif.g08.bks.cpg/sg15_52_cif.got.tgz:102436.got - 2010.06.03 18:47:42.
