data_PCOD9289440
_publ_section_title
;
Structure prediction by ZEFSAII (Michael W. Deem and Ramdas Pophale) SiO2 
 PCOD9289440
Probable space group: C 2/C
;
_chemical_formula_sum "Si O2"
_cell_formula_units_Z 40
_cell_length_a 22.210046
_cell_length_b 5.014407
_cell_length_c 22.696870
_cell_angle_alpha 90.000000
_cell_angle_beta 38.288768
_cell_angle_gamma 90.000000
_cell_volume 1566.260749
_symmetry_space_group_name_H-M "C 2/C"
_symmetry_group_IT_number 15
_symmetry_cell_setting 'monoclinic'
loop_
_space_group_symop_operation_xyz
x,y,z
-x,y,1/2-z
-x,-y,-z
x,-y,1/2+z
1/2+x,1/2+y,z
1/2-x,1/2+y,1/2-z
1/2-x,1/2-y,-z
1/2+x,1/2-y,1/2+z
loop_
_atom_site_type_symbol
_atom_site_label
_atom_site_fract_x
_atom_site_fract_y
_atom_site_fract_z
Si Si1 0.408425 0.657494 0.601152
Si Si2 0.359669 0.856679 0.515008
Si Si3 0.424158 0.805717 0.166239
Si Si4 0.864561 0.238430 0.920466
Si Si5 0.357444 0.232291 0.851155
O O1 0.500000 0.500000 0.500000
O O2 0.352246 0.792349 0.589709
O O3 0.366558 0.415230 0.672071
O O4 0.424767 0.908557 0.632539
O O5 0.461942 0.722992 0.418758
O O6 0.261686 0.749112 0.559821
O O7 0.373991 0.163146 0.481413
O O8 0.385718 0.800915 0.261681
O O9 0.898853 0.490004 0.856535
O O10 0.894721 0.987479 0.858438
O O11 0.750000 0.250000 0.000000
#
# Coordination Sequence:
#
# PCOD9289440 Si02
#       5
#     8   8   8   8   8
#     4  10  22  40  64  95 128 167 216 262 318 392
#     4  10  22  41  66  88 126 170 205 266 325 371
#     4  11  24  41  62  96 131 166 216 265 319 393
#     4  10  22  41  63  91 123 164 215 264 318 384
#     4  11  24  41  63  93 127 164 215 266 318 387
#
# _framework density 25.538530000000002
#
# number of rings (size 3 to 8) (size 9 to 14) (size 15 to 20)
#    0.000    1.600    0.000    6.000    0.000   16.800 
#    0.000    4.000    0.000    0.000    0.000    0.000 
#    0.000    0.000    0.000    0.000    0.000    0.000 
#
# Total GULP energy -111597.574617 kJ/mol
# GULP energy per Si atom -5579.878731 kJ/mol
# Density = 2.548040 g / cm^3
# Si number density = 25.538530 Si / 1000 Ang^3
#
#
#
# Elastic Constant Matrix: (Units=GPa)
#
#
# Indices 1 2 3 4 5 6 
#
# 1 111.1534 61.8263 22.5003 -0.0135 26.4394 -0.0181
# 2 61.8263 220.3221 29.0074 -0.0061 34.3692 0.2117
# 3 22.5003 29.0074 105.3441 -0.0700 14.3277 0.0520
# 4 -0.0135 -0.0061 -0.0700 12.0231 -0.0249 15.3704
# 5 26.4394 34.3692 14.3277 -0.0249 51.8558 0.1496
# 6 -0.0181 0.2117 0.0520 15.3704 0.1496 55.4927
#
#
#
# Elastic Compliance Matrix: (Units=1/GPa)
#
#
# Indices 1 2 3 4 5 6 
#
# 1 0.011553 -0.002467 -0.001257 -0.000055 -0.003908 0.000040
# 2 -0.002467 0.005687 -0.000725 0.000017 -0.002311 -0.000020
# 3 -0.001257 -0.000725 0.010191 0.000089 -0.001695 -0.000027
# 4 -0.000055 0.000017 0.000089 0.128771 0.000157 -0.035668
# 5 -0.003908 -0.002311 -0.001695 0.000157 0.023277 -0.000097
# 6 0.000040 -0.000020 -0.000027 -0.035668 -0.000097 0.027900
#
#
# Mechanical properties :
#
#
# Convention : Reuss Voigt Hill
#
# Bulk Modulus (GPa) = 53.95379 73.72085 63.83732
# Shear Modulus (GPa) = 22.47652 45.44003 33.95827
#
# Velocity S-wave (km/s) = 2.96987 4.22272 3.65044
# Velocity P-wave (km/s) = 5.73868 7.25978 6.54358
#
# Compressibility (1/GPa) = 0.01853438
#
# Stress axis : x y z
#
# Youngs Moduli (GPa) = 86.55978 175.83925 98.12341
#
# Poissons Ratio (x) = 0.43376 0.12332
# Poissons Ratio (y) = 0.21353 0.07111
# Poissons Ratio (z) = 0.10879 0.12743
#
# Static dielectric constant tensor:
#      x y z
#    x 2.096340 -0.000190 -0.011250 
#    y -0.000190 2.133890 0.000090 
#    z -0.011250 0.000090 2.070010 
# 
# From -- ./inp_files/278771.got.cif
#   From: 2010.05.17/outbox.cif.g08.bks.cpg/sg15_140_cif.got.tgz:278771.got - 2010.06.03 18:47:42.
