data_PCOD9289621
_publ_section_title
;
Structure prediction by ZEFSAII (Michael W. Deem and Ramdas Pophale) SiO2 
 PCOD9289621
Probable space group: C 2/C
;
_chemical_formula_sum "Si O2"
_cell_formula_units_Z 60
_cell_length_a 19.345484
_cell_length_b 5.818187
_cell_length_c 28.536990
_cell_angle_alpha 90.000000
_cell_angle_beta 122.569173
_cell_angle_gamma 90.000000
_cell_volume 2706.887178
_symmetry_space_group_name_H-M "C 2/C"
_symmetry_group_IT_number 15
_symmetry_cell_setting 'monoclinic'
loop_
_space_group_symop_operation_xyz
x,y,z
-x,y,1/2-z
-x,-y,-z
x,-y,1/2+z
1/2+x,1/2+y,z
1/2-x,1/2+y,1/2-z
1/2-x,1/2-y,-z
1/2+x,1/2-y,1/2+z
loop_
_atom_site_type_symbol
_atom_site_label
_atom_site_fract_x
_atom_site_fract_y
_atom_site_fract_z
Si Si1 0.442005 0.195592 0.957432
Si Si2 0.767040 0.697776 0.280169
Si Si3 0.500000 0.285573 0.250000
Si Si4 0.687904 0.318609 0.435355
Si Si5 0.659164 0.432633 0.829941
Si Si6 0.436531 0.047543 0.648009
Si Si7 0.438739 0.566044 0.544192
Si Si8 0.564670 0.057451 0.129596
O O1 0.505299 0.369963 0.956649
O O2 0.393310 0.080322 0.897707
O O3 0.395474 0.318844 0.982702
O O4 0.500000 0.000000 0.000000
O O5 0.746763 0.950695 0.251582
O O6 0.719435 0.666488 0.312358
O O7 0.864731 0.696748 0.320323
O O8 0.414137 0.423068 0.221716
O O9 0.516171 0.130425 0.301088
O O10 0.750000 0.250000 0.500000
O O11 0.703681 0.428179 0.389387
O O12 0.625938 0.494326 0.439664
O O13 0.634667 0.091213 0.404812
O O14 0.607273 0.235176 0.836800
O O15 0.510263 0.117938 0.640338
O O16 0.499730 0.758109 0.586737
#
# Coordination Sequence:
#
# PCOD9289621 Si02
#       8
#     8   8   4   8   8   8   8   8
#     4   9  18  35  61  94 126 170 229 281 348 419
#     4  12  31  49  72 107 151 188 242 307 385 439
#     4  10  22  40  72  96 132 178 242 302 358 436
#     4  10  23  41  65  98 144 183 236 296 361 434
#     4  11  25  44  71 106 137 192 240 307 369 444
#     4  10  22  42  69  95 133 180 246 290 364 432
#     4   9  19  38  62  96 131 181 233 290 348 431
#     4  10  22  40  66  92 134 184 234 296 354 438
#
# _framework density 22.165682
#
# number of rings (size 3 to 8) (size 9 to 14) (size 15 to 20)
#    0.000    1.867    0.000    2.000   11.200    0.533 
#    7.200    0.000    0.000    0.000    0.000    0.000 
#    0.000    0.000    0.000    0.000    0.000    0.000 
#
# Total GULP energy -167166.119295 kJ/mol
# GULP energy per Si atom -5572.203977 kJ/mol
# Density = 2.211523 g / cm^3
# Si number density = 22.165682 Si / 1000 Ang^3
#
#
#
# Elastic Constant Matrix: (Units=GPa)
#
#
# Indices 1 2 3 4 5 6 
#
# 1 92.7529 19.0904 35.9148 0.0000 -28.2144 0.0003
# 2 19.0904 67.6991 29.5535 0.0002 -8.8544 0.0005
# 3 35.9148 29.5535 116.6306 0.0000 2.5502 0.0001
# 4 0.0000 0.0002 0.0000 12.8091 -0.0001 -19.9596
# 5 -28.2144 -8.8544 2.5502 -0.0001 33.2019 0.0000
# 6 0.0003 0.0005 0.0001 -19.9596 0.0000 24.2075
#
#
#
# Elastic Compliance Matrix: (Units=1/GPa)
#
#
# Indices 1 2 3 4 5 6 
#
# 1 0.017771 -0.000519 -0.005678 0.000000 0.015399 0.000000
# 2 -0.000519 0.017410 -0.004351 0.000002 0.004536 0.000002
# 3 -0.005678 -0.004351 0.011575 0.000000 -0.006874 0.000000
# 4 0.000000 0.000002 0.000000 -0.274131 0.000001 -0.226026
# 5 0.015399 0.004536 -0.006874 0.000001 0.044942 0.000000
# 6 0.000000 0.000002 0.000000 -0.226026 0.000000 -0.145053
#
#
# Mechanical properties :
#
#
# Convention : Reuss Voigt Hill
#
# Bulk Modulus (GPa) = 38.96874 49.57780 44.27327
# Shear Modulus (GPa) = -16.78769 26.87864 5.04547
#
# Velocity S-wave (km/s) = -2.75503 3.48605 1.51036
# Velocity P-wave (km/s) = 2.73836 6.21441 4.80195
#
# Compressibility (1/GPa) = 0.02566160
#
# Stress axis : x y z
#
# Youngs Moduli (GPa) = 56.27257 57.43727 86.39118
#
# Poissons Ratio (x) = 0.02979 0.49049
# Poissons Ratio (y) = 0.02918 0.37590
# Poissons Ratio (z) = 0.31949 0.24992
#
# Static dielectric constant tensor:
#      x y z
#    x 1.775320 0.000000 -0.204100 
#    y 0.000000 1.855080 0.000000 
#    z -0.204100 0.000000 1.609530 
# 
# From -- ./inp_files/300137.got.cif
#   From: 2010.05.17/outbox.cif.g08.bks.cpg/sg15_151_cif.got.tgz:300137.got - 2010.06.03 18:47:42.
