data_PCOD9289811
_publ_section_title
;
Structure prediction by ZEFSAII (Michael W. Deem and Ramdas Pophale) SiO2 
 PCOD9289811
Probable space group: C 2/C
;
_chemical_formula_sum "Si O2"
_cell_formula_units_Z 60
_cell_length_a 11.839985
_cell_length_b 13.258921
_cell_length_c 16.632964
_cell_angle_alpha 90.000000
_cell_angle_beta 114.004929
_cell_angle_gamma 90.000000
_cell_volume 2385.297259
_symmetry_space_group_name_H-M "C 2/C"
_symmetry_group_IT_number 15
_symmetry_cell_setting 'monoclinic'
loop_
_space_group_symop_operation_xyz
x,y,z
-x,y,1/2-z
-x,-y,-z
x,-y,1/2+z
1/2+x,1/2+y,z
1/2-x,1/2+y,1/2-z
1/2-x,1/2-y,-z
1/2+x,1/2-y,1/2+z
loop_
_atom_site_type_symbol
_atom_site_label
_atom_site_fract_x
_atom_site_fract_y
_atom_site_fract_z
Si Si1 0.460629 0.341920 0.832115
Si Si2 0.500000 0.252855 0.250000
Si Si3 0.601327 0.128350 0.709275
Si Si4 0.690668 0.910358 0.952117
Si Si5 0.206386 0.205966 0.612559
Si Si6 0.683856 0.079157 0.264612
Si Si7 0.770858 0.895543 0.545775
Si Si8 0.069747 0.203487 0.935611
O O1 0.500000 0.333250 0.750000
O O2 0.441515 0.224958 0.856326
O O3 0.329722 0.398575 0.798784
O O4 0.579448 0.396278 0.905463
O O5 0.599609 0.179603 0.235503
O O6 0.430829 0.314959 0.161070
O O7 0.500000 0.119365 0.750000
O O8 0.724466 0.168259 0.789137
O O9 0.634364 0.013430 0.696272
O O10 0.824235 0.856043 0.988625
O O11 0.705917 0.997803 0.020705
O O12 0.665064 0.948196 0.854492
O O13 0.598281 0.822291 0.950531
O O14 0.263183 0.156783 0.548943
O O15 0.224226 0.324694 0.603578
O O16 0.064643 0.176813 0.573875
#
# Coordination Sequence:
#
# PCOD9289811 Si02
#       8
#     8   4   8   8   8   8   8   8
#     4  11  24  42  60  96 138 162 210 277 327 380
#     4  10  22  40  68  94 128 174 216 266 326 392
#     4  11  21  42  65  93 126 168 212 272 315 381
#     4  10  23  44  67  94 131 171 219 267 317 399
#     4  11  22  40  68  95 126 168 217 272 314 384
#     4  11  22  41  70  94 124 177 222 260 324 393
#     4  11  23  40  66  96 126 170 216 265 327 376
#     4  10  23  43  66  95 133 169 218 268 326 385
#
# _framework density 25.154097
#
# number of rings (size 3 to 8) (size 9 to 14) (size 15 to 20)
#    0.000    1.333    4.667    1.600    1.867    1.600 
#    1.200    4.000    0.000    0.000    0.000    0.000 
#    0.000    0.000    0.000    0.000    0.000    0.000 
#
# Total GULP energy -167876.444275 kJ/mol
# GULP energy per Si atom -5595.881476 kJ/mol
# Density = 2.509685 g / cm^3
# Si number density = 25.154097 Si / 1000 Ang^3
#
#
#
# Elastic Constant Matrix: (Units=GPa)
#
#
# Indices 1 2 3 4 5 6 
#
# 1 79.1825 -15.9047 -5.4737 0.0000 7.8930 0.0000
# 2 -15.9047 48.2061 3.2651 0.0000 -12.4402 0.0000
# 3 -5.4737 3.2651 73.8560 0.0000 8.1448 0.0000
# 4 0.0000 0.0000 0.0000 33.7617 0.0000 5.8143
# 5 7.8930 -12.4402 8.1448 0.0000 35.2510 0.0000
# 6 0.0000 0.0000 0.0000 5.8143 0.0000 12.9618
#
#
#
# Elastic Compliance Matrix: (Units=1/GPa)
#
#
# Indices 1 2 3 4 5 6 
#
# 1 0.013686 0.003951 0.001051 0.000000 -0.001913 0.000000
# 2 0.003951 0.024239 -0.001667 0.000000 0.008055 0.000000
# 3 0.001051 -0.001667 0.014143 0.000000 -0.004091 0.000000
# 4 0.000000 0.000000 0.000000 0.032099 0.000000 -0.014399
# 5 -0.001913 0.008055 -0.004091 0.000000 0.032584 0.000000
# 6 0.000000 0.000000 0.000000 -0.014399 0.000000 0.083609
#
#
# Mechanical properties :
#
#
# Convention : Reuss Voigt Hill
#
# Bulk Modulus (GPa) = 17.02535 18.33534 17.68034
# Shear Modulus (GPa) = 23.44446 31.01877 27.23161
#
# Velocity S-wave (km/s) = 3.05623 3.51543 3.29385
# Velocity P-wave (km/s) = 4.38602 4.87675 4.63788
#
# Compressibility (1/GPa) = 0.05873595
#
# Stress axis : x y z
#
# Youngs Moduli (GPa) = 73.06800 41.25543 70.70835
#
# Poissons Ratio (x) = -0.16298 -0.07429
# Poissons Ratio (y) = -0.28866 0.11788
# Poissons Ratio (z) = -0.07677 0.06878
#
# Static dielectric constant tensor:
#      x y z
#    x 1.952230 0.000000 -0.024160 
#    y 0.000000 2.049800 0.000000 
#    z -0.024160 0.000000 2.008100 
# 
# From -- ./inp_files/198390.got.cif
#   From: 2010.05.17/outbox.cif.g08.bks.cpg/sg15_100_cif.got.tgz:198390.got - 2010.06.03 18:47:42.
