data_PCOD9289373
_publ_section_title
;
Structure prediction by ZEFSAII (Michael W. Deem and Ramdas Pophale) SiO2 
 PCOD9289373
Probable space group: C 2/C
;
_chemical_formula_sum "Si O2"
_cell_formula_units_Z 44
_cell_length_a 10.791748
_cell_length_b 26.375001
_cell_length_c 13.936652
_cell_angle_alpha 90.000000
_cell_angle_beta 146.282729
_cell_angle_gamma 90.000000
_cell_volume 2201.963900
_symmetry_space_group_name_H-M "C 2/C"
_symmetry_group_IT_number 15
_symmetry_cell_setting 'monoclinic'
loop_
_space_group_symop_operation_xyz
x,y,z
-x,y,1/2-z
-x,-y,-z
x,-y,1/2+z
1/2+x,1/2+y,z
1/2-x,1/2+y,1/2-z
1/2-x,1/2-y,-z
1/2+x,1/2-y,1/2+z
loop_
_atom_site_type_symbol
_atom_site_label
_atom_site_fract_x
_atom_site_fract_y
_atom_site_fract_z
Si Si1 0.810655 0.915510 0.302816
Si Si2 0.295052 0.687990 0.690240
Si Si3 0.076395 0.107930 0.146128
Si Si4 0.302158 0.930166 0.976497
Si Si5 0.000000 0.978236 0.250000
Si Si6 0.889411 0.695914 0.284334
O O1 0.798310 0.855554 0.271454
O O2 0.559666 0.931012 0.167945
O O3 0.995344 0.924444 0.503018
O O4 0.882352 0.944259 0.253394
O O5 0.500000 0.678864 0.750000
O O6 0.322895 0.745101 0.745913
O O7 0.074521 0.685265 0.483811
O O8 0.255448 0.082883 0.334060
O O9 0.183970 0.159077 0.174668
O O10 0.846999 0.110454 0.060450
O O11 0.181773 0.983993 0.913856
O O12 0.000000 0.687241 0.250000
#
# Coordination Sequence:
#
# PCOD9289373 Si02
#       6
#     8   8   8   8   4   8
#     4  12  21  41  66  92 126 168 206 262 319 365
#     4  11  21  36  60  95 129 161 208 259 310 373
#     4  10  22  40  64  88 127 165 208 251 312 373
#     4  10  24  44  61  89 129 167 208 268 301 371
#     4  10  24  40  66  94 124 156 224 258 316 376
#     4  11  21  37  61  95 128 165 206 259 311 370
#
# _framework density 19.982163
#
# number of rings (size 3 to 8) (size 9 to 14) (size 15 to 20)
#    0.000    1.455    2.727    5.455    0.000    2.909 
#    0.000    4.545    4.000    0.000    0.000    0.000 
#    0.000    0.000    0.000    0.000    0.000    0.000 
#
# Total GULP energy -122842.775898 kJ/mol
# GULP energy per Si atom -5583.762541 kJ/mol
# Density = 1.993668 g / cm^3
# Si number density = 19.982163 Si / 1000 Ang^3
#
#
#
# Elastic Constant Matrix: (Units=GPa)
#
#
# Indices 1 2 3 4 5 6 
#
# 1 82.6946 47.1266 22.6491 0.0000 11.7721 0.0000
# 2 47.1266 81.0588 23.5807 0.0000 12.1270 0.0000
# 3 22.6491 23.5807 82.6852 0.0000 10.2056 0.0000
# 4 0.0000 0.0000 0.0000 26.4383 0.0000 -4.9398
# 5 11.7721 12.1270 10.2056 0.0000 32.9416 0.0000
# 6 0.0000 0.0000 0.0000 -4.9398 0.0000 26.7172
#
#
#
# Elastic Compliance Matrix: (Units=1/GPa)
#
#
# Indices 1 2 3 4 5 6 
#
# 1 0.018610 -0.009884 -0.001983 0.000000 -0.002397 0.000000
# 2 -0.009884 0.019206 -0.002426 0.000000 -0.002787 0.000000
# 3 -0.001983 -0.002426 0.013653 0.000000 -0.002628 0.000000
# 4 0.000000 0.000000 0.000000 0.039177 0.000000 0.007244
# 5 -0.002397 -0.002787 -0.002628 0.000000 0.033054 0.000000
# 6 0.000000 0.000000 0.000000 0.007244 0.000000 0.038768
#
#
# Mechanical properties :
#
#
# Convention : Reuss Voigt Hill
#
# Bulk Modulus (GPa) = 43.69957 48.12792 45.91374
# Shear Modulus (GPa) = 25.16587 27.42491 26.29539
#
# Velocity S-wave (km/s) = 3.55268 3.70870 3.63153
# Velocity P-wave (km/s) = 6.22458 6.51744 6.37270
#
# Compressibility (1/GPa) = 0.02288352
#
# Stress axis : x y z
#
# Youngs Moduli (GPa) = 53.73498 52.06765 73.24162
#
# Poissons Ratio (x) = 0.51464 0.14523
# Poissons Ratio (y) = 0.53112 0.17767
# Poissons Ratio (z) = 0.10655 0.12631
#
# Static dielectric constant tensor:
#      x y z
#    x 1.709740 0.000000 -0.023330 
#    y 0.000000 1.695370 0.000000 
#    z -0.023330 0.000000 1.723420 
# 
# From -- ./inp_files/149080.got.cif
#   From: 2010.05.17/outbox.cif.g08.bks.cpg/sg15_75_cif.got.tgz:149080.got - 2010.06.03 18:47:42.
