data_PCOD9289774
_publ_section_title
;
Structure prediction by ZEFSAII (Michael W. Deem and Ramdas Pophale) SiO2 
 PCOD9289774
Probable space group: C 2/C
;
_chemical_formula_sum "Si O2"
_cell_formula_units_Z 56
_cell_length_a 20.063395
_cell_length_b 13.440260
_cell_length_c 18.765358
_cell_angle_alpha 90.000000
_cell_angle_beta 27.767377
_cell_angle_gamma 90.000000
_cell_volume 2357.467536
_symmetry_space_group_name_H-M "C 2/C"
_symmetry_group_IT_number 15
_symmetry_cell_setting 'monoclinic'
loop_
_space_group_symop_operation_xyz
x,y,z
-x,y,1/2-z
-x,-y,-z
x,-y,1/2+z
1/2+x,1/2+y,z
1/2-x,1/2+y,1/2-z
1/2-x,1/2-y,-z
1/2+x,1/2-y,1/2+z
loop_
_atom_site_type_symbol
_atom_site_label
_atom_site_fract_x
_atom_site_fract_y
_atom_site_fract_z
Si Si1 0.336570 0.847659 0.433633
Si Si2 0.442606 0.112250 0.384412
Si Si3 0.832081 0.048037 0.926923
Si Si4 0.095871 0.721728 0.937575
Si Si5 0.796328 0.060886 0.731163
Si Si6 0.065147 0.578143 0.519837
Si Si7 0.898778 0.066067 0.016461
O O1 0.500000 0.845360 0.250000
O O2 0.250000 0.750000 0.500000
O O3 0.244778 0.941324 0.493290
O O4 0.343059 0.858392 0.512420
O O5 0.500000 0.130113 0.250000
O O6 0.464147 0.190923 0.427283
O O7 0.271158 0.102187 0.532034
O O8 0.499236 0.007403 0.365147
O O9 0.000000 0.042022 0.750000
O O10 0.828159 0.095866 0.009268
O O11 0.254201 0.674821 0.781579
O O12 0.101809 0.839988 0.929367
O O13 0.018385 0.657191 0.949460
O O14 0.934653 0.038441 0.647532
O O15 0.664189 0.991669 0.878005
O O16 0.829029 0.028629 0.619976
#
# Coordination Sequence:
#
# PCOD9289774 Si02
#       7
#     8   8   8   8   8   8   8
#     4  11  25  43  71 105 137 187 247 298 358 429
#     4  10  22  40  68 101 135 182 238 293 359 428
#     4  11  23  42  68  95 146 186 226 299 364 418
#     4  11  25  42  72 100 137 187 240 289 353 447
#     4  10  24  45  62 100 141 175 234 292 359 416
#     4  10  22  43  69  95 138 182 231 293 355 425
#     4  11  26  41  69 101 138 189 229 297 365 426
#
# _framework density 23.754304000000001
#
# number of rings (size 3 to 8) (size 9 to 14) (size 15 to 20)
#    0.000    1.429    0.000    6.429    8.000    4.571 
#    0.000    0.000    0.000    0.857    0.000    0.000 
#    0.000    0.000    0.000    0.000    0.000    0.000 
#
# Total GULP energy -156386.382054 kJ/mol
# GULP energy per Si atom -5585.227930 kJ/mol
# Density = 2.370024 g / cm^3
# Si number density = 23.754304 Si / 1000 Ang^3
#
#
#
# Elastic Constant Matrix: (Units=GPa)
#
#
# Indices 1 2 3 4 5 6 
#
# 1 115.8247 25.2909 4.8784 0.0000 1.8446 -0.0001
# 2 25.2909 77.7370 7.0623 0.0002 0.7318 -0.0001
# 3 4.8784 7.0623 97.5064 0.0000 -9.9093 -0.0001
# 4 0.0000 0.0002 0.0000 15.3400 0.0000 -6.0597
# 5 1.8446 0.7318 -9.9093 0.0000 33.0169 0.0000
# 6 -0.0001 -0.0001 -0.0001 -6.0597 0.0000 30.1698
#
#
#
# Elastic Compliance Matrix: (Units=1/GPa)
#
#
# Indices 1 2 3 4 5 6 
#
# 1 0.009309 -0.002996 -0.000304 0.000000 -0.000545 0.000000
# 2 -0.002996 0.013924 -0.000900 0.000000 -0.000411 0.000000
# 3 -0.000304 -0.000900 0.010665 0.000000 0.003238 0.000000
# 4 0.000000 0.000000 0.000000 0.070807 0.000000 0.014222
# 5 -0.000545 -0.000411 0.003238 0.000000 0.031299 0.000000
# 6 0.000000 0.000000 0.000000 0.014222 0.000000 0.036002
#
#
# Mechanical properties :
#
#
# Convention : Reuss Voigt Hill
#
# Bulk Modulus (GPa) = 39.21909 40.61459 39.91684
# Shear Modulus (GPa) = 26.46798 32.62777 29.54788
#
# Velocity S-wave (km/s) = 3.34164 3.71017 3.53072
# Velocity P-wave (km/s) = 5.60669 5.95724 5.78462
#
# Compressibility (1/GPa) = 0.02549779
#
# Stress axis : x y z
#
# Youngs Moduli (GPa) = 107.41821 71.81713 93.76266
#
# Poissons Ratio (x) = 0.21516 0.02852
# Poissons Ratio (y) = 0.32182 0.08443
# Poissons Ratio (z) = 0.03267 0.06467
#
# Static dielectric constant tensor:
#      x y z
#    x 1.946970 0.000000 0.000570 
#    y 0.000000 1.914790 0.000000 
#    z 0.000570 0.000000 1.997130 
# 
# From -- ./inp_files/215726.got.cif
#   From: 2010.05.17/outbox.cif.g08.bks.cpg/sg15_108_cif.got.tgz:215726.got - 2010.06.03 18:47:42.
