data_PCOD9289903
_publ_section_title
;
Structure prediction by ZEFSAII (Michael W. Deem and Ramdas Pophale) SiO2 
 PCOD9289903
Probable space group: C 2/C
;
_chemical_formula_sum "Si O2"
_cell_formula_units_Z 36
_cell_length_a 14.759957
_cell_length_b 7.691418
_cell_length_c 13.497909
_cell_angle_alpha 90.000000
_cell_angle_beta 72.167019
_cell_angle_gamma 90.000000
_cell_volume 1458.725691
_symmetry_space_group_name_H-M "C 2/C"
_symmetry_group_IT_number 15
_symmetry_cell_setting 'monoclinic'
loop_
_space_group_symop_operation_xyz
x,y,z
-x,y,1/2-z
-x,-y,-z
x,-y,1/2+z
1/2+x,1/2+y,z
1/2-x,1/2+y,1/2-z
1/2-x,1/2-y,-z
1/2+x,1/2-y,1/2+z
loop_
_atom_site_type_symbol
_atom_site_label
_atom_site_fract_x
_atom_site_fract_y
_atom_site_fract_z
Si Si1 0.316072 0.552829 0.855240
Si Si2 0.729894 0.825146 0.211191
Si Si3 0.500000 0.775969 0.750000
Si Si4 0.899831 0.901734 0.016732
Si Si5 0.938742 0.402187 0.354265
O O1 0.302921 0.365648 0.808674
O O2 0.230212 0.653972 0.829529
O O3 0.410732 0.654225 0.794413
O O4 0.331386 0.511414 0.965092
O O5 0.658121 0.945204 0.172636
O O6 0.834562 0.861365 0.132664
O O7 0.505980 0.914851 0.656273
O O8 0.920931 0.719824 0.952532
O O9 0.000000 0.000000 0.000000
O O10 0.000000 0.300062 0.250000
#
# Coordination Sequence:
#
# PCOD9289903 Si02
#       5
#     8   8   4   8   8
#     4  11  23  44  69 101 142 185 235 287 358 414
#     4  11  24  42  73 102 140 184 236 293 352 427
#     4  10  22  40  70 100 132 192 230 286 350 422
#     4  11  25  44  75 110 144 184 236 295 357 431
#     4   9  22  43  69 101 142 183 237 281 360 411
#
# _framework density 24.679075000000001
#
# number of rings (size 3 to 8) (size 9 to 14) (size 15 to 20)
#    0.667    0.889    0.000    5.333   12.444    0.000 
#    0.000   14.444    4.889    0.000    0.000    0.000 
#    0.000    0.000    0.000    0.000    0.000    0.000 
#
# Total GULP energy -100415.563028 kJ/mol
# GULP energy per Si atom -5578.642390 kJ/mol
# Density = 2.462290 g / cm^3
# Si number density = 24.679075 Si / 1000 Ang^3
#
#
#
# Elastic Constant Matrix: (Units=GPa)
#
#
# Indices 1 2 3 4 5 6 
#
# 1 66.7651 29.9145 27.6106 0.0000 7.2322 0.0000
# 2 29.9145 84.7730 34.8081 0.0000 -2.8443 0.0000
# 3 27.6106 34.8081 89.0689 0.0000 5.7877 0.0000
# 4 0.0000 0.0000 0.0000 37.0010 0.0000 -7.9796
# 5 7.2322 -2.8443 5.7877 0.0000 49.5271 0.0000
# 6 0.0000 0.0000 0.0000 -7.9796 0.0000 44.9056
#
#
#
# Elastic Compliance Matrix: (Units=1/GPa)
#
#
# Indices 1 2 3 4 5 6 
#
# 1 0.019188 -0.005348 -0.003684 0.000000 -0.002679 0.000000
# 2 -0.005348 0.015647 -0.004601 0.000000 0.002217 0.000000
# 3 -0.003684 -0.004601 0.014258 0.000000 -0.001392 0.000000
# 4 0.000000 0.000000 0.000000 0.028103 0.000000 0.004994
# 5 -0.002679 0.002217 -0.001392 0.000000 0.020872 0.000000
# 6 0.000000 0.000000 0.000000 0.004994 0.000000 0.023156
#
#
# Mechanical properties :
#
#
# Convention : Reuss Voigt Hill
#
# Bulk Modulus (GPa) = 45.81617 47.25259 46.53438
# Shear Modulus (GPa) = 32.09938 36.17165 34.13552
#
# Velocity S-wave (km/s) = 3.61040 3.83257 3.72314
# Velocity P-wave (km/s) = 5.99875 6.22682 6.11385
#
# Compressibility (1/GPa) = 0.02182636
#
# Stress axis : x y z
#
# Youngs Moduli (GPa) = 52.11646 63.90980 70.13691
#
# Poissons Ratio (x) = 0.34180 0.25838
# Poissons Ratio (y) = 0.27873 0.32270
# Poissons Ratio (z) = 0.19199 0.29405
#
# Static dielectric constant tensor:
#      x y z
#    x 2.095350 0.000000 0.049890 
#    y 0.000000 2.008310 0.000000 
#    z 0.049890 0.000000 1.981370 
# 
# From -- ./inp_files/158638.got.cif
#   From: 2010.05.17/outbox.cif.g08.bks.cpg/sg15_80_cif.got.tgz:158638.got - 2010.06.03 18:47:42.
