data_PCOD9289461
_publ_section_title
;
Structure prediction by ZEFSAII (Michael W. Deem and Ramdas Pophale) SiO2 
 PCOD9289461
Probable space group: C 2/C
;
_chemical_formula_sum "Si O2"
_cell_formula_units_Z 32
_cell_length_a 10.464135
_cell_length_b 18.988968
_cell_length_c 7.792139
_cell_angle_alpha 90.000000
_cell_angle_beta 53.262762
_cell_angle_gamma 90.000000
_cell_volume 1240.805514
_symmetry_space_group_name_H-M "C 2/C"
_symmetry_group_IT_number 15
_symmetry_cell_setting 'monoclinic'
loop_
_space_group_symop_operation_xyz
x,y,z
-x,y,1/2-z
-x,-y,-z
x,-y,1/2+z
1/2+x,1/2+y,z
1/2-x,1/2+y,1/2-z
1/2-x,1/2-y,-z
1/2+x,1/2-y,1/2+z
loop_
_atom_site_type_symbol
_atom_site_label
_atom_site_fract_x
_atom_site_fract_y
_atom_site_fract_z
Si Si1 0.912385 0.408378 0.086769
Si Si2 0.456861 0.354565 0.581346
Si Si3 0.238394 0.271499 0.207797
Si Si4 0.221695 0.541201 0.166783
O O1 0.901674 0.327626 0.147289
O O2 0.815197 0.458011 0.296785
O O3 0.829779 0.425737 0.971885
O O4 0.094447 0.430912 0.910440
O O5 0.500000 0.357217 0.750000
O O6 0.606025 0.316799 0.371381
O O7 0.309406 0.300995 0.664609
O O8 0.395663 0.430127 0.570888
O O9 0.250000 0.250000 0.000000
#
# Coordination Sequence:
#
# PCOD9289461 Si02
#       4
#     8   8   8   8
#     4  10  23  43  68 100 135 182 226 281 338 405
#     4  10  22  40  64  99 131 180 221 282 337 397
#     4  10  22  40  64  97 132 175 224 277 335 401
#     4  10  23  43  68  99 138 179 229 279 339 403
#
# _framework density 25.7897
#
# number of rings (size 3 to 8) (size 9 to 14) (size 15 to 20)
#    0.000    2.000    0.000    1.500    7.000    5.000 
#    9.000    0.000    0.000    0.000    0.000    0.000 
#    0.000    0.000    0.000    0.000    0.000    0.000 
#
# Total GULP energy -89549.321427 kJ/mol
# GULP energy per Si atom -5596.832589 kJ/mol
# Density = 2.573100 g / cm^3
# Si number density = 25.789700 Si / 1000 Ang^3
#
#
#
# Elastic Constant Matrix: (Units=GPa)
#
#
# Indices 1 2 3 4 5 6 
#
# 1 97.0275 22.1652 32.6298 0.0000 1.4981 0.0000
# 2 22.1652 131.0865 18.0090 0.0000 12.0243 0.0000
# 3 32.6298 18.0090 57.4136 0.0000 9.9185 0.0000
# 4 0.0000 0.0000 0.0000 52.8865 0.0000 -16.6047
# 5 1.4981 12.0243 9.9185 0.0000 39.5759 0.0000
# 6 0.0000 0.0000 0.0000 -16.6047 0.0000 42.2212
#
#
#
# Elastic Compliance Matrix: (Units=1/GPa)
#
#
# Indices 1 2 3 4 5 6 
#
# 1 0.013041 -0.001364 -0.007285 0.000000 0.001747 0.000000
# 2 -0.001364 0.008250 -0.001451 0.000000 -0.002091 0.000000
# 3 -0.007285 -0.001451 0.022880 0.000000 -0.005017 0.000000
# 4 0.000000 0.000000 0.000000 0.021572 0.000000 0.008484
# 5 0.001747 -0.002091 -0.005017 0.000000 0.027095 0.000000
# 6 0.000000 0.000000 0.000000 0.008484 0.000000 0.027021
#
#
# Mechanical properties :
#
#
# Convention : Reuss Voigt Hill
#
# Bulk Modulus (GPa) = 41.71974 47.90395 44.81185
# Shear Modulus (GPa) = 33.77202 41.11829 37.44516
#
# Velocity S-wave (km/s) = 3.62265 3.99729 3.81457
# Velocity P-wave (km/s) = 5.80604 6.31819 6.06752
#
# Compressibility (1/GPa) = 0.02396947
#
# Stress axis : x y z
#
# Youngs Moduli (GPa) = 76.68044 121.20523 43.70636
#
# Poissons Ratio (x) = 0.16538 0.31842
# Poissons Ratio (y) = 0.10463 0.06343
# Poissons Ratio (z) = 0.55865 0.17589
#
# Static dielectric constant tensor:
#      x y z
#    x 2.029250 0.000000 -0.053820 
#    y 0.000000 1.975090 0.000000 
#    z -0.053820 0.000000 2.042180 
# 
# From -- ./inp_files/28637.got.cif
#   From: 2010.05.17/outbox.cif.g08.bks.cpg/sg15_15_cif.got.tgz:28637.got - 2010.06.03 18:47:42.
