data_PCOD9289853
_publ_section_title
;
Structure prediction by ZEFSAII (Michael W. Deem and Ramdas Pophale) SiO2 
 PCOD9289853
Probable space group: C 2/C
;
_chemical_formula_sum "Si O2"
_cell_formula_units_Z 36
_cell_length_a 16.283106
_cell_length_b 19.920734
_cell_length_c 9.175775
_cell_angle_alpha 90.000000
_cell_angle_beta 31.226635
_cell_angle_gamma 90.000000
_cell_volume 1543.017782
_symmetry_space_group_name_H-M "C 2/C"
_symmetry_group_IT_number 15
_symmetry_cell_setting 'monoclinic'
loop_
_space_group_symop_operation_xyz
x,y,z
-x,y,1/2-z
-x,-y,-z
x,-y,1/2+z
1/2+x,1/2+y,z
1/2-x,1/2+y,1/2-z
1/2-x,1/2-y,-z
1/2+x,1/2-y,1/2+z
loop_
_atom_site_type_symbol
_atom_site_label
_atom_site_fract_x
_atom_site_fract_y
_atom_site_fract_z
Si Si1 0.500000 0.457181 0.250000
Si Si2 0.474779 0.194445 0.455429
Si Si3 0.106307 0.923188 0.790471
Si Si4 0.891734 0.798983 0.042633
Si Si5 0.548571 0.933101 0.338587
O O1 0.387783 0.420883 0.540273
O O2 0.416689 0.504776 0.255864
O O3 0.571346 0.257727 0.367726
O O4 0.528164 0.130585 0.467667
O O5 0.286386 0.207190 0.741821
O O6 0.500000 0.178051 0.250000
O O7 0.271396 0.906309 0.462230
O O8 0.961792 0.873867 0.965772
O O9 0.000000 0.769106 0.750000
O O10 0.500000 0.948783 0.250000
O O11 0.500000 0.000000 0.500000
#
# Coordination Sequence:
#
# PCOD9289853 Si02
#       5
#     4   8   8   8   8
#     4  10  22  40  68  98 136 182 238 298 364 438
#     4  12  28  47  74 112 149 199 254 310 374 443
#     4  11  23  43  68 103 141 190 245 300 369 434
#     4  12  25  48  74 103 150 195 254 307 372 445
#     4  12  26  45  72 105 150 196 246 306 376 447
#
# _framework density 23.330905999999999
#
# number of rings (size 3 to 8) (size 9 to 14) (size 15 to 20)
#    0.000    0.444    3.333    4.000    4.667    7.111 
#    0.000    0.000    0.000    0.000    0.000    0.000 
#    0.000    0.000    0.000    0.000    0.000    0.000 
#
# Total GULP energy -100340.181981 kJ/mol
# GULP energy per Si atom -5574.454555 kJ/mol
# Density = 2.327780 g / cm^3
# Si number density = 23.330906 Si / 1000 Ang^3
#
#
#
# Elastic Constant Matrix: (Units=GPa)
#
#
# Indices 1 2 3 4 5 6 
#
# 1 108.1561 26.2672 24.7917 -0.0001 22.9367 0.0026
# 2 26.2672 83.0642 10.1410 -0.0014 8.0121 0.0013
# 3 24.7917 10.1410 89.0664 -0.0023 31.4230 0.0014
# 4 -0.0001 -0.0014 -0.0023 16.8397 0.0001 5.5737
# 5 22.9367 8.0121 31.4230 0.0001 58.2384 -0.0011
# 6 0.0026 0.0013 0.0014 5.5737 -0.0011 33.8310
#
#
#
# Elastic Compliance Matrix: (Units=1/GPa)
#
#
# Indices 1 2 3 4 5 6 
#
# 1 0.010991 -0.002982 -0.001652 0.000000 -0.003027 -0.000001
# 2 -0.002982 0.013080 -0.000542 0.000001 -0.000333 0.000000
# 3 -0.001652 -0.000542 0.014195 0.000002 -0.006934 -0.000001
# 4 0.000000 0.000001 0.000002 0.062809 -0.000002 -0.010348
# 5 -0.003027 -0.000333 -0.006934 -0.000002 0.022150 0.000002
# 6 -0.000001 0.000000 -0.000001 -0.010348 0.000002 0.031264
#
#
# Mechanical properties :
#
#
# Convention : Reuss Voigt Hill
#
# Bulk Modulus (GPa) = 35.82293 44.74297 40.28295
# Shear Modulus (GPa) = 28.71174 36.38759 32.54967
#
# Velocity S-wave (km/s) = 3.51184 3.95350 3.73920
# Velocity P-wave (km/s) = 5.64195 6.32925 5.99546
#
# Compressibility (1/GPa) = 0.02791508
#
# Stress axis : x y z
#
# Youngs Moduli (GPa) = 90.98622 76.45209 70.44506
#
# Poissons Ratio (x) = 0.22797 0.11636
# Poissons Ratio (y) = 0.27131 0.03817
# Poissons Ratio (z) = 0.15029 0.04143
#
# Static dielectric constant tensor:
#      x y z
#    x 2.009860 0.000000 -0.022020 
#    y 0.000000 1.915700 0.000010 
#    z -0.022020 0.000010 1.916520 
# 
# From -- ./inp_files/48273.got.cif
#   From: 2010.05.17/outbox.cif.g08.bks.cpg/sg15_25_cif.got.tgz:48273.got - 2010.06.03 18:47:42.
