data_PCOD9289321
_publ_section_title
;
Structure prediction by ZEFSAII (Michael W. Deem and Ramdas Pophale) SiO2 
 PCOD9289321
Probable space group: C 2/C
;
_chemical_formula_sum "Si O2"
_cell_formula_units_Z 52
_cell_length_a 15.003916
_cell_length_b 10.662335
_cell_length_c 17.474290
_cell_angle_alpha 90.000000
_cell_angle_beta 130.275952
_cell_angle_gamma 90.000000
_cell_volume 2132.783236
_symmetry_space_group_name_H-M "C 2/C"
_symmetry_group_IT_number 15
_symmetry_cell_setting 'monoclinic'
loop_
_space_group_symop_operation_xyz
x,y,z
-x,y,1/2-z
-x,-y,-z
x,-y,1/2+z
1/2+x,1/2+y,z
1/2-x,1/2+y,1/2-z
1/2-x,1/2-y,-z
1/2+x,1/2-y,1/2+z
loop_
_atom_site_type_symbol
_atom_site_label
_atom_site_fract_x
_atom_site_fract_y
_atom_site_fract_z
Si Si1 0.861774 0.278259 0.229821
Si Si2 0.896526 0.778166 0.912519
Si Si3 0.212719 0.534319 0.378544
Si Si4 0.207334 0.121742 0.439579
Si Si5 0.867352 0.501503 0.904399
Si Si6 0.897747 0.742481 0.350759
Si Si7 0.000000 0.285897 0.750000
O O1 0.934768 0.236221 0.345053
O O2 0.864295 0.417035 0.195870
O O3 0.878740 0.175036 0.173405
O O4 0.726842 0.285095 0.186171
O O5 0.808566 0.891894 0.880074
O O6 0.829275 0.644920 0.883350
O O7 0.004168 0.776743 0.031483
O O8 0.294146 0.477963 0.492380
O O9 0.110821 0.633866 0.343720
O O10 0.250000 0.250000 0.500000
O O11 0.303547 0.065329 0.437211
O O12 0.872068 0.408950 0.834242
O O13 0.000000 0.500000 0.000000
O O14 0.945615 0.782806 0.294390
#
# Coordination Sequence:
#
# PCOD9289321 Si02
#       7
#     8   8   8   8   8   8   4
#     4  10  22  42  62  94 130 173 222 271 333 398
#     4  11  22  38  65  95 125 171 219 273 329 390
#     4  11  23  39  64  94 131 174 219 273 333 391
#     4   9  20  38  60  87 126 165 205 265 324 381
#     4   9  18  35  62  91 118 159 213 262 314 381
#     4  10  22  40  63  94 131 167 217 272 329 389
#     4  12  22  40  62 102 130 164 224 276 322 388
#
# _framework density 24.381287
#
# number of rings (size 3 to 8) (size 9 to 14) (size 15 to 20)
#    0.000    1.846    1.538    2.769    2.154    5.538 
#    0.000    0.000    0.000    0.000    0.000    0.000 
#    0.000    0.000    0.000    0.000    0.000    0.000 
#
# Total GULP energy -144806.838666 kJ/mol
# GULP energy per Si atom -5569.493795 kJ/mol
# Density = 2.432579 g / cm^3
# Si number density = 24.381287 Si / 1000 Ang^3
#
#
#
# Elastic Constant Matrix: (Units=GPa)
#
#
# Indices 1 2 3 4 5 6 
#
# 1 99.3635 19.0731 47.7604 0.0000 -9.6139 0.0000
# 2 19.0731 53.2321 30.3549 0.0000 -2.0013 0.0000
# 3 47.7604 30.3549 176.3870 0.0000 -12.5796 0.0000
# 4 0.0000 0.0000 0.0000 20.6514 0.0000 -30.0515
# 5 -9.6139 -2.0013 -12.5796 0.0000 41.3829 0.0000
# 6 0.0000 0.0000 0.0000 -30.0515 0.0000 -10.8079
#
#
#
# Elastic Compliance Matrix: (Units=1/GPa)
#
#
# Indices 1 2 3 4 5 6 
#
# 1 0.012046 -0.002730 -0.002659 0.000000 0.001858 0.000000
# 2 -0.002730 0.021449 -0.002988 0.000000 -0.000505 0.000000
# 3 -0.002659 -0.002988 0.007001 0.000000 0.001366 0.000000
# 4 0.000000 0.000000 0.000000 0.009596 0.000000 -0.026682
# 5 0.001858 -0.000505 0.001366 0.000000 0.024987 0.000000
# 6 0.000000 0.000000 0.000000 -0.026682 0.000000 -0.018336
#
#
# Mechanical properties :
#
#
# Convention : Reuss Voigt Hill
#
# Bulk Modulus (GPa) = 42.12065 58.15104 50.13585
# Shear Modulus (GPa) = 61.41656 25.69824 43.55740
#
# Velocity S-wave (km/s) = 5.02441 3.25008 4.23130
# Velocity P-wave (km/s) = 7.13953 6.16332 6.66931
#
# Compressibility (1/GPa) = 0.02374132
#
# Stress axis : x y z
#
# Youngs Moduli (GPa) = 83.01432 46.62305 142.83512
#
# Poissons Ratio (x) = 0.12727 0.37986
# Poissons Ratio (y) = 0.22661 0.42680
# Poissons Ratio (z) = 0.22077 0.13931
#
# Static dielectric constant tensor:
#      x y z
#    x 2.383810 0.000000 -0.444260 
#    y 0.000000 2.021880 0.000000 
#    z -0.444260 0.000000 2.436790 
# 
# From -- ./inp_files/204190.got.cif
#   From: 2010.05.17/outbox.cif.g08.bks.cpg/sg15_103_cif.got.tgz:204190.got - 2010.06.03 18:47:42.
