data_PCOD9289787
_publ_section_title
;
Structure prediction by ZEFSAII (Michael W. Deem and Ramdas Pophale) SiO2 
 PCOD9289787
Probable space group: C 2/C
;
_chemical_formula_sum "Si O2"
_cell_formula_units_Z 32
_cell_length_a 14.860580
_cell_length_b 16.976788
_cell_length_c 4.936452
_cell_angle_alpha 90.000000
_cell_angle_beta 107.154891
_cell_angle_gamma 90.000000
_cell_volume 1189.985965
_symmetry_space_group_name_H-M "C 2/C"
_symmetry_group_IT_number 15
_symmetry_cell_setting 'monoclinic'
loop_
_space_group_symop_operation_xyz
x,y,z
-x,y,1/2-z
-x,-y,-z
x,-y,1/2+z
1/2+x,1/2+y,z
1/2-x,1/2+y,1/2-z
1/2-x,1/2-y,-z
1/2+x,1/2-y,1/2+z
loop_
_atom_site_type_symbol
_atom_site_label
_atom_site_fract_x
_atom_site_fract_y
_atom_site_fract_z
Si Si1 0.371278 0.558250 0.031166
Si Si2 0.902065 0.212042 0.778948
Si Si3 0.600233 0.051729 0.418529
Si Si4 0.238801 0.660074 0.227363
O O1 0.382857 0.490509 0.817303
O O2 0.428432 0.632379 0.964219
O O3 0.275065 0.606167 0.014690
O O4 0.838403 0.272297 0.899865
O O5 0.830772 0.191586 0.468445
O O6 0.000000 0.243261 0.750000
O O7 0.500000 0.088161 0.250000
O O8 0.684926 0.104167 0.391412
O O9 0.602001 0.026078 0.729561
#
# Coordination Sequence:
#
# PCOD9289787 Si02
#       4
#     8   8   8   8
#     4  12  25  48  77 108 148 193 249 304 367 444
#     4  11  27  49  75 111 151 199 253 308 374 449
#     4  10  22  40  68 106 143 186 241 298 364 435
#     4  11  24  47  76 107 148 199 245 312 376 442
#
# _framework density 26.891071
#
# number of rings (size 3 to 8) (size 9 to 14) (size 15 to 20)
#    0.000    1.000    2.500    3.000    3.500    2.000 
#    0.000    0.000    0.000    0.000    0.000    0.000 
#    0.000    0.000    0.000    0.000    0.000    0.000 
#
# Total GULP energy -89550.068059 kJ/mol
# GULP energy per Si atom -5596.879254 kJ/mol
# Density = 2.682987 g / cm^3
# Si number density = 26.891071 Si / 1000 Ang^3
#
#
#
# Elastic Constant Matrix: (Units=GPa)
#
#
# Indices 1 2 3 4 5 6 
#
# 1 153.2897 48.1527 38.1972 0.0000 11.8404 0.0000
# 2 48.1527 128.0810 13.4576 0.0000 -0.9268 0.0000
# 3 38.1972 13.4576 112.6231 0.0000 -11.6472 0.0000
# 4 0.0000 0.0000 0.0000 61.7903 0.0000 -54.2254
# 5 11.8404 -0.9268 -11.6472 0.0000 42.7060 0.0000
# 6 0.0000 0.0000 0.0000 -54.2254 0.0000 75.8438
#
#
#
# Elastic Compliance Matrix: (Units=1/GPa)
#
#
# Indices 1 2 3 4 5 6 
#
# 1 0.008373 -0.002874 -0.002823 0.000000 -0.003154 0.000000
# 2 -0.002874 0.008894 0.000015 0.000000 0.000994 0.000000
# 3 -0.002823 0.000015 0.010203 0.000000 0.003566 0.000000
# 4 0.000000 0.000000 0.000000 0.043438 0.000000 0.031057
# 5 -0.003154 0.000994 0.003566 0.000000 0.025284 0.000000
# 6 0.000000 0.000000 0.000000 0.031057 0.000000 0.035389
#
#
# Mechanical properties :
#
#
# Convention : Reuss Voigt Hill
#
# Bulk Modulus (GPa) = 62.08610 65.95654 64.02132
# Shear Modulus (GPa) = 33.71194 55.68045 44.69620
#
# Velocity S-wave (km/s) = 3.54453 4.55531 4.08133
# Velocity P-wave (km/s) = 6.31583 7.22830 6.78742
#
# Compressibility (1/GPa) = 0.01610666
#
# Stress axis : x y z
#
# Youngs Moduli (GPa) = 119.42522 112.43801 98.00587
#
# Poissons Ratio (x) = 0.32318 0.27663
# Poissons Ratio (y) = 0.34326 -0.00146
# Poissons Ratio (z) = 0.33709 -0.00167
#
# Static dielectric constant tensor:
#      x y z
#    x 2.209620 0.000000 0.058420 
#    y 0.000000 2.132170 0.000000 
#    z 0.058420 0.000000 2.087300 
# 
# From -- ./inp_files/6738.got.cif
#   From: 2010.05.17/outbox.cif.g08.bks.cpg/sg15_4_cif.got.tgz:6738.got - 2010.06.03 18:47:42.
