data_PCOD9289214
_publ_section_title
;
Structure prediction by ZEFSAII (Michael W. Deem and Ramdas Pophale) SiO2 
 PCOD9289214
Probable space group: C 2/C
;
_chemical_formula_sum "Si O2"
_cell_formula_units_Z 40
_cell_length_a 20.787327
_cell_length_b 5.162245
_cell_length_c 15.095663
_cell_angle_alpha 90.000000
_cell_angle_beta 99.815425
_cell_angle_gamma 90.000000
_cell_volume 1596.192550
_symmetry_space_group_name_H-M "C 2/C"
_symmetry_group_IT_number 15
_symmetry_cell_setting 'monoclinic'
loop_
_space_group_symop_operation_xyz
x,y,z
-x,y,1/2-z
-x,-y,-z
x,-y,1/2+z
1/2+x,1/2+y,z
1/2-x,1/2+y,1/2-z
1/2-x,1/2-y,-z
1/2+x,1/2-y,1/2+z
loop_
_atom_site_type_symbol
_atom_site_label
_atom_site_fract_x
_atom_site_fract_y
_atom_site_fract_z
Si Si1 0.394550 0.071913 0.485080
Si Si2 0.054990 0.053097 0.915394
Si Si3 0.635340 0.999083 0.226469
Si Si4 0.819837 0.999528 0.179101
Si Si5 0.250000 0.750000 0.000000
Si Si6 0.500000 0.815104 0.750000
O O1 0.445605 0.296309 0.525755
O O2 0.381255 0.060534 0.378169
O O3 0.325931 0.141311 0.516518
O O4 0.421035 0.796709 0.522331
O O5 0.996826 0.137151 0.837086
O O6 0.112186 0.011335 0.857607
O O7 0.683367 0.217787 0.277404
O O8 0.565995 0.015563 0.263112
O O9 0.669410 0.723863 0.246718
O O10 0.766378 0.075315 0.093921
#
# Coordination Sequence:
#
# PCOD9289214 Si02
#       6
#     8   8   8   8   4   4
#     4  11  24  40  61  92 122 156 204 249 296 364
#     4  10  22  40  62  90 120 157 205 245 298 363
#     4  11  24  40  61  91 122 156 205 249 297 362
#     4  10  22  40  62  90 120 158 204 246 297 364
#     4  10  22  40  64  84 122 160 190 246 302 342
#     4  10  22  40  64  84 122 164 194 252 306 346
#
# _framework density 25.059631
#
# number of rings (size 3 to 8) (size 9 to 14) (size 15 to 20)
#    0.000    1.600    0.000    6.000    0.000   17.600 
#    0.000    0.000    0.000    0.000    0.000    0.000 
#    0.000    0.000    0.000    0.000    0.000    0.000 
#
# Total GULP energy -111497.377601 kJ/mol
# GULP energy per Si atom -5574.868880 kJ/mol
# Density = 2.500259 g / cm^3
# Si number density = 25.059631 Si / 1000 Ang^3
#
#
#
# Elastic Constant Matrix: (Units=GPa)
#
#
# Indices 1 2 3 4 5 6 
#
# 1 85.3622 10.2493 15.4049 0.0000 0.1929 0.0000
# 2 10.2493 101.7600 18.8658 0.0000 -8.0980 0.0000
# 3 15.4049 18.8658 103.3486 0.0000 3.4248 0.0000
# 4 0.0000 0.0000 0.0000 18.5550 0.0000 11.8938
# 5 0.1929 -8.0980 3.4248 0.0000 32.8439 0.0000
# 6 0.0000 0.0000 0.0000 11.8938 0.0000 -15.1188
#
#
#
# Elastic Compliance Matrix: (Units=1/GPa)
#
#
# Indices 1 2 3 4 5 6 
#
# 1 0.012121 -0.000928 -0.001633 0.000000 -0.000130 0.000000
# 2 -0.000928 0.010489 -0.001869 0.000000 0.002786 0.000000
# 3 -0.001633 -0.001869 0.010311 0.000000 -0.001526 0.000000
# 4 0.000000 0.000000 0.000000 0.035827 0.000000 0.028185
# 5 -0.000130 0.002786 -0.001526 0.000000 0.031294 0.000000
# 6 0.000000 0.000000 0.000000 0.028185 0.000000 -0.043970
#
#
# Mechanical properties :
#
#
# Convention : Reuss Voigt Hill
#
# Bulk Modulus (GPa) = 41.56105 42.16787 41.86446
# Shear Modulus (GPa) = 68.53750 23.65272 46.09511
#
# Velocity S-wave (km/s) = 5.23537 3.07556 4.29350
# Velocity P-wave (km/s) = 7.29153 5.42915 6.42814
#
# Compressibility (1/GPa) = 0.02406099
#
# Stress axis : x y z
#
# Youngs Moduli (GPa) = 82.49974 95.34039 96.98300
#
# Poissons Ratio (x) = 0.08852 0.15837
# Poissons Ratio (y) = 0.07660 0.18122
# Poissons Ratio (z) = 0.13472 0.17815
#
# Static dielectric constant tensor:
#      x y z
#    x 2.032200 0.000000 -0.035790 
#    y 0.000000 1.977680 0.000000 
#    z -0.035790 0.000000 1.982010 
# 
# From -- ./inp_files/170942.got.cif
#   From: 2010.05.17/outbox.cif.g08.bks.cpg/sg15_86_cif.got.tgz:170942.got - 2010.06.03 18:47:42.
