data_PCOD9289159
_publ_section_title
;
Structure prediction by ZEFSAII (Michael W. Deem and Ramdas Pophale) SiO2 
 PCOD9289159
Probable space group: C 2/C
;
_chemical_formula_sum "Si O2"
_cell_formula_units_Z 56
_cell_length_a 27.880005
_cell_length_b 12.496849
_cell_length_c 9.546207
_cell_angle_alpha 90.000000
_cell_angle_beta 126.490965
_cell_angle_gamma 90.000000
_cell_volume 2673.951999
_symmetry_space_group_name_H-M "C 2/C"
_symmetry_group_IT_number 15
_symmetry_cell_setting 'monoclinic'
loop_
_space_group_symop_operation_xyz
x,y,z
-x,y,1/2-z
-x,-y,-z
x,-y,1/2+z
1/2+x,1/2+y,z
1/2-x,1/2+y,1/2-z
1/2-x,1/2-y,-z
1/2+x,1/2-y,1/2+z
loop_
_atom_site_type_symbol
_atom_site_label
_atom_site_fract_x
_atom_site_fract_y
_atom_site_fract_z
Si Si1 0.543317 0.022090 0.704516
Si Si2 0.888628 0.100095 0.784769
Si Si3 0.876469 0.096065 0.081067
Si Si4 0.633176 0.196472 0.745824
Si Si5 0.234412 0.437376 0.300686
Si Si6 0.930888 0.715672 0.157666
Si Si7 0.252463 0.122795 0.983786
O O1 0.500000 0.067371 0.750000
O O2 0.594073 0.100640 0.740672
O O3 0.500000 0.000000 0.500000
O O4 0.569648 0.909381 0.802777
O O5 0.907875 0.207759 0.739879
O O6 0.816916 0.093751 0.652728
O O7 0.907135 0.996023 0.727857
O O8 0.905168 0.100337 0.976704
O O9 0.874813 0.206027 0.162754
O O10 0.805723 0.073332 0.935363
O O11 0.699207 0.149978 0.832110
O O12 0.606783 0.230694 0.549100
O O13 0.220731 0.555032 0.340340
O O14 0.217797 0.415005 0.110250
O O15 0.000000 0.741977 0.250000
O O16 0.250000 0.250000 0.000000
#
# Coordination Sequence:
#
# PCOD9289159 Si02
#       7
#     8   8   8   8   8   8   8
#     4  11  24  44  63  92 130 164 212 271 321 372
#     4  10  22  41  66  86 129 168 211 258 322 367
#     4  10  23  43  64  97 127 170 208 265 312 389
#     4  12  24  39  69  92 130 170 211 262 325 377
#     4  10  24  40  61  98 131 167 215 260 315 393
#     4  11  24  44  64  93 128 168 213 271 316 375
#     4  10  22  40  61  91 130 171 211 266 315 385
#
# _framework density 20.942786000000002
#
# number of rings (size 3 to 8) (size 9 to 14) (size 15 to 20)
#    0.000    1.429    2.857    2.143    6.000    6.857 
#    0.000    3.571    0.000    0.000    0.000    0.000 
#    0.000    0.000    0.000    0.000    0.000    0.000 
#
# Total GULP energy -156406.996455 kJ/mol
# GULP energy per Si atom -5585.964159 kJ/mol
# Density = 2.089512 g / cm^3
# Si number density = 20.942786 Si / 1000 Ang^3
#
#
#
# Elastic Constant Matrix: (Units=GPa)
#
#
# Indices 1 2 3 4 5 6 
#
# 1 59.2172 25.9501 26.3596 0.0000 -32.5207 0.0000
# 2 25.9501 110.6036 56.4350 0.0000 -38.3582 0.0000
# 3 26.3596 56.4350 109.1229 0.0000 -43.9178 0.0000
# 4 0.0000 0.0000 0.0000 13.5131 0.0000 -24.4284
# 5 -32.5207 -38.3582 -43.9178 0.0000 40.7293 0.0000
# 6 0.0000 0.0000 0.0000 -24.4284 0.0000 24.7200
#
#
#
# Elastic Compliance Matrix: (Units=1/GPa)
#
#
# Indices 1 2 3 4 5 6 
#
# 1 0.031317 0.001129 0.004139 0.000000 0.030532 0.000000
# 2 0.001129 0.014165 -0.003298 0.000000 0.010686 0.000000
# 3 0.004139 -0.003298 0.017578 0.000000 0.019154 0.000000
# 4 0.000000 0.000000 0.000000 -0.094098 0.000000 -0.092988
# 5 0.030532 0.010686 0.019154 0.000000 0.079648 0.000000
# 6 0.000000 0.000000 0.000000 -0.092988 0.000000 -0.051438
#
#
# Mechanical properties :
#
#
# Convention : Reuss Voigt Hill
#
# Bulk Modulus (GPa) = 14.92503 55.15922 35.04212
# Shear Modulus (GPa) = 321.23526 27.13908 174.18717
#
# Velocity S-wave (km/s) = 12.39839 3.60372 9.12981
# Velocity P-wave (km/s) = 14.56373 6.61143 11.30958
#
# Compressibility (1/GPa) = 0.06700154
#
# Stress axis : x y z
#
# Youngs Moduli (GPa) = 31.93123 70.59633 56.88873
#
# Poissons Ratio (x) = -0.07971 -0.23547
# Poissons Ratio (y) = -0.03605 0.18760
# Poissons Ratio (z) = -0.13217 0.23281
#
# Static dielectric constant tensor:
#      x y z
#    x 1.753420 0.000000 -0.006150 
#    y 0.000000 1.740790 0.000000 
#    z -0.006150 0.000000 1.747630 
# 
# From -- ./inp_files/65428.got.cif
#   From: 2010.05.17/outbox.cif.g08.bks.cpg/sg15_33_cif.got.tgz:65428.got - 2010.06.03 18:47:42.
