data_PCOD9289455
_publ_section_title
;
Structure prediction by ZEFSAII (Michael W. Deem and Ramdas Pophale) SiO2 
 PCOD9289455
Probable space group: C 2/C
;
_chemical_formula_sum "Si O2"
_cell_formula_units_Z 36
_cell_length_a 5.454629
_cell_length_b 25.687727
_cell_length_c 11.092965
_cell_angle_alpha 90.000000
_cell_angle_beta 96.305316
_cell_angle_gamma 90.000000
_cell_volume 1544.910808
_symmetry_space_group_name_H-M "C 2/C"
_symmetry_group_IT_number 15
_symmetry_cell_setting 'monoclinic'
loop_
_space_group_symop_operation_xyz
x,y,z
-x,y,1/2-z
-x,-y,-z
x,-y,1/2+z
1/2+x,1/2+y,z
1/2-x,1/2+y,1/2-z
1/2-x,1/2-y,-z
1/2+x,1/2-y,1/2+z
loop_
_atom_site_type_symbol
_atom_site_label
_atom_site_fract_x
_atom_site_fract_y
_atom_site_fract_z
Si Si1 0.827006 0.616289 0.961449
Si Si2 0.160975 0.304898 0.637127
Si Si3 0.500000 0.950870 0.250000
Si Si4 0.532864 0.707449 0.977832
Si Si5 0.763064 0.052772 0.314520
O O1 0.615564 0.656497 0.912786
O O2 0.937412 0.584679 0.858713
O O3 0.722782 0.574663 0.051211
O O4 0.021970 0.654924 0.038474
O O5 0.444405 0.312352 0.605986
O O6 0.000000 0.310174 0.750000
O O7 0.155616 0.242620 0.607091
O O8 0.718695 0.990872 0.299803
O O9 0.750000 0.750000 0.000000
O O10 0.500000 0.073698 0.250000
O O11 0.000000 0.068284 0.250000
#
# Coordination Sequence:
#
# PCOD9289455 Si02
#       5
#     8   8   4   8   8
#     4  11  23  40  67  97 132 184 229 279 353 404
#     4  10  22  40  64  96 134 175 229 282 345 415
#     4  10  26  44  62  98 140 182 230 290 340 414
#     4   9  22  38  60  94 131 171 223 279 339 412
#     4  10  25  45  71 100 135 181 229 294 339 411
#
# _framework density 23.302318
#
# number of rings (size 3 to 8) (size 9 to 14) (size 15 to 20)
#    0.667    1.333    0.000    1.333    6.222   10.667 
#    0.000    0.000    0.000    0.000    0.000    0.000 
#    0.000    0.000    0.000    0.000    0.000    0.000 
#
# Total GULP energy -100220.617400 kJ/mol
# GULP energy per Si atom -5567.812078 kJ/mol
# Density = 2.324928 g / cm^3
# Si number density = 23.302318 Si / 1000 Ang^3
#
#
#
# Elastic Constant Matrix: (Units=GPa)
#
#
# Indices 1 2 3 4 5 6 
#
# 1 76.3120 24.6377 43.0395 0.0000 -42.2360 0.0000
# 2 24.6377 142.5970 89.0646 0.0000 -11.5458 0.0000
# 3 43.0395 89.0646 175.5433 0.0000 -50.7404 0.0000
# 4 0.0000 0.0000 0.0000 84.0250 0.0000 -95.7272
# 5 -42.2360 -11.5458 -50.7404 0.0000 35.3244 0.0000
# 6 0.0000 0.0000 0.0000 -95.7272 0.0000 231.1058
#
#
#
# Elastic Compliance Matrix: (Units=1/GPa)
#
#
# Indices 1 2 3 4 5 6 
#
# 1 0.060233 -0.015998 0.021638 0.000000 0.097871 0.000000
# 2 -0.015998 0.015658 -0.013802 0.000000 -0.033835 0.000000
# 3 0.021638 -0.013802 0.023201 0.000000 0.054687 0.000000
# 4 0.000000 0.000000 0.000000 0.022536 0.000000 0.009335
# 5 0.097871 -0.033835 0.054687 0.000000 0.212824 0.000000
# 6 0.000000 0.000000 0.000000 0.009335 0.000000 0.008194
#
#
# Mechanical properties :
#
#
# Convention : Reuss Voigt Hill
#
# Bulk Modulus (GPa) = 12.08171 78.65954 45.37062
# Shear Modulus (GPa) = 12.93466 85.93841 49.43654
#
# Velocity S-wave (km/s) = 2.35857 6.07946 4.61100
# Velocity P-wave (km/s) = 3.55150 9.11642 6.91818
#
# Compressibility (1/GPa) = 0.08276974
#
# Stress axis : x y z
#
# Youngs Moduli (GPa) = 16.60207 63.86608 43.10115
#
# Poissons Ratio (x) = 1.02170 -0.93263
# Poissons Ratio (y) = 0.26559 0.59488
# Poissons Ratio (z) = -0.35924 0.88147
#
# Static dielectric constant tensor:
#      x y z
#    x 2.258720 0.000000 0.041170 
#    y 0.000000 1.869330 0.000000 
#    z 0.041170 0.000000 1.942120 
# 
# From -- ./inp_files/73008.got.cif
#   From: 2010.05.17/outbox.cif.g08.bks.cpg/sg15_37_cif.got.tgz:73008.got - 2010.06.03 18:47:42.
