data_PCOD9289222
_publ_section_title
;
Structure prediction by ZEFSAII (Michael W. Deem and Ramdas Pophale) SiO2 
 PCOD9289222
Probable space group: C 2/C
;
_chemical_formula_sum "Si O2"
_cell_formula_units_Z 64
_cell_length_a 14.739591
_cell_length_b 20.425670
_cell_length_c 11.602794
_cell_angle_alpha 90.000000
_cell_angle_beta 62.643299
_cell_angle_gamma 90.000000
_cell_volume 3102.536918
_symmetry_space_group_name_H-M "C 2/C"
_symmetry_group_IT_number 15
_symmetry_cell_setting 'monoclinic'
loop_
_space_group_symop_operation_xyz
x,y,z
-x,y,1/2-z
-x,-y,-z
x,-y,1/2+z
1/2+x,1/2+y,z
1/2-x,1/2+y,1/2-z
1/2-x,1/2-y,-z
1/2+x,1/2-y,1/2+z
loop_
_atom_site_type_symbol
_atom_site_label
_atom_site_fract_x
_atom_site_fract_y
_atom_site_fract_z
Si Si1 0.844966 0.620964 0.647514
Si Si2 0.777061 0.542260 0.470039
Si Si3 0.561288 0.165671 0.543582
Si Si4 0.750874 0.393953 0.439539
Si Si5 0.428774 0.689266 0.516175
Si Si6 0.802243 0.230638 0.818506
Si Si7 0.108351 0.633963 0.251151
Si Si8 0.421173 0.629326 0.897775
O O1 0.836132 0.572803 0.544888
O O2 0.768853 0.598177 0.792036
O O3 0.804768 0.692537 0.628621
O O4 0.957809 0.627285 0.631632
O O5 0.762449 0.465196 0.486567
O O6 0.841822 0.566675 0.321640
O O7 0.666166 0.576112 0.533090
O O8 0.658092 0.150470 0.565317
O O9 0.538747 0.243156 0.561192
O O10 0.588702 0.142039 0.397865
O O11 0.644022 0.356711 0.517310
O O12 0.360222 0.714523 0.664757
O O13 0.518656 0.648087 0.522230
O O14 0.812587 0.307884 0.828926
O O15 0.866986 0.194396 0.879181
O O16 0.000000 0.644734 0.250000
O O17 0.500000 0.608959 0.750000
#
# Coordination Sequence:
#
# PCOD9289222 Si02
#       8
#     8   8   8   8   8   8   8   8
#     4  10  22  40  62  91 117 165 210 249 305 363
#     4  11  25  38  63  92 124 165 200 255 309 370
#     4  11  22  39  65  87 120 165 207 255 299 356
#     4  11  25  42  59  86 129 167 205 244 301 375
#     4   9  19  38  63  86 115 156 204 254 306 352
#     4   8  17  33  61  92 122 148 195 263 310 347
#     4  11  21  37  58  97 129 155 202 254 312 360
#     4   9  18  37  65  93 118 157 203 262 315 358
#
# _framework density 20.62828
#
# number of rings (size 3 to 8) (size 9 to 14) (size 15 to 20)
#    0.000    2.000    1.250    3.375    3.500    3.000 
#    0.000    0.000    0.000    0.000    0.000    0.000 
#    0.000    0.000    0.000    0.000    0.000    0.000 
#
# Total GULP energy -178733.505171 kJ/mol
# GULP energy per Si atom -5585.422037 kJ/mol
# Density = 2.058133 g / cm^3
# Si number density = 20.628280 Si / 1000 Ang^3
#
#
#
# Elastic Constant Matrix: (Units=GPa)
#
#
# Indices 1 2 3 4 5 6 
#
# 1 91.9159 21.8341 -23.3836 0.0000 11.4074 0.0000
# 2 21.8341 71.4772 -10.8362 0.0000 1.0201 0.0000
# 3 -23.3836 -10.8362 30.9555 0.0000 1.4883 0.0000
# 4 0.0000 0.0000 0.0000 -17.6027 0.0000 5.1901
# 5 11.4074 1.0201 1.4883 0.0000 17.5870 0.0000
# 6 0.0000 0.0000 0.0000 5.1901 0.0000 9.5193
#
#
#
# Elastic Compliance Matrix: (Units=1/GPa)
#
#
# Indices 1 2 3 4 5 6 
#
# 1 0.015884 -0.002950 0.011500 0.000000 -0.011105 0.000000
# 2 -0.002950 0.015352 0.003109 0.000000 0.000760 0.000000
# 3 0.011500 0.003109 0.042620 0.000000 -0.011246 0.000000
# 4 0.000000 0.000000 0.000000 -0.048942 0.000000 0.026684
# 5 -0.011105 0.000760 -0.011246 0.000000 0.064971 0.000000
# 6 0.000000 0.000000 0.000000 0.026684 0.000000 0.090502
#
#
# Mechanical properties :
#
#
# Convention : Reuss Voigt Hill
#
# Bulk Modulus (GPa) = 10.29081 18.84194 14.56638
# Shear Modulus (GPa) = 26.39066 15.68300 21.03683
#
# Velocity S-wave (km/s) = 3.58067 2.76029 3.19690
# Velocity P-wave (km/s) = 4.70048 4.39463 4.55012
#
# Compressibility (1/GPa) = 0.09717405
#
# Stress axis : x y z
#
# Youngs Moduli (GPa) = 62.95605 65.13735 23.46295
#
# Poissons Ratio (x) = 0.19217 -0.26982
# Poissons Ratio (y) = 0.18573 -0.07295
# Poissons Ratio (z) = -0.72399 -0.20251
#
# Static dielectric constant tensor:
#      x y z
#    x 1.721360 0.000000 -0.010660 
#    y 0.000000 1.719210 0.000000 
#    z -0.010660 0.000000 1.775740 
# 
# From -- ./inp_files/99770.got.cif
#   From: 2010.05.17/outbox.cif.g08.bks.cpg/sg15_50_cif.got.tgz:99770.got - 2010.06.03 18:47:42.
