data_PCOD9289283
_publ_section_title
;
Structure prediction by ZEFSAII (Michael W. Deem and Ramdas Pophale) SiO2 
 PCOD9289283
Probable space group: C 2/C
;
_chemical_formula_sum "Si O2"
_cell_formula_units_Z 40
_cell_length_a 5.262435
_cell_length_b 14.358293
_cell_length_c 26.042032
_cell_angle_alpha 90.000000
_cell_angle_beta 78.163880
_cell_angle_gamma 90.000000
_cell_volume 1925.887869
_symmetry_space_group_name_H-M "C 2/C"
_symmetry_group_IT_number 15
_symmetry_cell_setting 'monoclinic'
loop_
_space_group_symop_operation_xyz
x,y,z
-x,y,1/2-z
-x,-y,-z
x,-y,1/2+z
1/2+x,1/2+y,z
1/2-x,1/2+y,1/2-z
1/2-x,1/2-y,-z
1/2+x,1/2-y,1/2+z
loop_
_atom_site_type_symbol
_atom_site_label
_atom_site_fract_x
_atom_site_fract_y
_atom_site_fract_z
Si Si1 0.171814 0.785613 0.628412
Si Si2 0.175932 0.620201 0.555171
Si Si3 0.740916 0.639269 0.492671
Si Si4 0.526312 0.943441 0.616376
Si Si5 0.604597 0.200273 0.188901
O O1 0.166561 0.725271 0.577171
O O2 0.247343 0.894334 0.616613
O O3 0.411382 0.753008 0.654949
O O4 0.901209 0.772388 0.668358
O O5 0.470217 0.602599 0.526106
O O6 0.071441 0.550567 0.603270
O O7 0.983797 0.604694 0.515906
O O8 0.750000 0.750000 0.500000
O O9 0.787639 0.609881 0.432167
O O10 0.588111 0.907682 0.670809
O O11 0.500000 0.213659 0.250000
#
# Coordination Sequence:
#
# PCOD9289283 Si02
#       5
#     8   8   8   8   8
#     4  10  22  40  63  89 122 160 206 248 311 369
#     4  12  24  39  62  92 130 160 202 255 303 370
#     4  12  23  39  61  90 128 169 202 243 310 373
#     4  10  25  37  65  90 125 159 212 249 309 371
#     4  10  22  43  66  87 120 161 206 259 316 359
#
# _framework density 20.769641
#
# number of rings (size 3 to 8) (size 9 to 14) (size 15 to 20)
#    1.200    0.000    2.000    4.800    5.600    0.000 
#    0.000    2.000    0.000    0.000    0.000    0.000 
#    0.000    0.000    0.000    0.000    0.000    0.000 
#
# Total GULP energy -111578.469844 kJ/mol
# GULP energy per Si atom -5578.923492 kJ/mol
# Density = 2.072237 g / cm^3
# Si number density = 20.769641 Si / 1000 Ang^3
#
#
#
# Elastic Constant Matrix: (Units=GPa)
#
#
# Indices 1 2 3 4 5 6 
#
# 1 156.3786 14.0375 39.3090 0.0000 -18.7312 0.0000
# 2 14.0375 48.9679 -14.3327 0.0000 2.6293 0.0000
# 3 39.3090 -14.3327 70.2590 0.0000 -14.6930 0.0000
# 4 0.0000 0.0000 0.0000 18.4051 0.0000 -4.0215
# 5 -18.7312 2.6293 -14.6930 0.0000 32.2597 0.0000
# 6 0.0000 0.0000 0.0000 -4.0215 0.0000 0.7043
#
#
#
# Elastic Compliance Matrix: (Units=1/GPa)
#
#
# Indices 1 2 3 4 5 6 
#
# 1 0.008322 -0.003963 -0.004848 0.000000 0.002947 0.000000
# 2 -0.003963 0.023608 0.006797 0.000000 -0.001129 0.000000
# 3 -0.004848 0.006797 0.019483 0.000000 0.005505 0.000000
# 4 0.000000 0.000000 0.000000 -0.219437 0.000000 -1.252945
# 5 0.002947 -0.001129 0.005505 0.000000 0.035309 0.000000
# 6 0.000000 0.000000 0.000000 -1.252945 0.000000 -5.734286
#
#
# Mechanical properties :
#
#
# Convention : Reuss Voigt Hill
#
# Bulk Modulus (GPa) = 21.10390 39.29257 30.19824
# Shear Modulus (GPa) = -0.85511 26.04659 12.59574
#
# Velocity S-wave (km/s) = -0.64234 3.54513 2.46529
# Velocity P-wave (km/s) = 3.10368 5.97633 4.76180
#
# Compressibility (1/GPa) = 0.04738460
#
# Stress axis : x y z
#
# Youngs Moduli (GPa) = 120.16052 42.35902 51.32573
#
# Poissons Ratio (x) = 0.16787 0.24884
# Poissons Ratio (y) = 0.47620 -0.34886
# Poissons Ratio (z) = 0.58258 -0.28791
#
# Static dielectric constant tensor:
#      x y z
#    x 1.779250 0.000000 0.024430 
#    y 0.000000 1.786110 0.000000 
#    z 0.024430 0.000000 1.710380 
# 
# From -- ./inp_files/226854.got.cif
#   From: 2010.05.17/outbox.cif.g08.bks.cpg/sg15_114_cif.got.tgz:226854.got - 2010.06.03 18:47:42.
