data_PCOD9289587
_publ_section_title
;
Structure prediction by ZEFSAII (Michael W. Deem and Ramdas Pophale) SiO2 
 PCOD9289587
Probable space group: C 2/C
;
_chemical_formula_sum "Si O2"
_cell_formula_units_Z 60
_cell_length_a 9.079796
_cell_length_b 21.041902
_cell_length_c 26.227568
_cell_angle_alpha 90.000000
_cell_angle_beta 149.746327
_cell_angle_gamma 90.000000
_cell_volume 2524.658099
_symmetry_space_group_name_H-M "C 2/C"
_symmetry_group_IT_number 15
_symmetry_cell_setting 'monoclinic'
loop_
_space_group_symop_operation_xyz
x,y,z
-x,y,1/2-z
-x,-y,-z
x,-y,1/2+z
1/2+x,1/2+y,z
1/2-x,1/2+y,1/2-z
1/2-x,1/2-y,-z
1/2+x,1/2-y,1/2+z
loop_
_atom_site_type_symbol
_atom_site_label
_atom_site_fract_x
_atom_site_fract_y
_atom_site_fract_z
Si Si1 0.826784 0.232050 0.465594
Si Si2 0.372481 0.579392 0.085893
Si Si3 0.847678 0.317405 0.758306
Si Si4 0.843945 0.048914 0.865386
Si Si5 0.000000 0.946153 0.250000
Si Si6 0.020580 0.303385 0.317539
Si Si7 0.091521 0.569474 0.893187
Si Si8 0.761284 0.375434 0.425716
O O1 0.750000 0.250000 0.500000
O O2 0.608488 0.179742 0.377400
O O3 0.800486 0.300197 0.429441
O O4 0.156273 0.209969 0.565561
O O5 0.623566 0.624866 0.182965
O O6 0.502543 0.509079 0.118285
O O7 0.261393 0.591575 0.994661
O O8 0.077129 0.591576 0.029815
O O9 0.672158 0.255330 0.722625
O O10 0.000000 0.307003 0.750000
O O11 0.500000 0.049677 0.750000
O O12 0.819104 0.044987 0.918923
O O13 0.036009 0.108513 0.903905
O O14 0.690030 0.975784 0.177871
O O15 0.866217 0.906404 0.163408
O O16 0.945723 0.368964 0.322796
O O17 0.000000 0.306836 0.250000
#
# Coordination Sequence:
#
# PCOD9289587 Si02
#       8
#     8   8   8   8   4   8   8   8
#     4  12  25  43  73 105 152 198 244 302 376 449
#     4  11  26  48  71 106 154 189 247 314 383 441
#     4  12  27  44  72 109 148 192 245 307 378 442
#     4  12  24  45  76 105 143 198 254 310 371 452
#     4  10  22  40  66 104 132 178 238 316 344 428
#     4  12  25  44  70 106 147 197 245 306 373 456
#     4  11  24  43  72 106 145 189 253 302 376 447
#     4  11  24  45  72 105 143 195 248 305 369 447
#
# _framework density 23.765592999999999
#
# number of rings (size 3 to 8) (size 9 to 14) (size 15 to 20)
#    0.000    0.533    4.000    4.000    5.600    1.067 
#    0.000    1.333    4.400    0.000    0.000    0.000 
#    0.000    0.000    0.000    0.000    0.000    0.000 
#
# Total GULP energy -167709.507603 kJ/mol
# GULP energy per Si atom -5590.316920 kJ/mol
# Density = 2.371150 g / cm^3
# Si number density = 23.765593 Si / 1000 Ang^3
#
#
#
# Elastic Constant Matrix: (Units=GPa)
#
#
# Indices 1 2 3 4 5 6 
#
# 1 101.8045 9.6904 51.4418 -0.0011 17.5991 -0.0003
# 2 9.6904 83.8423 31.9326 0.0065 18.0616 -0.0025
# 3 51.4418 31.9326 169.4856 -0.0486 19.4824 0.0072
# 4 -0.0011 0.0065 -0.0486 -253.0409 -0.0185 125.2149
# 5 17.5991 18.0616 19.4824 -0.0185 50.4110 0.0062
# 6 -0.0003 -0.0025 0.0072 125.2149 0.0062 -65.1500
#
#
#
# Elastic Compliance Matrix: (Units=1/GPa)
#
#
# Indices 1 2 3 4 5 6 
#
# 1 0.012021 0.000571 -0.003401 0.000010 -0.003087 0.000018
# 2 0.000571 0.013628 -0.002257 0.000010 -0.004210 0.000019
# 3 -0.003401 -0.002257 0.007460 -0.000020 -0.000887 -0.000038
# 4 0.000010 0.000010 -0.000020 -0.080748 -0.000010 -0.155194
# 5 -0.003087 -0.004210 -0.000887 -0.000010 0.022766 -0.000016
# 6 0.000018 0.000019 -0.000038 -0.155194 -0.000016 -0.313624
#
#
# Mechanical properties :
#
#
# Convention : Reuss Voigt Hill
#
# Bulk Modulus (GPa) = 43.60415 60.14023 51.87219
# Shear Modulus (GPa) = -15.59187 -36.08481 -25.83834
#
# Velocity S-wave (km/s) = -2.56416 -3.90085 -3.30087
# Velocity P-wave (km/s) = 3.10175 2.25205 2.71040
#
# Compressibility (1/GPa) = 0.02293360
#
# Stress axis : x y z
#
# Youngs Moduli (GPa) = 83.19024 73.38034 134.05330
#
# Poissons Ratio (x) = -0.04190 0.45595
# Poissons Ratio (y) = -0.04750 0.30256
# Poissons Ratio (z) = 0.28295 0.16562
#
# Static dielectric constant tensor:
#      x y z
#    x 1.952280 0.000000 0.006080 
#    y 0.000000 1.906570 0.000000 
#    z 0.006080 0.000000 1.930190 
# 
# From -- ./inp_files/290274.got.cif
#   From: 2010.05.17/outbox.cif.g08.bks.cpg/sg15_146_cif.got.tgz:290274.got - 2010.06.03 18:47:42.
