data_PCOD9289670
_publ_section_title
;
Structure prediction by ZEFSAII (Michael W. Deem and Ramdas Pophale) SiO2 
 PCOD9289670
Probable space group: C 2/C
;
_chemical_formula_sum "Si O2"
_cell_formula_units_Z 32
_cell_length_a 11.147263
_cell_length_b 13.793138
_cell_length_c 16.769371
_cell_angle_alpha 90.000000
_cell_angle_beta 148.738317
_cell_angle_gamma 90.000000
_cell_volume 1338.047665
_symmetry_space_group_name_H-M "C 2/C"
_symmetry_group_IT_number 15
_symmetry_cell_setting 'monoclinic'
loop_
_space_group_symop_operation_xyz
x,y,z
-x,y,1/2-z
-x,-y,-z
x,-y,1/2+z
1/2+x,1/2+y,z
1/2-x,1/2+y,1/2-z
1/2-x,1/2-y,-z
1/2+x,1/2-y,1/2+z
loop_
_atom_site_type_symbol
_atom_site_label
_atom_site_fract_x
_atom_site_fract_y
_atom_site_fract_z
Si Si1 0.330639 0.786332 0.869229
Si Si2 0.426858 0.040346 0.044000
Si Si3 0.669615 0.375707 0.940232
Si Si4 0.713641 0.428759 0.139270
O O1 0.534620 0.846084 0.942788
O O2 0.313072 0.815684 0.954602
O O3 0.344960 0.674089 0.853407
O O4 0.086534 0.833325 0.702892
O O5 0.606431 0.994252 0.209776
O O6 0.500000 0.000000 0.000000
O O7 0.183503 0.989079 0.923109
O O8 0.777494 0.382948 0.088925
O O9 0.500000 0.500000 0.000000
#
# Coordination Sequence:
#
# PCOD9289670 Si02
#       4
#     8   8   8   8
#     4  10  23  40  65  98 133 171 222 284 335 388
#     4  10  23  39  62  94 134 172 218 277 334 390
#     4  10  22  40  66  98 125 174 225 275 326 396
#     4  12  24  40  66  99 135 172 228 282 332 402
#
# _framework density 23.91544
#
# number of rings (size 3 to 8) (size 9 to 14) (size 15 to 20)
#    0.000    1.500    2.500    1.500   14.000    0.000 
#    0.000    1.250    0.000    3.000    0.000    0.000 
#    0.000    0.000    0.000    0.000    0.000    0.000 
#
# Total GULP energy -89185.682300 kJ/mol
# GULP energy per Si atom -5574.105144 kJ/mol
# Density = 2.386101 g / cm^3
# Si number density = 23.915440 Si / 1000 Ang^3
#
#
#
# Elastic Constant Matrix: (Units=GPa)
#
#
# Indices 1 2 3 4 5 6 
#
# 1 23.9659 28.9860 14.2898 0.0005 -6.0790 0.0003
# 2 28.9860 156.5967 7.1024 0.0022 25.2967 0.0008
# 3 14.2898 7.1024 148.8140 0.0050 -20.1008 0.0023
# 4 0.0005 0.0022 0.0050 32.2184 0.0017 7.5314
# 5 -6.0790 25.2967 -20.1008 0.0017 39.7796 0.0006
# 6 0.0003 0.0008 0.0023 7.5314 0.0006 26.1599
#
#
#
# Elastic Compliance Matrix: (Units=1/GPa)
#
#
# Indices 1 2 3 4 5 6 
#
# 1 0.066496 -0.015092 -0.003216 -0.000001 0.018134 0.000000
# 2 -0.015092 0.010690 -0.000312 0.000000 -0.009262 0.000000
# 3 -0.003216 -0.000312 0.007517 -0.000001 0.003505 0.000000
# 4 -0.000001 0.000000 -0.000001 0.033278 -0.000002 -0.009581
# 5 0.018134 -0.009262 0.003505 -0.000002 0.035571 0.000000
# 6 0.000000 0.000000 0.000000 -0.009581 0.000000 0.040985
#
#
# Mechanical properties :
#
#
# Convention : Reuss Voigt Hill
#
# Bulk Modulus (GPa) = 21.06868 47.79256 34.43062
# Shear Modulus (GPa) = 20.19415 38.23148 29.21282
#
# Velocity S-wave (km/s) = 2.90901 4.00260 3.49879
# Velocity P-wave (km/s) = 4.48463 6.43339 5.54528
#
# Compressibility (1/GPa) = 0.04746382
#
# Stress axis : x y z
#
# Youngs Moduli (GPa) = 15.03842 93.54837 133.03287
#
# Poissons Ratio (x) = 1.41184 0.42777
# Poissons Ratio (y) = 0.22696 0.04150
# Poissons Ratio (z) = 0.04836 0.02919
#
# Static dielectric constant tensor:
#      x y z
#    x 2.044200 0.000000 -0.007240 
#    y 0.000000 2.047980 0.000000 
#    z -0.007240 0.000000 1.975660 
# 
# From -- ./inp_files/205239.got.cif
#   From: 2010.05.17/outbox.cif.g08.bks.cpg/sg15_103_cif.got.tgz:205239.got - 2010.06.03 18:47:42.
