data_PCOD9289908
_publ_section_title
;
Structure prediction by ZEFSAII (Michael W. Deem and Ramdas Pophale) SiO2 
 PCOD9289908
Probable space group: C 2/C
;
_chemical_formula_sum "Si O2"
_cell_formula_units_Z 56
_cell_length_a 9.376276
_cell_length_b 28.322259
_cell_length_c 10.959407
_cell_angle_alpha 90.000000
_cell_angle_beta 67.754214
_cell_angle_gamma 90.000000
_cell_volume 2693.728517
_symmetry_space_group_name_H-M "C 2/C"
_symmetry_group_IT_number 15
_symmetry_cell_setting 'monoclinic'
loop_
_space_group_symop_operation_xyz
x,y,z
-x,y,1/2-z
-x,-y,-z
x,-y,1/2+z
1/2+x,1/2+y,z
1/2-x,1/2+y,1/2-z
1/2-x,1/2-y,-z
1/2+x,1/2-y,1/2+z
loop_
_atom_site_type_symbol
_atom_site_label
_atom_site_fract_x
_atom_site_fract_y
_atom_site_fract_z
Si Si1 0.000000 0.889008 0.750000
Si Si2 0.306022 0.200844 0.544745
Si Si3 0.000000 0.592863 0.250000
Si Si4 0.442035 0.946295 0.019746
Si Si5 0.677393 0.386131 0.231861
Si Si6 0.246853 0.664652 0.199726
Si Si7 0.166701 0.289896 0.950810
Si Si8 0.752617 0.394578 0.491367
O O1 0.910926 0.855540 0.682786
O O2 0.125950 0.915703 0.627143
O O3 0.250000 0.250000 0.500000
O O4 0.228830 0.167627 0.673804
O O5 0.284812 0.168585 0.431797
O O6 0.482946 0.210047 0.522571
O O7 0.121398 0.626002 0.279255
O O8 0.922827 0.564082 0.382018
O O9 0.288924 0.924978 0.131920
O O10 0.582624 0.918561 0.040212
O O11 0.500000 0.000000 0.000000
O O12 0.500000 0.391642 0.250000
O O13 0.698702 0.394384 0.369303
O O14 0.209818 0.710797 0.292258
O O15 0.250000 0.250000 0.000000
O O16 0.230178 0.339774 0.976917
#
# Coordination Sequence:
#
# PCOD9289908 Si02
#       8
#     4   8   4   8   8   8   8   8
#     4  10  22  40  70 102 127 187 242 294 372 434
#     4  12  26  41  65 100 146 199 245 294 363 428
#     4  12  20  48  78  92 139 195 242 298 370 446
#     4  12  27  49  78 110 142 196 241 307 384 452
#     4  12  27  48  73 108 155 193 249 317 373 439
#     4  11  20  43  65  90 135 183 242 297 348 427
#     4  11  24  41  65 100 138 191 247 295 358 430
#     4  11  24  48  71 101 150 191 243 310 376 442
#
# _framework density 20.789027999999998
#
# number of rings (size 3 to 8) (size 9 to 14) (size 15 to 20)
#    0.000    0.571    7.143    1.286   10.000    0.000 
#    1.286    0.714    0.000    0.000    0.000    0.000 
#    0.000    0.000    0.000    0.000    0.000    0.000 
#
# Total GULP energy -156148.525594 kJ/mol
# GULP energy per Si atom -5576.733057 kJ/mol
# Density = 2.074171 g / cm^3
# Si number density = 20.789028 Si / 1000 Ang^3
#
#
#
# Elastic Constant Matrix: (Units=GPa)
#
#
# Indices 1 2 3 4 5 6 
#
# 1 161.8338 15.8604 51.4873 0.0000 -6.6395 0.0000
# 2 15.8604 62.6215 6.6236 0.0000 5.6617 0.0000
# 3 51.4873 6.6236 118.3748 0.0000 12.3718 0.0000
# 4 0.0000 0.0000 0.0000 11.5529 0.0000 1.3158
# 5 -6.6395 5.6617 12.3718 0.0000 44.2698 0.0000
# 6 0.0000 0.0000 0.0000 1.3158 0.0000 8.1101
#
#
#
# Elastic Compliance Matrix: (Units=1/GPa)
#
#
# Indices 1 2 3 4 5 6 
#
# 1 0.007534 -0.001755 -0.003420 0.000000 0.002310 0.000000
# 2 -0.001755 0.016623 0.000086 0.000000 -0.002413 0.000000
# 3 -0.003420 0.000086 0.010286 0.000000 -0.003398 0.000000
# 4 0.000000 0.000000 0.000000 0.088188 0.000000 -0.014308
# 5 0.002310 -0.002413 -0.003398 0.000000 0.024194 0.000000
# 6 0.000000 0.000000 0.000000 -0.014308 0.000000 0.125624
#
#
# Mechanical properties :
#
#
# Convention : Reuss Voigt Hill
#
# Bulk Modulus (GPa) = 41.21572 54.53032 47.87302
# Shear Modulus (GPa) = 17.19894 30.71048 23.95471
#
# Velocity S-wave (km/s) = 2.87942 3.84766 3.39820
# Velocity P-wave (km/s) = 5.56089 6.78429 6.20283
#
# Compressibility (1/GPa) = 0.02426259
#
# Stress axis : x y z
#
# Youngs Moduli (GPa) = 132.72937 60.15893 97.22175
#
# Poissons Ratio (x) = 0.10560 0.33252
# Poissons Ratio (y) = 0.23298 -0.00832
# Poissons Ratio (z) = 0.45396 -0.00515
#
# Static dielectric constant tensor:
#      x y z
#    x 2.145830 0.000000 -2.034780 
#    y 0.000000 2.437290 0.000000 
#    z -2.034780 0.000000 11.862780 
# 
# From -- ./inp_files/82510.got.cif
#   From: 2010.05.17/outbox.cif.g08.bks.cpg/sg15_42_cif.got.tgz:82510.got - 2010.06.03 18:47:42.
