data_PCOD9289511
_publ_section_title
;
Structure prediction by ZEFSAII (Michael W. Deem and Ramdas Pophale) SiO2 
 PCOD9289511
Probable space group: C 2/C
;
_chemical_formula_sum "Si O2"
_cell_formula_units_Z 48
_cell_length_a 8.494455
_cell_length_b 17.249385
_cell_length_c 16.240124
_cell_angle_alpha 90.000000
_cell_angle_beta 130.247124
_cell_angle_gamma 90.000000
_cell_volume 1816.242226
_symmetry_space_group_name_H-M "C 2/C"
_symmetry_group_IT_number 15
_symmetry_cell_setting 'monoclinic'
loop_
_space_group_symop_operation_xyz
x,y,z
-x,y,1/2-z
-x,-y,-z
x,-y,1/2+z
1/2+x,1/2+y,z
1/2-x,1/2+y,1/2-z
1/2-x,1/2-y,-z
1/2+x,1/2-y,1/2+z
loop_
_atom_site_type_symbol
_atom_site_label
_atom_site_fract_x
_atom_site_fract_y
_atom_site_fract_z
Si Si1 0.428172 0.249755 0.952411
Si Si2 0.123731 0.030071 0.705764
Si Si3 0.278026 0.849758 0.131301
Si Si4 0.611922 0.136378 0.433008
Si Si5 0.863576 0.856006 0.784586
Si Si6 0.071057 0.527001 0.933342
O O1 0.646329 0.274641 0.064589
O O2 0.387150 0.163280 0.970641
O O3 0.250456 0.302713 0.932485
O O4 0.413840 0.280278 0.855387
O O5 0.079289 0.942039 0.660523
O O6 0.362057 0.027458 0.811626
O O7 0.000000 0.044120 0.750000
O O8 0.130601 0.098376 0.641133
O O9 0.500000 0.839450 0.250000
O O10 0.315667 0.896157 0.058398
O O11 0.379234 0.141594 0.319651
O O12 0.693693 0.050003 0.447849
O O13 0.000000 0.852461 0.750000
O O14 0.000000 0.500000 0.000000
#
# Coordination Sequence:
#
# PCOD9289511 Si02
#       6
#     8   8   8   8   8   8
#     4  11  24  43  69  94 132 179 219 272 341 399
#     4   9  20  38  61  95 132 167 218 276 331 390
#     4  10  23  42  66 101 133 175 226 284 330 395
#     4  10  24  44  63  97 131 172 221 268 338 403
#     4  10  22  41  65  95 130 173 219 271 329 405
#     4  10  22  40  65  93 131 171 218 278 330 397
#
# _framework density 26.428191999999999
#
# number of rings (size 3 to 8) (size 9 to 14) (size 15 to 20)
#    0.000    2.000    0.000    1.500    9.333    5.333 
#    6.000    0.000    0.000    0.000    0.000    0.000 
#    0.000    0.000    0.000    0.000    0.000    0.000 
#
# Total GULP energy -134324.763568 kJ/mol
# GULP energy per Si atom -5596.865149 kJ/mol
# Density = 2.636804 g / cm^3
# Si number density = 26.428192 Si / 1000 Ang^3
#
#
#
# Elastic Constant Matrix: (Units=GPa)
#
#
# Indices 1 2 3 4 5 6 
#
# 1 125.5503 15.4967 1.8086 0.0000 -3.4947 0.0000
# 2 15.4967 86.6371 -6.2006 0.0000 -8.3147 0.0000
# 3 1.8086 -6.2006 62.7161 0.0000 17.4266 0.0000
# 4 0.0000 0.0000 0.0000 24.9006 0.0000 -3.8645
# 5 -3.4947 -8.3147 17.4266 0.0000 56.9159 0.0000
# 6 0.0000 0.0000 0.0000 -3.8645 0.0000 42.9406
#
#
#
# Elastic Compliance Matrix: (Units=1/GPa)
#
#
# Indices 1 2 3 4 5 6 
#
# 1 0.008164 -0.001454 -0.000502 0.000000 0.000443 0.000000
# 2 -0.001454 0.011997 0.000837 0.000000 0.001407 0.000000
# 3 -0.000502 0.000837 0.017506 0.000000 -0.005269 0.000000
# 4 0.000000 0.000000 0.000000 0.040729 0.000000 0.003665
# 5 0.000443 0.001407 -0.005269 0.000000 0.019416 0.000000
# 6 0.000000 0.000000 0.000000 0.003665 0.000000 0.023618
#
#
# Mechanical properties :
#
#
# Convention : Reuss Voigt Hill
#
# Bulk Modulus (GPa) = 28.22486 33.01256 30.61871
# Shear Modulus (GPa) = 36.90663 42.53801 39.72232
#
# Velocity S-wave (km/s) = 3.74101 4.01630 3.88110
# Velocity P-wave (km/s) = 5.41879 5.83319 5.62980
#
# Compressibility (1/GPa) = 0.03542977
#
# Stress axis : x y z
#
# Youngs Moduli (GPa) = 122.49015 83.35158 57.12304
#
# Poissons Ratio (x) = 0.12117 0.02868
# Poissons Ratio (y) = 0.17807 -0.04782
# Poissons Ratio (z) = 0.06151 -0.06977
#
# Static dielectric constant tensor:
#      x y z
#    x 2.314160 0.000000 -0.181290 
#    y 0.000000 2.079260 0.000000 
#    z -0.181290 0.000000 2.108260 
# 
# From -- ./inp_files/192291.got.cif
#   From: 2010.05.17/outbox.cif.g08.bks.cpg/sg15_97_cif.got.tgz:192291.got - 2010.06.03 18:47:42.
