data_PCOD9289111
_publ_section_title
;
Structure prediction by ZEFSAII (Michael W. Deem and Ramdas Pophale) SiO2 
 PCOD9289111
Probable space group: C 2/C
;
_chemical_formula_sum "Si O2"
_cell_formula_units_Z 52
_cell_length_a 15.299623
_cell_length_b 23.389536
_cell_length_c 8.322846
_cell_angle_alpha 90.000000
_cell_angle_beta 132.779490
_cell_angle_gamma 90.000000
_cell_volume 2186.020849
_symmetry_space_group_name_H-M "C 2/C"
_symmetry_group_IT_number 15
_symmetry_cell_setting 'monoclinic'
loop_
_space_group_symop_operation_xyz
x,y,z
-x,y,1/2-z
-x,-y,-z
x,-y,1/2+z
1/2+x,1/2+y,z
1/2-x,1/2+y,1/2-z
1/2-x,1/2-y,-z
1/2+x,1/2-y,1/2+z
loop_
_atom_site_type_symbol
_atom_site_label
_atom_site_fract_x
_atom_site_fract_y
_atom_site_fract_z
Si Si1 0.165630 0.624355 0.009207
Si Si2 0.194628 0.223866 0.262538
Si Si3 0.000000 0.535141 0.750000
Si Si4 0.287099 0.047836 0.984402
Si Si5 0.349379 0.545696 0.364303
Si Si6 0.015918 0.868957 0.954385
Si Si7 0.797459 0.655574 0.810306
O O1 0.153667 0.642780 0.808918
O O2 0.065244 0.581256 0.946414
O O3 0.200958 0.679431 0.156035
O O4 0.281339 0.584800 0.150239
O O5 0.250000 0.250000 0.500000
O O6 0.173088 0.278193 0.124179
O O7 0.075558 0.184915 0.131641
O O8 0.892970 0.494955 0.670214
O O9 0.341244 0.105294 0.979337
O O10 0.203063 0.016131 0.747207
O O11 0.204053 0.059952 0.030833
O O12 0.478449 0.574576 0.510203
O O13 0.000000 0.886080 0.750000
O O14 0.152931 0.849923 0.142377
#
# Coordination Sequence:
#
# PCOD9289111 Si02
#       7
#     8   8   4   8   8   8   8
#     4   9  19  36  61  91 121 160 217 264 322 388
#     4   9  18  35  61  96 124 158 219 274 313 388
#     4  10  22  40  64  88 130 174 212 276 344 378
#     4  11  24  41  63  92 134 169 220 272 325 406
#     4  10  22  40  60  91 122 167 215 266 323 394
#     4  11  20  39  66  89 131 169 210 275 332 379
#     4  11  22  39  62  95 129 170 218 266 323 397
#
# _framework density 23.787514000000002
#
# number of rings (size 3 to 8) (size 9 to 14) (size 15 to 20)
#    0.000    1.846    4.615    1.846    0.000    9.231 
#    0.000    4.615    0.000    0.000    0.000    0.000 
#    0.000    0.000    0.000    0.000    0.000    0.000 
#
# Total GULP energy -144771.038171 kJ/mol
# GULP energy per Si atom -5568.116853 kJ/mol
# Density = 2.373337 g / cm^3
# Si number density = 23.787514 Si / 1000 Ang^3
#
#
#
# Elastic Constant Matrix: (Units=GPa)
#
#
# Indices 1 2 3 4 5 6 
#
# 1 91.1520 56.4839 21.1707 0.0000 6.7675 0.0000
# 2 56.4839 153.3830 27.1849 0.0000 5.6747 0.0000
# 3 21.1707 27.1849 30.0473 0.0000 21.6340 0.0000
# 4 0.0000 0.0000 0.0000 19.3259 0.0000 15.4620
# 5 6.7675 5.6747 21.6340 0.0000 39.5730 0.0000
# 6 0.0000 0.0000 0.0000 15.4620 0.0000 44.0258
#
#
#
# Elastic Compliance Matrix: (Units=1/GPa)
#
#
# Indices 1 2 3 4 5 6 
#
# 1 0.015495 -0.004161 -0.009358 0.000000 0.003063 0.000000
# 2 -0.004161 0.009400 -0.008434 0.000000 0.003975 0.000000
# 3 -0.009358 -0.008434 0.075006 0.000000 -0.038195 0.000000
# 4 0.000000 0.000000 0.000000 0.071965 0.000000 -0.025274
# 5 0.003063 0.003975 -0.038195 0.000000 0.045057 0.000000
# 6 0.000000 0.000000 0.000000 -0.025274 0.000000 0.031590
#
#
# Mechanical properties :
#
#
# Convention : Reuss Voigt Hill
#
# Bulk Modulus (GPa) = 17.85926 53.80681 35.83304
# Shear Modulus (GPa) = 16.07280 31.90112 23.98696
#
# Velocity S-wave (km/s) = 2.60221 3.66606 3.17895
# Velocity P-wave (km/s) = 4.06851 6.37094 5.34517
#
# Compressibility (1/GPa) = 0.05599335
#
# Stress axis : x y z
#
# Youngs Moduli (GPa) = 64.53614 106.38665 13.33234
#
# Poissons Ratio (x) = 0.44266 0.12477
# Poissons Ratio (y) = 0.26852 0.11245
# Poissons Ratio (z) = 0.60396 0.89729
#
# Static dielectric constant tensor:
#      x y z
#    x 1.910930 0.000000 0.070540 
#    y 0.000000 1.979970 0.000000 
#    z 0.070540 0.000000 2.038040 
# 
# From -- ./inp_files/43671.got.cif
#   From: 2010.05.17/outbox.cif.g08.bks.cpg/sg15_22_cif.got.tgz:43671.got - 2010.06.03 18:47:42.
