data_PCOD9289258
_publ_section_title
;
Structure prediction by ZEFSAII (Michael W. Deem and Ramdas Pophale) SiO2 
 PCOD9289258
Probable space group: C 2/C
;
_chemical_formula_sum "Si O2"
_cell_formula_units_Z 48
_cell_length_a 11.834100
_cell_length_b 8.162673
_cell_length_c 27.279910
_cell_angle_alpha 90.000000
_cell_angle_beta 118.428768
_cell_angle_gamma 90.000000
_cell_volume 2317.404229
_symmetry_space_group_name_H-M "C 2/C"
_symmetry_group_IT_number 15
_symmetry_cell_setting 'monoclinic'
loop_
_space_group_symop_operation_xyz
x,y,z
-x,y,1/2-z
-x,-y,-z
x,-y,1/2+z
1/2+x,1/2+y,z
1/2-x,1/2+y,1/2-z
1/2-x,1/2-y,-z
1/2+x,1/2-y,1/2+z
loop_
_atom_site_type_symbol
_atom_site_label
_atom_site_fract_x
_atom_site_fract_y
_atom_site_fract_z
Si Si1 0.500000 0.985660 0.750000
Si Si2 0.197532 0.761901 0.332956
Si Si3 0.608225 0.593296 0.431916
Si Si4 0.908227 0.580707 0.520581
Si Si5 0.355454 0.767715 0.564733
Si Si6 0.445672 0.753322 0.319310
Si Si7 0.500000 0.515097 0.250000
O O1 0.525772 0.088313 0.706537
O O2 0.374371 0.883150 0.710574
O O3 0.201473 0.735672 0.392173
O O4 0.334622 0.781352 0.335852
O O5 0.100403 0.909526 0.301626
O O6 0.761700 0.586293 0.470723
O O7 0.558794 0.730148 0.460404
O O8 0.563037 0.402847 0.424057
O O9 0.566875 0.678137 0.372948
O O10 0.914064 0.448422 0.566563
O O11 0.000000 0.500000 0.500000
O O12 0.250000 0.750000 0.500000
O O13 0.416638 0.621677 0.270678
#
# Coordination Sequence:
#
# PCOD9289258 Si02
#       7
#     4   8   8   8   8   8   4
#     4  10  24  42  64  96 130 164 224 272 322 414
#     4  11  22  42  63  92 132 169 211 274 336 381
#     4  10  22  41  61  97 126 163 226 264 314 409
#     4  10  23  42  63  93 134 175 211 273 332 380
#     4  10  22  42  63  95 132 167 221 272 318 402
#     4  11  22  40  67  93 125 171 210 272 336 383
#     4  10  22  40  62  96 126 156 224 262 320 412
#
# _framework density 20.712831000000001
#
# number of rings (size 3 to 8) (size 9 to 14) (size 15 to 20)
#    0.000    1.667    1.667    2.000    4.667    0.667 
#    9.000    1.667    0.000    0.000    0.000    0.000 
#    0.000    0.000    0.000    0.000    0.000    0.000 
#
# Total GULP energy -133757.815023 kJ/mol
# GULP energy per Si atom -5573.242293 kJ/mol
# Density = 2.066569 g / cm^3
# Si number density = 20.712831 Si / 1000 Ang^3
#
#
#
# Elastic Constant Matrix: (Units=GPa)
#
#
# Indices 1 2 3 4 5 6 
#
# 1 92.3853 25.0218 6.9565 0.0000 -18.0167 0.0000
# 2 25.0218 96.8472 -1.1072 0.0000 2.2536 0.0000
# 3 6.9565 -1.1072 71.1661 0.0000 -7.3988 0.0000
# 4 0.0000 0.0000 0.0000 30.1710 0.0000 -8.8959
# 5 -18.0167 2.2536 -7.3988 0.0000 28.8002 0.0000
# 6 0.0000 0.0000 0.0000 -8.8959 0.0000 15.8737
#
#
#
# Elastic Compliance Matrix: (Units=1/GPa)
#
#
# Indices 1 2 3 4 5 6 
#
# 1 0.013550 -0.003708 -0.000484 0.000000 0.008643 0.000000
# 2 -0.003708 0.011359 0.000211 0.000000 -0.003154 0.000000
# 3 -0.000484 0.000211 0.014455 0.000000 0.003394 0.000000
# 4 0.000000 0.000000 0.000000 0.039705 0.000000 0.022252
# 5 0.008643 -0.003154 0.003394 0.000000 0.041247 0.000000
# 6 0.000000 0.000000 0.000000 0.022252 0.000000 0.075468
#
#
# Mechanical properties :
#
#
# Convention : Reuss Voigt Hill
#
# Bulk Modulus (GPa) = 31.84245 35.79343 33.81794
# Shear Modulus (GPa) = 23.34125 30.27079 26.80602
#
# Velocity S-wave (km/s) = 3.36057 3.82704 3.60137
# Velocity P-wave (km/s) = 5.51947 6.07014 5.80135
#
# Compressibility (1/GPa) = 0.03140461
#
# Stress axis : x y z
#
# Youngs Moduli (GPa) = 73.79935 88.03404 69.17970
#
# Poissons Ratio (x) = 0.32639 0.03346
# Poissons Ratio (y) = 0.27361 -0.01461
# Poissons Ratio (z) = 0.03570 -0.01860
#
# Static dielectric constant tensor:
#      x y z
#    x 1.711270 0.000000 0.029710 
#    y 0.000000 1.842150 0.000000 
#    z 0.029710 0.000000 1.854380 
# 
# From -- ./inp_files/267758.got.cif
#   From: 2010.05.17/outbox.cif.g08.bks.cpg/sg15_134_cif.got.tgz:267758.got - 2010.06.03 18:47:42.
