data_PCOD9289936
_publ_section_title
;
Structure prediction by ZEFSAII (Michael W. Deem and Ramdas Pophale) SiO2 
 PCOD9289936
Probable space group: C 2/C
;
_chemical_formula_sum "Si O2"
_cell_formula_units_Z 48
_cell_length_a 9.992847
_cell_length_b 9.694542
_cell_length_c 21.374017
_cell_angle_alpha 90.000000
_cell_angle_beta 79.764212
_cell_angle_gamma 90.000000
_cell_volume 2037.676380
_symmetry_space_group_name_H-M "C 2/C"
_symmetry_group_IT_number 15
_symmetry_cell_setting 'monoclinic'
loop_
_space_group_symop_operation_xyz
x,y,z
-x,y,1/2-z
-x,-y,-z
x,-y,1/2+z
1/2+x,1/2+y,z
1/2-x,1/2+y,1/2-z
1/2-x,1/2-y,-z
1/2+x,1/2-y,1/2+z
loop_
_atom_site_type_symbol
_atom_site_label
_atom_site_fract_x
_atom_site_fract_y
_atom_site_fract_z
Si Si1 0.865795 0.527284 0.214412
Si Si2 0.913315 0.861291 0.500781
Si Si3 0.526021 0.740963 0.641910
Si Si4 0.522800 0.799628 0.378174
Si Si5 0.211132 0.521597 0.095341
Si Si6 0.588308 0.478497 0.814727
O O1 0.872952 0.404073 0.163501
O O2 0.718450 0.529170 0.258714
O O3 0.000000 0.505950 0.250000
O O4 0.896674 0.669635 0.175263
O O5 0.953697 0.792995 0.432631
O O6 0.938184 0.760727 0.557532
O O7 0.760252 0.919066 0.524610
O O8 0.000000 0.000000 0.500000
O O9 0.647118 0.851241 0.639887
O O10 0.520380 0.601232 0.681840
O O11 0.515342 0.667504 0.332671
O O12 0.390020 0.894022 0.398413
O O13 0.339960 0.480483 0.125583
#
# Coordination Sequence:
#
# PCOD9289936 Si02
#       6
#     8   8   8   8   8   8
#     4  11  22  42  69  90 134 172 211 266 322 377
#     4  11  22  43  68  96 131 165 217 267 323 382
#     4  11  22  41  70  94 126 177 208 266 329 372
#     4  10  22  40  70  94 127 176 208 267 328 369
#     4  10  22  41  66  94 133 164 212 268 316 380
#     4  11  21  44  66  94 130 169 216 266 317 383
#
# _framework density 23.556242999999998
#
# number of rings (size 3 to 8) (size 9 to 14) (size 15 to 20)
#    0.000    1.333    6.667    1.500    0.000    3.333 
#    0.000    7.500    0.000    0.000    0.000    0.000 
#    0.000    0.000    0.000    0.000    0.000    0.000 
#
# Total GULP energy -133929.111058 kJ/mol
# GULP energy per Si atom -5580.379627 kJ/mol
# Density = 2.350263 g / cm^3
# Si number density = 23.556243 Si / 1000 Ang^3
#
#
#
# Elastic Constant Matrix: (Units=GPa)
#
#
# Indices 1 2 3 4 5 6 
#
# 1 81.8245 53.2929 51.8493 0.0000 -20.5943 0.0000
# 2 53.2929 179.2924 68.1645 0.0000 -21.5987 0.0000
# 3 51.8493 68.1645 181.6315 0.0000 -27.9785 0.0000
# 4 0.0000 0.0000 0.0000 44.5492 0.0000 -12.9914
# 5 -20.5943 -21.5987 -27.9785 0.0000 42.8078 0.0000
# 6 0.0000 0.0000 0.0000 -12.9914 0.0000 34.3002
#
#
#
# Elastic Compliance Matrix: (Units=1/GPa)
#
#
# Indices 1 2 3 4 5 6 
#
# 1 0.017595 -0.003530 -0.002967 0.000000 0.004744 0.000000
# 2 -0.003530 0.007352 -0.001603 0.000000 0.000963 0.000000
# 3 -0.002967 -0.001603 0.007350 0.000000 0.002567 0.000000
# 4 0.000000 0.000000 0.000000 0.025234 0.000000 0.009558
# 5 0.004744 0.000963 0.002567 0.000000 0.027807 0.000000
# 6 0.000000 0.000000 0.000000 0.009558 0.000000 0.032774
#
#
# Mechanical properties :
#
#
# Convention : Reuss Voigt Hill
#
# Bulk Modulus (GPa) = 62.12690 87.70685 74.91688
# Shear Modulus (GPa) = 35.79650 42.29420 39.04535
#
# Velocity S-wave (km/s) = 3.90246 4.24188 4.07570
# Velocity P-wave (km/s) = 6.83642 7.82976 7.34989
#
# Compressibility (1/GPa) = 0.01609609
#
# Stress axis : x y z
#
# Youngs Moduli (GPa) = 56.83514 136.01041 136.05951
#
# Poissons Ratio (x) = 0.48016 0.40368
# Poissons Ratio (y) = 0.20065 0.21811
# Poissons Ratio (z) = 0.16863 0.21803
#
# Static dielectric constant tensor:
#      x y z
#    x 1.931630 0.000000 -0.009060 
#    y 0.000000 1.907320 0.000000 
#    z -0.009060 0.000000 1.940470 
# 
# From -- ./inp_files/268036.got.cif
#   From: 2010.05.17/outbox.cif.g08.bks.cpg/sg15_135_cif.got.tgz:268036.got - 2010.06.03 18:47:42.
