data_PCOD9289761
_publ_section_title
;
Structure prediction by ZEFSAII (Michael W. Deem and Ramdas Pophale) SiO2 
 PCOD9289761
Probable space group: C 2/C
;
_chemical_formula_sum "Si O2"
_cell_formula_units_Z 64
_cell_length_a 13.919025
_cell_length_b 12.631556
_cell_length_c 23.037735
_cell_angle_alpha 90.000000
_cell_angle_beta 43.796651
_cell_angle_gamma 90.000000
_cell_volume 2803.334439
_symmetry_space_group_name_H-M "C 2/C"
_symmetry_group_IT_number 15
_symmetry_cell_setting 'monoclinic'
loop_
_space_group_symop_operation_xyz
x,y,z
-x,y,1/2-z
-x,-y,-z
x,-y,1/2+z
1/2+x,1/2+y,z
1/2-x,1/2+y,1/2-z
1/2-x,1/2-y,-z
1/2+x,1/2-y,1/2+z
loop_
_atom_site_type_symbol
_atom_site_label
_atom_site_fract_x
_atom_site_fract_y
_atom_site_fract_z
Si Si1 0.469251 0.243475 0.406618
Si Si2 0.339135 0.459407 0.685653
Si Si3 0.029438 0.242929 0.414870
Si Si4 0.979251 0.442124 0.690625
Si Si5 0.617074 0.531405 0.596240
Si Si6 0.356036 0.643446 0.590770
Si Si7 0.815094 0.618176 0.940063
Si Si8 0.624901 0.915580 0.450986
O O1 0.481753 0.177890 0.342441
O O2 0.387091 0.353478 0.433609
O O3 0.619749 0.278190 0.366043
O O4 0.407484 0.161808 0.480390
O O5 0.381860 0.337802 0.660680
O O6 0.175367 0.465496 0.764927
O O7 0.455365 0.507079 0.677906
O O8 0.362940 0.527109 0.615433
O O9 0.119775 0.340860 0.397593
O O10 0.978764 0.177438 0.493574
O O11 0.893952 0.293497 0.443160
O O12 0.000000 0.458620 0.750000
O O13 0.079748 0.521521 0.613597
O O14 0.680605 0.438524 0.527569
O O15 0.725666 0.534963 0.601329
O O16 0.223423 0.656361 0.607776
O O17 0.500000 0.000000 0.500000
#
# Coordination Sequence:
#
# PCOD9289761 Si02
#       8
#     8   8   8   8   8   8   8   8
#     4  10  24  39  65  96 129 167 219 268 338 392
#     4  11  25  41  63  97 136 173 220 273 327 409
#     4  11  23  37  69 102 132 167 223 279 342 390
#     4  12  26  44  65  90 134 183 224 268 333 412
#     4  11  23  40  69  97 129 162 223 282 328 380
#     4  10  22  40  68 100 130 165 222 281 327 391
#     4  12  23  42  70 100 131 174 225 278 334 393
#     4  11  21  38  63 101 132 162 210 283 335 382
#
# _framework density 22.829955999999999
#
# number of rings (size 3 to 8) (size 9 to 14) (size 15 to 20)
#    0.000    1.000    5.000    1.125    5.250    2.000 
#    0.000    0.000    0.000    3.000    0.000    0.000 
#    0.000    0.000    0.000    0.000    0.000    0.000 
#
# Total GULP energy -178690.677999 kJ/mol
# GULP energy per Si atom -5584.083687 kJ/mol
# Density = 2.277799 g / cm^3
# Si number density = 22.829956 Si / 1000 Ang^3
#
#
#
# Elastic Constant Matrix: (Units=GPa)
#
#
# Indices 1 2 3 4 5 6 
#
# 1 115.7545 16.7677 10.9897 0.0000 -30.9357 0.0000
# 2 16.7677 95.1602 12.0659 0.0000 1.0115 0.0000
# 3 10.9897 12.0659 33.6974 0.0000 -19.8021 0.0000
# 4 0.0000 0.0000 0.0000 14.6797 0.0000 -10.1637
# 5 -30.9357 1.0115 -19.8021 0.0000 33.0479 0.0000
# 6 0.0000 0.0000 0.0000 -10.1637 0.0000 36.3845
#
#
#
# Elastic Compliance Matrix: (Units=1/GPa)
#
#
# Indices 1 2 3 4 5 6 
#
# 1 0.012719 -0.003202 0.006255 0.000000 0.015751 0.000000
# 2 -0.003202 0.012199 -0.008187 0.000000 -0.008276 0.000000
# 3 0.006255 -0.008187 0.052718 0.000000 0.037694 0.000000
# 4 0.000000 0.000000 0.000000 0.084456 0.000000 0.023592
# 5 0.015751 -0.008276 0.037694 0.000000 0.067843 0.000000
# 6 0.000000 0.000000 0.000000 0.023592 0.000000 0.034075
#
#
# Mechanical properties :
#
#
# Convention : Reuss Voigt Hill
#
# Bulk Modulus (GPa) = 14.84397 36.02874 25.43635
# Shear Modulus (GPa) = 16.85017 30.47499 23.66258
#
# Velocity S-wave (km/s) = 2.71970 3.65755 3.22292
# Velocity P-wave (km/s) = 4.04703 5.80108 5.00154
#
# Compressibility (1/GPa) = 0.06736744
#
# Stress axis : x y z
#
# Youngs Moduli (GPa) = 78.62544 81.97533 18.96878
#
# Poissons Ratio (x) = 0.26245 -0.11864
# Poissons Ratio (y) = 0.25172 0.15530
# Poissons Ratio (z) = -0.49178 0.67115
#
# Static dielectric constant tensor:
#      x y z
#    x 1.893210 0.000000 -0.007820 
#    y 0.000000 1.864830 0.000000 
#    z -0.007820 0.000000 1.864660 
# 
# From -- ./inp_files/296097.got.cif
#   From: 2010.05.17/outbox.cif.g08.bks.cpg/sg15_149_cif.got.tgz:296097.got - 2010.06.03 18:47:42.
