data_PCOD9289557
_publ_section_title
;
Structure prediction by ZEFSAII (Michael W. Deem and Ramdas Pophale) SiO2 
 PCOD9289557
Probable space group: C 2/C
;
_chemical_formula_sum "Si O2"
_cell_formula_units_Z 52
_cell_length_a 21.089425
_cell_length_b 20.564111
_cell_length_c 5.451207
_cell_angle_alpha 90.000000
_cell_angle_beta 59.392530
_cell_angle_gamma 90.000000
_cell_volume 2034.730382
_symmetry_space_group_name_H-M "C 2/C"
_symmetry_group_IT_number 15
_symmetry_cell_setting 'monoclinic'
loop_
_space_group_symop_operation_xyz
x,y,z
-x,y,1/2-z
-x,-y,-z
x,-y,1/2+z
1/2+x,1/2+y,z
1/2-x,1/2+y,1/2-z
1/2-x,1/2-y,-z
1/2+x,1/2-y,1/2+z
loop_
_atom_site_type_symbol
_atom_site_label
_atom_site_fract_x
_atom_site_fract_y
_atom_site_fract_z
Si Si1 0.370270 0.229684 0.791220
Si Si2 0.082816 0.026552 0.841504
Si Si3 0.500000 0.231574 0.250000
Si Si4 0.929212 0.539424 0.803661
Si Si5 0.103409 0.823753 0.379299
Si Si6 0.234893 0.182618 0.305875
Si Si7 0.259147 0.958921 0.673641
O O1 0.438682 0.193347 0.531107
O O2 0.309613 0.257149 0.724013
O O3 0.406137 0.294763 0.833837
O O4 0.321278 0.197163 0.101178
O O5 0.079889 0.102734 0.888999
O O6 0.117156 0.007258 0.512793
O O7 0.000000 0.000000 0.000000
O O8 0.554176 0.277391 0.304142
O O9 0.934335 0.515605 0.511941
O O10 0.000000 0.581418 0.750000
O O11 0.845843 0.561730 0.996000
O O12 0.191483 0.823662 0.147122
O O13 0.220722 0.111597 0.214581
O O14 0.250531 0.008520 0.461626
#
# Coordination Sequence:
#
# PCOD9289557 Si02
#       7
#     8   8   4   8   8   8   8
#     4  10  23  44  69  96 131 181 233 290 356 411
#     4  10  23  37  59  95 141 182 228 276 341 414
#     4  10  22  40  68 100 124 168 232 292 356 406
#     4   8  14  28  52  78 112 153 201 250 315 385
#     4  11  23  40  69  93 138 184 229 291 347 417
#     4  10  24  43  66  97 136 180 236 286 348 423
#     4  10  22  40  65  97 135 179 223 282 346 417
#
# _framework density 25.55621
#
# number of rings (size 3 to 8) (size 9 to 14) (size 15 to 20)
#    0.000    2.154    0.000    1.846   10.769    1.231 
#    0.000    1.538   13.538    0.000    0.000    0.000 
#    0.000    0.000    0.000    0.000    0.000    0.000 
#
# Total GULP energy -145013.393138 kJ/mol
# GULP energy per Si atom -5577.438198 kJ/mol
# Density = 2.549804 g / cm^3
# Si number density = 25.556210 Si / 1000 Ang^3
#
#
#
# Elastic Constant Matrix: (Units=GPa)
#
#
# Indices 1 2 3 4 5 6 
#
# 1 109.8743 15.2594 32.2670 0.0000 -11.0394 0.0000
# 2 15.2594 68.5927 21.7338 0.0000 -4.0023 0.0000
# 3 32.2670 21.7338 173.1727 0.0000 -30.3328 0.0000
# 4 0.0000 0.0000 0.0000 3.7371 0.0000 -1.5327
# 5 -11.0394 -4.0023 -30.3328 0.0000 51.8573 0.0000
# 6 0.0000 0.0000 0.0000 -1.5327 0.0000 36.5834
#
#
#
# Elastic Compliance Matrix: (Units=1/GPa)
#
#
# Indices 1 2 3 4 5 6 
#
# 1 0.009868 -0.001676 -0.001429 0.000000 0.001135 0.000000
# 2 -0.001676 0.015467 -0.001652 0.000000 -0.000129 0.000000
# 3 -0.001429 -0.001652 0.006877 0.000000 0.003591 0.000000
# 4 0.000000 0.000000 0.000000 0.272268 0.000000 0.011407
# 5 0.001135 -0.000129 0.003591 0.000000 0.021616 0.000000
# 6 0.000000 0.000000 0.000000 0.011407 0.000000 0.027813
#
#
# Mechanical properties :
#
#
# Convention : Reuss Voigt Hill
#
# Bulk Modulus (GPa) = 44.05598 54.46222 49.25910
# Shear Modulus (GPa) = 13.47748 37.26084 25.36916
#
# Velocity S-wave (km/s) = 2.29894 3.82251 3.15410
# Velocity P-wave (km/s) = 4.93184 6.39055 5.70799
#
# Compressibility (1/GPa) = 0.02269839
#
# Stress axis : x y z
#
# Youngs Moduli (GPa) = 101.33826 64.65192 145.40837
#
# Poissons Ratio (x) = 0.10836 0.20786
# Poissons Ratio (y) = 0.16985 0.24014
# Poissons Ratio (z) = 0.14486 0.10677
#
# Static dielectric constant tensor:
#      x y z
#    x 2.103340 0.000000 -0.097520 
#    y 0.000000 1.977970 0.000000 
#    z -0.097520 0.000000 2.150480 
# 
# From -- ./inp_files/15799.got.cif
#   From: 2010.05.17/outbox.cif.g08.bks.cpg/sg15_8_cif.got.tgz:15799.got - 2010.06.03 18:47:42.
