data_PCOD9289757
_publ_section_title
;
Structure prediction by ZEFSAII (Michael W. Deem and Ramdas Pophale) SiO2 
 PCOD9289757
Probable space group: C 2/C
;
_chemical_formula_sum "Si O2"
_cell_formula_units_Z 56
_cell_length_a 12.553568
_cell_length_b 7.746216
_cell_length_c 26.716119
_cell_angle_alpha 90.000000
_cell_angle_beta 65.797220
_cell_angle_gamma 90.000000
_cell_volume 2369.587306
_symmetry_space_group_name_H-M "C 2/C"
_symmetry_group_IT_number 15
_symmetry_cell_setting 'monoclinic'
loop_
_space_group_symop_operation_xyz
x,y,z
-x,y,1/2-z
-x,-y,-z
x,-y,1/2+z
1/2+x,1/2+y,z
1/2-x,1/2+y,1/2-z
1/2-x,1/2-y,-z
1/2+x,1/2-y,1/2+z
loop_
_atom_site_type_symbol
_atom_site_label
_atom_site_fract_x
_atom_site_fract_y
_atom_site_fract_z
Si Si1 0.869844 0.905944 0.707218
Si Si2 0.845396 0.297168 0.684971
Si Si3 0.895725 0.190486 0.093524
Si Si4 0.120897 0.195049 0.934797
Si Si5 0.516639 0.087973 0.689342
Si Si6 0.856193 0.338949 0.429401
Si Si7 0.137818 0.343420 0.497658
O O1 0.776296 0.847672 0.766167
O O2 0.831732 0.838553 0.659014
O O3 0.982216 0.789810 0.696383
O O4 0.884604 0.111898 0.700998
O O5 0.845177 0.264126 0.626303
O O6 0.927176 0.460406 0.679067
O O7 0.032318 0.217653 0.081184
O O8 0.884039 0.012370 0.066045
O O9 0.849704 0.340009 0.065362
O O10 0.227331 0.239837 0.951081
O O11 0.990732 0.258965 0.971404
O O12 0.500000 0.031403 0.750000
O O13 0.625862 0.082097 0.630689
O O14 0.869321 0.487094 0.467630
O O15 0.250000 0.250000 0.500000
#
# Coordination Sequence:
#
# PCOD9289757 Si02
#       7
#     8   8   8   8   8   8   8
#     4  10  22  40  67  99 139 180 232 285 349 415
#     4  11  21  40  69 100 137 183 228 290 350 419
#     4  10  24  43  66 101 139 180 229 286 339 415
#     4  11  24  46  69  98 139 179 232 290 349 413
#     4  11  23  41  67 100 138 183 235 286 353 422
#     4  11  24  45  68  99 135 185 231 286 351 409
#     4  12  24  44  72 100 139 181 233 284 353 421
#
# _framework density 23.632807
#
# number of rings (size 3 to 8) (size 9 to 14) (size 15 to 20)
#    0.000    1.143    4.286    1.714    2.000    1.143 
#    2.571    1.429    0.000    0.000    0.000    0.000 
#    0.000    0.000    0.000    0.000    0.000    0.000 
#
# Total GULP energy -156425.484920 kJ/mol
# GULP energy per Si atom -5586.624461 kJ/mol
# Density = 2.357902 g / cm^3
# Si number density = 23.632807 Si / 1000 Ang^3
#
#
#
# Elastic Constant Matrix: (Units=GPa)
#
#
# Indices 1 2 3 4 5 6 
#
# 1 125.0427 16.9308 28.6982 0.0000 -1.5915 0.0000
# 2 16.9308 76.7750 14.5715 0.0000 -7.4790 0.0000
# 3 28.6982 14.5715 124.5012 0.0000 0.7308 0.0000
# 4 0.0000 0.0000 0.0000 32.2466 0.0000 4.0551
# 5 -1.5915 -7.4790 0.7308 0.0000 41.7573 0.0000
# 6 0.0000 0.0000 0.0000 4.0551 0.0000 29.7565
#
#
#
# Elastic Compliance Matrix: (Units=1/GPa)
#
#
# Indices 1 2 3 4 5 6 
#
# 1 0.008623 -0.001551 -0.001807 0.000000 0.000083 0.000000
# 2 -0.001551 0.013848 -0.001278 0.000000 0.002443 0.000000
# 3 -0.001807 -0.001278 0.008601 0.000000 -0.000448 0.000000
# 4 0.000000 0.000000 0.000000 0.031552 0.000000 -0.004300
# 5 0.000083 0.002443 -0.000448 0.000000 0.024397 0.000000
# 6 0.000000 0.000000 0.000000 -0.004300 0.000000 0.034192
#
#
# Mechanical properties :
#
#
# Convention : Reuss Voigt Hill
#
# Bulk Modulus (GPa) = 45.86872 49.63554 47.75213
# Shear Modulus (GPa) = 36.29811 38.49333 37.39572
#
# Velocity S-wave (km/s) = 3.92333 4.04023 3.98221
# Velocity P-wave (km/s) = 6.32254 6.54316 6.43380
#
# Compressibility (1/GPa) = 0.02180135
#
# Stress axis : x y z
#
# Youngs Moduli (GPa) = 115.97017 72.21498 116.27032
#
# Poissons Ratio (x) = 0.11198 0.21006
# Poissons Ratio (y) = 0.17983 0.14855
# Poissons Ratio (z) = 0.20951 0.09226
#
# Static dielectric constant tensor:
#      x y z
#    x 1.920150 0.000000 0.010030 
#    y 0.000000 1.898560 0.000000 
#    z 0.010030 0.000000 2.009620 
# 
# From -- ./inp_files/309936.got.cif
#   From: 2010.05.17/outbox.cif.g08.bks.cpg/sg15_155_cif.got.tgz:309936.got - 2010.06.03 18:47:42.
