data_PCOD9289176
_publ_section_title
;
Structure prediction by ZEFSAII (Michael W. Deem and Ramdas Pophale) SiO2 
 PCOD9289176
Probable space group: C 2/C
;
_chemical_formula_sum "Si O2"
_cell_formula_units_Z 48
_cell_length_a 17.089651
_cell_length_b 11.967978
_cell_length_c 11.223081
_cell_angle_alpha 90.000000
_cell_angle_beta 111.266143
_cell_angle_gamma 90.000000
_cell_volume 2139.134287
_symmetry_space_group_name_H-M "C 2/C"
_symmetry_group_IT_number 15
_symmetry_cell_setting 'monoclinic'
loop_
_space_group_symop_operation_xyz
x,y,z
-x,y,1/2-z
-x,-y,-z
x,-y,1/2+z
1/2+x,1/2+y,z
1/2-x,1/2+y,1/2-z
1/2-x,1/2-y,-z
1/2+x,1/2-y,1/2+z
loop_
_atom_site_type_symbol
_atom_site_label
_atom_site_fract_x
_atom_site_fract_y
_atom_site_fract_z
Si Si1 0.315774 0.650922 0.442409
Si Si2 0.409047 0.493760 0.831127
Si Si3 0.780621 0.302986 0.205619
Si Si4 0.254016 0.027251 0.889800
Si Si5 0.860675 0.689179 0.514747
Si Si6 0.005954 0.809583 0.489903
O O1 0.352766 0.531903 0.417613
O O2 0.277912 0.706439 0.303741
O O3 0.245743 0.876061 0.484841
O O4 0.402713 0.717429 0.513970
O O5 0.342886 0.490937 0.688019
O O6 0.455792 0.610836 0.870527
O O7 0.474181 0.391993 0.885676
O O8 0.783280 0.415162 0.283649
O O9 0.698825 0.282869 0.079607
O O10 0.856578 0.294753 0.154531
O O11 0.314469 0.927944 0.961989
O O12 0.950550 0.707836 0.504814
#
# Coordination Sequence:
#
# PCOD9289176 Si02
#       6
#     8   8   8   8   8   8
#     4  10  22  40  61  94 129 170 216 273 331 393
#     4   9  19  37  61  95 130 159 220 263 333 386
#     4  11  24  40  62  94 131 177 217 274 334 404
#     4  12  22  40  68  98 132 171 224 276 330 401
#     4  11  23  39  65  92 138 172 223 272 334 400
#     4   9  20  40  59  97 128 169 213 270 336 385
#
# _framework density 22.438984000000001
#
# number of rings (size 3 to 8) (size 9 to 14) (size 15 to 20)
#    1.000    0.667    3.333    1.500    2.333    1.333 
#    6.000    0.833    0.000    0.000    0.000    0.000 
#    0.000    0.000    0.000    0.000    0.000    0.000 
#
# Total GULP energy -133823.400508 kJ/mol
# GULP energy per Si atom -5575.975021 kJ/mol
# Density = 2.238791 g / cm^3
# Si number density = 22.438984 Si / 1000 Ang^3
#
#
#
# Elastic Constant Matrix: (Units=GPa)
#
#
# Indices 1 2 3 4 5 6 
#
# 1 104.2446 44.6581 37.3162 0.0000 -5.9585 0.0000
# 2 44.6581 82.7566 41.2491 0.0000 -3.6309 0.0000
# 3 37.3162 41.2491 84.2890 0.0000 -10.2611 0.0000
# 4 0.0000 0.0000 0.0000 32.8770 0.0000 0.0260
# 5 -5.9585 -3.6309 -10.2611 0.0000 27.1323 0.0000
# 6 0.0000 0.0000 0.0000 0.0260 0.0000 37.6896
#
#
#
# Elastic Compliance Matrix: (Units=1/GPa)
#
#
# Indices 1 2 3 4 5 6 
#
# 1 0.013083 -0.005542 -0.002957 0.000000 0.001013 0.000000
# 2 -0.005542 0.018349 -0.006683 0.000000 -0.001289 0.000000
# 3 -0.002957 -0.006683 0.017040 0.000000 0.004901 0.000000
# 4 0.000000 0.000000 0.000000 0.030416 0.000000 -0.000021
# 5 0.001013 -0.001289 0.004901 0.000000 0.038760 0.000000
# 6 0.000000 0.000000 0.000000 -0.000021 0.000000 0.026533
#
#
# Mechanical properties :
#
#
# Convention : Reuss Voigt Hill
#
# Bulk Modulus (GPa) = 55.22141 57.52634 56.37388
# Shear Modulus (GPa) = 27.68852 29.41088 28.54970
#
# Velocity S-wave (km/s) = 3.51657 3.62429 3.57084
# Velocity P-wave (km/s) = 6.41493 6.57316 6.49453
#
# Compressibility (1/GPa) = 0.01810892
#
# Stress axis : x y z
#
# Youngs Moduli (GPa) = 76.43314 54.49982 58.68555
#
# Poissons Ratio (x) = 0.30204 0.17352
# Poissons Ratio (y) = 0.42359 0.39218
# Poissons Ratio (z) = 0.22599 0.36421
#
# Static dielectric constant tensor:
#      x y z
#    x 1.887540 0.000000 0.015810 
#    y 0.000000 1.891740 0.000000 
#    z 0.015810 0.000000 1.869410 
# 
# From -- ./inp_files/218897.got.cif
#   From: 2010.05.17/outbox.cif.g08.bks.cpg/sg15_110_cif.got.tgz:218897.got - 2010.06.03 18:47:42.
