data_PCOD9289570
_publ_section_title
;
Structure prediction by ZEFSAII (Michael W. Deem and Ramdas Pophale) SiO2 
 PCOD9289570
Probable space group: C 2/C
;
_chemical_formula_sum "Si O2"
_cell_formula_units_Z 60
_cell_length_a 24.948687
_cell_length_b 20.869992
_cell_length_c 13.301220
_cell_angle_alpha 90.000000
_cell_angle_beta 157.128082
_cell_angle_gamma 90.000000
_cell_volume 2691.814733
_symmetry_space_group_name_H-M "C 2/C"
_symmetry_group_IT_number 15
_symmetry_cell_setting 'monoclinic'
loop_
_space_group_symop_operation_xyz
x,y,z
-x,y,1/2-z
-x,-y,-z
x,-y,1/2+z
1/2+x,1/2+y,z
1/2-x,1/2+y,1/2-z
1/2-x,1/2-y,-z
1/2+x,1/2-y,1/2+z
loop_
_atom_site_type_symbol
_atom_site_label
_atom_site_fract_x
_atom_site_fract_y
_atom_site_fract_z
Si Si1 0.000000 0.783144 0.750000
Si Si2 0.855052 0.017017 0.468597
Si Si3 0.412132 0.109867 0.859575
Si Si4 0.212755 0.880618 0.185986
Si Si5 0.796494 0.443325 0.607691
Si Si6 0.085550 0.748433 0.691527
Si Si7 0.325270 0.314688 0.170942
Si Si8 0.648165 0.050302 0.949984
O O1 0.009216 0.741797 0.666820
O O2 0.870720 0.831177 0.528688
O O3 0.777152 0.011039 0.440211
O O4 0.874807 0.946089 0.454506
O O5 0.764450 0.058505 0.235664
O O6 0.000000 0.045762 0.750000
O O7 0.344028 0.096756 0.849875
O O8 0.440682 0.184865 0.915495
O O9 0.338598 0.096188 0.625020
O O10 0.552453 0.071688 0.091409
O O11 0.232988 0.839811 0.321669
O O12 0.711830 0.377179 0.458091
O O13 0.821713 0.480160 0.546715
O O14 0.990019 0.802729 0.473238
O O15 0.250000 0.750000 0.000000
O O16 0.250000 0.250000 0.000000
O O17 0.500000 0.054041 0.750000
#
# Coordination Sequence:
#
# PCOD9289570 Si02
#       8
#     4   8   8   8   8   8   8   8
#     4  10  22  40  66 100 130 184 234 294 348 442
#     4  12  26  45  68 108 144 198 242 309 379 438
#     4  12  24  43  72 107 140 189 243 303 370 442
#     4  11  22  43  72 100 142 185 247 297 365 450
#     4  12  25  45  72 104 150 183 254 304 364 459
#     4  11  24  43  68  98 136 179 241 290 362 431
#     4  11  25  47  70 103 143 193 238 304 376 435
#     4  12  25  44  72 108 148 193 243 307 379 443
#
# _framework density 22.289795000000002
#
# number of rings (size 3 to 8) (size 9 to 14) (size 15 to 20)
#    0.000    0.533    7.333    1.200    0.933    1.600 
#    0.000    1.333    0.000    0.000    0.000    0.000 
#    0.000    0.000    0.000    0.000    0.000    0.000 
#
# Total GULP energy -167252.439715 kJ/mol
# GULP energy per Si atom -5575.081324 kJ/mol
# Density = 2.223906 g / cm^3
# Si number density = 22.289795 Si / 1000 Ang^3
#
#
#
# Elastic Constant Matrix: (Units=GPa)
#
#
# Indices 1 2 3 4 5 6 
#
# 1 87.7477 16.1847 39.5286 0.0000 -4.8278 0.0000
# 2 16.1847 85.4986 13.3414 0.0000 -0.3466 0.0000
# 3 39.5286 13.3414 121.5838 0.0000 -3.2025 0.0000
# 4 0.0000 0.0000 0.0000 13.2675 0.0000 -6.2498
# 5 -4.8278 -0.3466 -3.2025 0.0000 32.8935 0.0000
# 6 0.0000 0.0000 0.0000 -6.2498 0.0000 41.2079
#
#
#
# Elastic Compliance Matrix: (Units=1/GPa)
#
#
# Indices 1 2 3 4 5 6 
#
# 1 0.013738 -0.001937 -0.004212 0.000000 0.001586 0.000000
# 2 -0.001937 0.012173 -0.000712 0.000000 -0.000225 0.000000
# 3 -0.004212 -0.000712 0.009681 0.000000 0.000317 0.000000
# 4 0.000000 0.000000 0.000000 0.081172 0.000000 0.012311
# 5 0.001586 -0.000225 0.000317 0.000000 0.030662 0.000000
# 6 0.000000 0.000000 0.000000 0.012311 0.000000 0.026134
#
#
# Mechanical properties :
#
#
# Convention : Reuss Voigt Hill
#
# Bulk Modulus (GPa) = 45.72517 48.10438 46.91478
# Shear Modulus (GPa) = 25.69737 32.52547 29.11142
#
# Velocity S-wave (km/s) = 3.39909 3.82410 3.61784
# Velocity P-wave (km/s) = 5.99696 6.41300 6.20847
#
# Compressibility (1/GPa) = 0.02186979
#
# Stress axis : x y z
#
# Youngs Moduli (GPa) = 72.78900 82.14946 103.29839
#
# Poissons Ratio (x) = 0.15912 0.43511
# Poissons Ratio (y) = 0.14099 0.07354
# Poissons Ratio (z) = 0.30660 0.05849
#
# Static dielectric constant tensor:
#      x y z
#    x 1.905230 0.000000 0.056280 
#    y 0.000000 1.832410 0.000000 
#    z 0.056280 0.000000 1.925910 
# 
# From -- ./inp_files/179121.got.cif
#   From: 2010.05.17/outbox.cif.g08.bks.cpg/sg15_90_cif.got.tgz:179121.got - 2010.06.03 18:47:42.
