data_PCOD9289256
_publ_section_title
;
Structure prediction by ZEFSAII (Michael W. Deem and Ramdas Pophale) SiO2 
 PCOD9289256
Probable space group: C 2/C
;
_chemical_formula_sum "Si O2"
_cell_formula_units_Z 32
_cell_length_a 19.323657
_cell_length_b 7.156496
_cell_length_c 12.353317
_cell_angle_alpha 90.000000
_cell_angle_beta 132.745269
_cell_angle_gamma 90.000000
_cell_volume 1254.565459
_symmetry_space_group_name_H-M "C 2/C"
_symmetry_group_IT_number 15
_symmetry_cell_setting 'monoclinic'
loop_
_space_group_symop_operation_xyz
x,y,z
-x,y,1/2-z
-x,-y,-z
x,-y,1/2+z
1/2+x,1/2+y,z
1/2-x,1/2+y,1/2-z
1/2-x,1/2-y,-z
1/2+x,1/2-y,1/2+z
loop_
_atom_site_type_symbol
_atom_site_label
_atom_site_fract_x
_atom_site_fract_y
_atom_site_fract_z
Si Si1 0.594711 0.888984 0.900666
Si Si2 0.348720 0.593076 0.364534
Si Si3 0.925248 0.201736 0.077348
Si Si4 0.212292 0.605308 0.848270
O O1 0.500000 0.807317 0.750000
O O2 0.563193 0.078002 0.929629
O O3 0.661523 0.966452 0.876318
O O4 0.637935 0.732389 0.020869
O O5 0.419812 0.421828 0.462890
O O6 0.244906 0.505806 0.273455
O O7 0.349559 0.720901 0.260111
O O8 0.000000 0.149422 0.250000
O O9 0.815880 0.171206 0.998953
#
# Coordination Sequence:
#
# PCOD9289256 Si02
#       4
#     8   8   8   8
#     4  11  22  41  65  94 130 170 214 260 320 380
#     4  10  22  40  62  95 129 165 215 262 319 376
#     4   9  21  39  63  92 126 165 209 260 317 378
#     4  10  22  40  67  93 131 165 212 268 315 381
#
# _framework density 25.506837000000001
#
# number of rings (size 3 to 8) (size 9 to 14) (size 15 to 20)
#    1.500    0.500    0.000    3.750    0.000    1.000 
#    0.000    5.000    0.000    0.000    0.000    0.000 
#    0.000    0.000    0.000    0.000    0.000    0.000 
#
# Total GULP energy -89349.397155 kJ/mol
# GULP energy per Si atom -5584.337322 kJ/mol
# Density = 2.544878 g / cm^3
# Si number density = 25.506837 Si / 1000 Ang^3
#
#
#
# Elastic Constant Matrix: (Units=GPa)
#
#
# Indices 1 2 3 4 5 6 
#
# 1 46.1136 -17.8061 -13.4126 0.0000 7.8650 0.0000
# 2 -17.8061 97.1671 17.7505 0.0000 -9.1800 0.0000
# 3 -13.4126 17.7505 124.1530 0.0000 10.1462 0.0000
# 4 0.0000 0.0000 0.0000 -13.6040 0.0000 -63.3415
# 5 7.8650 -9.1800 10.1462 0.0000 29.3417 0.0000
# 6 0.0000 0.0000 0.0000 -63.3415 0.0000 -12.3325
#
#
#
# Elastic Compliance Matrix: (Units=1/GPa)
#
#
# Indices 1 2 3 4 5 6 
#
# 1 0.024930 0.003450 0.002735 0.000000 -0.006549 0.000000
# 2 0.003450 0.011507 -0.001534 0.000000 0.003206 0.000000
# 3 0.002735 -0.001534 0.008921 0.000000 -0.004298 0.000000
# 4 0.000000 0.000000 0.000000 0.003208 0.000000 -0.016476
# 5 -0.006549 0.003206 -0.004298 0.000000 0.038326 0.000000
# 6 0.000000 0.000000 0.000000 -0.016476 0.000000 0.003539
#
#
# Mechanical properties :
#
#
# Convention : Reuss Voigt Hill
#
# Bulk Modulus (GPa) = 18.29495 26.72191 22.50843
# Shear Modulus (GPa) = 50.32778 19.40782 34.86780
#
# Velocity S-wave (km/s) = 4.44679 2.76141 3.70131
# Velocity P-wave (km/s) = 5.79253 4.54602 5.20671
#
# Compressibility (1/GPa) = 0.05465990
#
# Stress axis : x y z
#
# Youngs Moduli (GPa) = 40.11175 86.90363 112.09883
#
# Poissons Ratio (x) = -0.29983 -0.30661
# Poissons Ratio (y) = -0.13839 0.17201
# Poissons Ratio (z) = -0.10971 0.13335
#
# Static dielectric constant tensor:
#      x y z
#    x 2.145530 0.000000 -0.058750 
#    y 0.000000 2.029110 0.000000 
#    z -0.058750 0.000000 2.012350 
# 
# From -- ./inp_files/158516.got.cif
#   From: 2010.05.17/outbox.cif.g08.bks.cpg/sg15_80_cif.got.tgz:158516.got - 2010.06.03 18:47:42.
