data_PCOD9289170
_publ_section_title
;
Structure prediction by ZEFSAII (Michael W. Deem and Ramdas Pophale) SiO2 
 PCOD9289170
Probable space group: C 2/C
;
_chemical_formula_sum "Si O2"
_cell_formula_units_Z 48
_cell_length_a 12.704867
_cell_length_b 13.368436
_cell_length_c 22.312336
_cell_angle_alpha 90.000000
_cell_angle_beta 145.277297
_cell_angle_gamma 90.000000
_cell_volume 2158.587942
_symmetry_space_group_name_H-M "C 2/C"
_symmetry_group_IT_number 15
_symmetry_cell_setting 'monoclinic'
loop_
_space_group_symop_operation_xyz
x,y,z
-x,y,1/2-z
-x,-y,-z
x,-y,1/2+z
1/2+x,1/2+y,z
1/2-x,1/2+y,1/2-z
1/2-x,1/2-y,-z
1/2+x,1/2-y,1/2+z
loop_
_atom_site_type_symbol
_atom_site_label
_atom_site_fract_x
_atom_site_fract_y
_atom_site_fract_z
Si Si1 0.241972 0.785490 0.231257
Si Si2 0.930893 0.337518 0.651759
Si Si3 0.801214 0.509615 0.253959
Si Si4 0.425088 0.609395 0.453985
Si Si5 0.603710 0.215654 0.981281
Si Si6 0.296595 0.397185 0.671226
O O1 0.403017 0.797720 0.357151
O O2 0.314993 0.707896 0.215855
O O3 0.046821 0.736923 0.162797
O O4 0.232933 0.899916 0.205368
O O5 0.711959 0.346761 0.559270
O O6 0.000000 0.307934 0.750000
O O7 0.994709 0.452112 0.667833
O O8 0.683854 0.589861 0.160137
O O9 0.782281 0.528631 0.315686
O O10 0.500000 0.500000 0.500000
O O11 0.578646 0.690804 0.513603
O O12 0.750000 0.250000 0.000000
O O13 0.676986 0.124259 0.055980
O O14 0.500000 0.432704 0.750000
#
# Coordination Sequence:
#
# PCOD9289170 Si02
#       6
#     8   8   8   8   8   8
#     4  11  22  41  67  92 129 173 209 273 335 388
#     4   9  19  41  62  86 133 166 208 273 321 387
#     4  10  22  40  61  93 129 166 212 267 336 381
#     4  11  22  41  68  96 127 173 224 270 322 396
#     4  12  23  40  66  94 128 169 224 266 329 397
#     4  11  22  42  62  90 130 169 214 276 321 392
#
# _framework density 22.23676
#
# number of rings (size 3 to 8) (size 9 to 14) (size 15 to 20)
#    0.000    1.333    6.667    1.000    2.333    3.333 
#    0.000    7.500    0.000    0.000    0.000    0.000 
#    0.000    0.000    0.000    0.000    0.000    0.000 
#
# Total GULP energy -133805.691701 kJ/mol
# GULP energy per Si atom -5575.237154 kJ/mol
# Density = 2.218615 g / cm^3
# Si number density = 22.236760 Si / 1000 Ang^3
#
#
#
# Elastic Constant Matrix: (Units=GPa)
#
#
# Indices 1 2 3 4 5 6 
#
# 1 116.3150 7.1289 14.6392 0.0000 25.3883 0.0000
# 2 7.1289 70.1432 2.1424 0.0000 19.7953 0.0000
# 3 14.6392 2.1424 85.3638 -0.0001 -5.3540 0.0000
# 4 0.0000 0.0000 -0.0001 35.5707 0.0000 -5.7166
# 5 25.3883 19.7953 -5.3540 0.0000 28.4663 0.0000
# 6 0.0000 0.0000 0.0000 -5.7166 0.0000 18.8607
#
#
#
# Elastic Compliance Matrix: (Units=1/GPa)
#
#
# Indices 1 2 3 4 5 6 
#
# 1 0.011536 0.002448 -0.002825 0.000000 -0.012522 0.000000
# 2 0.002448 0.018386 -0.001842 0.000000 -0.015315 0.000000
# 3 -0.002825 -0.001842 0.012633 0.000000 0.006176 0.000000
# 4 0.000000 0.000000 0.000000 0.029553 0.000000 0.008957
# 5 -0.012522 -0.015315 0.006176 0.000000 0.058109 0.000000
# 6 0.000000 0.000000 0.000000 0.008957 0.000000 0.055735
#
#
# Mechanical properties :
#
#
# Convention : Reuss Voigt Hill
#
# Bulk Modulus (GPa) = 26.23524 35.51588 30.87556
# Shear Modulus (GPa) = 24.61888 33.10697 28.86293
#
# Velocity S-wave (km/s) = 3.33096 3.86273 3.60666
# Velocity P-wave (km/s) = 5.15921 5.99172 5.59098
#
# Compressibility (1/GPa) = 0.03811667
#
# Stress axis : x y z
#
# Youngs Moduli (GPa) = 86.68392 54.38872 79.15983
#
# Poissons Ratio (x) = -0.13313 0.22364
# Poissons Ratio (y) = -0.21218 0.14580
# Poissons Ratio (z) = 0.24490 0.10017
#
# Static dielectric constant tensor:
#      x y z
#    x 1.800550 0.000000 -0.006950 
#    y 0.000000 1.835170 0.000000 
#    z -0.006950 0.000000 2.003850 
# 
# From -- ./inp_files/239007.got.cif
#   From: 2010.05.17/outbox.cif.g08.bks.cpg/sg15_120_cif.got.tgz:239007.got - 2010.06.03 18:47:42.
