data_PCOD9289880
_publ_section_title
;
Structure prediction by ZEFSAII (Michael W. Deem and Ramdas Pophale) SiO2 
 PCOD9289880
Probable space group: C 2/C
;
_chemical_formula_sum "Si O2"
_cell_formula_units_Z 60
_cell_length_a 20.374317
_cell_length_b 27.171541
_cell_length_c 14.582856
_cell_angle_alpha 90.000000
_cell_angle_beta 20.522798
_cell_angle_gamma 90.000000
_cell_volume 2830.265134
_symmetry_space_group_name_H-M "C 2/C"
_symmetry_group_IT_number 15
_symmetry_cell_setting 'monoclinic'
loop_
_space_group_symop_operation_xyz
x,y,z
-x,y,1/2-z
-x,-y,-z
x,-y,1/2+z
1/2+x,1/2+y,z
1/2-x,1/2+y,1/2-z
1/2-x,1/2-y,-z
1/2+x,1/2-y,1/2+z
loop_
_atom_site_type_symbol
_atom_site_label
_atom_site_fract_x
_atom_site_fract_y
_atom_site_fract_z
Si Si1 0.143254 0.100186 0.144352
Si Si2 0.961933 0.472479 0.957401
Si Si3 0.828360 0.292852 0.831266
Si Si4 0.783931 0.246637 0.215460
Si Si5 0.304480 0.898137 0.948695
Si Si6 0.419330 0.444286 0.097624
Si Si7 0.500000 0.047044 0.750000
Si Si8 0.883153 0.210382 0.277155
O O1 0.155187 0.158750 0.125332
O O2 0.000000 0.083449 0.250000
O O3 0.060017 0.086799 0.352699
O O4 0.350124 0.076838 0.884731
O O5 0.914351 0.509693 0.936533
O O6 0.139458 0.439585 0.698191
O O7 0.772223 0.441970 0.210994
O O8 0.000000 0.500000 0.000000
O O9 0.752853 0.283800 0.828214
O O10 0.772026 0.345296 0.946238
O O11 0.051712 0.284859 0.526640
O O12 0.750000 0.250000 0.000000
O O13 0.841367 0.211172 0.223207
O O14 0.600041 0.274098 0.493300
O O15 0.500000 0.893603 0.750000
O O16 0.141021 0.919110 0.227607
O O17 0.500000 0.500000 0.000000
O O18 0.750000 0.250000 0.500000
#
# Coordination Sequence:
#
# PCOD9289880 Si02
#       8
#     8   8   8   8   8   8   4   8
#     4  12  27  44  74 105 141 191 248 295 375 434
#     4  11  22  43  70  98 137 183 238 295 363 429
#     4  11  23  42  65 103 140 177 234 290 351 438
#     4  10  24  42  69  92 143 181 228 294 357 410
#     4  10  22  40  69  94 136 184 228 284 369 424
#     4  11  22  44  69  95 139 180 230 299 360 428
#     4  12  24  48  68 104 146 180 238 316 352 438
#     4  11  25  47  68 100 140 185 240 295 355 438
#
# _framework density 21.199428999999999
#
# number of rings (size 3 to 8) (size 9 to 14) (size 15 to 20)
#    0.000    1.067    3.333    3.200    9.333    1.067 
#    2.400    0.000    0.000    0.000    0.000    0.000 
#    0.000    0.000    0.000    0.000    0.000    0.000 
#
# Total GULP energy -167518.335847 kJ/mol
# GULP energy per Si atom -5583.944528 kJ/mol
# Density = 2.115118 g / cm^3
# Si number density = 21.199429 Si / 1000 Ang^3
#
#
#
# Elastic Constant Matrix: (Units=GPa)
#
#
# Indices 1 2 3 4 5 6 
#
# 1 87.8149 38.0696 13.9102 -0.2206 6.3224 0.0988
# 2 38.0696 117.4192 35.1336 -0.1646 11.7585 0.0836
# 3 13.9102 35.1336 109.1790 -0.1943 8.5856 0.0738
# 4 -0.2206 -0.1646 -0.1943 27.5775 -0.1746 12.5813
# 5 6.3224 11.7585 8.5856 -0.1746 33.6877 0.0510
# 6 0.0988 0.0836 0.0738 12.5813 0.0510 23.2068
#
#
#
# Elastic Compliance Matrix: (Units=1/GPa)
#
#
# Indices 1 2 3 4 5 6 
#
# 1 0.013293 -0.004125 -0.000289 0.000121 -0.000981 -0.000104
# 2 -0.004125 0.010927 -0.002808 0.000002 -0.002324 -0.000009
# 3 -0.000289 -0.002808 0.010223 0.000068 -0.001571 -0.000055
# 4 0.000121 0.000002 0.000068 0.048182 0.000249 -0.026123
# 5 -0.000981 -0.002324 -0.001571 0.000249 0.031082 -0.000185
# 6 -0.000104 -0.000009 -0.000055 -0.026123 -0.000185 0.057254
#
#
# Mechanical properties :
#
#
# Convention : Reuss Voigt Hill
#
# Bulk Modulus (GPa) = 50.00116 54.29332 52.14724
# Shear Modulus (GPa) = 26.03219 32.04771 29.03995
#
# Velocity S-wave (km/s) = 3.50804 3.89231 3.70516
# Velocity P-wave (km/s) = 6.32817 6.77248 6.55409
#
# Compressibility (1/GPa) = 0.01999954
#
# Stress axis : x y z
#
# Youngs Moduli (GPa) = 75.22997 91.51833 97.81551
#
# Poissons Ratio (x) = 0.37750 0.02825
# Poissons Ratio (y) = 0.31031 0.27466
# Poissons Ratio (z) = 0.02173 0.25697
#
# Static dielectric constant tensor:
#      x y z
#    x 1.835740 0.000830 -0.054300 
#    y 0.000830 1.766610 0.000120 
#    z -0.054300 0.000120 1.827190 
# 
# From -- ./inp_files/169925.got.cif
#   From: 2010.05.17/outbox.cif.g08.bks.cpg/sg15_85_cif.got.tgz:169925.got - 2010.06.03 18:47:42.
