data_PCOD9289381
_publ_section_title
;
Structure prediction by ZEFSAII (Michael W. Deem and Ramdas Pophale) SiO2 
 PCOD9289381
Probable space group: C 2/C
;
_chemical_formula_sum "Si O2"
_cell_formula_units_Z 32
_cell_length_a 27.601968
_cell_length_b 4.927482
_cell_length_c 14.070019
_cell_angle_alpha 90.000000
_cell_angle_beta 138.333145
_cell_angle_gamma 90.000000
_cell_volume 1272.183306
_symmetry_space_group_name_H-M "C 2/C"
_symmetry_group_IT_number 15
_symmetry_cell_setting 'monoclinic'
loop_
_space_group_symop_operation_xyz
x,y,z
-x,y,1/2-z
-x,-y,-z
x,-y,1/2+z
1/2+x,1/2+y,z
1/2-x,1/2+y,1/2-z
1/2-x,1/2-y,-z
1/2+x,1/2-y,1/2+z
loop_
_atom_site_type_symbol
_atom_site_label
_atom_site_fract_x
_atom_site_fract_y
_atom_site_fract_z
Si Si1 0.916111 0.100381 0.016559
Si Si2 0.219737 0.761075 0.657281
Si Si3 0.086851 0.885867 0.774461
Si Si4 0.849447 0.624385 0.231906
O O1 0.907455 0.224133 0.109659
O O2 0.001841 0.054828 0.130115
O O3 0.888346 0.266218 0.885106
O O4 0.864135 0.836569 0.951307
O O5 0.240956 0.449811 0.704261
O O6 0.263837 0.865285 0.630180
O O7 0.120916 0.667079 0.753617
O O8 0.127724 0.166541 0.816001
#
# Coordination Sequence:
#
# PCOD9289381 Si02
#       4
#     8   8   8   8
#     4  10  24  43  64  93 131 160 207 262 306 368
#     4  10  22  40  64  90 124 168 205 253 312 362
#     4  11  25  40  66  96 122 167 208 252 315 368
#     4  11  23  42  64  92 127 165 208 253 309 371
#
# _framework density 25.153607999999998
#
# number of rings (size 3 to 8) (size 9 to 14) (size 15 to 20)
#    0.000    1.500    0.000    4.500    0.000   16.000 
#    0.000    0.000    0.000    0.000    0.000    0.000 
#    0.000    0.000    0.000    0.000    0.000    0.000 
#
# Total GULP energy -89540.527046 kJ/mol
# GULP energy per Si atom -5596.282940 kJ/mol
# Density = 2.509636 g / cm^3
# Si number density = 25.153608 Si / 1000 Ang^3
#
#
#
# Elastic Constant Matrix: (Units=GPa)
#
#
# Indices 1 2 3 4 5 6 
#
# 1 127.4212 20.0744 20.9173 -0.0001 12.5784 -0.0001
# 2 20.0744 78.7971 3.7499 0.0003 16.2993 -0.0002
# 3 20.9173 3.7499 121.2327 -0.0001 8.4265 -0.0002
# 4 -0.0001 0.0003 -0.0001 13.2276 0.0005 -2.3059
# 5 12.5784 16.2993 8.4265 0.0005 36.7902 -0.0001
# 6 -0.0001 -0.0002 -0.0002 -2.3059 -0.0001 49.2231
#
#
#
# Elastic Compliance Matrix: (Units=1/GPa)
#
#
# Indices 1 2 3 4 5 6 
#
# 1 0.008514 -0.001725 -0.001287 0.000000 -0.001852 0.000000
# 2 -0.001725 0.014321 0.000259 0.000000 -0.005814 0.000000
# 3 -0.001287 0.000259 0.008577 0.000000 -0.001639 0.000000
# 4 0.000000 0.000000 0.000000 0.076222 -0.000001 0.003571
# 5 -0.001852 -0.005814 -0.001639 -0.000001 0.030766 0.000000
# 6 0.000000 0.000000 0.000000 0.003571 0.000000 0.020483
#
#
# Mechanical properties :
#
#
# Convention : Reuss Voigt Hill
#
# Bulk Modulus (GPa) = 38.60219 46.32603 42.46411
# Shear Modulus (GPa) = 28.89806 38.69547 33.79677
#
# Velocity S-wave (km/s) = 3.39317 3.92646 3.66951
# Velocity P-wave (km/s) = 5.54358 6.24606 5.90528
#
# Compressibility (1/GPa) = 0.02590527
#
# Stress axis : x y z
#
# Youngs Moduli (GPa) = 117.45677 69.82981 116.59689
#
# Poissons Ratio (x) = 0.12043 0.15005
# Poissons Ratio (y) = 0.20257 -0.03017
# Poissons Ratio (z) = 0.15115 -0.01807
#
# Static dielectric constant tensor:
#      x y z
#    x 1.976430 0.000000 -0.035970 
#    y 0.000000 1.928850 0.000000 
#    z -0.035970 0.000000 2.038320 
# 
# From -- ./inp_files/164785.got.cif
#   From: 2010.05.17/outbox.cif.g08.bks.cpg/sg15_83_cif.got.tgz:164785.got - 2010.06.03 18:47:42.
