data_PCOD9289311
_publ_section_title
;
Structure prediction by ZEFSAII (Michael W. Deem and Ramdas Pophale) SiO2 
 PCOD9289311
Probable space group: C 2/C
;
_chemical_formula_sum "Si O2"
_cell_formula_units_Z 40
_cell_length_a 8.234470
_cell_length_b 20.652905
_cell_length_c 14.293187
_cell_angle_alpha 90.000000
_cell_angle_beta 48.706072
_cell_angle_gamma 90.000000
_cell_volume 1826.328767
_symmetry_space_group_name_H-M "C 2/C"
_symmetry_group_IT_number 15
_symmetry_cell_setting 'monoclinic'
loop_
_space_group_symop_operation_xyz
x,y,z
-x,y,1/2-z
-x,-y,-z
x,-y,1/2+z
1/2+x,1/2+y,z
1/2-x,1/2+y,1/2-z
1/2-x,1/2-y,-z
1/2+x,1/2-y,1/2+z
loop_
_atom_site_type_symbol
_atom_site_label
_atom_site_fract_x
_atom_site_fract_y
_atom_site_fract_z
Si Si1 0.048325 0.939771 0.413831
Si Si2 0.500000 0.114549 0.250000
Si Si3 0.450539 0.320875 0.586457
Si Si4 0.888338 0.440254 0.991132
Si Si5 0.500000 0.887552 0.250000
Si Si6 0.903453 0.322475 0.482600
O O1 0.001014 0.873057 0.486770
O O2 0.299150 0.932438 0.296096
O O3 0.870077 0.945701 0.401673
O O4 0.000000 0.000000 0.500000
O O5 0.560844 0.069562 0.138431
O O6 0.703635 0.160034 0.203086
O O7 0.642302 0.327438 0.590813
O O8 0.495399 0.247682 0.536415
O O9 0.000000 0.500000 0.000000
O O10 0.978160 0.375456 0.002049
O O11 0.446517 0.842185 0.358374
#
# Coordination Sequence:
#
# PCOD9289311 Si02
#       6
#     8   4   8   8   4   8
#     4  10  22  41  62  90 125 161 205 258 309 366
#     4  10  24  41  64  92 128 167 206 260 320 369
#     4   9  21  40  63  92 129 165 208 259 306 370
#     4  11  24  42  65  94 125 163 212 261 311 374
#     4  10  22  41  64  88 128 167 202 254 312 367
#     4  10  22  40  63  93 127 166 211 255 306 369
#
# _framework density 21.901861
#
# number of rings (size 3 to 8) (size 9 to 14) (size 15 to 20)
#    0.000    2.000    0.000    2.400    0.000   18.400 
#    0.000    4.000    0.000    0.000    0.000    0.000 
#    0.000    0.000    0.000    0.000    0.000    0.000 
#
# Total GULP energy -111641.867635 kJ/mol
# GULP energy per Si atom -5582.093382 kJ/mol
# Density = 2.185201 g / cm^3
# Si number density = 21.901861 Si / 1000 Ang^3
#
#
#
# Elastic Constant Matrix: (Units=GPa)
#
#
# Indices 1 2 3 4 5 6 
#
# 1 165.9873 91.6348 47.8809 0.0000 -43.3057 0.0000
# 2 91.6348 160.0442 32.4762 0.0000 -13.2916 0.0000
# 3 47.8809 32.4762 80.2608 0.0000 -13.2986 0.0000
# 4 0.0000 0.0000 0.0000 23.8069 0.0000 -3.3517
# 5 -43.3057 -13.2916 -13.2986 0.0000 54.9474 0.0000
# 6 0.0000 0.0000 0.0000 -3.3517 0.0000 46.1577
#
#
#
# Elastic Compliance Matrix: (Units=1/GPa)
#
#
# Indices 1 2 3 4 5 6 
#
# 1 0.012058 -0.005540 -0.003749 0.000000 0.007255 0.000000
# 2 -0.005540 0.009408 -0.000884 0.000000 -0.002305 0.000000
# 3 -0.003749 -0.000884 0.015135 0.000000 0.000495 0.000000
# 4 0.000000 0.000000 0.000000 0.042439 0.000000 0.003082
# 5 0.007255 -0.002305 0.000495 0.000000 0.023480 0.000000
# 6 0.000000 0.000000 0.000000 0.003082 0.000000 0.021889
#
#
# Mechanical properties :
#
#
# Convention : Reuss Voigt Hill
#
# Bulk Modulus (GPa) = 61.51875 83.36398 72.44136
# Shear Modulus (GPa) = 33.29499 40.60241 36.94870
#
# Velocity S-wave (km/s) = 3.90319 4.31029 4.11178
# Velocity P-wave (km/s) = 6.96150 7.93200 7.46254
#
# Compressibility (1/GPa) = 0.01625521
#
# Stress axis : x y z
#
# Youngs Moduli (GPa) = 82.93575 106.28857 66.06984
#
# Poissons Ratio (x) = 0.58887 0.24771
# Poissons Ratio (y) = 0.45949 0.05838
# Poissons Ratio (z) = 0.31094 0.09392
#
# Static dielectric constant tensor:
#      x y z
#    x 1.844840 0.000000 -0.050660 
#    y 0.000000 1.749450 0.000000 
#    z -0.050660 0.000000 1.880840 
# 
# From -- ./inp_files/135792.got.cif
#   From: 2010.05.17/outbox.cif.g08.bks.cpg/sg15_68_cif.got.tgz:135792.got - 2010.06.03 18:47:42.
