data_PCOD9289307
_publ_section_title
;
Structure prediction by ZEFSAII (Michael W. Deem and Ramdas Pophale) SiO2 
 PCOD9289307
Probable space group: C 2/C
;
_chemical_formula_sum "Si O2"
_cell_formula_units_Z 52
_cell_length_a 13.897514
_cell_length_b 13.254137
_cell_length_c 13.475201
_cell_angle_alpha 90.000000
_cell_angle_beta 110.461636
_cell_angle_gamma 90.000000
_cell_volume 2325.519930
_symmetry_space_group_name_H-M "C 2/C"
_symmetry_group_IT_number 15
_symmetry_cell_setting 'monoclinic'
loop_
_space_group_symop_operation_xyz
x,y,z
-x,y,1/2-z
-x,-y,-z
x,-y,1/2+z
1/2+x,1/2+y,z
1/2-x,1/2+y,1/2-z
1/2-x,1/2-y,-z
1/2+x,1/2-y,1/2+z
loop_
_atom_site_type_symbol
_atom_site_label
_atom_site_fract_x
_atom_site_fract_y
_atom_site_fract_z
Si Si1 0.953078 0.703711 0.844204
Si Si2 0.777434 0.862597 0.854269
Si Si3 0.649593 0.709143 0.744271
Si Si4 0.304447 0.027614 0.831146
Si Si5 0.327100 0.491243 0.544330
Si Si6 0.849048 0.224328 0.972311
Si Si7 0.000000 0.062125 0.750000
O O1 0.865168 0.789532 0.836755
O O2 0.908825 0.589736 0.846426
O O3 0.000000 0.712847 0.750000
O O4 0.047855 0.726801 0.950204
O O5 0.674833 0.794360 0.833334
O O6 0.736740 0.951355 0.767433
O O7 0.818514 0.912238 0.969779
O O8 0.726599 0.621097 0.799607
O O9 0.672125 0.756738 0.646931
O O10 0.547172 0.645335 0.692791
O O11 0.279040 0.981526 0.930667
O O12 0.352825 0.396733 0.484497
O O13 0.418467 0.498586 0.658626
O O14 0.750000 0.250000 0.000000
#
# Coordination Sequence:
#
# PCOD9289307 Si02
#       7
#     8   8   8   8   8   8   4
#     4  11  25  41  70  98 138 185 229 285 353 407
#     4  11  23  44  69  97 135 186 229 283 346 409
#     4  10  22  40  63  92 136 169 225 288 334 406
#     4  10  22  44  63  99 137 173 231 281 340 418
#     4  11  24  41  73  96 137 183 231 287 345 405
#     4  12  24  42  67 100 135 179 233 291 345 410
#     4  10  24  40  60 104 132 170 234 280 338 414
#
# _framework density 22.360593000000001
#
# number of rings (size 3 to 8) (size 9 to 14) (size 15 to 20)
#    0.000    1.231    1.538    4.615    5.385    8.000 
#    1.385    3.077    0.000    0.000    0.000    0.000 
#    0.000    0.000    0.000    0.000    0.000    0.000 
#
# Total GULP energy -144895.504438 kJ/mol
# GULP energy per Si atom -5572.904017 kJ/mol
# Density = 2.230970 g / cm^3
# Si number density = 22.360593 Si / 1000 Ang^3
#
#
#
# Elastic Constant Matrix: (Units=GPa)
#
#
# Indices 1 2 3 4 5 6 
#
# 1 49.3099 14.6635 6.7672 0.0000 -4.5302 0.0000
# 2 14.6635 87.6353 24.4173 0.0000 15.0704 0.0000
# 3 6.7672 24.4173 79.0465 0.0000 6.5193 0.0000
# 4 0.0000 0.0000 0.0000 35.6100 0.0000 2.9496
# 5 -4.5302 15.0704 6.5193 0.0000 23.5326 0.0000
# 6 0.0000 0.0000 0.0000 2.9496 0.0000 34.4556
#
#
#
# Elastic Compliance Matrix: (Units=1/GPa)
#
#
# Indices 1 2 3 4 5 6 
#
# 1 0.022566 -0.004801 -0.001086 0.000000 0.007719 0.000000
# 2 -0.004801 0.014780 -0.003375 0.000000 -0.009455 0.000000
# 3 -0.001086 -0.003375 0.013944 0.000000 -0.001911 0.000000
# 4 0.000000 0.000000 0.000000 0.028283 0.000000 -0.002421
# 5 0.007719 -0.009455 -0.001911 0.000000 0.050565 0.000000
# 6 0.000000 0.000000 0.000000 -0.002421 0.000000 0.029230
#
#
# Mechanical properties :
#
#
# Convention : Reuss Voigt Hill
#
# Bulk Modulus (GPa) = 30.51805 34.18752 32.35278
# Shear Modulus (GPa) = 26.48135 30.06254 28.27195
#
# Velocity S-wave (km/s) = 3.44508 3.67064 3.55965
# Velocity P-wave (km/s) = 5.43162 5.76951 5.60311
#
# Compressibility (1/GPa) = 0.03276749
#
# Stress axis : x y z
#
# Youngs Moduli (GPa) = 44.31499 67.65694 71.71657
#
# Poissons Ratio (x) = 0.32481 0.07785
# Poissons Ratio (y) = 0.21275 0.24203
# Poissons Ratio (z) = 0.04811 0.22833
#
# Static dielectric constant tensor:
#      x y z
#    x 2.026880 0.000000 -0.071890 
#    y 0.000000 1.912800 0.000000 
#    z -0.071890 0.000000 1.546870 
# 
# From -- ./inp_files/152670.got.cif
#   From: 2010.05.17/outbox.cif.g08.bks.cpg/sg15_77_cif.got.tgz:152670.got - 2010.06.03 18:47:42.
