data_PCOD9289443
_publ_section_title
;
Structure prediction by ZEFSAII (Michael W. Deem and Ramdas Pophale) SiO2 
 PCOD9289443
Probable space group: C 2/C
;
_chemical_formula_sum "Si O2"
_cell_formula_units_Z 56
_cell_length_a 7.836449
_cell_length_b 11.192297
_cell_length_c 26.834779
_cell_angle_alpha 90.000000
_cell_angle_beta 105.971657
_cell_angle_gamma 90.000000
_cell_volume 2262.766516
_symmetry_space_group_name_H-M "C 2/C"
_symmetry_group_IT_number 15
_symmetry_cell_setting 'monoclinic'
loop_
_space_group_symop_operation_xyz
x,y,z
-x,y,1/2-z
-x,-y,-z
x,-y,1/2+z
1/2+x,1/2+y,z
1/2-x,1/2+y,1/2-z
1/2-x,1/2-y,-z
1/2+x,1/2-y,1/2+z
loop_
_atom_site_type_symbol
_atom_site_label
_atom_site_fract_x
_atom_site_fract_y
_atom_site_fract_z
Si Si1 0.371679 0.866658 0.013099
Si Si2 0.328918 0.445448 0.586173
Si Si3 0.295968 0.901940 0.290000
Si Si4 0.478881 0.395296 0.696686
Si Si5 0.705901 0.536870 0.078259
Si Si6 0.283958 0.200995 0.894632
Si Si7 0.200028 0.545373 0.812729
O O1 0.546889 0.826353 0.056296
O O2 0.281838 0.974391 0.036303
O O3 0.250000 0.750000 0.000000
O O4 0.356154 0.913039 0.954816
O O5 0.374766 0.362473 0.637589
O O6 0.496291 0.437176 0.562690
O O7 0.331984 0.583873 0.602900
O O8 0.317478 0.810986 0.337642
O O9 0.255000 0.864914 0.229408
O O10 0.487687 0.966480 0.300175
O O11 0.144754 0.994241 0.294554
O O12 0.500000 0.323166 0.750000
O O13 0.673916 0.436249 0.694532
O O14 0.787072 0.667562 0.097581
O O15 0.742230 0.442427 0.125730
#
# Coordination Sequence:
#
# PCOD9289443 Si02
#       7
#     8   8   8   8   8   8   8
#     4  12  24  43  66  93 133 176 222 279 336 400
#     4  10  22  40  64  95 129 167 221 273 327 402
#     4   9  17  35  65  90 127 170 214 271 327 400
#     4   8  16  32  60  92 125 166 209 273 328 393
#     4  11  23  43  67  93 133 178 215 278 341 397
#     4  11  23  42  68  94 130 175 220 275 339 398
#     4   9  17  34  66  88 128 171 211 273 327 395
#
# _framework density 24.748467000000002
#
# number of rings (size 3 to 8) (size 9 to 14) (size 15 to 20)
#    0.000    2.000    2.857    0.857    0.000    0.571 
#    2.571    0.000   75.429    0.000    0.000    0.000 
#    0.000    0.000    0.000    0.000    0.000    0.000 
#
# Total GULP energy -155929.796882 kJ/mol
# GULP energy per Si atom -5568.921317 kJ/mol
# Density = 2.469214 g / cm^3
# Si number density = 24.748467 Si / 1000 Ang^3
#
#
#
# Elastic Constant Matrix: (Units=GPa)
#
#
# Indices 1 2 3 4 5 6 
#
# 1 79.0373 20.2749 7.4884 0.0000 1.8938 0.0000
# 2 20.2749 122.0450 32.6534 0.0000 -9.5514 0.0000
# 3 7.4884 32.6534 161.5966 0.0000 9.9211 0.0000
# 4 0.0000 0.0000 0.0000 -1.5817 0.0000 29.0535
# 5 1.8938 -9.5514 9.9211 0.0000 22.3770 0.0000
# 6 0.0000 0.0000 0.0000 29.0535 0.0000 15.6836
#
#
#
# Elastic Compliance Matrix: (Units=1/GPa)
#
#
# Indices 1 2 3 4 5 6 
#
# 1 0.013314 -0.002378 -0.000005 0.000000 -0.002139 0.000000
# 2 -0.002378 0.009573 -0.002146 0.000000 0.005239 0.000000
# 3 -0.000005 -0.002146 0.006865 0.000000 -0.003959 0.000000
# 4 0.000000 0.000000 0.000000 -0.018050 0.000000 0.033437
# 5 -0.002139 0.005239 -0.003959 0.000000 0.048861 0.000000
# 6 0.000000 0.000000 0.000000 0.033437 0.000000 0.001820
#
#
# Mechanical properties :
#
#
# Convention : Reuss Voigt Hill
#
# Bulk Modulus (GPa) = 48.32228 53.72358 51.02293
# Shear Modulus (GPa) = 63.82471 27.44659 45.63565
#
# Velocity S-wave (km/s) = 5.08383 3.33381 4.29882
# Velocity P-wave (km/s) = 7.35039 6.04765 6.73061
#
# Compressibility (1/GPa) = 0.02069439
#
# Stress axis : x y z
#
# Youngs Moduli (GPa) = 75.10900 104.46244 145.66311
#
# Poissons Ratio (x) = 0.24840 0.00075
# Poissons Ratio (y) = 0.17860 0.31256
# Poissons Ratio (z) = 0.00039 0.22415
#
# Static dielectric constant tensor:
#      x y z
#    x 1.963600 0.000000 0.013350 
#    y 0.000000 2.042070 0.000000 
#    z 0.013350 0.000000 2.128320 
# 
# From -- ./inp_files/307255.got.cif
#   From: 2010.05.17/outbox.cif.g08.bks.cpg/sg15_154_cif.got.tgz:307255.got - 2010.06.03 18:47:42.
