data_PCOD9289437
_publ_section_title
;
Structure prediction by ZEFSAII (Michael W. Deem and Ramdas Pophale) SiO2 
 PCOD9289437
Probable space group: C 2/C
;
_chemical_formula_sum "Si O2"
_cell_formula_units_Z 52
_cell_length_a 10.462719
_cell_length_b 9.106715
_cell_length_c 24.308309
_cell_angle_alpha 90.000000
_cell_angle_beta 103.945511
_cell_angle_gamma 90.000000
_cell_volume 2247.853184
_symmetry_space_group_name_H-M "C 2/C"
_symmetry_group_IT_number 15
_symmetry_cell_setting 'monoclinic'
loop_
_space_group_symop_operation_xyz
x,y,z
-x,y,1/2-z
-x,-y,-z
x,-y,1/2+z
1/2+x,1/2+y,z
1/2-x,1/2+y,1/2-z
1/2-x,1/2-y,-z
1/2+x,1/2-y,1/2+z
loop_
_atom_site_type_symbol
_atom_site_label
_atom_site_fract_x
_atom_site_fract_y
_atom_site_fract_z
Si Si1 0.929068 0.016768 0.623721
Si Si2 0.763328 0.772711 0.275937
Si Si3 0.633754 0.060268 0.292286
Si Si4 0.500000 0.585034 0.250000
Si Si5 0.668219 0.174524 0.095873
Si Si6 0.113929 0.645118 0.414066
Si Si7 0.374718 0.503193 0.947520
O O1 0.898929 0.181665 0.600189
O O2 0.056241 0.958214 0.603079
O O3 0.797441 0.921855 0.599015
O O4 0.966873 0.005424 0.691573
O O5 0.836733 0.720062 0.229280
O O6 0.623334 0.693567 0.256532
O O7 0.830599 0.710210 0.338229
O O8 0.740100 0.943580 0.282214
O O9 0.500000 0.012056 0.250000
O O10 0.620838 0.062458 0.355972
O O11 0.523480 0.106164 0.070119
O O12 0.675695 0.329991 0.065394
O O13 0.253706 0.598084 0.454055
O O14 0.500000 0.500000 0.000000
#
# Coordination Sequence:
#
# PCOD9289437 Si02
#       7
#     8   8   8   4   8   8   8
#     4  10  25  43  66 101 135 177 218 271 333 396
#     4  11  23  38  59  91 133 173 213 259 317 394
#     4  12  24  37  61  94 130 177 215 258 327 396
#     4  10  22  40  64  94 142 168 210 264 318 396
#     4  10  23  43  63  95 132 165 219 275 330 391
#     4  11  24  41  66  94 130 171 221 274 331 393
#     4  11  25  47  70  94 130 175 226 282 333 388
#
# _framework density 23.133182000000001
#
# number of rings (size 3 to 8) (size 9 to 14) (size 15 to 20)
#    0.000    1.231    3.846    0.923    7.538    4.308 
#    0.000    1.538    0.000    0.000    0.000    0.000 
#    0.000    0.000    0.000    0.000    0.000    0.000 
#
# Total GULP energy -145422.331109 kJ/mol
# GULP energy per Si atom -5593.166581 kJ/mol
# Density = 2.308053 g / cm^3
# Si number density = 23.133182 Si / 1000 Ang^3
#
#
#
# Elastic Constant Matrix: (Units=GPa)
#
#
# Indices 1 2 3 4 5 6 
#
# 1 159.2313 58.7227 9.3574 0.0000 37.9435 0.0000
# 2 58.7227 72.7241 8.3856 0.0000 12.1913 0.0000
# 3 9.3574 8.3856 57.8401 0.0000 25.3675 0.0000
# 4 0.0000 0.0000 0.0000 16.0971 0.0000 10.2960
# 5 37.9435 12.1913 25.3675 0.0000 40.5280 0.0000
# 6 0.0000 0.0000 0.0000 10.2960 0.0000 37.2167
#
#
#
# Elastic Compliance Matrix: (Units=1/GPa)
#
#
# Indices 1 2 3 4 5 6 
#
# 1 0.011628 -0.008011 0.004132 0.000000 -0.011063 0.000000
# 2 -0.008011 0.020003 -0.003108 0.000000 0.003428 0.000000
# 3 0.004132 -0.003108 0.025304 0.000000 -0.018773 0.000000
# 4 0.000000 0.000000 0.000000 0.075479 0.000000 -0.020881
# 5 -0.011063 0.003428 -0.018773 0.000000 0.045751 0.000000
# 6 0.000000 0.000000 0.000000 -0.020881 0.000000 0.032646
#
#
# Mechanical properties :
#
#
# Convention : Reuss Voigt Hill
#
# Bulk Modulus (GPa) = 23.27599 49.19187 36.23393
# Shear Modulus (GPa) = 20.91128 32.99034 26.95081
#
# Velocity S-wave (km/s) = 3.00984 3.78048 3.41695
# Velocity P-wave (km/s) = 4.70770 6.35349 5.59148
#
# Compressibility (1/GPa) = 0.04296272
#
# Stress axis : x y z
#
# Youngs Moduli (GPa) = 85.99900 49.99239 39.51887
#
# Poissons Ratio (x) = 0.40050 -0.16331
# Poissons Ratio (y) = 0.68896 0.12281
# Poissons Ratio (z) = -0.35538 0.15535
#
# Static dielectric constant tensor:
#      x y z
#    x 1.904760 0.000000 0.003220 
#    y 0.000000 1.846500 0.000000 
#    z 0.003220 0.000000 1.896570 
# 
# From -- ./inp_files/291256.got.cif
#   From: 2010.05.17/outbox.cif.g08.bks.cpg/sg15_146_cif.got.tgz:291256.got - 2010.06.03 18:47:42.
