data_PCOD9289428
_publ_section_title
;
Structure prediction by ZEFSAII (Michael W. Deem and Ramdas Pophale) SiO2 
 PCOD9289428
Probable space group: C 2/C
;
_chemical_formula_sum "Si O2"
_cell_formula_units_Z 24
_cell_length_a 27.205080
_cell_length_b 5.433823
_cell_length_c 19.554518
_cell_angle_alpha 90.000000
_cell_angle_beta 163.353132
_cell_angle_gamma 90.000000
_cell_volume 828.104347
_symmetry_space_group_name_H-M "C 2/C"
_symmetry_group_IT_number 15
_symmetry_cell_setting 'monoclinic'
loop_
_space_group_symop_operation_xyz
x,y,z
-x,y,1/2-z
-x,-y,-z
x,-y,1/2+z
1/2+x,1/2+y,z
1/2-x,1/2+y,1/2-z
1/2-x,1/2-y,-z
1/2+x,1/2-y,1/2+z
loop_
_atom_site_type_symbol
_atom_site_label
_atom_site_fract_x
_atom_site_fract_y
_atom_site_fract_z
Si Si1 0.108093 0.254246 0.135216
Si Si2 0.050829 0.265705 0.910103
Si Si3 0.731940 0.992838 0.536350
O O1 0.246505 0.222597 0.379789
O O2 0.000000 0.500000 0.000000
O O3 0.160419 0.270533 0.125442
O O4 0.000000 0.000000 0.000000
O O5 0.909406 0.055646 0.735528
O O6 0.922628 0.498432 0.723857
O O7 0.175065 0.280564 0.010962
#
# Coordination Sequence:
#
# PCOD9289428 Si02
#       3
#     8   8   8
#     4  10  22  40  64  94 131 176 225 278 340 409
#     4   9  19  38  64  99 140 181 231 288 347 415
#     4   9  19  38  66  99 138 184 231 286 350 416
#
# _framework density 28.981857000000002
#
# number of rings (size 3 to 8) (size 9 to 14) (size 15 to 20)
#    0.000    2.667    0.000    0.000    0.000    6.667 
#    0.000    6.667    0.000   32.000    0.000    0.000 
#    0.000    0.000    0.000    0.000    0.000    0.000 
#
# Total GULP energy -67036.741754 kJ/mol
# GULP energy per Si atom -5586.395146 kJ/mol
# Density = 2.891589 g / cm^3
# Si number density = 28.981857 Si / 1000 Ang^3
#
#
#
# Elastic Constant Matrix: (Units=GPa)
#
#
# Indices 1 2 3 4 5 6 
#
# 1 203.0831 53.3796 22.3908 0.0002 -22.2762 0.0002
# 2 53.3796 162.1730 76.1461 0.0018 -5.5639 -0.0006
# 3 22.3908 76.1461 111.0081 0.0003 -18.0625 0.0000
# 4 0.0002 0.0018 0.0003 59.8923 -0.0001 -18.6931
# 5 -22.2762 -5.5639 -18.0625 -0.0001 64.0819 -0.0001
# 6 0.0002 -0.0006 0.0000 -18.6931 -0.0001 40.5555
#
#
#
# Elastic Compliance Matrix: (Units=1/GPa)
#
#
# Indices 1 2 3 4 5 6 
#
# 1 0.005613 -0.002062 0.000598 0.000000 0.001941 0.000000
# 2 -0.002062 0.009917 -0.006669 0.000000 -0.001735 0.000000
# 3 0.000598 -0.006669 0.014046 0.000000 0.003588 0.000000
# 4 0.000000 0.000000 0.000000 0.019502 0.000000 0.008989
# 5 0.001941 -0.001735 0.003588 0.000000 0.017140 0.000000
# 6 0.000000 0.000000 0.000000 0.008989 0.000000 0.028801
#
#
# Mechanical properties :
#
#
# Convention : Reuss Voigt Hill
#
# Bulk Modulus (GPa) = 75.12985 86.67745 80.90365
# Shear Modulus (GPa) = 43.20737 54.52910 48.86824
#
# Velocity S-wave (km/s) = 3.86533 4.34232 4.11075
# Velocity P-wave (km/s) = 6.77498 7.42384 7.10682
#
# Compressibility (1/GPa) = 0.01331029
#
# Stress axis : x y z
#
# Youngs Moduli (GPa) = 178.15962 100.84172 71.19446
#
# Poissons Ratio (x) = 0.20790 -0.04256
# Poissons Ratio (y) = 0.36730 0.47478
# Poissons Ratio (z) = -0.10650 0.67249
#
# Static dielectric constant tensor:
#      x y z
#    x 2.245430 0.000000 -0.089900 
#    y 0.000000 2.243690 0.000000 
#    z -0.089900 0.000000 2.424300 
# 
# From -- ./inp_files/258508.got.cif
#   From: 2010.05.17/outbox.cif.g08.bks.cpg/sg15_130_cif.got.tgz:258508.got - 2010.06.03 18:47:42.
