data_PCOD9289943
_publ_section_title
;
Structure prediction by ZEFSAII (Michael W. Deem and Ramdas Pophale) SiO2 
 PCOD9289943
Probable space group: C 2/C
;
_chemical_formula_sum "Si O2"
_cell_formula_units_Z 52
_cell_length_a 18.061364
_cell_length_b 8.402445
_cell_length_c 19.157938
_cell_angle_alpha 90.000000
_cell_angle_beta 120.700549
_cell_angle_gamma 90.000000
_cell_volume 2499.921428
_symmetry_space_group_name_H-M "C 2/C"
_symmetry_group_IT_number 15
_symmetry_cell_setting 'monoclinic'
loop_
_space_group_symop_operation_xyz
x,y,z
-x,y,1/2-z
-x,-y,-z
x,-y,1/2+z
1/2+x,1/2+y,z
1/2-x,1/2+y,1/2-z
1/2-x,1/2-y,-z
1/2+x,1/2-y,1/2+z
loop_
_atom_site_type_symbol
_atom_site_label
_atom_site_fract_x
_atom_site_fract_y
_atom_site_fract_z
Si Si1 0.500000 0.255135 0.250000
Si Si2 0.972119 0.741854 0.945938
Si Si3 0.301069 0.576796 0.316935
Si Si4 0.660572 0.642477 0.537075
Si Si5 0.313135 0.644558 0.691371
Si Si6 0.776531 0.511591 0.475791
Si Si7 0.961321 0.417525 0.589978
O O1 0.588943 0.351265 0.287998
O O2 0.500515 0.153430 0.321422
O O3 0.887515 0.821513 0.873582
O O4 0.992219 0.578336 0.913978
O O5 0.962878 0.697789 0.023326
O O6 0.057579 0.849473 0.982399
O O7 0.306250 0.436890 0.376485
O O8 0.301897 0.495428 0.242126
O O9 0.219493 0.690873 0.290243
O O10 0.699873 0.545009 0.491857
O O11 0.696051 0.821992 0.546976
O O12 0.251594 0.611016 0.596363
O O13 0.861369 0.454805 0.556395
#
# Coordination Sequence:
#
# PCOD9289943 Si02
#       7
#     4   8   8   8   8   8   8
#     4  12  28  42  68 106 142 174 226 296 332 408
#     4  10  22  41  71  96 131 178 224 278 330 420
#     4  12  25  43  68  97 135 183 224 281 338 414
#     4  10  22  40  70  96 129 170 225 277 341 404
#     4  12  28  43  68  99 141 177 230 284 340 404
#     4  10  22  45  66  97 130 177 221 280 342 406
#     4  10  22  45  68  99 133 179 227 271 346 399
#
# _framework density 20.800654000000002
#
# number of rings (size 3 to 8) (size 9 to 14) (size 15 to 20)
#    0.000    1.231    1.538    3.231    6.462    1.231 
#    8.308    0.000    0.000    0.000    0.000    0.000 
#    0.000    0.000    0.000    0.000    0.000    0.000 
#
# Total GULP energy -145474.418749 kJ/mol
# GULP energy per Si atom -5595.169952 kJ/mol
# Density = 2.075331 g / cm^3
# Si number density = 20.800654 Si / 1000 Ang^3
#
#
#
# Elastic Constant Matrix: (Units=GPa)
#
#
# Indices 1 2 3 4 5 6 
#
# 1 90.8595 -0.0292 -12.9537 0.0000 9.8095 0.0000
# 2 -0.0292 9.7176 -2.6118 0.0000 -2.9773 0.0000
# 3 -12.9537 -2.6118 43.8680 0.0000 3.5066 0.0000
# 4 0.0000 0.0000 0.0000 34.0646 0.0000 -7.8661
# 5 9.8095 -2.9773 3.5066 0.0000 19.7455 0.0000
# 6 0.0000 0.0000 0.0000 -7.8661 0.0000 14.2921
#
#
#
# Elastic Compliance Matrix: (Units=1/GPa)
#
#
# Indices 1 2 3 4 5 6 
#
# 1 0.012356 -0.001000 0.004151 0.000000 -0.007026 0.000000
# 2 -0.001000 0.109152 0.004918 0.000000 0.016082 0.000000
# 3 0.004151 0.004918 0.024771 0.000000 -0.005720 0.000000
# 4 0.000000 0.000000 0.000000 0.033630 0.000000 0.018509
# 5 -0.007026 0.016082 -0.005720 0.000000 0.057576 0.000000
# 6 0.000000 0.000000 0.000000 0.018509 0.000000 0.080156
#
#
# Mechanical properties :
#
#
# Convention : Reuss Voigt Hill
#
# Bulk Modulus (GPa) = 6.15704 12.58399 9.37052
# Shear Modulus (GPa) = 14.05906 24.28977 19.17442
#
# Velocity S-wave (km/s) = 2.60262 3.42093 3.03944
# Velocity P-wave (km/s) = 3.46381 4.65474 4.10272
#
# Compressibility (1/GPa) = 0.16241572
#
# Stress axis : x y z
#
# Youngs Moduli (GPa) = 80.93212 9.16156 40.36930
#
# Poissons Ratio (x) = 0.00916 -0.16756
# Poissons Ratio (y) = 0.08094 -0.19853
# Poissons Ratio (z) = -0.33592 -0.04505
#
# Static dielectric constant tensor:
#      x y z
#    x 1.735900 0.000000 -0.005980 
#    y 0.000000 1.752570 0.000000 
#    z -0.005980 0.000000 1.698170 
# 
# From -- ./inp_files/209700.got.cif
#   From: 2010.05.17/outbox.cif.g08.bks.cpg/sg15_105_cif.got.tgz:209700.got - 2010.06.03 18:47:42.
