data_PCOD9289406
_publ_section_title
;
Structure prediction by ZEFSAII (Michael W. Deem and Ramdas Pophale) SiO2 
 PCOD9289406
Probable space group: C 2/C
;
_chemical_formula_sum "Si O2"
_cell_formula_units_Z 36
_cell_length_a 12.262365
_cell_length_b 18.402047
_cell_length_c 13.664207
_cell_angle_alpha 90.000000
_cell_angle_beta 33.645987
_cell_angle_gamma 90.000000
_cell_volume 1708.368369
_symmetry_space_group_name_H-M "C 2/C"
_symmetry_group_IT_number 15
_symmetry_cell_setting 'monoclinic'
loop_
_space_group_symop_operation_xyz
x,y,z
-x,y,1/2-z
-x,-y,-z
x,-y,1/2+z
1/2+x,1/2+y,z
1/2-x,1/2+y,1/2-z
1/2-x,1/2-y,-z
1/2+x,1/2-y,1/2+z
loop_
_atom_site_type_symbol
_atom_site_label
_atom_site_fract_x
_atom_site_fract_y
_atom_site_fract_z
Si Si1 0.276055 0.609076 0.384798
Si Si2 0.353950 0.183602 0.192035
Si Si3 0.208953 0.809399 0.115755
Si Si4 0.293533 0.460998 0.671041
Si Si5 0.500000 0.046605 0.750000
O O1 0.500000 0.613167 0.250000
O O2 0.207274 0.679280 0.374929
O O3 0.253600 0.545912 0.317767
O O4 0.143643 0.593607 0.576066
O O5 0.328046 0.261250 0.259746
O O6 0.213920 0.124860 0.350560
O O7 0.578439 0.153734 0.033582
O O8 0.000000 0.848247 0.250000
O O9 0.250000 0.750000 0.000000
O O10 0.500000 0.500000 0.500000
O O11 0.131320 0.499741 0.726583
#
# Coordination Sequence:
#
# PCOD9289406 Si02
#       5
#     8   8   8   8   4
#     4  10  22  42  61  91 130 170 213 270 319 393
#     4   9  21  38  61  92 126 164 219 266 328 385
#     4   9  18  38  61  91 125 164 213 275 315 377
#     4  10  22  40  64  92 129 170 215 265 332 394
#     4  12  20  40  66  90 134 164 218 268 326 400
#
# _framework density 21.07274
#
# number of rings (size 3 to 8) (size 9 to 14) (size 15 to 20)
#    1.333    0.889    2.222    0.667    4.667    0.000 
#   16.000    2.222    0.000    0.000    0.000    0.000 
#    0.000    0.000    0.000    0.000    0.000    0.000 
#
# Total GULP energy -100240.981999 kJ/mol
# GULP energy per Si atom -5568.943444 kJ/mol
# Density = 2.102478 g / cm^3
# Si number density = 21.072740 Si / 1000 Ang^3
#
#
#
# Elastic Constant Matrix: (Units=GPa)
#
#
# Indices 1 2 3 4 5 6 
#
# 1 153.8465 15.8253 49.5510 0.0192 -12.1865 -0.0210
# 2 15.8253 30.0355 17.9011 0.0226 -4.9461 -0.0403
# 3 49.5510 17.9011 116.0738 0.0149 1.3625 -0.0337
# 4 0.0192 0.0226 0.0149 52.9023 -0.0122 -27.4741
# 5 -12.1865 -4.9461 1.3625 -0.0122 43.2929 0.0149
# 6 -0.0210 -0.0403 -0.0337 -27.4741 0.0149 50.0960
#
#
#
# Elastic Compliance Matrix: (Units=1/GPa)
#
#
# Indices 1 2 3 4 5 6 
#
# 1 0.007858 -0.001964 -0.003076 -0.000002 0.002084 -0.000002
# 2 -0.001964 0.038000 -0.005068 0.000000 0.003948 0.000025
# 3 -0.003076 -0.005068 0.010731 0.000001 -0.001783 0.000003
# 4 -0.000002 0.000000 0.000001 0.026431 0.000002 0.014495
# 5 0.002084 0.003948 -0.001783 0.000002 0.024192 -0.000003
# 6 -0.000002 0.000025 0.000003 0.014495 -0.000003 0.027911
#
#
# Mechanical properties :
#
#
# Convention : Reuss Voigt Hill
#
# Bulk Modulus (GPa) = 27.49364 51.83452 39.66408
# Shear Modulus (GPa) = 29.85733 43.70346 36.78039
#
# Velocity S-wave (km/s) = 3.76822 4.55899 4.18233
# Velocity P-wave (km/s) = 5.65756 7.23628 6.49506
#
# Compressibility (1/GPa) = 0.03637204
#
# Stress axis : x y z
#
# Youngs Moduli (GPa) = 127.26173 26.31612 93.18837
#
# Poissons Ratio (x) = 0.05167 0.28665
# Poissons Ratio (y) = 0.24989 0.47232
# Poissons Ratio (z) = 0.39147 0.13338
#
# Static dielectric constant tensor:
#      x y z
#    x 1.801720 -0.000010 -0.008820 
#    y -0.000010 1.800500 0.000000 
#    z -0.008820 0.000000 1.773690 
# 
# From -- ./inp_files/90206.got.cif
#   From: 2010.05.17/outbox.cif.g08.bks.cpg/sg15_46_cif.got.tgz:90206.got - 2010.06.03 18:47:42.
