data_PCOD9289902
_publ_section_title
;
Structure prediction by ZEFSAII (Michael W. Deem and Ramdas Pophale) SiO2 
 PCOD9289902
Probable space group: C 2/C
;
_chemical_formula_sum "Si O2"
_cell_formula_units_Z 48
_cell_length_a 14.748533
_cell_length_b 10.956134
_cell_length_c 25.321750
_cell_angle_alpha 90.000000
_cell_angle_beta 147.794453
_cell_angle_gamma 90.000000
_cell_volume 2180.685430
_symmetry_space_group_name_H-M "C 2/C"
_symmetry_group_IT_number 15
_symmetry_cell_setting 'monoclinic'
loop_
_space_group_symop_operation_xyz
x,y,z
-x,y,1/2-z
-x,-y,-z
x,-y,1/2+z
1/2+x,1/2+y,z
1/2-x,1/2+y,1/2-z
1/2-x,1/2-y,-z
1/2+x,1/2-y,1/2+z
loop_
_atom_site_type_symbol
_atom_site_label
_atom_site_fract_x
_atom_site_fract_y
_atom_site_fract_z
Si Si1 0.151544 0.580488 0.598865
Si Si2 0.990673 0.217995 0.077519
Si Si3 0.500000 0.673905 0.750000
Si Si4 0.752107 0.638705 0.296268
Si Si5 0.162036 0.588138 0.922259
Si Si6 0.000000 0.742399 0.750000
Si Si7 0.072144 0.692619 0.393914
O O1 0.087295 0.717450 0.577383
O O2 0.330364 0.593944 0.657492
O O3 0.206795 0.505094 0.678383
O O4 0.000000 0.500000 0.500000
O O5 0.124404 0.170939 0.186326
O O6 0.881695 0.332776 0.047099
O O7 0.858269 0.109848 0.003911
O O8 0.504323 0.752005 0.698122
O O9 0.656771 0.680061 0.303004
O O10 0.929271 0.703353 0.369119
O O11 0.110028 0.449813 0.903246
O O12 0.059390 0.656012 0.826152
O O13 0.250000 0.750000 0.500000
#
# Coordination Sequence:
#
# PCOD9289902 Si02
#       7
#     8   8   4   8   8   4   8
#     4  12  24  43  70 104 145 186 242 302 362 437
#     4  10  22  40  70 100 131 185 230 283 354 428
#     4  12  28  44  70 112 146 185 249 296 370 434
#     4  11  23  44  69  98 141 182 235 293 355 426
#     4  10  22  42  68  96 136 174 233 282 349 427
#     4  10  22  44  70  98 128 185 239 286 350 422
#     4  12  26  46  70 105 146 190 232 299 371 428
#
# _framework density 22.011427000000001
#
# number of rings (size 3 to 8) (size 9 to 14) (size 15 to 20)
#    0.000    1.000    3.333    3.000    2.333    1.333 
#    0.000    1.667    0.000    0.000    0.000    0.000 
#    0.000    0.000    0.000    0.000    0.000    0.000 
#
# Total GULP energy -134059.251979 kJ/mol
# GULP energy per Si atom -5585.802166 kJ/mol
# Density = 2.196133 g / cm^3
# Si number density = 22.011427 Si / 1000 Ang^3
#
#
#
# Elastic Constant Matrix: (Units=GPa)
#
#
# Indices 1 2 3 4 5 6 
#
# 1 96.5901 30.6206 32.6616 0.0000 24.4979 0.0000
# 2 30.6206 87.1129 42.0546 0.0000 11.9642 0.0000
# 3 32.6616 42.0546 101.3103 0.0000 28.8995 0.0000
# 4 0.0000 0.0000 0.0000 26.6488 0.0000 -0.8307
# 5 24.4979 11.9642 28.8995 0.0000 42.0409 0.0000
# 6 0.0000 0.0000 0.0000 -0.8307 0.0000 29.5554
#
#
#
# Elastic Compliance Matrix: (Units=1/GPa)
#
#
# Indices 1 2 3 4 5 6 
#
# 1 0.013324 -0.003266 -0.001231 0.000000 -0.005988 0.000000
# 2 -0.003266 0.015157 -0.005661 0.000000 0.001482 0.000000
# 3 -0.001231 -0.005661 0.014869 0.000000 -0.007893 0.000000
# 4 0.000000 0.000000 0.000000 0.037558 0.000000 0.001056
# 5 -0.005988 0.001482 -0.007893 0.000000 0.032279 0.000000
# 6 0.000000 0.000000 0.000000 0.001056 0.000000 0.033864
#
#
# Mechanical properties :
#
#
# Convention : Reuss Voigt Hill
#
# Bulk Modulus (GPa) = 43.41913 55.07632 49.24772
# Shear Modulus (GPa) = 28.56369 31.62746 30.09557
#
# Velocity S-wave (km/s) = 3.60623 3.79471 3.70167
# Velocity P-wave (km/s) = 6.09167 6.65401 6.37904
#
# Compressibility (1/GPa) = 0.02303132
#
# Stress axis : x y z
#
# Youngs Moduli (GPa) = 75.05464 65.97549 67.25332
#
# Poissons Ratio (x) = 0.21551 0.08282
# Poissons Ratio (y) = 0.24516 0.38075
# Poissons Ratio (z) = 0.09242 0.37351
#
# Static dielectric constant tensor:
#      x y z
#    x 1.924610 0.000000 0.036430 
#    y 0.000000 1.781570 0.000000 
#    z 0.036430 0.000000 1.817110 
# 
# From -- ./inp_files/151885.got.cif
#   From: 2010.05.17/outbox.cif.g08.bks.cpg/sg15_76_cif.got.tgz:151885.got - 2010.06.03 18:47:42.
