data_PCOD9289788
_publ_section_title
;
Structure prediction by ZEFSAII (Michael W. Deem and Ramdas Pophale) SiO2 
 PCOD9289788
Probable space group: C 2/C
;
_chemical_formula_sum "Si O2"
_cell_formula_units_Z 52
_cell_length_a 26.444426
_cell_length_b 8.726547
_cell_length_c 8.312810
_cell_angle_alpha 90.000000
_cell_angle_beta 78.113986
_cell_angle_gamma 90.000000
_cell_volume 1877.204453
_symmetry_space_group_name_H-M "C 2/C"
_symmetry_group_IT_number 15
_symmetry_cell_setting 'monoclinic'
loop_
_space_group_symop_operation_xyz
x,y,z
-x,y,1/2-z
-x,-y,-z
x,-y,1/2+z
1/2+x,1/2+y,z
1/2-x,1/2+y,1/2-z
1/2-x,1/2-y,-z
1/2+x,1/2-y,1/2+z
loop_
_atom_site_type_symbol
_atom_site_label
_atom_site_fract_x
_atom_site_fract_y
_atom_site_fract_z
Si Si1 0.397473 0.588707 0.092627
Si Si2 0.249141 0.094655 0.775790
Si Si3 0.680093 0.880704 0.545469
Si Si4 0.000000 0.422940 0.250000
Si Si5 0.925787 0.531616 0.563913
Si Si6 0.410225 0.284956 0.260326
Si Si7 0.177541 0.893954 0.590126
O O1 0.423587 0.441772 0.159372
O O2 0.364660 0.672402 0.256582
O O3 0.426854 0.685282 0.935572
O O4 0.356215 0.503476 0.002152
O O5 0.281516 0.182853 0.617115
O O6 0.216344 0.980243 0.685102
O O7 0.212668 0.182643 0.927619
O O8 0.289881 0.999836 0.860240
O O9 0.651115 0.756233 0.674655
O O10 0.631024 0.949882 0.477537
O O11 0.046868 0.353564 0.323858
O O12 0.966629 0.517818 0.396147
O O13 0.926471 0.362602 0.647368
#
# Coordination Sequence:
#
# PCOD9289788 Si02
#       7
#     8   8   8   4   8   8   8
#     4   9  20  40  59  77 121 180 220 241 281 343
#     4   9  17  31  59  84 129 150 202 272 327 346
#     4  11  19  36  60  96 120 156 197 265 313 368
#     4  10  22  40  68 108 124 148 170 246 346 378
#     4  11  21  41  67  99 129 147 190 248 323 379
#     4  11  22  41  61  89 122 162 215 247 289 371
#     4   8  16  36  52  78 126 159 223 258 286 369
#
# _framework density 27.700766999999999
#
# number of rings (size 3 to 8) (size 9 to 14) (size 15 to 20)
#    0.000    2.154    3.077    0.000    0.000    0.000 
#   11.077   29.231    0.000    2.769    0.000    0.000 
#    0.000    0.000    0.000    0.000    0.000    0.000 
#
# Total GULP energy -144879.446888 kJ/mol
# GULP energy per Si atom -5572.286419 kJ/mol
# Density = 2.763772 g / cm^3
# Si number density = 27.700767 Si / 1000 Ang^3
#
#
#
# Elastic Constant Matrix: (Units=GPa)
#
#
# Indices 1 2 3 4 5 6 
#
# 1 120.5717 25.1412 73.6796 0.0000 20.2675 0.0000
# 2 25.1412 53.2343 50.1373 0.0000 -10.3832 0.0000
# 3 73.6796 50.1373 215.0083 0.0000 -1.9361 0.0000
# 4 0.0000 0.0000 0.0000 38.7527 0.0000 13.1454
# 5 20.2675 -10.3832 -1.9361 0.0000 76.9369 0.0000
# 6 0.0000 0.0000 0.0000 13.1454 0.0000 27.3148
#
#
#
# Elastic Compliance Matrix: (Units=1/GPa)
#
#
# Indices 1 2 3 4 5 6 
#
# 1 0.011520 -0.003051 -0.003268 0.000000 -0.003529 0.000000
# 2 -0.003051 0.025646 -0.004898 0.000000 0.004142 0.000000
# 3 -0.003268 -0.004898 0.006916 0.000000 0.000374 0.000000
# 4 0.000000 0.000000 0.000000 0.030839 0.000000 -0.014841
# 5 -0.003529 0.004142 0.000374 0.000000 0.014496 0.000000
# 6 0.000000 0.000000 0.000000 -0.014841 0.000000 0.043753
#
#
# Mechanical properties :
#
#
# Convention : Reuss Voigt Hill
#
# Bulk Modulus (GPa) = 46.19052 76.30336 61.24694
# Shear Modulus (GPa) = 30.70872 44.59129 37.65001
#
# Velocity S-wave (km/s) = 3.33316 4.01652 3.69069
# Velocity P-wave (km/s) = 5.61465 7.00823 6.34979
#
# Compressibility (1/GPa) = 0.02164947
#
# Stress axis : x y z
#
# Youngs Moduli (GPa) = 86.80351 38.99204 144.58547
#
# Poissons Ratio (x) = 0.11897 0.47252
# Poissons Ratio (y) = 0.26484 0.70812
# Poissons Ratio (z) = 0.28368 0.19097
#
# Static dielectric constant tensor:
#      x y z
#    x 2.285690 0.000000 0.027650 
#    y 0.000000 2.431060 0.000000 
#    z 0.027650 0.000000 2.176930 
# 
# From -- ./inp_files/68856.got.cif
#   From: 2010.05.17/outbox.cif.g08.bks.cpg/sg15_35_cif.got.tgz:68856.got - 2010.06.03 18:47:42.
