data_PCOD9289951
_publ_section_title
;
Structure prediction by ZEFSAII (Michael W. Deem and Ramdas Pophale) SiO2 
 PCOD9289951
Probable space group: C 2/C
;
_chemical_formula_sum "Si O2"
_cell_formula_units_Z 52
_cell_length_a 32.907338
_cell_length_b 7.280473
_cell_length_c 24.325555
_cell_angle_alpha 90.000000
_cell_angle_beta 157.388108
_cell_angle_gamma 90.000000
_cell_volume 2240.766936
_symmetry_space_group_name_H-M "C 2/C"
_symmetry_group_IT_number 15
_symmetry_cell_setting 'monoclinic'
loop_
_space_group_symop_operation_xyz
x,y,z
-x,y,1/2-z
-x,-y,-z
x,-y,1/2+z
1/2+x,1/2+y,z
1/2-x,1/2+y,1/2-z
1/2-x,1/2-y,-z
1/2+x,1/2-y,1/2+z
loop_
_atom_site_type_symbol
_atom_site_label
_atom_site_fract_x
_atom_site_fract_y
_atom_site_fract_z
Si Si1 0.886180 0.806383 0.323887
Si Si2 0.000000 0.814611 0.250000
Si Si3 0.790974 0.735450 0.624646
Si Si4 0.577592 0.663065 0.303882
Si Si5 0.806217 0.552996 0.760262
Si Si6 0.773384 0.662226 0.969381
Si Si7 0.119522 0.898121 0.587934
O O1 0.860093 0.969650 0.333738
O O2 0.993889 0.869934 0.429006
O O3 0.886477 0.618687 0.359313
O O4 0.800858 0.756719 0.170821
O O5 0.895764 0.698976 0.110075
O O6 0.974899 0.962199 0.267589
O O7 0.690088 0.629669 0.474164
O O8 0.894227 0.724864 0.715013
O O9 0.812776 0.665919 0.712100
O O10 0.755218 0.947125 0.572766
O O11 0.500000 0.761258 0.250000
O O12 0.687223 0.482928 0.623184
O O13 0.834903 0.697051 0.843168
O O14 0.750000 0.750000 0.000000
#
# Coordination Sequence:
#
# PCOD9289951 Si02
#       7
#     8   4   8   8   8   8   8
#     4  11  26  47  76 106 154 205 252 321 385 465
#     4  10  22  40  70  96 150 192 246 294 364 450
#     4  11  23  41  72 105 153 192 252 313 380 467
#     4   9  21  43  62 100 145 199 238 296 375 452
#     4  12  24  48  76 113 149 190 263 322 387 460
#     4  12  24  44  69 110 151 197 250 310 384 466
#     4  11  25  49  76 110 151 202 261 321 388 454
#
# _framework density 23.206340000000001
#
# number of rings (size 3 to 8) (size 9 to 14) (size 15 to 20)
#    0.462    0.615    4.615    1.385    3.231    3.692 
#    0.000    1.538    0.000    0.000    0.000    0.000 
#    0.000    0.000    0.000    0.000    0.000    0.000 
#
# Total GULP energy -145267.791130 kJ/mol
# GULP energy per Si atom -5587.222736 kJ/mol
# Density = 2.315352 g / cm^3
# Si number density = 23.206340 Si / 1000 Ang^3
#
#
#
# Elastic Constant Matrix: (Units=GPa)
#
#
# Indices 1 2 3 4 5 6 
#
# 1 137.7990 28.9318 45.8121 0.0000 36.1793 0.0000
# 2 28.9318 108.7280 12.7698 0.0000 7.6455 0.0000
# 3 45.8121 12.7698 73.8244 0.0000 18.9881 0.0000
# 4 0.0000 0.0000 0.0000 26.4349 0.0000 11.0799
# 5 36.1793 7.6455 18.9881 0.0000 38.6538 0.0000
# 6 0.0000 0.0000 0.0000 11.0799 0.0000 36.2601
#
#
#
# Elastic Compliance Matrix: (Units=1/GPa)
#
#
# Indices 1 2 3 4 5 6 
#
# 1 0.011269 -0.001899 -0.004634 0.000000 -0.007896 0.000000
# 2 -0.001899 0.009758 -0.000538 0.000000 0.000112 0.000000
# 3 -0.004634 -0.000538 0.017594 0.000000 -0.004199 0.000000
# 4 0.000000 0.000000 0.000000 0.043385 0.000000 -0.013257
# 5 -0.007896 0.000112 -0.004199 0.000000 0.035302 0.000000
# 6 0.000000 0.000000 0.000000 -0.013257 0.000000 0.031629
#
#
# Mechanical properties :
#
#
# Convention : Reuss Voigt Hill
#
# Bulk Modulus (GPa) = 40.85073 55.04208 47.94641
# Shear Modulus (GPa) = 29.19869 35.79226 32.49547
#
# Velocity S-wave (km/s) = 3.55099 3.93153 3.74610
# Velocity P-wave (km/s) = 5.86977 6.66178 6.27828
#
# Compressibility (1/GPa) = 0.02447937
#
# Stress axis : x y z
#
# Youngs Moduli (GPa) = 88.73627 102.48037 56.83630
#
# Poissons Ratio (x) = 0.19463 0.26337
# Poissons Ratio (y) = 0.16853 0.03058
# Poissons Ratio (z) = 0.41119 0.05514
#
# Static dielectric constant tensor:
#      x y z
#    x 1.926480 0.000000 -0.011160 
#    y 0.000000 1.963240 0.000000 
#    z -0.011160 0.000000 1.876720 
# 
# From -- ./inp_files/284220.got.cif
#   From: 2010.05.17/outbox.cif.g08.bks.cpg/sg15_143_cif.got.tgz:284220.got - 2010.06.03 18:47:42.
