data_PCOD9289436
_publ_section_title
;
Structure prediction by ZEFSAII (Michael W. Deem and Ramdas Pophale) SiO2 
 PCOD9289436
Probable space group: C 2/C
;
_chemical_formula_sum "Si O2"
_cell_formula_units_Z 60
_cell_length_a 21.845583
_cell_length_b 17.134335
_cell_length_c 7.741317
_cell_angle_alpha 90.000000
_cell_angle_beta 111.342286
_cell_angle_gamma 90.000000
_cell_volume 2698.936387
_symmetry_space_group_name_H-M "C 2/C"
_symmetry_group_IT_number 15
_symmetry_cell_setting 'monoclinic'
loop_
_space_group_symop_operation_xyz
x,y,z
-x,y,1/2-z
-x,-y,-z
x,-y,1/2+z
1/2+x,1/2+y,z
1/2-x,1/2+y,1/2-z
1/2-x,1/2-y,-z
1/2+x,1/2-y,1/2+z
loop_
_atom_site_type_symbol
_atom_site_label
_atom_site_fract_x
_atom_site_fract_y
_atom_site_fract_z
Si Si1 0.330785 0.710776 0.497674
Si Si2 0.860623 0.396575 0.562003
Si Si3 0.777013 0.670292 0.409483
Si Si4 0.038470 0.236949 0.026554
Si Si5 0.000000 0.623790 0.250000
Si Si6 0.795540 0.508109 0.280659
Si Si7 0.902786 0.220677 0.038833
Si Si8 0.204425 0.868859 0.171212
O O1 0.339028 0.805794 0.525247
O O2 0.280058 0.687800 0.292474
O O3 0.406350 0.690183 0.523901
O O4 0.192507 0.828525 0.346539
O O5 0.930847 0.414371 0.724146
O O6 0.852731 0.444324 0.376397
O O7 0.807702 0.441431 0.623159
O O8 0.792420 0.578435 0.413304
O O9 0.845709 0.715405 0.441500
O O10 0.751954 0.677419 0.583048
O O11 0.068726 0.242455 0.247214
O O12 0.963175 0.211215 0.970182
O O13 0.027281 0.321321 0.930249
O O14 0.730717 0.455510 0.214445
O O15 0.864400 0.139436 0.997771
#
# Coordination Sequence:
#
# PCOD9289436 Si02
#       8
#     8   8   8   8   4   8   8   8
#     4  11  25  47  76 103 140 184 246 292 353 408
#     4  11  25  44  65 100 141 187 234 291 344 421
#     4  12  25  45  69 108 145 186 233 297 343 425
#     4  10  22  42  68 105 136 179 229 309 344 407
#     4  10  22  40  64  94 136 190 244 266 350 416
#     4  12  25  43  64  97 149 185 228 285 357 414
#     4  11  23  42  71 104 139 178 240 290 354 407
#     4  12  25  42  71 107 137 187 233 292 351 417
#
# _framework density 22.230979999999999
#
# number of rings (size 3 to 8) (size 9 to 14) (size 15 to 20)
#    0.000    0.800    2.667    5.200    3.733    2.133 
#    2.400    1.333    0.000    0.800    3.467    0.000 
#    0.000    0.000    0.000    0.000    0.000    0.000 
#
# Total GULP energy -167250.399311 kJ/mol
# GULP energy per Si atom -5575.013310 kJ/mol
# Density = 2.218038 g / cm^3
# Si number density = 22.230980 Si / 1000 Ang^3
#
#
#
# Elastic Constant Matrix: (Units=GPa)
#
#
# Indices 1 2 3 4 5 6 
#
# 1 158.4305 37.8773 45.2284 0.0000 22.0547 0.0000
# 2 37.8773 82.0202 31.3794 0.0000 17.1299 0.0000
# 3 45.2284 31.3794 116.2756 0.0000 2.0918 0.0000
# 4 0.0000 0.0000 0.0000 37.5167 0.0000 -0.8487
# 5 22.0547 17.1299 2.0918 0.0000 40.5678 0.0000
# 6 0.0000 0.0000 0.0000 -0.8487 0.0000 25.1989
#
#
#
# Elastic Compliance Matrix: (Units=1/GPa)
#
#
# Indices 1 2 3 4 5 6 
#
# 1 0.007976 -0.002029 -0.002494 0.000000 -0.003351 0.000000
# 2 -0.002029 0.015490 -0.003296 0.000000 -0.005268 0.000000
# 3 -0.002494 -0.003296 0.010420 0.000000 0.002211 0.000000
# 4 0.000000 0.000000 0.000000 0.026675 0.000000 0.000898
# 5 -0.003351 -0.005268 0.002211 0.000000 0.028582 0.000000
# 6 0.000000 0.000000 0.000000 0.000898 0.000000 0.039715
#
#
# Mechanical properties :
#
#
# Convention : Reuss Voigt Hill
#
# Bulk Modulus (GPa) = 54.80478 65.07739 59.94109
# Shear Modulus (GPa) = 33.20491 36.80608 35.00549
#
# Velocity S-wave (km/s) = 3.86895 4.07335 3.97246
# Velocity P-wave (km/s) = 6.68313 7.17354 6.93268
#
# Compressibility (1/GPa) = 0.01824658
#
# Stress axis : x y z
#
# Youngs Moduli (GPa) = 125.38328 64.55577 95.96589
#
# Poissons Ratio (x) = 0.13099 0.23938
# Poissons Ratio (y) = 0.25441 0.31634
# Poissons Ratio (z) = 0.31276 0.21280
#
# Static dielectric constant tensor:
#      x y z
#    x 2.026340 0.000000 -0.033960 
#    y 0.000000 1.917160 0.000000 
#    z -0.033960 0.000000 1.975140 
# 
# From -- ./inp_files/57054.got.cif
#   From: 2010.05.17/outbox.cif.g08.bks.cpg/sg15_29_cif.got.tgz:57054.got - 2010.06.03 18:47:42.
