data_PCOD9289582
_publ_section_title
;
Structure prediction by ZEFSAII (Michael W. Deem and Ramdas Pophale) SiO2 
 PCOD9289582
Probable space group: C 2/C
;
_chemical_formula_sum "Si O2"
_cell_formula_units_Z 44
_cell_length_a 16.719673
_cell_length_b 6.941923
_cell_length_c 19.960502
_cell_angle_alpha 90.000000
_cell_angle_beta 103.028249
_cell_angle_gamma 90.000000
_cell_volume 2257.113892
_symmetry_space_group_name_H-M "C 2/C"
_symmetry_group_IT_number 15
_symmetry_cell_setting 'monoclinic'
loop_
_space_group_symop_operation_xyz
x,y,z
-x,y,1/2-z
-x,-y,-z
x,-y,1/2+z
1/2+x,1/2+y,z
1/2-x,1/2+y,1/2-z
1/2-x,1/2-y,-z
1/2+x,1/2-y,1/2+z
loop_
_atom_site_type_symbol
_atom_site_label
_atom_site_fract_x
_atom_site_fract_y
_atom_site_fract_z
Si Si1 0.672739 0.021998 0.291796
Si Si2 0.679644 0.192809 0.658395
Si Si3 0.285625 0.052885 0.976287
Si Si4 0.850124 0.255473 0.092144
Si Si5 0.516424 0.604032 0.177212
Si Si6 0.000000 0.729097 0.250000
O O1 0.738710 0.177873 0.328138
O O2 0.581298 0.107779 0.278360
O O3 0.690493 0.963355 0.218946
O O4 0.677756 0.837173 0.340932
O O5 0.667675 0.100807 0.583547
O O6 0.602148 0.321250 0.665725
O O7 0.209731 0.913679 0.943044
O O8 0.250000 0.250000 0.000000
O O9 0.340173 0.933844 0.039356
O O10 0.941612 0.175322 0.117891
O O11 0.500000 0.681406 0.250000
O O12 0.515466 0.374835 0.190589
#
# Coordination Sequence:
#
# PCOD9289582 Si02
#       6
#     8   8   8   8   8   4
#     4  12  21  39  69  98 133 170 228 280 325 395
#     4  12  23  38  67 100 130 176 231 275 334 400
#     4  11  25  44  68  96 137 180 222 273 343 401
#     4  11  23  45  68  94 137 180 218 276 340 398
#     4  10  22  41  61  99 133 169 223 278 330 392
#     4  10  22  40  66 102 140 172 210 292 344 374
#
# _framework density 19.493919999999999
#
# number of rings (size 3 to 8) (size 9 to 14) (size 15 to 20)
#    0.545    0.364    3.636    4.364    0.000    0.727 
#    0.000    0.909    0.000    0.000    0.000    0.000 
#    0.000    0.000    0.000    0.000    0.000    0.000 
#
# Total GULP energy -122937.590079 kJ/mol
# GULP energy per Si atom -5588.072276 kJ/mol
# Density = 1.944955 g / cm^3
# Si number density = 19.493920 Si / 1000 Ang^3
#
#
#
# Elastic Constant Matrix: (Units=GPa)
#
#
# Indices 1 2 3 4 5 6 
#
# 1 82.4652 18.8219 21.5430 0.0000 17.9825 0.0000
# 2 18.8219 94.2188 34.6043 0.0000 4.1144 0.0000
# 3 21.5430 34.6043 101.9774 0.0000 -5.2932 0.0000
# 4 0.0000 0.0000 0.0000 32.5461 0.0000 6.0624
# 5 17.9825 4.1144 -5.2932 0.0000 40.7292 0.0000
# 6 0.0000 0.0000 0.0000 6.0624 0.0000 13.9048
#
#
#
# Elastic Compliance Matrix: (Units=1/GPa)
#
#
# Indices 1 2 3 4 5 6 
#
# 1 0.014714 -0.001572 -0.002923 0.000000 -0.006717 0.000000
# 2 -0.001572 0.012421 -0.003938 0.000000 -0.001072 0.000000
# 3 -0.002923 -0.003938 0.011928 0.000000 0.003239 0.000000
# 4 0.000000 0.000000 0.000000 0.033442 0.000000 -0.014580
# 5 -0.006717 -0.001072 0.003239 0.000000 0.028048 0.000000
# 6 0.000000 0.000000 0.000000 -0.014580 0.000000 0.078274
#
#
# Mechanical properties :
#
#
# Convention : Reuss Voigt Hill
#
# Bulk Modulus (GPa) = 45.05579 47.62222 46.33900
# Shear Modulus (GPa) = 24.61930 31.01551 27.81741
#
# Velocity S-wave (km/s) = 3.55762 3.99311 3.78164
# Velocity P-wave (km/s) = 6.32759 6.76329 6.54907
#
# Compressibility (1/GPa) = 0.02219470
#
# Stress axis : x y z
#
# Youngs Moduli (GPa) = 67.96382 80.50897 83.83491
#
# Poissons Ratio (x) = 0.12658 0.24509
# Poissons Ratio (y) = 0.10686 0.33017
# Poissons Ratio (z) = 0.19869 0.31707
#
# Static dielectric constant tensor:
#      x y z
#    x 1.638950 0.000000 -0.006030 
#    y 0.000000 1.697250 0.000000 
#    z -0.006030 0.000000 1.686230 
# 
# From -- ./inp_files/246535.got.cif
#   From: 2010.05.17/outbox.cif.g08.bks.cpg/sg15_124_cif.got.tgz:246535.got - 2010.06.03 18:47:42.
