data_PCOD9289503
_publ_section_title
;
Structure prediction by ZEFSAII (Michael W. Deem and Ramdas Pophale) SiO2 
 PCOD9289503
Probable space group: C 2/C
;
_chemical_formula_sum "Si O2"
_cell_formula_units_Z 56
_cell_length_a 13.519597
_cell_length_b 16.190937
_cell_length_c 10.029911
_cell_angle_alpha 90.000000
_cell_angle_beta 96.379830
_cell_angle_gamma 90.000000
_cell_volume 2181.900304
_symmetry_space_group_name_H-M "C 2/C"
_symmetry_group_IT_number 15
_symmetry_cell_setting 'monoclinic'
loop_
_space_group_symop_operation_xyz
x,y,z
-x,y,1/2-z
-x,-y,-z
x,-y,1/2+z
1/2+x,1/2+y,z
1/2-x,1/2+y,1/2-z
1/2-x,1/2-y,-z
1/2+x,1/2-y,1/2+z
loop_
_atom_site_type_symbol
_atom_site_label
_atom_site_fract_x
_atom_site_fract_y
_atom_site_fract_z
Si Si1 0.298682 0.172239 0.746403
Si Si2 0.779341 0.870040 0.542818
Si Si3 0.883972 0.606915 0.139471
Si Si4 0.668636 0.662686 0.164023
Si Si5 0.138515 0.495778 0.112108
Si Si6 0.004836 0.090149 0.060816
Si Si7 0.587862 0.297442 0.354084
O O1 0.285091 0.168145 0.585185
O O2 0.365767 0.240507 0.831185
O O3 0.337049 0.081927 0.791790
O O4 0.191089 0.183760 0.799426
O O5 0.770536 0.825990 0.682198
O O6 0.896742 0.871460 0.527305
O O7 0.736933 0.961287 0.564231
O O8 0.764764 0.625769 0.101135
O O9 0.900242 0.564732 0.287347
O O10 0.926648 0.699597 0.132683
O O11 0.913825 0.544812 0.025235
O O12 0.583424 0.594969 0.194499
O O13 0.082574 0.152519 0.992690
O O14 0.000000 0.000000 0.000000
O O15 0.500000 0.332120 0.250000
#
# Coordination Sequence:
#
# PCOD9289503 Si02
#       7
#     8   8   8   8   8   8   8
#     4  11  21  40  65  90 126 175 220 273 327 398
#     4  11  22  37  61  94 130 165 217 271 334 396
#     4  10  22  40  65  91 131 172 225 273 324 395
#     4  10  23  39  60  94 132 173 217 270 336 404
#     4  11  21  40  65  99 125 169 223 273 328 385
#     4  12  24  38  62  96 137 171 210 272 338 406
#     4  11  23  41  63  91 129 176 216 268 338 398
#
# _framework density 25.665700999999999
#
# number of rings (size 3 to 8) (size 9 to 14) (size 15 to 20)
#    0.000    1.143    2.857    4.286    2.000    3.429 
#    0.000    0.714    0.000    1.714    0.000    0.000 
#    0.000    0.000    0.000    0.000    0.000    0.000 
#
# Total GULP energy -156256.710354 kJ/mol
# GULP energy per Si atom -5580.596798 kJ/mol
# Density = 2.560728 g / cm^3
# Si number density = 25.665701 Si / 1000 Ang^3
#
#
#
# Elastic Constant Matrix: (Units=GPa)
#
#
# Indices 1 2 3 4 5 6 
#
# 1 59.9634 4.6718 5.8825 0.0000 6.1661 0.0000
# 2 4.6718 116.0693 13.8637 0.0000 1.6483 0.0000
# 3 5.8825 13.8637 118.6349 0.0000 23.8763 0.0000
# 4 0.0000 0.0000 0.0000 32.3244 0.0000 0.4603
# 5 6.1661 1.6483 23.8763 0.0000 41.0265 0.0000
# 6 0.0000 0.0000 0.0000 0.4603 0.0000 34.6033
#
#
#
# Elastic Compliance Matrix: (Units=1/GPa)
#
#
# Indices 1 2 3 4 5 6 
#
# 1 0.016996 -0.000615 -0.000296 0.000000 -0.002357 0.000000
# 2 -0.000615 0.008763 -0.001066 0.000000 0.000361 0.000000
# 3 -0.000296 -0.001066 0.009685 0.000000 -0.005549 0.000000
# 4 0.000000 0.000000 0.000000 0.030942 0.000000 -0.000412
# 5 -0.002357 0.000361 -0.005549 0.000000 0.027944 0.000000
# 6 0.000000 0.000000 0.000000 -0.000412 0.000000 0.028904
#
#
# Mechanical properties :
#
#
# Convention : Reuss Voigt Hill
#
# Bulk Modulus (GPa) = 31.75755 38.16704 34.96230
# Shear Modulus (GPa) = 36.31444 39.60748 37.96096
#
# Velocity S-wave (km/s) = 3.76560 3.93263 3.85002
# Velocity P-wave (km/s) = 5.59524 5.96019 5.78060
#
# Compressibility (1/GPa) = 0.03148857
#
# Stress axis : x y z
#
# Youngs Moduli (GPa) = 58.83649 114.12240 103.24890
#
# Poissons Ratio (x) = 0.07021 0.03061
# Poissons Ratio (y) = 0.03620 0.11007
# Poissons Ratio (z) = 0.01744 0.12167
#
# Static dielectric constant tensor:
#      x y z
#    x 2.092460 0.000000 0.025430 
#    y 0.000000 2.162650 0.000000 
#    z 0.025430 0.000000 2.324570 
# 
# From -- ./inp_files/97017.got.cif
#   From: 2010.05.17/outbox.cif.g08.bks.cpg/sg15_49_cif.got.tgz:97017.got - 2010.06.03 18:47:42.
