data_PCOD9289195
_publ_section_title
;
Structure prediction by ZEFSAII (Michael W. Deem and Ramdas Pophale) SiO2 
 PCOD9289195
Probable space group: C 2/C
;
_chemical_formula_sum "Si O2"
_cell_formula_units_Z 32
_cell_length_a 16.536575
_cell_length_b 8.210474
_cell_length_c 26.211240
_cell_angle_alpha 90.000000
_cell_angle_beta 154.992930
_cell_angle_gamma 90.000000
_cell_volume 1504.404163
_symmetry_space_group_name_H-M "C 2/C"
_symmetry_group_IT_number 15
_symmetry_cell_setting 'monoclinic'
loop_
_space_group_symop_operation_xyz
x,y,z
-x,y,1/2-z
-x,-y,-z
x,-y,1/2+z
1/2+x,1/2+y,z
1/2-x,1/2+y,1/2-z
1/2-x,1/2-y,-z
1/2+x,1/2-y,1/2+z
loop_
_atom_site_type_symbol
_atom_site_label
_atom_site_fract_x
_atom_site_fract_y
_atom_site_fract_z
Si Si1 0.291399 0.875117 0.824004
Si Si2 0.577811 0.383312 0.500857
Si Si3 0.804959 0.466787 0.437351
Si Si4 0.136064 0.082472 0.441625
O O1 0.387408 0.701009 0.868530
O O2 0.090273 0.890135 0.682490
O O3 0.259475 0.907301 0.866471
O O4 0.473788 0.992850 0.917857
O O5 0.500000 0.500000 0.500000
O O6 0.692068 0.219036 0.582124
O O7 0.693229 0.482160 0.524381
O O8 0.674241 0.482499 0.411756
O O9 0.250000 0.250000 0.500000
#
# Coordination Sequence:
#
# PCOD9289195 Si02
#       4
#     8   8   8   8
#     4   9  22  40  65  85 128 158 199 254 309 350
#     4  10  22  40  62  87 123 161 200 250 304 356
#     4   9  21  42  63  85 123 162 201 248 304 361
#     4  12  24  37  65  95 121 159 209 247 304 370
#
# _framework density 21.270879000000001
#
# number of rings (size 3 to 8) (size 9 to 14) (size 15 to 20)
#    1.500    0.500    0.000    3.000    3.500    0.000 
#    0.000    5.000    0.000    0.000    0.000    0.000 
#    0.000    0.000    0.000    0.000    0.000    0.000 
#
# Total GULP energy -89072.074866 kJ/mol
# GULP energy per Si atom -5567.004679 kJ/mol
# Density = 2.122247 g / cm^3
# Si number density = 21.270879 Si / 1000 Ang^3
#
#
#
# Elastic Constant Matrix: (Units=GPa)
#
#
# Indices 1 2 3 4 5 6 
#
# 1 78.4961 36.0783 -32.8871 0.0002 6.0130 0.0000
# 2 36.0783 105.0456 -1.7260 0.0002 -5.5239 0.0000
# 3 -32.8871 -1.7260 52.0435 0.0032 14.3296 -0.0001
# 4 0.0002 0.0002 0.0032 20.6305 -0.0005 4.8156
# 5 6.0130 -5.5239 14.3296 -0.0005 13.7546 -0.0002
# 6 0.0000 0.0000 -0.0001 4.8156 -0.0002 47.9744
#
#
#
# Elastic Compliance Matrix: (Units=1/GPa)
#
#
# Indices 1 2 3 4 5 6 
#
# 1 0.059795 -0.024962 0.065786 -0.000013 -0.104701 0.000001
# 2 -0.024962 0.020187 -0.028523 0.000006 0.048735 0.000000
# 3 0.065786 -0.028523 0.099436 -0.000020 -0.143808 0.000002
# 4 -0.000013 0.000006 -0.000020 0.049635 0.000031 -0.004982
# 5 -0.104701 0.048735 -0.143808 0.000031 0.287867 -0.000002
# 6 0.000001 0.000000 0.000002 -0.004982 -0.000002 0.021345
#
#
# Mechanical properties :
#
#
# Convention : Reuss Voigt Hill
#
# Bulk Modulus (GPa) = 4.90147 26.50173 15.70160
# Shear Modulus (GPa) = 8.59596 32.07988 20.33792
#
# Velocity S-wave (km/s) = 2.01245 3.88772 3.09550
# Velocity P-wave (km/s) = 2.77656 5.71303 4.49154
#
# Compressibility (1/GPa) = 0.20402052
#
# Stress axis : x y z
#
# Youngs Moduli (GPa) = 16.72386 49.53687 10.05673
#
# Poissons Ratio (x) = 1.23652 -0.66159
# Poissons Ratio (y) = 0.41746 0.28685
# Poissons Ratio (z) = -1.10019 1.41293
#
# Static dielectric constant tensor:
#      x y z
#    x 1.764490 0.000000 0.008830 
#    y 0.000000 1.798780 0.000000 
#    z 0.008830 0.000000 1.805270 
# 
# From -- ./inp_files/116621.got.cif
#   From: 2010.05.17/outbox.cif.g08.bks.cpg/sg15_59_cif.got.tgz:116621.got - 2010.06.03 18:47:42.
