data_PCOD9289379
_publ_section_title
;
Structure prediction by ZEFSAII (Michael W. Deem and Ramdas Pophale) SiO2 
 PCOD9289379
Probable space group: C 2/C
;
_chemical_formula_sum "Si O2"
_cell_formula_units_Z 32
_cell_length_a 19.886555
_cell_length_b 5.190018
_cell_length_c 22.133708
_cell_angle_alpha 90.000000
_cell_angle_beta 142.095157
_cell_angle_gamma 90.000000
_cell_volume 1403.459224
_symmetry_space_group_name_H-M "C 2/C"
_symmetry_group_IT_number 15
_symmetry_cell_setting 'monoclinic'
loop_
_space_group_symop_operation_xyz
x,y,z
-x,y,1/2-z
-x,-y,-z
x,-y,1/2+z
1/2+x,1/2+y,z
1/2-x,1/2+y,1/2-z
1/2-x,1/2-y,-z
1/2+x,1/2-y,1/2+z
loop_
_atom_site_type_symbol
_atom_site_label
_atom_site_fract_x
_atom_site_fract_y
_atom_site_fract_z
Si Si1 0.191302 0.182294 0.546662
Si Si2 0.000391 0.900342 0.150521
Si Si3 0.435942 0.752621 0.932520
Si Si4 0.671601 0.335444 0.374108
O O1 0.173539 0.248959 0.605165
O O2 0.250375 0.422516 0.557535
O O3 0.073068 0.128124 0.431331
O O4 0.259323 0.917016 0.592980
O O5 0.908137 0.766050 0.126853
O O6 0.057281 0.755681 0.134880
O O7 0.095814 0.944907 0.266332
O O8 0.500000 0.500000 0.000000
O O9 0.500000 0.000000 0.000000
#
# Coordination Sequence:
#
# PCOD9289379 Si02
#       4
#     8   8   8   8
#     4  11  23  42  64  93 128 170 215 263 320 383
#     4  10  24  43  64  94 133 166 214 272 316 380
#     4  10  22  40  64  90 123 166 205 256 318 370
#     4  11  25  40  66  96 125 172 217 261 325 379
#
# _framework density 22.800802999999998
#
# number of rings (size 3 to 8) (size 9 to 14) (size 15 to 20)
#    0.000    1.500    0.000    4.500    0.000   16.000 
#    0.000    0.000    0.000    0.000    0.000    0.000 
#    0.000    0.000    0.000    0.000    0.000    0.000 
#
# Total GULP energy -89306.584309 kJ/mol
# GULP energy per Si atom -5581.661519 kJ/mol
# Density = 2.274891 g / cm^3
# Si number density = 22.800803 Si / 1000 Ang^3
#
#
#
# Elastic Constant Matrix: (Units=GPa)
#
#
# Indices 1 2 3 4 5 6 
#
# 1 141.8177 31.8713 41.4780 0.0010 -21.4132 0.0072
# 2 31.8713 127.9980 33.4151 0.0001 16.3330 0.0103
# 3 41.4780 33.4151 133.3033 -0.0001 -10.8842 -0.0004
# 4 0.0010 0.0001 -0.0001 17.8858 -0.0006 -1.0800
# 5 -21.4132 16.3330 -10.8842 -0.0006 39.7570 0.0003
# 6 0.0072 0.0103 -0.0004 -1.0800 0.0003 23.6561
#
#
#
# Elastic Compliance Matrix: (Units=1/GPa)
#
#
# Indices 1 2 3 4 5 6 
#
# 1 0.008911 -0.002450 -0.001723 0.000000 0.005334 -0.000002
# 2 -0.002450 0.009742 -0.002163 0.000000 -0.005914 -0.000003
# 3 -0.001723 -0.002163 0.008773 0.000000 0.002362 0.000002
# 4 0.000000 0.000000 0.000000 0.056065 0.000001 0.002560
# 5 0.005334 -0.005914 0.002362 0.000001 0.031102 0.000001
# 6 -0.000002 -0.000003 0.000002 0.002560 0.000001 0.042389
#
#
# Mechanical properties :
#
#
# Convention : Reuss Voigt Hill
#
# Bulk Modulus (GPa) = 67.77398 68.51642 68.14520
# Shear Modulus (GPa) = 28.64163 36.01675 32.32919
#
# Velocity S-wave (km/s) = 3.54809 3.97876 3.76958
# Velocity P-wave (km/s) = 6.82453 7.15700 6.99274
#
# Compressibility (1/GPa) = 0.01475492
#
# Stress axis : x y z
#
# Youngs Moduli (GPa) = 112.21767 102.65106 113.98857
#
# Poissons Ratio (x) = 0.25146 0.19642
# Poissons Ratio (y) = 0.27490 0.24651
# Poissons Ratio (z) = 0.19337 0.22199
#
# Static dielectric constant tensor:
#      x y z
#    x 1.944050 0.000000 -0.050660 
#    y 0.000000 1.777170 0.000000 
#    z -0.050660 0.000000 1.881620 
# 
# From -- ./inp_files/250929.got.cif
#   From: 2010.05.17/outbox.cif.g08.bks.cpg/sg15_126_cif.got.tgz:250929.got - 2010.06.03 18:47:42.
