data_PCOD9289545
_publ_section_title
;
Structure prediction by ZEFSAII (Michael W. Deem and Ramdas Pophale) SiO2 
 PCOD9289545
Probable space group: C 2/C
;
_chemical_formula_sum "Si O2"
_cell_formula_units_Z 40
_cell_length_a 26.500908
_cell_length_b 5.358643
_cell_length_c 10.401971
_cell_angle_alpha 90.000000
_cell_angle_beta 86.801965
_cell_angle_gamma 90.000000
_cell_volume 1474.872080
_symmetry_space_group_name_H-M "C 2/C"
_symmetry_group_IT_number 15
_symmetry_cell_setting 'monoclinic'
loop_
_space_group_symop_operation_xyz
x,y,z
-x,y,1/2-z
-x,-y,-z
x,-y,1/2+z
1/2+x,1/2+y,z
1/2-x,1/2+y,1/2-z
1/2-x,1/2-y,-z
1/2+x,1/2-y,1/2+z
loop_
_atom_site_type_symbol
_atom_site_label
_atom_site_fract_x
_atom_site_fract_y
_atom_site_fract_z
Si Si1 0.313439 0.449534 0.098436
Si Si2 0.199608 0.713148 0.662804
Si Si3 0.536223 0.683202 0.571957
Si Si4 0.124621 0.305753 0.704412
Si Si5 0.958996 0.614878 0.680479
O O1 0.259436 0.323413 0.140027
O O2 0.312017 0.697135 0.189393
O O3 0.357498 0.292969 0.160473
O O4 0.316581 0.419843 0.942968
O O5 0.172385 0.449423 0.636415
O O6 0.500000 0.500000 0.500000
O O7 0.583145 0.610760 0.654790
O O8 0.566009 0.797967 0.446144
O O9 0.495975 0.886694 0.630308
O O10 0.085516 0.534428 0.722385
O O11 0.000000 0.786239 0.750000
#
# Coordination Sequence:
#
# PCOD9289545 Si02
#       5
#     8   8   8   8   8
#     4  11  25  44  70 101 140 193 246 300 362 432
#     4  11  25  45  69 103 144 190 249 302 360 428
#     4  10  22  40  65  96 134 178 233 290 350 430
#     4  11  23  42  67 101 140 188 234 298 363 426
#     4   9  21  39  60  91 134 175 225 288 353 419
#
# _framework density 27.120995000000001
#
# number of rings (size 3 to 8) (size 9 to 14) (size 15 to 20)
#    0.000    1.600    2.000    1.200    0.000   14.400 
#    0.000    0.000    0.000    0.000    0.000    0.000 
#    0.000    0.000    0.000    0.000    0.000    0.000 
#
# Total GULP energy -111489.884868 kJ/mol
# GULP energy per Si atom -5574.494243 kJ/mol
# Density = 2.705927 g / cm^3
# Si number density = 27.120995 Si / 1000 Ang^3
#
#
#
# Elastic Constant Matrix: (Units=GPa)
#
#
# Indices 1 2 3 4 5 6 
#
# 1 157.3127 25.0941 26.2248 0.0000 46.7973 0.0000
# 2 25.0941 80.1970 18.3832 0.0000 17.8772 0.0000
# 3 26.2248 18.3832 98.9593 0.0000 27.5647 0.0000
# 4 0.0000 0.0000 0.0000 19.2633 0.0000 4.4427
# 5 46.7973 17.8772 27.5647 0.0000 48.0340 0.0000
# 6 0.0000 0.0000 0.0000 4.4427 0.0000 38.0964
#
#
#
# Elastic Compliance Matrix: (Units=1/GPa)
#
#
# Indices 1 2 3 4 5 6 
#
# 1 0.009018 -0.000959 0.000162 0.000000 -0.008522 0.000000
# 2 -0.000959 0.013848 -0.001360 0.000000 -0.003439 0.000000
# 3 0.000162 -0.001360 0.012162 0.000000 -0.006631 0.000000
# 4 0.000000 0.000000 0.000000 0.053347 0.000000 -0.006221
# 5 -0.008522 -0.003439 -0.006631 0.000000 0.034206 0.000000
# 6 0.000000 0.000000 0.000000 -0.006221 0.000000 0.026975
#
#
# Mechanical properties :
#
#
# Convention : Reuss Voigt Hill
#
# Bulk Modulus (GPa) = 32.56025 52.87481 42.71753
# Shear Modulus (GPa) = 30.46782 38.86318 34.66550
#
# Velocity S-wave (km/s) = 3.35536 3.78955 3.57904
# Velocity P-wave (km/s) = 5.20027 6.21979 5.73274
#
# Compressibility (1/GPa) = 0.03071230
#
# Stress axis : x y z
#
# Youngs Moduli (GPa) = 110.89209 72.21354 82.22387
#
# Poissons Ratio (x) = 0.06927 -0.01333
# Poissons Ratio (y) = 0.10638 0.11186
# Poissons Ratio (z) = -0.01798 0.09824
#
# Static dielectric constant tensor:
#      x y z
#    x 2.061970 0.000000 -0.015100 
#    y 0.000000 2.420760 0.000000 
#    z -0.015100 0.000000 2.851790 
# 
# From -- ./inp_files/120809.got.cif
#   From: 2010.05.17/outbox.cif.g08.bks.cpg/sg15_61_cif.got.tgz:120809.got - 2010.06.03 18:47:42.
