data_PCOD9289962
_publ_section_title
;
Structure prediction by ZEFSAII (Michael W. Deem and Ramdas Pophale) SiO2 
 PCOD9289962
Probable space group: C 2/C
;
_chemical_formula_sum "Si O2"
_cell_formula_units_Z 56
_cell_length_a 5.252555
_cell_length_b 17.531452
_cell_length_c 30.442394
_cell_angle_alpha 90.000000
_cell_angle_beta 59.897642
_cell_angle_gamma 90.000000
_cell_volume 2425.208390
_symmetry_space_group_name_H-M "C 2/C"
_symmetry_group_IT_number 15
_symmetry_cell_setting 'monoclinic'
loop_
_space_group_symop_operation_xyz
x,y,z
-x,y,1/2-z
-x,-y,-z
x,-y,1/2+z
1/2+x,1/2+y,z
1/2-x,1/2+y,1/2-z
1/2-x,1/2-y,-z
1/2+x,1/2-y,1/2+z
loop_
_atom_site_type_symbol
_atom_site_label
_atom_site_fract_x
_atom_site_fract_y
_atom_site_fract_z
Si Si1 0.246486 0.048325 0.142375
Si Si2 0.082156 0.332022 0.015629
Si Si3 0.500000 0.566209 0.250000
Si Si4 0.090159 0.089029 0.855281
Si Si5 0.716241 0.530731 0.942291
Si Si6 0.500000 0.967271 0.250000
Si Si7 0.550038 0.340778 0.594381
Si Si8 0.455242 0.741639 0.904147
O O1 0.559365 0.037686 0.090887
O O2 0.149425 0.959793 0.150770
O O3 0.214049 0.093416 0.191317
O O4 0.012504 0.092152 0.132043
O O5 0.134527 0.391869 0.050386
O O6 0.745416 0.304862 0.043245
O O7 0.250000 0.250000 0.000000
O O8 0.227603 0.372665 0.961709
O O9 0.734103 0.519409 0.257571
O O10 0.093041 0.057115 0.905192
O O11 0.390389 0.077323 0.802370
O O12 0.025892 0.177919 0.862499
O O13 0.500000 0.500000 0.000000
O O14 0.262516 0.303854 0.598219
O O15 0.752626 0.276994 0.600793
#
# Coordination Sequence:
#
# PCOD9289962 Si02
#       8
#     8   8   4   8   8   4   8   8
#     4  11  25  43  69  99 139 174 238 282 343 406
#     4  10  22  41  60  93 134 184 217 260 339 407
#     4  10  22  44  69 100 131 180 222 282 344 404
#     4  11  23  43  70  98 136 176 235 283 343 407
#     4  12  25  39  68 105 141 174 228 289 346 403
#     4  10  22  40  71 100 129 170 226 286 340 394
#     4  11  26  41  65  96 138 180 221 272 340 406
#     4  11  24  43  66  95 135 179 226 273 336 414
#
# _framework density 23.090800000000002
#
# number of rings (size 3 to 8) (size 9 to 14) (size 15 to 20)
#    0.000    1.143    2.857    3.000    8.000    1.143 
#    0.000    0.714    0.000    3.429    0.000    0.000 
#    0.000    0.000    0.000    0.000    0.000    0.000 
#
# Total GULP energy -156051.563710 kJ/mol
# GULP energy per Si atom -5573.270133 kJ/mol
# Density = 2.303824 g / cm^3
# Si number density = 23.090800 Si / 1000 Ang^3
#
#
#
# Elastic Constant Matrix: (Units=GPa)
#
#
# Indices 1 2 3 4 5 6 
#
# 1 66.8731 24.7201 11.2296 0.0000 2.0568 0.0000
# 2 24.7201 74.4391 19.0363 0.0000 5.3841 0.0000
# 3 11.2296 19.0363 142.7801 0.0000 0.6202 0.0000
# 4 0.0000 0.0000 0.0000 23.9444 0.0000 7.4328
# 5 2.0568 5.3841 0.6202 0.0000 38.1731 0.0000
# 6 0.0000 0.0000 0.0000 7.4328 0.0000 45.8621
#
#
#
# Elastic Compliance Matrix: (Units=1/GPa)
#
#
# Indices 1 2 3 4 5 6 
#
# 1 0.017098 -0.005512 -0.000609 0.000000 -0.000134 0.000000
# 2 -0.005512 0.015829 -0.001669 0.000000 -0.001908 0.000000
# 3 -0.000609 -0.001669 0.007274 0.000000 0.000150 0.000000
# 4 0.000000 0.000000 0.000000 0.043976 0.000000 -0.007127
# 5 -0.000134 -0.001908 0.000150 0.000000 0.026470 0.000000
# 6 0.000000 0.000000 0.000000 -0.007127 0.000000 0.022960
#
#
# Mechanical properties :
#
#
# Convention : Reuss Voigt Hill
#
# Bulk Modulus (GPa) = 40.61743 43.78493 42.20118
# Shear Modulus (GPa) = 31.76752 36.86967 34.31859
#
# Velocity S-wave (km/s) = 3.71315 4.00024 3.85937
# Velocity P-wave (km/s) = 6.00099 6.35131 6.17863
#
# Compressibility (1/GPa) = 0.02461997
#
# Stress axis : x y z
#
# Youngs Moduli (GPa) = 58.48692 63.17460 137.48526
#
# Poissons Ratio (x) = 0.34825 0.08376
# Poissons Ratio (y) = 0.32241 0.22941
# Poissons Ratio (z) = 0.03563 0.10541
#
# Static dielectric constant tensor:
#      x y z
#    x 1.925800 0.000000 -0.053180 
#    y 0.000000 1.896750 0.000000 
#    z -0.053180 0.000000 2.070490 
# 
# From -- ./inp_files/305765.got.cif
#   From: 2010.05.17/outbox.cif.g08.bks.cpg/sg15_153_cif.got.tgz:305765.got - 2010.06.03 18:47:42.
