data_PCOD9289247
_publ_section_title
;
Structure prediction by ZEFSAII (Michael W. Deem and Ramdas Pophale) SiO2 
 PCOD9289247
Probable space group: C 2/C
;
_chemical_formula_sum "Si O2"
_cell_formula_units_Z 52
_cell_length_a 13.908145
_cell_length_b 23.289555
_cell_length_c 9.654145
_cell_angle_alpha 90.000000
_cell_angle_beta 56.374222
_cell_angle_gamma 90.000000
_cell_volume 2603.863850
_symmetry_space_group_name_H-M "C 2/C"
_symmetry_group_IT_number 15
_symmetry_cell_setting 'monoclinic'
loop_
_space_group_symop_operation_xyz
x,y,z
-x,y,1/2-z
-x,-y,-z
x,-y,1/2+z
1/2+x,1/2+y,z
1/2-x,1/2+y,1/2-z
1/2-x,1/2-y,-z
1/2+x,1/2-y,1/2+z
loop_
_atom_site_type_symbol
_atom_site_label
_atom_site_fract_x
_atom_site_fract_y
_atom_site_fract_z
Si Si1 0.227788 0.198118 0.125500
Si Si2 0.500000 0.641235 0.250000
Si Si3 0.005817 0.069266 0.984506
Si Si4 0.757447 0.090119 0.842714
Si Si5 0.254213 0.120551 0.340568
Si Si6 0.124115 0.474474 0.943941
Si Si7 0.872464 0.386637 0.331146
O O1 0.093614 0.183993 0.237101
O O2 0.266542 0.182472 0.252612
O O3 0.250000 0.250000 0.000000
O O4 0.285618 0.146676 0.996646
O O5 0.546524 0.598401 0.095613
O O6 0.876869 0.094579 0.066430
O O7 0.105329 0.089255 0.798184
O O8 0.000000 0.000000 0.000000
O O9 0.679625 0.114739 0.779695
O O10 0.719176 0.023832 0.874218
O O11 0.724847 0.120158 0.012407
O O12 0.336739 0.074806 0.195605
O O13 0.119506 0.448555 0.102384
O O14 0.000000 0.500000 0.000000
O O15 0.000000 0.360951 0.250000
#
# Coordination Sequence:
#
# PCOD9289247 Si02
#       7
#     8   4   8   8   8   8   8
#     4  10  23  45  66  85 116 159 217 274 324 373
#     4  10  22  40  62  94 120 160 218 254 308 396
#     4  11  22  34  58  89 132 171 203 250 320 386
#     4  12  22  36  59  90 134 167 205 261 317 377
#     4  10  24  38  58  93 122 168 221 258 317 387
#     4  11  22  37  55  85 136 179 207 244 308 384
#     4  11  23  40  59  91 121 165 219 256 308 386
#
# _framework density 19.970321999999999
#
# number of rings (size 3 to 8) (size 9 to 14) (size 15 to 20)
#    0.000    1.231    4.615    1.385    3.231    0.000 
#    0.000    0.769    0.000    0.000    4.000    0.000 
#    0.000    0.000    0.000    0.000    0.000    0.000 
#
# Total GULP energy -144807.489696 kJ/mol
# GULP energy per Si atom -5569.518834 kJ/mol
# Density = 1.992487 g / cm^3
# Si number density = 19.970322 Si / 1000 Ang^3
#
#
#
# Elastic Constant Matrix: (Units=GPa)
#
#
# Indices 1 2 3 4 5 6 
#
# 1 94.6089 11.4658 39.9195 0.0000 6.1851 0.0000
# 2 11.4658 51.9552 24.9404 0.0000 7.7295 0.0000
# 3 39.9195 24.9404 125.1069 0.0000 24.0293 0.0000
# 4 0.0000 0.0000 0.0000 27.4204 0.0000 1.0898
# 5 6.1851 7.7295 24.0293 0.0000 44.8955 0.0000
# 6 0.0000 0.0000 0.0000 1.0898 0.0000 10.2022
#
#
#
# Elastic Compliance Matrix: (Units=1/GPa)
#
#
# Indices 1 2 3 4 5 6 
#
# 1 0.012264 -0.000948 -0.003824 0.000000 0.000521 0.000000
# 2 -0.000948 0.021455 -0.003667 0.000000 -0.001600 0.000000
# 3 -0.003824 -0.003667 0.010836 0.000000 -0.004641 0.000000
# 4 0.000000 0.000000 0.000000 0.036625 0.000000 -0.003912
# 5 0.000521 -0.001600 -0.004641 0.000000 0.024962 0.000000
# 6 0.000000 0.000000 0.000000 -0.003912 0.000000 0.098436
#
#
# Mechanical properties :
#
#
# Convention : Reuss Voigt Hill
#
# Bulk Modulus (GPa) = 36.13230 47.14694 41.63962
# Shear Modulus (GPa) = 21.67475 29.52663 25.60069
#
# Velocity S-wave (km/s) = 3.29804 3.84933 3.58430
# Velocity P-wave (km/s) = 5.71271 6.58910 6.16649
#
# Compressibility (1/GPa) = 0.02767607
#
# Stress axis : x y z
#
# Youngs Moduli (GPa) = 81.53718 46.60894 92.28517
#
# Poissons Ratio (x) = 0.04420 0.35292
# Poissons Ratio (y) = 0.07732 0.33843
# Poissons Ratio (z) = 0.31182 0.17092
#
# Static dielectric constant tensor:
#      x y z
#    x 1.758680 0.000000 0.065410 
#    y 0.000000 1.876840 0.000000 
#    z 0.065410 0.000000 1.679600 
# 
# From -- ./inp_files/42073.got.cif
#   From: 2010.05.17/outbox.cif.g08.bks.cpg/sg15_22_cif.got.tgz:42073.got - 2010.06.03 18:47:42.
