data_PCOD9289142
_publ_section_title
;
Structure prediction by ZEFSAII (Michael W. Deem and Ramdas Pophale) SiO2 
 PCOD9289142
Probable space group: C 2/C
;
_chemical_formula_sum "Si O2"
_cell_formula_units_Z 44
_cell_length_a 21.360448
_cell_length_b 19.593077
_cell_length_c 5.104094
_cell_angle_alpha 90.000000
_cell_angle_beta 76.399424
_cell_angle_gamma 90.000000
_cell_volume 2076.249063
_symmetry_space_group_name_H-M "C 2/C"
_symmetry_group_IT_number 15
_symmetry_cell_setting 'monoclinic'
loop_
_space_group_symop_operation_xyz
x,y,z
-x,y,1/2-z
-x,-y,-z
x,-y,1/2+z
1/2+x,1/2+y,z
1/2-x,1/2+y,1/2-z
1/2-x,1/2-y,-z
1/2+x,1/2-y,1/2+z
loop_
_atom_site_type_symbol
_atom_site_label
_atom_site_fract_x
_atom_site_fract_y
_atom_site_fract_z
Si Si1 0.314354 0.654470 0.885939
Si Si2 0.823885 0.312053 0.754296
Si Si3 0.756819 0.956937 0.096690
Si Si4 0.129718 0.381593 0.285544
Si Si5 0.000000 0.549130 0.750000
Si Si6 0.925292 0.951510 0.333432
O O1 0.330497 0.732578 0.810733
O O2 0.291423 0.612130 0.652384
O O3 0.375460 0.610609 0.920837
O O4 0.249139 0.661107 0.123936
O O5 0.843061 0.324317 0.437137
O O6 0.866449 0.355356 0.920384
O O7 0.680775 0.942793 0.200036
O O8 0.772825 0.013400 0.299898
O O9 0.061869 0.404354 0.240468
O O10 0.000000 0.500000 0.500000
O O11 0.000000 0.927819 0.250000
O O12 0.916260 0.007185 0.571443
#
# Coordination Sequence:
#
# PCOD9289142 Si02
#       6
#     8   8   8   8   4   8
#     4  10  22  40  63  90 123 166 200 257 313 365
#     4  10  24  40  62  89 126 161 209 253 307 370
#     4  11  21  34  58  89 117 149 199 250 300 357
#     4  11  23  42  59  91 125 161 205 256 300 374
#     4  12  24  42  68  90 124 168 202 256 318 362
#     4  10  22  40  61  89 123 159 205 256 309 372
#
# _framework density 21.192063999999998
#
# number of rings (size 3 to 8) (size 9 to 14) (size 15 to 20)
#    0.000    1.455    0.000    5.455    0.000   12.364 
#    3.273    0.000    0.000    0.000    0.000    0.000 
#    0.000    0.000    0.000    0.000    0.000    0.000 
#
# Total GULP energy -123034.644988 kJ/mol
# GULP energy per Si atom -5592.483863 kJ/mol
# Density = 2.114383 g / cm^3
# Si number density = 21.192064 Si / 1000 Ang^3
#
#
#
# Elastic Constant Matrix: (Units=GPa)
#
#
# Indices 1 2 3 4 5 6 
#
# 1 129.2866 44.7385 -0.3844 0.0000 -22.4603 0.0000
# 2 44.7385 104.2994 17.2594 0.0000 -11.3936 0.0000
# 3 -0.3844 17.2594 45.7561 0.0000 7.4703 0.0000
# 4 0.0000 0.0000 0.0000 24.6476 0.0000 -5.4079
# 5 -22.4603 -11.3936 7.4703 0.0000 23.0307 0.0000
# 6 0.0000 0.0000 0.0000 -5.4079 0.0000 22.5325
#
#
#
# Elastic Compliance Matrix: (Units=1/GPa)
#
#
# Indices 1 2 3 4 5 6 
#
# 1 0.010425 -0.003567 0.000065 0.000000 0.008382 0.000000
# 2 -0.003567 0.012516 -0.005485 0.000000 0.004492 0.000000
# 3 0.000065 -0.005485 0.025719 0.000000 -0.010993 0.000000
# 4 0.000000 0.000000 0.000000 0.042827 0.000000 0.010279
# 5 0.008382 0.004492 -0.010993 0.000000 0.057382 0.000000
# 6 0.000000 0.000000 0.000000 0.010279 0.000000 0.046847
#
#
# Mechanical properties :
#
#
# Convention : Reuss Voigt Hill
#
# Bulk Modulus (GPa) = 32.58728 44.72990 38.65859
# Shear Modulus (GPa) = 22.32943 28.55741 25.44342
#
# Velocity S-wave (km/s) = 3.24955 3.67488 3.46874
# Velocity P-wave (km/s) = 5.43046 6.25772 5.85871
#
# Compressibility (1/GPa) = 0.03068682
#
# Stress axis : x y z
#
# Youngs Moduli (GPa) = 95.92002 79.89688 38.88170
#
# Poissons Ratio (x) = 0.28499 -0.00251
# Poissons Ratio (y) = 0.34215 0.21325
# Poissons Ratio (z) = -0.00620 0.43820
#
# Static dielectric constant tensor:
#      x y z
#    x 1.806680 0.000000 -0.011150 
#    y 0.000000 1.763770 0.000000 
#    z -0.011150 0.000000 1.762770 
# 
# From -- ./inp_files/12886.got.cif
#   From: 2010.05.17/outbox.cif.g08.bks.cpg/sg15_7_cif.got.tgz:12886.got - 2010.06.03 18:47:42.
