data_PCOD9289804
_publ_section_title
;
Structure prediction by ZEFSAII (Michael W. Deem and Ramdas Pophale) SiO2 
 PCOD9289804
Probable space group: C 2/C
;
_chemical_formula_sum "Si O2"
_cell_formula_units_Z 52
_cell_length_a 30.954196
_cell_length_b 13.624735
_cell_length_c 18.629373
_cell_angle_alpha 90.000000
_cell_angle_beta 19.629294
_cell_angle_gamma 90.000000
_cell_volume 2639.360598
_symmetry_space_group_name_H-M "C 2/C"
_symmetry_group_IT_number 15
_symmetry_cell_setting 'monoclinic'
loop_
_space_group_symop_operation_xyz
x,y,z
-x,y,1/2-z
-x,-y,-z
x,-y,1/2+z
1/2+x,1/2+y,z
1/2-x,1/2+y,1/2-z
1/2-x,1/2-y,-z
1/2+x,1/2-y,1/2+z
loop_
_atom_site_type_symbol
_atom_site_label
_atom_site_fract_x
_atom_site_fract_y
_atom_site_fract_z
Si Si1 0.995943 0.543500 0.602874
Si Si2 0.751868 0.775891 0.817941
Si Si3 0.500000 0.101024 0.750000
Si Si4 0.212319 0.436622 0.182675
Si Si5 0.838479 0.731827 0.201235
Si Si6 0.118173 0.890017 0.114058
Si Si7 0.513877 0.394871 0.439011
O O1 0.102770 0.466039 0.411379
O O2 0.055452 0.648257 0.484397
O O3 0.977983 0.537886 0.714588
O O4 0.859955 0.535014 0.777424
O O5 0.759046 0.676464 0.852205
O O6 0.733197 0.749839 0.762676
O O7 0.876175 0.843003 0.638514
O O8 0.624736 0.833591 0.040275
O O9 0.334956 0.506610 0.993894
O O10 0.737323 0.682988 0.414253
O O11 0.906078 0.823729 0.132944
O O12 0.080332 0.902038 0.256407
O O13 0.000000 0.854797 0.250000
O O14 0.500000 0.500000 0.500000
#
# Coordination Sequence:
#
# PCOD9289804 Si02
#       7
#     8   8   4   8   8   8   8
#     4   9  20  42  63  90 124 172 212 268 327 399
#     4  11  24  44  66  97 133 175 220 276 338 394
#     4  10  24  38  62  94 132 166 214 272 332 396
#     4  10  22  40  68  91 128 171 220 266 333 394
#     4  10  22  45  68  92 135 177 220 276 335 395
#     4  11  24  43  68  98 136 174 223 277 336 398
#     4  12  27  44  70 101 134 176 229 283 330 395
#
# _framework density 19.701741999999999
#
# number of rings (size 3 to 8) (size 9 to 14) (size 15 to 20)
#    0.000    1.538    3.077    0.462    5.385    1.846 
#    0.000    0.000    1.692    0.000    0.000    0.000 
#    0.000    0.000    0.000    0.000    0.000    0.000 
#
# Total GULP energy -145184.229346 kJ/mol
# GULP energy per Si atom -5584.008821 kJ/mol
# Density = 1.965690 g / cm^3
# Si number density = 19.701742 Si / 1000 Ang^3
#
#
#
# Elastic Constant Matrix: (Units=GPa)
#
#
# Indices 1 2 3 4 5 6 
#
# 1 132.5442 14.4564 33.9751 0.0000 0.5786 0.0000
# 2 14.4564 62.8899 54.2972 0.0000 11.6733 0.0000
# 3 33.9751 54.2972 151.1728 0.0000 54.1274 -0.0001
# 4 0.0000 0.0000 0.0000 19.8879 0.0001 -6.1981
# 5 0.5786 11.6733 54.1274 0.0001 75.6782 -0.0001
# 6 0.0000 0.0000 -0.0001 -6.1981 -0.0001 20.2614
#
#
#
# Elastic Compliance Matrix: (Units=1/GPa)
#
#
# Indices 1 2 3 4 5 6 
#
# 1 0.008162 -0.000126 -0.002384 0.000000 0.001662 0.000000
# 2 -0.000126 0.023634 -0.009618 0.000000 0.003235 0.000000
# 3 -0.002384 -0.009618 0.013534 0.000000 -0.008178 0.000000
# 4 0.000000 0.000000 0.000000 0.055581 0.000000 0.017003
# 5 0.001662 0.003235 -0.008178 0.000000 0.018551 0.000000
# 6 0.000000 0.000000 0.000000 0.017003 0.000000 0.054556
#
#
# Mechanical properties :
#
#
# Convention : Reuss Voigt Hill
#
# Bulk Modulus (GPa) = 47.45760 61.34049 54.39904
# Shear Modulus (GPa) = 24.35468 39.42404 31.88936
#
# Velocity S-wave (km/s) = 3.51973 4.47816 4.02756
# Velocity P-wave (km/s) = 6.37639 7.61187 7.02136
#
# Compressibility (1/GPa) = 0.02107144
#
# Stress axis : x y z
#
# Youngs Moduli (GPa) = 122.51392 42.31250 73.89059
#
# Poissons Ratio (x) = 0.00534 0.17618
# Poissons Ratio (y) = 0.01548 0.71071
# Poissons Ratio (z) = 0.29211 0.40698
#
# Static dielectric constant tensor:
#      x y z
#    x 1.703210 0.000000 -0.010040 
#    y 0.000000 1.668820 0.000000 
#    z -0.010040 0.000000 1.693420 
# 
# From -- ./inp_files/225453.got.cif
#   From: 2010.05.17/outbox.cif.g08.bks.cpg/sg15_113_cif.got.tgz:225453.got - 2010.06.03 18:47:42.
