data_PCOD9289544
_publ_section_title
;
Structure prediction by ZEFSAII (Michael W. Deem and Ramdas Pophale) SiO2 
 PCOD9289544
Probable space group: C 2/C
;
_chemical_formula_sum "Si O2"
_cell_formula_units_Z 40
_cell_length_a 18.298723
_cell_length_b 8.253794
_cell_length_c 10.036279
_cell_angle_alpha 90.000000
_cell_angle_beta 91.803483
_cell_angle_gamma 90.000000
_cell_volume 1515.067398
_symmetry_space_group_name_H-M "C 2/C"
_symmetry_group_IT_number 15
_symmetry_cell_setting 'monoclinic'
loop_
_space_group_symop_operation_xyz
x,y,z
-x,y,1/2-z
-x,-y,-z
x,-y,1/2+z
1/2+x,1/2+y,z
1/2-x,1/2+y,1/2-z
1/2-x,1/2-y,-z
1/2+x,1/2-y,1/2+z
loop_
_atom_site_type_symbol
_atom_site_label
_atom_site_fract_x
_atom_site_fract_y
_atom_site_fract_z
Si Si1 0.912832 0.999409 0.478895
Si Si2 0.704985 0.024400 0.394279
Si Si3 0.914336 0.646322 0.448994
Si Si4 0.052913 0.315298 0.131774
Si Si5 0.301598 0.395295 0.160769
O O1 0.894673 0.165715 0.399451
O O2 0.875444 0.012244 0.621133
O O3 0.892866 0.828778 0.409706
O O4 0.000000 0.000000 0.500000
O O5 0.683941 0.203570 0.344506
O O6 0.749766 0.053665 0.533192
O O7 0.637667 0.910319 0.432975
O O8 0.756982 0.944990 0.287886
O O9 0.911703 0.492543 0.350738
O O10 0.998162 0.664244 0.502559
O O11 0.000000 0.275272 0.250000
#
# Coordination Sequence:
#
# PCOD9289544 Si02
#       5
#     8   8   8   8   8
#     4  10  22  42  66  96 133 174 224 278 339 403
#     4  11  25  44  71  98 142 182 229 288 342 415
#     4  10  22  41  64  95 133 174 220 274 343 396
#     4  10  22  40  65  96 134 172 223 277 333 406
#     4  11  25  45  68 101 138 183 231 285 346 410
#
# _framework density 26.401465000000002
#
# number of rings (size 3 to 8) (size 9 to 14) (size 15 to 20)
#    0.000    1.600    2.000    1.200    2.800    7.200 
#    0.000    0.000    0.000    0.000    0.000    0.000 
#    0.000    0.000    0.000    0.000    0.000    0.000 
#
# Total GULP energy -112041.006705 kJ/mol
# GULP energy per Si atom -5602.050335 kJ/mol
# Density = 2.634137 g / cm^3
# Si number density = 26.401465 Si / 1000 Ang^3
#
#
#
# Elastic Constant Matrix: (Units=GPa)
#
#
# Indices 1 2 3 4 5 6 
#
# 1 95.8863 29.3648 22.0383 0.0000 -21.5469 0.0000
# 2 29.3648 243.8734 56.1657 0.0000 -12.7443 0.0000
# 3 22.0383 56.1657 98.6507 0.0000 -21.0789 0.0000
# 4 0.0000 0.0000 0.0000 41.0389 0.0000 -13.5662
# 5 -21.5469 -12.7443 -21.0789 0.0000 44.2829 0.0000
# 6 0.0000 0.0000 0.0000 -13.5662 0.0000 42.2591
#
#
#
# Elastic Compliance Matrix: (Units=1/GPa)
#
#
# Indices 1 2 3 4 5 6 
#
# 1 0.012114 -0.000944 -0.001077 0.000000 0.005110 0.000000
# 2 -0.000944 0.004793 -0.002584 0.000000 -0.000310 0.000000
# 3 -0.001077 -0.002584 0.012889 0.000000 0.004867 0.000000
# 4 0.000000 0.000000 0.000000 0.027260 0.000000 0.008751
# 5 0.005110 -0.000310 0.004867 0.000000 0.027296 0.000000
# 6 0.000000 0.000000 0.000000 0.008751 0.000000 0.026473
#
#
# Mechanical properties :
#
#
# Convention : Reuss Voigt Hill
#
# Bulk Modulus (GPa) = 48.57736 72.61645 60.59690
# Shear Modulus (GPa) = 39.40214 47.57227 43.48720
#
# Velocity S-wave (km/s) = 3.86738 4.24946 4.06291
# Velocity P-wave (km/s) = 6.19529 7.18621 6.70907
#
# Compressibility (1/GPa) = 0.02058572
#
# Stress axis : x y z
#
# Youngs Moduli (GPa) = 82.55033 208.63350 77.58690
#
# Poissons Ratio (x) = 0.19685 0.08357
# Poissons Ratio (y) = 0.07789 0.20051
# Poissons Ratio (z) = 0.08892 0.53918
#
# Static dielectric constant tensor:
#      x y z
#    x 2.101140 0.000000 0.080970 
#    y 0.000000 2.122820 0.000000 
#    z 0.080970 0.000000 2.037430 
# 
# From -- ./inp_files/109578.got.cif
#   From: 2010.05.17/outbox.cif.g08.bks.cpg/sg15_55_cif.got.tgz:109578.got - 2010.06.03 18:47:42.
