data_PCOD9289360
_publ_section_title
;
Structure prediction by ZEFSAII (Michael W. Deem and Ramdas Pophale) SiO2 
 PCOD9289360
Probable space group: C 2/C
;
_chemical_formula_sum "Si O2"
_cell_formula_units_Z 44
_cell_length_a 23.267171
_cell_length_b 10.129856
_cell_length_c 8.233504
_cell_angle_alpha 90.000000
_cell_angle_beta 111.127903
_cell_angle_gamma 90.000000
_cell_volume 1810.130550
_symmetry_space_group_name_H-M "C 2/C"
_symmetry_group_IT_number 15
_symmetry_cell_setting 'monoclinic'
loop_
_space_group_symop_operation_xyz
x,y,z
-x,y,1/2-z
-x,-y,-z
x,-y,1/2+z
1/2+x,1/2+y,z
1/2-x,1/2+y,1/2-z
1/2-x,1/2-y,-z
1/2+x,1/2-y,1/2+z
loop_
_atom_site_type_symbol
_atom_site_label
_atom_site_fract_x
_atom_site_fract_y
_atom_site_fract_z
Si Si1 0.481210 0.650633 0.474904
Si Si2 0.614502 0.795070 0.930531
Si Si3 0.250000 0.250000 0.000000
Si Si4 0.854732 0.539716 0.715062
Si Si5 0.400869 0.284691 0.577794
Si Si6 0.730153 0.360075 0.113443
O O1 0.500000 0.500000 0.500000
O O2 0.443522 0.705589 0.588809
O O3 0.544963 0.723064 0.497714
O O4 0.434995 0.667643 0.275545
O O5 0.676607 0.716036 0.961438
O O6 0.612645 0.902951 0.786114
O O7 0.625647 0.887270 0.101480
O O8 0.257233 0.304779 0.195690
O O9 0.872581 0.642062 0.591431
O O10 0.779716 0.520366 0.636263
O O11 0.342840 0.378303 0.479267
O O12 0.750000 0.250000 0.000000
#
# Coordination Sequence:
#
# PCOD9289360 Si02
#       6
#     8   8   4   8   8   8
#     4  10  22  44  65  92 140 197 249 296 357 446
#     4  10  22  40  65 100 138 180 236 294 367 438
#     4  10  22  40  64 104 140 178 234 284 364 450
#     4   9  20  38  65 100 132 175 224 298 369 435
#     4   9  20  42  66  91 138 187 236 299 367 426
#     4   9  19  39  66  95 137 180 222 292 362 433
#
# _framework density 24.307639999999999
#
# number of rings (size 3 to 8) (size 9 to 14) (size 15 to 20)
#    0.000    2.545    0.000    1.091    5.091    2.182 
#   13.091    0.000    0.000    0.000    0.000    0.000 
#    0.000    0.000    0.000    0.000    0.000    0.000 
#
# Total GULP energy -122565.505686 kJ/mol
# GULP energy per Si atom -5571.159349 kJ/mol
# Density = 2.425231 g / cm^3
# Si number density = 24.307640 Si / 1000 Ang^3
#
#
#
# Elastic Constant Matrix: (Units=GPa)
#
#
# Indices 1 2 3 4 5 6 
#
# 1 234.5793 72.9267 75.4711 0.0000 -0.7073 0.0000
# 2 72.9267 81.0741 36.1973 0.0000 8.7152 0.0000
# 3 75.4711 36.1973 96.7234 0.0000 -23.7924 0.0000
# 4 0.0000 0.0000 0.0000 24.1842 0.0000 -4.2663
# 5 -0.7073 8.7152 -23.7924 0.0000 37.6350 0.0000
# 6 0.0000 0.0000 0.0000 -4.2663 0.0000 41.2003
#
#
#
# Elastic Compliance Matrix: (Units=1/GPa)
#
#
# Indices 1 2 3 4 5 6 
#
# 1 0.006910 -0.004161 -0.004222 0.000000 -0.001576 0.000000
# 2 -0.004161 0.019819 -0.006297 0.000000 -0.008649 0.000000
# 3 -0.004222 -0.006297 0.019336 0.000000 0.013603 0.000000
# 4 0.000000 0.000000 0.000000 0.042119 0.000000 0.004361
# 5 -0.001576 -0.008649 0.013603 0.000000 0.037144 0.000000
# 6 0.000000 0.000000 0.000000 0.004361 0.000000 0.024723
#
#
# Mechanical properties :
#
#
# Convention : Reuss Voigt Hill
#
# Bulk Modulus (GPa) = 59.86825 86.84079 73.35452
# Shear Modulus (GPa) = 27.02982 35.78934 31.40958
#
# Velocity S-wave (km/s) = 3.33827 3.84128 3.59857
# Velocity P-wave (km/s) = 6.28821 7.44830 6.89271
#
# Compressibility (1/GPa) = 0.01670334
#
# Stress axis : x y z
#
# Youngs Moduli (GPa) = 144.71103 50.45687 51.71680
#
# Poissons Ratio (x) = 0.20997 0.21836
# Poissons Ratio (y) = 0.60220 0.32568
# Poissons Ratio (z) = 0.61100 0.31774
#
# Static dielectric constant tensor:
#      x y z
#    x 1.961840 0.000000 0.000790 
#    y 0.000000 3.845660 0.000000 
#    z 0.000790 0.000000 2.023600 
# 
# From -- ./inp_files/54473.got.cif
#   From: 2010.05.17/outbox.cif.g08.bks.cpg/sg15_28_cif.got.tgz:54473.got - 2010.06.03 18:47:42.
