data_PCOD9289411
_publ_section_title
;
Structure prediction by ZEFSAII (Michael W. Deem and Ramdas Pophale) SiO2 
 PCOD9289411
Probable space group: C 2/C
;
_chemical_formula_sum "Si O2"
_cell_formula_units_Z 48
_cell_length_a 17.681864
_cell_length_b 10.019549
_cell_length_c 29.795375
_cell_angle_alpha 90.000000
_cell_angle_beta 29.298070
_cell_angle_gamma 90.000000
_cell_volume 2583.136747
_symmetry_space_group_name_H-M "C 2/C"
_symmetry_group_IT_number 15
_symmetry_cell_setting 'monoclinic'
loop_
_space_group_symop_operation_xyz
x,y,z
-x,y,1/2-z
-x,-y,-z
x,-y,1/2+z
1/2+x,1/2+y,z
1/2-x,1/2+y,1/2-z
1/2-x,1/2-y,-z
1/2+x,1/2-y,1/2+z
loop_
_atom_site_type_symbol
_atom_site_label
_atom_site_fract_x
_atom_site_fract_y
_atom_site_fract_z
Si Si1 0.158018 0.366716 0.572219
Si Si2 0.678423 0.973328 0.918183
Si Si3 0.808461 0.264964 0.752182
Si Si4 0.222620 0.882163 0.542520
Si Si5 0.184865 0.742205 0.150139
Si Si6 0.140162 0.949440 0.767893
O O1 0.250000 0.250000 0.500000
O O2 0.193559 0.502088 0.528758
O O3 0.209234 0.363151 0.597934
O O4 0.978615 0.328873 0.662161
O O5 0.703360 0.873416 0.946347
O O6 0.772791 0.932729 0.824876
O O7 0.747696 0.115041 0.898650
O O8 0.500000 0.000000 0.000000
O O9 0.752479 0.286841 0.832573
O O10 0.705871 0.343355 0.769517
O O11 0.825285 0.104638 0.736648
O O12 0.250000 0.750000 0.500000
O O13 0.042792 0.923293 0.641233
O O14 0.000000 0.759567 0.250000
#
# Coordination Sequence:
#
# PCOD9289411 Si02
#       6
#     8   8   8   8   8   8
#     4  11  19  40  67  87 116 167 213 255 312 389
#     4  11  22  39  67  90 121 170 213 258 324 401
#     4  10  22  40  64  93 124 166 211 261 322 391
#     4  12  26  41  62  96 134 164 216 272 328 377
#     4   9  19  38  65  87 116 159 217 252 308 385
#     4  11  24  42  64  92 131 167 213 267 328 388
#
# _framework density 18.582059000000001
#
# number of rings (size 3 to 8) (size 9 to 14) (size 15 to 20)
#    0.000    1.333    3.333    3.500    7.000    0.000 
#    3.000    2.500    0.000    0.000    0.000    0.000 
#    0.000    0.000    0.000    0.000    0.000    0.000 
#
# Total GULP energy -134006.558049 kJ/mol
# GULP energy per Si atom -5583.606585 kJ/mol
# Density = 1.853977 g / cm^3
# Si number density = 18.582059 Si / 1000 Ang^3
#
#
#
# Elastic Constant Matrix: (Units=GPa)
#
#
# Indices 1 2 3 4 5 6 
#
# 1 131.8096 53.3291 42.1739 0.0000 11.0731 0.0000
# 2 53.3291 101.8449 35.3872 0.0000 18.0363 0.0000
# 3 42.1739 35.3872 86.4140 -0.0003 11.5787 0.0000
# 4 0.0000 0.0000 -0.0003 30.1533 0.0000 3.6570
# 5 11.0731 18.0363 11.5787 0.0000 22.8373 0.0000
# 6 0.0000 0.0000 0.0000 3.6570 0.0000 36.2607
#
#
#
# Elastic Compliance Matrix: (Units=1/GPa)
#
#
# Indices 1 2 3 4 5 6 
#
# 1 0.010380 -0.004290 -0.003314 0.000000 0.000035 0.000000
# 2 -0.004290 0.014423 -0.002752 0.000000 -0.007916 0.000000
# 3 -0.003314 -0.002752 0.014816 0.000000 -0.003732 0.000000
# 4 0.000000 0.000000 0.000000 0.033575 0.000000 -0.003386
# 5 0.000035 -0.007916 -0.003732 0.000000 0.051915 0.000000
# 6 0.000000 0.000000 0.000000 -0.003386 0.000000 0.027920
#
#
# Mechanical properties :
#
#
# Convention : Reuss Voigt Hill
#
# Bulk Modulus (GPa) = 52.88817 64.64988 58.76902
# Shear Modulus (GPa) = 27.77124 30.46214 29.11669
#
# Velocity S-wave (km/s) = 3.87009 4.05326 3.96273
# Velocity P-wave (km/s) = 6.96376 7.53474 7.25487
#
# Compressibility (1/GPa) = 0.01890782
#
# Stress axis : x y z
#
# Youngs Moduli (GPa) = 96.34206 69.33217 67.49249
#
# Poissons Ratio (x) = 0.29744 0.22365
# Poissons Ratio (y) = 0.41331 0.18575
# Poissons Ratio (z) = 0.31925 0.19081
#
# Static dielectric constant tensor:
#      x y z
#    x 1.696740 0.000000 -0.011900 
#    y 0.000000 1.605810 0.000000 
#    z -0.011900 0.000000 1.699360 
# 
# From -- ./inp_files/315622.got.cif
#   From: 2010.05.17/outbox.cif.g08.bks.cpg/sg15_158_cif.got.tgz:315622.got - 2010.06.03 18:47:42.
