data_PCOD9289707
_publ_section_title
;
Structure prediction by ZEFSAII (Michael W. Deem and Ramdas Pophale) SiO2 
 PCOD9289707
Probable space group: C 2/C
;
_chemical_formula_sum "Si O2"
_cell_formula_units_Z 44
_cell_length_a 25.241334
_cell_length_b 7.511806
_cell_length_c 21.095102
_cell_angle_alpha 90.000000
_cell_angle_beta 23.250437
_cell_angle_gamma 90.000000
_cell_volume 1578.924580
_symmetry_space_group_name_H-M "C 2/C"
_symmetry_group_IT_number 15
_symmetry_cell_setting 'monoclinic'
loop_
_space_group_symop_operation_xyz
x,y,z
-x,y,1/2-z
-x,-y,-z
x,-y,1/2+z
1/2+x,1/2+y,z
1/2-x,1/2+y,1/2-z
1/2-x,1/2-y,-z
1/2+x,1/2-y,1/2+z
loop_
_atom_site_type_symbol
_atom_site_label
_atom_site_fract_x
_atom_site_fract_y
_atom_site_fract_z
Si Si1 0.149724 0.554678 0.080283
Si Si2 0.103255 0.047353 0.266437
Si Si3 0.841067 0.458553 0.295551
Si Si4 0.651459 0.443015 0.393734
Si Si5 0.404847 0.973896 0.542531
Si Si6 0.000000 0.087994 0.750000
O O1 0.211878 0.470000 0.075531
O O2 0.000000 0.468837 0.250000
O O3 0.117968 0.763023 0.120068
O O4 0.250337 0.528435 0.911536
O O5 0.134250 0.252174 0.246648
O O6 0.998221 0.974065 0.434630
O O7 0.021046 0.023780 0.290689
O O8 0.739054 0.526431 0.354874
O O9 0.990033 0.545911 0.125802
O O10 0.624806 0.234583 0.434614
O O11 0.757630 0.449999 0.219485
O O12 0.500000 0.000000 0.500000
#
# Coordination Sequence:
#
# PCOD9289707 Si02
#       6
#     8   8   8   8   8   4
#     4  10  24  39  62  95 135 171 209 261 318 378
#     4  11  22  39  63  94 124 170 216 255 318 380
#     4  10  22  40  67  91 126 169 217 263 313 380
#     4  10  22  41  69  94 126 167 215 272 319 382
#     4   9  21  43  64  96 127 167 218 267 324 379
#     4  10  24  38  60  92 136 168 210 256 316 384
#
# _framework density 27.867068
#
# number of rings (size 3 to 8) (size 9 to 14) (size 15 to 20)
#    0.545    1.455    0.000    2.182    6.364    1.455 
#    0.000   15.455    0.000    0.000    0.000    0.000 
#    0.000    0.000    0.000    0.000    0.000    0.000 
#
# Total GULP energy -122896.059773 kJ/mol
# GULP energy per Si atom -5586.184535 kJ/mol
# Density = 2.780364 g / cm^3
# Si number density = 27.867068 Si / 1000 Ang^3
#
#
#
# Elastic Constant Matrix: (Units=GPa)
#
#
# Indices 1 2 3 4 5 6 
#
# 1 103.0104 -13.8186 51.7138 -0.0003 6.7828 0.0001
# 2 -13.8186 42.8354 18.8819 -0.0026 -11.5781 0.0020
# 3 51.7138 18.8819 301.4220 -0.0037 2.0664 0.0024
# 4 -0.0003 -0.0026 -0.0037 34.1254 0.0011 -0.0120
# 5 6.7828 -11.5781 2.0664 0.0011 59.2078 -0.0007
# 6 0.0001 0.0020 0.0024 -0.0120 -0.0007 31.4650
#
#
#
# Elastic Compliance Matrix: (Units=1/GPa)
#
#
# Indices 1 2 3 4 5 6 
#
# 1 0.011480 0.004607 -0.002256 0.000000 -0.000335 0.000000
# 2 0.004607 0.027270 -0.002532 0.000002 0.004893 -0.000001
# 3 -0.002256 -0.002532 0.003866 0.000000 -0.000372 0.000000
# 4 0.000000 0.000002 0.000000 0.029304 0.000000 0.000011
# 5 -0.000335 0.004893 -0.000372 0.000000 0.017898 0.000000
# 6 0.000000 -0.000001 0.000000 0.000011 0.000000 0.031781
#
#
# Mechanical properties :
#
#
# Convention : Reuss Voigt Hill
#
# Bulk Modulus (GPa) = 23.66594 62.31354 42.98974
# Shear Modulus (GPa) = 36.75212 50.99234 43.87223
#
# Velocity S-wave (km/s) = 3.63552 4.28231 3.97210
# Velocity P-wave (km/s) = 5.11210 6.84547 6.04127
#
# Compressibility (1/GPa) = 0.04225481
#
# Stress axis : x y z
#
# Youngs Moduli (GPa) = 87.10446 36.66981 258.67633
#
# Poissons Ratio (x) = -0.16895 0.58357
# Poissons Ratio (y) = -0.40132 0.65505
# Poissons Ratio (z) = 0.19651 0.09286
#
# Static dielectric constant tensor:
#      x y z
#    x 2.287720 0.000000 -0.045640 
#    y 0.000000 2.054370 0.000000 
#    z -0.045640 0.000000 2.377230 
# 
# From -- ./inp_files/284374.got.cif
#   From: 2010.05.17/outbox.cif.g08.bks.cpg/sg15_143_cif.got.tgz:284374.got - 2010.06.03 18:47:42.
