data_PCOD9289689
_publ_section_title
;
Structure prediction by ZEFSAII (Michael W. Deem and Ramdas Pophale) SiO2 
 PCOD9289689
Probable space group: C 2/C
;
_chemical_formula_sum "Si O2"
_cell_formula_units_Z 40
_cell_length_a 5.242396
_cell_length_b 19.388179
_cell_length_c 18.008405
_cell_angle_alpha 90.000000
_cell_angle_beta 114.932436
_cell_angle_gamma 90.000000
_cell_volume 1659.801856
_symmetry_space_group_name_H-M "C 2/C"
_symmetry_group_IT_number 15
_symmetry_cell_setting 'monoclinic'
loop_
_space_group_symop_operation_xyz
x,y,z
-x,y,1/2-z
-x,-y,-z
x,-y,1/2+z
1/2+x,1/2+y,z
1/2-x,1/2+y,1/2-z
1/2-x,1/2-y,-z
1/2+x,1/2-y,1/2+z
loop_
_atom_site_type_symbol
_atom_site_label
_atom_site_fract_x
_atom_site_fract_y
_atom_site_fract_z
Si Si1 0.239616 0.064267 0.387034
Si Si2 0.345800 0.935603 0.069705
Si Si3 0.147759 0.281970 0.604967
Si Si4 0.635483 0.794605 0.093668
Si Si5 0.335297 0.452634 0.300698
O O1 0.204654 0.069743 0.472036
O O2 0.322066 0.138852 0.367182
O O3 0.956929 0.030084 0.321851
O O4 0.487291 0.007914 0.404579
O O5 0.569806 0.874031 0.100697
O O6 0.129784 0.925204 0.110742
O O7 0.949547 0.234068 0.630349
O O8 0.450793 0.249011 0.628730
O O9 0.998676 0.283215 0.505139
O O10 0.500000 0.422552 0.250000
O O11 0.000000 0.449331 0.250000
#
# Coordination Sequence:
#
# PCOD9289689 Si02
#       5
#     8   8   8   8   8
#     4  10  22  40  67 100 129 164 220 275 323 384
#     4  10  22  40  67 100 129 164 220 275 323 384
#     4   9  19  34  56  91 131 161 193 252 323 378
#     4   9  19  34  56  91 131 161 193 252 323 378
#     4  12  25  42  61  94 132 176 218 272 331 390
#
# _framework density 24.099263000000001
#
# number of rings (size 3 to 8) (size 9 to 14) (size 15 to 20)
#    0.000    2.000    2.000    0.600    5.600    0.000 
#    0.000    0.000    0.000    1.200   10.400    0.000 
#    0.000    0.000    0.000    0.000    0.000    2.000 
#
# Total GULP energy -111811.260950 kJ/mol
# GULP energy per Si atom -5590.563048 kJ/mol
# Density = 2.404441 g / cm^3
# Si number density = 24.099263 Si / 1000 Ang^3
#
#
#
# Elastic Constant Matrix: (Units=GPa)
#
#
# Indices 1 2 3 4 5 6 
#
# 1 106.7193 33.6742 36.3835 0.0000 -42.5616 0.0000
# 2 33.6742 105.9023 20.3008 0.0000 -30.3014 0.0000
# 3 36.3835 20.3008 114.3784 0.0000 -42.9536 0.0000
# 4 0.0000 0.0000 0.0000 5.6692 0.0000 -1.3173
# 5 -42.5616 -30.3014 -42.9536 0.0000 44.0660 0.0000
# 6 0.0000 0.0000 0.0000 -1.3173 0.0000 37.1431
#
#
#
# Elastic Compliance Matrix: (Units=1/GPa)
#
#
# Indices 1 2 3 4 5 6 
#
# 1 0.015365 -0.000688 0.000994 0.000000 0.015336 0.000000
# 2 -0.000688 0.011951 0.001474 0.000000 0.008990 0.000000
# 3 0.000994 0.001474 0.014049 0.000000 0.015668 0.000000
# 4 0.000000 0.000000 0.000000 0.177858 0.000000 0.006308
# 5 0.015336 0.008990 0.015668 0.000000 0.058960 0.000000
# 6 0.000000 0.000000 0.000000 0.006308 0.000000 0.027147
#
#
# Mechanical properties :
#
#
# Convention : Reuss Voigt Hill
#
# Bulk Modulus (GPa) = 22.25964 56.41301 39.33633
# Shear Modulus (GPa) = 15.78553 33.15174 24.46864
#
# Velocity S-wave (km/s) = 2.56212 3.71298 3.18988
# Velocity P-wave (km/s) = 4.24373 6.46846 5.47039
#
# Compressibility (1/GPa) = 0.04492435
#
# Stress axis : x y z
#
# Youngs Moduli (GPa) = 65.08311 83.67323 71.17913
#
# Poissons Ratio (x) = 0.05758 -0.07074
# Poissons Ratio (y) = 0.04479 -0.10491
# Poissons Ratio (z) = -0.06468 -0.12332
#
# Static dielectric constant tensor:
#      x y z
#    x 1.949830 0.000000 0.035980 
#    y 0.000000 1.912670 0.000000 
#    z 0.035980 0.000000 2.002620 
# 
# From -- ./inp_files/226730.got.cif
#   From: 2010.05.17/outbox.cif.g08.bks.cpg/sg15_114_cif.got.tgz:226730.got - 2010.06.03 18:47:42.
