data_PCOD9289607
_publ_section_title
;
Structure prediction by ZEFSAII (Michael W. Deem and Ramdas Pophale) SiO2 
 PCOD9289607
Probable space group: C 2/C
;
_chemical_formula_sum "Si O2"
_cell_formula_units_Z 56
_cell_length_a 8.618776
_cell_length_b 11.048177
_cell_length_c 22.770235
_cell_angle_alpha 90.000000
_cell_angle_beta 106.575130
_cell_angle_gamma 90.000000
_cell_volume 2078.124687
_symmetry_space_group_name_H-M "C 2/C"
_symmetry_group_IT_number 15
_symmetry_cell_setting 'monoclinic'
loop_
_space_group_symop_operation_xyz
x,y,z
-x,y,1/2-z
-x,-y,-z
x,-y,1/2+z
1/2+x,1/2+y,z
1/2-x,1/2+y,1/2-z
1/2-x,1/2-y,-z
1/2+x,1/2-y,1/2+z
loop_
_atom_site_type_symbol
_atom_site_label
_atom_site_fract_x
_atom_site_fract_y
_atom_site_fract_z
Si Si1 0.919979 0.228734 0.301201
Si Si2 0.038020 0.928188 0.578988
Si Si3 0.987494 0.714854 0.369450
Si Si4 0.798967 0.590372 0.658373
Si Si5 0.231864 0.928401 0.389032
Si Si6 0.311400 0.936528 0.776714
Si Si7 0.424634 0.790937 0.495060
O O1 0.950774 0.152469 0.361776
O O2 0.980187 0.352011 0.175051
O O3 0.742007 0.190342 0.261018
O O4 0.000000 0.179070 0.250000
O O5 0.007469 0.834836 0.523375
O O6 0.206024 0.005219 0.600390
O O7 0.881396 0.008482 0.574554
O O8 0.823867 0.794691 0.353239
O O9 0.980972 0.605686 0.322944
O O10 0.134574 0.802707 0.368418
O O11 0.992040 0.665760 0.436655
O O12 0.788410 0.531465 0.722186
O O13 0.395277 0.886347 0.439774
O O14 0.235766 0.004661 0.328971
O O15 0.250000 0.750000 0.500000
#
# Coordination Sequence:
#
# PCOD9289607 Si02
#       7
#     8   8   8   8   8   8   8
#     4  11  20  41  65  98 133 158 211 268 309 386
#     4  10  22  43  69  89 126 176 207 260 326 369
#     4  10  22  42  60  93 129 160 215 267 305 377
#     4  10  23  38  68  95 126 170 205 263 324 378
#     4  10  22  40  66  91 123 171 210 256 320 373
#     4  11  23  41  67  94 132 166 207 260 326 377
#     4  10  24  45  64  92 130 166 220 268 303 380
#
# _framework density 26.947371
#
# number of rings (size 3 to 8) (size 9 to 14) (size 15 to 20)
#    0.000    1.714    2.857    0.000    2.000    5.714 
#    5.143   10.000    0.000    0.000    0.000    0.000 
#    0.000    0.000    0.000    0.000    0.000    0.000 
#
# Total GULP energy -156273.160293 kJ/mol
# GULP energy per Si atom -5581.184296 kJ/mol
# Density = 2.688604 g / cm^3
# Si number density = 26.947371 Si / 1000 Ang^3
#
#
#
# Elastic Constant Matrix: (Units=GPa)
#
#
# Indices 1 2 3 4 5 6 
#
# 1 56.4545 38.0979 32.7511 0.0000 -5.6533 0.0000
# 2 38.0979 135.8950 62.7187 0.0000 8.4485 0.0000
# 3 32.7511 62.7187 168.1327 0.0000 1.0172 0.0000
# 4 0.0000 0.0000 0.0000 51.6093 0.0000 -7.0137
# 5 -5.6533 8.4485 1.0172 0.0000 36.9232 0.0000
# 6 0.0000 0.0000 0.0000 -7.0137 0.0000 48.5620
#
#
#
# Elastic Compliance Matrix: (Units=1/GPa)
#
#
# Indices 1 2 3 4 5 6 
#
# 1 0.023537 -0.005773 -0.002462 0.000000 0.004992 0.000000
# 2 -0.005773 0.010446 -0.002753 0.000000 -0.003198 0.000000
# 3 -0.002462 -0.002753 0.007454 0.000000 0.000048 0.000000
# 4 0.000000 0.000000 0.000000 0.019764 0.000000 0.002855
# 5 0.004992 -0.003198 0.000048 0.000000 0.028578 0.000000
# 6 0.000000 0.000000 0.000000 0.002855 0.000000 0.021004
#
#
# Mechanical properties :
#
#
# Convention : Reuss Voigt Hill
#
# Bulk Modulus (GPa) = 51.38085 69.73528 60.55807
# Shear Modulus (GPa) = 35.90747 42.54656 39.22701
#
# Velocity S-wave (km/s) = 3.65431 3.97782 3.81949
# Velocity P-wave (km/s) = 6.07567 6.85798 6.47864
#
# Compressibility (1/GPa) = 0.01946250
#
# Stress axis : x y z
#
# Youngs Moduli (GPa) = 42.48600 95.72637 134.15890
#
# Poissons Ratio (x) = 0.55262 0.33025
# Poissons Ratio (y) = 0.24527 0.36934
# Poissons Ratio (z) = 0.10458 0.26353
#
# Static dielectric constant tensor:
#      x y z
#    x 2.253110 0.000000 0.035700 
#    y 0.000000 2.209420 0.000000 
#    z 0.035700 0.000000 2.090630 
# 
# From -- ./inp_files/268974.got.cif
#   From: 2010.05.17/outbox.cif.g08.bks.cpg/sg15_135_cif.got.tgz:268974.got - 2010.06.03 18:47:42.
