data_PCOD9289520
_publ_section_title
;
Structure prediction by ZEFSAII (Michael W. Deem and Ramdas Pophale) SiO2 
 PCOD9289520
Probable space group: C 2/C
;
_chemical_formula_sum "Si O2"
_cell_formula_units_Z 32
_cell_length_a 22.083054
_cell_length_b 5.056476
_cell_length_c 14.104980
_cell_angle_alpha 90.000000
_cell_angle_beta 120.472656
_cell_angle_gamma 90.000000
_cell_volume 1357.444146
_symmetry_space_group_name_H-M "C 2/C"
_symmetry_group_IT_number 15
_symmetry_cell_setting 'monoclinic'
loop_
_space_group_symop_operation_xyz
x,y,z
-x,y,1/2-z
-x,-y,-z
x,-y,1/2+z
1/2+x,1/2+y,z
1/2-x,1/2+y,1/2-z
1/2-x,1/2-y,-z
1/2+x,1/2-y,1/2+z
loop_
_atom_site_type_symbol
_atom_site_label
_atom_site_fract_x
_atom_site_fract_y
_atom_site_fract_z
Si Si1 0.749473 0.998723 0.429672
Si Si2 0.460675 0.278180 0.365374
Si Si3 0.103086 0.698078 0.779487
Si Si4 0.598576 0.395843 0.989018
O O1 0.750000 0.750000 0.500000
O O2 0.822337 0.997995 0.430501
O O3 0.750000 0.250000 0.500000
O O4 0.678150 0.941555 0.315610
O O5 0.451923 0.017594 0.298102
O O6 0.429573 0.229429 0.445067
O O7 0.540783 0.373821 0.433979
O O8 0.416062 0.523602 0.285153
O O9 0.100408 0.750076 0.889599
#
# Coordination Sequence:
#
# PCOD9289520 Si02
#       4
#     8   8   8   8
#     4  10  22  40  65  94 129 172 211 263 325 377
#     4  11  26  43  69  99 128 176 220 265 332 389
#     4  11  24  43  67  97 132 174 218 266 326 391
#     4  10  25  45  67  98 137 168 218 277 322 389
#
# _framework density 23.573716000000001
#
# number of rings (size 3 to 8) (size 9 to 14) (size 15 to 20)
#    0.000    1.500    0.000    3.750    0.000   22.000 
#    0.000    0.000    0.000    0.000    0.000    0.000 
#    0.000    0.000    0.000    0.000    0.000    0.000 
#
# Total GULP energy -89550.354106 kJ/mol
# GULP energy per Si atom -5596.897132 kJ/mol
# Density = 2.352006 g / cm^3
# Si number density = 23.573716 Si / 1000 Ang^3
#
#
#
# Elastic Constant Matrix: (Units=GPa)
#
#
# Indices 1 2 3 4 5 6 
#
# 1 177.5209 8.9854 46.9165 0.0000 11.2173 0.0000
# 2 8.9854 121.6186 22.2543 -0.0001 -14.1498 0.0001
# 3 46.9165 22.2543 83.1991 0.0000 -7.2070 0.0000
# 4 0.0000 -0.0001 0.0000 31.2235 0.0000 0.7218
# 5 11.2173 -14.1498 -7.2070 0.0000 44.6603 0.0000
# 6 0.0000 0.0001 0.0000 0.7218 0.0000 9.2578
#
#
#
# Elastic Compliance Matrix: (Units=1/GPa)
#
#
# Indices 1 2 3 4 5 6 
#
# 1 0.006861 -0.000041 -0.004065 0.000000 -0.002392 0.000000
# 2 -0.000041 0.008907 -0.002144 0.000000 0.002486 0.000000
# 3 -0.004065 -0.002144 0.015126 0.000000 0.002783 0.000000
# 4 0.000000 0.000000 0.000000 0.032085 0.000000 -0.002502
# 5 -0.002392 0.002486 0.002783 0.000000 0.024229 0.000000
# 6 0.000000 0.000000 0.000000 -0.002502 0.000000 0.108212
#
#
# Mechanical properties :
#
#
# Convention : Reuss Voigt Hill
#
# Bulk Modulus (GPa) = 54.36660 59.85011 57.10836
# Shear Modulus (GPa) = 23.35886 37.30713 30.33300
#
# Velocity S-wave (km/s) = 3.15125 3.98247 3.59099
# Velocity P-wave (km/s) = 6.02934 6.82572 6.43985
#
# Compressibility (1/GPa) = 0.01839364
#
# Stress axis : x y z
#
# Youngs Moduli (GPa) = 145.75735 112.27059 66.11095
#
# Poissons Ratio (x) = 0.00465 0.26874
# Poissons Ratio (y) = 0.00603 0.14173
# Poissons Ratio (z) = 0.59250 0.24068
#
# Static dielectric constant tensor:
#      x y z
#    x 1.953250 0.000000 0.082020 
#    y 0.000000 1.855960 0.000000 
#    z 0.082020 0.000000 1.911990 
# 
# From -- ./inp_files/165186.got.cif
#   From: 2010.05.17/outbox.cif.g08.bks.cpg/sg15_83_cif.got.tgz:165186.got - 2010.06.03 18:47:42.
