data_PCOD9289485
_publ_section_title
;
Structure prediction by ZEFSAII (Michael W. Deem and Ramdas Pophale) SiO2 
 PCOD9289485
Probable space group: C 2/C
;
_chemical_formula_sum "Si O2"
_cell_formula_units_Z 52
_cell_length_a 22.981172
_cell_length_b 11.376811
_cell_length_c 12.265842
_cell_angle_alpha 90.000000
_cell_angle_beta 129.972224
_cell_angle_gamma 90.000000
_cell_volume 2457.653344
_symmetry_space_group_name_H-M "C 2/C"
_symmetry_group_IT_number 15
_symmetry_cell_setting 'monoclinic'
loop_
_space_group_symop_operation_xyz
x,y,z
-x,y,1/2-z
-x,-y,-z
x,-y,1/2+z
1/2+x,1/2+y,z
1/2-x,1/2+y,1/2-z
1/2-x,1/2-y,-z
1/2+x,1/2-y,1/2+z
loop_
_atom_site_type_symbol
_atom_site_label
_atom_site_fract_x
_atom_site_fract_y
_atom_site_fract_z
Si Si1 0.142087 0.091540 0.348266
Si Si2 0.739181 0.120507 0.818237
Si Si3 0.207192 0.861567 0.689990
Si Si4 0.907438 0.840746 0.151828
Si Si5 0.436339 0.121721 0.870924
Si Si6 0.035533 0.626923 0.178600
Si Si7 0.000000 0.243453 0.250000
O O1 0.211316 0.116177 0.512890
O O2 0.162968 0.121592 0.250379
O O3 0.072833 0.161327 0.321147
O O4 0.118535 0.955888 0.317133
O O5 0.755078 0.238969 0.764460
O O6 0.652422 0.141482 0.748386
O O7 0.751104 0.989076 0.780199
O O8 0.146602 0.842248 0.519283
O O9 0.901329 0.721505 0.214501
O O10 0.000000 0.847691 0.250000
O O11 0.491782 0.175166 0.846346
O O12 0.437592 0.981355 0.859934
O O13 0.466406 0.172675 0.021102
O O14 0.000000 0.585768 0.250000
#
# Coordination Sequence:
#
# PCOD9289485 Si02
#       7
#     8   8   8   8   8   8   4
#     4  11  25  43  68 101 138 184 234 286 351 425
#     4  11  25  45  67 102 138 188 229 288 356 421
#     4  11  25  44  69 100 140 183 232 287 351 418
#     4  10  22  41  65  98 133 177 232 287 344 406
#     4  11  24  42  69 102 139 184 232 290 346 424
#     4  10  22  40  65 102 135 177 233 291 348 401
#     4  12  24  42  66 102 136 180 236 282 352 406
#
# _framework density 21.158396
#
# number of rings (size 3 to 8) (size 9 to 14) (size 15 to 20)
#    0.000    1.231    3.077    2.308    0.000    9.231 
#    0.000    3.077    0.000    0.000    0.000    0.000 
#    0.000    0.000    0.000    0.000    0.000    0.000 
#
# Total GULP energy -144823.791060 kJ/mol
# GULP energy per Si atom -5570.145810 kJ/mol
# Density = 2.111024 g / cm^3
# Si number density = 21.158396 Si / 1000 Ang^3
#
#
#
# Elastic Constant Matrix: (Units=GPa)
#
#
# Indices 1 2 3 4 5 6 
#
# 1 68.6916 22.8753 33.1597 0.0000 -9.0557 0.0000
# 2 22.8753 166.2757 45.1242 0.0000 -14.1101 0.0000
# 3 33.1597 45.1242 122.8523 0.0000 -11.1014 0.0000
# 4 0.0000 0.0000 0.0000 33.1927 0.0000 -1.7745
# 5 -9.0557 -14.1101 -11.1014 0.0000 10.5120 0.0000
# 6 0.0000 0.0000 0.0000 -1.7745 0.0000 31.8497
#
#
#
# Elastic Compliance Matrix: (Units=1/GPa)
#
#
# Indices 1 2 3 4 5 6 
#
# 1 0.017938 -0.000555 -0.003658 0.000000 0.010845 0.000000
# 2 -0.000555 0.007205 -0.001842 0.000000 0.007249 0.000000
# 3 -0.003658 -0.001842 0.010276 0.000000 0.005229 0.000000
# 4 0.000000 0.000000 0.000000 0.030217 0.000000 0.001684
# 5 0.010845 0.007249 0.005229 0.000000 0.119724 0.000000
# 6 0.000000 0.000000 0.000000 0.001684 0.000000 0.031491
#
#
# Mechanical properties :
#
#
# Convention : Reuss Voigt Hill
#
# Bulk Modulus (GPa) = 42.89899 62.23756 52.56828
# Shear Modulus (GPa) = 21.12094 32.22155 26.67124
#
# Velocity S-wave (km/s) = 3.16290 3.90663 3.55428
# Velocity P-wave (km/s) = 5.80153 7.05889 6.46087
#
# Compressibility (1/GPa) = 0.02331057
#
# Stress axis : x y z
#
# Youngs Moduli (GPa) = 55.74717 138.78510 97.31215
#
# Poissons Ratio (x) = 0.07700 0.35596
# Poissons Ratio (y) = 0.03093 0.17923
# Poissons Ratio (z) = 0.20392 0.25561
#
# Static dielectric constant tensor:
#      x y z
#    x 1.763140 0.000000 0.028380 
#    y 0.000000 1.911830 0.000000 
#    z 0.028380 0.000000 1.765340 
# 
# From -- ./inp_files/118051.got.cif
#   From: 2010.05.17/outbox.cif.g08.bks.cpg/sg15_60_cif.got.tgz:118051.got - 2010.06.03 18:47:42.
