data_PCOD9289531
_publ_section_title
;
Structure prediction by ZEFSAII (Michael W. Deem and Ramdas Pophale) SiO2 
 PCOD9289531
Probable space group: C 2/C
;
_chemical_formula_sum "Si O2"
_cell_formula_units_Z 40
_cell_length_a 26.869782
_cell_length_b 10.584259
_cell_length_c 10.396588
_cell_angle_alpha 90.000000
_cell_angle_beta 33.199458
_cell_angle_gamma 90.000000
_cell_volume 1618.987251
_symmetry_space_group_name_H-M "C 2/C"
_symmetry_group_IT_number 15
_symmetry_cell_setting 'monoclinic'
loop_
_space_group_symop_operation_xyz
x,y,z
-x,y,1/2-z
-x,-y,-z
x,-y,1/2+z
1/2+x,1/2+y,z
1/2-x,1/2+y,1/2-z
1/2-x,1/2-y,-z
1/2+x,1/2-y,1/2+z
loop_
_atom_site_type_symbol
_atom_site_label
_atom_site_fract_x
_atom_site_fract_y
_atom_site_fract_z
Si Si1 0.745123 0.346853 0.204654
Si Si2 0.248942 0.109234 0.138380
Si Si3 0.605517 0.755269 0.822194
Si Si4 0.589084 0.023451 0.895075
Si Si5 0.554476 0.700538 0.512104
O O1 0.727507 0.243372 0.350537
O O2 0.749310 0.492181 0.238592
O O3 0.663803 0.342355 0.276871
O O4 0.833537 0.298327 0.933065
O O5 0.150024 0.131825 0.291538
O O6 0.324171 0.062323 0.876712
O O7 0.510430 0.706411 0.972051
O O8 0.599469 0.881509 0.924029
O O9 0.574042 0.151495 0.005492
O O10 0.500000 0.000000 0.000000
O O11 0.500000 0.643536 0.750000
#
# Coordination Sequence:
#
# PCOD9289531 Si02
#       5
#     8   8   8   8   8
#     4  10  22  40  65  95 130 175 218 273 335 398
#     4  11  23  41  66  99 129 178 221 277 335 395
#     4   9  20  40  62  92 131 173 216 277 335 392
#     4   9  21  39  65  96 127 174 224 267 325 399
#     4  11  21  39  63  96 131 177 219 279 336 396
#
# _framework density 24.706803000000001
#
# number of rings (size 3 to 8) (size 9 to 14) (size 15 to 20)
#    0.000    2.000    2.000    0.600    2.800    0.800 
#    3.600    7.000    0.000    0.000    0.000    0.000 
#    0.000    0.000    0.000    0.000    0.000    0.000 
#
# Total GULP energy -111781.097767 kJ/mol
# GULP energy per Si atom -5589.054888 kJ/mol
# Density = 2.465057 g / cm^3
# Si number density = 24.706803 Si / 1000 Ang^3
#
#
#
# Elastic Constant Matrix: (Units=GPa)
#
#
# Indices 1 2 3 4 5 6 
#
# 1 113.6235 36.9106 43.1808 0.0000 -40.7164 0.0000
# 2 36.9106 118.9467 32.4275 0.0000 -12.8486 0.0000
# 3 43.1808 32.4275 127.9676 0.0000 -36.0837 0.0000
# 4 0.0000 0.0000 0.0000 33.0090 0.0000 -4.5691
# 5 -40.7164 -12.8486 -36.0837 0.0000 33.8365 0.0000
# 6 0.0000 0.0000 0.0000 -4.5691 0.0000 40.0578
#
#
#
# Elastic Compliance Matrix: (Units=1/GPa)
#
#
# Indices 1 2 3 4 5 6 
#
# 1 0.016548 -0.003230 0.000720 0.000000 0.019454 0.000000
# 2 -0.003230 0.009709 -0.002040 0.000000 -0.002376 0.000000
# 3 0.000720 -0.002040 0.011604 0.000000 0.012466 0.000000
# 4 0.000000 0.000000 0.000000 0.030781 0.000000 0.003511
# 5 0.019454 -0.002376 0.012466 0.000000 0.065355 0.000000
# 6 0.000000 0.000000 0.000000 0.003511 0.000000 0.025364
#
#
# Mechanical properties :
#
#
# Convention : Reuss Voigt Hill
#
# Bulk Modulus (GPa) = 34.77003 65.06395 49.91699
# Shear Modulus (GPa) = 28.08237 37.91527 32.99882
#
# Velocity S-wave (km/s) = 3.37504 3.92166 3.65857
# Velocity P-wave (km/s) = 5.41216 6.84817 6.17207
#
# Compressibility (1/GPa) = 0.02876040
#
# Stress axis : x y z
#
# Youngs Moduli (GPa) = 60.43118 102.99706 86.17993
#
# Poissons Ratio (x) = 0.33267 -0.06207
# Poissons Ratio (y) = 0.19519 0.17583
# Poissons Ratio (z) = -0.04352 0.21015
#
# Static dielectric constant tensor:
#      x y z
#    x 1.976610 0.000000 -0.001040 
#    y 0.000000 2.007310 0.000000 
#    z -0.001040 0.000000 2.003700 
# 
# From -- ./inp_files/126370.got.cif
#   From: 2010.05.17/outbox.cif.g08.bks.cpg/sg15_64_cif.got.tgz:126370.got - 2010.06.03 18:47:42.
