data_PCOD9289829
_publ_section_title
;
Structure prediction by ZEFSAII (Michael W. Deem and Ramdas Pophale) SiO2 
 PCOD9289829
Probable space group: C 2/C
;
_chemical_formula_sum "Si O2"
_cell_formula_units_Z 60
_cell_length_a 12.107324
_cell_length_b 20.943998
_cell_length_c 17.490292
_cell_angle_alpha 90.000000
_cell_angle_beta 141.952417
_cell_angle_gamma 90.000000
_cell_volume 2733.430503
_symmetry_space_group_name_H-M "C 2/C"
_symmetry_group_IT_number 15
_symmetry_cell_setting 'monoclinic'
loop_
_space_group_symop_operation_xyz
x,y,z
-x,y,1/2-z
-x,-y,-z
x,-y,1/2+z
1/2+x,1/2+y,z
1/2-x,1/2+y,1/2-z
1/2-x,1/2-y,-z
1/2+x,1/2-y,1/2+z
loop_
_atom_site_type_symbol
_atom_site_label
_atom_site_fract_x
_atom_site_fract_y
_atom_site_fract_z
Si Si1 0.303995 0.132470 0.429754
Si Si2 0.879841 0.713999 0.256230
Si Si3 0.775684 0.417682 0.752697
Si Si4 0.803479 0.624384 0.665459
Si Si5 0.657011 0.058128 0.655818
Si Si6 0.000000 0.966932 0.250000
Si Si7 0.472344 0.737583 0.977763
Si Si8 0.398124 0.562619 0.058441
O O1 0.219648 0.116491 0.302115
O O2 0.465524 0.081408 0.522636
O O3 0.388277 0.201696 0.474542
O O4 0.169619 0.120562 0.425009
O O5 0.889040 0.636710 0.273269
O O6 0.947692 0.745906 0.373017
O O7 0.000000 0.733815 0.250000
O O8 0.674024 0.728501 0.119314
O O9 0.855796 0.485989 0.818691
O O10 0.581580 0.430925 0.611046
O O11 0.799120 0.603656 0.750032
O O12 0.651079 0.676974 0.571721
O O13 0.759831 0.562176 0.589604
O O14 0.000000 0.648517 0.750000
O O15 0.818290 0.064976 0.682683
O O16 0.067145 0.007678 0.360220
#
# Coordination Sequence:
#
# PCOD9289829 Si02
#       8
#     8   8   8   8   8   4   8   8
#     4  11  21  40  70  96 128 173 227 275 331 406
#     4  11  24  47  67  98 133 189 231 284 344 412
#     4  10  22  40  68  96 131 166 224 282 339 400
#     4  12  26  42  66 104 141 174 223 293 354 401
#     4  11  23  44  64 101 134 175 224 275 340 415
#     4  10  24  42  70  96 134 186 222 278 330 424
#     4  11  26  46  69  98 139 181 235 288 340 413
#     4  11  20  41  66  98 130 170 218 280 340 402
#
# _framework density 21.950438999999999
#
# number of rings (size 3 to 8) (size 9 to 14) (size 15 to 20)
#    0.000    1.067    5.333    1.600    0.000    5.333 
#    9.600    0.000    0.000    0.000    0.000    0.000 
#    0.000    0.000    0.000    0.000    0.000    0.000 
#
# Total GULP energy -167411.758454 kJ/mol
# GULP energy per Si atom -5580.391948 kJ/mol
# Density = 2.190048 g / cm^3
# Si number density = 21.950439 Si / 1000 Ang^3
#
#
#
# Elastic Constant Matrix: (Units=GPa)
#
#
# Indices 1 2 3 4 5 6 
#
# 1 76.6536 17.3600 20.2106 -0.0007 0.7921 0.0003
# 2 17.3600 73.1302 17.5927 -0.0037 15.5411 0.0039
# 3 20.2106 17.5927 106.5582 0.0043 15.6442 -0.0053
# 4 -0.0007 -0.0037 0.0043 191.6387 0.0028 -193.2140
# 5 0.7921 15.5411 15.6442 0.0028 24.4908 -0.0033
# 6 0.0003 0.0039 -0.0053 -193.2140 -0.0033 230.6521
#
#
#
# Elastic Compliance Matrix: (Units=1/GPa)
#
#
# Indices 1 2 3 4 5 6 
#
# 1 0.014519 -0.003544 -0.002681 0.000000 0.003492 0.000000
# 2 -0.003544 0.016824 -0.000612 0.000000 -0.010170 0.000000
# 3 -0.002681 -0.000612 0.010951 0.000000 -0.006520 0.000000
# 4 0.000000 0.000000 0.000000 0.033573 0.000000 0.028123
# 5 0.003492 -0.010170 -0.006520 0.000000 0.051338 0.000000
# 6 0.000000 0.000000 0.000000 0.028123 0.000000 0.027894
#
#
# Mechanical properties :
#
#
# Convention : Reuss Voigt Hill
#
# Bulk Modulus (GPa) = 34.94084 40.74096 37.84090
# Shear Modulus (GPa) = 28.04042 102.76822 65.40432
#
# Velocity S-wave (km/s) = 3.57801 6.84981 5.46453
# Velocity P-wave (km/s) = 5.74649 9.00892 7.55588
#
# Compressibility (1/GPa) = 0.02861980
#
# Stress axis : x y z
#
# Youngs Moduli (GPa) = 68.87453 59.43858 91.31170
#
# Poissons Ratio (x) = 0.21063 0.24485
# Poissons Ratio (y) = 0.24407 0.05592
# Poissons Ratio (z) = 0.18468 0.03640
#
# Static dielectric constant tensor:
#      x y z
#    x 1.796040 0.000000 -0.006280 
#    y 0.000000 1.830350 0.000000 
#    z -0.006280 0.000000 1.889120 
# 
# From -- ./inp_files/200548.got.cif
#   From: 2010.05.17/outbox.cif.g08.bks.cpg/sg15_101_cif.got.tgz:200548.got - 2010.06.03 18:47:42.
