data_PCOD9289835
_publ_section_title
;
Structure prediction by ZEFSAII (Michael W. Deem and Ramdas Pophale) SiO2 
 PCOD9289835
Probable space group: C 2/C
;
_chemical_formula_sum "Si O2"
_cell_formula_units_Z 40
_cell_length_a 5.301174
_cell_length_b 15.091504
_cell_length_c 23.462035
_cell_angle_alpha 90.000000
_cell_angle_beta 127.570313
_cell_angle_gamma 90.000000
_cell_volume 1487.741365
_symmetry_space_group_name_H-M "C 2/C"
_symmetry_group_IT_number 15
_symmetry_cell_setting 'monoclinic'
loop_
_space_group_symop_operation_xyz
x,y,z
-x,y,1/2-z
-x,-y,-z
x,-y,1/2+z
1/2+x,1/2+y,z
1/2-x,1/2+y,1/2-z
1/2-x,1/2-y,-z
1/2+x,1/2-y,1/2+z
loop_
_atom_site_type_symbol
_atom_site_label
_atom_site_fract_x
_atom_site_fract_y
_atom_site_fract_z
Si Si1 0.939301 0.340230 0.084521
Si Si2 0.369054 0.520601 0.296163
Si Si3 0.712082 0.517534 0.085878
Si Si4 0.712681 0.705806 0.055615
Si Si5 0.864703 0.233617 0.290680
O O1 0.963557 0.438241 0.111393
O O2 0.238823 0.291320 0.098678
O O3 0.892116 0.273567 0.130126
O O4 0.654874 0.331683 0.999411
O O5 0.500000 0.495091 0.250000
O O6 0.465157 0.504602 0.377571
O O7 0.369320 0.627732 0.294677
O O8 0.000000 0.490505 0.250000
O O9 0.869116 0.615573 0.100728
O O10 0.500000 0.500000 0.000000
O O11 0.750000 0.750000 0.000000
O O12 0.500000 0.262509 0.250000
O O13 0.000000 0.263842 0.250000
#
# Coordination Sequence:
#
# PCOD9289835 Si02
#       5
#     8   8   8   8   8
#     4  10  22  41  64  97 137 180 236 307 367 441
#     4  10  22  44  70 100 141 194 241 303 374 452
#     4  10  22  45  67 106 142 186 247 306 380 448
#     4  10  22  40  68  96 138 183 239 303 381 450
#     4  10  22  40  70  98 134 189 243 293 369 455
#
# _framework density 26.886396000000001
#
# number of rings (size 3 to 8) (size 9 to 14) (size 15 to 20)
#    0.000    2.000    2.000    0.000    2.800    3.200 
#    7.200    2.000    0.000    0.000    0.000    0.000 
#    0.000    0.000    0.000    0.000    0.000    0.000 
#
# Total GULP energy -111427.121664 kJ/mol
# GULP energy per Si atom -5571.356083 kJ/mol
# Density = 2.682520 g / cm^3
# Si number density = 26.886396 Si / 1000 Ang^3
#
#
#
# Elastic Constant Matrix: (Units=GPa)
#
#
# Indices 1 2 3 4 5 6 
#
# 1 149.3687 46.8951 61.7334 0.0001 -45.6520 0.0001
# 2 46.8951 161.9667 2.7045 0.0000 -30.2043 0.0000
# 3 61.7334 2.7045 185.3158 0.0001 -34.3509 0.0001
# 4 0.0001 0.0000 0.0001 31.4884 0.0001 -8.9390
# 5 -45.6520 -30.2043 -34.3509 0.0001 70.7688 0.0001
# 6 0.0001 0.0000 0.0001 -8.9390 0.0001 19.9911
#
#
#
# Elastic Compliance Matrix: (Units=1/GPa)
#
#
# Indices 1 2 3 4 5 6 
#
# 1 0.009572 -0.001951 -0.002385 0.000000 0.004184 0.000000
# 2 -0.001951 0.007144 0.000964 0.000000 0.002259 0.000000
# 3 -0.002385 0.000964 0.006558 0.000000 0.002056 0.000000
# 4 0.000000 0.000000 0.000000 0.036375 0.000000 0.016265
# 5 0.004184 0.002259 0.002056 0.000000 0.018792 0.000000
# 6 0.000000 0.000000 0.000000 0.016265 0.000000 0.057295
#
#
# Mechanical properties :
#
#
# Convention : Reuss Voigt Hill
#
# Bulk Modulus (GPa) = 60.49256 79.92413 70.20834
# Shear Modulus (GPa) = 33.78631 50.13752 41.96191
#
# Velocity S-wave (km/s) = 3.54875 4.32301 3.95487
# Velocity P-wave (km/s) = 6.27213 7.39655 6.85743
#
# Compressibility (1/GPa) = 0.01653096
#
# Stress axis : x y z
#
# Youngs Moduli (GPa) = 104.47286 139.97483 152.49362
#
# Poissons Ratio (x) = 0.27312 0.36362
# Poissons Ratio (y) = 0.20385 -0.14706
# Poissons Ratio (z) = 0.24912 -0.13499
#
# Static dielectric constant tensor:
#      x y z
#    x 2.391700 0.000000 0.339660 
#    y 0.000000 2.230420 0.000000 
#    z 0.339660 0.000000 5.997350 
# 
# From -- ./inp_files/260471.got.cif
#   From: 2010.05.17/outbox.cif.g08.bks.cpg/sg15_131_cif.got.tgz:260471.got - 2010.06.03 18:47:42.
