data_PCOD9289309
_publ_section_title
;
Structure prediction by ZEFSAII (Michael W. Deem and Ramdas Pophale) SiO2 
 PCOD9289309
Probable space group: C 2/C
;
_chemical_formula_sum "Si O2"
_cell_formula_units_Z 44
_cell_length_a 27.907935
_cell_length_b 8.366876
_cell_length_c 26.057160
_cell_angle_alpha 90.000000
_cell_angle_beta 163.860152
_cell_angle_gamma 90.000000
_cell_volume 1691.359866
_symmetry_space_group_name_H-M "C 2/C"
_symmetry_group_IT_number 15
_symmetry_cell_setting 'monoclinic'
loop_
_space_group_symop_operation_xyz
x,y,z
-x,y,1/2-z
-x,-y,-z
x,-y,1/2+z
1/2+x,1/2+y,z
1/2-x,1/2+y,1/2-z
1/2-x,1/2-y,-z
1/2+x,1/2-y,1/2+z
loop_
_atom_site_type_symbol
_atom_site_label
_atom_site_fract_x
_atom_site_fract_y
_atom_site_fract_z
Si Si1 0.500000 0.852902 0.250000
Si Si2 0.650394 0.807347 0.116007
Si Si3 0.700531 0.007747 0.765898
Si Si4 0.008921 0.302530 0.145970
Si Si5 0.324661 0.586896 0.599741
Si Si6 0.658450 0.500884 0.269878
O O1 0.530356 0.762917 0.227779
O O2 0.670212 0.960930 0.432522
O O3 0.657493 0.625470 0.102938
O O4 0.698235 0.842496 0.224172
O O5 0.791715 0.900247 0.227748
O O6 0.472217 0.901072 0.923837
O O7 0.656646 0.077672 0.776899
O O8 0.014060 0.137824 0.119759
O O9 0.831258 0.394170 0.956991
O O10 0.500000 0.551172 0.750000
O O11 0.250000 0.750000 0.500000
O O12 0.363757 0.601045 0.700951
#
# Coordination Sequence:
#
# PCOD9289309 Si02
#       6
#     4   8   8   8   8   8
#     4  10  24  42  62  94 132 166 218 268 318 382
#     4  10  22  40  63  93 125 164 208 262 316 377
#     4  10  22  40  64  91 127 161 210 261 315 382
#     4  10  23  41  61  91 127 164 211 264 312 384
#     4  11  24  40  64  92 128 169 215 265 321 382
#     4  10  24  39  62  92 124 164 213 259 320 378
#
# _framework density 26.014569999999999
#
# number of rings (size 3 to 8) (size 9 to 14) (size 15 to 20)
#    0.000    1.818    0.909    1.091    6.364    5.091 
#    0.000    0.000    0.000    0.000    0.000    0.000 
#    0.000    0.000    0.000    0.000    0.000    0.000 
#
# Total GULP energy -123217.536377 kJ/mol
# GULP energy per Si atom -5600.797108 kJ/mol
# Density = 2.595536 g / cm^3
# Si number density = 26.014570 Si / 1000 Ang^3
#
#
#
# Elastic Constant Matrix: (Units=GPa)
#
#
# Indices 1 2 3 4 5 6 
#
# 1 171.1001 51.7783 17.2221 -0.0080 13.8014 -0.0019
# 2 51.7783 123.9444 -4.2608 -0.0153 12.1383 -0.0032
# 3 17.2221 -4.2608 96.2881 -0.0171 37.7703 -0.0035
# 4 -0.0080 -0.0153 -0.0171 35.7072 -0.0048 3.1673
# 5 13.8014 12.1383 37.7703 -0.0048 29.6481 0.0006
# 6 -0.0019 -0.0032 -0.0035 3.1673 0.0006 46.2602
#
#
#
# Elastic Compliance Matrix: (Units=1/GPa)
#
#
# Indices 1 2 3 4 5 6 
#
# 1 0.006868 -0.002847 -0.001115 0.000000 -0.000611 0.000000
# 2 -0.002847 0.010198 0.004154 0.000005 -0.008142 0.000001
# 3 -0.001115 0.004154 0.022452 0.000008 -0.029785 0.000002
# 4 0.000000 0.000005 0.000008 0.028177 -0.000008 -0.001929
# 5 -0.000611 -0.008142 -0.029785 -0.000008 0.075292 -0.000003
# 6 0.000000 0.000001 0.000002 -0.001929 -0.000003 0.021749
#
#
# Mechanical properties :
#
#
# Convention : Reuss Voigt Hill
#
# Bulk Modulus (GPa) = 25.06093 57.86799 41.46446
# Shear Modulus (GPa) = 28.14495 44.09597 36.12046
#
# Velocity S-wave (km/s) = 3.29278 4.12156 3.73026
# Velocity P-wave (km/s) = 4.91028 6.70391 5.87594
#
# Compressibility (1/GPa) = 0.03990274
#
# Stress axis : x y z
#
# Youngs Moduli (GPa) = 145.60846 98.05937 44.53873
#
# Poissons Ratio (x) = 0.27922 0.04964
# Poissons Ratio (y) = 0.41462 -0.18503
# Poissons Ratio (z) = 0.16230 -0.40738
#
# Static dielectric constant tensor:
#      x y z
#    x 1.959700 0.000000 -0.002430 
#    y 0.000000 2.007980 0.000000 
#    z -0.002430 0.000000 2.199390 
# 
# From -- ./inp_files/68297.got.cif
#   From: 2010.05.17/outbox.cif.g08.bks.cpg/sg15_35_cif.got.tgz:68297.got - 2010.06.03 18:47:42.
