data_PCOD9289419
_publ_section_title
;
Structure prediction by ZEFSAII (Michael W. Deem and Ramdas Pophale) SiO2 
 PCOD9289419
Probable space group: C 2/C
;
_chemical_formula_sum "Si O2"
_cell_formula_units_Z 44
_cell_length_a 6.815102
_cell_length_b 13.331974
_cell_length_c 25.683871
_cell_angle_alpha 90.000000
_cell_angle_beta 80.104984
_cell_angle_gamma 90.000000
_cell_volume 2298.890684
_symmetry_space_group_name_H-M "C 2/C"
_symmetry_group_IT_number 15
_symmetry_cell_setting 'monoclinic'
loop_
_space_group_symop_operation_xyz
x,y,z
-x,y,1/2-z
-x,-y,-z
x,-y,1/2+z
1/2+x,1/2+y,z
1/2-x,1/2+y,1/2-z
1/2-x,1/2-y,-z
1/2+x,1/2-y,1/2+z
loop_
_atom_site_type_symbol
_atom_site_label
_atom_site_fract_x
_atom_site_fract_y
_atom_site_fract_z
Si Si1 0.307767 0.501802 0.795728
Si Si2 0.559214 0.612996 0.482010
Si Si3 0.356012 0.649774 0.380861
Si Si4 0.071191 0.727204 0.072204
Si Si5 0.500000 0.859604 0.750000
Si Si6 0.214844 0.278952 0.333080
O O1 0.500000 0.508744 0.750000
O O2 0.371075 0.452290 0.847532
O O3 0.145327 0.429084 0.777349
O O4 0.217697 0.610812 0.809539
O O5 0.500000 0.500000 0.500000
O O6 0.436693 0.637676 0.435548
O O7 0.790443 0.637811 0.457282
O O8 0.518303 0.692045 0.530146
O O9 0.496925 0.729993 0.345608
O O10 0.129615 0.684572 0.394413
O O11 0.198968 0.778831 0.112098
O O12 0.639438 0.791064 0.707404
#
# Coordination Sequence:
#
# PCOD9289419 Si02
#       6
#     8   8   8   8   4   8
#     4  12  25  40  65  92 124 172 212 256 328 375
#     4  10  22  40  64  94 128 167 212 259 319 383
#     4  11  23  41  65  94 129 167 215 261 317 381
#     4  10  22  41  64  91 131 164 207 270 315 373
#     4  12  24  42  62  90 128 164 212 266 308 382
#     4  11  24  42  64  93 129 166 210 265 312 377
#
# _framework density 19.139665000000001
#
# number of rings (size 3 to 8) (size 9 to 14) (size 15 to 20)
#    0.000    1.091    4.545    1.636    0.000    5.091 
#    0.000    0.000    0.000    0.000    0.000    0.000 
#    0.000    0.000    0.000    0.000    0.000    0.000 
#
# Total GULP energy -122940.092950 kJ/mol
# GULP energy per Si atom -5588.186043 kJ/mol
# Density = 1.909610 g / cm^3
# Si number density = 19.139665 Si / 1000 Ang^3
#
#
#
# Elastic Constant Matrix: (Units=GPa)
#
#
# Indices 1 2 3 4 5 6 
#
# 1 56.3825 35.3441 16.3530 0.0000 -20.3487 0.0000
# 2 35.3441 140.4318 47.5792 0.0000 -9.9359 0.0000
# 3 16.3530 47.5792 82.5704 0.0000 -10.4413 0.0000
# 4 0.0000 0.0000 0.0000 16.5236 0.0000 1.4935
# 5 -20.3487 -9.9359 -10.4413 0.0000 41.7561 0.0000
# 6 0.0000 0.0000 0.0000 1.4935 0.0000 18.9816
#
#
#
# Elastic Compliance Matrix: (Units=1/GPa)
#
#
# Indices 1 2 3 4 5 6 
#
# 1 0.025188 -0.005400 -0.000503 0.000000 0.010864 0.000000
# 2 -0.005400 0.010036 -0.004899 0.000000 -0.001469 0.000000
# 3 -0.000503 -0.004899 0.015340 0.000000 0.002425 0.000000
# 4 0.000000 0.000000 0.000000 0.060953 0.000000 -0.004796
# 5 0.010864 -0.001469 0.002425 0.000000 0.029500 0.000000
# 6 0.000000 0.000000 0.000000 -0.004796 0.000000 0.053060
#
#
# Mechanical properties :
#
#
# Convention : Reuss Voigt Hill
#
# Bulk Modulus (GPa) = 34.53115 53.10416 43.81766
# Shear Modulus (GPa) = 22.18921 27.45949 24.82435
#
# Velocity S-wave (km/s) = 3.40859 3.79184 3.60531
# Velocity P-wave (km/s) = 5.79415 6.85395 6.34621
#
# Compressibility (1/GPa) = 0.02895936
#
# Stress axis : x y z
#
# Youngs Moduli (GPa) = 39.70146 99.64099 65.18832
#
# Poissons Ratio (x) = 0.53809 0.03278
# Poissons Ratio (y) = 0.21440 0.31937
# Poissons Ratio (z) = 0.01997 0.48816
#
# Static dielectric constant tensor:
#      x y z
#    x 1.648330 0.000000 0.006240 
#    y 0.000000 1.624650 0.000000 
#    z 0.006240 0.000000 1.672980 
# 
# From -- ./inp_files/260361.got.cif
#   From: 2010.05.17/outbox.cif.g08.bks.cpg/sg15_131_cif.got.tgz:260361.got - 2010.06.03 18:47:42.
