data_PCOD9289203
_publ_section_title
;
Structure prediction by ZEFSAII (Michael W. Deem and Ramdas Pophale) SiO2 
 PCOD9289203
Probable space group: C 2/C
;
_chemical_formula_sum "Si O2"
_cell_formula_units_Z 48
_cell_length_a 16.478116
_cell_length_b 22.117077
_cell_length_c 7.139875
_cell_angle_alpha 90.000000
_cell_angle_beta 52.733701
_cell_angle_gamma 90.000000
_cell_volume 2070.837790
_symmetry_space_group_name_H-M "C 2/C"
_symmetry_group_IT_number 15
_symmetry_cell_setting 'monoclinic'
loop_
_space_group_symop_operation_xyz
x,y,z
-x,y,1/2-z
-x,-y,-z
x,-y,1/2+z
1/2+x,1/2+y,z
1/2-x,1/2+y,1/2-z
1/2-x,1/2-y,-z
1/2+x,1/2-y,1/2+z
loop_
_atom_site_type_symbol
_atom_site_label
_atom_site_fract_x
_atom_site_fract_y
_atom_site_fract_z
Si Si1 0.004283 0.427186 0.465873
Si Si2 0.164998 0.807426 0.207115
Si Si3 0.639902 0.450381 0.696198
Si Si4 0.200000 0.359207 0.140431
Si Si5 0.427929 0.571391 0.630290
Si Si6 0.855116 0.680658 0.172991
O O1 0.915949 0.379685 0.651937
O O2 0.000000 0.421272 0.250000
O O3 0.000000 0.500000 0.500000
O O4 0.113103 0.397925 0.368126
O O5 0.231552 0.823544 0.303410
O O6 0.089519 0.862011 0.280916
O O7 0.102668 0.745505 0.318828
O O8 0.244326 0.812145 0.924635
O O9 0.737198 0.408310 0.574284
O O10 0.651189 0.522541 0.675956
O O11 0.598758 0.430936 0.551883
O O12 0.547843 0.443503 0.973421
O O13 0.152000 0.318499 0.043376
#
# Coordination Sequence:
#
# PCOD9289203 Si02
#       6
#     8   8   8   8   8   8
#     4  10  24  40  63  95 124 163 206 263 314 367
#     4  10  22  40  64  83 121 161 195 254 302 361
#     4   9  19  34  56  86 114 148 197 233 304 349
#     4  10  22  40  62  89 115 165 198 252 304 368
#     4   9  19  35  55  87 115 151 188 251 294 348
#     4  10  23  42  58  91 120 153 209 245 303 365
#
# _framework density 23.179024999999999
#
# number of rings (size 3 to 8) (size 9 to 14) (size 15 to 20)
#    0.000    2.333    0.000    0.500    7.000    2.667 
#   21.000    0.000    0.000    0.000    0.000    0.000 
#    0.000    0.000    0.000    0.000    0.000    0.000 
#
# Total GULP energy -133687.974749 kJ/mol
# GULP energy per Si atom -5570.332281 kJ/mol
# Density = 2.312627 g / cm^3
# Si number density = 23.179025 Si / 1000 Ang^3
#
#
#
# Elastic Constant Matrix: (Units=GPa)
#
#
# Indices 1 2 3 4 5 6 
#
# 1 27.0971 11.4977 -4.8094 0.0000 -1.0592 0.0000
# 2 11.4977 154.4046 26.6793 0.0000 -4.5691 0.0000
# 3 -4.8094 26.6793 41.6287 0.0000 5.7170 0.0000
# 4 0.0000 0.0000 0.0000 27.9767 0.0000 1.4323
# 5 -1.0592 -4.5691 5.7170 0.0000 25.1107 0.0000
# 6 0.0000 0.0000 0.0000 1.4323 0.0000 27.6096
#
#
#
# Elastic Compliance Matrix: (Units=1/GPa)
#
#
# Indices 1 2 3 4 5 6 
#
# 1 0.040026 -0.004298 0.007489 0.000000 -0.000799 0.000000
# 2 -0.004298 0.007895 -0.005914 0.000000 0.002602 0.000000
# 3 0.007489 -0.005914 0.029711 0.000000 -0.007524 0.000000
# 4 0.000000 0.000000 0.000000 0.035839 0.000000 -0.001859
# 5 -0.000799 0.002602 -0.007524 0.000000 0.041976 0.000000
# 6 0.000000 0.000000 0.000000 -0.001859 0.000000 0.036316
#
#
# Mechanical properties :
#
#
# Convention : Reuss Voigt Hill
#
# Bulk Modulus (GPa) = 13.85332 32.20728 23.03030
# Shear Modulus (GPa) = 22.59665 28.79026 25.69345
#
# Velocity S-wave (km/s) = 3.12569 3.52814 3.33299
# Velocity P-wave (km/s) = 4.36076 5.52469 4.97687
#
# Compressibility (1/GPa) = 0.07218484
#
# Stress axis : x y z
#
# Youngs Moduli (GPa) = 24.98382 126.65617 33.65812
#
# Poissons Ratio (x) = 0.54438 -0.25205
# Poissons Ratio (y) = 0.10738 0.19905
# Poissons Ratio (z) = -0.18709 0.74903
#
# Static dielectric constant tensor:
#      x y z
#    x 1.938410 0.000000 -0.026810 
#    y 0.000000 1.948540 0.000000 
#    z -0.026810 0.000000 1.916430 
# 
# From -- ./inp_files/57710.got.cif
#   From: 2010.05.17/outbox.cif.g08.bks.cpg/sg15_29_cif.got.tgz:57710.got - 2010.06.03 18:47:42.
