data_PCOD9289878
_publ_section_title
;
Structure prediction by ZEFSAII (Michael W. Deem and Ramdas Pophale) SiO2 
 PCOD9289878
Probable space group: C 2/C
;
_chemical_formula_sum "Si O2"
_cell_formula_units_Z 48
_cell_length_a 11.773996
_cell_length_b 15.584244
_cell_length_c 13.578609
_cell_angle_alpha 90.000000
_cell_angle_beta 63.868672
_cell_angle_gamma 90.000000
_cell_volume 2236.856721
_symmetry_space_group_name_H-M "C 2/C"
_symmetry_group_IT_number 15
_symmetry_cell_setting 'monoclinic'
loop_
_space_group_symop_operation_xyz
x,y,z
-x,y,1/2-z
-x,-y,-z
x,-y,1/2+z
1/2+x,1/2+y,z
1/2-x,1/2+y,1/2-z
1/2-x,1/2-y,-z
1/2+x,1/2-y,1/2+z
loop_
_atom_site_type_symbol
_atom_site_label
_atom_site_fract_x
_atom_site_fract_y
_atom_site_fract_z
Si Si1 0.831388 0.856771 0.357293
Si Si2 0.086582 0.154189 0.086580
Si Si3 0.402350 0.925235 0.134385
Si Si4 0.000000 0.310741 0.250000
Si Si5 0.500000 0.517799 0.250000
Si Si6 0.049820 0.783605 0.386418
Si Si7 0.354621 0.102589 0.078417
O O1 0.682515 0.872365 0.411575
O O2 0.872474 0.813202 0.238914
O O3 0.903919 0.805200 0.414520
O O4 0.892945 0.951704 0.326114
O O5 0.053042 0.246617 0.146544
O O6 0.220437 0.126329 0.081901
O O7 0.985026 0.084422 0.165264
O O8 0.085795 0.163739 0.970380
O O9 0.399156 0.872903 0.236855
O O10 0.352061 0.022088 0.153736
O O11 0.547232 0.925887 0.043970
O O12 0.086336 0.686075 0.393516
#
# Coordination Sequence:
#
# PCOD9289878 Si02
#       7
#     8   8   8   4   4   8   8
#     4  10  23  42  64  92 131 165 214 262 314 375
#     4  11  21  41  68  95 122 167 222 258 310 376
#     4  11  24  42  60  95 132 163 206 262 318 380
#     4  11  24  40  69  96 122 170 217 260 312 375
#     4   9  20  40  61  94 122 162 213 268 304 365
#     4  10  22  40  69  93 123 171 214 263 310 371
#     4  11  23  41  64  91 133 164 205 261 320 376
#
# _framework density 21.458683000000001
#
# number of rings (size 3 to 8) (size 9 to 14) (size 15 to 20)
#    0.000    1.667    3.333    1.500    2.333    4.667 
#    0.000    0.000    0.000    0.000    0.000    0.000 
#    0.000    0.000    0.000    0.000    0.000    0.000 
#
# Total GULP energy -133921.765563 kJ/mol
# GULP energy per Si atom -5580.073565 kJ/mol
# Density = 2.140984 g / cm^3
# Si number density = 21.458683 Si / 1000 Ang^3
#
#
#
# Elastic Constant Matrix: (Units=GPa)
#
#
# Indices 1 2 3 4 5 6 
#
# 1 122.3187 36.5418 18.5902 0.0000 23.3371 0.0000
# 2 36.5418 125.6935 35.1869 0.0000 38.9839 0.0000
# 3 18.5902 35.1869 58.4257 0.0000 23.7078 0.0000
# 4 0.0000 0.0000 0.0000 -14.7784 0.0000 -13.7864
# 5 23.3371 38.9839 23.7078 0.0000 28.9546 0.0000
# 6 0.0000 0.0000 0.0000 -13.7864 0.0000 6.7650
#
#
#
# Elastic Compliance Matrix: (Units=1/GPa)
#
#
# Indices 1 2 3 4 5 6 
#
# 1 0.009696 -0.000687 0.000186 0.000000 -0.007043 0.000000
# 2 -0.000687 0.013760 -0.001161 0.000000 -0.017022 0.000000
# 3 0.000186 -0.001161 0.025732 0.000000 -0.019655 0.000000
# 4 0.000000 0.000000 0.000000 -0.023324 0.000000 -0.047533
# 5 -0.007043 -0.017022 -0.019655 0.000000 0.079225 0.000000
# 6 0.000000 0.000000 0.000000 -0.047533 0.000000 0.050953
#
#
# Mechanical properties :
#
#
# Convention : Reuss Voigt Hill
#
# Bulk Modulus (GPa) = 21.80367 54.11951 37.96159
# Shear Modulus (GPa) = 28.62834 18.59617 23.61225
#
# Velocity S-wave (km/s) = 3.65652 2.94701 3.32076
# Velocity P-wave (km/s) = 5.29241 6.07082 5.69493
#
# Compressibility (1/GPa) = 0.04586383
#
# Stress axis : x y z
#
# Youngs Moduli (GPa) = 103.13663 72.67498 38.86274
#
# Poissons Ratio (x) = 0.04990 -0.00724
# Poissons Ratio (y) = 0.07081 0.04514
# Poissons Ratio (z) = -0.01921 0.08441
#
# Static dielectric constant tensor:
#      x y z
#    x 1.833760 0.000000 -0.046300 
#    y 0.000000 1.794810 0.000000 
#    z -0.046300 0.000000 1.788950 
# 
# From -- ./inp_files/143602.got.cif
#   From: 2010.05.17/outbox.cif.g08.bks.cpg/sg15_72_cif.got.tgz:143602.got - 2010.06.03 18:47:42.
