data_PCOD9289578
_publ_section_title
;
Structure prediction by ZEFSAII (Michael W. Deem and Ramdas Pophale) SiO2 
 PCOD9289578
Probable space group: C 2/C
;
_chemical_formula_sum "Si O2"
_cell_formula_units_Z 52
_cell_length_a 17.903975
_cell_length_b 18.913379
_cell_length_c 9.355894
_cell_angle_alpha 90.000000
_cell_angle_beta 131.874204
_cell_angle_gamma 90.000000
_cell_volume 2359.032895
_symmetry_space_group_name_H-M "C 2/C"
_symmetry_group_IT_number 15
_symmetry_cell_setting 'monoclinic'
loop_
_space_group_symop_operation_xyz
x,y,z
-x,y,1/2-z
-x,-y,-z
x,-y,1/2+z
1/2+x,1/2+y,z
1/2-x,1/2+y,1/2-z
1/2-x,1/2-y,-z
1/2+x,1/2-y,1/2+z
loop_
_atom_site_type_symbol
_atom_site_label
_atom_site_fract_x
_atom_site_fract_y
_atom_site_fract_z
Si Si1 0.000000 0.027241 0.750000
Si Si2 0.253187 0.069302 0.369294
Si Si3 0.938110 0.702064 0.034989
Si Si4 0.167349 0.943549 0.082490
Si Si5 0.573427 0.175026 0.963873
Si Si6 0.798233 0.200541 0.728047
Si Si7 0.627122 0.346393 0.474828
O O1 0.913651 0.085275 0.662973
O O2 0.944038 0.977488 0.566823
O O3 0.209949 0.061778 0.474389
O O4 0.361839 0.107808 0.505836
O O5 0.238802 0.994109 0.270006
O O6 0.187491 0.121393 0.184348
O O7 0.947933 0.788598 0.050232
O O8 0.000000 0.677927 0.250000
O O9 0.819566 0.693838 0.887653
O O10 0.990504 0.659607 0.976969
O O11 0.157069 0.866847 0.134681
O O12 0.500000 0.207276 0.750000
O O13 0.649047 0.231131 0.134326
O O14 0.815616 0.193556 0.579865
#
# Coordination Sequence:
#
# PCOD9289578 Si02
#       7
#     4   8   8   8   8   8   8
#     4  10  22  40  66 102 128 176 226 274 364 424
#     4  11  25  47  67 100 141 189 231 295 361 418
#     4  12  23  41  71 104 134 190 237 285 351 421
#     4  11  26  43  71 100 145 185 232 297 362 424
#     4  12  27  44  70 103 145 190 243 291 353 422
#     4  12  25  45  69 110 146 183 230 300 360 421
#     4  11  21  41  70 100 146 173 228 295 358 428
#
# _framework density 22.042930999999999
#
# number of rings (size 3 to 8) (size 9 to 14) (size 15 to 20)
#    0.000    0.615    3.846    4.154    3.231    6.769 
#    0.000    3.846    0.000    0.000    0.000    0.000 
#    0.000    0.000    0.000    0.000    0.000    0.000 
#
# Total GULP energy -144954.314610 kJ/mol
# GULP energy per Si atom -5575.165947 kJ/mol
# Density = 2.199276 g / cm^3
# Si number density = 22.042931 Si / 1000 Ang^3
#
#
#
# Elastic Constant Matrix: (Units=GPa)
#
#
# Indices 1 2 3 4 5 6 
#
# 1 101.2421 3.9509 33.8195 0.0000 -18.4845 0.0000
# 2 3.9509 70.5224 -4.5560 0.0000 -7.8468 0.0000
# 3 33.8195 -4.5560 82.8933 0.0000 -9.3354 0.0000
# 4 0.0000 0.0000 0.0000 39.8993 0.0000 3.1098
# 5 -18.4845 -7.8468 -9.3354 0.0000 46.5154 0.0000
# 6 0.0000 0.0000 0.0000 3.1098 0.0000 31.1593
#
#
#
# Elastic Compliance Matrix: (Units=1/GPa)
#
#
# Indices 1 2 3 4 5 6 
#
# 1 0.012112 -0.000548 -0.004543 0.000000 0.003809 0.000000
# 2 -0.000548 0.014573 0.001307 0.000000 0.002503 0.000000
# 3 -0.004543 0.001307 0.014130 0.000000 0.001251 0.000000
# 4 0.000000 0.000000 0.000000 0.025260 0.000000 -0.002521
# 5 0.003809 0.002503 0.001251 0.000000 0.023685 0.000000
# 6 0.000000 0.000000 0.000000 -0.002521 0.000000 0.032345
#
#
# Mechanical properties :
#
#
# Convention : Reuss Voigt Hill
#
# Bulk Modulus (GPa) = 30.07858 35.67629 32.87743
# Shear Modulus (GPa) = 35.52279 38.27769 36.90024
#
# Velocity S-wave (km/s) = 4.01874 4.17166 4.09591
# Velocity P-wave (km/s) = 5.93370 6.27883 6.10870
#
# Compressibility (1/GPa) = 0.03324625
#
# Stress axis : x y z
#
# Youngs Moduli (GPa) = 82.56600 68.61777 70.77284
#
# Poissons Ratio (x) = 0.03762 0.32149
# Poissons Ratio (y) = 0.04526 -0.09247
# Poissons Ratio (z) = 0.37506 -0.08965
#
# Static dielectric constant tensor:
#      x y z
#    x 1.801490 0.000000 0.131540 
#    y 0.000000 1.828190 0.000000 
#    z 0.131540 0.000000 1.611210 
# 
# From -- ./inp_files/50723.got.cif
#   From: 2010.05.17/outbox.cif.g08.bks.cpg/sg15_26_cif.got.tgz:50723.got - 2010.06.03 18:47:42.
