data_PCOD9289744
_publ_section_title
;
Structure prediction by ZEFSAII (Michael W. Deem and Ramdas Pophale) SiO2 
 PCOD9289744
Probable space group: C 2/C
;
_chemical_formula_sum "Si O2"
_cell_formula_units_Z 64
_cell_length_a 17.975517
_cell_length_b 15.342843
_cell_length_c 16.381224
_cell_angle_alpha 90.000000
_cell_angle_beta 42.954226
_cell_angle_gamma 90.000000
_cell_volume 3078.538168
_symmetry_space_group_name_H-M "C 2/C"
_symmetry_group_IT_number 15
_symmetry_cell_setting 'monoclinic'
loop_
_space_group_symop_operation_xyz
x,y,z
-x,y,1/2-z
-x,-y,-z
x,-y,1/2+z
1/2+x,1/2+y,z
1/2-x,1/2+y,1/2-z
1/2-x,1/2-y,-z
1/2+x,1/2-y,1/2+z
loop_
_atom_site_type_symbol
_atom_site_label
_atom_site_fract_x
_atom_site_fract_y
_atom_site_fract_z
Si Si1 0.493613 0.064701 0.927876
Si Si2 0.600702 0.667140 0.118405
Si Si3 0.176499 0.674214 0.963185
Si Si4 0.905481 0.029759 0.513308
Si Si5 0.726034 0.153649 0.743547
Si Si6 0.530165 0.895756 0.814921
Si Si7 0.238704 0.873619 0.932031
Si Si8 0.789994 0.312347 0.583573
O O1 0.601439 0.122974 0.828802
O O2 0.494163 0.995958 0.852904
O O3 0.384136 0.119313 0.027639
O O4 0.500000 0.000000 0.000000
O O5 0.500000 0.703134 0.250000
O O6 0.693618 0.641975 0.109526
O O7 0.560670 0.590859 0.090230
O O8 0.653053 0.742257 0.021727
O O9 0.237497 0.649273 0.831772
O O10 0.194122 0.776268 0.961016
O O11 0.219168 0.621460 0.007958
O O12 0.046595 0.656568 0.061461
O O13 0.811933 0.087414 0.633637
O O14 0.849830 0.944629 0.519848
O O15 0.000000 0.000000 0.500000
O O16 0.745235 0.251039 0.692635
O O17 0.500000 0.859872 0.750000
O O18 0.659755 0.886678 0.711866
#
# Coordination Sequence:
#
# PCOD9289744 Si02
#       8
#     8   8   8   8   8   8   8   8
#     4  12  24  39  67 103 132 170 226 276 345 401
#     4  10  23  46  66  93 133 175 228 270 347 412
#     4  10  23  41  67  96 132 180 221 273 345 409
#     4  11  26  43  65  97 131 180 226 283 343 410
#     4  11  24  43  66 101 137 172 226 282 346 405
#     4  10  22  40  67  98 127 170 224 280 334 396
#     4  10  23  44  65  93 137 174 225 281 336 407
#     4  10  25  41  69  99 134 177 221 283 342 408
#
# _framework density 20.789086999999999
#
# number of rings (size 3 to 8) (size 9 to 14) (size 15 to 20)
#    0.000    1.500    2.500    0.750    5.250    7.500 
#    0.000    3.125    0.000    0.000    0.000    0.000 
#    0.000    0.000    0.000    0.000    0.000    0.000 
#
# Total GULP energy -178628.708484 kJ/mol
# GULP energy per Si atom -5582.147140 kJ/mol
# Density = 2.074177 g / cm^3
# Si number density = 20.789087 Si / 1000 Ang^3
#
#
#
# Elastic Constant Matrix: (Units=GPa)
#
#
# Indices 1 2 3 4 5 6 
#
# 1 91.8498 39.7747 29.8906 0.0000 -0.3995 0.0000
# 2 39.7747 84.9282 23.3634 0.0000 -4.0728 0.0000
# 3 29.8906 23.3634 100.0596 0.0000 10.4255 0.0000
# 4 0.0000 0.0000 0.0000 36.7096 0.0000 -8.9074
# 5 -0.3995 -4.0728 10.4255 0.0000 29.9814 0.0000
# 6 0.0000 0.0000 0.0000 -8.9074 0.0000 35.8165
#
#
#
# Elastic Compliance Matrix: (Units=1/GPa)
#
#
# Indices 1 2 3 4 5 6 
#
# 1 0.014417 -0.005915 -0.002970 0.000000 0.000421 0.000000
# 2 -0.005915 0.015246 -0.002076 0.000000 0.002714 0.000000
# 3 -0.002970 -0.002076 0.011828 0.000000 -0.004434 0.000000
# 4 0.000000 0.000000 0.000000 0.028990 0.000000 0.007210
# 5 0.000421 0.002714 -0.004434 0.000000 0.035270 0.000000
# 6 0.000000 0.000000 0.000000 0.007210 0.000000 0.029713
#
#
# Mechanical properties :
#
#
# Convention : Reuss Voigt Hill
#
# Bulk Modulus (GPa) = 51.09720 51.43277 51.26498
# Shear Modulus (GPa) = 30.50493 32.75542 31.63017
#
# Velocity S-wave (km/s) = 3.83476 3.97370 3.90485
# Velocity P-wave (km/s) = 6.65127 6.77109 6.71145
#
# Compressibility (1/GPa) = 0.01957055
#
# Stress axis : x y z
#
# Youngs Moduli (GPa) = 69.36303 65.59127 84.54636
#
# Poissons Ratio (x) = 0.38796 0.25106
# Poissons Ratio (y) = 0.41027 0.17549
# Poissons Ratio (z) = 0.20598 0.13615
#
# Static dielectric constant tensor:
#      x y z
#    x 1.816240 0.000000 0.024930 
#    y 0.000000 1.727220 0.000000 
#    z 0.024930 0.000000 1.792260 
# 
# From -- ./inp_files/211361.got.cif
#   From: 2010.05.17/outbox.cif.g08.bks.cpg/sg15_106_cif.got.tgz:211361.got - 2010.06.03 18:47:42.
