data_PCOD9289453
_publ_section_title
;
Structure prediction by ZEFSAII (Michael W. Deem and Ramdas Pophale) SiO2 
 PCOD9289453
Probable space group: C 2/C
;
_chemical_formula_sum "Si O2"
_cell_formula_units_Z 40
_cell_length_a 5.073404
_cell_length_b 9.583066
_cell_length_c 31.792174
_cell_angle_alpha 90.000000
_cell_angle_beta 111.168990
_cell_angle_gamma 90.000000
_cell_volume 1441.391716
_symmetry_space_group_name_H-M "C 2/C"
_symmetry_group_IT_number 15
_symmetry_cell_setting 'monoclinic'
loop_
_space_group_symop_operation_xyz
x,y,z
-x,y,1/2-z
-x,-y,-z
x,-y,1/2+z
1/2+x,1/2+y,z
1/2-x,1/2+y,1/2-z
1/2-x,1/2-y,-z
1/2+x,1/2-y,1/2+z
loop_
_atom_site_type_symbol
_atom_site_label
_atom_site_fract_x
_atom_site_fract_y
_atom_site_fract_z
Si Si1 0.320792 0.029148 0.031911
Si Si2 0.249983 0.744897 0.050830
Si Si3 0.189120 0.117988 0.134426
Si Si4 0.211776 0.054806 0.712109
Si Si5 0.697697 0.328334 0.816474
O O1 0.356203 0.902709 0.067587
O O2 0.444854 0.184450 0.047976
O O3 0.500000 0.000000 0.000000
O O4 0.000000 0.000000 0.000000
O O5 0.475144 0.637534 0.083896
O O6 0.250000 0.750000 0.000000
O O7 0.210222 0.973321 0.161269
O O8 0.507382 0.156145 0.142885
O O9 0.048738 0.209943 0.164404
O O10 0.500000 0.998901 0.750000
O O11 0.231226 0.220402 0.716184
O O12 0.921772 0.976840 0.706228
#
# Coordination Sequence:
#
# PCOD9289453 Si02
#       5
#     8   8   8   8   8
#     4  10  22  40  64  96 133 183 244 293 357 425
#     4  10  23  45  70 103 144 197 245 308 369 445
#     4  10  26  45  70 109 147 193 247 307 374 447
#     4  10  26  48  78 106 149 192 251 307 383 452
#     4  10  26  45  71 109 147 192 243 311 374 452
#
# _framework density 27.750955000000001
#
# number of rings (size 3 to 8) (size 9 to 14) (size 15 to 20)
#    1.200    0.800    0.000    0.600    8.400    6.400 
#    3.600    0.000    0.000    0.000    0.000    0.000 
#    0.000    0.000    0.000    0.000    0.000    0.000 
#
# Total GULP energy -111476.683984 kJ/mol
# GULP energy per Si atom -5573.834199 kJ/mol
# Density = 2.768779 g / cm^3
# Si number density = 27.750955 Si / 1000 Ang^3
#
#
#
# Elastic Constant Matrix: (Units=GPa)
#
#
# Indices 1 2 3 4 5 6 
#
# 1 210.1864 59.0019 40.2340 0.0000 26.2283 0.0000
# 2 59.0019 158.8143 -3.2374 0.0000 4.1912 0.0000
# 3 40.2340 -3.2374 112.7165 0.0000 17.0297 0.0000
# 4 0.0000 0.0000 0.0000 29.6224 0.0000 -14.7986
# 5 26.2283 4.1912 17.0297 0.0000 46.3674 0.0000
# 6 0.0000 0.0000 0.0000 -14.7986 0.0000 84.8483
#
#
#
# Elastic Compliance Matrix: (Units=1/GPa)
#
#
# Indices 1 2 3 4 5 6 
#
# 1 0.006050 -0.002218 -0.001838 0.000000 -0.002547 0.000000
# 2 -0.002218 0.007133 0.000958 0.000000 0.000258 0.000000
# 3 -0.001838 0.000958 0.009964 0.000000 -0.002706 0.000000
# 4 0.000000 0.000000 0.000000 0.036980 0.000000 0.006450
# 5 -0.002547 0.000258 -0.002706 0.000000 0.023978 0.000000
# 6 0.000000 0.000000 0.000000 0.006450 0.000000 0.012911
#
#
# Mechanical properties :
#
#
# Convention : Reuss Voigt Hill
#
# Bulk Modulus (GPa) = 58.99677 74.85714 66.92696
# Shear Modulus (GPa) = 45.92862 57.88220 51.90541
#
# Velocity S-wave (km/s) = 4.07262 4.57198 4.32950
# Velocity P-wave (km/s) = 6.58942 7.40971 7.01157
#
# Compressibility (1/GPa) = 0.01695008
#
# Stress axis : x y z
#
# Youngs Moduli (GPa) = 165.28991 140.18629 100.35687
#
# Poissons Ratio (x) = 0.31092 0.18451
# Poissons Ratio (y) = 0.36660 -0.09610
# Poissons Ratio (z) = 0.30388 -0.13424
#
# Static dielectric constant tensor:
#      x y z
#    x 2.133060 0.000000 0.167280 
#    y 0.000000 2.673050 0.000000 
#    z 0.167280 0.000000 1.782040 
# 
# From -- ./inp_files/305006.got.cif
#   From: 2010.05.17/outbox.cif.g08.bks.cpg/sg15_153_cif.got.tgz:305006.got - 2010.06.03 18:47:42.
