data_PCOD9289054
_publ_section_title
;
Structure prediction by ZEFSAII (Michael W. Deem and Ramdas Pophale) SiO2 
 PCOD9289054
Probable space group: C 2/C
;
_chemical_formula_sum "Si O2"
_cell_formula_units_Z 44
_cell_length_a 22.605070
_cell_length_b 16.317273
_cell_length_c 16.314988
_cell_angle_alpha 90.000000
_cell_angle_beta 22.164524
_cell_angle_gamma 90.000000
_cell_volume 2270.332782
_symmetry_space_group_name_H-M "C 2/C"
_symmetry_group_IT_number 15
_symmetry_cell_setting 'monoclinic'
loop_
_space_group_symop_operation_xyz
x,y,z
-x,y,1/2-z
-x,-y,-z
x,-y,1/2+z
1/2+x,1/2+y,z
1/2-x,1/2+y,1/2-z
1/2-x,1/2-y,-z
1/2+x,1/2-y,1/2+z
loop_
_atom_site_type_symbol
_atom_site_label
_atom_site_fract_x
_atom_site_fract_y
_atom_site_fract_z
Si Si1 0.479022 0.146481 0.037444
Si Si2 0.204416 0.070032 0.849284
Si Si3 0.354640 0.392356 0.612823
Si Si4 0.954322 0.196194 0.141496
Si Si5 0.500000 0.376595 0.750000
Si Si6 0.930298 0.234013 0.750103
O O1 0.303633 0.123460 0.236345
O O2 0.478230 0.198405 0.121934
O O3 0.609954 0.077478 0.882158
O O4 0.539828 0.209565 0.889788
O O5 0.141442 0.990145 0.884812
O O6 0.126772 0.152513 0.910291
O O7 0.127620 0.070003 0.038362
O O8 0.348236 0.349725 0.710315
O O9 0.501154 0.350341 0.377305
O O10 0.921129 0.177030 0.279007
O O11 0.000000 0.243515 0.750000
O O12 0.750000 0.250000 0.000000
#
# Coordination Sequence:
#
# PCOD9289054 Si02
#       6
#     8   8   8   8   4   8
#     4  11  22  39  61  88 124 162 202 256 315 371
#     4  10  22  40  59  88 122 162 205 254 313 366
#     4  11  22  38  62  90 125 160 200 259 319 369
#     4   9  20  40  60  85 116 162 210 244 304 367
#     4   8  22  36  60  88 112 162 208 250 296 356
#     4  11  23  39  63  95 120 163 209 260 307 376
#
# _framework density 19.380417999999999
#
# number of rings (size 3 to 8) (size 9 to 14) (size 15 to 20)
#    1.091    0.727    1.818    3.273    3.818    0.727 
#    0.000    0.000    0.000    0.000    0.000    0.000 
#    0.000    0.000    0.000    0.000    0.000    0.000 
#
# Total GULP energy -122479.635089 kJ/mol
# GULP energy per Si atom -5567.256140 kJ/mol
# Density = 1.933631 g / cm^3
# Si number density = 19.380418 Si / 1000 Ang^3
#
#
#
# Elastic Constant Matrix: (Units=GPa)
#
#
# Indices 1 2 3 4 5 6 
#
# 1 96.3636 8.4689 5.8539 0.0000 -4.3750 0.0001
# 2 8.4689 58.5839 24.3120 -0.0002 -8.5163 0.0000
# 3 5.8539 24.3120 80.0390 -0.0002 -12.6903 -0.0001
# 4 0.0000 -0.0002 -0.0002 14.9628 0.0000 -12.0558
# 5 -4.3750 -8.5163 -12.6903 0.0000 31.7538 0.0000
# 6 0.0001 0.0000 -0.0001 -12.0558 0.0000 22.7494
#
#
#
# Elastic Compliance Matrix: (Units=1/GPa)
#
#
# Indices 1 2 3 4 5 6 
#
# 1 0.010550 -0.001286 -0.000219 0.000000 0.001021 0.000000
# 2 -0.001286 0.019971 -0.005500 0.000000 0.002981 0.000000
# 3 -0.000219 -0.005500 0.014885 0.000000 0.004444 0.000000
# 4 0.000000 0.000000 0.000000 0.116633 0.000000 0.061809
# 5 0.001021 0.002981 0.004444 0.000000 0.034208 0.000000
# 6 0.000000 0.000000 0.000000 0.061809 0.000000 0.076712
#
#
# Mechanical properties :
#
#
# Convention : Reuss Voigt Hill
#
# Bulk Modulus (GPa) = 31.84999 34.69514 33.27256
# Shear Modulus (GPa) = 16.81042 26.98331 21.89686
#
# Velocity S-wave (km/s) = 2.94835 3.73540 3.36496
# Velocity P-wave (km/s) = 5.29718 6.04527 5.68355
#
# Compressibility (1/GPa) = 0.03139718
#
# Stress axis : x y z
#
# Youngs Moduli (GPa) = 94.78639 50.07249 67.18190
#
# Poissons Ratio (x) = 0.06438 0.01472
# Poissons Ratio (y) = 0.12187 0.36947
# Poissons Ratio (z) = 0.02077 0.27538
#
# Static dielectric constant tensor:
#      x y z
#    x 1.670450 0.000000 -0.007970 
#    y 0.000000 1.702730 0.000000 
#    z -0.007970 0.000000 1.719370 
# 
# From -- ./inp_files/219883.got.cif
#   From: 2010.05.17/outbox.cif.g08.bks.cpg/sg15_110_cif.got.tgz:219883.got - 2010.06.03 18:47:42.
