data_PCOD9289893
_publ_section_title
;
Structure prediction by ZEFSAII (Michael W. Deem and Ramdas Pophale) SiO2 
 PCOD9289893
Probable space group: C 2/C
;
_chemical_formula_sum "Si O2"
_cell_formula_units_Z 56
_cell_length_a 10.445247
_cell_length_b 15.753027
_cell_length_c 19.559913
_cell_angle_alpha 90.000000
_cell_angle_beta 132.226995
_cell_angle_gamma 90.000000
_cell_volume 2383.239531
_symmetry_space_group_name_H-M "C 2/C"
_symmetry_group_IT_number 15
_symmetry_cell_setting 'monoclinic'
loop_
_space_group_symop_operation_xyz
x,y,z
-x,y,1/2-z
-x,-y,-z
x,-y,1/2+z
1/2+x,1/2+y,z
1/2-x,1/2+y,1/2-z
1/2-x,1/2-y,-z
1/2+x,1/2-y,1/2+z
loop_
_atom_site_type_symbol
_atom_site_label
_atom_site_fract_x
_atom_site_fract_y
_atom_site_fract_z
Si Si1 0.620447 0.581716 0.550822
Si Si2 0.394236 0.666499 0.275728
Si Si3 0.528180 0.251801 0.561116
Si Si4 0.367104 0.752319 0.610433
Si Si5 0.464475 0.086352 0.586217
Si Si6 0.284946 0.337823 0.285678
Si Si7 0.063073 0.429067 0.696760
O O1 0.500000 0.500000 0.500000
O O2 0.525527 0.672145 0.507924
O O3 0.779955 0.583810 0.556454
O O4 0.695985 0.587515 0.653220
O O5 0.500000 0.630946 0.250000
O O6 0.509229 0.707364 0.377746
O O7 0.285352 0.748108 0.209806
O O8 0.262320 0.600414 0.262945
O O9 0.733954 0.243053 0.624763
O O10 0.448408 0.158088 0.521128
O O11 0.250000 0.750000 0.500000
O O12 0.521279 0.683944 0.669440
O O13 0.452808 0.843856 0.647268
O O14 0.626223 0.130262 0.682988
O O15 0.521858 0.988972 0.616466
O O16 0.000000 0.461031 0.750000
#
# Coordination Sequence:
#
# PCOD9289893 Si02
#       7
#     8   8   8   8   8   8   8
#     4  12  24  41  71 103 135 184 238 293 352 426
#     4  10  22  41  68  99 136 180 229 291 359 423
#     4  11  23  44  69 102 138 184 231 296 363 428
#     4  11  22  43  72 100 138 186 240 289 367 434
#     4  11  25  41  65 102 139 180 236 290 357 429
#     4  10  22  40  69  97 140 179 232 293 348 428
#     4  11  22  42  71  99 136 183 239 293 349 438
#
# _framework density 23.497426999999998
#
# number of rings (size 3 to 8) (size 9 to 14) (size 15 to 20)
#    0.000    1.143    2.857    4.286    2.000    0.571 
#    2.571    0.714    0.000    0.000    0.000    0.000 
#    0.000    0.000    0.000    0.000    0.000    0.000 
#
# Total GULP energy -156159.510815 kJ/mol
# GULP energy per Si atom -5577.125386 kJ/mol
# Density = 2.344395 g / cm^3
# Si number density = 23.497427 Si / 1000 Ang^3
#
#
#
# Elastic Constant Matrix: (Units=GPa)
#
#
# Indices 1 2 3 4 5 6 
#
# 1 96.3505 30.6891 11.7266 0.0000 17.0261 0.0000
# 2 30.6891 118.9982 4.8708 0.0000 5.5908 0.0000
# 3 11.7266 4.8708 63.6810 0.0000 5.3260 0.0000
# 4 0.0000 0.0000 0.0000 37.7091 0.0000 2.8611
# 5 17.0261 5.5908 5.3260 0.0000 32.7974 0.0000
# 6 0.0000 0.0000 0.0000 2.8611 0.0000 28.8239
#
#
#
# Elastic Compliance Matrix: (Units=1/GPa)
#
#
# Indices 1 2 3 4 5 6 
#
# 1 0.012509 -0.002891 -0.001602 0.000000 -0.005741 0.000000
# 2 -0.002891 0.009157 -0.000165 0.000000 -0.000033 0.000000
# 3 -0.001602 -0.000165 0.016159 0.000000 -0.001764 0.000000
# 4 0.000000 0.000000 0.000000 0.026720 0.000000 -0.002652
# 5 -0.005741 -0.000033 -0.001764 0.000000 0.033763 0.000000
# 6 0.000000 0.000000 0.000000 -0.002652 0.000000 0.034957
#
#
# Mechanical properties :
#
#
# Convention : Reuss Voigt Hill
#
# Bulk Modulus (GPa) = 35.07753 41.51143 38.29448
# Shear Modulus (GPa) = 32.87668 35.31562 34.09615
#
# Velocity S-wave (km/s) = 3.74459 3.88100 3.81341
# Velocity P-wave (km/s) = 5.80143 6.14717 5.97680
#
# Compressibility (1/GPa) = 0.02850828
#
# Stress axis : x y z
#
# Youngs Moduli (GPa) = 79.94256 109.20207 61.88693
#
# Poissons Ratio (x) = 0.31567 0.09916
# Poissons Ratio (y) = 0.23109 0.01023
# Poissons Ratio (z) = 0.12809 0.01805
#
# Static dielectric constant tensor:
#      x y z
#    x 1.993260 0.000000 -0.076380 
#    y 0.000000 1.958600 0.000000 
#    z -0.076380 0.000000 2.032630 
# 
# From -- ./inp_files/270469.got.cif
#   From: 2010.05.17/outbox.cif.g08.bks.cpg/sg15_136_cif.got.tgz:270469.got - 2010.06.03 18:47:42.
