data_PCOD9289190
_publ_section_title
;
Structure prediction by ZEFSAII (Michael W. Deem and Ramdas Pophale) SiO2 
 PCOD9289190
Probable space group: C 2/C
;
_chemical_formula_sum "Si O2"
_cell_formula_units_Z 60
_cell_length_a 7.177349
_cell_length_b 11.804896
_cell_length_c 27.855034
_cell_angle_alpha 90.000000
_cell_angle_beta 95.040378
_cell_angle_gamma 90.000000
_cell_volume 2350.970952
_symmetry_space_group_name_H-M "C 2/C"
_symmetry_group_IT_number 15
_symmetry_cell_setting 'monoclinic'
loop_
_space_group_symop_operation_xyz
x,y,z
-x,y,1/2-z
-x,-y,-z
x,-y,1/2+z
1/2+x,1/2+y,z
1/2-x,1/2+y,1/2-z
1/2-x,1/2-y,-z
1/2+x,1/2-y,1/2+z
loop_
_atom_site_type_symbol
_atom_site_label
_atom_site_fract_x
_atom_site_fract_y
_atom_site_fract_z
Si Si1 0.500000 0.257327 0.250000
Si Si2 0.351387 0.364569 0.636334
Si Si3 0.880121 0.772819 0.092300
Si Si4 0.834168 0.128106 0.839042
Si Si5 0.243405 0.116025 0.179019
Si Si6 0.004908 0.213152 0.039374
Si Si7 0.254423 0.429933 0.481771
Si Si8 0.451056 0.945452 0.927226
O O1 0.573310 0.336715 0.209139
O O2 0.338607 0.173281 0.226895
O O3 0.280538 0.239747 0.648786
O O4 0.518256 0.392131 0.676097
O O5 0.449911 0.351497 0.586944
O O6 0.177573 0.450953 0.623449
O O7 0.811660 0.699441 0.137508
O O8 0.702219 0.772895 0.053749
O O9 0.999868 0.876113 0.116719
O O10 0.022408 0.689297 0.068828
O O11 0.711976 0.015383 0.830746
O O12 0.962627 0.117983 0.997649
O O13 0.863033 0.316156 0.030848
O O14 0.170983 0.480498 0.529585
O O15 0.162582 0.507874 0.438259
#
# Coordination Sequence:
#
# PCOD9289190 Si02
#       8
#     4   8   8   8   8   8   8   8
#     4  10  24  42  56  90 120 126 188 228 260 362
#     4   9  20  37  56  83 110 142 196 226 270 349
#     4   9  20  37  54  84 114 142 200 235 264 347
#     4  10  22  40  62  86 113 150 178 227 287 332
#     4  10  22  40  62  86 113 150 178 227 287 332
#     4   9  18  33  50  76 112 146 190 240 272 332
#     4   9  18  30  50  75 108 155 188 231 298 311
#     4   9  18  33  50  76 112 146 190 240 272 332
#
# _framework density 25.521367999999999
#
# number of rings (size 3 to 8) (size 9 to 14) (size 15 to 20)
#    0.000    2.667    0.000    0.000    3.733    3.733 
#    0.000    0.000    0.000    0.000    0.000    0.000 
#    0.000    0.000    0.000    0.000    0.000    0.000 
#
# Total GULP energy -167399.274859 kJ/mol
# GULP energy per Si atom -5579.975829 kJ/mol
# Density = 2.546328 g / cm^3
# Si number density = 25.521368 Si / 1000 Ang^3
#
#
#
# Elastic Constant Matrix: (Units=GPa)
#
#
# Indices 1 2 3 4 5 6 
#
# 1 101.5677 7.2505 37.5002 0.0000 21.5460 0.0000
# 2 7.2505 93.6634 26.1276 0.0000 5.1786 0.0000
# 3 37.5002 26.1276 88.0092 0.0000 23.0750 0.0000
# 4 0.0000 0.0000 0.0000 24.8494 0.0000 3.9708
# 5 21.5460 5.1786 23.0750 0.0000 34.1490 0.0000
# 6 0.0000 0.0000 0.0000 3.9708 0.0000 39.2327
#
#
#
# Elastic Compliance Matrix: (Units=1/GPa)
#
#
# Indices 1 2 3 4 5 6 
#
# 1 0.012409 0.000461 -0.004075 0.000000 -0.005146 0.000000
# 2 0.000461 0.011671 -0.003793 0.000000 0.000502 0.000000
# 3 -0.004075 -0.003793 0.016285 0.000000 -0.007858 0.000000
# 4 0.000000 0.000000 0.000000 0.040904 0.000000 -0.004140
# 5 -0.005146 0.000502 -0.007858 0.000000 0.037763 0.000000
# 6 0.000000 0.000000 0.000000 -0.004140 0.000000 0.025908
#
#
# Mechanical properties :
#
#
# Convention : Reuss Voigt Hill
#
# Bulk Modulus (GPa) = 39.13802 47.22190 43.17996
# Shear Modulus (GPa) = 29.71388 33.80368 31.75878
#
# Velocity S-wave (km/s) = 3.41585 3.64335 3.53143
# Velocity P-wave (km/s) = 5.56112 6.02011 5.79516
#
# Compressibility (1/GPa) = 0.02555060
#
# Stress axis : x y z
#
# Youngs Moduli (GPa) = 80.58761 85.68158 61.40628
#
# Poissons Ratio (x) = -0.03947 0.25023
# Poissons Ratio (y) = -0.03712 0.23290
# Poissons Ratio (z) = 0.32839 0.32498
#
# Static dielectric constant tensor:
#      x y z
#    x 2.162210 0.000000 0.084810 
#    y 0.000000 2.070860 0.000000 
#    z 0.084810 0.000000 2.074300 
# 
# From -- ./inp_files/307527.got.cif
#   From: 2010.05.17/outbox.cif.g08.bks.cpg/sg15_154_cif.got.tgz:307527.got - 2010.06.03 18:47:42.
