data_PCOD9289339
_publ_section_title
;
Structure prediction by ZEFSAII (Michael W. Deem and Ramdas Pophale) SiO2 
 PCOD9289339
Probable space group: C 2/C
;
_chemical_formula_sum "Si O2"
_cell_formula_units_Z 52
_cell_length_a 11.169218
_cell_length_b 9.004459
_cell_length_c 24.380059
_cell_angle_alpha 90.000000
_cell_angle_beta 124.492193
_cell_angle_gamma 90.000000
_cell_volume 2020.921874
_symmetry_space_group_name_H-M "C 2/C"
_symmetry_group_IT_number 15
_symmetry_cell_setting 'monoclinic'
loop_
_space_group_symop_operation_xyz
x,y,z
-x,y,1/2-z
-x,-y,-z
x,-y,1/2+z
1/2+x,1/2+y,z
1/2-x,1/2+y,1/2-z
1/2-x,1/2-y,-z
1/2+x,1/2-y,1/2+z
loop_
_atom_site_type_symbol
_atom_site_label
_atom_site_fract_x
_atom_site_fract_y
_atom_site_fract_z
Si Si1 0.358101 0.393096 0.954128
Si Si2 0.764568 0.572639 0.971085
Si Si3 0.585171 0.428770 0.123068
Si Si4 0.642178 0.269966 0.251601
Si Si5 0.389578 0.961365 0.313973
Si Si6 0.703612 0.862872 0.619324
Si Si7 0.000000 0.761391 0.750000
O O1 0.347598 0.219570 0.969924
O O2 0.351965 0.420457 0.887146
O O3 0.500000 0.500000 0.000000
O O4 0.232660 0.454121 0.962501
O O5 0.588429 0.589282 0.919234
O O6 0.796508 0.437727 0.939460
O O7 0.632994 0.374140 0.195127
O O8 0.659545 0.306768 0.103622
O O9 0.500000 0.283556 0.250000
O O10 0.775600 0.351180 0.313647
O O11 0.654528 0.099993 0.236603
O O12 0.471389 0.847259 0.294686
O O13 0.421447 0.060262 0.376195
O O14 0.859466 0.857202 0.693252
#
# Coordination Sequence:
#
# PCOD9289339 Si02
#       7
#     8   8   8   8   8   8   4
#     4   9  21  44  70  96 127 162 214 275 337 395
#     4  10  22  43  70  94 124 169 212 271 338 391
#     4  10  22  40  63  97 128 166 217 265 326 383
#     4  11  23  37  60  87 126 174 212 260 313 374
#     4  11  23  39  58  88 125 171 221 257 309 378
#     4  11  26  40  63  98 130 175 221 261 322 386
#     4  12  24  42  60  90 140 170 222 266 310 382
#
# _framework density 25.730829
#
# number of rings (size 3 to 8) (size 9 to 14) (size 15 to 20)
#    0.000    1.538    3.846    0.923    3.231    8.000 
#    0.000    6.923    0.000    0.000    0.000    0.000 
#    0.000    0.000    0.000    0.000    0.000    0.000 
#
# Total GULP energy -144798.271892 kJ/mol
# GULP energy per Si atom -5569.164304 kJ/mol
# Density = 2.567226 g / cm^3
# Si number density = 25.730829 Si / 1000 Ang^3
#
#
#
# Elastic Constant Matrix: (Units=GPa)
#
#
# Indices 1 2 3 4 5 6 
#
# 1 139.3723 94.0142 27.1880 0.0000 -7.3690 0.0000
# 2 94.0142 129.0618 31.9660 0.0000 -25.6780 0.0000
# 3 27.1880 31.9660 38.8353 0.0000 -6.8704 0.0000
# 4 0.0000 0.0000 0.0000 52.0017 0.0000 -29.7091
# 5 -7.3690 -25.6780 -6.8704 0.0000 31.8103 0.0000
# 6 0.0000 0.0000 0.0000 -29.7091 0.0000 61.3408
#
#
#
# Elastic Compliance Matrix: (Units=1/GPa)
#
#
# Indices 1 2 3 4 5 6 
#
# 1 0.015261 -0.011910 -0.002034 0.000000 -0.006518 0.000000
# 2 -0.011910 0.020449 -0.006303 0.000000 0.012387 0.000000
# 3 -0.002034 -0.006303 0.032625 0.000000 0.001487 0.000000
# 4 0.000000 0.000000 0.000000 0.026587 0.000000 0.012877
# 5 -0.006518 0.012387 0.001487 0.000000 0.040247 0.000000
# 6 0.000000 0.000000 0.000000 0.012877 0.000000 0.022539
#
#
# Mechanical properties :
#
#
# Convention : Reuss Voigt Hill
#
# Bulk Modulus (GPa) = 35.91715 68.17844 52.04779
# Shear Modulus (GPa) = 24.09851 39.30398 31.70124
#
# Velocity S-wave (km/s) = 3.06365 3.91257 3.51384
# Velocity P-wave (km/s) = 5.14817 6.85312 6.06090
#
# Compressibility (1/GPa) = 0.02784185
#
# Stress axis : x y z
#
# Youngs Moduli (GPa) = 65.52672 48.90110 30.65139
#
# Poissons Ratio (x) = 0.58240 0.06234
# Poissons Ratio (y) = 0.78041 0.19320
# Poissons Ratio (z) = 0.13328 0.30823
#
# Static dielectric constant tensor:
#      x y z
#    x 2.053140 0.000000 0.023100 
#    y 0.000000 2.051360 0.000000 
#    z 0.023100 0.000000 1.977890 
# 
# From -- ./inp_files/291270.got.cif
#   From: 2010.05.17/outbox.cif.g08.bks.cpg/sg15_146_cif.got.tgz:291270.got - 2010.06.03 18:47:42.
