data_PCOD9289912
_publ_section_title
;
Structure prediction by ZEFSAII (Michael W. Deem and Ramdas Pophale) SiO2 
 PCOD9289912
Probable space group: C 2/C
;
_chemical_formula_sum "Si O2"
_cell_formula_units_Z 44
_cell_length_a 23.062208
_cell_length_b 7.279419
_cell_length_c 13.014753
_cell_angle_alpha 90.000000
_cell_angle_beta 120.598817
_cell_angle_gamma 90.000000
_cell_volume 1880.666742
_symmetry_space_group_name_H-M "C 2/C"
_symmetry_group_IT_number 15
_symmetry_cell_setting 'monoclinic'
loop_
_space_group_symop_operation_xyz
x,y,z
-x,y,1/2-z
-x,-y,-z
x,-y,1/2+z
1/2+x,1/2+y,z
1/2-x,1/2+y,1/2-z
1/2-x,1/2-y,-z
1/2+x,1/2-y,1/2+z
loop_
_atom_site_type_symbol
_atom_site_label
_atom_site_fract_x
_atom_site_fract_y
_atom_site_fract_z
Si Si1 0.905522 0.404525 0.787560
Si Si2 0.301810 0.164613 0.802795
Si Si3 0.466601 0.688109 0.007441
Si Si4 0.320797 0.557259 0.932020
Si Si5 0.294901 0.617850 0.610642
Si Si6 0.500000 0.875445 0.250000
O O1 0.865347 0.553552 0.818933
O O2 0.966726 0.327203 0.911512
O O3 0.854319 0.240527 0.712307
O O4 0.935148 0.496249 0.711679
O O5 0.320277 0.359368 0.871361
O O6 0.257874 0.061034 0.850260
O O7 0.247888 0.158222 0.661359
O O8 0.387436 0.658971 0.957256
O O9 0.500000 0.500000 0.000000
O O10 0.495683 0.758815 0.141479
O O11 0.323295 0.528887 0.056829
O O12 0.250000 0.750000 0.500000
#
# Coordination Sequence:
#
# PCOD9289912 Si02
#       6
#     8   8   8   8   8   4
#     4  12  26  49  73 106 150 191 247 306 372 444
#     4  11  21  44  71 110 140 186 237 305 379 432
#     4  12  29  50  70 107 145 202 254 306 363 438
#     4  11  23  42  74 102 145 184 240 305 372 437
#     4  10  22  40  70 103 140 179 224 296 372 424
#     4  12  32  48  76 106 142 212 252 302 368 442
#
# _framework density 23.395956999999999
#
# number of rings (size 3 to 8) (size 9 to 14) (size 15 to 20)
#    0.000    0.727    5.455    1.636   10.182    1.455 
#    0.000    2.727    0.000    0.000    0.000    0.000 
#    0.000    0.000    0.000    0.000    0.000    0.000 
#
# Total GULP energy -123030.481155 kJ/mol
# GULP energy per Si atom -5592.294598 kJ/mol
# Density = 2.334271 g / cm^3
# Si number density = 23.395957 Si / 1000 Ang^3
#
#
#
# Elastic Constant Matrix: (Units=GPa)
#
#
# Indices 1 2 3 4 5 6 
#
# 1 89.1028 16.4623 14.2882 0.0000 -20.1807 0.0000
# 2 16.4623 65.5418 19.0546 0.0000 -5.7053 0.0000
# 3 14.2882 19.0546 109.1494 0.0000 -7.7967 0.0000
# 4 0.0000 0.0000 0.0000 46.4474 0.0000 -6.7446
# 5 -20.1807 -5.7053 -7.7967 0.0000 42.9930 0.0000
# 6 0.0000 0.0000 0.0000 -6.7446 0.0000 15.1283
#
#
#
# Elastic Compliance Matrix: (Units=1/GPa)
#
#
# Indices 1 2 3 4 5 6 
#
# 1 0.013115 -0.002549 -0.000867 0.000000 0.005661 0.000000
# 2 -0.002549 0.016684 -0.002539 0.000000 0.000557 0.000000
# 3 -0.000867 -0.002539 0.009792 0.000000 0.001032 0.000000
# 4 0.000000 0.000000 0.000000 0.023020 0.000000 0.010263
# 5 0.005661 0.000557 0.001032 0.000000 0.026178 0.000000
# 6 0.000000 0.000000 0.000000 0.010263 0.000000 0.070677
#
#
# Mechanical properties :
#
#
# Convention : Reuss Voigt Hill
#
# Bulk Modulus (GPa) = 36.12703 40.37824 38.25264
# Shear Modulus (GPa) = 27.68481 35.17969 31.43225
#
# Velocity S-wave (km/s) = 3.44367 3.88192 3.66934
# Velocity P-wave (km/s) = 5.59347 6.11461 5.85984
#
# Compressibility (1/GPa) = 0.02768010
#
# Stress axis : x y z
#
# Youngs Moduli (GPa) = 76.24784 59.93616 102.12134
#
# Poissons Ratio (x) = 0.15279 0.08859
# Poissons Ratio (y) = 0.19437 0.25930
# Poissons Ratio (z) = 0.06614 0.15219
#
# Static dielectric constant tensor:
#      x y z
#    x 1.861510 0.000000 -0.050160 
#    y 0.000000 1.941930 0.000000 
#    z -0.050160 0.000000 1.955000 
# 
# From -- ./inp_files/116517.got.cif
#   From: 2010.05.17/outbox.cif.g08.bks.cpg/sg15_59_cif.got.tgz:116517.got - 2010.06.03 18:47:42.
