data_PCOD9289469
_publ_section_title
;
Structure prediction by ZEFSAII (Michael W. Deem and Ramdas Pophale) SiO2 
 PCOD9289469
Probable space group: C 2/C
;
_chemical_formula_sum "Si O2"
_cell_formula_units_Z 56
_cell_length_a 25.017249
_cell_length_b 14.615774
_cell_length_c 13.739478
_cell_angle_alpha 90.000000
_cell_angle_beta 33.133309
_cell_angle_gamma 90.000000
_cell_volume 2745.948536
_symmetry_space_group_name_H-M "C 2/C"
_symmetry_group_IT_number 15
_symmetry_cell_setting 'monoclinic'
loop_
_space_group_symop_operation_xyz
x,y,z
-x,y,1/2-z
-x,-y,-z
x,-y,1/2+z
1/2+x,1/2+y,z
1/2-x,1/2+y,1/2-z
1/2-x,1/2-y,-z
1/2+x,1/2-y,1/2+z
loop_
_atom_site_type_symbol
_atom_site_label
_atom_site_fract_x
_atom_site_fract_y
_atom_site_fract_z
Si Si1 0.500000 0.044621 0.250000
Si Si2 0.035423 0.858246 0.971582
Si Si3 0.317903 0.337997 0.903999
Si Si4 0.227674 0.461255 0.194733
Si Si5 0.531916 0.144601 0.012629
Si Si6 0.500000 0.744696 0.250000
Si Si7 0.589141 0.099918 0.484569
Si Si8 0.942950 0.028567 0.438554
O O1 0.523686 0.106242 0.307535
O O2 0.420482 0.974295 0.414206
O O3 0.143943 0.862598 0.760695
O O4 0.016603 0.752730 0.024371
O O5 0.971537 0.903172 0.982618
O O6 0.029198 0.926785 0.070246
O O7 0.413225 0.304589 0.820904
O O8 0.250000 0.250000 0.000000
O O9 0.262908 0.423737 0.036013
O O10 0.144637 0.387257 0.351696
O O11 0.181263 0.562029 0.282456
O O12 0.328010 0.459445 0.100216
O O13 0.495737 0.097796 0.967895
O O14 0.434613 0.805500 0.424778
O O15 0.000000 0.042235 0.250000
#
# Coordination Sequence:
#
# PCOD9289469 Si02
#       8
#     4   8   8   8   8   4   8   8
#     4   9  20  36  60  95 134 164 199 262 336 390
#     4  11  24  43  64  90 127 171 216 270 320 393
#     4  12  22  38  66  97 125 166 224 274 319 389
#     4  11  22  38  66  96 130 163 217 275 326 392
#     4  11  22  43  67  98 129 171 222 271 332 392
#     4  11  22  40  68  97 130 176 223 278 326 392
#     4  10  22  40  64  98 135 172 209 274 339 389
#     4  11  25  45  64  88 131 175 213 267 334 390
#
# _framework density 20.393681999999998
#
# number of rings (size 3 to 8) (size 9 to 14) (size 15 to 20)
#    0.000    1.143    4.286    2.571    3.000    1.143 
#    5.143    0.000    0.000    4.286    0.000    0.000 
#    0.000    0.000    0.000    0.000    0.000    0.000 
#
# Total GULP energy -155887.917847 kJ/mol
# GULP energy per Si atom -5567.425637 kJ/mol
# Density = 2.034726 g / cm^3
# Si number density = 20.393682 Si / 1000 Ang^3
#
#
#
# Elastic Constant Matrix: (Units=GPa)
#
#
# Indices 1 2 3 4 5 6 
#
# 1 83.6223 34.9376 38.3864 0.0000 -0.7004 0.0000
# 2 34.9376 90.3243 30.7829 0.0000 -1.7374 0.0000
# 3 38.3864 30.7829 71.1795 0.0000 -4.7599 0.0000
# 4 0.0000 0.0000 0.0000 50.8156 0.0000 12.4999
# 5 -0.7004 -1.7374 -4.7599 0.0000 39.5882 0.0000
# 6 0.0000 0.0000 0.0000 12.4999 0.0000 36.3380
#
#
#
# Elastic Compliance Matrix: (Units=1/GPa)
#
#
# Indices 1 2 3 4 5 6 
#
# 1 0.017102 -0.004069 -0.007515 0.000000 -0.000780 0.000000
# 2 -0.004069 0.013954 -0.003835 0.000000 0.000079 0.000000
# 3 -0.007515 -0.003835 0.019900 0.000000 0.002091 0.000000
# 4 0.000000 0.000000 0.000000 0.021498 0.000000 -0.007395
# 5 -0.000780 0.000079 0.002091 0.000000 0.025501 0.000000
# 6 0.000000 0.000000 0.000000 -0.007395 0.000000 0.030063
#
#
# Mechanical properties :
#
#
# Convention : Reuss Voigt Hill
#
# Bulk Modulus (GPa) = 49.70785 50.37111 50.03948
# Shear Modulus (GPa) = 30.20014 34.74964 32.47489
#
# Velocity S-wave (km/s) = 3.85237 4.13236 3.99482
# Velocity P-wave (km/s) = 6.64941 6.89359 6.77260
#
# Compressibility (1/GPa) = 0.02011755
#
# Stress axis : x y z
#
# Youngs Moduli (GPa) = 58.47325 71.66657 50.25043
#
# Poissons Ratio (x) = 0.29159 0.37765
# Poissons Ratio (y) = 0.23791 0.19271
# Poissons Ratio (z) = 0.43945 0.27484
#
# Static dielectric constant tensor:
#      x y z
#    x 1.749890 0.000000 0.021280 
#    y 0.000000 1.802670 0.000000 
#    z 0.021280 0.000000 1.775200 
# 
# From -- ./inp_files/178392.got.cif
#   From: 2010.05.17/outbox.cif.g08.bks.cpg/sg15_90_cif.got.tgz:178392.got - 2010.06.03 18:47:42.
