data_PCOD9289721
_publ_section_title
;
Structure prediction by ZEFSAII (Michael W. Deem and Ramdas Pophale) SiO2 
 PCOD9289721
Probable space group: C 2/C
;
_chemical_formula_sum "Si O2"
_cell_formula_units_Z 64
_cell_length_a 12.072472
_cell_length_b 23.149514
_cell_length_c 11.639421
_cell_angle_alpha 90.000000
_cell_angle_beta 80.900646
_cell_angle_gamma 90.000000
_cell_volume 3211.954922
_symmetry_space_group_name_H-M "C 2/C"
_symmetry_group_IT_number 15
_symmetry_cell_setting 'monoclinic'
loop_
_space_group_symop_operation_xyz
x,y,z
-x,y,1/2-z
-x,-y,-z
x,-y,1/2+z
1/2+x,1/2+y,z
1/2-x,1/2+y,1/2-z
1/2-x,1/2-y,-z
1/2+x,1/2-y,1/2+z
loop_
_atom_site_type_symbol
_atom_site_label
_atom_site_fract_x
_atom_site_fract_y
_atom_site_fract_z
Si Si1 0.749682 0.049823 0.830337
Si Si2 0.374143 0.232418 0.942798
Si Si3 0.579478 0.443391 0.996301
Si Si4 0.192665 0.619683 0.621534
Si Si5 0.985086 0.433154 0.022760
Si Si6 0.096264 0.138748 0.079199
Si Si7 0.068657 0.657887 0.342957
Si Si8 0.221963 0.920911 0.750366
O O1 0.857988 0.057307 0.892355
O O2 0.753353 0.084867 0.711390
O O3 0.638394 0.075063 0.907617
O O4 0.735595 0.981116 0.811605
O O5 0.421025 0.200630 0.049493
O O6 0.250000 0.250000 0.000000
O O7 0.358079 0.183670 0.847649
O O8 0.428079 0.293330 0.900458
O O9 0.500000 0.500000 0.000000
O O10 0.499165 0.389820 0.982237
O O11 0.676172 0.439063 0.882791
O O12 0.285670 0.628638 0.507464
O O13 0.085476 0.585265 0.591524
O O14 0.000000 0.500000 0.000000
O O15 0.000778 0.396494 0.905051
O O16 0.118716 0.104134 0.192753
O O17 0.184126 0.629301 0.276884
O O18 0.000000 0.685032 0.250000
#
# Coordination Sequence:
#
# PCOD9289721 Si02
#       8
#     8   8   8   8   8   8   8   8
#     4  12  25  39  62  97 137 168 208 268 329 386
#     4   9  19  43  68  89 125 168 224 267 317 394
#     4  12  27  42  61  98 139 171 219 270 323 392
#     4  10  22  40  67  94 127 166 215 268 324 388
#     4  11  21  38  60  94 130 163 209 261 329 393
#     4  11  21  45  69  92 123 181 223 257 326 388
#     4  11  22  38  66  98 128 167 219 279 330 390
#     4  12  23  40  66  91 130 176 213 263 322 397
#
# _framework density 19.925559
#
# number of rings (size 3 to 8) (size 9 to 14) (size 15 to 20)
#    0.000    1.000    6.250    2.250    3.500    1.500 
#    4.500    5.000    0.000    4.500    0.000    0.000 
#    0.000    0.000    0.000    0.000    0.000    0.000 
#
# Total GULP energy -178576.075217 kJ/mol
# GULP energy per Si atom -5580.502351 kJ/mol
# Density = 1.988021 g / cm^3
# Si number density = 19.925559 Si / 1000 Ang^3
#
#
#
# Elastic Constant Matrix: (Units=GPa)
#
#
# Indices 1 2 3 4 5 6 
#
# 1 91.6644 21.2580 20.5715 0.0000 18.3039 0.0000
# 2 21.2580 119.5985 21.7553 0.0000 16.6254 0.0000
# 3 20.5715 21.7553 57.9391 0.0000 20.7247 0.0000
# 4 0.0000 0.0000 0.0000 21.1983 0.0000 2.8731
# 5 18.3039 16.6254 20.7247 0.0000 44.2766 0.0000
# 6 0.0000 0.0000 0.0000 2.8731 0.0000 23.0496
#
#
#
# Elastic Compliance Matrix: (Units=1/GPa)
#
#
# Indices 1 2 3 4 5 6 
#
# 1 0.012497 -0.001247 -0.002748 0.000000 -0.003411 0.000000
# 2 -0.001247 0.009273 -0.002376 0.000000 -0.001854 0.000000
# 3 -0.002748 -0.002376 0.022103 0.000000 -0.008317 0.000000
# 4 0.000000 0.000000 0.000000 0.047984 0.000000 -0.005981
# 5 -0.003411 -0.001854 -0.008317 0.000000 0.028585 0.000000
# 6 0.000000 0.000000 0.000000 -0.005981 0.000000 0.044130
#
#
# Mechanical properties :
#
#
# Convention : Reuss Voigt Hill
#
# Bulk Modulus (GPa) = 32.12402 44.04129 38.08265
# Shear Modulus (GPa) = 26.63962 31.41272 29.02617
#
# Velocity S-wave (km/s) = 3.66041 3.97483 3.82085
# Velocity P-wave (km/s) = 5.83282 6.57393 6.21443
#
# Compressibility (1/GPa) = 0.03112935
#
# Stress axis : x y z
#
# Youngs Moduli (GPa) = 80.02197 107.84124 45.24373
#
# Poissons Ratio (x) = 0.13448 0.12435
# Poissons Ratio (y) = 0.09979 0.10749
# Poissons Ratio (z) = 0.21994 0.25621
#
# Static dielectric constant tensor:
#      x y z
#    x 1.715350 0.000000 -0.024710 
#    y 0.000000 1.720830 0.000000 
#    z -0.024710 0.000000 1.776540 
# 
# From -- ./inp_files/90796.got.cif
#   From: 2010.05.17/outbox.cif.g08.bks.cpg/sg15_46_cif.got.tgz:90796.got - 2010.06.03 18:47:42.
