data_PCOD9289102
_publ_section_title
;
Structure prediction by ZEFSAII (Michael W. Deem and Ramdas Pophale) SiO2 
 PCOD9289102
Probable space group: C 2/C
;
_chemical_formula_sum "Si O2"
_cell_formula_units_Z 48
_cell_length_a 19.092424
_cell_length_b 11.257754
_cell_length_c 12.748523
_cell_angle_alpha 90.000000
_cell_angle_beta 127.617800
_cell_angle_gamma 90.000000
_cell_volume 2170.464758
_symmetry_space_group_name_H-M "C 2/C"
_symmetry_group_IT_number 15
_symmetry_cell_setting 'monoclinic'
loop_
_space_group_symop_operation_xyz
x,y,z
-x,y,1/2-z
-x,-y,-z
x,-y,1/2+z
1/2+x,1/2+y,z
1/2-x,1/2+y,1/2-z
1/2-x,1/2-y,-z
1/2+x,1/2-y,1/2+z
loop_
_atom_site_type_symbol
_atom_site_label
_atom_site_fract_x
_atom_site_fract_y
_atom_site_fract_z
Si Si1 0.763411 0.939498 0.459821
Si Si2 0.566266 0.978842 0.218974
Si Si3 0.607947 0.780629 0.678201
Si Si4 0.066120 0.266691 0.055044
Si Si5 0.762182 0.801843 0.675969
Si Si6 0.397889 0.647103 0.623910
O O1 0.664925 0.988149 0.354374
O O2 0.762763 0.876800 0.571834
O O3 0.768158 0.833153 0.379413
O O4 0.840138 0.036921 0.530529
O O5 0.500000 0.937613 0.250000
O O6 0.564289 0.891317 0.117298
O O7 0.547247 0.112962 0.168035
O O8 0.534666 0.717609 0.537884
O O9 0.687844 0.840498 0.689654
O O10 0.641163 0.700642 0.803968
O O11 0.139682 0.196355 0.188824
O O12 0.100464 0.244483 0.967560
O O13 0.500000 0.618271 0.750000
#
# Coordination Sequence:
#
# PCOD9289102 Si02
#       6
#     8   8   8   8   8   8
#     4  10  23  42  62  88 121 159 204 251 308 366
#     4  11  22  38  64  91 121 160 201 253 308 363
#     4  11  23  38  61  91 124 159 203 254 306 363
#     4  10  22  40  60  89 122 158 203 247 302 365
#     4  10  23  41  62  88 120 161 203 250 306 370
#     4  10  23  41  62  90 123 160 205 256 306 362
#
# _framework density 22.115079000000001
#
# number of rings (size 3 to 8) (size 9 to 14) (size 15 to 20)
#    0.000    1.667    0.000    4.000    0.000   10.667 
#    0.000    5.000    0.000    0.000    0.000    0.000 
#    0.000    0.000    0.000    0.000    0.000    0.000 
#
# Total GULP energy -133906.444156 kJ/mol
# GULP energy per Si atom -5579.435173 kJ/mol
# Density = 2.206474 g / cm^3
# Si number density = 22.115079 Si / 1000 Ang^3
#
#
#
# Elastic Constant Matrix: (Units=GPa)
#
#
# Indices 1 2 3 4 5 6 
#
# 1 65.7347 22.5170 28.5623 0.0000 7.5413 0.0000
# 2 22.5170 63.1334 35.5271 0.0000 0.7578 0.0000
# 3 28.5623 35.5271 128.0862 0.0000 21.1249 0.0000
# 4 0.0000 0.0000 0.0000 17.0631 0.0000 21.7506
# 5 7.5413 0.7578 21.1249 0.0000 20.0829 0.0000
# 6 0.0000 0.0000 0.0000 21.7506 0.0000 -0.6256
#
#
#
# Elastic Compliance Matrix: (Units=1/GPa)
#
#
# Indices 1 2 3 4 5 6 
#
# 1 0.018430 -0.005512 -0.001783 0.000000 -0.004837 0.000000
# 2 -0.005512 0.020986 -0.005811 0.000000 0.007390 0.000000
# 3 -0.001783 -0.005811 0.011700 0.000000 -0.011418 0.000000
# 4 0.000000 0.000000 0.000000 0.001293 0.000000 0.044961
# 5 -0.004837 0.007390 -0.011418 0.000000 0.063341 0.000000
# 6 0.000000 0.000000 0.000000 0.044961 0.000000 -0.035271
#
#
# Mechanical properties :
#
#
# Convention : Reuss Voigt Hill
#
# Bulk Modulus (GPa) = 40.15249 47.79634 43.97442
# Shear Modulus (GPa) = 43.48096 18.66062 31.07079
#
# Velocity S-wave (km/s) = 4.43891 2.90797 3.75235
# Velocity P-wave (km/s) = 6.66839 5.73886 6.22101
#
# Compressibility (1/GPa) = 0.02490506
#
# Stress axis : x y z
#
# Youngs Moduli (GPa) = 54.25801 47.64985 85.47215
#
# Poissons Ratio (x) = 0.26263 0.15242
# Poissons Ratio (y) = 0.29906 0.49665
# Poissons Ratio (z) = 0.09676 0.27688
#
# Static dielectric constant tensor:
#      x y z
#    x 1.816820 0.000000 0.013820 
#    y 0.000000 1.833140 0.000000 
#    z 0.013820 0.000000 1.839590 
# 
# From -- ./inp_files/111220.got.cif
#   From: 2010.05.17/outbox.cif.g08.bks.cpg/sg15_56_cif.got.tgz:111220.got - 2010.06.03 18:47:42.
