data_PCOD9289720
_publ_section_title
;
Structure prediction by ZEFSAII (Michael W. Deem and Ramdas Pophale) SiO2 
 PCOD9289720
Probable space group: C 2/C
;
_chemical_formula_sum "Si O2"
_cell_formula_units_Z 56
_cell_length_a 19.705069
_cell_length_b 19.524096
_cell_length_c 16.746018
_cell_angle_alpha 90.000000
_cell_angle_beta 159.681769
_cell_angle_gamma 90.000000
_cell_volume 2237.086457
_symmetry_space_group_name_H-M "C 2/C"
_symmetry_group_IT_number 15
_symmetry_cell_setting 'monoclinic'
loop_
_space_group_symop_operation_xyz
x,y,z
-x,y,1/2-z
-x,-y,-z
x,-y,1/2+z
1/2+x,1/2+y,z
1/2-x,1/2+y,1/2-z
1/2-x,1/2-y,-z
1/2+x,1/2-y,1/2+z
loop_
_atom_site_type_symbol
_atom_site_label
_atom_site_fract_x
_atom_site_fract_y
_atom_site_fract_z
Si Si1 0.000000 0.677731 0.750000
Si Si2 0.530626 0.542392 0.631811
Si Si3 0.259944 0.333881 0.196025
Si Si4 0.856164 0.703618 0.222252
Si Si5 0.323835 0.835111 0.214707
Si Si6 0.207935 0.610654 0.195400
Si Si7 0.500000 0.359620 0.250000
Si Si8 0.603824 0.614149 0.252048
O O1 0.927093 0.709544 0.756304
O O2 0.803466 0.634868 0.516435
O O3 0.670148 0.588012 0.729073
O O4 0.319212 0.545067 0.354630
O O5 0.524619 0.589180 0.703378
O O6 0.593958 0.467344 0.727211
O O7 0.390995 0.280304 0.291952
O O8 0.216812 0.309303 0.239479
O O9 0.061480 0.328514 0.925880
O O10 0.805419 0.661816 0.246355
O O11 0.685739 0.687706 0.972839
O O12 0.492875 0.892666 0.418275
O O13 0.107834 0.861248 0.951670
O O14 0.351189 0.642383 0.286986
#
# Coordination Sequence:
#
# PCOD9289720 Si02
#       8
#     4   8   8   8   8   8   4   8
#     4  10  24  42  61 100 129 166 214 266 342 406
#     4  11  23  39  60  95 134 174 225 266 325 393
#     4  11  23  40  67  93 124 176 225 272 321 388
#     4  10  22  41  64  94 129 172 226 270 328 383
#     4  10  22  40  67  94 126 174 216 273 336 388
#     4   9  20  40  61  96 125 171 225 272 313 390
#     4  10  24  40  59  92 137 174 216 276 324 386
#     4  11  22  40  66  92 134 175 216 272 333 396
#
# _framework density 25.03256
#
# number of rings (size 3 to 8) (size 9 to 14) (size 15 to 20)
#    0.000    1.714    1.429    2.571    2.000    4.571 
#   10.286    0.000    0.000    7.714    0.000    0.000 
#    0.000    0.000    0.000    0.000    0.000    0.000 
#
# Total GULP energy -156200.944290 kJ/mol
# GULP energy per Si atom -5578.605153 kJ/mol
# Density = 2.497558 g / cm^3
# Si number density = 25.032560 Si / 1000 Ang^3
#
#
#
# Elastic Constant Matrix: (Units=GPa)
#
#
# Indices 1 2 3 4 5 6 
#
# 1 131.3109 15.6850 20.4953 0.0001 5.0207 0.0000
# 2 15.6850 93.5909 37.8189 0.0001 3.4854 0.0000
# 3 20.4953 37.8189 207.3875 0.0004 4.8071 0.0002
# 4 0.0001 0.0001 0.0004 14.2651 0.0001 -8.3535
# 5 5.0207 3.4854 4.8071 0.0001 41.3309 0.0000
# 6 0.0000 0.0000 0.0002 -8.3535 0.0000 21.9822
#
#
#
# Elastic Compliance Matrix: (Units=1/GPa)
#
#
# Indices 1 2 3 4 5 6 
#
# 1 0.007861 -0.001059 -0.000565 0.000000 -0.000800 0.000000
# 2 -0.001059 0.011700 -0.002014 0.000000 -0.000624 0.000000
# 3 -0.000565 -0.002014 0.005254 0.000000 -0.000373 0.000000
# 4 0.000000 0.000000 0.000000 0.090165 0.000000 0.034264
# 5 -0.000800 -0.000624 -0.000373 0.000000 0.024388 0.000000
# 6 0.000000 0.000000 0.000000 0.034264 0.000000 0.058512
#
#
# Mechanical properties :
#
#
# Convention : Reuss Voigt Hill
#
# Bulk Modulus (GPa) = 57.02383 64.47643 60.75013
# Shear Modulus (GPa) = 23.69638 39.40164 31.54901
#
# Velocity S-wave (km/s) = 3.08006 3.97169 3.55395
# Velocity P-wave (km/s) = 5.95637 6.84437 6.41575
#
# Compressibility (1/GPa) = 0.01753653
#
# Stress axis : x y z
#
# Youngs Moduli (GPa) = 127.21295 85.47351 190.34144
#
# Poissons Ratio (x) = 0.09054 0.10757
# Poissons Ratio (y) = 0.13475 0.38342
# Poissons Ratio (z) = 0.07189 0.17218
#
# Static dielectric constant tensor:
#      x y z
#    x 2.095690 0.000000 -0.015580 
#    y 0.000000 1.927120 0.000000 
#    z -0.015580 0.000000 2.061370 
# 
# From -- ./inp_files/216698.got.cif
#   From: 2010.05.17/outbox.cif.g08.bks.cpg/sg15_109_cif.got.tgz:216698.got - 2010.06.03 18:47:42.
