data_PCOD9289610
_publ_section_title
;
Structure prediction by ZEFSAII (Michael W. Deem and Ramdas Pophale) SiO2 
 PCOD9289610
Probable space group: C 2/C
;
_chemical_formula_sum "Si O2"
_cell_formula_units_Z 36
_cell_length_a 14.156095
_cell_length_b 26.955735
_cell_length_c 8.129688
_cell_angle_alpha 90.000000
_cell_angle_beta 34.478812
_cell_angle_gamma 90.000000
_cell_volume 1756.154747
_symmetry_space_group_name_H-M "C 2/C"
_symmetry_group_IT_number 15
_symmetry_cell_setting 'monoclinic'
loop_
_space_group_symop_operation_xyz
x,y,z
-x,y,1/2-z
-x,-y,-z
x,-y,1/2+z
1/2+x,1/2+y,z
1/2-x,1/2+y,1/2-z
1/2-x,1/2-y,-z
1/2+x,1/2-y,1/2+z
loop_
_atom_site_type_symbol
_atom_site_label
_atom_site_fract_x
_atom_site_fract_y
_atom_site_fract_z
Si Si1 0.877640 0.219691 0.199330
Si Si2 0.806447 0.372699 0.502433
Si Si3 0.807586 0.851398 0.211040
Si Si4 0.518952 0.556201 0.419103
Si Si5 0.500000 0.795362 0.750000
O O1 0.750000 0.250000 0.500000
O O2 0.760201 0.175241 0.302942
O O3 0.952036 0.259399 0.967884
O O4 0.041806 0.188538 0.020319
O O5 0.764417 0.360946 0.369851
O O6 0.697609 0.420316 0.706093
O O7 0.000000 0.379592 0.250000
O O8 0.662402 0.829676 0.532532
O O9 0.884125 0.902686 0.169451
O O10 0.500000 0.557118 0.250000
O O11 0.500000 0.500000 0.500000
#
# Coordination Sequence:
#
# PCOD9289610 Si02
#       5
#     8   8   8   8   4
#     4  11  23  39  65  88 132 176 213 258 317 377
#     4  10  22  40  66  91 126 172 216 256 323 385
#     4  10  23  44  61  93 134 169 213 266 316 389
#     4   9  20  45  68  88 124 166 208 270 335 379
#     4  12  24  36  64  98 130 170 224 250 322 380
#
# _framework density 20.499333
#
# number of rings (size 3 to 8) (size 9 to 14) (size 15 to 20)
#    0.000    1.778    2.222    2.667    3.111    1.778 
#   14.000    2.222    0.000    0.000    0.000    0.000 
#    0.000    0.000    0.000    0.000    0.000    0.000 
#
# Total GULP energy -100464.785100 kJ/mol
# GULP energy per Si atom -5581.376950 kJ/mol
# Density = 2.045268 g / cm^3
# Si number density = 20.499333 Si / 1000 Ang^3
#
#
#
# Elastic Constant Matrix: (Units=GPa)
#
#
# Indices 1 2 3 4 5 6 
#
# 1 60.3926 48.9831 53.8289 0.0000 -29.6878 0.0000
# 2 48.9831 211.5699 114.4462 0.0000 -28.1339 0.0000
# 3 53.8289 114.4462 190.5682 0.0000 -28.9911 0.0000
# 4 0.0000 0.0000 0.0000 38.8629 0.0000 10.2010
# 5 -29.6878 -28.1339 -28.9911 0.0000 41.5615 0.0000
# 6 0.0000 0.0000 0.0000 10.2010 0.0000 16.7432
#
#
#
# Elastic Compliance Matrix: (Units=1/GPa)
#
#
# Indices 1 2 3 4 5 6 
#
# 1 0.031284 -0.002340 -0.004780 0.000000 0.017428 0.000000
# 2 -0.002340 0.007331 -0.003626 0.000000 0.000762 0.000000
# 3 -0.004780 -0.003626 0.008818 0.000000 0.000282 0.000000
# 4 0.000000 0.000000 0.000000 0.030630 0.000000 -0.018662
# 5 0.017428 0.000762 0.000282 0.000000 0.037223 0.000000
# 6 0.000000 0.000000 0.000000 -0.018662 0.000000 0.071096
#
#
# Mechanical properties :
#
#
# Convention : Reuss Voigt Hill
#
# Bulk Modulus (GPa) = 38.54779 99.67192 69.10985
# Shear Modulus (GPa) = 23.09259 35.78502 29.43880
#
# Velocity S-wave (km/s) = 3.35998 4.18265 3.79368
# Velocity P-wave (km/s) = 5.82219 8.48844 7.27845
#
# Compressibility (1/GPa) = 0.02594183
#
# Stress axis : x y z
#
# Youngs Moduli (GPa) = 31.96519 136.40860 113.40273
#
# Poissons Ratio (x) = 0.31914 0.54209
# Poissons Ratio (y) = 0.07478 0.41118
# Poissons Ratio (z) = 0.15280 0.49459
#
# Static dielectric constant tensor:
#      x y z
#    x 1.929190 0.000000 -0.003520 
#    y 0.000000 1.744050 0.000000 
#    z -0.003520 0.000000 1.737000 
# 
# From -- ./inp_files/23853.got.cif
#   From: 2010.05.17/outbox.cif.g08.bks.cpg/sg15_12_cif.got.tgz:23853.got - 2010.06.03 18:47:42.
