data_PCOD9289133
_publ_section_title
;
Structure prediction by ZEFSAII (Michael W. Deem and Ramdas Pophale) SiO2 
 PCOD9289133
Probable space group: C 2/C
;
_chemical_formula_sum "Si O2"
_cell_formula_units_Z 40
_cell_length_a 4.836750
_cell_length_b 23.852738
_cell_length_c 15.874510
_cell_angle_alpha 90.000000
_cell_angle_beta 81.514342
_cell_angle_gamma 90.000000
_cell_volume 1811.388881
_symmetry_space_group_name_H-M "C 2/C"
_symmetry_group_IT_number 15
_symmetry_cell_setting 'monoclinic'
loop_
_space_group_symop_operation_xyz
x,y,z
-x,y,1/2-z
-x,-y,-z
x,-y,1/2+z
1/2+x,1/2+y,z
1/2-x,1/2+y,1/2-z
1/2-x,1/2-y,-z
1/2+x,1/2-y,1/2+z
loop_
_atom_site_type_symbol
_atom_site_label
_atom_site_fract_x
_atom_site_fract_y
_atom_site_fract_z
Si Si1 0.784101 0.880610 0.689161
Si Si2 0.105178 0.630783 0.524809
Si Si3 0.256985 0.182095 0.694167
Si Si4 0.408584 0.220204 0.416628
Si Si5 0.384693 0.560995 0.024483
O O1 0.500000 0.895037 0.750000
O O2 0.737357 0.829180 0.628482
O O3 0.894400 0.929660 0.624553
O O4 0.000000 0.863606 0.750000
O O5 0.935310 0.650982 0.613841
O O6 0.136707 0.683358 0.458221
O O7 0.923212 0.580568 0.490767
O O8 0.407415 0.605809 0.528124
O O9 0.500000 0.199882 0.750000
O O10 0.080522 0.231329 0.654146
O O11 0.000000 0.149118 0.750000
O O12 0.250000 0.250000 0.500000
O O13 0.500000 0.500000 0.000000
#
# Coordination Sequence:
#
# PCOD9289133 Si02
#       5
#     8   8   8   8   8
#     4  11  22  39  61  91 121 152 200 260 303 349
#     4  10  22  40  61  87 119 159 204 250 302 370
#     4  11  22  37  58  90 126 163 201 245 299 364
#     4   9  20  37  60  88 124 165 201 238 298 374
#     4  11  23  43  66  86 116 161 207 255 317 377
#
# _framework density 22.082501000000001
#
# number of rings (size 3 to 8) (size 9 to 14) (size 15 to 20)
#    0.000    1.600    0.000    5.400    0.000    3.200 
#    0.000   23.000    0.000    0.000    0.000    0.000 
#    0.000    0.000    0.000    0.000    0.000    0.000 
#
# Total GULP energy -111567.914899 kJ/mol
# GULP energy per Si atom -5578.395745 kJ/mol
# Density = 2.203224 g / cm^3
# Si number density = 22.082501 Si / 1000 Ang^3
#
#
#
# Elastic Constant Matrix: (Units=GPa)
#
#
# Indices 1 2 3 4 5 6 
#
# 1 85.3202 3.5440 26.9665 0.0000 -20.6632 0.0000
# 2 3.5440 80.3452 34.5056 0.0000 -8.5723 0.0000
# 3 26.9665 34.5056 135.2872 0.0000 -11.2219 0.0000
# 4 0.0000 0.0000 0.0000 76.5838 0.0000 -12.2625
# 5 -20.6632 -8.5723 -11.2219 0.0000 36.4905 0.0000
# 6 0.0000 0.0000 0.0000 -12.2625 0.0000 18.4073
#
#
#
# Elastic Compliance Matrix: (Units=1/GPa)
#
#
# Indices 1 2 3 4 5 6 
#
# 1 0.014319 0.001276 -0.002547 0.000000 0.007625 0.000000
# 2 0.001276 0.014272 -0.003650 0.000000 0.002953 0.000000
# 3 -0.002547 -0.003650 0.008866 0.000000 0.000427 0.000000
# 4 0.000000 0.000000 0.000000 0.014617 0.000000 0.009737
# 5 0.007625 0.002953 0.000427 0.000000 0.032547 0.000000
# 6 0.000000 0.000000 0.000000 0.009737 0.000000 0.060813
#
#
# Mechanical properties :
#
#
# Convention : Reuss Voigt Hill
#
# Bulk Modulus (GPa) = 36.21159 47.88717 42.04938
# Shear Modulus (GPa) = 30.39863 42.02544 36.21203
#
# Velocity S-wave (km/s) = 3.71427 4.36720 4.05390
# Velocity P-wave (km/s) = 5.90155 6.86750 6.40277
#
# Compressibility (1/GPa) = 0.02761547
#
# Stress axis : x y z
#
# Youngs Moduli (GPa) = 69.83614 70.06493 112.79491
#
# Poissons Ratio (x) = -0.08939 0.28731
# Poissons Ratio (y) = -0.08910 0.41166
# Poissons Ratio (z) = 0.17788 0.25571
#
# Static dielectric constant tensor:
#      x y z
#    x 1.884490 0.000000 -0.012040 
#    y 0.000000 1.809930 0.000000 
#    z -0.012040 0.000000 1.865370 
# 
# From -- ./inp_files/129044.got.cif
#   From: 2010.05.17/outbox.cif.g08.bks.cpg/sg15_65_cif.got.tgz:129044.got - 2010.06.03 18:47:42.
