data_PCOD9289797
_publ_section_title
;
Structure prediction by ZEFSAII (Michael W. Deem and Ramdas Pophale) SiO2 
 PCOD9289797
Probable space group: C 2/C
;
_chemical_formula_sum "Si O2"
_cell_formula_units_Z 32
_cell_length_a 9.254165
_cell_length_b 34.104086
_cell_length_c 5.273746
_cell_angle_alpha 90.000000
_cell_angle_beta 118.998434
_cell_angle_gamma 90.000000
_cell_volume 1455.756375
_symmetry_space_group_name_H-M "C 2/C"
_symmetry_group_IT_number 15
_symmetry_cell_setting 'monoclinic'
loop_
_space_group_symop_operation_xyz
x,y,z
-x,y,1/2-z
-x,-y,-z
x,-y,1/2+z
1/2+x,1/2+y,z
1/2-x,1/2+y,1/2-z
1/2-x,1/2-y,-z
1/2+x,1/2-y,1/2+z
loop_
_atom_site_type_symbol
_atom_site_label
_atom_site_fract_x
_atom_site_fract_y
_atom_site_fract_z
Si Si1 0.193364 0.635358 0.901040
Si Si2 0.201870 0.213640 0.287220
Si Si3 0.500000 0.526657 0.750000
Si Si4 0.000000 0.259573 0.750000
Si Si5 0.695356 0.085179 0.404571
O O1 0.220290 0.617814 0.645571
O O2 0.000000 0.647131 0.750000
O O3 0.297626 0.673213 0.065115
O O4 0.221564 0.603116 0.146204
O O5 0.250000 0.250000 0.500000
O O6 0.347108 0.213185 0.196729
O O7 0.044028 0.229456 0.008909
O O8 0.500000 0.500000 0.500000
O O9 0.333398 0.552800 0.584589
O O10 0.500000 0.072805 0.250000
#
# Coordination Sequence:
#
# PCOD9289797 Si02
#       5
#     8   8   4   4   8
#     4  10  22  40  68  89 135 181 223 285 338 396
#     4  11  23  40  59  88 128 178 238 289 345 400
#     4  12  26  47  76 106 142 174 214 282 340 422
#     4  10  24  37  58  86 124 168 246 290 346 404
#     4  10  24  45  68 105 135 178 226 268 344 416
#
# _framework density 21.9817
#
# number of rings (size 3 to 8) (size 9 to 14) (size 15 to 20)
#    0.000    1.500    0.000    3.750   12.250    2.000 
#    4.500    0.000    0.000    0.000    0.000    0.000 
#    0.000    0.000    0.000    0.000    0.000    0.000 
#
# Total GULP energy -89449.498947 kJ/mol
# GULP energy per Si atom -5590.593684 kJ/mol
# Density = 2.193167 g / cm^3
# Si number density = 21.981700 Si / 1000 Ang^3
#
#
#
# Elastic Constant Matrix: (Units=GPa)
#
#
# Indices 1 2 3 4 5 6 
#
# 1 86.6218 38.3669 23.7385 0.0000 16.2289 0.0000
# 2 38.3669 94.6223 55.3517 0.0000 24.2374 0.0000
# 3 23.7385 55.3517 166.2086 0.0000 9.6881 0.0000
# 4 0.0000 0.0000 0.0000 49.7429 0.0000 0.6773
# 5 16.2289 24.2374 9.6881 0.0000 36.8263 0.0000
# 6 0.0000 0.0000 0.0000 0.6773 0.0000 25.4266
#
#
#
# Elastic Compliance Matrix: (Units=1/GPa)
#
#
# Indices 1 2 3 4 5 6 
#
# 1 0.014349 -0.004900 -0.000241 0.000000 -0.003035 0.000000
# 2 -0.004900 0.017295 -0.004593 0.000000 -0.008015 0.000000
# 3 -0.000241 -0.004593 0.007513 0.000000 0.001152 0.000000
# 4 0.000000 0.000000 0.000000 0.020111 0.000000 -0.000536
# 5 -0.003035 -0.008015 0.001152 0.000000 0.033464 0.000000
# 6 0.000000 0.000000 0.000000 -0.000536 0.000000 0.039343
#
#
# Mechanical properties :
#
#
# Convention : Reuss Voigt Hill
#
# Bulk Modulus (GPa) = 50.78513 64.70746 57.74630
# Shear Modulus (GPa) = 31.62443 37.73218 34.67831
#
# Velocity S-wave (km/s) = 3.79710 4.14759 3.97621
# Velocity P-wave (km/s) = 6.50980 7.24138 6.88531
#
# Compressibility (1/GPa) = 0.01969080
#
# Stress axis : x y z
#
# Youngs Moduli (GPa) = 69.68924 57.82106 133.09916
#
# Poissons Ratio (x) = 0.28333 0.03203
# Poissons Ratio (y) = 0.34148 0.61127
# Poissons Ratio (z) = 0.01677 0.26555
#
# Static dielectric constant tensor:
#      x y z
#    x 1.906820 0.000000 0.016050 
#    y 0.000000 1.750720 0.000000 
#    z 0.016050 0.000000 1.767200 
# 
# From -- ./inp_files/5678.got.cif
#   From: 2010.05.17/outbox.cif.g08.bks.cpg/sg15_3_cif.got.tgz:5678.got - 2010.06.03 18:47:42.
