data_PCOD9289613
_publ_section_title
;
Structure prediction by ZEFSAII (Michael W. Deem and Ramdas Pophale) SiO2 
 PCOD9289613
Probable space group: C 2/C
;
_chemical_formula_sum "Si O2"
_cell_formula_units_Z 36
_cell_length_a 22.068025
_cell_length_b 9.241521
_cell_length_c 14.270960
_cell_angle_alpha 90.000000
_cell_angle_beta 147.275711
_cell_angle_gamma 90.000000
_cell_volume 1573.380446
_symmetry_space_group_name_H-M "C 2/C"
_symmetry_group_IT_number 15
_symmetry_cell_setting 'monoclinic'
loop_
_space_group_symop_operation_xyz
x,y,z
-x,y,1/2-z
-x,-y,-z
x,-y,1/2+z
1/2+x,1/2+y,z
1/2-x,1/2+y,1/2-z
1/2-x,1/2-y,-z
1/2+x,1/2-y,1/2+z
loop_
_atom_site_type_symbol
_atom_site_label
_atom_site_fract_x
_atom_site_fract_y
_atom_site_fract_z
Si Si1 0.704318 0.072289 0.037078
Si Si2 0.261744 0.401323 0.404622
Si Si3 0.598291 0.081605 0.076785
Si Si4 0.000000 0.952785 0.250000
Si Si5 0.078626 0.116314 0.652929
O O1 0.748308 0.230911 0.127867
O O2 0.598559 0.055001 0.966356
O O3 0.798495 0.951941 0.175392
O O4 0.691621 0.078260 0.909352
O O5 0.211961 0.506980 0.262471
O O6 0.390556 0.446650 0.590766
O O7 0.588634 0.244705 0.100302
O O8 0.500000 0.000000 0.000000
O O9 0.028129 0.862673 0.192239
O O10 0.000000 0.000000 0.500000
#
# Coordination Sequence:
#
# PCOD9289613 Si02
#       5
#     8   8   8   4   8
#     4  10  22  41  64  88 123 163 206 253 302 361
#     4  10  23  42  65  92 121 161 208 252 304 363
#     4  12  25  39  63  94 126 163 204 253 305 365
#     4  10  22  40  66  92 124 160 200 256 310 362
#     4  11  23  40  64  91 125 165 203 252 308 363
#
# _framework density 22.880669999999999
#
# number of rings (size 3 to 8) (size 9 to 14) (size 15 to 20)
#    0.000    1.333    0.000    5.333    0.000   11.556 
#    0.000    0.000    0.000    1.333    0.000    0.000 
#    0.000    0.000    0.000    0.000    0.000    0.000 
#
# Total GULP energy -100674.483207 kJ/mol
# GULP energy per Si atom -5593.026845 kJ/mol
# Density = 2.282859 g / cm^3
# Si number density = 22.880670 Si / 1000 Ang^3
#
#
#
# Elastic Constant Matrix: (Units=GPa)
#
#
# Indices 1 2 3 4 5 6 
#
# 1 217.6713 2.3982 5.4507 0.0000 -7.8507 0.0000
# 2 2.3982 40.0511 -3.8901 0.0000 -2.5192 0.0000
# 3 5.4507 -3.8901 42.8096 0.0000 7.6414 0.0000
# 4 0.0000 0.0000 0.0000 19.2678 0.0000 -2.9173
# 5 -7.8507 -2.5192 7.6414 0.0000 29.5876 0.0000
# 6 0.0000 0.0000 0.0000 -2.9173 0.0000 26.4300
#
#
#
# Elastic Compliance Matrix: (Units=1/GPa)
#
#
# Indices 1 2 3 4 5 6 
#
# 1 0.004671 -0.000274 -0.000877 0.000000 0.001443 0.000000
# 2 -0.000274 0.025282 0.002056 0.000000 0.001549 0.000000
# 3 -0.000877 0.002056 0.024812 0.000000 -0.006466 0.000000
# 4 0.000000 0.000000 0.000000 0.052782 0.000000 0.005826
# 5 0.001443 0.001549 -0.006466 0.000000 0.035982 0.000000
# 6 0.000000 0.000000 0.000000 0.005826 0.000000 0.038479
#
#
# Mechanical properties :
#
#
# Convention : Reuss Voigt Hill
#
# Bulk Modulus (GPa) = 17.67614 34.27219 25.97417
# Shear Modulus (GPa) = 25.11843 34.82863 29.97353
#
# Velocity S-wave (km/s) = 3.31690 3.90575 3.62331
# Velocity P-wave (km/s) = 4.73405 5.94568 5.37412
#
# Compressibility (1/GPa) = 0.05657343
#
# Stress axis : x y z
#
# Youngs Moduli (GPa) = 214.08237 39.55441 40.30331
#
# Poissons Ratio (x) = 0.01084 0.03535
# Poissons Ratio (y) = 0.05869 -0.08285
# Poissons Ratio (z) = 0.18779 -0.08131
#
# Static dielectric constant tensor:
#      x y z
#    x 1.917440 0.000000 -0.021270 
#    y 0.000000 1.818150 0.000000 
#    z -0.021270 0.000000 1.856440 
# 
# From -- ./inp_files/102896.got.cif
#   From: 2010.05.17/outbox.cif.g08.bks.cpg/sg15_52_cif.got.tgz:102896.got - 2010.06.03 18:47:42.
