data_PCOD9289653
_publ_section_title
;
Structure prediction by ZEFSAII (Michael W. Deem and Ramdas Pophale) SiO2 
 PCOD9289653
Probable space group: C 2/C
;
_chemical_formula_sum "Si O2"
_cell_formula_units_Z 48
_cell_length_a 27.765964
_cell_length_b 6.258869
_cell_length_c 24.156012
_cell_angle_alpha 90.000000
_cell_angle_beta 30.022777
_cell_angle_gamma 90.000000
_cell_volume 2100.403603
_symmetry_space_group_name_H-M "C 2/C"
_symmetry_group_IT_number 15
_symmetry_cell_setting 'monoclinic'
loop_
_space_group_symop_operation_xyz
x,y,z
-x,y,1/2-z
-x,-y,-z
x,-y,1/2+z
1/2+x,1/2+y,z
1/2-x,1/2+y,1/2-z
1/2-x,1/2-y,-z
1/2+x,1/2-y,1/2+z
loop_
_atom_site_type_symbol
_atom_site_label
_atom_site_fract_x
_atom_site_fract_y
_atom_site_fract_z
Si Si1 0.900277 0.260435 0.090501
Si Si2 0.251253 0.678934 0.419452
Si Si3 0.050991 0.566703 0.143565
Si Si4 0.210803 0.944979 0.228801
Si Si5 0.561971 0.898063 0.855047
Si Si6 0.679289 0.565126 0.549409
O O1 0.817450 0.400464 0.143898
O O2 0.935312 0.392478 0.109267
O O3 0.850855 0.044471 0.160041
O O4 0.985206 0.242486 0.962001
O O5 0.147559 0.564127 0.532715
O O6 0.286224 0.611556 0.324591
O O7 0.324608 0.591835 0.393560
O O8 0.230239 0.926222 0.451271
O O9 0.086299 0.810526 0.120263
O O10 0.000000 0.487813 0.250000
O O11 0.976979 0.556723 0.166914
O O12 0.162059 0.727355 0.256593
O O13 0.750000 0.750000 0.500000
#
# Coordination Sequence:
#
# PCOD9289653 Si02
#       6
#     8   8   8   8   8   8
#     4  11  25  43  67  98 138 183 235 292 352 415
#     4  10  22  40  66  96 137 174 229 281 346 418
#     4  11  23  40  66  98 138 178 222 287 348 416
#     4  12  23  43  70  97 133 187 228 293 357 412
#     4  11  25  45  65 100 140 176 242 291 348 423
#     4   9  21  41  63  93 129 179 222 273 343 409
#
# _framework density 22.852751000000001
#
# number of rings (size 3 to 8) (size 9 to 14) (size 15 to 20)
#    0.000    1.333    3.333    1.500    0.000   10.000 
#    0.000    0.000    0.000    0.000    0.000    0.000 
#    0.000    0.000    0.000    0.000    0.000    0.000 
#
# Total GULP energy -134303.196967 kJ/mol
# GULP energy per Si atom -5595.966540 kJ/mol
# Density = 2.280074 g / cm^3
# Si number density = 22.852751 Si / 1000 Ang^3
#
#
#
# Elastic Constant Matrix: (Units=GPa)
#
#
# Indices 1 2 3 4 5 6 
#
# 1 142.0905 4.5651 17.1183 0.0024 3.7437 0.0205
# 2 4.5651 50.2757 0.7781 -0.0790 0.9601 0.0744
# 3 17.1183 0.7781 69.9629 -0.0235 13.8533 0.0258
# 4 0.0024 -0.0790 -0.0235 40.3461 0.0259 0.0382
# 5 3.7437 0.9601 13.8533 0.0259 32.3754 -0.0171
# 6 0.0205 0.0744 0.0258 0.0382 -0.0171 9.3101
#
#
#
# Elastic Compliance Matrix: (Units=1/GPa)
#
#
# Indices 1 2 3 4 5 6 
#
# 1 0.007272 -0.000632 -0.001758 -0.000003 -0.000070 -0.000006
# 2 -0.000632 0.019958 0.000039 0.000040 -0.000535 -0.000159
# 3 -0.001758 0.000039 0.016042 0.000014 -0.006662 -0.000053
# 4 -0.000003 0.000040 0.000014 0.024786 -0.000027 -0.000102
# 5 -0.000070 -0.000535 -0.006662 -0.000027 0.033762 0.000085
# 6 -0.000006 -0.000159 -0.000053 -0.000102 0.000085 0.107412
#
#
# Mechanical properties :
#
#
# Convention : Reuss Voigt Hill
#
# Bulk Modulus (GPa) = 25.92768 34.13912 30.03340
# Shear Modulus (GPa) = 22.04669 32.39749 27.22209
#
# Velocity S-wave (km/s) = 3.10938 3.76927 3.45511
# Velocity P-wave (km/s) = 4.92556 5.82360 5.39331
#
# Compressibility (1/GPa) = 0.03856882
#
# Stress axis : x y z
#
# Youngs Moduli (GPa) = 137.51854 50.10618 62.33518
#
# Poissons Ratio (x) = 0.03165 0.10961
# Poissons Ratio (y) = 0.08688 -0.00241
# Poissons Ratio (z) = 0.24181 -0.00194
#
# Static dielectric constant tensor:
#      x y z
#    x 1.818350 -0.000010 0.004890 
#    y -0.000010 1.872810 0.000020 
#    z 0.004890 0.000020 1.859160 
# 
# From -- ./inp_files/304029.got.cif
#   From: 2010.05.17/outbox.cif.g08.bks.cpg/sg15_153_cif.got.tgz:304029.got - 2010.06.03 18:47:42.
