data_PCOD9289492
_publ_section_title
;
Structure prediction by ZEFSAII (Michael W. Deem and Ramdas Pophale) SiO2 
 PCOD9289492
Probable space group: C 2/C
;
_chemical_formula_sum "Si O2"
_cell_formula_units_Z 32
_cell_length_a 5.190659
_cell_length_b 35.900196
_cell_length_c 7.378635
_cell_angle_alpha 90.000000
_cell_angle_beta 94.013926
_cell_angle_gamma 90.000000
_cell_volume 1371.603996
_symmetry_space_group_name_H-M "C 2/C"
_symmetry_group_IT_number 15
_symmetry_cell_setting 'monoclinic'
loop_
_space_group_symop_operation_xyz
x,y,z
-x,y,1/2-z
-x,-y,-z
x,-y,1/2+z
1/2+x,1/2+y,z
1/2-x,1/2+y,1/2-z
1/2-x,1/2-y,-z
1/2+x,1/2-y,1/2+z
loop_
_atom_site_type_symbol
_atom_site_label
_atom_site_fract_x
_atom_site_fract_y
_atom_site_fract_z
Si Si1 0.366421 0.132664 0.441187
Si Si2 0.000000 0.082621 0.250000
Si Si3 0.250786 0.474527 0.508035
Si Si4 0.735995 0.786104 0.623673
Si Si5 0.000000 0.419361 0.250000
O O1 0.500000 0.131364 0.250000
O O2 0.321864 0.175569 0.486643
O O3 0.540425 0.108417 0.584597
O O4 0.087921 0.112335 0.407652
O O5 0.219857 0.052014 0.313382
O O6 0.500000 0.500000 0.500000
O O7 0.218714 0.447189 0.333947
O O8 0.000000 0.500000 0.500000
O O9 0.500000 0.781093 0.750000
O O10 0.750000 0.750000 0.500000
O O11 0.000000 0.791004 0.750000
#
# Coordination Sequence:
#
# PCOD9289492 Si02
#       5
#     8   4   8   8   4
#     4  10  23  45  69 102 144 183 234 295 357 418
#     4  10  22  40  65  86 140 174 220 286 351 402
#     4  11  24  42  65  98 134 178 233 291 346 416
#     4  11  24  46  74 107 149 190 237 296 357 429
#     4  10  24  44  71 102 132 190 238 286 361 432
#
# _framework density 23.330348999999998
#
# number of rings (size 3 to 8) (size 9 to 14) (size 15 to 20)
#    0.000    1.500    1.250    2.250    8.750    0.000 
#    4.500    0.000    0.000    0.000    0.000    0.000 
#    0.000    0.000    0.000    0.000    0.000    0.000 
#
# Total GULP energy -89188.982325 kJ/mol
# GULP energy per Si atom -5574.311395 kJ/mol
# Density = 2.327725 g / cm^3
# Si number density = 23.330349 Si / 1000 Ang^3
#
#
#
# Elastic Constant Matrix: (Units=GPa)
#
#
# Indices 1 2 3 4 5 6 
#
# 1 140.2925 67.3826 33.9033 0.0000 12.3067 0.0000
# 2 67.3826 240.9540 74.3618 0.0000 9.8017 0.0000
# 3 33.9033 74.3618 92.2612 0.0000 17.2475 0.0000
# 4 0.0000 0.0000 0.0000 60.2908 0.0000 5.6007
# 5 12.3067 9.8017 17.2475 0.0000 23.1737 0.0000
# 6 0.0000 0.0000 0.0000 5.6007 0.0000 -6.5523
#
#
#
# Elastic Compliance Matrix: (Units=1/GPa)
#
#
# Indices 1 2 3 4 5 6 
#
# 1 0.008577 -0.001965 -0.001013 0.000000 -0.002970 0.000000
# 2 -0.001965 0.006000 -0.004455 0.000000 0.001821 0.000000
# 3 -0.001013 -0.004455 0.016668 0.000000 -0.009983 0.000000
# 4 0.000000 0.000000 0.000000 0.015366 0.000000 0.013134
# 5 -0.002970 0.001821 -0.009983 0.000000 0.051390 0.000000
# 6 0.000000 0.000000 0.000000 0.013134 0.000000 -0.141391
#
#
# Mechanical properties :
#
#
# Convention : Reuss Voigt Hill
#
# Bulk Modulus (GPa) = 61.04930 91.64479 76.34704
# Shear Modulus (GPa) = -216.78209 35.23976 -90.77117
#
# Velocity S-wave (km/s) = -9.64988 3.89069 -6.24431
# Velocity P-wave (km/s) = 9.89627 7.71686 4.38099
#
# Compressibility (1/GPa) = 0.01638021
#
# Stress axis : x y z
#
# Youngs Moduli (GPa) = 116.58898 166.65539 59.99693
#
# Poissons Ratio (x) = 0.32752 0.06075
# Poissons Ratio (y) = 0.22913 0.26726
# Poissons Ratio (z) = 0.11806 0.74237
#
# Static dielectric constant tensor:
#      x y z
#    x 1.820510 0.000000 0.065760 
#    y 0.000000 1.886320 0.000000 
#    z 0.065760 0.000000 1.811630 
# 
# From -- ./inp_files/20336.got.cif
#   From: 2010.05.17/outbox.cif.g08.bks.cpg/sg15_11_cif.got.tgz:20336.got - 2010.06.03 18:47:42.
