data_PCOD9289826
_publ_section_title
;
Structure prediction by ZEFSAII (Michael W. Deem and Ramdas Pophale) SiO2 
 PCOD9289826
Probable space group: C 2/C
;
_chemical_formula_sum "Si O2"
_cell_formula_units_Z 36
_cell_length_a 16.027170
_cell_length_b 8.276215
_cell_length_c 20.932728
_cell_angle_alpha 90.000000
_cell_angle_beta 37.411413
_cell_angle_gamma 90.000000
_cell_volume 1686.883446
_symmetry_space_group_name_H-M "C 2/C"
_symmetry_group_IT_number 15
_symmetry_cell_setting 'monoclinic'
loop_
_space_group_symop_operation_xyz
x,y,z
-x,y,1/2-z
-x,-y,-z
x,-y,1/2+z
1/2+x,1/2+y,z
1/2-x,1/2+y,1/2-z
1/2-x,1/2-y,-z
1/2+x,1/2-y,1/2+z
loop_
_atom_site_type_symbol
_atom_site_label
_atom_site_fract_x
_atom_site_fract_y
_atom_site_fract_z
Si Si1 0.416687 0.397069 0.865925
Si Si2 0.500000 0.792819 0.750000
Si Si3 0.411252 0.061289 0.114001
Si Si4 0.134993 0.475035 0.080406
Si Si5 0.116055 0.892398 0.303911
O O1 0.500000 0.414139 0.750000
O O2 0.375489 0.210376 0.893158
O O3 0.508576 0.457789 0.869814
O O4 0.275652 0.497704 0.955924
O O5 0.435597 0.696218 0.729697
O O6 0.379681 0.906232 0.851150
O O7 0.390608 0.255635 0.136729
O O8 0.503683 0.008983 0.117313
O O9 0.265694 0.970133 0.205172
O O10 0.500000 0.000000 0.000000
#
# Coordination Sequence:
#
# PCOD9289826 Si02
#       5
#     8   4   8   8   8
#     4  11  21  40  67  96 126 169 217 273 320 390
#     4  10  22  40  68  96 128 168 222 272 312 400
#     4  11  25  43  63  95 136 176 215 275 327 394
#     4  10  23  40  66  95 130 168 222 266 328 383
#     4  11  24  42  67  95 134 171 224 262 332 386
#
# _framework density 21.341131000000001
#
# number of rings (size 3 to 8) (size 9 to 14) (size 15 to 20)
#    0.000    1.333    2.222    2.667    3.111    1.778 
#    4.000    2.222    0.000    0.000    0.000    0.000 
#    0.000    0.000    0.000    0.000    0.000    0.000 
#
# Total GULP energy -100428.211704 kJ/mol
# GULP energy per Si atom -5579.345095 kJ/mol
# Density = 2.129256 g / cm^3
# Si number density = 21.341131 Si / 1000 Ang^3
#
#
#
# Elastic Constant Matrix: (Units=GPa)
#
#
# Indices 1 2 3 4 5 6 
#
# 1 47.2330 -1.5368 20.1648 0.0000 -21.0126 0.0000
# 2 -1.5368 51.5564 27.4513 0.0000 4.2788 0.0000
# 3 20.1648 27.4513 103.4545 0.0000 -18.1113 0.0000
# 4 0.0000 0.0000 0.0000 6.4968 0.0000 -10.9397
# 5 -21.0126 4.2788 -18.1113 0.0000 44.6942 0.0000
# 6 0.0000 0.0000 0.0000 -10.9397 0.0000 14.1600
#
#
#
# Elastic Compliance Matrix: (Units=1/GPa)
#
#
# Indices 1 2 3 4 5 6 
#
# 1 0.027995 0.002028 -0.004009 0.000000 0.011343 0.000000
# 2 0.002028 0.023796 -0.007471 0.000000 -0.004352 0.000000
# 3 -0.004009 -0.007471 0.013159 0.000000 0.004163 0.000000
# 4 0.000000 0.000000 0.000000 -0.511537 0.000000 -0.395200
# 5 0.011343 -0.004352 0.004163 0.000000 0.029811 0.000000
# 6 0.000000 0.000000 0.000000 -0.395200 0.000000 -0.234700
#
#
# Mechanical properties :
#
#
# Convention : Reuss Voigt Hill
#
# Bulk Modulus (GPa) = 21.71796 32.71141 27.21469
# Shear Modulus (GPa) = -8.10081 23.48118 7.69019
#
# Velocity S-wave (km/s) = -1.95041 3.32064 1.90034
# Velocity P-wave (km/s) = 2.26418 5.48301 4.19463
#
# Compressibility (1/GPa) = 0.04604483
#
# Stress axis : x y z
#
# Youngs Moduli (GPa) = 35.72022 42.02373 75.99501
#
# Poissons Ratio (x) = -0.08521 0.30466
# Poissons Ratio (y) = -0.07243 0.56779
# Poissons Ratio (z) = 0.14320 0.31398
#
# Static dielectric constant tensor:
#      x y z
#    x 1.782070 0.000000 0.030720 
#    y 0.000000 1.877330 0.000000 
#    z 0.030720 0.000000 1.777220 
# 
# From -- ./inp_files/102422.got.cif
#   From: 2010.05.17/outbox.cif.g08.bks.cpg/sg15_52_cif.got.tgz:102422.got - 2010.06.03 18:47:42.
