data_PCOD9289758
_publ_section_title
;
Structure prediction by ZEFSAII (Michael W. Deem and Ramdas Pophale) SiO2 
 PCOD9289758
Probable space group: C 2/C
;
_chemical_formula_sum "Si O2"
_cell_formula_units_Z 32
_cell_length_a 15.691317
_cell_length_b 14.334308
_cell_length_c 10.673662
_cell_angle_alpha 90.000000
_cell_angle_beta 148.751619
_cell_angle_gamma 90.000000
_cell_volume 1245.394464
_symmetry_space_group_name_H-M "C 2/C"
_symmetry_group_IT_number 15
_symmetry_cell_setting 'monoclinic'
loop_
_space_group_symop_operation_xyz
x,y,z
-x,y,1/2-z
-x,-y,-z
x,-y,1/2+z
1/2+x,1/2+y,z
1/2-x,1/2+y,1/2-z
1/2-x,1/2-y,-z
1/2+x,1/2-y,1/2+z
loop_
_atom_site_type_symbol
_atom_site_label
_atom_site_fract_x
_atom_site_fract_y
_atom_site_fract_z
Si Si1 0.621539 0.561746 0.570411
Si Si2 0.875857 0.777512 0.766886
Si Si3 0.676311 0.373617 0.527828
Si Si4 0.027149 0.600298 0.470647
O O1 0.500000 0.500000 0.500000
O O2 0.522745 0.653674 0.411962
O O3 0.664576 0.487064 0.517794
O O4 0.788903 0.588496 0.853181
O O5 0.750000 0.750000 0.500000
O O6 0.814209 0.827045 0.820320
O O7 0.944432 0.677571 0.889524
O O8 0.500000 0.341798 0.250000
O O9 0.858104 0.362242 0.696108
O O10 0.000000 0.500000 0.500000
#
# Coordination Sequence:
#
# PCOD9289758 Si02
#       4
#     8   8   8   8
#     4   9  21  42  66 100 142 186 235 302 364 430
#     4  11  24  42  72 103 138 191 246 296 361 430
#     4  10  23  43  69  99 143 190 237 298 367 431
#     4  10  22  40  67  99 139 185 237 296 356 427
#
# _framework density 25.694671
#
# number of rings (size 3 to 8) (size 9 to 14) (size 15 to 20)
#    0.000    2.000    0.000    1.500    7.000    4.000 
#    0.000    5.000    5.500    0.000    0.000    0.000 
#    0.000    0.000    0.000    0.000    0.000    0.000 
#
# Total GULP energy -89162.577689 kJ/mol
# GULP energy per Si atom -5572.661106 kJ/mol
# Density = 2.563619 g / cm^3
# Si number density = 25.694671 Si / 1000 Ang^3
#
#
#
# Elastic Constant Matrix: (Units=GPa)
#
#
# Indices 1 2 3 4 5 6 
#
# 1 72.6982 26.9281 107.9500 0.0000 20.9011 0.0000
# 2 26.9281 193.6563 60.7961 0.0000 -9.2218 0.0000
# 3 107.9500 60.7961 293.5201 0.0000 33.3158 0.0000
# 4 0.0000 0.0000 0.0000 42.4281 0.0000 16.6506
# 5 20.9011 -9.2218 33.3158 0.0000 61.6841 0.0000
# 6 0.0000 0.0000 0.0000 16.6506 0.0000 26.1752
#
#
#
# Elastic Compliance Matrix: (Units=1/GPa)
#
#
# Indices 1 2 3 4 5 6 
#
# 1 0.031818 -0.001257 -0.010862 0.000000 -0.005102 0.000000
# 2 -0.001257 0.005713 -0.000923 0.000000 0.001779 0.000000
# 3 -0.010862 -0.000923 0.007660 0.000000 -0.000595 0.000000
# 4 0.000000 0.000000 0.000000 0.031411 0.000000 -0.019981
# 5 -0.005102 0.001779 -0.000595 0.000000 0.018528 0.000000
# 6 0.000000 0.000000 0.000000 -0.019981 0.000000 0.050914
#
#
# Mechanical properties :
#
#
# Convention : Reuss Voigt Hill
#
# Bulk Modulus (GPa) = 52.33815 105.69147 79.01481
# Shear Modulus (GPa) = 28.01169 50.33750 39.17460
#
# Velocity S-wave (km/s) = 3.30536 4.43093 3.90887
# Velocity P-wave (km/s) = 5.91445 8.20978 7.15476
#
# Compressibility (1/GPa) = 0.01910652
#
# Stress axis : x y z
#
# Youngs Moduli (GPa) = 31.42924 175.03938 130.54033
#
# Poissons Ratio (x) = 0.22005 1.41796
# Poissons Ratio (y) = 0.03951 0.12047
# Poissons Ratio (z) = 0.34139 0.16153
#
# Static dielectric constant tensor:
#      x y z
#    x 2.108460 0.000000 0.134670 
#    y 0.000000 2.037610 0.000000 
#    z 0.134670 0.000000 2.103910 
# 
# From -- ./inp_files/28440.got.cif
#   From: 2010.05.17/outbox.cif.g08.bks.cpg/sg15_15_cif.got.tgz:28440.got - 2010.06.03 18:47:42.
