data_PCOD9289645
_publ_section_title
;
Structure prediction by ZEFSAII (Michael W. Deem and Ramdas Pophale) SiO2 
 PCOD9289645
Probable space group: C 2/C
;
_chemical_formula_sum "Si O2"
_cell_formula_units_Z 40
_cell_length_a 5.002510
_cell_length_b 9.976068
_cell_length_c 30.127695
_cell_angle_alpha 90.000000
_cell_angle_beta 80.332473
_cell_angle_gamma 90.000000
_cell_volume 1482.182083
_symmetry_space_group_name_H-M "C 2/C"
_symmetry_group_IT_number 15
_symmetry_cell_setting 'monoclinic'
loop_
_space_group_symop_operation_xyz
x,y,z
-x,y,1/2-z
-x,-y,-z
x,-y,1/2+z
1/2+x,1/2+y,z
1/2-x,1/2+y,1/2-z
1/2-x,1/2-y,-z
1/2+x,1/2-y,1/2+z
loop_
_atom_site_type_symbol
_atom_site_label
_atom_site_fract_x
_atom_site_fract_y
_atom_site_fract_z
Si Si1 0.092489 0.321418 0.965150
Si Si2 0.653168 0.277516 0.789752
Si Si3 0.580436 0.110973 0.632367
Si Si4 0.467807 0.452347 0.318290
Si Si5 0.241869 0.597105 0.945678
O O1 0.960333 0.215522 0.935537
O O2 0.280325 0.437766 0.940403
O O3 0.843601 0.388754 0.999755
O O4 0.250000 0.250000 0.000000
O O5 0.500000 0.225806 0.750000
O O6 0.472879 0.246581 0.838578
O O7 0.644411 0.438273 0.787059
O O8 0.919494 0.192013 0.795550
O O9 0.345941 0.015688 0.661335
O O10 0.493501 0.122985 0.584007
O O11 0.869945 0.062426 0.640381
#
# Coordination Sequence:
#
# PCOD9289645 Si02
#       5
#     8   8   8   8   8
#     4  10  22  40  66  95 136 178 233 287 356 420
#     4  10  26  46  74 103 146 186 242 299 367 433
#     4  10  26  44  69 103 139 189 237 298 359 432
#     4  10  26  44  69 104 138 188 237 295 362 430
#     4  10  23  41  64  99 132 183 232 291 352 428
#
# _framework density 26.987234000000001
#
# number of rings (size 3 to 8) (size 9 to 14) (size 15 to 20)
#    1.200    0.800    0.000    0.600   11.200    1.600 
#    0.000    0.000    0.000    0.000    0.000    0.000 
#    0.000    0.000    0.000    0.000    0.000    0.000 
#
# Total GULP energy -111510.675379 kJ/mol
# GULP energy per Si atom -5575.533769 kJ/mol
# Density = 2.692581 g / cm^3
# Si number density = 26.987234 Si / 1000 Ang^3
#
#
#
# Elastic Constant Matrix: (Units=GPa)
#
#
# Indices 1 2 3 4 5 6 
#
# 1 106.8624 59.5142 35.4812 0.0000 40.1995 0.0000
# 2 59.5142 188.9761 53.8863 0.0000 34.1009 0.0000
# 3 35.4812 53.8863 170.7071 0.0000 43.5229 0.0000
# 4 0.0000 0.0000 0.0000 27.8269 0.0000 21.7356
# 5 40.1995 34.1009 43.5229 0.0000 57.7822 0.0000
# 6 0.0000 0.0000 0.0000 21.7356 0.0000 10.9580
#
#
#
# Elastic Compliance Matrix: (Units=1/GPa)
#
#
# Indices 1 2 3 4 5 6 
#
# 1 0.014024 -0.002986 0.000082 0.000000 -0.008056 0.000000
# 2 -0.002986 0.006768 -0.001271 0.000000 -0.000959 0.000000
# 3 0.000082 -0.001271 0.007507 0.000000 -0.004961 0.000000
# 4 0.000000 0.000000 0.000000 -0.065418 0.000000 0.129758
# 5 -0.008056 -0.000959 -0.004961 0.000000 0.027214 0.000000
# 6 0.000000 0.000000 0.000000 0.129758 0.000000 -0.166123
#
#
# Mechanical properties :
#
#
# Convention : Reuss Voigt Hill
#
# Bulk Modulus (GPa) = 50.13119 84.92322 67.52721
# Shear Modulus (GPa) = -31.05072 40.49100 4.72014
#
# Velocity S-wave (km/s) = -3.39569 3.87767 1.32394
# Velocity P-wave (km/s) = 1.80055 7.18225 5.23577
#
# Compressibility (1/GPa) = 0.01994766
#
# Stress axis : x y z
#
# Youngs Moduli (GPa) = 71.30472 147.76177 133.20619
#
# Poissons Ratio (x) = 0.44125 -0.01087
# Poissons Ratio (y) = 0.21293 0.16932
# Poissons Ratio (z) = -0.00582 0.18782
#
# Static dielectric constant tensor:
#      x y z
#    x 2.586750 0.000000 -0.370510 
#    y 0.000000 2.189140 0.000000 
#    z -0.370510 0.000000 2.230060 
# 
# From -- ./inp_files/304996.got.cif
#   From: 2010.05.17/outbox.cif.g08.bks.cpg/sg15_153_cif.got.tgz:304996.got - 2010.06.03 18:47:42.
