data_PCOD9289946
_publ_section_title
;
Structure prediction by ZEFSAII (Michael W. Deem and Ramdas Pophale) SiO2 
 PCOD9289946
Probable space group: C 2/C
;
_chemical_formula_sum "Si O2"
_cell_formula_units_Z 32
_cell_length_a 9.176166
_cell_length_b 10.749213
_cell_length_c 14.048504
_cell_angle_alpha 90.000000
_cell_angle_beta 108.901557
_cell_angle_gamma 90.000000
_cell_volume 1310.974639
_symmetry_space_group_name_H-M "C 2/C"
_symmetry_group_IT_number 15
_symmetry_cell_setting 'monoclinic'
loop_
_space_group_symop_operation_xyz
x,y,z
-x,y,1/2-z
-x,-y,-z
x,-y,1/2+z
1/2+x,1/2+y,z
1/2-x,1/2+y,1/2-z
1/2-x,1/2-y,-z
1/2+x,1/2-y,1/2+z
loop_
_atom_site_type_symbol
_atom_site_label
_atom_site_fract_x
_atom_site_fract_y
_atom_site_fract_z
Si Si1 0.140868 0.226319 0.068359
Si Si2 0.684414 0.635115 0.547120
Si Si3 0.857877 0.716187 0.282488
Si Si4 0.007342 0.468140 0.365879
O O1 0.231877 0.175858 0.179581
O O2 0.074715 0.358441 0.093457
O O3 0.250000 0.250000 0.000000
O O4 0.996567 0.136447 0.015047
O O5 0.750000 0.750000 0.500000
O O6 0.695756 0.678154 0.658598
O O7 0.813525 0.529319 0.563333
O O8 0.921235 0.599768 0.356404
O O9 0.000000 0.763736 0.250000
O O10 0.000000 0.444611 0.250000
#
# Coordination Sequence:
#
# PCOD9289946 Si02
#       4
#     8   8   8   8
#     4  11  22  41  71 100 138 179 227 283 341 409
#     4  10  22  40  70  96 135 175 229 280 341 409
#     4  11  22  42  69 101 139 178 225 292 338 398
#     4  10  22  42  70  95 136 182 223 280 345 400
#
# _framework density 24.409322
#
# number of rings (size 3 to 8) (size 9 to 14) (size 15 to 20)
#    0.000    1.500    5.000    0.000    0.000    4.000 
#    0.000    5.000   49.500    0.000    0.000    0.000 
#    0.000    0.000    0.000    0.000    0.000    0.000 
#
# Total GULP energy -89508.876603 kJ/mol
# GULP energy per Si atom -5594.304788 kJ/mol
# Density = 2.435377 g / cm^3
# Si number density = 24.409322 Si / 1000 Ang^3
#
#
#
# Elastic Constant Matrix: (Units=GPa)
#
#
# Indices 1 2 3 4 5 6 
#
# 1 126.9963 32.3032 45.2723 0.0000 29.1885 0.0000
# 2 32.3032 82.4407 11.1543 0.0000 -3.9330 0.0000
# 3 45.2723 11.1543 134.0318 0.0000 24.5089 0.0000
# 4 0.0000 0.0000 0.0000 42.6330 0.0000 -3.2635
# 5 29.1885 -3.9330 24.5089 0.0000 69.7687 0.0000
# 6 0.0000 0.0000 0.0000 -3.2635 0.0000 31.4418
#
#
#
# Elastic Compliance Matrix: (Units=1/GPa)
#
#
# Indices 1 2 3 4 5 6 
#
# 1 0.010689 -0.004020 -0.002583 0.000000 -0.003791 0.000000
# 2 -0.004020 0.013863 -0.000263 0.000000 0.002556 0.000000
# 3 -0.002583 -0.000263 0.008720 0.000000 -0.001998 0.000000
# 4 0.000000 0.000000 0.000000 0.023644 0.000000 0.002454
# 5 -0.003791 0.002556 -0.001998 0.000000 0.016765 0.000000
# 6 0.000000 0.000000 0.000000 0.002454 0.000000 0.032059
#
#
# Mechanical properties :
#
#
# Convention : Reuss Voigt Hill
#
# Bulk Modulus (GPa) = 51.17523 57.88092 54.52808
# Shear Modulus (GPa) = 39.68742 45.75131 42.71936
#
# Velocity S-wave (km/s) = 4.03663 4.33406 4.18799
# Velocity P-wave (km/s) = 6.53734 6.98638 6.76559
#
# Compressibility (1/GPa) = 0.01954070
#
# Stress axis : x y z
#
# Youngs Moduli (GPa) = 93.55683 72.13704 114.67280
#
# Poissons Ratio (x) = 0.28997 0.29615
# Poissons Ratio (y) = 0.37607 0.03019
# Poissons Ratio (z) = 0.24162 0.01899
#
# Static dielectric constant tensor:
#      x y z
#    x 1.880730 0.000000 0.110760 
#    y 0.000000 1.951030 0.000000 
#    z 0.110760 0.000000 1.914450 
# 
# From -- ./inp_files/131949.got.cif
#   From: 2010.05.17/outbox.cif.g08.bks.cpg/sg15_66_cif.got.tgz:131949.got - 2010.06.03 18:47:42.
