data_PCOD9289297
_publ_section_title
;
Structure prediction by ZEFSAII (Michael W. Deem and Ramdas Pophale) SiO2 
 PCOD9289297
Probable space group: C 2/C
;
_chemical_formula_sum "Si O2"
_cell_formula_units_Z 52
_cell_length_a 22.207970
_cell_length_b 20.080911
_cell_length_c 5.085460
_cell_angle_alpha 90.000000
_cell_angle_beta 113.735618
_cell_angle_gamma 90.000000
_cell_volume 2076.057491
_symmetry_space_group_name_H-M "C 2/C"
_symmetry_group_IT_number 15
_symmetry_cell_setting 'monoclinic'
loop_
_space_group_symop_operation_xyz
x,y,z
-x,y,1/2-z
-x,-y,-z
x,-y,1/2+z
1/2+x,1/2+y,z
1/2-x,1/2+y,1/2-z
1/2-x,1/2-y,-z
1/2+x,1/2-y,1/2+z
loop_
_atom_site_type_symbol
_atom_site_label
_atom_site_fract_x
_atom_site_fract_y
_atom_site_fract_z
Si Si1 0.791483 0.711205 0.851786
Si Si2 0.543993 0.631966 0.066647
Si Si3 0.069299 0.284497 0.987325
Si Si4 0.811117 0.147728 0.150325
Si Si5 0.247660 0.046498 0.086914
Si Si6 0.000000 0.635415 0.750000
Si Si7 0.897979 0.458618 0.920910
O O1 0.866158 0.692431 0.050625
O O2 0.811476 0.771378 0.682899
O O3 0.751006 0.649445 0.658640
O O4 0.750000 0.750000 0.000000
O O5 0.500000 0.634398 0.250000
O O6 0.561852 0.704916 0.986418
O O7 0.618706 0.613835 0.292378
O O8 0.500000 0.599715 0.750000
O O9 0.059901 0.318006 0.253925
O O10 0.000000 0.305790 0.750000
O O11 0.792434 0.110904 0.387577
O O12 0.324094 0.066368 0.242238
O O13 0.234420 0.991296 0.292498
O O14 0.039271 0.586679 0.014351
O O15 0.901523 0.478767 0.232582
#
# Coordination Sequence:
#
# PCOD9289297 Si02
#       7
#     8   8   8   8   8   4   8
#     4  10  23  39  64  97 136 172 225 282 337 405
#     4  10  22  40  63  91 131 165 207 254 336 408
#     4  10  23  36  56  91 128 171 209 264 322 391
#     4  10  23  40  65  96 128 175 222 276 343 400
#     4  10  23  42  65  94 127 172 224 280 331 398
#     4  12  22  36  60  80 126 166 224 256 320 386
#     4  10  23  40  58  83 121 164 218 268 318 370
#
# _framework density 25.047474999999999
#
# number of rings (size 3 to 8) (size 9 to 14) (size 15 to 20)
#    0.000    1.846    0.769    1.385   10.769    2.462 
#    0.000    0.000    0.000    2.769    0.000    0.000 
#    0.000    0.000    0.000    0.000    0.000    0.000 
#
# Total GULP energy -144879.298457 kJ/mol
# GULP energy per Si atom -5572.280710 kJ/mol
# Density = 2.499047 g / cm^3
# Si number density = 25.047475 Si / 1000 Ang^3
#
#
#
# Elastic Constant Matrix: (Units=GPa)
#
#
# Indices 1 2 3 4 5 6 
#
# 1 159.9112 -6.9239 31.8107 0.0000 16.0675 0.0000
# 2 -6.9239 38.6750 -13.9852 0.0000 -1.4696 0.0000
# 3 31.8107 -13.9852 74.9272 0.0000 13.4052 0.0000
# 4 0.0000 0.0000 0.0000 22.1959 0.0000 -9.2754
# 5 16.0675 -1.4696 13.4052 0.0000 36.5729 0.0000
# 6 0.0000 0.0000 0.0000 -9.2754 0.0000 24.5630
#
#
#
# Elastic Compliance Matrix: (Units=1/GPa)
#
#
# Indices 1 2 3 4 5 6 
#
# 1 0.006983 0.000252 -0.002537 0.000000 -0.002128 0.000000
# 2 0.000252 0.027761 0.005238 0.000000 -0.000915 0.000000
# 3 -0.002537 0.005238 0.016228 0.000000 -0.004623 0.000000
# 4 0.000000 0.000000 0.000000 0.053495 0.000000 0.020201
# 5 -0.002128 -0.000915 -0.004623 0.000000 0.029935 0.000000
# 6 0.000000 0.000000 0.000000 0.020201 0.000000 0.048340
#
#
# Mechanical properties :
#
#
# Convention : Reuss Voigt Hill
#
# Bulk Modulus (GPa) = 17.58121 32.81297 25.19709
# Shear Modulus (GPa) = 25.53697 34.17383 29.85540
#
# Velocity S-wave (km/s) = 3.19649 3.69773 3.45621
# Velocity P-wave (km/s) = 4.54509 5.59998 5.09988
#
# Compressibility (1/GPa) = 0.05687891
#
# Stress axis : x y z
#
# Youngs Moduli (GPa) = 143.20841 36.02170 61.62109
#
# Poissons Ratio (x) = -0.00907 0.15633
# Poissons Ratio (y) = -0.03607 -0.32280
# Poissons Ratio (z) = 0.36330 -0.18870
#
# Static dielectric constant tensor:
#      x y z
#    x 2.404340 0.000000 -0.111680 
#    y 0.000000 1.996360 0.000000 
#    z -0.111680 0.000000 2.640300 
# 
# From -- ./inp_files/13769.got.cif
#   From: 2010.05.17/outbox.cif.g08.bks.cpg/sg15_7_cif.got.tgz:13769.got - 2010.06.03 18:47:42.
