data_PCOD9289429
_publ_section_title
;
Structure prediction by ZEFSAII (Michael W. Deem and Ramdas Pophale) SiO2 
 PCOD9289429
Probable space group: C 2/C
;
_chemical_formula_sum "Si O2"
_cell_formula_units_Z 40
_cell_length_a 28.378085
_cell_length_b 4.917873
_cell_length_c 23.592142
_cell_angle_alpha 90.000000
_cell_angle_beta 152.416024
_cell_angle_gamma 90.000000
_cell_volume 1524.593069
_symmetry_space_group_name_H-M "C 2/C"
_symmetry_group_IT_number 15
_symmetry_cell_setting 'monoclinic'
loop_
_space_group_symop_operation_xyz
x,y,z
-x,y,1/2-z
-x,-y,-z
x,-y,1/2+z
1/2+x,1/2+y,z
1/2-x,1/2+y,1/2-z
1/2-x,1/2-y,-z
1/2+x,1/2-y,1/2+z
loop_
_atom_site_type_symbol
_atom_site_label
_atom_site_fract_x
_atom_site_fract_y
_atom_site_fract_z
Si Si1 0.666487 0.499928 0.844803
Si Si2 0.076929 0.526265 0.698944
Si Si3 0.693584 0.668816 0.166147
Si Si4 0.873239 0.632147 0.026671
Si Si5 0.000000 0.500000 0.500000
Si Si6 0.500000 0.507226 0.750000
O O1 0.634720 0.308866 0.759392
O O2 0.594627 0.375994 0.817319
O O3 0.632393 0.809543 0.798183
O O4 0.787176 0.500431 0.974228
O O5 0.958659 0.567313 0.591570
O O6 0.068722 0.411970 0.627860
O O7 0.723210 0.364068 0.214750
O O8 0.585073 0.764810 0.073937
O O9 0.682199 0.723199 0.085982
O O10 0.939434 0.826814 0.137177
#
# Coordination Sequence:
#
# PCOD9289429 Si02
#       6
#     8   8   8   8   4   4
#     4  11  23  43  64  91 128 168 213 266 318 376
#     4  10  24  40  64  96 127 167 214 259 320 384
#     4  11  24  41  66  97 128 169 214 261 324 386
#     4  10  23  43  67  94 131 169 214 268 320 382
#     4  10  22  40  64  94 132 166 208 266 316 380
#     4  10  24  44  66  98 128 172 220 264 322 382
#
# _framework density 26.236511
#
# number of rings (size 3 to 8) (size 9 to 14) (size 15 to 20)
#    0.000    1.600    0.000    3.000    0.000   17.600 
#    0.000    6.000    0.000    0.000    0.000    0.000 
#    0.000    0.000    0.000    0.000    0.000    0.000 
#
# Total GULP energy -111351.613685 kJ/mol
# GULP energy per Si atom -5567.580684 kJ/mol
# Density = 2.617680 g / cm^3
# Si number density = 26.236511 Si / 1000 Ang^3
#
#
#
# Elastic Constant Matrix: (Units=GPa)
#
#
# Indices 1 2 3 4 5 6 
#
# 1 88.6552 27.4610 55.7457 -0.0084 22.0084 -0.0055
# 2 27.4610 73.2219 30.2322 0.0078 7.7897 0.0052
# 3 55.7457 30.2322 128.9283 0.0027 -4.5223 0.0017
# 4 -0.0084 0.0078 0.0027 -0.8871 -0.0002 -12.5807
# 5 22.0084 7.7897 -4.5223 -0.0002 57.5571 -0.0001
# 6 -0.0055 0.0052 0.0017 -12.5807 -0.0001 17.9025
#
#
#
# Elastic Compliance Matrix: (Units=1/GPa)
#
#
# Indices 1 2 3 4 5 6 
#
# 1 0.018946 -0.003128 -0.007719 -0.000031 -0.007428 -0.000014
# 2 -0.003128 0.015956 -0.002429 0.000022 -0.001154 0.000010
# 3 -0.007719 -0.002429 0.011811 0.000011 0.004208 0.000005
# 4 -0.000031 0.000022 0.000011 -0.102796 0.000009 -0.072238
# 5 -0.007428 -0.001154 0.004208 0.000009 0.020701 0.000004
# 6 -0.000014 0.000010 0.000005 -0.072238 0.000004 0.005094
#
#
# Mechanical properties :
#
#
# Convention : Reuss Voigt Hill
#
# Bulk Modulus (GPa) = 49.60291 57.52037 53.56164
# Shear Modulus (GPa) = 1675.12784 26.73894 850.93339
#
# Velocity S-wave (km/s) = 25.29542 3.19588 18.02875
# Velocity P-wave (km/s) = 29.53119 5.96570 21.30353
#
# Compressibility (1/GPa) = 0.02016011
#
# Stress axis : x y z
#
# Youngs Moduli (GPa) = 52.78139 62.67152 84.66708
#
# Poissons Ratio (x) = 0.19606 0.65353
# Poissons Ratio (y) = 0.16512 0.20569
# Poissons Ratio (z) = 0.40741 0.15226
#
# Static dielectric constant tensor:
#      x y z
#    x 2.211700 0.000000 0.020480 
#    y 0.000000 1.954860 0.000000 
#    z 0.020480 0.000000 1.930040 
# 
# From -- ./inp_files/284123.got.cif
#   From: 2010.05.17/outbox.cif.g08.bks.cpg/sg15_143_cif.got.tgz:284123.got - 2010.06.03 18:47:42.
