data_PCOD9289424
_publ_section_title
;
Structure prediction by ZEFSAII (Michael W. Deem and Ramdas Pophale) SiO2 
 PCOD9289424
Probable space group: C 2/C
;
_chemical_formula_sum "Si O2"
_cell_formula_units_Z 40
_cell_length_a 26.255084
_cell_length_b 4.993677
_cell_length_c 11.539161
_cell_angle_alpha 90.000000
_cell_angle_beta 98.323086
_cell_angle_gamma 90.000000
_cell_volume 1496.958105
_symmetry_space_group_name_H-M "C 2/C"
_symmetry_group_IT_number 15
_symmetry_cell_setting 'monoclinic'
loop_
_space_group_symop_operation_xyz
x,y,z
-x,y,1/2-z
-x,-y,-z
x,-y,1/2+z
1/2+x,1/2+y,z
1/2-x,1/2+y,1/2-z
1/2-x,1/2-y,-z
1/2+x,1/2-y,1/2+z
loop_
_atom_site_type_symbol
_atom_site_label
_atom_site_fract_x
_atom_site_fract_y
_atom_site_fract_z
Si Si1 0.429580 0.147089 0.939971
Si Si2 0.292060 0.423902 0.442531
Si Si3 0.364724 0.215889 0.129072
Si Si4 0.455793 0.357752 0.326452
Si Si5 0.680568 0.910666 0.197399
O O1 0.452382 0.437167 0.930679
O O2 0.464104 0.929447 0.888079
O O3 0.377273 0.173295 0.848865
O O4 0.406467 0.080051 0.057287
O O5 0.250000 0.250000 0.500000
O O6 0.331238 0.567823 0.545918
O O7 0.313030 0.186440 0.369907
O O8 0.216057 0.825714 0.654054
O O9 0.401818 0.340326 0.238574
O O10 0.324597 0.004728 0.171236
O O11 0.500000 0.426596 0.250000
#
# Coordination Sequence:
#
# PCOD9289424 Si02
#       5
#     8   8   8   8   8
#     4  10  22  40  64  94 130 176 227 277 336 408
#     4  11  24  44  70 103 135 173 233 289 343 419
#     4  10  22  42  70  96 137 183 221 285 350 396
#     4  11  24  40  62  97 135 176 230 279 335 412
#     4  10  22  42  68  99 135 178 228 279 346 420
#
# _framework density 26.720853999999999
#
# number of rings (size 3 to 8) (size 9 to 14) (size 15 to 20)
#    0.000    1.600    0.000    6.000    0.000   16.000 
#    0.000    8.000    0.000    0.000    0.000    1.400 
#    0.000    0.000    0.000    0.000    0.000    0.000 
#
# Total GULP energy -111790.934188 kJ/mol
# GULP energy per Si atom -5589.546709 kJ/mol
# Density = 2.666004 g / cm^3
# Si number density = 26.720854 Si / 1000 Ang^3
#
#
#
# Elastic Constant Matrix: (Units=GPa)
#
#
# Indices 1 2 3 4 5 6 
#
# 1 119.9333 43.6641 54.9774 0.0000 -26.7895 0.0000
# 2 43.6641 146.8528 56.4061 0.0000 -11.6461 0.0000
# 3 54.9774 56.4061 114.9393 0.0000 -14.9561 0.0000
# 4 0.0000 0.0000 0.0000 18.9536 0.0000 -8.5971
# 5 -26.7895 -11.6461 -14.9561 0.0000 58.9636 0.0000
# 6 0.0000 0.0000 0.0000 -8.5971 0.0000 31.9525
#
#
#
# Elastic Compliance Matrix: (Units=1/GPa)
#
#
# Indices 1 2 3 4 5 6 
#
# 1 0.011774 -0.001506 -0.004380 0.000000 0.003941 0.000000
# 2 -0.001506 0.008607 -0.003486 0.000000 0.000131 0.000000
# 3 -0.004380 -0.003486 0.012573 0.000000 0.000510 0.000000
# 4 0.000000 0.000000 0.000000 0.060094 0.000000 0.016169
# 5 0.003941 0.000131 0.000510 0.000000 0.018906 0.000000
# 6 0.000000 0.000000 0.000000 0.016169 0.000000 0.035647
#
#
# Mechanical properties :
#
#
# Convention : Reuss Voigt Hill
#
# Bulk Modulus (GPa) = 70.37715 76.86896 73.62305
# Shear Modulus (GPa) = 29.22582 37.08580 33.15581
#
# Velocity S-wave (km/s) = 3.31077 3.72949 3.52635
# Velocity P-wave (km/s) = 6.40391 6.88297 6.64776
#
# Compressibility (1/GPa) = 0.01420916
#
# Stress axis : x y z
#
# Youngs Moduli (GPa) = 84.93020 116.18666 79.53812
#
# Poissons Ratio (x) = 0.17498 0.34838
# Poissons Ratio (y) = 0.12790 0.27730
# Poissons Ratio (z) = 0.37199 0.40506
#
# Static dielectric constant tensor:
#      x y z
#    x 2.127430 0.000000 0.038220 
#    y 0.000000 2.044130 0.000000 
#    z 0.038220 0.000000 2.226660 
# 
# From -- ./inp_files/120889.got.cif
#   From: 2010.05.17/outbox.cif.g08.bks.cpg/sg15_61_cif.got.tgz:120889.got - 2010.06.03 18:47:42.
