data_PCOD9289065
_publ_section_title
;
Structure prediction by ZEFSAII (Michael W. Deem and Ramdas Pophale) SiO2 
 PCOD9289065
Probable space group: C 2/C
;
_chemical_formula_sum "Si O2"
_cell_formula_units_Z 56
_cell_length_a 27.238946
_cell_length_b 12.532857
_cell_length_c 22.348103
_cell_angle_alpha 90.000000
_cell_angle_beta 21.096292
_cell_angle_gamma 90.000000
_cell_volume 2746.039954
_symmetry_space_group_name_H-M "C 2/C"
_symmetry_group_IT_number 15
_symmetry_cell_setting 'monoclinic'
loop_
_space_group_symop_operation_xyz
x,y,z
-x,y,1/2-z
-x,-y,-z
x,-y,1/2+z
1/2+x,1/2+y,z
1/2-x,1/2+y,1/2-z
1/2-x,1/2-y,-z
1/2+x,1/2-y,1/2+z
loop_
_atom_site_type_symbol
_atom_site_label
_atom_site_fract_x
_atom_site_fract_y
_atom_site_fract_z
Si Si1 0.775743 0.576872 0.316990
Si Si2 0.712733 0.351116 0.667763
Si Si3 0.645957 0.983768 0.089520
Si Si4 0.382412 0.134492 0.759044
Si Si5 0.665721 0.344329 0.063947
Si Si6 0.859195 0.293166 0.612416
Si Si7 0.561350 0.441937 0.487708
O O1 0.850620 0.476948 0.262551
O O2 0.717013 0.647863 0.437273
O O3 0.863194 0.645406 0.170538
O O4 0.654387 0.522512 0.418176
O O5 0.812770 0.431159 0.520102
O O6 0.723749 0.231238 0.629696
O O7 0.734568 0.335213 0.713778
O O8 0.563516 0.401052 0.829614
O O9 0.500000 0.044515 0.250000
O O10 0.614794 0.892704 0.174267
O O11 0.771842 0.052178 0.972469
O O12 0.515149 0.177661 0.573848
O O13 0.500000 0.338382 0.250000
O O14 0.750000 0.250000 0.000000
O O15 0.857210 0.165854 0.622686
O O16 0.500000 0.500000 0.500000
#
# Coordination Sequence:
#
# PCOD9289065 Si02
#       7
#     8   8   8   8   8   8   8
#     4  11  23  42  65  95 128 173 215 274 328 390
#     4  11  21  38  62  95 130 166 217 259 327 397
#     4  11  22  40  68  96 128 175 216 271 329 397
#     4  10  22  40  59  92 134 167 215 263 321 393
#     4  11  26  49  68  93 130 173 231 279 337 399
#     4  11  22  39  63  94 129 169 213 268 325 398
#     4  11  23  40  63  93 135 168 215 271 337 397
#
# _framework density 20.393003
#
# number of rings (size 3 to 8) (size 9 to 14) (size 15 to 20)
#    0.000    1.143    4.286    2.143    0.000    2.286 
#    0.000    0.714    0.000    0.000    0.000    0.000 
#    0.000    0.000    0.000    0.000    0.000    0.000 
#
# Total GULP energy -156165.335838 kJ/mol
# GULP energy per Si atom -5577.333423 kJ/mol
# Density = 2.034659 g / cm^3
# Si number density = 20.393003 Si / 1000 Ang^3
#
#
#
# Elastic Constant Matrix: (Units=GPa)
#
#
# Indices 1 2 3 4 5 6 
#
# 1 81.9051 40.8028 10.1354 0.0000 7.2576 0.0001
# 2 40.8028 86.4685 40.7416 0.0001 9.9147 0.0001
# 3 10.1354 40.7416 71.2267 0.0000 -5.9067 0.0004
# 4 0.0000 0.0001 0.0000 19.6459 0.0001 -7.5286
# 5 7.2576 9.9147 -5.9067 0.0001 32.0430 -0.0003
# 6 0.0001 0.0001 0.0004 -7.5286 -0.0003 35.9480
#
#
#
# Elastic Compliance Matrix: (Units=1/GPa)
#
#
# Indices 1 2 3 4 5 6 
#
# 1 0.016381 -0.008991 0.002777 0.000000 -0.000416 0.000000
# 2 -0.008991 0.022307 -0.012068 0.000000 -0.007090 0.000000
# 3 0.002777 -0.012068 0.021128 0.000000 0.007000 0.000000
# 4 0.000000 0.000000 0.000000 0.055343 0.000000 0.011590
# 5 -0.000416 -0.007090 0.007000 0.000000 0.034786 0.000000
# 6 0.000000 0.000000 0.000000 0.011590 0.000000 0.030245
#
#
# Mechanical properties :
#
#
# Convention : Reuss Voigt Hill
#
# Bulk Modulus (GPa) = 43.00588 46.99552 45.00070
# Shear Modulus (GPa) = 22.27124 27.38875 24.82999
#
# Velocity S-wave (km/s) = 3.30828 3.66874 3.49316
# Velocity P-wave (km/s) = 5.97723 6.40633 6.19550
#
# Compressibility (1/GPa) = 0.02325263
#
# Stress axis : x y z
#
# Youngs Moduli (GPa) = 61.04450 44.82981 47.33099
#
# Poissons Ratio (x) = 0.40306 -0.13145
# Poissons Ratio (y) = 0.54884 0.57119
# Poissons Ratio (z) = -0.16953 0.54100
#
# Static dielectric constant tensor:
#      x y z
#    x 1.748520 0.000000 -0.051220 
#    y 0.000000 1.744090 0.000000 
#    z -0.051220 0.000000 1.776360 
# 
# From -- ./inp_files/284604.got.cif
#   From: 2010.05.17/outbox.cif.g08.bks.cpg/sg15_143_cif.got.tgz:284604.got - 2010.06.03 18:47:42.
