data_PCOD9289127
_publ_section_title
;
Structure prediction by ZEFSAII (Michael W. Deem and Ramdas Pophale) SiO2 
 PCOD9289127
Probable space group: C 2/C
;
_chemical_formula_sum "Si O2"
_cell_formula_units_Z 32
_cell_length_a 17.031750
_cell_length_b 8.547311
_cell_length_c 7.972021
_cell_angle_alpha 90.000000
_cell_angle_beta 88.485358
_cell_angle_gamma 90.000000
_cell_volume 1160.126765
_symmetry_space_group_name_H-M "C 2/C"
_symmetry_group_IT_number 15
_symmetry_cell_setting 'monoclinic'
loop_
_space_group_symop_operation_xyz
x,y,z
-x,y,1/2-z
-x,-y,-z
x,-y,1/2+z
1/2+x,1/2+y,z
1/2-x,1/2+y,1/2-z
1/2-x,1/2-y,-z
1/2+x,1/2-y,1/2+z
loop_
_atom_site_type_symbol
_atom_site_label
_atom_site_fract_x
_atom_site_fract_y
_atom_site_fract_z
Si Si1 0.225231 0.108541 0.884421
Si Si2 0.612355 0.819454 0.228282
Si Si3 0.010807 0.312805 0.555554
Si Si4 0.884840 0.952440 0.370508
O O1 0.306431 0.085240 0.784549
O O2 0.153597 0.157037 0.768770
O O3 0.250000 0.250000 0.000000
O O4 0.185746 0.969940 0.991224
O O5 0.579339 0.849896 0.415592
O O6 0.610718 0.628746 0.202113
O O7 0.561320 0.855028 0.063521
O O8 0.034841 0.129442 0.581004
O O9 0.000000 0.369266 0.750000
#
# Coordination Sequence:
#
# PCOD9289127 Si02
#       4
#     8   8   8   8
#     4  10  22  40  60  97 134 166 214 272 325 385
#     4  10  23  39  59  97 135 162 212 275 317 390
#     4  11  22  36  65  94 132 165 212 264 338 374
#     4  11  20  39  64  94 127 169 214 268 325 387
#
# _framework density 27.583193999999999
#
# number of rings (size 3 to 8) (size 9 to 14) (size 15 to 20)
#    0.000    1.500    2.500    3.750    3.500    1.000 
#    4.500    0.000    0.000    6.000    0.000    0.000 
#    0.000    0.000    0.000    0.000    0.000    0.000 
#
# Total GULP energy -89192.932112 kJ/mol
# GULP energy per Si atom -5574.558257 kJ/mol
# Density = 2.752041 g / cm^3
# Si number density = 27.583194 Si / 1000 Ang^3
#
#
#
# Elastic Constant Matrix: (Units=GPa)
#
#
# Indices 1 2 3 4 5 6 
#
# 1 88.8761 33.4710 65.0157 0.0000 -16.5914 0.0000
# 2 33.4710 122.5906 52.8302 0.0000 -8.8969 0.0000
# 3 65.0157 52.8302 220.9246 0.0000 -26.1095 0.0000
# 4 0.0000 0.0000 0.0000 16.2987 0.0000 13.2869
# 5 -16.5914 -8.8969 -26.1095 0.0000 46.9679 0.0000
# 6 0.0000 0.0000 0.0000 13.2869 0.0000 20.2772
#
#
#
# Elastic Compliance Matrix: (Units=1/GPa)
#
#
# Indices 1 2 3 4 5 6 
#
# 1 0.015342 -0.002429 -0.003583 0.000000 0.002967 0.000000
# 2 -0.002429 0.009492 -0.001545 0.000000 0.000081 0.000000
# 3 -0.003583 -0.001545 0.006172 0.000000 0.001872 0.000000
# 4 0.000000 0.000000 0.000000 0.131711 0.000000 -0.086305
# 5 0.002967 0.000081 0.001872 0.000000 0.023396 0.000000
# 6 0.000000 0.000000 0.000000 -0.086305 0.000000 0.105869
#
#
# Mechanical properties :
#
#
# Convention : Reuss Voigt Hill
#
# Bulk Modulus (GPa) = 62.93300 81.66945 72.30122
# Shear Modulus (GPa) = 16.00540 35.44705 25.72623
#
# Velocity S-wave (km/s) = 2.41147 3.58871 3.05729
# Velocity P-wave (km/s) = 5.53343 6.84430 6.22348
#
# Compressibility (1/GPa) = 0.01588992
#
# Stress axis : x y z
#
# Youngs Moduli (GPa) = 65.18183 105.34776 162.02679
#
# Poissons Ratio (x) = 0.25591 0.58059
# Poissons Ratio (y) = 0.15834 0.25041
# Poissons Ratio (z) = 0.23357 0.16281
#
# Static dielectric constant tensor:
#      x y z
#    x 2.300830 0.000000 -0.075640 
#    y 0.000000 2.277850 0.000000 
#    z -0.075640 0.000000 2.239280 
# 
# From -- ./inp_files/45737.got.cif
#   From: 2010.05.17/outbox.cif.g08.bks.cpg/sg15_23_cif.got.tgz:45737.got - 2010.06.03 18:47:42.
