data_PCOD9289980
_publ_section_title
;
Structure prediction by ZEFSAII (Michael W. Deem and Ramdas Pophale) SiO2 
 PCOD9289980
Probable space group: C 2/C
;
_chemical_formula_sum "Si O2"
_cell_formula_units_Z 44
_cell_length_a 16.663256
_cell_length_b 10.980137
_cell_length_c 10.450045
_cell_angle_alpha 90.000000
_cell_angle_beta 99.919331
_cell_angle_gamma 90.000000
_cell_volume 1883.408899
_symmetry_space_group_name_H-M "C 2/C"
_symmetry_group_IT_number 15
_symmetry_cell_setting 'monoclinic'
loop_
_space_group_symop_operation_xyz
x,y,z
-x,y,1/2-z
-x,-y,-z
x,-y,1/2+z
1/2+x,1/2+y,z
1/2-x,1/2+y,1/2-z
1/2-x,1/2-y,-z
1/2+x,1/2-y,1/2+z
loop_
_atom_site_type_symbol
_atom_site_label
_atom_site_fract_x
_atom_site_fract_y
_atom_site_fract_z
Si Si1 0.567034 0.929890 0.607438
Si Si2 0.595543 0.723320 0.096312
Si Si3 0.313059 0.493729 0.816278
Si Si4 0.468625 0.352805 0.376172
Si Si5 0.289184 0.942152 0.457515
Si Si6 0.000000 0.609727 0.750000
O O1 0.546355 0.792866 0.634349
O O2 0.500000 0.000000 0.500000
O O3 0.649795 0.945827 0.553545
O O4 0.570940 0.010157 0.739651
O O5 0.646038 0.637227 0.204656
O O6 0.655462 0.819309 0.041770
O O7 0.523646 0.796433 0.146353
O O8 0.546164 0.635633 0.988989
O O9 0.383416 0.584858 0.883153
O O10 0.271722 0.552705 0.680394
O O11 0.254164 0.460178 0.919011
O O12 0.500000 0.401523 0.250000
#
# Coordination Sequence:
#
# PCOD9289980 Si02
#       6
#     8   8   8   8   8   4
#     4  11  23  43  72 103 139 188 251 295 351 439
#     4  11  26  46  74 100 149 190 247 291 359 440
#     4  12  29  47  71 110 152 189 238 305 377 426
#     4  12  26  44  77 105 144 190 247 293 362 433
#     4  11  28  46  74 104 150 190 239 304 371 422
#     4  10  22  40  72 100 132 184 244 292 336 418
#
# _framework density 23.361895000000001
#
# number of rings (size 3 to 8) (size 9 to 14) (size 15 to 20)
#    0.000    0.727    4.545    2.182   14.000    0.727 
#    0.000    0.000    0.000    0.000    0.000    0.000 
#    0.000    0.000    0.000    0.000    0.000    0.000 
#
# Total GULP energy -122725.414491 kJ/mol
# GULP energy per Si atom -5578.427931 kJ/mol
# Density = 2.330872 g / cm^3
# Si number density = 23.361895 Si / 1000 Ang^3
#
#
#
# Elastic Constant Matrix: (Units=GPa)
#
#
# Indices 1 2 3 4 5 6 
#
# 1 88.3935 18.4560 43.8699 0.0000 3.8590 0.0000
# 2 18.4560 54.4691 11.7837 0.0000 5.1976 0.0000
# 3 43.8699 11.7837 85.6640 0.0000 1.7140 0.0000
# 4 0.0000 0.0000 0.0000 16.2174 0.0000 7.8381
# 5 3.8590 5.1976 1.7140 0.0000 39.3982 0.0000
# 6 0.0000 0.0000 0.0000 7.8381 0.0000 24.6393
#
#
#
# Elastic Compliance Matrix: (Units=1/GPa)
#
#
# Indices 1 2 3 4 5 6 
#
# 1 0.015892 -0.003666 -0.007620 0.000000 -0.000742 0.000000
# 2 -0.003666 0.019994 -0.000828 0.000000 -0.002243 0.000000
# 3 -0.007620 -0.000828 0.015686 0.000000 0.000173 0.000000
# 4 0.000000 0.000000 0.000000 0.072865 0.000000 -0.023179
# 5 -0.000742 -0.002243 0.000173 0.000000 0.025743 0.000000
# 6 0.000000 0.000000 0.000000 -0.023179 0.000000 0.047959
#
#
# Mechanical properties :
#
#
# Convention : Reuss Voigt Hill
#
# Bulk Modulus (GPa) = 36.56893 41.86065 39.21479
# Shear Modulus (GPa) = 21.59989 26.34545 23.97267
#
# Velocity S-wave (km/s) = 3.04399 3.36178 3.20682
# Velocity P-wave (km/s) = 5.29544 5.74683 5.52574
#
# Compressibility (1/GPa) = 0.02734562
#
# Stress axis : x y z
#
# Youngs Moduli (GPa) = 62.92291 50.01428 63.75056
#
# Poissons Ratio (x) = 0.18334 0.48576
# Poissons Ratio (y) = 0.23066 0.05280
# Poissons Ratio (z) = 0.47945 0.04142
#
# Static dielectric constant tensor:
#      x y z
#    x 1.925060 0.000000 0.022460 
#    y 0.000000 1.872740 0.000000 
#    z 0.022460 0.000000 2.061090 
# 
# From -- ./inp_files/95047.got.cif
#   From: 2010.05.17/outbox.cif.g08.bks.cpg/sg15_48_cif.got.tgz:95047.got - 2010.06.03 18:47:42.
