data_PCOD9289398
_publ_section_title
;
Structure prediction by ZEFSAII (Michael W. Deem and Ramdas Pophale) SiO2 
 PCOD9289398
Probable space group: C 2/C
;
_chemical_formula_sum "Si O2"
_cell_formula_units_Z 44
_cell_length_a 28.125238
_cell_length_b 11.732065
_cell_length_c 16.250597
_cell_angle_alpha 90.000000
_cell_angle_beta 23.961668
_cell_angle_gamma 90.000000
_cell_volume 2177.710321
_symmetry_space_group_name_H-M "C 2/C"
_symmetry_group_IT_number 15
_symmetry_cell_setting 'monoclinic'
loop_
_space_group_symop_operation_xyz
x,y,z
-x,y,1/2-z
-x,-y,-z
x,-y,1/2+z
1/2+x,1/2+y,z
1/2-x,1/2+y,1/2-z
1/2-x,1/2-y,-z
1/2+x,1/2-y,1/2+z
loop_
_atom_site_type_symbol
_atom_site_label
_atom_site_fract_x
_atom_site_fract_y
_atom_site_fract_z
Si Si1 0.227528 0.658292 0.413514
Si Si2 0.278357 0.695446 0.147734
Si Si3 0.371263 0.039930 0.227875
Si Si4 0.627077 0.909708 0.585823
Si Si5 0.847356 0.879526 0.886238
Si Si6 0.000000 0.041545 0.750000
O O1 0.264201 0.704278 0.267316
O O2 0.163480 0.537837 0.505374
O O3 0.147575 0.754205 0.582848
O O4 0.333002 0.634819 0.311123
O O5 0.174916 0.624897 0.268667
O O6 0.288411 0.817294 0.088435
O O7 0.394759 0.621731 0.945608
O O8 0.373162 0.097890 0.314948
O O9 0.275233 0.938324 0.389537
O O10 0.500000 0.000000 0.000000
O O11 0.500000 0.886562 0.750000
O O12 0.949525 0.960370 0.757793
#
# Coordination Sequence:
#
# PCOD9289398 Si02
#       6
#     8   8   8   8   8   4
#     4  10  23  41  62  89 127 165 210 254 308 375
#     4  11  23  40  64  93 128 162 207 262 313 369
#     4  10  22  41  67  92 126 166 207 256 317 375
#     4  11  23  40  62  95 130 164 211 256 311 378
#     4   9  22  43  63  90 126 161 212 257 306 376
#     4  10  22  40  64  92 126 164 200 262 314 370
#
# _framework density 20.204708
#
# number of rings (size 3 to 8) (size 9 to 14) (size 15 to 20)
#    0.000    1.818    0.909    1.636    8.909    0.727 
#    3.273    0.000    0.000    0.000    0.000    0.000 
#    0.000    0.000    0.000    0.000    0.000    0.000 
#
# Total GULP energy -122954.120217 kJ/mol
# GULP energy per Si atom -5588.823646 kJ/mol
# Density = 2.015872 g / cm^3
# Si number density = 20.204708 Si / 1000 Ang^3
#
#
#
# Elastic Constant Matrix: (Units=GPa)
#
#
# Indices 1 2 3 4 5 6 
#
# 1 118.6006 38.9810 34.0466 0.0000 20.5108 0.0000
# 2 38.9810 112.4562 20.6692 0.0000 -2.9671 0.0000
# 3 34.0466 20.6692 55.5177 0.0000 -7.2813 0.0000
# 4 0.0000 0.0000 0.0000 3.4569 0.0000 14.8746
# 5 20.5108 -2.9671 -7.2813 0.0000 34.3626 0.0000
# 6 0.0000 0.0000 0.0000 14.8746 0.0000 20.6714
#
#
#
# Elastic Compliance Matrix: (Units=1/GPa)
#
#
# Indices 1 2 3 4 5 6 
#
# 1 0.013822 -0.003496 -0.008534 0.000000 -0.010361 0.000000
# 2 -0.003496 0.010430 -0.001386 0.000000 0.002694 0.000000
# 3 -0.008534 -0.001386 0.025112 0.000000 0.010295 0.000000
# 4 0.000000 0.000000 0.000000 -0.137996 0.000000 0.099299
# 5 -0.010361 0.002694 0.010295 0.000000 0.037700 0.000000
# 6 0.000000 0.000000 0.000000 0.099299 0.000000 -0.023077
#
#
# Mechanical properties :
#
#
# Convention : Reuss Voigt Hill
#
# Bulk Modulus (GPa) = 44.37991 52.66314 48.52153
# Shear Modulus (GPa) = -126.04983 24.55667 -50.74658
#
# Velocity S-wave (km/s) = -7.90707 3.49003 -5.01704
# Velocity P-wave (km/s) = 7.83260 6.50859 3.08122
#
# Compressibility (1/GPa) = 0.02253272
#
# Stress axis : x y z
#
# Youngs Moduli (GPa) = 72.34668 95.87730 39.82177
#
# Poissons Ratio (x) = 0.33520 0.33983
# Poissons Ratio (y) = 0.25293 0.05518
# Poissons Ratio (z) = 0.61740 0.13286
#
# Static dielectric constant tensor:
#      x y z
#    x 1.705370 0.000000 -0.009130 
#    y 0.000000 1.708090 0.000000 
#    z -0.009130 0.000000 1.700380 
# 
# From -- ./inp_files/151717.got.cif
#   From: 2010.05.17/outbox.cif.g08.bks.cpg/sg15_76_cif.got.tgz:151717.got - 2010.06.03 18:47:42.
