data_PCOD9289035
_publ_section_title
;
Structure prediction by ZEFSAII (Michael W. Deem and Ramdas Pophale) SiO2 
 PCOD9289035
Probable space group: C 2/C
;
_chemical_formula_sum "Si O2"
_cell_formula_units_Z 40
_cell_length_a 18.870962
_cell_length_b 17.209921
_cell_length_c 6.580191
_cell_angle_alpha 90.000000
_cell_angle_beta 49.854195
_cell_angle_gamma 90.000000
_cell_volume 1633.562011
_symmetry_space_group_name_H-M "C 2/C"
_symmetry_group_IT_number 15
_symmetry_cell_setting 'monoclinic'
loop_
_space_group_symop_operation_xyz
x,y,z
-x,y,1/2-z
-x,-y,-z
x,-y,1/2+z
1/2+x,1/2+y,z
1/2-x,1/2+y,1/2-z
1/2-x,1/2-y,-z
1/2+x,1/2-y,1/2+z
loop_
_atom_site_type_symbol
_atom_site_label
_atom_site_fract_x
_atom_site_fract_y
_atom_site_fract_z
Si Si1 0.756164 0.407799 0.321414
Si Si2 0.882380 0.190578 0.203298
Si Si3 0.907524 0.361131 0.303084
Si Si4 0.257473 0.335599 0.575931
Si Si5 0.567551 0.469956 0.761297
O O1 0.711463 0.326858 0.493698
O O2 0.858204 0.415470 0.225616
O O3 0.680367 0.469454 0.535213
O O4 0.751109 0.394017 0.093949
O O5 0.920000 0.276262 0.172828
O O6 0.852370 0.166804 0.030945
O O7 0.947895 0.122691 0.162938
O O8 0.828137 0.352119 0.618946
O O9 0.000000 0.384873 0.250000
O O10 0.250000 0.250000 0.500000
O O11 0.551391 0.508028 0.031754
#
# Coordination Sequence:
#
# PCOD9289035 Si02
#       5
#     8   8   8   8   8
#     4   9  20  36  54  82 120 161 202 254 312 378
#     4   9  19  34  54  81 124 160 202 251 304 375
#     4  11  20  33  55  87 126 161 205 252 311 389
#     4  11  16  33  56  79 122 169 198 245 315 377
#     4  10  22  40  58  83 122 159 210 260 311 371
#
# _framework density 24.486367999999999
#
# number of rings (size 3 to 8) (size 9 to 14) (size 15 to 20)
#    1.200    0.800    4.000    1.800    0.000    2.400 
#    0.000    2.000    0.000    0.000    0.000    1.400 
#    0.000    0.000    0.000    0.000    0.000    0.000 
#
# Total GULP energy -111484.620815 kJ/mol
# GULP energy per Si atom -5574.231041 kJ/mol
# Density = 2.443064 g / cm^3
# Si number density = 24.486368 Si / 1000 Ang^3
#
#
#
# Elastic Constant Matrix: (Units=GPa)
#
#
# Indices 1 2 3 4 5 6 
#
# 1 247.4058 83.6975 62.3567 0.0000 31.5737 0.0000
# 2 83.6975 59.7486 40.4657 0.0000 9.1154 0.0000
# 3 62.3567 40.4657 122.0058 0.0000 30.3426 0.0000
# 4 0.0000 0.0000 0.0000 29.4510 0.0000 0.6640
# 5 31.5737 9.1154 30.3426 0.0000 39.2558 0.0000
# 6 0.0000 0.0000 0.0000 0.6640 0.0000 39.1398
#
#
#
# Elastic Compliance Matrix: (Units=1/GPa)
#
#
# Indices 1 2 3 4 5 6 
#
# 1 0.008312 -0.011399 0.000665 0.000000 -0.004552 0.000000
# 2 -0.011399 0.037231 -0.008236 0.000000 0.006889 0.000000
# 3 0.000665 -0.008236 0.012684 0.000000 -0.008426 0.000000
# 4 0.000000 0.000000 0.000000 0.033968 0.000000 -0.000576
# 5 -0.004552 0.006889 -0.008426 0.000000 0.034048 0.000000
# 6 0.000000 0.000000 0.000000 -0.000576 0.000000 0.025559
#
#
# Mechanical properties :
#
#
# Convention : Reuss Voigt Hill
#
# Bulk Modulus (GPa) = 49.29314 89.13334 69.21324
# Shear Modulus (GPa) = 25.44478 37.74536 31.59507
#
# Velocity S-wave (km/s) = 3.22707 3.93043 3.59599
# Velocity P-wave (km/s) = 5.83608 7.55500 6.75047
#
# Compressibility (1/GPa) = 0.02028680
#
# Stress axis : x y z
#
# Youngs Moduli (GPa) = 120.31486 26.85906 78.84109
#
# Poissons Ratio (x) = 0.30616 -0.05240
# Poissons Ratio (y) = 1.37144 0.64933
# Poissons Ratio (z) = -0.07997 0.22121
#
# Static dielectric constant tensor:
#      x y z
#    x 2.039400 0.000000 0.092820 
#    y 0.000000 1.936700 0.000000 
#    z 0.092820 0.000000 2.022610 
# 
# From -- ./inp_files/10576.got.cif
#   From: 2010.05.17/outbox.cif.g08.bks.cpg/sg15_6_cif.got.tgz:10576.got - 2010.06.03 18:47:42.
