data_PCOD9289329
_publ_section_title
;
Structure prediction by ZEFSAII (Michael W. Deem and Ramdas Pophale) SiO2 
 PCOD9289329
Probable space group: C 2/C
;
_chemical_formula_sum "Si O2"
_cell_formula_units_Z 44
_cell_length_a 21.582955
_cell_length_b 11.365908
_cell_length_c 8.351872
_cell_angle_alpha 90.000000
_cell_angle_beta 105.638228
_cell_angle_gamma 90.000000
_cell_volume 1972.956270
_symmetry_space_group_name_H-M "C 2/C"
_symmetry_group_IT_number 15
_symmetry_cell_setting 'monoclinic'
loop_
_space_group_symop_operation_xyz
x,y,z
-x,y,1/2-z
-x,-y,-z
x,-y,1/2+z
1/2+x,1/2+y,z
1/2-x,1/2+y,1/2-z
1/2-x,1/2-y,-z
1/2+x,1/2-y,1/2+z
loop_
_atom_site_type_symbol
_atom_site_label
_atom_site_fract_x
_atom_site_fract_y
_atom_site_fract_z
Si Si1 0.337520 0.635267 0.838405
Si Si2 0.637821 0.379351 0.783594
Si Si3 0.368509 0.992316 0.657423
Si Si4 0.000000 0.771722 0.750000
Si Si5 0.932680 0.345008 0.939700
Si Si6 0.697137 0.836865 0.140018
O O1 0.356893 0.507606 0.788027
O O2 0.394782 0.728782 0.858282
O O3 0.273472 0.674373 0.702310
O O4 0.324589 0.628254 0.020964
O O5 0.564373 0.347440 0.777631
O O6 0.664539 0.282377 0.679414
O O7 0.429637 0.935628 0.791725
O O8 0.330540 0.888265 0.543335
O O9 0.391115 0.089193 0.546894
O O10 0.323106 0.060543 0.748784
O O11 0.994720 0.695022 0.582913
#
# Coordination Sequence:
#
# PCOD9289329 Si02
#       6
#     8   8   8   4   8   8
#     4  11  24  40  66  96 132 170 219 265 329 384
#     4  11  25  42  66  96 129 180 215 265 322 382
#     4  10  22  40  63  95 130 165 214 263 336 384
#     4  10  22  48  66  90 134 168 230 262 314 386
#     4  10  23  41  63  94 126 175 213 270 321 379
#     4  11  22  41  63  97 132 166 212 273 328 387
#
# _framework density 22.301558
#
# number of rings (size 3 to 8) (size 9 to 14) (size 15 to 20)
#    0.000    1.455    3.636    1.636    7.636    4.364 
#    0.000    0.000    0.000    0.000    0.000    0.000 
#    0.000    0.000    0.000    0.000    0.000    0.000 
#
# Total GULP energy -123037.076824 kJ/mol
# GULP energy per Si atom -5592.594401 kJ/mol
# Density = 2.225080 g / cm^3
# Si number density = 22.301558 Si / 1000 Ang^3
#
#
#
# Elastic Constant Matrix: (Units=GPa)
#
#
# Indices 1 2 3 4 5 6 
#
# 1 49.8220 31.5126 12.0121 0.0000 28.8254 0.0000
# 2 31.5126 128.2541 27.6652 0.0000 -8.1337 0.0000
# 3 12.0121 27.6652 73.4397 0.0000 14.1100 0.0000
# 4 0.0000 0.0000 0.0000 45.6751 0.0000 -4.0300
# 5 28.8254 -8.1337 14.1100 0.0000 2.2566 0.0000
# 6 0.0000 0.0000 0.0000 -4.0300 0.0000 25.2897
#
#
#
# Elastic Compliance Matrix: (Units=1/GPa)
#
#
# Indices 1 2 3 4 5 6 
#
# 1 0.002075 0.003048 -0.007418 0.000000 0.030865 0.000000
# 2 0.003048 0.006416 -0.000604 0.000000 -0.012030 0.000000
# 3 -0.007418 -0.000604 0.013552 0.000000 0.007833 0.000000
# 4 0.000000 0.000000 0.000000 0.022206 0.000000 0.003539
# 5 0.030865 -0.012030 0.007833 0.000000 -0.043461 0.000000
# 6 0.000000 0.000000 0.000000 0.003539 0.000000 0.040106
#
#
# Mechanical properties :
#
#
# Convention : Reuss Voigt Hill
#
# Bulk Modulus (GPa) = 82.68067 43.76620 63.22344
# Shear Modulus (GPa) = 91.12028 26.66603 58.89316
#
# Velocity S-wave (km/s) = 6.39898 3.46164 5.14441
# Velocity P-wave (km/s) = 9.57864 5.97031 7.98107
#
# Compressibility (1/GPa) = 0.01209473
#
# Stress axis : x y z
#
# Youngs Moduli (GPa) = 482.03900 155.87068 73.78787
#
# Poissons Ratio (x) = -0.47505 0.54733
# Poissons Ratio (y) = -1.46911 0.04457
# Poissons Ratio (z) = 3.57555 0.09415
#
# Static dielectric constant tensor:
#      x y z
#    x 1.802050 0.000000 -0.006500 
#    y 0.000000 1.793260 0.000000 
#    z -0.006500 0.000000 1.872870 
# 
# From -- ./inp_files/54360.got.cif
#   From: 2010.05.17/outbox.cif.g08.bks.cpg/sg15_28_cif.got.tgz:54360.got - 2010.06.03 18:47:42.
