data_PCOD9289631
_publ_section_title
;
Structure prediction by ZEFSAII (Michael W. Deem and Ramdas Pophale) SiO2 
 PCOD9289631
Probable space group: C 2/C
;
_chemical_formula_sum "Si O2"
_cell_formula_units_Z 32
_cell_length_a 14.420006
_cell_length_b 5.031962
_cell_length_c 18.226954
_cell_angle_alpha 90.000000
_cell_angle_beta 65.625290
_cell_angle_gamma 90.000000
_cell_volume 1204.679005
_symmetry_space_group_name_H-M "C 2/C"
_symmetry_group_IT_number 15
_symmetry_cell_setting 'monoclinic'
loop_
_space_group_symop_operation_xyz
x,y,z
-x,y,1/2-z
-x,-y,-z
x,-y,1/2+z
1/2+x,1/2+y,z
1/2-x,1/2+y,1/2-z
1/2-x,1/2-y,-z
1/2+x,1/2-y,1/2+z
loop_
_atom_site_type_symbol
_atom_site_label
_atom_site_fract_x
_atom_site_fract_y
_atom_site_fract_z
Si Si1 0.355019 0.200770 0.351112
Si Si2 0.933187 0.142315 0.665733
Si Si3 0.473093 0.249293 0.957988
Si Si4 0.723407 0.804461 0.909907
O O1 0.454813 0.220652 0.369540
O O2 0.389123 0.310876 0.260738
O O3 0.264898 0.398671 0.403304
O O4 0.311873 0.905950 0.364463
O O5 0.962096 0.836241 0.634685
O O6 0.851053 0.262175 0.636530
O O7 0.350644 0.255220 0.996979
O O8 0.500000 0.500000 0.000000
O O9 0.500000 0.000000 0.000000
#
# Coordination Sequence:
#
# PCOD9289631 Si02
#       4
#     8   8   8   8
#     4  11  25  40  66  96 125 173 217 266 329 386
#     4  10  24  43  64  94 133 166 217 273 323 386
#     4  10  22  40  66  94 128 174 214 265 328 382
#     4  11  23  42  64  93 129 169 217 266 324 387
#
# _framework density 26.563092999999999
#
# number of rings (size 3 to 8) (size 9 to 14) (size 15 to 20)
#    0.000    1.500    0.000    4.500    0.000   16.000 
#    0.000    0.000    0.000    0.000    0.000    0.000 
#    0.000    0.000    0.000    0.000    0.000    0.000 
#
# Total GULP energy -89615.032849 kJ/mol
# GULP energy per Si atom -5600.939553 kJ/mol
# Density = 2.650263 g / cm^3
# Si number density = 26.563093 Si / 1000 Ang^3
#
#
#
# Elastic Constant Matrix: (Units=GPa)
#
#
# Indices 1 2 3 4 5 6 
#
# 1 167.9633 31.9167 19.1592 0.0007 5.4130 0.0021
# 2 31.9167 114.1154 3.3202 0.0026 2.8026 0.0041
# 3 19.1592 3.3202 128.9259 0.0002 16.1529 0.0004
# 4 0.0007 0.0026 0.0002 50.2744 -0.0003 -9.4726
# 5 5.4130 2.8026 16.1529 -0.0003 48.0115 -0.0004
# 6 0.0021 0.0041 0.0004 -9.4726 -0.0004 50.4498
#
#
#
# Elastic Compliance Matrix: (Units=1/GPa)
#
#
# Indices 1 2 3 4 5 6 
#
# 1 0.006396 -0.001756 -0.000864 0.000000 -0.000328 0.000000
# 2 -0.001756 0.009261 0.000068 -0.000001 -0.000366 -0.000001
# 3 -0.000864 0.000068 0.008218 0.000000 -0.002671 0.000000
# 4 0.000000 -0.000001 0.000000 0.020620 0.000000 0.003872
# 5 -0.000328 -0.000366 -0.002671 0.000000 0.021785 0.000000
# 6 0.000000 -0.000001 0.000000 0.003872 0.000000 0.020549
#
#
# Mechanical properties :
#
#
# Convention : Reuss Voigt Hill
#
# Bulk Modulus (GPa) = 53.27174 57.75520 55.51347
# Shear Modulus (GPa) = 50.92137 53.52105 52.22121
#
# Velocity S-wave (km/s) = 4.38310 4.49359 4.43869
# Velocity P-wave (km/s) = 6.76120 6.97947 6.87120
#
# Compressibility (1/GPa) = 0.01877168
#
# Stress axis : x y z
#
# Youngs Moduli (GPa) = 156.33604 107.97811 121.68773
#
# Poissons Ratio (x) = 0.18959 0.10517
# Poissons Ratio (y) = 0.27450 -0.00830
# Poissons Ratio (z) = 0.13511 -0.00737
#
# Static dielectric constant tensor:
#      x y z
#    x 2.157820 0.000000 0.007920 
#    y 0.000000 2.220480 0.000000 
#    z 0.007920 0.000000 2.201650 
# 
# From -- ./inp_files/275445.got.cif
#   From: 2010.05.17/outbox.cif.g08.bks.cpg/sg15_138_cif.got.tgz:275445.got - 2010.06.03 18:47:42.
