data_PCOD9289388
_publ_section_title
;
Structure prediction by ZEFSAII (Michael W. Deem and Ramdas Pophale) SiO2 
 PCOD9289388
Probable space group: C 2/C
;
_chemical_formula_sum "Si O2"
_cell_formula_units_Z 64
_cell_length_a 15.590143
_cell_length_b 9.386255
_cell_length_c 22.949253
_cell_angle_alpha 90.000000
_cell_angle_beta 85.752143
_cell_angle_gamma 90.000000
_cell_volume 3349.009146
_symmetry_space_group_name_H-M "C 2/C"
_symmetry_group_IT_number 15
_symmetry_cell_setting 'monoclinic'
loop_
_space_group_symop_operation_xyz
x,y,z
-x,y,1/2-z
-x,-y,-z
x,-y,1/2+z
1/2+x,1/2+y,z
1/2-x,1/2+y,1/2-z
1/2-x,1/2-y,-z
1/2+x,1/2-y,1/2+z
loop_
_atom_site_type_symbol
_atom_site_label
_atom_site_fract_x
_atom_site_fract_y
_atom_site_fract_z
Si Si1 0.460488 0.780871 0.810563
Si Si2 0.052846 0.978139 0.438654
Si Si3 0.308069 0.021777 0.299202
Si Si4 0.725519 0.948993 0.448569
Si Si5 0.717469 0.696721 0.204037
Si Si6 0.733708 0.378553 0.924287
Si Si7 0.383126 0.179988 0.111575
Si Si8 0.391512 0.498107 0.370578
O O1 0.500000 0.713099 0.750000
O O2 0.401802 0.909657 0.792368
O O3 0.534398 0.836667 0.850320
O O4 0.400686 0.662085 0.844387
O O5 0.088802 0.817772 0.427428
O O6 0.135732 0.074896 0.434425
O O7 0.000000 0.000000 0.500000
O O8 0.986545 0.020834 0.390972
O O9 0.247432 0.110214 0.258918
O O10 0.275119 0.046128 0.366587
O O11 0.308704 0.857605 0.281623
O O12 0.729812 0.791808 0.420734
O O13 0.719680 0.926295 0.518187
O O14 0.650343 0.048334 0.426131
O O15 0.819309 0.009480 0.425051
O O16 0.800752 0.708426 0.157187
O O17 0.642973 0.607688 0.175631
#
# Coordination Sequence:
#
# PCOD9289388 Si02
#       8
#     8   8   8   8   8   8   8   8
#     4  11  22  40  64  90 127 166 205 259 318 377
#     4  11  22  40  64  96 129 165 209 262 315 377
#     4  12  24  41  64  95 126 168 214 258 319 378
#     4  10  22  41  64  94 126 167 208 259 318 379
#     4  11  24  40  65  94 124 168 212 263 316 380
#     4  11  23  40  65  92 128 167 211 259 316 383
#     4  10  23  40  65  93 125 168 211 259 323 376
#     4  10  22  40  64  91 126 164 208 259 317 374
#
# _framework density 19.110129000000001
#
# number of rings (size 3 to 8) (size 9 to 14) (size 15 to 20)
#    0.000    1.250    5.000    0.750    1.750    2.500 
#    0.000    1.875    0.000    0.000    0.000    0.000 
#    0.000    0.000    0.000    0.000    0.000    0.000 
#
# Total GULP energy -178587.644189 kJ/mol
# GULP energy per Si atom -5580.863881 kJ/mol
# Density = 1.906663 g / cm^3
# Si number density = 19.110129 Si / 1000 Ang^3
#
#
#
# Elastic Constant Matrix: (Units=GPa)
#
#
# Indices 1 2 3 4 5 6 
#
# 1 68.0282 42.9385 28.4982 0.0000 18.7687 0.0000
# 2 42.9385 82.6118 29.6300 0.0000 27.3161 0.0000
# 3 28.4982 29.6300 71.7533 0.0000 7.7460 0.0000
# 4 0.0000 0.0000 0.0000 24.1279 0.0000 7.0480
# 5 18.7687 27.3161 7.7460 0.0000 34.7516 0.0000
# 6 0.0000 0.0000 0.0000 7.0480 0.0000 35.7436
#
#
#
# Elastic Compliance Matrix: (Units=1/GPa)
#
#
# Indices 1 2 3 4 5 6 
#
# 1 0.023852 -0.008968 -0.005267 0.000000 -0.004659 0.000000
# 2 -0.008968 0.022159 -0.004336 0.000000 -0.011608 0.000000
# 3 -0.005267 -0.004336 0.017567 0.000000 0.002337 0.000000
# 4 0.000000 0.000000 0.000000 0.043979 0.000000 -0.008672
# 5 -0.004659 -0.011608 0.002337 0.000000 0.039896 0.000000
# 6 0.000000 0.000000 0.000000 -0.008672 0.000000 0.029687
#
#
# Mechanical properties :
#
#
# Convention : Reuss Voigt Hill
#
# Bulk Modulus (GPa) = 37.82588 47.16963 42.49775
# Shear Modulus (GPa) = 22.41218 27.01305 24.71262
#
# Velocity S-wave (km/s) = 3.42832 3.76379 3.59997
# Velocity P-wave (km/s) = 5.95884 6.60491 6.29017
#
# Compressibility (1/GPa) = 0.02643693
#
# Stress axis : x y z
#
# Youngs Moduli (GPa) = 41.92516 45.12777 56.92595
#
# Poissons Ratio (x) = 0.40469 0.29984
# Poissons Ratio (y) = 0.37597 0.24681
# Poissons Ratio (z) = 0.22083 0.19566
#
# Static dielectric constant tensor:
#      x y z
#    x 1.181030 0.000000 0.582710 
#    y 0.000000 1.653510 0.000000 
#    z 0.582710 0.000000 0.950630 
# 
# From -- ./inp_files/273167.got.cif
#   From: 2010.05.17/outbox.cif.g08.bks.cpg/sg15_137_cif.got.tgz:273167.got - 2010.06.03 18:47:42.
