data_PCOD9289526
_publ_section_title
;
Structure prediction by ZEFSAII (Michael W. Deem and Ramdas Pophale) SiO2 
 PCOD9289526
Probable space group: C 2/C
;
_chemical_formula_sum "Si O2"
_cell_formula_units_Z 56
_cell_length_a 8.233560
_cell_length_b 17.104343
_cell_length_c 21.339176
_cell_angle_alpha 90.000000
_cell_angle_beta 62.774062
_cell_angle_gamma 90.000000
_cell_volume 2672.241589
_symmetry_space_group_name_H-M "C 2/C"
_symmetry_group_IT_number 15
_symmetry_cell_setting 'monoclinic'
loop_
_space_group_symop_operation_xyz
x,y,z
-x,y,1/2-z
-x,-y,-z
x,-y,1/2+z
1/2+x,1/2+y,z
1/2-x,1/2+y,1/2-z
1/2-x,1/2-y,-z
1/2+x,1/2-y,1/2+z
loop_
_atom_site_type_symbol
_atom_site_label
_atom_site_fract_x
_atom_site_fract_y
_atom_site_fract_z
Si Si1 0.431810 0.706152 0.447646
Si Si2 0.873880 0.515787 0.584185
Si Si3 0.523659 0.168860 0.176228
Si Si4 0.278803 0.023579 0.410269
Si Si5 0.152516 0.868512 0.668540
Si Si6 0.716927 0.313028 0.101468
Si Si7 0.503983 0.594855 0.543106
O O1 0.250000 0.750000 0.500000
O O2 0.423610 0.684460 0.375325
O O3 0.599374 0.762256 0.437658
O O4 0.432537 0.628763 0.490124
O O5 0.725298 0.448436 0.623489
O O6 0.780879 0.599907 0.605731
O O7 0.000000 0.500000 0.500000
O O8 0.023747 0.511789 0.613004
O O9 0.500000 0.138366 0.250000
O O10 0.678091 0.110614 0.121615
O O11 0.338230 0.164557 0.168434
O O12 0.597409 0.256945 0.166060
O O13 0.172493 0.040033 0.494027
O O14 0.148824 0.960782 0.399049
O O15 0.000000 0.878660 0.750000
O O16 0.583491 0.331943 0.066755
#
# Coordination Sequence:
#
# PCOD9289526 Si02
#       7
#     8   8   8   8   8   8   8
#     4  12  24  39  65 101 137 174 227 285 350 412
#     4  11  22  42  66  99 134 173 227 283 337 415
#     4  11  25  46  67  94 135 179 228 274 345 424
#     4  10  22  40  65  94 132 174 215 277 335 407
#     4  11  26  45  69  96 139 187 230 283 357 427
#     4  12  24  38  67  97 136 169 225 286 340 394
#     4  11  22  37  67 100 130 169 227 278 340 396
#
# _framework density 20.956189999999999
#
# number of rings (size 3 to 8) (size 9 to 14) (size 15 to 20)
#    0.000    0.857    2.857    4.714    4.000    0.571 
#    0.000    1.429    0.000    4.286    0.000    0.000 
#    0.000    0.000    0.000    0.000    0.000    0.000 
#
# Total GULP energy -156115.271126 kJ/mol
# GULP energy per Si atom -5575.545397 kJ/mol
# Density = 2.090849 g / cm^3
# Si number density = 20.956190 Si / 1000 Ang^3
#
#
#
# Elastic Constant Matrix: (Units=GPa)
#
#
# Indices 1 2 3 4 5 6 
#
# 1 91.6332 47.9850 31.5645 0.0000 -7.2099 0.0000
# 2 47.9850 118.5175 47.5455 0.0000 -10.7562 0.0000
# 3 31.5645 47.5455 91.7836 0.0000 -15.4178 0.0000
# 4 0.0000 0.0000 0.0000 20.7665 0.0000 -6.9826
# 5 -7.2099 -10.7562 -15.4178 0.0000 30.2363 0.0000
# 6 0.0000 0.0000 0.0000 -6.9826 0.0000 56.3765
#
#
#
# Elastic Compliance Matrix: (Units=1/GPa)
#
#
# Indices 1 2 3 4 5 6 
#
# 1 0.014268 -0.004793 -0.002340 0.000000 0.000504 0.000000
# 2 -0.004793 0.012292 -0.004568 0.000000 0.000901 0.000000
# 3 -0.002340 -0.004568 0.014983 0.000000 0.005457 0.000000
# 4 0.000000 0.000000 0.000000 0.050247 0.000000 0.006223
# 5 0.000504 0.000901 0.005457 0.000000 0.036296 0.000000
# 6 0.000000 0.000000 0.000000 0.006223 0.000000 0.018509
#
#
# Mechanical properties :
#
#
# Convention : Reuss Voigt Hill
#
# Bulk Modulus (GPa) = 55.11790 61.79158 58.45474
# Shear Modulus (GPa) = 28.40210 33.13183 30.76696
#
# Velocity S-wave (km/s) = 3.68544 3.98050 3.83581
# Velocity P-wave (km/s) = 6.66848 7.11870 6.89726
#
# Compressibility (1/GPa) = 0.01814293
#
# Stress axis : x y z
#
# Youngs Moduli (GPa) = 70.08513 81.35150 66.74317
#
# Poissons Ratio (x) = 0.38989 0.15615
# Poissons Ratio (y) = 0.33589 0.30489
# Poissons Ratio (z) = 0.16396 0.37163
#
# Static dielectric constant tensor:
#      x y z
#    x 1.856320 0.000000 0.025730 
#    y 0.000000 1.785490 0.000000 
#    z 0.025730 0.000000 1.961580 
# 
# From -- ./inp_files/264569.got.cif
#   From: 2010.05.17/outbox.cif.g08.bks.cpg/sg15_133_cif.got.tgz:264569.got - 2010.06.03 18:47:42.
