data_PCOD9289318
_publ_section_title
;
Structure prediction by ZEFSAII (Michael W. Deem and Ramdas Pophale) SiO2 
 PCOD9289318
Probable space group: C 2/C
;
_chemical_formula_sum "Si O2"
_cell_formula_units_Z 48
_cell_length_a 21.579281
_cell_length_b 13.260154
_cell_length_c 23.754567
_cell_angle_alpha 90.000000
_cell_angle_beta 20.435807
_cell_angle_gamma 90.000000
_cell_volume 2373.309199
_symmetry_space_group_name_H-M "C 2/C"
_symmetry_group_IT_number 15
_symmetry_cell_setting 'monoclinic'
loop_
_space_group_symop_operation_xyz
x,y,z
-x,y,1/2-z
-x,-y,-z
x,-y,1/2+z
1/2+x,1/2+y,z
1/2-x,1/2+y,1/2-z
1/2-x,1/2-y,-z
1/2+x,1/2-y,1/2+z
loop_
_atom_site_type_symbol
_atom_site_label
_atom_site_fract_x
_atom_site_fract_y
_atom_site_fract_z
Si Si1 0.867661 0.775774 0.170490
Si Si2 0.225754 0.221220 0.402184
Si Si3 0.000000 0.385126 0.750000
Si Si4 0.801456 0.917910 0.402027
Si Si5 0.706414 0.133893 0.466294
Si Si6 0.500000 0.205996 0.750000
Si Si7 0.979473 0.388958 0.046292
O O1 0.773027 0.706963 0.297339
O O2 0.727795 0.859156 0.270279
O O3 0.938173 0.699136 0.063561
O O4 0.027588 0.821499 0.072241
O O5 0.373971 0.173751 0.314370
O O6 0.222389 0.338199 0.424638
O O7 0.156136 0.426795 0.575961
O O8 0.000000 0.883158 0.250000
O O9 0.817458 0.031054 0.366964
O O10 0.591862 0.144273 0.621355
O O11 0.576905 0.126279 0.522997
O O12 0.847513 0.224957 0.350852
O O13 0.000000 0.500000 0.000000
#
# Coordination Sequence:
#
# PCOD9289318 Si02
#       7
#     8   8   4   8   8   4   8
#     4  10  22  40  63  94 125 176 221 273 327 405
#     4  11  20  39  61  90 136 164 211 258 330 404
#     4  12  23  35  62  96 132 176 206 263 333 402
#     4  12  23  38  63 100 132 170 212 266 338 408
#     4  11  22  43  64  94 128 167 228 280 343 407
#     4  10  23  41  70  94 124 176 218 303 355 388
#     4  11  24  43  69  92 133 182 227 280 343 411
#
# _framework density 20.224924999999999
#
# number of rings (size 3 to 8) (size 9 to 14) (size 15 to 20)
#    0.000    1.000    3.333    5.000    0.000    0.000 
#    0.000    3.333    3.667    0.000    0.000    0.000 
#    0.000    0.000    0.000    0.000    0.000    0.000 
#
# Total GULP energy -133621.425568 kJ/mol
# GULP energy per Si atom -5567.559399 kJ/mol
# Density = 2.017889 g / cm^3
# Si number density = 20.224925 Si / 1000 Ang^3
#
#
#
# Elastic Constant Matrix: (Units=GPa)
#
#
# Indices 1 2 3 4 5 6 
#
# 1 120.5660 47.5771 34.6646 -0.0134 -29.2021 -0.0422
# 2 47.5771 69.1768 37.5759 -0.0456 -21.3230 -0.1675
# 3 34.6646 37.5759 111.3179 -0.0515 -24.1892 -0.1768
# 4 -0.0134 -0.0456 -0.0515 22.2420 0.0058 14.5954
# 5 -29.2021 -21.3230 -24.1892 0.0058 47.1307 0.0078
# 6 -0.0422 -0.1675 -0.1768 14.5954 0.0078 79.3458
#
#
#
# Elastic Compliance Matrix: (Units=1/GPa)
#
#
# Indices 1 2 3 4 5 6 
#
# 1 0.012133 -0.006736 -0.000600 -0.000003 0.004162 -0.000009
# 2 -0.006736 0.022839 -0.004810 0.000010 0.003691 0.000032
# 3 -0.000600 -0.004810 0.011525 0.000007 0.003367 0.000014
# 4 -0.000003 0.000010 0.000007 0.051132 0.000001 -0.009406
# 5 0.004162 0.003691 0.003367 0.000001 0.027195 0.000015
# 6 -0.000009 0.000032 0.000014 -0.009406 0.000015 0.014333
#
#
# Mechanical properties :
#
#
# Convention : Reuss Voigt Hill
#
# Bulk Modulus (GPa) = 45.03307 60.07732 52.55519
# Shear Modulus (GPa) = 29.26553 41.82658 35.54605
#
# Velocity S-wave (km/s) = 3.80808 4.55254 4.19685
# Velocity P-wave (km/s) = 6.45366 7.57649 7.03750
#
# Compressibility (1/GPa) = 0.02220590
#
# Stress axis : x y z
#
# Youngs Moduli (GPa) = 82.42106 43.78570 86.76438
#
# Poissons Ratio (x) = 0.29492 0.05207
# Poissons Ratio (y) = 0.55515 0.41731
# Poissons Ratio (z) = 0.04946 0.21060
#
# Static dielectric constant tensor:
#      x y z
#    x 1.741160 0.000000 0.005530 
#    y 0.000000 1.714620 0.000000 
#    z 0.005530 0.000000 1.866950 
# 
# From -- ./inp_files/60574.got.cif
#   From: 2010.05.17/outbox.cif.g08.bks.cpg/sg15_31_cif.got.tgz:60574.got - 2010.06.03 18:47:42.
