data_PCOD9289227
_publ_section_title
;
Structure prediction by ZEFSAII (Michael W. Deem and Ramdas Pophale) SiO2 
 PCOD9289227
Probable space group: C 2/C
;
_chemical_formula_sum "Si O2"
_cell_formula_units_Z 40
_cell_length_a 7.468441
_cell_length_b 11.717383
_cell_length_c 29.496966
_cell_angle_alpha 90.000000
_cell_angle_beta 48.040134
_cell_angle_gamma 90.000000
_cell_volume 1919.486692
_symmetry_space_group_name_H-M "C 2/C"
_symmetry_group_IT_number 15
_symmetry_cell_setting 'monoclinic'
loop_
_space_group_symop_operation_xyz
x,y,z
-x,y,1/2-z
-x,-y,-z
x,-y,1/2+z
1/2+x,1/2+y,z
1/2-x,1/2+y,1/2-z
1/2-x,1/2-y,-z
1/2+x,1/2-y,1/2+z
loop_
_atom_site_type_symbol
_atom_site_label
_atom_site_fract_x
_atom_site_fract_y
_atom_site_fract_z
Si Si1 0.365958 0.043967 0.882068
Si Si2 0.902950 0.499442 0.066874
Si Si3 0.891965 0.788139 0.846082
Si Si4 0.289233 0.534102 0.250726
Si Si5 0.068515 0.883104 0.355967
O O1 0.453675 0.176159 0.864251
O O2 0.545726 0.971976 0.819936
O O3 0.119288 0.050693 0.895373
O O4 0.392559 0.005571 0.929002
O O5 0.743190 0.611934 0.104150
O O6 0.713716 0.394997 0.105135
O O7 0.000000 0.500000 0.000000
O O8 0.698340 0.737021 0.842894
O O9 0.123169 0.845249 0.784045
O O10 0.500000 0.499844 0.250000
O O11 0.295158 0.446590 0.207901
#
# Coordination Sequence:
#
# PCOD9289227 Si02
#       5
#     8   8   8   8   8
#     4  10  22  40  62  91 127 160 204 248 314 380
#     4  11  23  44  65  88 125 164 216 266 295 356
#     4   9  23  41  61  91 129 156 206 254 303 382
#     4  11  19  37  65  91 127 158 196 254 303 383
#     4   9  22  41  59  93 125 156 206 248 312 378
#
# _framework density 20.838902999999998
#
# number of rings (size 3 to 8) (size 9 to 14) (size 15 to 20)
#    1.200    0.800    4.000    0.600    2.800    2.400 
#    7.200    4.000    0.000    0.000    0.000    0.000 
#    0.000    0.000    0.000    0.000    0.000    0.000 
#
# Total GULP energy -111411.249864 kJ/mol
# GULP energy per Si atom -5570.562493 kJ/mol
# Density = 2.079147 g / cm^3
# Si number density = 20.838903 Si / 1000 Ang^3
#
#
#
# Elastic Constant Matrix: (Units=GPa)
#
#
# Indices 1 2 3 4 5 6 
#
# 1 70.7795 -9.0133 5.6034 -0.0001 22.7385 -0.0001
# 2 -9.0133 78.2075 16.4884 0.0000 2.5283 -0.0001
# 3 5.6034 16.4884 74.6018 -0.0001 35.1319 0.0001
# 4 -0.0001 0.0000 -0.0001 10.0274 0.0001 8.6848
# 5 22.7385 2.5283 35.1319 0.0001 33.3086 -0.0001
# 6 -0.0001 -0.0001 0.0001 8.6848 -0.0001 36.3606
#
#
#
# Elastic Compliance Matrix: (Units=1/GPa)
#
#
# Indices 1 2 3 4 5 6 
#
# 1 0.021719 0.001183 0.010196 0.000001 -0.025671 0.000000
# 2 0.001183 0.013777 -0.004492 0.000000 0.002885 0.000000
# 3 0.010196 -0.004492 0.033278 0.000001 -0.041719 0.000000
# 4 0.000001 0.000000 0.000001 0.125739 -0.000002 -0.030033
# 5 -0.025671 0.002885 -0.041719 -0.000002 0.091330 0.000001
# 6 0.000000 0.000000 0.000000 -0.030033 0.000001 0.034676
#
#
# Mechanical properties :
#
#
# Convention : Reuss Voigt Hill
#
# Bulk Modulus (GPa) = 12.11417 27.74954 19.93185
# Shear Modulus (GPa) = 14.95841 29.97335 22.46588
#
# Velocity S-wave (km/s) = 2.68211 3.79665 3.28697
# Velocity P-wave (km/s) = 3.92651 5.70654 4.89806
#
# Compressibility (1/GPa) = 0.08254797
#
# Stress axis : x y z
#
# Youngs Moduli (GPa) = 46.04316 72.58635 30.04970
#
# Poissons Ratio (x) = -0.08589 -0.30639
# Poissons Ratio (y) = -0.05448 0.13499
# Poissons Ratio (z) = -0.46946 0.32607
#
# Static dielectric constant tensor:
#      x y z
#    x 1.794210 0.000000 0.012110 
#    y 0.000000 1.757640 0.000000 
#    z 0.012110 0.000000 1.727090 
# 
# From -- ./inp_files/229961.got.cif
#   From: 2010.05.17/outbox.cif.g08.bks.cpg/sg15_115_cif.got.tgz:229961.got - 2010.06.03 18:47:42.
