data_PCOD9289028
_publ_section_title
;
Structure prediction by ZEFSAII (Michael W. Deem and Ramdas Pophale) SiO2 
 PCOD9289028
Probable space group: C 2/C
;
_chemical_formula_sum "Si O2"
_cell_formula_units_Z 48
_cell_length_a 22.201609
_cell_length_b 11.219440
_cell_length_c 9.672535
_cell_angle_alpha 90.000000
_cell_angle_beta 61.942394
_cell_angle_gamma 90.000000
_cell_volume 2126.172108
_symmetry_space_group_name_H-M "C 2/C"
_symmetry_group_IT_number 15
_symmetry_cell_setting 'monoclinic'
loop_
_space_group_symop_operation_xyz
x,y,z
-x,y,1/2-z
-x,-y,-z
x,-y,1/2+z
1/2+x,1/2+y,z
1/2-x,1/2+y,1/2-z
1/2-x,1/2-y,-z
1/2+x,1/2-y,1/2+z
loop_
_atom_site_type_symbol
_atom_site_label
_atom_site_fract_x
_atom_site_fract_y
_atom_site_fract_z
Si Si1 0.856562 0.663693 0.920738
Si Si2 0.844509 0.974315 0.744439
Si Si3 0.424038 0.081241 0.382201
Si Si4 0.938672 0.805817 0.203996
Si Si5 0.444212 0.737863 0.106177
Si Si6 0.276106 0.627409 0.592920
O O1 0.876425 0.532433 0.945943
O O2 0.922815 0.725136 0.782385
O O3 0.818546 0.750071 0.069923
O O4 0.802589 0.653059 0.851559
O O5 0.895074 0.874741 0.626502
O O6 0.804670 0.919145 0.915783
O O7 0.890156 0.082352 0.752051
O O8 0.793472 0.031412 0.689085
O O9 0.500000 0.043383 0.250000
O O10 0.403737 0.182854 0.291755
O O11 0.430045 0.150771 0.520031
O O12 0.000000 0.823030 0.250000
O O13 0.978351 0.794777 0.015810
#
# Coordination Sequence:
#
# PCOD9289028 Si02
#       6
#     8   8   8   8   8   8
#     4  10  22  40  57  85 125 164 201 258 302 370
#     4  11  21  41  62  91 123 164 206 256 311 360
#     4   9  20  37  58  89 120 155 205 255 309 368
#     4   9  19  37  62  94 123 155 206 257 311 372
#     4   9  20  36  59  84 123 153 201 260 300 365
#     4  10  24  40  61  88 123 162 212 249 302 376
#
# _framework density 22.575783999999999
#
# number of rings (size 3 to 8) (size 9 to 14) (size 15 to 20)
#    0.000    2.667    0.000    2.500    2.333    5.333 
#    6.000    5.000    0.000    0.000    0.000    0.000 
#    0.000    0.000    0.000    0.000    0.000    0.000 
#
# Total GULP energy -134127.997575 kJ/mol
# GULP energy per Si atom -5588.666566 kJ/mol
# Density = 2.252440 g / cm^3
# Si number density = 22.575784 Si / 1000 Ang^3
#
#
#
# Elastic Constant Matrix: (Units=GPa)
#
#
# Indices 1 2 3 4 5 6 
#
# 1 53.1292 35.1092 15.1890 0.0000 4.2175 0.0000
# 2 35.1092 124.3013 8.2459 0.0000 -5.8275 0.0000
# 3 15.1890 8.2459 68.4575 0.0000 -7.3385 0.0000
# 4 0.0000 0.0000 0.0000 6.2962 0.0000 -14.7806
# 5 4.2175 -5.8275 -7.3385 0.0000 25.0702 0.0000
# 6 0.0000 0.0000 0.0000 -14.7806 0.0000 26.2838
#
#
#
# Elastic Compliance Matrix: (Units=1/GPa)
#
#
# Indices 1 2 3 4 5 6 
#
# 1 0.025882 -0.007295 -0.005691 0.000000 -0.007716 0.000000
# 2 -0.007295 0.010232 0.000798 0.000000 0.003839 0.000000
# 3 -0.005691 0.000798 0.016412 0.000000 0.005947 0.000000
# 4 0.000000 0.000000 0.000000 -0.496131 0.000000 -0.278997
# 5 -0.007716 0.003839 0.005947 0.000000 0.043819 0.000000
# 6 0.000000 0.000000 0.000000 -0.278997 0.000000 -0.118847
#
#
# Mechanical properties :
#
#
# Convention : Reuss Voigt Hill
#
# Bulk Modulus (GPa) = 35.52407 40.33068 37.92738
# Shear Modulus (GPa) = -10.31197 24.01962 6.85382
#
# Velocity S-wave (km/s) = -2.13954 3.26537 1.74428
# Velocity P-wave (km/s) = 3.10904 5.66747 4.57091
#
# Compressibility (1/GPa) = 0.02814993
#
# Stress axis : x y z
#
# Youngs Moduli (GPa) = 38.63695 97.72856 60.93210
#
# Poissons Ratio (x) = 0.71289 0.34676
# Poissons Ratio (y) = 0.28184 -0.04859
# Poissons Ratio (z) = 0.21988 -0.07794
#
# Static dielectric constant tensor:
#      x y z
#    x 1.847890 0.000000 0.015420 
#    y 0.000000 1.825760 0.000000 
#    z 0.015420 0.000000 1.849080 
# 
# From -- ./inp_files/110866.got.cif
#   From: 2010.05.17/outbox.cif.g08.bks.cpg/sg15_56_cif.got.tgz:110866.got - 2010.06.03 18:47:42.
