data_PCOD9289605
_publ_section_title
;
Structure prediction by ZEFSAII (Michael W. Deem and Ramdas Pophale) SiO2 
 PCOD9289605
Probable space group: C 2/C
;
_chemical_formula_sum "Si O2"
_cell_formula_units_Z 52
_cell_length_a 8.217945
_cell_length_b 11.604564
_cell_length_c 26.667888
_cell_angle_alpha 90.000000
_cell_angle_beta 105.730915
_cell_angle_gamma 90.000000
_cell_volume 2447.946902
_symmetry_space_group_name_H-M "C 2/C"
_symmetry_group_IT_number 15
_symmetry_cell_setting 'monoclinic'
loop_
_space_group_symop_operation_xyz
x,y,z
-x,y,1/2-z
-x,-y,-z
x,-y,1/2+z
1/2+x,1/2+y,z
1/2-x,1/2+y,1/2-z
1/2-x,1/2-y,-z
1/2+x,1/2-y,1/2+z
loop_
_atom_site_type_symbol
_atom_site_label
_atom_site_fract_x
_atom_site_fract_y
_atom_site_fract_z
Si Si1 0.610144 0.988189 0.712725
Si Si2 0.617343 0.175073 0.122962
Si Si3 0.291967 0.415198 0.534877
Si Si4 0.972340 0.314139 0.059366
Si Si5 0.561311 0.777629 0.326617
Si Si6 0.000000 0.924035 0.750000
Si Si7 0.328890 0.328306 0.050223
O O1 0.500000 0.937384 0.750000
O O2 0.560925 0.921848 0.657416
O O3 0.815690 0.984806 0.733464
O O4 0.545303 0.118431 0.703698
O O5 0.713172 0.115067 0.083388
O O6 0.739686 0.258168 0.166243
O O7 0.474545 0.254988 0.087753
O O8 0.141799 0.403104 0.481507
O O9 0.422181 0.311920 0.533258
O O10 0.374214 0.540831 0.540016
O O11 0.934544 0.301846 0.114178
O O12 0.167132 0.343545 0.072176
O O13 0.489339 0.658887 0.298171
O O14 0.250000 0.250000 0.000000
#
# Coordination Sequence:
#
# PCOD9289605 Si02
#       7
#     8   8   8   8   8   4   8
#     4  11  24  46  72  94 130 173 218 281 339 398
#     4  10  24  44  63  95 133 169 218 271 322 392
#     4  10  22  44  59  91 137 172 211 272 320 379
#     4  10  22  40  66  90 128 180 214 260 334 382
#     4  10  22  46  67  92 132 168 216 278 326 392
#     4  10  24  48  64  98 132 160 224 282 334 396
#     4  12  24  37  64 100 132 172 222 264 314 393
#
# _framework density 21.242291999999999
#
# number of rings (size 3 to 8) (size 9 to 14) (size 15 to 20)
#    0.000    1.538    2.308    1.385    4.308    1.846 
#    9.692    0.000    0.000    0.000    0.000    0.000 
#    0.000    0.000    0.000    0.000    0.000    0.000 
#
# Total GULP energy -144972.337393 kJ/mol
# GULP energy per Si atom -5575.859130 kJ/mol
# Density = 2.119394 g / cm^3
# Si number density = 21.242292 Si / 1000 Ang^3
#
#
#
# Elastic Constant Matrix: (Units=GPa)
#
#
# Indices 1 2 3 4 5 6 
#
# 1 66.8558 45.8857 26.3154 0.0000 20.0421 0.0000
# 2 45.8857 96.8737 29.6696 0.0000 30.8562 0.0000
# 3 26.3154 29.6696 88.6543 0.0000 9.3752 0.0000
# 4 0.0000 0.0000 0.0000 19.5631 0.0000 4.6089
# 5 20.0421 30.8562 9.3752 0.0000 46.3113 0.0000
# 6 0.0000 0.0000 0.0000 4.6089 0.0000 22.6559
#
#
#
# Elastic Compliance Matrix: (Units=1/GPa)
#
#
# Indices 1 2 3 4 5 6 
#
# 1 0.023573 -0.008933 -0.003636 0.000000 -0.003514 0.000000
# 2 -0.008933 0.017673 -0.002480 0.000000 -0.007407 0.000000
# 3 -0.003636 -0.002480 0.013129 0.000000 0.000568 0.000000
# 4 0.000000 0.000000 0.000000 0.053690 0.000000 -0.010922
# 5 -0.003514 -0.007407 0.000568 0.000000 0.027934 0.000000
# 6 0.000000 0.000000 0.000000 -0.010922 0.000000 0.046361
#
#
# Mechanical properties :
#
#
# Convention : Reuss Voigt Hill
#
# Bulk Modulus (GPa) = 41.19051 50.68058 45.93555
# Shear Modulus (GPa) = 22.67074 27.74026 25.20550
#
# Velocity S-wave (km/s) = 3.27042 3.61764 3.44840
# Velocity P-wave (km/s) = 5.80463 6.43117 6.12591
#
# Compressibility (1/GPa) = 0.02427743
#
# Stress axis : x y z
#
# Youngs Moduli (GPa) = 42.42109 56.58456 76.16806
#
# Poissons Ratio (x) = 0.50547 0.27696
# Poissons Ratio (y) = 0.37895 0.18886
# Poissons Ratio (z) = 0.15425 0.14031
#
# Static dielectric constant tensor:
#      x y z
#    x 1.806110 0.000000 0.021510 
#    y 0.000000 1.903900 0.000000 
#    z 0.021510 0.000000 1.747220 
# 
# From -- ./inp_files/287746.got.cif
#   From: 2010.05.17/outbox.cif.g08.bks.cpg/sg15_144_cif.got.tgz:287746.got - 2010.06.03 18:47:42.
