data_PCOD9289955
_publ_section_title
;
Structure prediction by ZEFSAII (Michael W. Deem and Ramdas Pophale) SiO2 
 PCOD9289955
Probable space group: C 2/C
;
_chemical_formula_sum "Si O2"
_cell_formula_units_Z 52
_cell_length_a 6.752194
_cell_length_b 26.142328
_cell_length_c 15.045837
_cell_angle_alpha 90.000000
_cell_angle_beta 70.769980
_cell_angle_gamma 90.000000
_cell_volume 2507.675449
_symmetry_space_group_name_H-M "C 2/C"
_symmetry_group_IT_number 15
_symmetry_cell_setting 'monoclinic'
loop_
_space_group_symop_operation_xyz
x,y,z
-x,y,1/2-z
-x,-y,-z
x,-y,1/2+z
1/2+x,1/2+y,z
1/2-x,1/2+y,1/2-z
1/2-x,1/2-y,-z
1/2+x,1/2-y,1/2+z
loop_
_atom_site_type_symbol
_atom_site_label
_atom_site_fract_x
_atom_site_fract_y
_atom_site_fract_z
Si Si1 0.044225 0.218328 0.012767
Si Si2 0.795703 0.103316 0.506883
Si Si3 0.896031 0.554241 0.497018
Si Si4 0.048661 0.056717 0.838656
Si Si5 0.676019 0.443502 0.843416
Si Si6 0.000000 0.633580 0.250000
Si Si7 0.891551 0.266183 0.852854
O O1 0.107496 0.159483 0.006920
O O2 0.960616 0.235650 0.929005
O O3 0.250000 0.250000 0.000000
O O4 0.859402 0.231045 0.109378
O O5 0.561160 0.096591 0.505019
O O6 0.808607 0.082745 0.606496
O O7 0.952391 0.071678 0.418953
O O8 0.677417 0.555210 0.581004
O O9 0.835775 0.556088 0.402926
O O10 0.000000 0.500000 0.500000
O O11 0.000000 0.080950 0.750000
O O12 0.146608 0.000056 0.808879
O O13 0.791605 0.400848 0.766713
O O14 0.964292 0.674045 0.336149
O O15 0.000000 0.242742 0.750000
#
# Coordination Sequence:
#
# PCOD9289955 Si02
#       7
#     8   8   8   8   8   4   8
#     4  11  24  41  70  98 128 173 229 271 330 397
#     4  11  22  42  63  89 127 170 213 257 319 386
#     4  11  21  39  63  86 127 169 203 253 317 383
#     4  11  25  40  59  93 128 166 213 259 316 390
#     4  11  22  39  64  96 124 162 206 261 325 388
#     4  10  22  40  70  98 128 162 208 274 342 374
#     4   9  22  46  64  94 138 167 213 284 334 385
#
# _framework density 20.736335
#
# number of rings (size 3 to 8) (size 9 to 14) (size 15 to 20)
#    0.462    0.923    4.615    0.923    4.308    3.077 
#    0.000    3.077    0.000    0.000    0.000    0.000 
#    0.000    0.000    0.000    0.000    0.000    0.000 
#
# Total GULP energy -145113.851398 kJ/mol
# GULP energy per Si atom -5581.301977 kJ/mol
# Density = 2.068914 g / cm^3
# Si number density = 20.736335 Si / 1000 Ang^3
#
#
#
# Elastic Constant Matrix: (Units=GPa)
#
#
# Indices 1 2 3 4 5 6 
#
# 1 109.9390 16.6116 23.8832 0.0000 0.4501 0.0000
# 2 16.6116 41.0916 -4.2356 0.0000 -6.5595 0.0000
# 3 23.8832 -4.2356 72.0582 0.0000 -7.2520 0.0000
# 4 0.0000 0.0000 0.0000 22.9748 0.0000 -8.8833
# 5 0.4501 -6.5595 -7.2520 0.0000 22.3930 0.0000
# 6 0.0000 0.0000 0.0000 -8.8833 0.0000 29.1798
#
#
#
# Elastic Compliance Matrix: (Units=1/GPa)
#
#
# Indices 1 2 3 4 5 6 
#
# 1 0.010828 -0.005313 -0.004217 0.000000 -0.003140 0.000000
# 2 -0.005313 0.028521 0.004433 0.000000 0.009897 0.000000
# 3 -0.004217 0.004433 0.016203 0.000000 0.006631 0.000000
# 4 0.000000 0.000000 0.000000 0.049333 0.000000 0.015019
# 5 -0.003140 0.009897 0.006631 0.000000 0.049766 0.000000
# 6 0.000000 0.000000 0.000000 0.015019 0.000000 0.038842
#
#
# Mechanical properties :
#
#
# Convention : Reuss Voigt Hill
#
# Bulk Modulus (GPa) = 22.04668 32.84524 27.44596
# Shear Modulus (GPa) = 22.85127 27.36483 25.10805
#
# Velocity S-wave (km/s) = 3.32323 3.63665 3.48346
# Velocity P-wave (km/s) = 5.03787 5.78856 5.42621
#
# Compressibility (1/GPa) = 0.04535831
#
# Stress axis : x y z
#
# Youngs Moduli (GPa) = 92.35557 35.06244 61.71578
#
# Poissons Ratio (x) = 0.18629 0.26026
# Poissons Ratio (y) = 0.49069 -0.27362
# Poissons Ratio (z) = 0.38947 -0.15545
#
# Static dielectric constant tensor:
#      x y z
#    x 1.732370 0.000000 -0.002480 
#    y 0.000000 2.238420 0.000000 
#    z -0.002480 0.000000 1.827970 
# 
# From -- ./inp_files/130722.got.cif
#   From: 2010.05.17/outbox.cif.g08.bks.cpg/sg15_66_cif.got.tgz:130722.got - 2010.06.03 18:47:42.
