data_PCOD9289931
_publ_section_title
;
Structure prediction by ZEFSAII (Michael W. Deem and Ramdas Pophale) SiO2 
 PCOD9289931
Probable space group: C 2/C
;
_chemical_formula_sum "Si O2"
_cell_formula_units_Z 28
_cell_length_a 12.956511
_cell_length_b 13.110485
_cell_length_c 13.943267
_cell_angle_alpha 90.000000
_cell_angle_beta 30.473379
_cell_angle_gamma 90.000000
_cell_volume 1201.150708
_symmetry_space_group_name_H-M "C 2/C"
_symmetry_group_IT_number 15
_symmetry_cell_setting 'monoclinic'
loop_
_space_group_symop_operation_xyz
x,y,z
-x,y,1/2-z
-x,-y,-z
x,-y,1/2+z
1/2+x,1/2+y,z
1/2-x,1/2+y,1/2-z
1/2-x,1/2-y,-z
1/2+x,1/2-y,1/2+z
loop_
_atom_site_type_symbol
_atom_site_label
_atom_site_fract_x
_atom_site_fract_y
_atom_site_fract_z
Si Si1 0.571587 0.141598 0.040331
Si Si2 0.373560 0.063567 0.710657
Si Si3 0.206367 0.129968 0.030817
Si Si4 0.000000 0.183899 0.750000
O O1 0.790024 0.121562 0.917698
O O2 0.633525 0.131234 0.879125
O O3 0.595629 0.916191 0.077847
O O4 0.501655 0.241958 0.154609
O O5 0.389539 0.941472 0.687817
O O6 0.205418 0.095018 0.921582
O O7 0.000000 0.106772 0.250000
O O8 0.250000 0.250000 0.000000
#
# Coordination Sequence:
#
# PCOD9289931 Si02
#       4
#     8   8   8   4
#     4  10  23  43  64  96 129 178 213 278 313 401
#     4  10  23  43  64  95 137 162 223 264 331 384
#     4  11  22  38  65  96 128 169 209 272 324 394
#     4  10  22  40  70  92 132 174 226 262 332 380
#
# _framework density 23.310979
#
# number of rings (size 3 to 8) (size 9 to 14) (size 15 to 20)
#    0.000    1.714    2.857    1.714    6.000    0.000 
#    5.143    2.857    0.000    0.000    0.000    0.000 
#    0.000    0.000    0.000    0.000    0.000    0.000 
#
# Total GULP energy -78106.976524 kJ/mol
# GULP energy per Si atom -5579.069752 kJ/mol
# Density = 2.325792 g / cm^3
# Si number density = 23.310979 Si / 1000 Ang^3
#
#
#
# Elastic Constant Matrix: (Units=GPa)
#
#
# Indices 1 2 3 4 5 6 
#
# 1 54.0582 20.1910 38.6055 0.0020 21.4931 -0.0042
# 2 20.1910 64.3043 44.2957 0.0093 13.7413 -0.0116
# 3 38.6055 44.2957 206.9260 0.0038 24.5126 -0.0075
# 4 0.0020 0.0093 0.0038 15.7803 -0.0025 -16.0439
# 5 21.4931 13.7413 24.5126 -0.0025 49.9794 0.0054
# 6 -0.0042 -0.0116 -0.0075 -16.0439 0.0054 0.3281
#
#
#
# Elastic Compliance Matrix: (Units=1/GPa)
#
#
# Indices 1 2 3 4 5 6 
#
# 1 0.025447 -0.004238 -0.002848 -0.000005 -0.008382 -0.000004
# 2 -0.004238 0.019471 -0.003142 -0.000012 -0.001990 -0.000002
# 3 -0.002848 -0.003142 0.006146 0.000000 -0.000926 -0.000001
# 4 -0.000005 -0.000012 0.000000 -0.001301 0.000012 -0.063609
# 5 -0.008382 -0.001990 -0.000926 0.000012 0.024614 0.000006
# 6 -0.000004 -0.000002 -0.000001 -0.063609 0.000006 -0.062564
#
#
# Mechanical properties :
#
#
# Convention : Reuss Voigt Hill
#
# Bulk Modulus (GPa) = 32.66827 59.05256 45.86042
# Shear Modulus (GPa) = 117.72548 28.03064 72.87806
#
# Velocity S-wave (km/s) = 7.11420 3.47142 5.59743
# Velocity P-wave (km/s) = 9.02923 6.43857 7.84162
#
# Compressibility (1/GPa) = 0.03061074
#
# Stress axis : x y z
#
# Youngs Moduli (GPa) = 39.29661 51.35821 162.70341
#
# Poissons Ratio (x) = 0.21764 0.46332
# Poissons Ratio (y) = 0.16652 0.51117
# Poissons Ratio (z) = 0.11190 0.16135
#
# Static dielectric constant tensor:
#      x y z
#    x 1.897740 0.000010 0.017490 
#    y 0.000010 2.063100 -0.000010 
#    z 0.017490 -0.000010 1.923380 
# 
# From -- ./inp_files/95468.got.cif
#   From: 2010.05.17/outbox.cif.g08.bks.cpg/sg15_48_cif.got.tgz:95468.got - 2010.06.03 18:47:42.
