data_PCOD9289099
_publ_section_title
;
Structure prediction by ZEFSAII (Michael W. Deem and Ramdas Pophale) SiO2 
 PCOD9289099
Probable space group: C 2/C
;
_chemical_formula_sum "Si O2"
_cell_formula_units_Z 28
_cell_length_a 6.347734
_cell_length_b 13.513886
_cell_length_c 13.611633
_cell_angle_alpha 90.000000
_cell_angle_beta 92.920832
_cell_angle_gamma 90.000000
_cell_volume 1166.123752
_symmetry_space_group_name_H-M "C 2/C"
_symmetry_group_IT_number 15
_symmetry_cell_setting 'monoclinic'
loop_
_space_group_symop_operation_xyz
x,y,z
-x,y,1/2-z
-x,-y,-z
x,-y,1/2+z
1/2+x,1/2+y,z
1/2-x,1/2+y,1/2-z
1/2-x,1/2-y,-z
1/2+x,1/2-y,1/2+z
loop_
_atom_site_type_symbol
_atom_site_label
_atom_site_fract_x
_atom_site_fract_y
_atom_site_fract_z
Si Si1 0.291068 0.993003 0.929323
Si Si2 0.495158 0.330446 0.469285
Si Si3 0.500000 0.976667 0.250000
Si Si4 0.106288 0.280273 0.350952
O O1 0.346987 0.965482 0.818242
O O2 0.147061 0.910621 0.975291
O O3 0.168963 0.098228 0.926128
O O4 0.500000 0.000000 0.000000
O O5 0.350440 0.269552 0.389089
O O6 0.535332 0.254661 0.560044
O O7 0.607702 0.897898 0.325952
O O8 0.000000 0.236254 0.250000
#
# Coordination Sequence:
#
# PCOD9289099 Si02
#       4
#     8   8   4   8
#     4  11  22  42  61  95 125 170 213 274 317 398
#     4  10  22  41  68  85 133 171 213 267 336 374
#     4  10  22  40  60  88 132 156 218 260 322 380
#     4   9  20  43  58  96 124 164 219 263 318 398
#
# _framework density 24.011175999999999
#
# number of rings (size 3 to 8) (size 9 to 14) (size 15 to 20)
#    0.857    1.143    2.857    0.000    0.000    4.571 
#    0.000    0.000    0.000    0.000    0.000    0.000 
#    0.000    0.000    0.000    0.000    0.000    0.000 
#
# Total GULP energy -77968.497578 kJ/mol
# GULP energy per Si atom -5569.178398 kJ/mol
# Density = 2.395653 g / cm^3
# Si number density = 24.011176 Si / 1000 Ang^3
#
#
#
# Elastic Constant Matrix: (Units=GPa)
#
#
# Indices 1 2 3 4 5 6 
#
# 1 66.6635 38.5509 50.9133 0.0000 -16.2720 0.0000
# 2 38.5509 84.1232 25.2374 0.0000 3.2133 0.0000
# 3 50.9133 25.2374 175.0844 0.0000 1.0247 0.0000
# 4 0.0000 0.0000 0.0000 40.2394 0.0000 -9.2244
# 5 -16.2720 3.2133 1.0247 0.0000 35.1334 0.0000
# 6 0.0000 0.0000 0.0000 -9.2244 0.0000 52.1152
#
#
#
# Elastic Compliance Matrix: (Units=1/GPa)
#
#
# Indices 1 2 3 4 5 6 
#
# 1 0.032524 -0.013241 -0.007646 0.000000 0.016498 0.000000
# 2 -0.013241 0.017857 0.001322 0.000000 -0.007804 0.000000
# 3 -0.007646 0.001322 0.007767 0.000000 -0.003889 0.000000
# 4 0.000000 0.000000 0.000000 0.025902 0.000000 0.004585
# 5 0.016498 -0.007804 -0.003889 0.000000 0.036931 0.000000
# 6 0.000000 0.000000 0.000000 0.004585 0.000000 0.020000
#
#
# Mechanical properties :
#
#
# Convention : Reuss Voigt Hill
#
# Bulk Modulus (GPa) = 52.58029 61.69714 57.13871
# Shear Modulus (GPa) = 26.81678 39.57555 33.19616
#
# Velocity S-wave (km/s) = 3.34555 4.06422 3.72227
# Velocity P-wave (km/s) = 6.07202 6.91194 6.50555
#
# Compressibility (1/GPa) = 0.01901853
#
# Stress axis : x y z
#
# Youngs Moduli (GPa) = 30.74622 56.00102 128.74923
#
# Poissons Ratio (x) = 0.74152 0.98438
# Poissons Ratio (y) = 0.40712 -0.17023
# Poissons Ratio (z) = 0.23508 -0.07404
#
# Static dielectric constant tensor:
#      x y z
#    x 2.036060 0.000000 -0.003120 
#    y 0.000000 2.031860 0.000000 
#    z -0.003120 0.000000 1.958600 
# 
# From -- ./inp_files/128013.got.cif
#   From: 2010.05.17/outbox.cif.g08.bks.cpg/sg15_65_cif.got.tgz:128013.got - 2010.06.03 18:47:42.
