data_PCOD9289799
_publ_section_title
;
Structure prediction by ZEFSAII (Michael W. Deem and Ramdas Pophale) SiO2 
 PCOD9289799
Probable space group: C 2/C
;
_chemical_formula_sum "Si O2"
_cell_formula_units_Z 48
_cell_length_a 12.414813
_cell_length_b 12.982063
_cell_length_c 19.409665
_cell_angle_alpha 90.000000
_cell_angle_beta 127.676891
_cell_angle_gamma 90.000000
_cell_volume 2475.919130
_symmetry_space_group_name_H-M "C 2/C"
_symmetry_group_IT_number 15
_symmetry_cell_setting 'monoclinic'
loop_
_space_group_symop_operation_xyz
x,y,z
-x,y,1/2-z
-x,-y,-z
x,-y,1/2+z
1/2+x,1/2+y,z
1/2-x,1/2+y,1/2-z
1/2-x,1/2-y,-z
1/2+x,1/2-y,1/2+z
loop_
_atom_site_type_symbol
_atom_site_label
_atom_site_fract_x
_atom_site_fract_y
_atom_site_fract_z
Si Si1 0.500000 0.343566 0.750000
Si Si2 0.091230 0.731648 0.923909
Si Si3 0.500000 0.328234 0.250000
Si Si4 0.430216 0.593426 0.432137
Si Si5 0.675255 0.180465 0.413739
Si Si6 0.006776 0.485735 0.166779
Si Si7 0.678060 0.499052 0.750959
O O1 0.535620 0.277096 0.830114
O O2 0.632560 0.415094 0.789770
O O3 0.058713 0.611414 0.899114
O O4 0.015106 0.801551 0.951800
O O5 0.250000 0.750000 0.000000
O O6 0.588402 0.258059 0.334044
O O7 0.395140 0.397502 0.252583
O O8 0.500000 0.500000 0.500000
O O9 0.293284 0.626080 0.416397
O O10 0.394540 0.543819 0.345150
O O11 0.750000 0.250000 0.500000
O O12 0.571635 0.087662 0.390300
O O13 0.000000 0.480026 0.250000
O O14 0.164210 0.490044 0.205108
#
# Coordination Sequence:
#
# PCOD9289799 Si02
#       7
#     4   8   4   8   8   8   8
#     4   9  22  43  62  94 130 171 214 275 332 396
#     4  11  24  40  66  98 132 173 226 275 337 401
#     4  11  22  43  64 100 128 179 224 275 344 404
#     4  11  22  41  64  97 133 179 224 279 340 403
#     4  12  25  43  65  97 135 178 231 276 343 410
#     4  12  23  43  66  95 131 176 223 276 333 405
#     4  10  22  40  68  90 130 172 220 274 335 403
#
# _framework density 19.38674
#
# number of rings (size 3 to 8) (size 9 to 14) (size 15 to 20)
#    0.000    1.000    3.333    3.000    0.000    5.333 
#    0.000    2.500    0.000    0.000    0.000    0.000 
#    0.000    0.000    0.000    0.000    0.000    0.000 
#
# Total GULP energy -133900.690273 kJ/mol
# GULP energy per Si atom -5579.195428 kJ/mol
# Density = 1.934262 g / cm^3
# Si number density = 19.386740 Si / 1000 Ang^3
#
#
#
# Elastic Constant Matrix: (Units=GPa)
#
#
# Indices 1 2 3 4 5 6 
#
# 1 126.9603 61.3796 28.8189 0.0000 30.9106 0.0000
# 2 61.3796 167.8630 66.0990 0.0000 12.1650 0.0000
# 3 28.8189 66.0990 93.5064 0.0000 18.3263 0.0000
# 4 0.0000 0.0000 0.0000 34.0952 0.0000 -2.1251
# 5 30.9106 12.1650 18.3263 0.0000 34.1292 0.0000
# 6 0.0000 0.0000 0.0000 -2.1251 0.0000 24.0506
#
#
#
# Elastic Compliance Matrix: (Units=1/GPa)
#
#
# Indices 1 2 3 4 5 6 
#
# 1 0.012070 -0.004152 0.001193 0.000000 -0.010092 0.000000
# 2 -0.004152 0.009685 -0.006289 0.000000 0.003685 0.000000
# 3 0.001193 -0.006289 0.016255 0.000000 -0.007567 0.000000
# 4 0.000000 0.000000 0.000000 0.029492 0.000000 0.002606
# 5 -0.010092 0.003685 -0.007567 0.000000 0.041191 0.000000
# 6 0.000000 0.000000 0.000000 0.002606 0.000000 0.041809
#
#
# Mechanical properties :
#
#
# Convention : Reuss Voigt Hill
#
# Bulk Modulus (GPa) = 51.24279 77.88053 64.56166
# Shear Modulus (GPa) = 28.48965 33.92381 31.20673
#
# Velocity S-wave (km/s) = 3.83762 4.18765 4.01645
# Velocity P-wave (km/s) = 6.79159 7.97754 7.40834
#
# Compressibility (1/GPa) = 0.01951494
#
# Stress axis : x y z
#
# Youngs Moduli (GPa) = 82.84944 103.25738 61.51832
#
# Poissons Ratio (x) = 0.42870 -0.07338
# Poissons Ratio (y) = 0.34397 0.38686
# Poissons Ratio (z) = -0.09883 0.64934
#
# Static dielectric constant tensor:
#      x y z
#    x 1.682600 0.000000 -0.026810 
#    y 0.000000 1.721060 0.000000 
#    z -0.026810 0.000000 1.645830 
# 
# From -- ./inp_files/196176.got.cif
#   From: 2010.05.17/outbox.cif.g08.bks.cpg/sg15_99_cif.got.tgz:196176.got - 2010.06.03 18:47:42.
