data_PCOD9289762
_publ_section_title
;
Structure prediction by ZEFSAII (Michael W. Deem and Ramdas Pophale) SiO2 
 PCOD9289762
Probable space group: C 2/C
;
_chemical_formula_sum "Si O2"
_cell_formula_units_Z 36
_cell_length_a 6.280078
_cell_length_b 21.989730
_cell_length_c 12.039506
_cell_angle_alpha 90.000000
_cell_angle_beta 80.539928
_cell_angle_gamma 90.000000
_cell_volume 1640.011272
_symmetry_space_group_name_H-M "C 2/C"
_symmetry_group_IT_number 15
_symmetry_cell_setting 'monoclinic'
loop_
_space_group_symop_operation_xyz
x,y,z
-x,y,1/2-z
-x,-y,-z
x,-y,1/2+z
1/2+x,1/2+y,z
1/2-x,1/2+y,1/2-z
1/2-x,1/2-y,-z
1/2+x,1/2-y,1/2+z
loop_
_atom_site_type_symbol
_atom_site_label
_atom_site_fract_x
_atom_site_fract_y
_atom_site_fract_z
Si Si1 0.600299 0.418900 0.076512
Si Si2 0.712907 0.834753 0.170172
Si Si3 0.990173 0.349543 0.539504
Si Si4 0.138576 0.947394 0.631301
Si Si5 0.500000 0.234019 0.250000
O O1 0.398729 0.385443 0.150363
O O2 0.680535 0.480268 0.128980
O O3 0.510972 0.436443 0.962698
O O4 0.794720 0.373114 0.038135
O O5 0.500000 0.857724 0.250000
O O6 0.803512 0.777168 0.229265
O O7 0.652154 0.820328 0.047344
O O8 0.851453 0.406710 0.597864
O O9 0.045934 0.306501 0.637753
O O10 0.000000 0.929267 0.750000
#
# Coordination Sequence:
#
# PCOD9289762 Si02
#       5
#     8   8   8   8   4
#     4  10  23  44  65 101 136 173 227 277 337 404
#     4  11  26  43  67 100 134 186 227 278 335 402
#     4  11  24  44  69  98 138 178 227 279 341 401
#     4  10  22  40  68 100 133 177 218 278 339 406
#     4  12  26  44  68 100 138 180 230 282 334 400
#
# _framework density 21.951069
#
# number of rings (size 3 to 8) (size 9 to 14) (size 15 to 20)
#    0.000    1.333    0.000    4.000    4.667    8.000 
#    0.000    0.000    0.000    0.000    0.000    0.000 
#    0.000    0.000    0.000    0.000    0.000    0.000 
#
# Total GULP energy -100709.970736 kJ/mol
# GULP energy per Si atom -5594.998374 kJ/mol
# Density = 2.190111 g / cm^3
# Si number density = 21.951069 Si / 1000 Ang^3
#
#
#
# Elastic Constant Matrix: (Units=GPa)
#
#
# Indices 1 2 3 4 5 6 
#
# 1 120.0070 68.9226 66.0026 0.0000 -18.5262 0.0000
# 2 68.9226 114.2151 67.6868 0.0000 3.4414 0.0000
# 3 66.0026 67.6868 141.1823 0.0000 -0.8511 0.0000
# 4 0.0000 0.0000 0.0000 26.0173 0.0000 -22.5214
# 5 -18.5262 3.4414 -0.8511 0.0000 50.9460 0.0000
# 6 0.0000 0.0000 0.0000 -22.5214 0.0000 -20.4402
#
#
#
# Elastic Compliance Matrix: (Units=1/GPa)
#
#
# Indices 1 2 3 4 5 6 
#
# 1 0.015536 -0.007370 -0.003693 0.000000 0.006086 0.000000
# 2 -0.007370 0.015770 -0.004138 0.000000 -0.003814 0.000000
# 3 -0.003693 -0.004138 0.010788 0.000000 -0.000883 0.000000
# 4 0.000000 0.000000 0.000000 0.019673 0.000000 -0.021676
# 5 0.006086 -0.003814 -0.000883 0.000000 0.022085 0.000000
# 6 0.000000 0.000000 0.000000 -0.021676 0.000000 -0.025040
#
#
# Mechanical properties :
#
#
# Convention : Reuss Voigt Hill
#
# Bulk Modulus (GPa) = 85.52855 86.73650 86.13253
# Shear Modulus (GPa) = 53.69904 22.82411 38.26158
#
# Velocity S-wave (km/s) = 4.95138 3.22805 4.17950
# Velocity P-wave (km/s) = 8.46972 7.31390 7.91294
#
# Compressibility (1/GPa) = 0.01169200
#
# Stress axis : x y z
#
# Youngs Moduli (GPa) = 64.36531 63.41090 92.69391
#
# Poissons Ratio (x) = 0.46734 0.34233
# Poissons Ratio (y) = 0.47438 0.38358
# Poissons Ratio (z) = 0.23771 0.26240
#
# Static dielectric constant tensor:
#      x y z
#    x 1.769610 0.000000 0.026570 
#    y 0.000000 1.807590 0.000000 
#    z 0.026570 0.000000 1.806680 
# 
# From -- ./inp_files/72448.got.cif
#   From: 2010.05.17/outbox.cif.g08.bks.cpg/sg15_37_cif.got.tgz:72448.got - 2010.06.03 18:47:42.
