data_PCOD9289316
_publ_section_title
;
Structure prediction by ZEFSAII (Michael W. Deem and Ramdas Pophale) SiO2 
 PCOD9289316
Probable space group: C 2/C
;
_chemical_formula_sum "Si O2"
_cell_formula_units_Z 56
_cell_length_a 14.083152
_cell_length_b 13.002083
_cell_length_c 16.392638
_cell_angle_alpha 90.000000
_cell_angle_beta 129.000144
_cell_angle_gamma 90.000000
_cell_volume 2332.724012
_symmetry_space_group_name_H-M "C 2/C"
_symmetry_group_IT_number 15
_symmetry_cell_setting 'monoclinic'
loop_
_space_group_symop_operation_xyz
x,y,z
-x,y,1/2-z
-x,-y,-z
x,-y,1/2+z
1/2+x,1/2+y,z
1/2-x,1/2+y,1/2-z
1/2-x,1/2-y,-z
1/2+x,1/2-y,1/2+z
loop_
_atom_site_type_symbol
_atom_site_label
_atom_site_fract_x
_atom_site_fract_y
_atom_site_fract_z
Si Si1 0.000000 0.983820 0.250000
Si Si2 0.323655 0.446888 0.879439
Si Si3 0.834694 0.555474 0.043014
Si Si4 0.704502 0.673315 0.830364
Si Si5 0.265030 0.197217 0.295424
Si Si6 0.923830 0.168074 0.971426
Si Si7 0.500000 0.153998 0.250000
Si Si8 0.183913 0.132267 0.420993
O O1 0.895420 0.916123 0.234998
O O2 0.928539 0.051255 0.146204
O O3 0.256213 0.433809 0.928975
O O4 0.246028 0.408555 0.760126
O O5 0.360732 0.565712 0.900257
O O6 0.439536 0.370522 0.943001
O O7 0.964318 0.582741 0.153615
O O8 0.792252 0.634289 0.949677
O O9 0.804403 0.439719 0.995604
O O10 0.774032 0.712682 0.788178
O O11 0.615421 0.769283 0.803622
O O12 0.397288 0.236962 0.397546
O O13 0.186255 0.186824 0.334767
O O14 0.853751 0.193097 0.018489
#
# Coordination Sequence:
#
# PCOD9289316 Si02
#       8
#     4   8   8   8   8   8   4   8
#     4   9  20  40  72  97 128 184 231 286 334 397
#     4  10  23  41  66 102 128 178 240 286 335 413
#     4  10  22  40  63  93 132 172 224 287 342 410
#     4  10  23  35  64 100 132 165 227 287 339 398
#     4  12  24  38  66 102 137 170 230 290 345 401
#     4  10  24  41  67  92 138 185 228 285 342 414
#     4  11  20  38  60  89 132 174 211 282 354 397
#     4  10  22  42  63  95 137 180 230 277 345 410
#
# _framework density 24.006267000000001
#
# number of rings (size 3 to 8) (size 9 to 14) (size 15 to 20)
#    0.000    1.714    1.429    1.714   14.000    0.000 
#    0.000    3.571    0.000    0.857    0.000    0.000 
#    0.000    0.000    0.000    0.000    0.000    0.000 
#
# Total GULP energy -156370.329558 kJ/mol
# GULP energy per Si atom -5584.654627 kJ/mol
# Density = 2.395163 g / cm^3
# Si number density = 24.006267 Si / 1000 Ang^3
#
#
#
# Elastic Constant Matrix: (Units=GPa)
#
#
# Indices 1 2 3 4 5 6 
#
# 1 77.3618 29.6562 41.2005 0.0000 -25.4141 0.0000
# 2 29.6562 68.0709 56.8307 0.0000 -4.6293 0.0000
# 3 41.2005 56.8307 127.9997 0.0000 -18.1819 0.0000
# 4 0.0000 0.0000 0.0000 51.1581 0.0000 -11.9030
# 5 -25.4141 -4.6293 -18.1819 0.0000 42.7798 0.0000
# 6 0.0000 0.0000 0.0000 -11.9030 0.0000 32.0615
#
#
#
# Elastic Compliance Matrix: (Units=1/GPa)
#
#
# Indices 1 2 3 4 5 6 
#
# 1 0.019769 -0.006059 -0.002233 0.000000 0.010140 0.000000
# 2 -0.006059 0.025362 -0.010038 0.000000 -0.005121 0.000000
# 3 -0.002233 -0.010038 0.013458 0.000000 0.003307 0.000000
# 4 0.000000 0.000000 0.000000 0.021395 0.000000 0.007943
# 5 0.010140 -0.005121 0.003307 0.000000 0.030250 0.000000
# 6 0.000000 0.000000 0.000000 0.007943 0.000000 0.034139
#
#
# Mechanical properties :
#
#
# Convention : Reuss Voigt Hill
#
# Bulk Modulus (GPa) = 45.60024 58.75636 52.17830
# Shear Modulus (GPa) = 26.54732 34.91622 30.73177
#
# Velocity S-wave (km/s) = 3.32904 3.81788 3.58181
# Velocity P-wave (km/s) = 5.81490 6.63050 6.23605
#
# Compressibility (1/GPa) = 0.02192971
#
# Stress axis : x y z
#
# Youngs Moduli (GPa) = 50.58419 39.42859 74.30718
#
# Poissons Ratio (x) = 0.23890 0.16591
# Poissons Ratio (y) = 0.30649 0.74588
# Poissons Ratio (z) = 0.11294 0.39578
#
# Static dielectric constant tensor:
#      x y z
#    x 1.964720 0.000000 0.003820 
#    y 0.000000 1.978400 0.000000 
#    z 0.003820 0.000000 1.951220 
# 
# From -- ./inp_files/205518.got.cif
#   From: 2010.05.17/outbox.cif.g08.bks.cpg/sg15_103_cif.got.tgz:205518.got - 2010.06.03 18:47:42.
