data_PCOD9289857
_publ_section_title
;
Structure prediction by ZEFSAII (Michael W. Deem and Ramdas Pophale) SiO2 
 PCOD9289857
Probable space group: C 2/C
;
_chemical_formula_sum "Si O2"
_cell_formula_units_Z 52
_cell_length_a 14.727329
_cell_length_b 18.333250
_cell_length_c 26.034139
_cell_angle_alpha 90.000000
_cell_angle_beta 21.212394
_cell_angle_gamma 90.000000
_cell_volume 2543.353494
_symmetry_space_group_name_H-M "C 2/C"
_symmetry_group_IT_number 15
_symmetry_cell_setting 'monoclinic'
loop_
_space_group_symop_operation_xyz
x,y,z
-x,y,1/2-z
-x,-y,-z
x,-y,1/2+z
1/2+x,1/2+y,z
1/2-x,1/2+y,1/2-z
1/2-x,1/2-y,-z
1/2+x,1/2-y,1/2+z
loop_
_atom_site_type_symbol
_atom_site_label
_atom_site_fract_x
_atom_site_fract_y
_atom_site_fract_z
Si Si1 0.000000 0.073711 0.250000
Si Si2 0.243791 0.041504 0.559379
Si Si3 0.500000 0.895903 0.750000
Si Si4 0.007683 0.795724 0.025763
Si Si5 0.000000 0.635328 0.750000
Si Si6 0.460399 0.862414 0.033618
Si Si7 0.881547 0.870865 0.188545
Si Si8 0.425523 0.980987 0.205255
O O1 0.754622 0.122237 0.378758
O O2 0.963087 0.019404 0.317633
O O3 0.348811 0.072949 0.557217
O O4 0.437820 0.004381 0.418838
O O5 0.122240 0.109353 0.594537
O O6 0.575825 0.948925 0.757324
O O7 0.748221 0.847657 0.608603
O O8 0.756910 0.820886 0.126552
O O9 0.921783 0.802881 0.130278
O O10 0.085493 0.715500 0.967743
O O11 0.050074 0.582553 0.674553
O O12 0.341040 0.862486 0.153149
O O13 0.828393 0.940736 0.179411
#
# Coordination Sequence:
#
# PCOD9289857 Si02
#       8
#     4   8   4   8   4   8   8   8
#     4  12  23  43  67  95 130 168 220 270 326 383
#     4  12  22  40  67  98 127 163 221 273 325 373
#     4  11  24  41  71 100 131 168 226 272 317 386
#     4  11  26  45  65  97 135 179 215 261 332 398
#     4   9  23  46  66  93 137 172 216 272 323 391
#     4  12  26  43  65  96 135 173 213 271 323 399
#     4  11  23  43  67  93 132 169 214 272 327 382
#     4  10  22  40  68  99 126 168 219 274 327 368
#
# _framework density 20.445447000000001
#
# number of rings (size 3 to 8) (size 9 to 14) (size 15 to 20)
#    0.000    0.923    4.615    1.846    4.308    3.692 
#    2.769    2.308    0.000    0.000    0.000    0.000 
#    0.000    0.000    0.000    0.000    0.000    0.000 
#
# Total GULP energy -145143.835634 kJ/mol
# GULP energy per Si atom -5582.455217 kJ/mol
# Density = 2.039891 g / cm^3
# Si number density = 20.445447 Si / 1000 Ang^3
#
#
#
# Elastic Constant Matrix: (Units=GPa)
#
#
# Indices 1 2 3 4 5 6 
#
# 1 79.0519 28.8060 28.6138 0.3867 13.2509 0.4205
# 2 28.8060 93.7754 30.7948 -0.1434 15.1239 -0.1376
# 3 28.6138 30.7948 87.5167 -0.7163 7.4502 -0.4568
# 4 0.3867 -0.1434 -0.7163 14.4293 0.0940 0.2211
# 5 13.2509 15.1239 7.4502 0.0940 37.9309 0.0870
# 6 0.4205 -0.1376 -0.4568 0.2211 0.0870 24.4335
#
#
#
# Elastic Compliance Matrix: (Units=1/GPa)
#
#
# Indices 1 2 3 4 5 6 
#
# 1 0.015717 -0.003016 -0.003783 -0.000611 -0.003543 -0.000340
# 2 -0.003016 0.013277 -0.003381 0.000067 -0.003577 0.000076
# 3 -0.003783 -0.003381 0.013865 0.000752 -0.000057 0.000299
# 4 -0.000611 0.000067 0.000752 0.069368 -0.000132 -0.000602
# 5 -0.003543 -0.003577 -0.000057 -0.000132 0.029039 -0.000062
# 6 -0.000340 0.000076 0.000299 -0.000602 -0.000062 0.040945
#
#
# Mechanical properties :
#
#
# Convention : Reuss Voigt Hill
#
# Bulk Modulus (GPa) = 44.44161 48.53037 46.48599
# Shear Modulus (GPa) = 23.80165 26.83402 25.31784
#
# Velocity S-wave (km/s) = 3.41567 3.62673 3.52278
# Velocity P-wave (km/s) = 6.11061 6.42850 6.27157
#
# Compressibility (1/GPa) = 0.02250144
#
# Stress axis : x y z
#
# Youngs Moduli (GPa) = 63.62672 75.31622 72.12319
#
# Poissons Ratio (x) = 0.22713 0.27281
# Poissons Ratio (y) = 0.19188 0.24381
# Poissons Ratio (z) = 0.24068 0.25461
#
# Static dielectric constant tensor:
#      x y z
#    x 1.769890 0.000180 -0.016630 
#    y 0.000180 1.720670 0.000050 
#    z -0.016630 0.000050 1.716470 
# 
# From -- ./inp_files/98232.got.cif
#   From: 2010.05.17/outbox.cif.g08.bks.cpg/sg15_50_cif.got.tgz:98232.got - 2010.06.03 18:47:42.
