data_PCOD9289210
_publ_section_title
;
Structure prediction by ZEFSAII (Michael W. Deem and Ramdas Pophale) SiO2 
 PCOD9289210
Probable space group: C 2/C
;
_chemical_formula_sum "Si O2"
_cell_formula_units_Z 36
_cell_length_a 22.598891
_cell_length_b 7.059089
_cell_length_c 14.341343
_cell_angle_alpha 90.000000
_cell_angle_beta 40.148581
_cell_angle_gamma 90.000000
_cell_volume 1475.134973
_symmetry_space_group_name_H-M "C 2/C"
_symmetry_group_IT_number 15
_symmetry_cell_setting 'monoclinic'
loop_
_space_group_symop_operation_xyz
x,y,z
-x,y,1/2-z
-x,-y,-z
x,-y,1/2+z
1/2+x,1/2+y,z
1/2-x,1/2+y,1/2-z
1/2-x,1/2-y,-z
1/2+x,1/2-y,1/2+z
loop_
_atom_site_type_symbol
_atom_site_label
_atom_site_fract_x
_atom_site_fract_y
_atom_site_fract_z
Si Si1 0.865481 0.090447 0.614869
Si Si2 0.286520 0.097492 0.314220
Si Si3 0.437199 0.464158 0.714392
Si Si4 0.500000 0.873777 0.250000
Si Si5 0.866312 0.332743 0.911438
O O1 0.862559 0.305456 0.657026
O O2 0.873578 0.967800 0.699883
O O3 0.775523 0.056506 0.661727
O O4 0.957068 0.033675 0.448491
O O5 0.212684 0.263919 0.425566
O O6 0.325563 0.059355 0.369827
O O7 0.435366 0.270034 0.772616
O O8 0.410100 0.643663 0.810937
O O9 0.564483 0.025730 0.120590
#
# Coordination Sequence:
#
# PCOD9289210 Si02
#       5
#     8   8   8   4   8
#     4  10  22  40  62  89 129 159 205 268 315 359
#     4  10  22  40  62  89 129 159 205 268 315 359
#     4  10  23  43  60  91 128 165 205 262 309 373
#     4  12  22  36  72  86 116 172 216 230 308 410
#     4  10  23  43  60  91 128 165 205 262 309 373
#
# _framework density 24.404544999999999
#
# number of rings (size 3 to 8) (size 9 to 14) (size 15 to 20)
#    0.000    1.778    0.000    3.333    6.222    0.000 
#    0.000    8.889    0.000    0.000    0.000    0.000 
#    0.000    0.000    0.000    0.000    0.000    0.000 
#
# Total GULP energy -100487.871295 kJ/mol
# GULP energy per Si atom -5582.659516 kJ/mol
# Density = 2.434900 g / cm^3
# Si number density = 24.404545 Si / 1000 Ang^3
#
#
#
# Elastic Constant Matrix: (Units=GPa)
#
#
# Indices 1 2 3 4 5 6 
#
# 1 36.8141 4.4771 1.6971 0.0034 4.6944 -0.0056
# 2 4.4771 78.9366 28.3027 0.0037 0.0424 -0.0057
# 3 1.6971 28.3027 85.6024 -0.0001 5.5131 0.0000
# 4 0.0034 0.0037 -0.0001 25.5043 -0.0023 -19.0500
# 5 4.6944 0.0424 5.5131 -0.0023 29.6553 0.0023
# 6 -0.0056 -0.0057 0.0000 -19.0500 0.0023 26.0654
#
#
#
# Elastic Compliance Matrix: (Units=1/GPa)
#
#
# Indices 1 2 3 4 5 6 
#
# 1 0.027925 -0.001686 0.000292 0.000001 -0.004472 0.000007
# 2 -0.001686 0.014496 -0.004833 0.000001 0.001145 0.000003
# 3 0.000292 -0.004833 0.013438 0.000000 -0.002537 -0.000001
# 4 0.000001 0.000001 0.000000 0.086344 0.000002 0.063105
# 5 -0.004472 0.001145 -0.002537 0.000002 0.034899 -0.000003
# 6 0.000007 0.000003 -0.000001 0.063105 -0.000003 0.084485
#
#
# Mechanical properties :
#
#
# Convention : Reuss Voigt Hill
#
# Bulk Modulus (GPa) = 23.03913 30.03411 26.53662
# Shear Modulus (GPa) = 17.33040 27.37008 22.35024
#
# Velocity S-wave (km/s) = 2.66772 3.35254 3.02954
# Velocity P-wave (km/s) = 4.35315 5.22680 4.80986
#
# Compressibility (1/GPa) = 0.04340442
#
# Stress axis : x y z
#
# Youngs Moduli (GPa) = 35.80966 68.98277 74.41825
#
# Poissons Ratio (x) = 0.11631 -0.02172
# Poissons Ratio (y) = 0.06038 0.35968
# Poissons Ratio (z) = -0.01045 0.33341
#
# Static dielectric constant tensor:
#      x y z
#    x 1.985100 0.000000 -0.009150 
#    y 0.000000 1.936270 0.000000 
#    z -0.009150 0.000000 1.966610 
# 
# From -- ./inp_files/217391.got.cif
#   From: 2010.05.17/outbox.cif.g08.bks.cpg/sg15_109_cif.got.tgz:217391.got - 2010.06.03 18:47:42.
