data_PCOD9289970
_publ_section_title
;
Structure prediction by ZEFSAII (Michael W. Deem and Ramdas Pophale) SiO2 
 PCOD9289970
Probable space group: C 2/C
;
_chemical_formula_sum "Si O2"
_cell_formula_units_Z 44
_cell_length_a 7.934027
_cell_length_b 13.497680
_cell_length_c 19.967041
_cell_angle_alpha 90.000000
_cell_angle_beta 131.321062
_cell_angle_gamma 90.000000
_cell_volume 1605.901344
_symmetry_space_group_name_H-M "C 2/C"
_symmetry_group_IT_number 15
_symmetry_cell_setting 'monoclinic'
loop_
_space_group_symop_operation_xyz
x,y,z
-x,y,1/2-z
-x,-y,-z
x,-y,1/2+z
1/2+x,1/2+y,z
1/2-x,1/2+y,1/2-z
1/2-x,1/2-y,-z
1/2+x,1/2-y,1/2+z
loop_
_atom_site_type_symbol
_atom_site_label
_atom_site_fract_x
_atom_site_fract_y
_atom_site_fract_z
Si Si1 0.694809 0.179197 0.203218
Si Si2 0.269541 0.586929 0.513632
Si Si3 0.000000 0.358704 0.250000
Si Si4 0.404847 0.889233 0.076908
Si Si5 0.176005 0.229290 0.076741
Si Si6 0.911039 0.089444 0.125112
O O1 0.918491 0.300298 0.389032
O O2 0.795959 0.287357 0.217334
O O3 0.564454 0.195534 0.348517
O O4 0.782495 0.123673 0.158183
O O5 0.087749 0.503455 0.445979
O O6 0.159675 0.682130 0.517425
O O7 0.406310 0.526467 0.605669
O O8 0.911615 0.406703 0.158432
O O9 0.092029 0.130645 0.012842
O O10 0.208987 0.859672 0.970801
O O11 0.166498 0.123104 0.202341
#
# Coordination Sequence:
#
# PCOD9289970 Si02
#       6
#     8   8   4   8   8   8
#     4  10  22  40  71 110 156 206 264 335 407 505
#     4   9  21  41  74 116 156 209 258 337 417 496
#     4  10  24  48  68 104 152 224 270 328 430 466
#     4  10  22  44  78 105 157 220 267 335 412 488
#     4  11  21  39  78 121 154 197 289 334 401 497
#     4   8  19  41  69 106 156 219 252 313 436 481
#
# _framework density 27.398944
#
# number of rings (size 3 to 8) (size 9 to 14) (size 15 to 20)
#    1.091    1.455    0.000    2.727    2.545    3.636 
#    3.273    2.727    4.000   12.000    0.000    0.000 
#    0.000    0.000    0.000    0.000    0.000    0.000 
#
# Total GULP energy -122492.832415 kJ/mol
# GULP energy per Si atom -5567.856019 kJ/mol
# Density = 2.733658 g / cm^3
# Si number density = 27.398944 Si / 1000 Ang^3
#
#
#
# Elastic Constant Matrix: (Units=GPa)
#
#
# Indices 1 2 3 4 5 6 
#
# 1 63.5352 29.7739 62.7374 0.0000 5.1607 0.0000
# 2 29.7739 156.3387 35.7863 0.0000 6.3540 0.0000
# 3 62.7374 35.7863 182.3619 0.0000 11.0643 0.0000
# 4 0.0000 0.0000 0.0000 51.7927 0.0000 -10.7516
# 5 5.1607 6.3540 11.0643 0.0000 50.5359 0.0000
# 6 0.0000 0.0000 0.0000 -10.7516 0.0000 24.7177
#
#
#
# Elastic Compliance Matrix: (Units=1/GPa)
#
#
# Indices 1 2 3 4 5 6 
#
# 1 0.025066 -0.002919 -0.008024 0.000000 -0.000436 0.000000
# 2 -0.002919 0.007053 -0.000349 0.000000 -0.000512 0.000000
# 3 -0.008024 -0.000349 0.008371 0.000000 -0.000970 0.000000
# 4 0.000000 0.000000 0.000000 0.021224 0.000000 0.009232
# 5 -0.000436 -0.000512 -0.000970 0.000000 0.020109 0.000000
# 6 0.000000 0.000000 0.000000 0.009232 0.000000 0.044472
#
#
# Mechanical properties :
#
#
# Convention : Reuss Voigt Hill
#
# Bulk Modulus (GPa) = 55.84607 73.20343 64.52475
# Shear Modulus (GPa) = 32.28951 43.67180 37.98065
#
# Velocity S-wave (km/s) = 3.43665 3.99673 3.72722
# Velocity P-wave (km/s) = 6.01450 6.93355 6.49031
#
# Compressibility (1/GPa) = 0.01790636
#
# Stress axis : x y z
#
# Youngs Moduli (GPa) = 39.89455 141.78444 119.45496
#
# Poissons Ratio (x) = 0.41390 0.95852
# Poissons Ratio (y) = 0.11646 0.04165
# Poissons Ratio (z) = 0.32012 0.04944
#
# Static dielectric constant tensor:
#      x y z
#    x 2.421220 0.000000 -0.021040 
#    y 0.000000 2.157590 0.000000 
#    z -0.021040 0.000000 2.295280 
# 
# From -- ./inp_files/144752.got.cif
#   From: 2010.05.17/outbox.cif.g08.bks.cpg/sg15_73_cif.got.tgz:144752.got - 2010.06.03 18:47:42.
