data_PCOD9289290
_publ_section_title
;
Structure prediction by ZEFSAII (Michael W. Deem and Ramdas Pophale) SiO2 
 PCOD9289290
Probable space group: C 2/C
;
_chemical_formula_sum "Si O2"
_cell_formula_units_Z 48
_cell_length_a 14.085084
_cell_length_b 16.625015
_cell_length_c 8.926520
_cell_angle_alpha 90.000000
_cell_angle_beta 95.040349
_cell_angle_gamma 90.000000
_cell_volume 2082.193227
_symmetry_space_group_name_H-M "C 2/C"
_symmetry_group_IT_number 15
_symmetry_cell_setting 'monoclinic'
loop_
_space_group_symop_operation_xyz
x,y,z
-x,y,1/2-z
-x,-y,-z
x,-y,1/2+z
1/2+x,1/2+y,z
1/2-x,1/2+y,1/2-z
1/2-x,1/2-y,-z
1/2+x,1/2-y,1/2+z
loop_
_atom_site_type_symbol
_atom_site_label
_atom_site_fract_x
_atom_site_fract_y
_atom_site_fract_z
Si Si1 0.435472 0.442700 0.092826
Si Si2 0.231025 0.805398 0.139843
Si Si3 0.746802 0.964801 0.494895
Si Si4 0.416970 0.151105 0.845475
Si Si5 0.087397 0.237774 0.872801
Si Si6 0.104157 0.531280 0.221288
O O1 0.500000 0.439389 0.250000
O O2 0.421399 0.349164 0.046928
O O3 0.500000 0.500000 0.000000
O O4 0.327775 0.479494 0.082730
O O5 0.194913 0.891682 0.073527
O O6 0.326157 0.830893 0.234714
O O7 0.172293 0.765661 0.265270
O O8 0.250000 0.750000 0.000000
O O9 0.678646 0.011717 0.366735
O O10 0.670932 0.928468 0.604273
O O11 0.500000 0.182484 0.750000
O O12 0.424727 0.054933 0.856360
O O13 0.409138 0.193907 0.002660
O O14 0.000000 0.248211 0.750000
O O15 0.000000 0.566486 0.250000
#
# Coordination Sequence:
#
# PCOD9289290 Si02
#       6
#     8   8   8   8   8   8
#     4  11  23  39  62  93 126 164 209 256 312 380
#     4  11  24  41  61  91 125 163 212 260 310 375
#     4  11  22  41  62  88 127 166 207 263 315 371
#     4  10  22  41  63  91 125 162 206 259 313 373
#     4  11  23  42  64  92 127 164 208 260 312 374
#     4  10  22  40  63  91 123 163 211 260 314 375
#
# _framework density 23.052617000000001
#
# number of rings (size 3 to 8) (size 9 to 14) (size 15 to 20)
#    0.000    1.333    0.000    7.000    0.000    4.667 
#    0.000    1.667    0.000    0.000    0.000    0.000 
#    0.000    0.000    0.000    0.000    0.000    0.000 
#
# Total GULP energy -134104.498457 kJ/mol
# GULP energy per Si atom -5587.687436 kJ/mol
# Density = 2.300015 g / cm^3
# Si number density = 23.052617 Si / 1000 Ang^3
#
#
#
# Elastic Constant Matrix: (Units=GPa)
#
#
# Indices 1 2 3 4 5 6 
#
# 1 92.5986 23.4350 14.3150 0.0000 -13.3345 0.0000
# 2 23.4350 105.6307 38.5116 0.0000 -1.8148 0.0000
# 3 14.3150 38.5116 91.9329 0.0000 -18.5950 0.0000
# 4 0.0000 0.0000 0.0000 42.7447 0.0000 2.8396
# 5 -13.3345 -1.8148 -18.5950 0.0000 48.6605 0.0000
# 6 0.0000 0.0000 0.0000 2.8396 0.0000 37.8903
#
#
#
# Elastic Compliance Matrix: (Units=1/GPa)
#
#
# Indices 1 2 3 4 5 6 
#
# 1 0.011912 -0.002528 -0.000167 0.000000 0.003106 0.000000
# 2 -0.002528 0.011810 -0.004991 0.000000 -0.002159 0.000000
# 3 -0.000167 -0.004991 0.014032 0.000000 0.005130 0.000000
# 4 0.000000 0.000000 0.000000 0.023512 0.000000 -0.001762
# 5 0.003106 -0.002159 0.005130 0.000000 0.023282 0.000000
# 6 0.000000 0.000000 0.000000 -0.001762 0.000000 0.026524
#
#
# Mechanical properties :
#
#
# Convention : Reuss Voigt Hill
#
# Bulk Modulus (GPa) = 44.67948 49.18725 46.93337
# Shear Modulus (GPa) = 37.33983 40.11913 38.72948
#
# Velocity S-wave (km/s) = 4.02900 4.17625 4.10328
# Velocity P-wave (km/s) = 6.40838 6.68117 6.54620
#
# Compressibility (1/GPa) = 0.02238164
#
# Stress axis : x y z
#
# Youngs Moduli (GPa) = 83.94632 84.67197 71.26663
#
# Poissons Ratio (x) = 0.21409 0.01193
# Poissons Ratio (y) = 0.21225 0.35566
# Poissons Ratio (z) = 0.01406 0.42256
#
# Static dielectric constant tensor:
#      x y z
#    x 1.819110 0.000000 -0.022160 
#    y 0.000000 1.935170 0.000000 
#    z -0.022160 0.000000 1.816070 
# 
# From -- ./inp_files/39647.got.cif
#   From: 2010.05.17/outbox.cif.g08.bks.cpg/sg15_20_cif.got.tgz:39647.got - 2010.06.03 18:47:42.
