data_PCOD9289750
_publ_section_title
;
Structure prediction by ZEFSAII (Michael W. Deem and Ramdas Pophale) SiO2 
 PCOD9289750
Probable space group: C 2/C
;
_chemical_formula_sum "Si O2"
_cell_formula_units_Z 32
_cell_length_a 24.849390
_cell_length_b 7.422477
_cell_length_c 13.771012
_cell_angle_alpha 90.000000
_cell_angle_beta 153.242722
_cell_angle_gamma 90.000000
_cell_volume 1143.529542
_symmetry_space_group_name_H-M "C 2/C"
_symmetry_group_IT_number 15
_symmetry_cell_setting 'monoclinic'
loop_
_space_group_symop_operation_xyz
x,y,z
-x,y,1/2-z
-x,-y,-z
x,-y,1/2+z
1/2+x,1/2+y,z
1/2-x,1/2+y,1/2-z
1/2-x,1/2-y,-z
1/2+x,1/2-y,1/2+z
loop_
_atom_site_type_symbol
_atom_site_label
_atom_site_fract_x
_atom_site_fract_y
_atom_site_fract_z
Si Si1 0.978638 0.405613 0.362932
Si Si2 0.723418 0.201319 0.177436
Si Si3 0.743389 0.588307 0.897629
Si Si4 0.899327 0.976469 0.661630
O O1 0.951901 0.191621 0.310017
O O2 0.000000 0.500000 0.500000
O O3 0.101167 0.411612 0.499379
O O4 0.863792 0.504442 0.134629
O O5 0.759830 0.259332 0.343577
O O6 0.809618 0.072738 0.256235
O O7 0.694020 0.368909 0.058941
O O8 0.656312 0.611133 0.849013
O O9 0.000000 0.046391 0.750000
#
# Coordination Sequence:
#
# PCOD9289750 Si02
#       4
#     8   8   8   8
#     4  10  22  40  67  98 140 178 231 292 354 416
#     4  10  23  41  70 105 138 184 235 283 362 421
#     4  11  23  43  74 100 141 186 230 296 354 416
#     4   9  21  43  66  96 139 182 225 289 354 415
#
# _framework density 27.983535
#
# number of rings (size 3 to 8) (size 9 to 14) (size 15 to 20)
#    0.000    2.000    0.000    5.250    7.000    5.000 
#    0.000    0.000    0.000    1.500    0.000    0.000 
#    0.000    0.000    0.000    0.000    0.000    0.000 
#
# Total GULP energy -89648.277476 kJ/mol
# GULP energy per Si atom -5603.017342 kJ/mol
# Density = 2.791984 g / cm^3
# Si number density = 27.983535 Si / 1000 Ang^3
#
#
#
# Elastic Constant Matrix: (Units=GPa)
#
#
# Indices 1 2 3 4 5 6 
#
# 1 236.6086 71.1844 70.0037 0.0000 -26.4604 0.0000
# 2 71.1844 93.1345 29.4668 0.0000 8.4479 0.0000
# 3 70.0037 29.4668 85.7087 0.0000 -14.2141 0.0000
# 4 0.0000 0.0000 0.0000 32.5200 0.0000 -1.9575
# 5 -26.4604 8.4479 -14.2141 0.0000 54.8237 0.0000
# 6 0.0000 0.0000 0.0000 -1.9575 0.0000 65.7667
#
#
#
# Elastic Compliance Matrix: (Units=1/GPa)
#
#
# Indices 1 2 3 4 5 6 
#
# 1 0.007008 -0.004480 -0.003666 0.000000 0.003122 0.000000
# 2 -0.004480 0.015424 -0.002504 0.000000 -0.005188 0.000000
# 3 -0.003666 -0.002504 0.015980 0.000000 0.002760 0.000000
# 4 0.000000 0.000000 0.000000 0.030805 0.000000 0.000917
# 5 0.003122 -0.005188 0.002760 0.000000 0.021262 0.000000
# 6 0.000000 0.000000 0.000000 0.000917 0.000000 0.015233
#
#
# Mechanical properties :
#
#
# Convention : Reuss Voigt Hill
#
# Bulk Modulus (GPa) = 58.43742 84.08460 71.26101
# Shear Modulus (GPa) = 37.67442 46.94189 42.30815
#
# Velocity S-wave (km/s) = 3.67319 4.10015 3.89253
# Velocity P-wave (km/s) = 6.23842 7.24763 6.76188
#
# Compressibility (1/GPa) = 0.01711232
#
# Stress axis : x y z
#
# Youngs Moduli (GPa) = 142.69759 64.83427 62.57706
#
# Poissons Ratio (x) = 0.29043 0.22940
# Poissons Ratio (y) = 0.63922 0.15672
# Poissons Ratio (z) = 0.52311 0.16237
#
# Static dielectric constant tensor:
#      x y z
#    x 2.154720 0.000000 -0.023150 
#    y 0.000000 2.294270 0.000000 
#    z -0.023150 0.000000 2.218110 
# 
# From -- ./inp_files/172178.got.cif
#   From: 2010.05.17/outbox.cif.g08.bks.cpg/sg15_87_cif.got.tgz:172178.got - 2010.06.03 18:47:42.
