data_PCOD9289238
_publ_section_title
;
Structure prediction by ZEFSAII (Michael W. Deem and Ramdas Pophale) SiO2 
 PCOD9289238
Probable space group: C 2/C
;
_chemical_formula_sum "Si O2"
_cell_formula_units_Z 40
_cell_length_a 20.755852
_cell_length_b 13.870697
_cell_length_c 17.187751
_cell_angle_alpha 90.000000
_cell_angle_beta 19.670961
_cell_angle_gamma 90.000000
_cell_volume 1665.694331
_symmetry_space_group_name_H-M "C 2/C"
_symmetry_group_IT_number 15
_symmetry_cell_setting 'monoclinic'
loop_
_space_group_symop_operation_xyz
x,y,z
-x,y,1/2-z
-x,-y,-z
x,-y,1/2+z
1/2+x,1/2+y,z
1/2-x,1/2+y,1/2-z
1/2-x,1/2-y,-z
1/2+x,1/2-y,1/2+z
loop_
_atom_site_type_symbol
_atom_site_label
_atom_site_fract_x
_atom_site_fract_y
_atom_site_fract_z
Si Si1 0.252935 0.176805 0.184094
Si Si2 0.913975 0.130359 0.464074
Si Si3 0.888568 0.389967 0.305150
Si Si4 0.089467 0.100737 0.527989
Si Si5 0.805578 0.613360 0.434817
O O1 0.296512 0.289588 0.146090
O O2 0.138435 0.140503 0.388369
O O3 0.126946 0.154144 0.250453
O O4 0.455096 0.122073 0.941540
O O5 0.813886 0.147524 0.494427
O O6 0.888922 0.015852 0.502986
O O7 0.847340 0.499774 0.375123
O O8 0.000000 0.342871 0.250000
O O9 0.232762 0.142049 0.431566
O O10 0.875187 0.121304 0.802158
O O11 0.000000 0.656321 0.250000
#
# Coordination Sequence:
#
# PCOD9289238 Si02
#       5
#     8   8   8   8   8
#     4  12  24  42  61  98 131 170 211 256 317 383
#     4  11  23  41  59  96 132 165 211 256 312 379
#     4  10  22  40  62  92 131 164 208 257 320 378
#     4  10  23  41  69  93 130 165 211 263 317 377
#     4   9  19  41  67  98 121 162 214 266 322 374
#
# _framework density 24.014009999999999
#
# number of rings (size 3 to 8) (size 9 to 14) (size 15 to 20)
#    0.000    1.600    2.000    3.000    0.000    8.000 
#    7.200    0.000    0.000    4.800    5.200    0.000 
#    0.000    0.000    0.000    0.000    0.000    0.000 
#
# Total GULP energy -111649.455711 kJ/mol
# GULP energy per Si atom -5582.472786 kJ/mol
# Density = 2.395935 g / cm^3
# Si number density = 24.014010 Si / 1000 Ang^3
#
#
#
# Elastic Constant Matrix: (Units=GPa)
#
#
# Indices 1 2 3 4 5 6 
#
# 1 131.3284 25.7630 118.6002 -0.0329 -19.7143 0.0080
# 2 25.7630 91.0525 30.0881 0.0021 -7.0139 -0.0046
# 3 118.6002 30.0881 155.8712 0.0273 -25.1219 -0.0176
# 4 -0.0329 0.0021 0.0273 17.8868 0.0091 -9.7277
# 5 -19.7143 -7.0139 -25.1219 0.0091 50.9720 0.0058
# 6 0.0080 -0.0046 -0.0176 -9.7277 0.0058 -22.6991
#
#
#
# Elastic Compliance Matrix: (Units=1/GPa)
#
#
# Indices 1 2 3 4 5 6 
#
# 1 0.024399 -0.000814 -0.018364 0.000069 0.000274 -0.000007
# 2 -0.000814 0.011772 -0.001567 -0.000001 0.000533 -0.000001
# 3 -0.018364 -0.001567 0.021195 -0.000064 0.003128 0.000006
# 4 0.000069 -0.000001 -0.000064 0.045340 -0.000011 -0.019430
# 5 0.000274 0.000533 0.003128 -0.000011 0.021340 0.000008
# 6 -0.000007 -0.000001 0.000006 -0.019430 0.000008 -0.035728
#
#
# Mechanical properties :
#
#
# Convention : Reuss Voigt Hill
#
# Bulk Modulus (GPa) = 62.98752 80.79497 71.89124
# Shear Modulus (GPa) = 37.00943 22.81865 29.91404
#
# Velocity S-wave (km/s) = 3.93002 3.08591 3.53326
# Velocity P-wave (km/s) = 6.84689 6.81286 6.82990
#
# Compressibility (1/GPa) = 0.01587616
#
# Stress axis : x y z
#
# Youngs Moduli (GPa) = 40.98449 84.94814 47.18100
#
# Poissons Ratio (x) = 0.06918 0.86643
# Poissons Ratio (y) = 0.03337 0.07393
# Poissons Ratio (z) = 0.75263 0.13310
#
# Static dielectric constant tensor:
#      x y z
#    x 1.961420 0.000000 -0.029560 
#    y 0.000000 1.909540 0.000010 
#    z -0.029560 0.000010 1.889420 
# 
# From -- ./inp_files/215647.got.cif
#   From: 2010.05.17/outbox.cif.g08.bks.cpg/sg15_108_cif.got.tgz:215647.got - 2010.06.03 18:47:42.
