data_PCOD9289050
_publ_section_title
;
Structure prediction by ZEFSAII (Michael W. Deem and Ramdas Pophale) SiO2 
 PCOD9289050
Probable space group: C 2/C
;
_chemical_formula_sum "Si O2"
_cell_formula_units_Z 64
_cell_length_a 24.118945
_cell_length_b 23.605786
_cell_length_c 13.058527
_cell_angle_alpha 90.000000
_cell_angle_beta 21.907783
_cell_angle_gamma 90.000000
_cell_volume 2774.037287
_symmetry_space_group_name_H-M "C 2/C"
_symmetry_group_IT_number 15
_symmetry_cell_setting 'monoclinic'
loop_
_space_group_symop_operation_xyz
x,y,z
-x,y,1/2-z
-x,-y,-z
x,-y,1/2+z
1/2+x,1/2+y,z
1/2-x,1/2+y,1/2-z
1/2-x,1/2-y,-z
1/2+x,1/2-y,1/2+z
loop_
_atom_site_type_symbol
_atom_site_label
_atom_site_fract_x
_atom_site_fract_y
_atom_site_fract_z
Si Si1 0.172062 0.952285 0.790904
Si Si2 0.747486 0.265978 0.756287
Si Si3 0.345964 0.702805 0.391462
Si Si4 0.402932 0.882813 0.520135
Si Si5 0.323750 0.082642 0.828832
Si Si6 0.676802 0.324830 0.244957
Si Si7 0.349426 0.431352 0.069700
Si Si8 0.008324 0.152271 0.855598
O O1 0.274857 0.926053 0.705287
O O2 0.260762 0.953804 0.532006
O O3 0.048500 0.903968 0.989983
O O4 0.116656 0.012476 0.923834
O O5 0.833516 0.226169 0.528313
O O6 0.842290 0.319182 0.633967
O O7 0.710849 0.223656 0.911495
O O8 0.607960 0.295776 0.940831
O O9 0.250000 0.750000 0.500000
O O10 0.260574 0.643355 0.525275
O O11 0.510333 0.695779 0.064232
O O12 0.500000 0.879770 0.250000
O O13 0.505321 0.904403 0.436832
O O14 0.277218 0.057957 0.798994
O O15 0.701387 0.381997 0.266753
O O16 0.660871 0.333595 0.151018
O O17 0.500000 0.414755 0.750000
O O18 0.000000 0.138720 0.750000
#
# Coordination Sequence:
#
# PCOD9289050 Si02
#       8
#     8   8   8   8   8   8   8   8
#     4  10  22  40  59  83 116 162 201 246 307 349
#     4  11  21  35  62  91 121 155 193 244 311 361
#     4  12  18  33  60  93 122 146 184 249 311 352
#     4   9  19  36  58  88 118 152 194 244 301 364
#     4  11  21  38  60  90 122 148 200 257 304 358
#     4  12  22  37  59  91 121 149 200 251 306 357
#     4  12  23  37  59  90 121 155 203 252 292 356
#     4  11  24  41  57  82 120 165 205 239 292 371
#
# _framework density 23.071066999999999
#
# number of rings (size 3 to 8) (size 9 to 14) (size 15 to 20)
#    0.000    1.000    5.000    3.750    0.000    4.000 
#    0.000    0.000    0.000    2.250    0.000    0.000 
#    0.000    0.000    0.000    0.000    0.000    0.000 
#
# Total GULP energy -178850.081443 kJ/mol
# GULP energy per Si atom -5589.065045 kJ/mol
# Density = 2.301856 g / cm^3
# Si number density = 23.071067 Si / 1000 Ang^3
#
#
#
# Elastic Constant Matrix: (Units=GPa)
#
#
# Indices 1 2 3 4 5 6 
#
# 1 145.2208 15.0536 1.0541 -0.0096 3.2763 0.0080
# 2 15.0536 91.6918 -2.1493 -0.0132 9.8363 0.0157
# 3 1.0541 -2.1493 25.1869 -0.0128 7.9934 0.0137
# 4 -0.0096 -0.0132 -0.0128 21.5215 0.0090 7.1703
# 5 3.2763 9.8363 7.9934 0.0090 24.5392 -0.0087
# 6 0.0080 0.0157 0.0137 7.1703 -0.0087 20.2879
#
#
#
# Elastic Compliance Matrix: (Units=1/GPa)
#
#
# Indices 1 2 3 4 5 6 
#
# 1 0.007013 -0.001114 -0.000260 0.000003 -0.000405 -0.000003
# 2 -0.001114 0.011740 0.002782 0.000017 -0.005464 -0.000019
# 3 -0.000260 0.002782 0.044940 0.000055 -0.015719 -0.000058
# 4 0.000003 0.000017 0.000055 0.052667 -0.000051 -0.018614
# 5 -0.000405 -0.005464 -0.015719 -0.000051 0.048116 0.000054
# 6 -0.000003 -0.000019 -0.000058 -0.018614 0.000054 0.055869
#
#
# Mechanical properties :
#
#
# Convention : Reuss Voigt Hill
#
# Bulk Modulus (GPa) = 15.03528 32.22402 23.62965
# Shear Modulus (GPa) = 20.85959 29.81246 25.33603
#
# Velocity S-wave (km/s) = 3.01016 3.59862 3.31746
# Velocity P-wave (km/s) = 4.31422 5.59145 4.99384
#
# Compressibility (1/GPa) = 0.06651021
#
# Stress axis : x y z
#
# Youngs Moduli (GPa) = 142.60126 85.17654 22.25173
#
# Poissons Ratio (x) = 0.09488 0.00578
# Poissons Ratio (y) = 0.15885 -0.06191
# Poissons Ratio (z) = 0.03707 -0.23700
#
# Static dielectric constant tensor:
#      x y z
#    x 1.956630 -0.000010 0.051440 
#    y -0.000010 1.828660 -0.000040 
#    z 0.051440 -0.000040 2.028750 
# 
# From -- ./inp_files/120241.got.cif
#   From: 2010.05.17/outbox.cif.g08.bks.cpg/sg15_61_cif.got.tgz:120241.got - 2010.06.03 18:47:42.
