data_PCOD9289223
_publ_section_title
;
Structure prediction by ZEFSAII (Michael W. Deem and Ramdas Pophale) SiO2 
 PCOD9289223
Probable space group: C 2/C
;
_chemical_formula_sum "Si O2"
_cell_formula_units_Z 40
_cell_length_a 15.041339
_cell_length_b 4.704938
_cell_length_c 26.171822
_cell_angle_alpha 90.000000
_cell_angle_beta 112.067526
_cell_angle_gamma 90.000000
_cell_volume 1716.457583
_symmetry_space_group_name_H-M "C 2/C"
_symmetry_group_IT_number 15
_symmetry_cell_setting 'monoclinic'
loop_
_space_group_symop_operation_xyz
x,y,z
-x,y,1/2-z
-x,-y,-z
x,-y,1/2+z
1/2+x,1/2+y,z
1/2-x,1/2+y,1/2-z
1/2-x,1/2-y,-z
1/2+x,1/2-y,1/2+z
loop_
_atom_site_type_symbol
_atom_site_label
_atom_site_fract_x
_atom_site_fract_y
_atom_site_fract_z
Si Si1 0.638415 0.575062 0.584623
Si Si2 0.818536 0.007502 0.630687
Si Si3 0.653594 0.569321 0.474886
Si Si4 0.472201 0.068490 0.901013
Si Si5 0.060072 0.489818 0.813973
O O1 0.642372 0.442900 0.528719
O O2 0.727282 0.794117 0.613858
O O3 0.611740 0.309420 0.615152
O O4 0.551920 0.798619 0.569610
O O5 0.843513 0.296191 0.665599
O O6 0.831504 0.102557 0.574171
O O7 0.904832 0.809201 0.668638
O O8 0.934633 0.725125 0.557149
O O9 0.750000 0.750000 0.500000
O O10 0.493418 0.942871 0.849438
O O11 0.000000 0.454692 0.750000
#
# Coordination Sequence:
#
# PCOD9289223 Si02
#       5
#     8   8   8   8   8
#     4  11  22  38  61  93 129 157 192 251 309 368
#     4  10  22  40  62  91 122 162 205 246 305 379
#     4   9  20  37  60  90 127 163 195 237 303 377
#     4  11  22  38  60  91 121 159 205 251 301 362
#     4  11  23  43  65  85 116 163 214 261 306 362
#
# _framework density 23.303806999999999
#
# number of rings (size 3 to 8) (size 9 to 14) (size 15 to 20)
#    0.000    1.600    0.000    5.400    0.000    3.200 
#    0.000   21.000    0.000    0.000    0.000    0.000 
#    0.000    0.000    0.000    0.000    0.000    0.000 
#
# Total GULP energy -111607.038445 kJ/mol
# GULP energy per Si atom -5580.351922 kJ/mol
# Density = 2.325077 g / cm^3
# Si number density = 23.303807 Si / 1000 Ang^3
#
#
#
# Elastic Constant Matrix: (Units=GPa)
#
#
# Indices 1 2 3 4 5 6 
#
# 1 96.7152 37.0749 59.8576 0.0000 6.7612 0.0000
# 2 37.0749 108.7180 23.8750 -0.0001 2.7779 0.0001
# 3 59.8576 23.8750 119.6029 0.0000 11.6018 0.0000
# 4 0.0000 -0.0001 0.0000 15.3206 0.0000 3.2116
# 5 6.7612 2.7779 11.6018 0.0000 13.7185 0.0000
# 6 0.0000 0.0001 0.0000 3.2116 0.0000 59.6317
#
#
#
# Elastic Compliance Matrix: (Units=1/GPa)
#
#
# Indices 1 2 3 4 5 6 
#
# 1 0.016494 -0.003982 -0.007353 0.000000 -0.001105 0.000000
# 2 -0.003982 0.010583 -0.000111 0.000000 -0.000086 0.000000
# 3 -0.007353 -0.000111 0.012756 0.000000 -0.007141 0.000000
# 4 0.000000 0.000000 0.000000 0.066017 0.000000 -0.003555
# 5 -0.001105 -0.000086 -0.007141 0.000000 0.079495 0.000000
# 6 0.000000 0.000000 0.000000 -0.003555 0.000000 0.016961
#
#
# Mechanical properties :
#
#
# Convention : Reuss Voigt Hill
#
# Bulk Modulus (GPa) = 59.02995 62.96122 60.99559
# Shear Modulus (GPa) = 21.65962 31.34940 26.50451
#
# Velocity S-wave (km/s) = 3.05199 3.67174 3.37612
# Velocity P-wave (km/s) = 6.14859 6.71206 6.43649
#
# Compressibility (1/GPa) = 0.01694055
#
# Stress axis : x y z
#
# Youngs Moduli (GPa) = 60.62858 94.49435 78.39605
#
# Poissons Ratio (x) = 0.37626 0.57642
# Poissons Ratio (y) = 0.24141 0.00873
# Poissons Ratio (z) = 0.44578 0.01052
#
# Static dielectric constant tensor:
#      x y z
#    x 2.010440 0.000000 -0.046730 
#    y 0.000000 1.865420 0.000000 
#    z -0.046730 0.000000 1.837640 
# 
# From -- ./inp_files/271700.got.cif
#   From: 2010.05.17/outbox.cif.g08.bks.cpg/sg15_136_cif.got.tgz:271700.got - 2010.06.03 18:47:42.
