data_PCOD9289037
_publ_section_title
;
Structure prediction by ZEFSAII (Michael W. Deem and Ramdas Pophale) SiO2 
 PCOD9289037
Probable space group: C 2/C
;
_chemical_formula_sum "Si O2"
_cell_formula_units_Z 60
_cell_length_a 30.072121
_cell_length_b 13.692644
_cell_length_c 8.309267
_cell_angle_alpha 90.000000
_cell_angle_beta 80.008244
_cell_angle_gamma 90.000000
_cell_volume 3369.586148
_symmetry_space_group_name_H-M "C 2/C"
_symmetry_group_IT_number 15
_symmetry_cell_setting 'monoclinic'
loop_
_space_group_symop_operation_xyz
x,y,z
-x,y,1/2-z
-x,-y,-z
x,-y,1/2+z
1/2+x,1/2+y,z
1/2-x,1/2+y,1/2-z
1/2-x,1/2-y,-z
1/2+x,1/2-y,1/2+z
loop_
_atom_site_type_symbol
_atom_site_label
_atom_site_fract_x
_atom_site_fract_y
_atom_site_fract_z
Si Si1 0.938259 0.591746 0.516758
Si Si2 0.000000 0.537341 0.750000
Si Si3 0.710053 0.445829 0.582272
Si Si4 0.779863 0.237998 0.217391
Si Si5 0.360323 0.790680 0.919403
Si Si6 0.804483 0.404320 0.405842
Si Si7 0.314348 0.353726 0.238166
Si Si8 0.643415 0.039119 0.329128
O O1 0.975011 0.604286 0.634059
O O2 0.907618 0.684103 0.480577
O O3 0.903707 0.511888 0.610293
O O4 0.964695 0.535720 0.358695
O O5 0.717505 0.374426 0.731558
O O6 0.760485 0.462380 0.485579
O O7 0.685143 0.391768 0.447689
O O8 0.690340 0.548064 0.653070
O O9 0.791403 0.295174 0.374290
O O10 0.730531 0.284026 0.208184
O O11 0.819501 0.262733 0.065827
O O12 0.356189 0.708237 0.782802
O O13 0.353225 0.891490 0.826692
O O14 0.822631 0.451898 0.232460
O O15 0.841144 0.406666 0.521373
#
# Coordination Sequence:
#
# PCOD9289037 Si02
#       8
#     8   4   8   8   8   8   8   8
#     4  11  21  37  58  84 117 153 179 230 293 367
#     4  10  22  40  58  84 120 150 174 228 312 360
#     4  11  22  38  51  76 114 167 198 255 296 310
#     4  11  22  36  52  78 112 157 208 250 283 331
#     4  12  22  35  54  83 109 152 199 233 285 343
#     4  11  19  31  51  76 109 155 206 242 283 324
#     4  11  23  37  54  77 115 157 205 252 286 331
#     4  12  19  33  52  84 110 149 195 242 276 341
#
# _framework density 17.806341
#
# number of rings (size 3 to 8) (size 9 to 14) (size 15 to 20)
#    0.000    0.800    4.000    6.800    0.000    0.000 
#    0.000    0.000    0.000    0.000    0.000    0.000 
#    0.000   12.800    0.000    0.000    0.000    0.000 
#
# Total GULP energy -167306.495132 kJ/mol
# GULP energy per Si atom -5576.883171 kJ/mol
# Density = 1.776581 g / cm^3
# Si number density = 17.806341 Si / 1000 Ang^3
#
#
#
# Elastic Constant Matrix: (Units=GPa)
#
#
# Indices 1 2 3 4 5 6 
#
# 1 84.9086 38.8175 32.2168 0.0000 21.0572 0.0000
# 2 38.8175 77.9507 31.5713 0.0000 4.4840 0.0000
# 3 32.2168 31.5713 77.8437 0.0000 4.1021 0.0000
# 4 0.0000 0.0000 0.0000 31.7416 0.0000 7.0351
# 5 21.0572 4.4840 4.1021 0.0000 39.9930 0.0000
# 6 0.0000 0.0000 0.0000 7.0351 0.0000 35.2373
#
#
#
# Elastic Compliance Matrix: (Units=1/GPa)
#
#
# Indices 1 2 3 4 5 6 
#
# 1 0.018867 -0.007082 -0.004479 0.000000 -0.008681 0.000000
# 2 -0.007082 0.018056 -0.004506 0.000000 0.002167 0.000000
# 3 -0.004479 -0.004506 0.016465 0.000000 0.001174 0.000000
# 4 0.000000 0.000000 0.000000 0.032963 0.000000 -0.006581
# 5 -0.008681 0.002167 0.001174 0.000000 0.029211 0.000000
# 6 0.000000 0.000000 0.000000 -0.006581 0.000000 0.029693
#
#
# Mechanical properties :
#
#
# Convention : Reuss Voigt Hill
#
# Bulk Modulus (GPa) = 47.04855 49.54602 48.29729
# Shear Modulus (GPa) = 27.10402 30.60088 28.85245
#
# Velocity S-wave (km/s) = 3.90571 4.15002 4.02972
# Velocity P-wave (km/s) = 6.84245 7.13084 6.98814
#
# Compressibility (1/GPa) = 0.02125464
#
# Stress axis : x y z
#
# Youngs Moduli (GPa) = 53.00202 55.38414 60.73313
#
# Poissons Ratio (x) = 0.39224 0.27201
# Poissons Ratio (y) = 0.37537 0.27367
# Poissons Ratio (z) = 0.23738 0.24956
#
# Static dielectric constant tensor:
#      x y z
#    x 1.633790 0.000000 0.045560 
#    y 0.000000 1.644760 0.000000 
#    z 0.045560 0.000000 1.672710 
# 
# From -- ./inp_files/69092.got.cif
#   From: 2010.05.17/outbox.cif.g08.bks.cpg/sg15_35_cif.got.tgz:69092.got - 2010.06.03 18:47:42.
