data_PCOD9289232
_publ_section_title
;
Structure prediction by ZEFSAII (Michael W. Deem and Ramdas Pophale) SiO2 
 PCOD9289232
Probable space group: C 2/C
;
_chemical_formula_sum "Si O2"
_cell_formula_units_Z 40
_cell_length_a 24.671188
_cell_length_b 4.866430
_cell_length_c 20.825228
_cell_angle_alpha 90.000000
_cell_angle_beta 140.455067
_cell_angle_gamma 90.000000
_cell_volume 1591.892248
_symmetry_space_group_name_H-M "C 2/C"
_symmetry_group_IT_number 15
_symmetry_cell_setting 'monoclinic'
loop_
_space_group_symop_operation_xyz
x,y,z
-x,y,1/2-z
-x,-y,-z
x,-y,1/2+z
1/2+x,1/2+y,z
1/2-x,1/2+y,1/2-z
1/2-x,1/2-y,-z
1/2+x,1/2-y,1/2+z
loop_
_atom_site_type_symbol
_atom_site_label
_atom_site_fract_x
_atom_site_fract_y
_atom_site_fract_z
Si Si1 0.690788 0.322839 0.692751
Si Si2 0.487268 0.251917 0.940774
Si Si3 0.096025 0.496576 0.842693
Si Si4 0.196972 0.042895 0.903518
Si Si5 0.637804 0.977994 0.016710
O O1 0.727156 0.629085 0.720656
O O2 0.612088 0.275583 0.670422
O O3 0.652562 0.221673 0.589919
O O4 0.500000 0.500000 0.000000
O O5 0.566578 0.209554 0.965675
O O6 0.500000 0.000000 0.000000
O O7 0.124476 0.263484 0.817625
O O8 0.000000 0.588849 0.750000
O O9 0.154597 0.768351 0.892775
O O10 0.102031 0.351155 0.918166
O O11 0.265289 0.943668 0.913451
O O12 0.250000 0.250000 0.000000
#
# Coordination Sequence:
#
# PCOD9289232 Si02
#       5
#     8   8   8   8   8
#     4  11  24  41  62  95 128 166 220 264 314 393
#     4  10  22  40  62  92 125 166 217 262 315 386
#     4  11  24  42  65  99 131 168 224 274 330 407
#     4  10  22  41  65  96 129 170 222 270 330 406
#     4  10  23  42  67  88 131 174 205 274 334 370
#
# _framework density 25.127327999999999
#
# number of rings (size 3 to 8) (size 9 to 14) (size 15 to 20)
#    0.000    1.600    0.000    5.400    0.000   17.600 
#    0.000    0.000    0.000    0.000    0.000    0.000 
#    0.000    0.000    0.000    0.000    0.000    0.000 
#
# Total GULP energy -111526.959116 kJ/mol
# GULP energy per Si atom -5576.347956 kJ/mol
# Density = 2.507014 g / cm^3
# Si number density = 25.127328 Si / 1000 Ang^3
#
#
#
# Elastic Constant Matrix: (Units=GPa)
#
#
# Indices 1 2 3 4 5 6 
#
# 1 144.1288 42.1560 43.8743 -0.0019 51.2119 -0.0019
# 2 42.1560 137.9679 6.2327 -0.0067 20.5885 -0.0093
# 3 43.8743 6.2327 81.8472 -0.0028 33.5321 -0.0020
# 4 -0.0019 -0.0067 -0.0028 38.3808 -0.0013 16.4531
# 5 51.2119 20.5885 33.5321 -0.0013 51.5506 -0.0006
# 6 -0.0019 -0.0093 -0.0020 16.4531 -0.0006 21.5986
#
#
#
# Elastic Compliance Matrix: (Units=1/GPa)
#
#
# Indices 1 2 3 4 5 6 
#
# 1 0.011454 -0.002041 -0.002259 0.000000 -0.009095 0.000000
# 2 -0.002041 0.008122 0.001328 0.000000 -0.002080 0.000003
# 3 -0.002259 0.001328 0.017212 0.000001 -0.009483 0.000001
# 4 0.000000 0.000000 0.000001 0.038689 0.000001 -0.029472
# 5 -0.009095 -0.002080 -0.009483 0.000001 0.035433 -0.000002
# 6 0.000000 0.000003 0.000001 -0.029472 -0.000002 0.068750
#
#
# Mechanical properties :
#
#
# Convention : Reuss Voigt Hill
#
# Bulk Modulus (GPa) = 32.41958 60.94111 46.68035
# Shear Modulus (GPa) = 25.52522 40.41806 32.97164
#
# Velocity S-wave (km/s) = 3.19067 4.01500 3.62634
# Velocity P-wave (km/s) = 5.14820 6.76751 6.01262
#
# Compressibility (1/GPa) = 0.03084556
#
# Stress axis : x y z
#
# Youngs Moduli (GPa) = 87.30417 123.12223 58.09734
#
# Poissons Ratio (x) = 0.25124 0.13122
# Poissons Ratio (y) = 0.17815 -0.07713
# Poissons Ratio (z) = 0.19718 -0.16346
#
# Static dielectric constant tensor:
#      x y z
#    x 2.172940 0.000000 0.060740 
#    y 0.000000 1.955460 0.000000 
#    z 0.060740 0.000000 2.162110 
# 
# From -- ./inp_files/281072.got.cif
#   From: 2010.05.17/outbox.cif.g08.bks.cpg/sg15_141_cif.got.tgz:281072.got - 2010.06.03 18:47:42.
