data_PCOD9289821
_publ_section_title
;
Structure prediction by ZEFSAII (Michael W. Deem and Ramdas Pophale) SiO2 
 PCOD9289821
Probable space group: C 2/C
;
_chemical_formula_sum "Si O2"
_cell_formula_units_Z 52
_cell_length_a 15.962948
_cell_length_b 11.467237
_cell_length_c 23.445072
_cell_angle_alpha 90.000000
_cell_angle_beta 37.952867
_cell_angle_gamma 90.000000
_cell_volume 2639.415571
_symmetry_space_group_name_H-M "C 2/C"
_symmetry_group_IT_number 15
_symmetry_cell_setting 'monoclinic'
loop_
_space_group_symop_operation_xyz
x,y,z
-x,y,1/2-z
-x,-y,-z
x,-y,1/2+z
1/2+x,1/2+y,z
1/2-x,1/2+y,1/2-z
1/2-x,1/2-y,-z
1/2+x,1/2-y,1/2+z
loop_
_atom_site_type_symbol
_atom_site_label
_atom_site_fract_x
_atom_site_fract_y
_atom_site_fract_z
Si Si1 0.804220 0.098552 0.789285
Si Si2 0.047201 0.722652 0.140870
Si Si3 0.200659 0.386962 0.466151
Si Si4 0.318101 0.152204 0.003651
Si Si5 0.359500 0.343539 0.794199
Si Si6 0.113365 0.368478 0.291691
Si Si7 0.000000 0.521186 0.250000
O O1 0.699846 0.115704 0.898090
O O2 0.725535 0.078285 0.772804
O O3 0.908119 0.207308 0.727919
O O4 0.876371 0.977875 0.767679
O O5 0.167500 0.813345 0.087282
O O6 0.073247 0.612768 0.168536
O O7 0.068445 0.669945 0.066437
O O8 0.225016 0.516444 0.477840
O O9 0.475385 0.146845 0.901995
O O10 0.250000 0.250000 0.000000
O O11 0.266101 0.177355 0.095439
O O12 0.500000 0.308707 0.750000
O O13 0.341126 0.260070 0.750836
O O14 0.084551 0.441602 0.249110
#
# Coordination Sequence:
#
# PCOD9289821 Si02
#       7
#     8   8   8   8   8   8   4
#     4  11  25  41  65  97 132 165 212 267 321 373
#     4  11  22  41  70  93 130 170 214 262 311 385
#     4  10  22  40  68  95 124 172 219 253 317 381
#     4  11  21  39  65  90 125 166 214 258 311 379
#     4  11  23  43  66  91 128 166 214 259 320 382
#     4  12  26  41  66  97 128 170 211 269 320 375
#     4  12  22  44  64  92 128 170 218 256 318 382
#
# _framework density 19.701331
#
# number of rings (size 3 to 8) (size 9 to 14) (size 15 to 20)
#    0.000    0.923    5.385    1.846    2.154    3.692 
#    0.000    0.000    0.000    3.692    0.000    0.000 
#    0.000    0.000    0.000    0.000    0.000    0.000 
#
# Total GULP energy -144962.423557 kJ/mol
# GULP energy per Si atom -5575.477829 kJ/mol
# Density = 1.965649 g / cm^3
# Si number density = 19.701331 Si / 1000 Ang^3
#
#
#
# Elastic Constant Matrix: (Units=GPa)
#
#
# Indices 1 2 3 4 5 6 
#
# 1 87.7920 30.7656 25.0700 0.0000 16.0929 0.0000
# 2 30.7656 101.9524 41.7967 0.0000 15.8944 0.0000
# 3 25.0700 41.7967 105.0481 0.0000 19.8138 0.0000
# 4 0.0000 0.0000 0.0000 38.7966 0.0000 11.3961
# 5 16.0929 15.8944 19.8138 0.0000 21.4939 0.0000
# 6 0.0000 0.0000 0.0000 11.3961 0.0000 21.1484
#
#
#
# Elastic Compliance Matrix: (Units=1/GPa)
#
#
# Indices 1 2 3 4 5 6 
#
# 1 0.013980 -0.002680 -0.000810 0.000000 -0.007738 0.000000
# 2 -0.002680 0.012752 -0.003673 0.000000 -0.004038 0.000000
# 3 -0.000810 -0.003673 0.012767 0.000000 -0.008447 0.000000
# 4 0.000000 0.000000 0.000000 0.030623 0.000000 -0.016501
# 5 -0.007738 -0.004038 -0.008447 0.000000 0.063091 0.000000
# 6 0.000000 0.000000 0.000000 -0.016501 0.000000 0.056177
#
#
# Mechanical properties :
#
#
# Convention : Reuss Voigt Hill
#
# Bulk Modulus (GPa) = 39.72499 54.45081 47.08790
# Shear Modulus (GPa) = 23.57299 29.43178 26.50239
#
# Velocity S-wave (km/s) = 3.46282 3.86929 3.67169
# Velocity P-wave (km/s) = 6.01628 6.90362 6.47517
#
# Compressibility (1/GPa) = 0.02517307
#
# Stress axis : x y z
#
# Youngs Moduli (GPa) = 71.53302 78.41634 78.32466
#
# Poissons Ratio (x) = 0.21015 0.06348
# Poissons Ratio (y) = 0.19170 0.28767
# Poissons Ratio (z) = 0.05798 0.28800
#
# Static dielectric constant tensor:
#      x y z
#    x 1.667120 0.000000 0.038510 
#    y 0.000000 1.700290 0.000000 
#    z 0.038510 0.000000 1.714690 
# 
# From -- ./inp_files/273812.got.cif
#   From: 2010.05.17/outbox.cif.g08.bks.cpg/sg15_137_cif.got.tgz:273812.got - 2010.06.03 18:47:42.
