data_PCOD9289255
_publ_section_title
;
Structure prediction by ZEFSAII (Michael W. Deem and Ramdas Pophale) SiO2 
 PCOD9289255
Probable space group: C 2/C
;
_chemical_formula_sum "Si O2"
_cell_formula_units_Z 44
_cell_length_a 11.488603
_cell_length_b 20.986307
_cell_length_c 8.521623
_cell_angle_alpha 90.000000
_cell_angle_beta 64.505148
_cell_angle_gamma 90.000000
_cell_volume 1854.523835
_symmetry_space_group_name_H-M "C 2/C"
_symmetry_group_IT_number 15
_symmetry_cell_setting 'monoclinic'
loop_
_space_group_symop_operation_xyz
x,y,z
-x,y,1/2-z
-x,-y,-z
x,-y,1/2+z
1/2+x,1/2+y,z
1/2-x,1/2+y,1/2-z
1/2-x,1/2-y,-z
1/2+x,1/2-y,1/2+z
loop_
_atom_site_type_symbol
_atom_site_label
_atom_site_fract_x
_atom_site_fract_y
_atom_site_fract_z
Si Si1 0.284431 0.935615 0.065586
Si Si2 0.026863 0.394902 0.063717
Si Si3 0.640494 0.683084 0.644781
Si Si4 0.369991 0.235212 0.643620
Si Si5 0.500000 0.653132 0.250000
Si Si6 0.289945 0.429657 0.023045
O O1 0.440254 0.931649 0.986233
O O2 0.230782 0.871369 0.018846
O O3 0.239510 0.929504 0.274063
O O4 0.223028 0.997354 0.024832
O O5 0.000000 0.425888 0.250000
O O6 0.965984 0.324204 0.107038
O O7 0.180263 0.395891 0.977163
O O8 0.500000 0.654491 0.750000
O O9 0.617759 0.741562 0.542102
O O10 0.723163 0.709776 0.743816
O O11 0.403705 0.296765 0.723791
O O12 0.577946 0.606822 0.088744
#
# Coordination Sequence:
#
# PCOD9289255 Si02
#       6
#     8   8   8   8   4   8
#     4  10  23  43  65  92 126 169 218 266 315 380
#     4   9  19  42  65  93 125 166 212 272 318 369
#     4  10  22  40  64  87 128 169 205 268 324 367
#     4  10  22  40  62  95 127 161 219 258 318 392
#     4  12  26  38  64 100 130 172 212 258 322 394
#     4  11  25  40  66  92 132 171 214 263 317 377
#
# _framework density 23.725764999999999
#
# number of rings (size 3 to 8) (size 9 to 14) (size 15 to 20)
#    0.000    1.818    0.909    1.636    6.364    1.455 
#    0.000    0.000    0.000    0.000    0.000    0.000 
#    0.000    0.000    0.000    0.000    0.000    0.000 
#
# Total GULP energy -122803.090015 kJ/mol
# GULP energy per Si atom -5581.958637 kJ/mol
# Density = 2.367176 g / cm^3
# Si number density = 23.725765 Si / 1000 Ang^3
#
#
#
# Elastic Constant Matrix: (Units=GPa)
#
#
# Indices 1 2 3 4 5 6 
#
# 1 79.4101 35.8258 -0.7490 0.0000 0.9220 0.0000
# 2 35.8258 131.6467 13.5101 0.0000 16.2344 0.0000
# 3 -0.7490 13.5101 32.6021 0.0000 7.1180 0.0000
# 4 0.0000 0.0000 0.0000 27.3003 0.0000 7.8531
# 5 0.9220 16.2344 7.1180 0.0000 19.8533 0.0000
# 6 0.0000 0.0000 0.0000 7.8531 0.0000 31.0316
#
#
#
# Elastic Compliance Matrix: (Units=1/GPa)
#
#
# Indices 1 2 3 4 5 6 
#
# 1 0.014578 -0.004427 0.001657 0.000000 0.002349 0.000000
# 2 -0.004427 0.009935 -0.002701 0.000000 -0.006950 0.000000
# 3 0.001657 -0.002701 0.034029 0.000000 -0.010068 0.000000
# 4 0.000000 0.000000 0.000000 0.039505 0.000000 -0.009998
# 5 0.002349 -0.006950 -0.010068 0.000000 0.059553 0.000000
# 6 0.000000 0.000000 0.000000 -0.009998 0.000000 0.034755
#
#
# Mechanical properties :
#
#
# Convention : Reuss Voigt Hill
#
# Bulk Modulus (GPa) = 21.00904 37.87030 29.43967
# Shear Modulus (GPa) = 22.81376 28.64184 25.72780
#
# Velocity S-wave (km/s) = 3.10427 3.47825 3.29657
# Velocity P-wave (km/s) = 4.66077 5.66810 5.18894
#
# Compressibility (1/GPa) = 0.04759855
#
# Stress axis : x y z
#
# Youngs Moduli (GPa) = 68.59445 100.65298 29.38706
#
# Poissons Ratio (x) = 0.44559 -0.04868
# Poissons Ratio (y) = 0.30367 0.07939
# Poissons Ratio (z) = -0.11363 0.27190
#
# Static dielectric constant tensor:
#      x y z
#    x 2.024910 0.000000 -0.019560 
#    y 0.000000 1.890060 0.000000 
#    z -0.019560 0.000000 1.912400 
# 
# From -- ./inp_files/30727.got.cif
#   From: 2010.05.17/outbox.cif.g08.bks.cpg/sg15_16_cif.got.tgz:30727.got - 2010.06.03 18:47:42.
