data_PCOD9289763
_publ_section_title
;
Structure prediction by ZEFSAII (Michael W. Deem and Ramdas Pophale) SiO2 
 PCOD9289763
Probable space group: C 2/C
;
_chemical_formula_sum "Si O2"
_cell_formula_units_Z 44
_cell_length_a 11.690070
_cell_length_b 22.743486
_cell_length_c 7.281903
_cell_angle_alpha 90.000000
_cell_angle_beta 114.444516
_cell_angle_gamma 90.000000
_cell_volume 1762.517171
_symmetry_space_group_name_H-M "C 2/C"
_symmetry_group_IT_number 15
_symmetry_cell_setting 'monoclinic'
loop_
_space_group_symop_operation_xyz
x,y,z
-x,y,1/2-z
-x,-y,-z
x,-y,1/2+z
1/2+x,1/2+y,z
1/2-x,1/2+y,1/2-z
1/2-x,1/2-y,-z
1/2+x,1/2-y,1/2+z
loop_
_atom_site_type_symbol
_atom_site_label
_atom_site_fract_x
_atom_site_fract_y
_atom_site_fract_z
Si Si1 0.227582 0.370806 0.095581
Si Si2 0.101385 0.959145 0.448308
Si Si3 0.267004 0.576527 0.025411
Si Si4 0.953150 0.352426 0.011158
Si Si5 0.898937 0.231933 0.840328
Si Si6 0.000000 0.158999 0.250000
O O1 0.297016 0.405718 0.978240
O O2 0.251250 0.407547 0.299961
O O3 0.078716 0.362995 0.978532
O O4 0.287045 0.307447 0.185337
O O5 0.000000 0.928288 0.250000
O O6 0.187734 0.010473 0.422628
O O7 0.000000 0.000000 0.500000
O O8 0.380817 0.615780 0.178766
O O9 0.135138 0.591369 0.029147
O O10 0.000000 0.338217 0.250000
O O11 0.869015 0.297343 0.890157
O O12 0.000000 0.238378 0.750000
O O13 0.967781 0.198444 0.053398
#
# Coordination Sequence:
#
# PCOD9289763 Si02
#       6
#     8   8   8   8   8   4
#     4  10  24  42  68 102 139 181 238 288 351 424
#     4  12  23  42  69  99 131 177 231 298 348 408
#     4  10  22  40  69 101 137 182 234 284 355 418
#     4  10  23  45  68  98 143 191 227 284 355 423
#     4  11  24  42  68 101 141 185 239 287 343 416
#     4  10  22  40  68 100 134 186 232 288 342 406
#
# _framework density 24.964295
#
# number of rings (size 3 to 8) (size 9 to 14) (size 15 to 20)
#    0.000    1.455    3.636    0.545    5.091    3.636 
#    3.273    0.000    0.000    0.000    0.000    0.000 
#    0.000    0.000    0.000    0.000    0.000    0.000 
#
# Total GULP energy -122929.210922 kJ/mol
# GULP energy per Si atom -5587.691406 kJ/mol
# Density = 2.490747 g / cm^3
# Si number density = 24.964295 Si / 1000 Ang^3
#
#
#
# Elastic Constant Matrix: (Units=GPa)
#
#
# Indices 1 2 3 4 5 6 
#
# 1 145.6486 70.0655 50.8257 0.0000 12.3710 0.0000
# 2 70.0655 124.4333 26.7998 0.0000 7.9094 0.0000
# 3 50.8257 26.7998 83.3183 0.0000 -1.8653 0.0000
# 4 0.0000 0.0000 0.0000 32.0423 0.0000 -2.0244
# 5 12.3710 7.9094 -1.8653 0.0000 29.4374 0.0000
# 6 0.0000 0.0000 0.0000 -2.0244 0.0000 37.0458
#
#
#
# Elastic Compliance Matrix: (Units=1/GPa)
#
#
# Indices 1 2 3 4 5 6 
#
# 1 0.011554 -0.005077 -0.005501 0.000000 -0.003840 0.000000
# 2 -0.005077 0.011053 -0.000478 0.000000 -0.000867 0.000000
# 3 -0.005501 -0.000478 0.015588 0.000000 0.003428 0.000000
# 4 0.000000 0.000000 0.000000 0.031317 0.000000 0.001711
# 5 -0.003840 -0.000867 0.003428 0.000000 0.036034 0.000000
# 6 0.000000 0.000000 0.000000 0.001711 0.000000 0.027087
#
#
# Mechanical properties :
#
#
# Convention : Reuss Voigt Hill
#
# Bulk Modulus (GPa) = 62.17350 72.08691 67.13021
# Shear Modulus (GPa) = 31.22931 33.41907 32.32419
#
# Velocity S-wave (km/s) = 3.54073 3.66276 3.60226
# Velocity P-wave (km/s) = 6.45559 6.84298 6.65211
#
# Compressibility (1/GPa) = 0.01608402
#
# Stress axis : x y z
#
# Youngs Moduli (GPa) = 86.55065 90.47270 64.15067
#
# Poissons Ratio (x) = 0.45932 0.35290
# Poissons Ratio (y) = 0.43941 0.03064
# Poissons Ratio (z) = 0.47612 0.04322
#
# Static dielectric constant tensor:
#      x y z
#    x 1.933360 0.000000 -0.075650 
#    y 0.000000 1.983640 0.000000 
#    z -0.075650 0.000000 2.245890 
# 
# From -- ./inp_files/31025.got.cif
#   From: 2010.05.17/outbox.cif.g08.bks.cpg/sg15_16_cif.got.tgz:31025.got - 2010.06.03 18:47:42.
