data_PCOD9289924
_publ_section_title
;
Structure prediction by ZEFSAII (Michael W. Deem and Ramdas Pophale) SiO2 
 PCOD9289924
Probable space group: C 2/C
;
_chemical_formula_sum "Si O2"
_cell_formula_units_Z 44
_cell_length_a 8.817530
_cell_length_b 12.123992
_cell_length_c 16.074926
_cell_angle_alpha 90.000000
_cell_angle_beta 99.823991
_cell_angle_gamma 90.000000
_cell_volume 1693.269784
_symmetry_space_group_name_H-M "C 2/C"
_symmetry_group_IT_number 15
_symmetry_cell_setting 'monoclinic'
loop_
_space_group_symop_operation_xyz
x,y,z
-x,y,1/2-z
-x,-y,-z
x,-y,1/2+z
1/2+x,1/2+y,z
1/2-x,1/2+y,1/2-z
1/2-x,1/2-y,-z
1/2+x,1/2-y,1/2+z
loop_
_atom_site_type_symbol
_atom_site_label
_atom_site_fract_x
_atom_site_fract_y
_atom_site_fract_z
Si Si1 0.775087 0.782072 0.206189
Si Si2 0.246387 0.052418 0.597165
Si Si3 0.199916 0.294750 0.600719
Si Si4 0.352370 0.159928 0.054985
Si Si5 0.431889 0.510028 0.157522
Si Si6 0.000000 0.385921 0.250000
O O1 0.821149 0.746216 0.303481
O O2 0.816489 0.685629 0.147925
O O3 0.594971 0.810877 0.194831
O O4 0.851673 0.894679 0.178110
O O5 0.249183 0.177717 0.566535
O O6 0.370946 0.050011 0.685086
O O7 0.296738 0.963146 0.534653
O O8 0.075310 0.020695 0.611965
O O9 0.318853 0.395349 0.614121
O O10 0.030941 0.327450 0.555606
O O11 0.250000 0.250000 0.000000
O O12 0.500000 0.556222 0.250000
#
# Coordination Sequence:
#
# PCOD9289924 Si02
#       6
#     8   8   8   8   8   4
#     4  11  23  43  72 104 141 182 232 296 354 416
#     4  11  25  42  69 105 139 180 230 291 348 418
#     4  11  25  44  73 104 138 181 237 296 350 410
#     4  12  27  47  70 100 147 193 231 288 357 425
#     4  12  21  42  70 106 140 176 226 298 358 406
#     4  10  22  40  70 108 136 170 240 292 348 410
#
# _framework density 25.985226000000001
#
# number of rings (size 3 to 8) (size 9 to 14) (size 15 to 20)
#    0.000    0.727    5.455    2.727   12.727    0.727 
#    0.000    4.545    0.000    0.000    0.000    0.000 
#    0.000    0.000    0.000    0.000    0.000    0.000 
#
# Total GULP energy -123410.945830 kJ/mol
# GULP energy per Si atom -5609.588447 kJ/mol
# Density = 2.592608 g / cm^3
# Si number density = 25.985226 Si / 1000 Ang^3
#
#
#
# Elastic Constant Matrix: (Units=GPa)
#
#
# Indices 1 2 3 4 5 6 
#
# 1 212.1362 104.0799 41.9053 0.0000 26.7553 0.0000
# 2 104.0799 240.3584 64.0315 0.0000 23.7228 0.0000
# 3 41.9053 64.0315 62.4259 0.0000 13.6401 0.0000
# 4 0.0000 0.0000 0.0000 38.3263 0.0000 -6.4881
# 5 26.7553 23.7228 13.6401 0.0000 30.2451 0.0000
# 6 0.0000 0.0000 0.0000 -6.4881 0.0000 53.1950
#
#
#
# Elastic Compliance Matrix: (Units=1/GPa)
#
#
# Indices 1 2 3 4 5 6 
#
# 1 0.006448 -0.002064 -0.001462 0.000000 -0.003425 0.000000
# 2 -0.002064 0.006502 -0.005067 0.000000 -0.000988 0.000000
# 3 -0.001462 -0.005067 0.023348 0.000000 -0.005261 0.000000
# 4 0.000000 0.000000 0.000000 0.026642 0.000000 0.003249
# 5 -0.003425 -0.000988 -0.005261 0.000000 0.039241 0.000000
# 6 0.000000 0.000000 0.000000 0.003249 0.000000 0.019195
#
#
# Mechanical properties :
#
#
# Convention : Reuss Voigt Hill
#
# Bulk Modulus (GPa) = 52.33071 103.88378 78.10725
# Shear Modulus (GPa) = 34.49865 44.68019 39.58942
#
# Velocity S-wave (km/s) = 3.64761 4.15112 3.90748
# Velocity P-wave (km/s) = 6.15812 7.93981 7.10503
#
# Compressibility (1/GPa) = 0.01910924
#
# Stress axis : x y z
#
# Youngs Moduli (GPa) = 155.09613 153.80253 42.83029
#
# Poissons Ratio (x) = 0.31750 0.06263
# Poissons Ratio (y) = 0.32017 0.21704
# Poissons Ratio (z) = 0.22681 0.77938
#
# Static dielectric constant tensor:
#      x y z
#    x 2.009460 0.000000 -0.032840 
#    y 0.000000 2.058980 0.000000 
#    z -0.032840 0.000000 2.147590 
# 
# From -- ./inp_files/230298.got.cif
#   From: 2010.05.17/outbox.cif.g08.bks.cpg/sg15_116_cif.got.tgz:230298.got - 2010.06.03 18:47:42.
