data_PCOD9289341
_publ_section_title
;
Structure prediction by ZEFSAII (Michael W. Deem and Ramdas Pophale) SiO2 
 PCOD9289341
Probable space group: C 2/C
;
_chemical_formula_sum "Si O2"
_cell_formula_units_Z 60
_cell_length_a 22.697490
_cell_length_b 24.679202
_cell_length_c 9.260426
_cell_angle_alpha 90.000000
_cell_angle_beta 35.139643
_cell_angle_gamma 90.000000
_cell_volume 2985.650455
_symmetry_space_group_name_H-M "C 2/C"
_symmetry_group_IT_number 15
_symmetry_cell_setting 'monoclinic'
loop_
_space_group_symop_operation_xyz
x,y,z
-x,y,1/2-z
-x,-y,-z
x,-y,1/2+z
1/2+x,1/2+y,z
1/2-x,1/2+y,1/2-z
1/2-x,1/2-y,-z
1/2+x,1/2-y,1/2+z
loop_
_atom_site_type_symbol
_atom_site_label
_atom_site_fract_x
_atom_site_fract_y
_atom_site_fract_z
Si Si1 0.912424 0.875659 0.255028
Si Si2 0.000000 0.737380 0.750000
Si Si3 0.391721 0.157550 0.453471
Si Si4 0.355067 0.614032 0.253354
Si Si5 0.631144 0.740707 0.705770
Si Si6 0.620461 0.522023 0.487237
Si Si7 0.683581 0.197299 0.585399
Si Si8 0.813831 0.903557 0.155541
O O1 0.872071 0.816326 0.369506
O O2 0.866230 0.927021 0.432077
O O3 0.887131 0.889142 0.139954
O O4 0.034135 0.871186 0.028836
O O5 0.905323 0.708220 0.854182
O O6 0.061443 0.764327 0.490867
O O7 0.500000 0.127967 0.250000
O O8 0.403283 0.208974 0.323799
O O9 0.365277 0.177860 0.666522
O O10 0.297940 0.120665 0.589777
O O11 0.352067 0.550243 0.220319
O O12 0.262544 0.650161 0.379877
O O13 0.352689 0.622654 0.429250
O O14 0.750000 0.750000 0.500000
O O15 0.684481 0.467858 0.372548
O O16 0.500000 0.507198 0.750000
O O17 0.750000 0.250000 0.500000
#
# Coordination Sequence:
#
# PCOD9289341 Si02
#       8
#     8   4   8   8   8   8   8   8
#     4  11  23  37  64  98 133 169 212 273 338 407
#     4  12  26  42  68  94 140 186 224 270 332 412
#     4  11  24  44  63  91 138 178 220 280 327 393
#     4  10  23  38  61  96 129 166 216 267 338 395
#     4  12  25  42  66 101 135 178 224 270 336 409
#     4  10  22  40  63  97 132 166 212 281 341 399
#     4  11  24  41  65  93 133 176 220 272 330 404
#     4  11  22  40  67  88 129 176 220 269 332 396
#
# _framework density 20.096122999999999
#
# number of rings (size 3 to 8) (size 9 to 14) (size 15 to 20)
#    0.000    1.067    2.667    3.600    7.467    2.667 
#    0.000    0.000    1.467    2.400    0.000    0.000 
#    0.000    0.000    0.000    0.000    0.000    0.000 
#
# Total GULP energy -167452.983858 kJ/mol
# GULP energy per Si atom -5581.766129 kJ/mol
# Density = 2.005038 g / cm^3
# Si number density = 20.096123 Si / 1000 Ang^3
#
#
#
# Elastic Constant Matrix: (Units=GPa)
#
#
# Indices 1 2 3 4 5 6 
#
# 1 101.0139 29.0351 28.4044 0.0000 -4.5990 0.0000
# 2 29.0351 117.4928 37.9536 0.0000 -14.2305 0.0000
# 3 28.4044 37.9536 105.2259 0.0000 -0.5172 0.0000
# 4 0.0000 0.0000 0.0000 16.9261 0.0000 4.7874
# 5 -4.5990 -14.2305 -0.5172 0.0000 40.4463 0.0000
# 6 0.0000 0.0000 0.0000 4.7874 0.0000 22.5059
#
#
#
# Elastic Compliance Matrix: (Units=1/GPa)
#
#
# Indices 1 2 3 4 5 6 
#
# 1 0.011130 -0.001940 -0.002302 0.000000 0.000554 0.000000
# 2 -0.001940 0.010447 -0.003228 0.000000 0.003414 0.000000
# 3 -0.002302 -0.003228 0.011283 0.000000 -0.001253 0.000000
# 4 0.000000 0.000000 0.000000 0.062862 0.000000 -0.013372
# 5 0.000554 0.003414 -0.001253 0.000000 0.025972 0.000000
# 6 0.000000 0.000000 0.000000 -0.013372 0.000000 0.047277
#
#
# Mechanical properties :
#
#
# Convention : Reuss Voigt Hill
#
# Bulk Modulus (GPa) = 55.80209 57.16873 56.48541
# Shear Modulus (GPa) = 26.33204 31.19831 28.76517
#
# Velocity S-wave (km/s) = 3.62374 3.94439 3.78746
# Velocity P-wave (km/s) = 6.73324 7.01810 6.87715
#
# Compressibility (1/GPa) = 0.01792048
#
# Stress axis : x y z
#
# Youngs Moduli (GPa) = 89.84985 95.72535 88.63109
#
# Poissons Ratio (x) = 0.18568 0.20402
# Poissons Ratio (y) = 0.17429 0.28606
# Poissons Ratio (z) = 0.20683 0.30896
#
# Static dielectric constant tensor:
#      x y z
#    x 1.782030 0.000000 0.037800 
#    y 0.000000 1.733780 0.000000 
#    z 0.037800 0.000000 1.740990 
# 
# From -- ./inp_files/58721.got.cif
#   From: 2010.05.17/outbox.cif.g08.bks.cpg/sg15_30_cif.got.tgz:58721.got - 2010.06.03 18:47:42.
