data_PCOD9289087
_publ_section_title
;
Structure prediction by ZEFSAII (Michael W. Deem and Ramdas Pophale) SiO2 
 PCOD9289087
Probable space group: C 2/C
;
_chemical_formula_sum "Si O2"
_cell_formula_units_Z 56
_cell_length_a 10.001865
_cell_length_b 9.852436
_cell_length_c 31.158331
_cell_angle_alpha 90.000000
_cell_angle_beta 60.708393
_cell_angle_gamma 90.000000
_cell_volume 2677.845252
_symmetry_space_group_name_H-M "C 2/C"
_symmetry_group_IT_number 15
_symmetry_cell_setting 'monoclinic'
loop_
_space_group_symop_operation_xyz
x,y,z
-x,y,1/2-z
-x,-y,-z
x,-y,1/2+z
1/2+x,1/2+y,z
1/2-x,1/2+y,1/2-z
1/2-x,1/2-y,-z
1/2+x,1/2-y,1/2+z
loop_
_atom_site_type_symbol
_atom_site_label
_atom_site_fract_x
_atom_site_fract_y
_atom_site_fract_z
Si Si1 0.367970 0.324748 0.236157
Si Si2 0.161506 0.312033 0.418254
Si Si3 0.483518 0.972176 0.615604
Si Si4 0.316278 0.904576 0.997428
Si Si5 0.470136 0.322071 0.127205
Si Si6 0.577958 0.005673 0.282580
Si Si7 0.006484 0.969859 0.549586
O O1 0.500000 0.354840 0.250000
O O2 0.411120 0.376007 0.181688
O O3 0.360944 0.160241 0.233827
O O4 0.212563 0.400839 0.271943
O O5 0.093247 0.378941 0.472694
O O6 0.345188 0.302424 0.395400
O O7 0.121987 0.407761 0.384897
O O8 0.078623 0.168667 0.426902
O O9 0.610005 0.951942 0.558617
O O10 0.400836 0.826186 0.629438
O O11 0.529803 0.993162 0.658011
O O12 0.250000 0.750000 0.000000
O O13 0.187625 0.015144 0.029852
O O14 0.439265 0.415022 0.091223
O O15 0.500000 0.966593 0.250000
O O16 0.000000 0.000000 0.500000
#
# Coordination Sequence:
#
# PCOD9289087 Si02
#       7
#     8   8   8   8   8   8   8
#     4  10  22  42  66  90 124 166 211 267 327 387
#     4  11  22  38  62  90 124 159 212 254 305 380
#     4  11  21  40  64  86 125 168 202 263 320 375
#     4  11  20  39  59  87 129 163 205 251 310 382
#     4  10  22  40  60  87 122 161 205 254 317 375
#     4  10  24  43  65  95 126 165 218 272 328 383
#     4  11  20  35  61  89 121 165 201 248 305 369
#
# _framework density 20.912336
#
# number of rings (size 3 to 8) (size 9 to 14) (size 15 to 20)
#    0.000    1.429    4.286    1.286    0.000    6.857 
#    0.000   10.000    0.000    0.000    0.000    0.000 
#    0.000    0.000    0.000    0.000    0.000    0.000 
#
# Total GULP energy -156137.331373 kJ/mol
# GULP energy per Si atom -5576.333263 kJ/mol
# Density = 2.086474 g / cm^3
# Si number density = 20.912336 Si / 1000 Ang^3
#
#
#
# Elastic Constant Matrix: (Units=GPa)
#
#
# Indices 1 2 3 4 5 6 
#
# 1 57.1730 51.8996 22.4108 0.0000 13.5252 0.0000
# 2 51.8996 95.6823 40.3464 0.0000 20.1382 0.0000
# 3 22.4108 40.3464 147.4723 0.0000 23.4136 0.0000
# 4 0.0000 0.0000 0.0000 31.9671 0.0000 4.0221
# 5 13.5252 20.1382 23.4136 0.0000 37.4104 0.0000
# 6 0.0000 0.0000 0.0000 4.0221 0.0000 29.8102
#
#
#
# Elastic Compliance Matrix: (Units=1/GPa)
#
#
# Indices 1 2 3 4 5 6 
#
# 1 0.034705 -0.018311 0.000181 0.000000 -0.002803 0.000000
# 2 -0.018311 0.022312 -0.002738 0.000000 -0.003677 0.000000
# 3 0.000181 -0.002738 0.008082 0.000000 -0.003650 0.000000
# 4 0.000000 0.000000 0.000000 0.031822 0.000000 -0.004294
# 5 -0.002803 -0.003677 -0.003650 0.000000 0.032008 0.000000
# 6 0.000000 0.000000 0.000000 -0.004294 0.000000 0.034125
#
#
# Mechanical properties :
#
#
# Convention : Reuss Voigt Hill
#
# Bulk Modulus (GPa) = 42.80282 58.84904 50.82593
# Shear Modulus (GPa) = 23.52096 32.21558 27.86827
#
# Velocity S-wave (km/s) = 3.35735 3.92919 3.65447
# Velocity P-wave (km/s) = 5.96165 6.98474 6.49338
#
# Compressibility (1/GPa) = 0.02336294
#
# Stress axis : x y z
#
# Youngs Moduli (GPa) = 28.81440 44.81980 123.73259
#
# Poissons Ratio (x) = 0.82068 -0.02235
# Poissons Ratio (y) = 0.52761 0.33875
# Poissons Ratio (z) = -0.00521 0.12271
#
# Static dielectric constant tensor:
#      x y z
#    x 1.806930 0.000000 -0.025030 
#    y 0.000000 1.769720 0.000000 
#    z -0.025030 0.000000 1.812700 
# 
# From -- ./inp_files/309933.got.cif
#   From: 2010.05.17/outbox.cif.g08.bks.cpg/sg15_155_cif.got.tgz:309933.got - 2010.06.03 18:47:42.
