data_PCOD9289968
_publ_section_title
;
Structure prediction by ZEFSAII (Michael W. Deem and Ramdas Pophale) SiO2 
 PCOD9289968
Probable space group: C 2/C
;
_chemical_formula_sum "Si O2"
_cell_formula_units_Z 48
_cell_length_a 14.781291
_cell_length_b 11.170820
_cell_length_c 12.578584
_cell_angle_alpha 90.000000
_cell_angle_beta 79.064697
_cell_angle_gamma 90.000000
_cell_volume 2039.251487
_symmetry_space_group_name_H-M "C 2/C"
_symmetry_group_IT_number 15
_symmetry_cell_setting 'monoclinic'
loop_
_space_group_symop_operation_xyz
x,y,z
-x,y,1/2-z
-x,-y,-z
x,-y,1/2+z
1/2+x,1/2+y,z
1/2-x,1/2+y,1/2-z
1/2-x,1/2-y,-z
1/2+x,1/2-y,1/2+z
loop_
_atom_site_type_symbol
_atom_site_label
_atom_site_fract_x
_atom_site_fract_y
_atom_site_fract_z
Si Si1 0.005041 0.445678 0.621228
Si Si2 0.491350 0.777395 0.377748
Si Si3 0.688979 0.183692 0.342186
Si Si4 0.688117 0.378626 0.513946
Si Si5 0.668630 0.775992 0.601109
Si Si6 0.916142 0.093721 0.006093
O O1 0.997551 0.415543 0.415425
O O2 0.916719 0.359522 0.619481
O O3 0.000000 0.456654 0.750000
O O4 0.104990 0.387409 0.581591
O O5 0.500000 0.778007 0.250000
O O6 0.400038 0.700917 0.428176
O O7 0.571330 0.697658 0.411690
O O8 0.719090 0.298408 0.406718
O O9 0.752240 0.092122 0.394392
O O10 0.700996 0.206685 0.215019
O O11 0.668476 0.505499 0.464996
O O12 0.750000 0.750000 0.500000
O O13 0.597644 0.662884 0.602443
O O14 0.000000 0.000000 0.000000
#
# Coordination Sequence:
#
# PCOD9289968 Si02
#       6
#     8   8   8   8   8   8
#     4   9  20  43  70  97 136 187 226 280 349 418
#     4  10  22  40  71 105 141 181 230 287 347 412
#     4  10  23  46  69  94 142 187 230 282 357 418
#     4  10  23  42  66  99 136 186 230 283 347 419
#     4  11  25  43  70 104 137 178 238 295 344 416
#     4  10  23  42  65 102 139 184 234 287 349 412
#
# _framework density 23.538049999999998
#
# number of rings (size 3 to 8) (size 9 to 14) (size 15 to 20)
#    0.000    2.000    0.000    2.000    2.333    9.333 
#    6.000    0.833    0.000    0.000    0.000    0.000 
#    0.000    0.000    0.000    0.000    0.000    0.000 
#
# Total GULP energy -133797.585377 kJ/mol
# GULP energy per Si atom -5574.899391 kJ/mol
# Density = 2.348448 g / cm^3
# Si number density = 23.538050 Si / 1000 Ang^3
#
#
#
# Elastic Constant Matrix: (Units=GPa)
#
#
# Indices 1 2 3 4 5 6 
#
# 1 124.2597 48.1697 71.1727 0.0000 17.7035 0.0000
# 2 48.1697 131.3009 47.8192 0.0000 8.3039 0.0000
# 3 71.1727 47.8192 164.8316 0.0000 21.6573 0.0000
# 4 0.0000 0.0000 0.0000 -0.4771 0.0000 4.6076
# 5 17.7035 8.3039 21.6573 0.0000 45.3400 0.0000
# 6 0.0000 0.0000 0.0000 4.6076 0.0000 22.6220
#
#
#
# Elastic Compliance Matrix: (Units=1/GPa)
#
#
# Indices 1 2 3 4 5 6 
#
# 1 0.011680 -0.002700 -0.003975 0.000000 -0.002167 0.000000
# 2 -0.002700 0.009147 -0.001500 0.000000 0.000096 0.000000
# 3 -0.003975 -0.001500 0.008513 0.000000 -0.002239 0.000000
# 4 0.000000 0.000000 0.000000 -0.706413 0.000000 0.143881
# 5 -0.002167 0.000096 -0.002239 0.000000 0.023954 0.000000
# 6 0.000000 0.000000 0.000000 0.143881 0.000000 0.014899
#
#
# Mechanical properties :
#
#
# Convention : Reuss Voigt Hill
#
# Bulk Modulus (GPa) = 76.99173 83.85729 80.42451
# Shear Modulus (GPa) = -8.09665 30.37902 11.14118
#
# Velocity S-wave (km/s) = -1.85669 3.59644 2.17797
# Velocity P-wave (km/s) = 5.30887 7.27664 6.36920
#
# Compressibility (1/GPa) = 0.01298841
#
# Stress axis : x y z
#
# Youngs Moduli (GPa) = 85.61579 109.32485 117.47093
#
# Poissons Ratio (x) = 0.29520 0.46698
# Poissons Ratio (y) = 0.23118 0.17624
# Poissons Ratio (z) = 0.34034 0.16402
#
# Static dielectric constant tensor:
#      x y z
#    x 2.034100 0.000000 0.037400 
#    y 0.000000 1.987230 0.000000 
#    z 0.037400 0.000000 1.921750 
# 
# From -- ./inp_files/96405.got.cif
#   From: 2010.05.17/outbox.cif.g08.bks.cpg/sg15_49_cif.got.tgz:96405.got - 2010.06.03 18:47:42.
