data_PCOD9289632
_publ_section_title
;
Structure prediction by ZEFSAII (Michael W. Deem and Ramdas Pophale) SiO2 
 PCOD9289632
Probable space group: C 2/C
;
_chemical_formula_sum "Si O2"
_cell_formula_units_Z 40
_cell_length_a 16.427034
_cell_length_b 11.015072
_cell_length_c 30.174492
_cell_angle_alpha 90.000000
_cell_angle_beta 162.999005
_cell_angle_gamma 90.000000
_cell_volume 1596.417469
_symmetry_space_group_name_H-M "C 2/C"
_symmetry_group_IT_number 15
_symmetry_cell_setting 'monoclinic'
loop_
_space_group_symop_operation_xyz
x,y,z
-x,y,1/2-z
-x,-y,-z
x,-y,1/2+z
1/2+x,1/2+y,z
1/2-x,1/2+y,1/2-z
1/2-x,1/2-y,-z
1/2+x,1/2-y,1/2+z
loop_
_atom_site_type_symbol
_atom_site_label
_atom_site_fract_x
_atom_site_fract_y
_atom_site_fract_z
Si Si1 0.781664 0.146437 0.884191
Si Si2 0.649454 0.000558 0.124879
Si Si3 0.465851 0.492304 0.057461
Si Si4 0.303183 0.740993 0.335682
Si Si5 0.811022 0.892490 0.070080
O O1 0.500000 0.216670 0.750000
O O2 0.814631 0.096884 0.852137
O O3 0.774637 0.033666 0.916159
O O4 0.058626 0.216097 0.044291
O O5 0.581075 0.874468 0.116259
O O6 0.982530 0.988471 0.296782
O O7 0.500000 0.000000 0.000000
O O8 0.497569 0.106070 0.072294
O O9 0.603884 0.622034 0.141808
O O10 0.333501 0.434599 0.031342
O O11 0.976593 0.767813 0.164848
#
# Coordination Sequence:
#
# PCOD9289632 Si02
#       5
#     8   8   8   8   8
#     4   9  19  39  68  92 130 169 217 263 315 390
#     4  10  22  42  62  89 131 172 213 264 325 383
#     4   9  20  42  59 100 122 168 215 273 310 381
#     4   8  21  40  61  93 123 174 210 261 329 372
#     4  10  22  40  66  94 130 164 220 270 309 396
#
# _framework density 25.056104000000001
#
# number of rings (size 3 to 8) (size 9 to 14) (size 15 to 20)
#    2.400    0.400    0.000    0.600    2.800    2.400 
#   10.800    1.000    0.000    0.000    0.000    0.000 
#    0.000    0.000    0.000    0.000    0.000    0.000 
#
# Total GULP energy -111348.344690 kJ/mol
# GULP energy per Si atom -5567.417234 kJ/mol
# Density = 2.499908 g / cm^3
# Si number density = 25.056104 Si / 1000 Ang^3
#
#
#
# Elastic Constant Matrix: (Units=GPa)
#
#
# Indices 1 2 3 4 5 6 
#
# 1 83.7529 -4.7714 14.1956 0.0181 -15.6599 0.0209
# 2 -4.7714 79.1289 32.5526 0.0109 3.7497 0.0146
# 3 14.1956 32.5526 76.4374 0.0612 -11.6489 0.0491
# 4 0.0181 0.0109 0.0612 28.1418 -0.0341 -8.9112
# 5 -15.6599 3.7497 -11.6489 -0.0341 27.8422 -0.0079
# 6 0.0209 0.0146 0.0491 -8.9112 -0.0079 -6.1559
#
#
#
# Elastic Compliance Matrix: (Units=1/GPa)
#
#
# Indices 1 2 3 4 5 6 
#
# 1 0.013607 0.001376 -0.002110 0.000007 0.006585 0.000013
# 2 0.001376 0.016176 -0.007860 0.000000 -0.004693 -0.000013
# 3 -0.002110 -0.007860 0.017946 0.000006 0.007381 0.000099
# 4 0.000007 0.000000 0.000006 0.024366 0.000026 -0.035271
# 5 0.006585 -0.004693 0.007381 0.000026 0.043341 -0.000024
# 6 0.000013 -0.000013 0.000099 -0.035271 -0.000024 -0.111386
#
#
# Mechanical properties :
#
#
# Convention : Reuss Voigt Hill
#
# Bulk Modulus (GPa) = 32.74006 35.91921 34.32963
# Shear Modulus (GPa) = 159.14612 23.12176 91.13394
#
# Velocity S-wave (km/s) = 7.97833 3.04106 6.03746
# Velocity P-wave (km/s) = 9.89782 5.16695 7.89507
#
# Compressibility (1/GPa) = 0.03054363
#
# Stress axis : x y z
#
# Youngs Moduli (GPa) = 73.49062 61.81829 55.72138
#
# Poissons Ratio (x) = -0.08508 0.11755
# Poissons Ratio (y) = -0.10114 0.43796
# Poissons Ratio (z) = 0.15504 0.48589
#
# Static dielectric constant tensor:
#      x y z
#    x 1.926980 0.000030 0.002460 
#    y 0.000030 2.054470 -0.000030 
#    z 0.002460 -0.000030 2.073390 
# 
# From -- ./inp_files/296645.got.cif
#   From: 2010.05.17/outbox.cif.g08.bks.cpg/sg15_149_cif.got.tgz:296645.got - 2010.06.03 18:47:42.
