data_PCOD9289960
_publ_section_title
;
Structure prediction by ZEFSAII (Michael W. Deem and Ramdas Pophale) SiO2 
 PCOD9289960
Probable space group: C 2/C
;
_chemical_formula_sum "Si O2"
_cell_formula_units_Z 52
_cell_length_a 22.119984
_cell_length_b 8.699604
_cell_length_c 14.469091
_cell_angle_alpha 90.000000
_cell_angle_beta 59.267716
_cell_angle_gamma 90.000000
_cell_volume 2393.337762
_symmetry_space_group_name_H-M "C 2/C"
_symmetry_group_IT_number 15
_symmetry_cell_setting 'monoclinic'
loop_
_space_group_symop_operation_xyz
x,y,z
-x,y,1/2-z
-x,-y,-z
x,-y,1/2+z
1/2+x,1/2+y,z
1/2-x,1/2+y,1/2-z
1/2-x,1/2-y,-z
1/2+x,1/2-y,1/2+z
loop_
_atom_site_type_symbol
_atom_site_label
_atom_site_fract_x
_atom_site_fract_y
_atom_site_fract_z
Si Si1 0.452378 0.151713 0.134584
Si Si2 0.000000 0.212833 0.250000
Si Si3 0.802973 0.864277 0.751935
Si Si4 0.945677 0.001234 0.127078
Si Si5 0.190351 0.501514 0.710079
Si Si6 0.922538 0.567353 0.946094
Si Si7 0.263111 0.927265 0.518947
O O1 0.442607 0.328245 0.166079
O O2 0.390149 0.052890 0.229063
O O3 0.528280 0.082686 0.100804
O O4 0.442580 0.135546 0.030950
O O5 0.056251 0.318463 0.153037
O O6 0.032838 0.111698 0.305798
O O7 0.809341 0.681792 0.762503
O O8 0.794503 0.951705 0.857137
O O9 0.870835 0.935858 0.650573
O O10 0.733188 0.901262 0.749658
O O11 0.000000 0.000000 0.000000
O O12 0.231180 0.483423 0.581307
O O13 0.839418 0.546963 0.005173
O O14 0.250000 0.750000 0.500000
#
# Coordination Sequence:
#
# PCOD9289960 Si02
#       7
#     8   4   8   8   8   8   8
#     4  11  24  44  71 102 137 189 237 296 352 428
#     4  12  24  44  70 102 138 182 230 294 362 426
#     4  11  24  42  67  99 138 182 234 287 356 426
#     4  12  27  44  68 103 142 185 239 300 361 423
#     4  11  23  44  71 101 137 184 233 288 359 428
#     4  11  22  42  74  99 138 184 241 286 355 427
#     4  10  22  40  70  98 132 183 226 281 348 423
#
# _framework density 21.726980000000001
#
# number of rings (size 3 to 8) (size 9 to 14) (size 15 to 20)
#    0.000    0.923    3.077    4.615    4.308    3.077 
#    0.000    3.077    0.000    0.000    0.000    0.000 
#    0.000    0.000    0.000    0.000    0.000    0.000 
#
# Total GULP energy -145401.752186 kJ/mol
# GULP energy per Si atom -5592.375084 kJ/mol
# Density = 2.167753 g / cm^3
# Si number density = 21.726980 Si / 1000 Ang^3
#
#
#
# Elastic Constant Matrix: (Units=GPa)
#
#
# Indices 1 2 3 4 5 6 
#
# 1 81.3994 28.2790 4.1708 0.0000 -13.7721 0.0000
# 2 28.2790 97.5729 12.4107 0.0000 -5.4325 0.0000
# 3 4.1708 12.4107 106.4808 0.0000 -4.0930 0.0000
# 4 0.0000 0.0000 0.0000 21.8945 0.0000 3.8257
# 5 -13.7721 -5.4325 -4.0930 0.0000 39.9827 0.0000
# 6 0.0000 0.0000 0.0000 3.8257 0.0000 35.7096
#
#
#
# Elastic Compliance Matrix: (Units=1/GPa)
#
#
# Indices 1 2 3 4 5 6 
#
# 1 0.014398 -0.003935 0.000065 0.000000 0.004432 0.000000
# 2 -0.003935 0.011545 -0.001188 0.000000 0.000092 0.000000
# 3 0.000065 -0.001188 0.009560 0.000000 0.000840 0.000000
# 4 0.000000 0.000000 0.000000 0.046545 0.000000 -0.004987
# 5 0.004432 0.000092 0.000840 0.000000 0.026636 0.000000
# 6 0.000000 0.000000 0.000000 -0.004987 0.000000 0.028538
#
#
# Mechanical properties :
#
#
# Convention : Reuss Voigt Hill
#
# Bulk Modulus (GPa) = 39.38850 41.68601 40.53726
# Shear Modulus (GPa) = 32.09248 35.55686 33.82467
#
# Velocity S-wave (km/s) = 3.84745 4.04979 3.94992
# Velocity P-wave (km/s) = 6.15673 6.41059 6.28495
#
# Compressibility (1/GPa) = 0.02538812
#
# Stress axis : x y z
#
# Youngs Moduli (GPa) = 69.45178 86.61538 104.60733
#
# Poissons Ratio (x) = 0.34079 -0.00679
# Poissons Ratio (y) = 0.27326 0.12427
# Poissons Ratio (z) = -0.00451 0.10290
#
# Static dielectric constant tensor:
#      x y z
#    x 1.867570 0.000000 -0.002690 
#    y 0.000000 1.770440 0.000000 
#    z -0.002690 0.000000 1.824950 
# 
# From -- ./inp_files/171728.got.cif
#   From: 2010.05.17/outbox.cif.g08.bks.cpg/sg15_86_cif.got.tgz:171728.got - 2010.06.03 18:47:42.
