data_PCOD9289403
_publ_section_title
;
Structure prediction by ZEFSAII (Michael W. Deem and Ramdas Pophale) SiO2 
 PCOD9289403
Probable space group: C 2/C
;
_chemical_formula_sum "Si O2"
_cell_formula_units_Z 44
_cell_length_a 12.026303
_cell_length_b 19.784404
_cell_length_c 12.820211
_cell_angle_alpha 90.000000
_cell_angle_beta 134.829817
_cell_angle_gamma 90.000000
_cell_volume 2163.323308
_symmetry_space_group_name_H-M "C 2/C"
_symmetry_group_IT_number 15
_symmetry_cell_setting 'monoclinic'
loop_
_space_group_symop_operation_xyz
x,y,z
-x,y,1/2-z
-x,-y,-z
x,-y,1/2+z
1/2+x,1/2+y,z
1/2-x,1/2+y,1/2-z
1/2-x,1/2-y,-z
1/2+x,1/2-y,1/2+z
loop_
_atom_site_type_symbol
_atom_site_label
_atom_site_fract_x
_atom_site_fract_y
_atom_site_fract_z
Si Si1 0.888924 0.861932 0.894221
Si Si2 0.949952 0.404899 0.866325
Si Si3 0.671830 0.780462 0.052420
Si Si4 0.193753 0.491414 0.554164
Si Si5 0.500000 0.584222 0.250000
Si Si6 0.612534 0.395367 0.223802
O O1 0.715505 0.892435 0.798492
O O2 0.886203 0.782945 0.919984
O O3 0.936218 0.874771 0.806339
O O4 0.010909 0.896048 0.053261
O O5 0.901797 0.433414 0.949064
O O6 0.037515 0.333408 0.931145
O O7 0.074945 0.461347 0.911290
O O8 0.795361 0.825255 0.199071
O O9 0.750000 0.750000 0.000000
O O10 0.351061 0.459501 0.610532
O O11 0.265988 0.543088 0.688027
O O12 0.500000 0.400331 0.250000
#
# Coordination Sequence:
#
# PCOD9289403 Si02
#       6
#     8   8   8   8   4   8
#     4  11  23  39  63  96 124 165 209 251 319 371
#     4   9  21  38  64  87 124 161 203 263 300 368
#     4  11  22  40  61  91 128 158 207 260 313 365
#     4   9  19  42  61  87 125 161 211 250 309 370
#     4  10  22  40  64  92 128 170 204 254 310 388
#     4  11  21  38  64  91 122 159 203 263 305 361
#
# _framework density 20.339078000000001
#
# number of rings (size 3 to 8) (size 9 to 14) (size 15 to 20)
#    0.000    1.818    2.727    1.091    0.000    2.909 
#    0.000    8.182    4.000    9.818    0.000    0.000 
#    0.000    0.000    0.000    0.000    0.000    0.000 
#
# Total GULP energy -122835.372375 kJ/mol
# GULP energy per Si atom -5583.426017 kJ/mol
# Density = 2.029279 g / cm^3
# Si number density = 20.339078 Si / 1000 Ang^3
#
#
#
# Elastic Constant Matrix: (Units=GPa)
#
#
# Indices 1 2 3 4 5 6 
#
# 1 108.3339 52.0302 41.9295 0.0000 9.5950 0.0000
# 2 52.0302 108.5087 27.2871 0.0000 1.6773 0.0000
# 3 41.9295 27.2871 125.1032 0.0000 13.0321 0.0000
# 4 0.0000 0.0000 0.0000 8.6262 0.0000 18.4998
# 5 9.5950 1.6773 13.0321 0.0000 33.4065 0.0000
# 6 0.0000 0.0000 0.0000 18.4998 0.0000 32.0171
#
#
#
# Elastic Compliance Matrix: (Units=1/GPa)
#
#
# Indices 1 2 3 4 5 6 
#
# 1 0.013275 -0.005578 -0.002986 0.000000 -0.002368 0.000000
# 2 -0.005578 0.012098 -0.000910 0.000000 0.001350 0.000000
# 3 -0.002986 -0.000910 0.009484 0.000000 -0.002796 0.000000
# 4 0.000000 0.000000 0.000000 -0.484695 0.000000 0.280061
# 5 -0.002368 0.001350 -0.002796 0.000000 0.031638 0.000000
# 6 0.000000 0.000000 0.000000 0.280061 0.000000 -0.130589
#
#
# Mechanical properties :
#
#
# Convention : Reuss Voigt Hill
#
# Bulk Modulus (GPa) = 62.85447 64.93773 63.89610
# Shear Modulus (GPa) = -9.53221 29.52324 9.99552
#
# Velocity S-wave (km/s) = -2.16721 3.81406 2.21926
# Velocity P-wave (km/s) = 4.97071 7.16889 6.16850
#
# Compressibility (1/GPa) = 0.01590977
#
# Stress axis : x y z
#
# Youngs Moduli (GPa) = 75.32916 82.65522 105.44118
#
# Poissons Ratio (x) = 0.46105 0.31484
# Poissons Ratio (y) = 0.42018 0.09595
# Poissons Ratio (z) = 0.22493 0.07521
#
# Static dielectric constant tensor:
#      x y z
#    x 1.737160 0.000000 0.045100 
#    y 0.000000 1.736090 0.000000 
#    z 0.045100 0.000000 1.739960 
# 
# From -- ./inp_files/89204.got.cif
#   From: 2010.05.17/outbox.cif.g08.bks.cpg/sg15_45_cif.got.tgz:89204.got - 2010.06.03 18:47:42.
