data_PCOD9289018
_publ_section_title
;
Structure prediction by ZEFSAII (Michael W. Deem and Ramdas Pophale) SiO2 
 PCOD9289018
Probable space group: C 2/C
;
_chemical_formula_sum "Si O2"
_cell_formula_units_Z 60
_cell_length_a 30.005343
_cell_length_b 17.239683
_cell_length_c 12.377749
_cell_angle_alpha 90.000000
_cell_angle_beta 149.804839
_cell_angle_gamma 90.000000
_cell_volume 3220.265825
_symmetry_space_group_name_H-M "C 2/C"
_symmetry_group_IT_number 15
_symmetry_cell_setting 'monoclinic'
loop_
_space_group_symop_operation_xyz
x,y,z
-x,y,1/2-z
-x,-y,-z
x,-y,1/2+z
1/2+x,1/2+y,z
1/2-x,1/2+y,1/2-z
1/2-x,1/2-y,-z
1/2+x,1/2-y,1/2+z
loop_
_atom_site_type_symbol
_atom_site_label
_atom_site_fract_x
_atom_site_fract_y
_atom_site_fract_z
Si Si1 0.096638 0.315234 0.992287
Si Si2 0.921773 0.186133 0.169705
Si Si3 0.750000 0.750000 0.000000
Si Si4 0.529048 0.584354 0.021088
Si Si5 0.170749 0.694440 0.876938
Si Si6 0.214272 0.938178 0.785736
Si Si7 0.242821 0.883870 0.300196
Si Si8 0.364603 0.339468 0.058100
O O1 0.104632 0.314270 0.137996
O O2 0.174133 0.368073 0.104802
O O3 0.114321 0.228670 0.983631
O O4 0.000000 0.339596 0.750000
O O5 0.958442 0.139407 0.349180
O O6 0.875331 0.262734 0.119558
O O7 0.000000 0.203406 0.250000
O O8 0.846717 0.135932 0.952964
O O9 0.749236 0.677036 0.911130
O O10 0.686158 0.700101 0.949344
O O11 0.454292 0.620824 0.787753
O O12 0.500000 0.500000 0.000000
O O13 0.622021 0.574727 0.155191
O O14 0.250000 0.750000 0.000000
O O15 0.212610 0.613840 0.001618
O O16 0.196661 0.902255 0.630384
O O17 0.238651 0.027956 0.830687
#
# Coordination Sequence:
#
# PCOD9289018 Si02
#       8
#     8   8   4   8   8   8   8   8
#     4  11  22  41  67  89 118 168 225 265 313 380
#     4  12  23  39  63  95 133 170 209 264 327 393
#     4  10  22  40  56  82 128 166 206 256 330 384
#     4  12  23  36  58  95 133 164 206 262 331 399
#     4  12  21  44  67  93 124 172 218 259 322 389
#     4  12  23  39  64  92 126 170 216 269 324 381
#     4  11  24  41  61  93 129 170 216 269 328 388
#     4  11  21  36  61  91 123 164 211 260 319 398
#
# _framework density 18.632002
#
# number of rings (size 3 to 8) (size 9 to 14) (size 15 to 20)
#    0.000    0.533    4.000    6.000    0.000    2.133 
#    0.000    1.333    0.000    0.000    0.000    0.000 
#    0.000    0.000    0.000    0.000    0.000    0.000 
#
# Total GULP energy -167320.336213 kJ/mol
# GULP energy per Si atom -5577.344540 kJ/mol
# Density = 1.858960 g / cm^3
# Si number density = 18.632002 Si / 1000 Ang^3
#
#
#
# Elastic Constant Matrix: (Units=GPa)
#
#
# Indices 1 2 3 4 5 6 
#
# 1 57.1282 36.9184 11.1887 0.0000 9.1782 0.0000
# 2 36.9184 106.7547 46.4096 0.0000 -14.1643 0.0000
# 3 11.1887 46.4096 86.8644 0.0000 -4.3913 0.0000
# 4 0.0000 0.0000 0.0000 17.4137 0.0000 1.1683
# 5 9.1782 -14.1643 -4.3913 0.0000 23.4939 0.0000
# 6 0.0000 0.0000 0.0000 1.1683 0.0000 19.5777
#
#
#
# Elastic Compliance Matrix: (Units=1/GPa)
#
#
# Indices 1 2 3 4 5 6 
#
# 1 0.028860 -0.013636 0.002607 0.000000 -0.019008 0.000000
# 2 -0.013636 0.019608 -0.007928 0.000000 0.015667 0.000000
# 3 0.002607 -0.007928 0.015263 0.000000 -0.002945 0.000000
# 4 0.000000 0.000000 0.000000 0.057657 0.000000 -0.003441
# 5 -0.019008 0.015667 -0.002945 0.000000 0.058885 0.000000
# 6 0.000000 0.000000 0.000000 -0.003441 0.000000 0.051284
#
#
# Mechanical properties :
#
#
# Convention : Reuss Voigt Hill
#
# Bulk Modulus (GPa) = 38.73288 48.86452 43.79870
# Shear Modulus (GPa) = 17.98081 22.51245 20.24663
#
# Velocity S-wave (km/s) = 3.10990 3.47979 3.30003
# Velocity P-wave (km/s) = 5.80765 6.51370 6.17078
#
# Compressibility (1/GPa) = 0.02581786
#
# Stress axis : x y z
#
# Youngs Moduli (GPa) = 34.65057 51.00002 65.51767
#
# Poissons Ratio (x) = 0.69542 -0.17080
# Poissons Ratio (y) = 0.47248 0.51940
# Poissons Ratio (z) = -0.09033 0.40431
#
# Static dielectric constant tensor:
#      x y z
#    x 1.645860 0.000000 -0.005190 
#    y 0.000000 1.620320 0.000000 
#    z -0.005190 0.000000 1.648690 
# 
# From -- ./inp_files/124015.got.cif
#   From: 2010.05.17/outbox.cif.g08.bks.cpg/sg15_63_cif.got.tgz:124015.got - 2010.06.03 18:47:42.
