data_PCOD9289075
_publ_section_title
;
Structure prediction by ZEFSAII (Michael W. Deem and Ramdas Pophale) SiO2 
 PCOD9289075
Probable space group: C 2/C
;
_chemical_formula_sum "Si O2"
_cell_formula_units_Z 52
_cell_length_a 24.002322
_cell_length_b 19.528282
_cell_length_c 5.460188
_cell_angle_alpha 90.000000
_cell_angle_beta 112.594685
_cell_angle_gamma 90.000000
_cell_volume 2362.883239
_symmetry_space_group_name_H-M "C 2/C"
_symmetry_group_IT_number 15
_symmetry_cell_setting 'monoclinic'
loop_
_space_group_symop_operation_xyz
x,y,z
-x,y,1/2-z
-x,-y,-z
x,-y,1/2+z
1/2+x,1/2+y,z
1/2-x,1/2+y,1/2-z
1/2-x,1/2-y,-z
1/2+x,1/2-y,1/2+z
loop_
_atom_site_type_symbol
_atom_site_label
_atom_site_fract_x
_atom_site_fract_y
_atom_site_fract_z
Si Si1 0.777144 0.460654 0.799439
Si Si2 0.176676 0.333480 0.397875
Si Si3 0.900413 0.161339 0.726608
Si Si4 0.132376 0.960814 0.605362
Si Si5 0.060512 0.707979 0.472782
Si Si6 0.717423 0.297853 0.244540
Si Si7 0.000000 0.811954 0.750000
O O1 0.793315 0.497845 0.574059
O O2 0.704825 0.451466 0.705684
O O3 0.810044 0.387537 0.869057
O O4 0.111385 0.340474 0.167937
O O5 0.231274 0.341919 0.298601
O O6 0.185783 0.255337 0.504115
O O7 0.899400 0.111992 0.492535
O O8 0.907777 0.241044 0.668024
O O9 0.835178 0.155036 0.739891
O O10 0.955043 0.146367 0.000962
O O11 0.116706 0.993920 0.838864
O O12 0.038038 0.760461 0.642925
O O13 0.000000 0.677568 0.250000
O O14 0.750000 0.250000 0.500000
#
# Coordination Sequence:
#
# PCOD9289075 Si02
#       7
#     8   8   8   8   8   8   4
#     4  10  24  41  61  91 131 175 206 250 313 382
#     4  11  23  37  62  94 128 156 211 256 322 380
#     4  11  22  38  63  86 128 162 212 259 319 373
#     4  10  24  40  61  88 125 174 214 255 307 372
#     4  10  22  40  61  91 120 164 203 261 328 378
#     4  11  22  34  59  98 122 157 196 268 324 373
#     4  10  22  40  60  84 124 164 206 258 328 372
#
# _framework density 22.007010999999999
#
# number of rings (size 3 to 8) (size 9 to 14) (size 15 to 20)
#    0.000    1.538    3.077    0.923   12.923    0.000 
#    0.000    0.769    0.000    0.923    0.000    0.000 
#    0.000    0.000    0.000    0.000    0.000    0.000 
#
# Total GULP energy -145470.464755 kJ/mol
# GULP energy per Si atom -5595.017875 kJ/mol
# Density = 2.195692 g / cm^3
# Si number density = 22.007011 Si / 1000 Ang^3
#
#
#
# Elastic Constant Matrix: (Units=GPa)
#
#
# Indices 1 2 3 4 5 6 
#
# 1 77.1501 6.0619 30.5343 0.0000 7.0503 0.0000
# 2 6.0619 54.1843 31.7871 0.0000 7.0099 0.0000
# 3 30.5343 31.7871 123.2528 0.0000 9.7902 0.0000
# 4 0.0000 0.0000 0.0000 51.9359 0.0000 -2.6458
# 5 7.0503 7.0099 9.7902 0.0000 25.3188 0.0000
# 6 0.0000 0.0000 0.0000 -2.6458 0.0000 13.9996
#
#
#
# Elastic Compliance Matrix: (Units=1/GPa)
#
#
# Indices 1 2 3 4 5 6 
#
# 1 0.014586 0.000858 -0.003604 0.000000 -0.002906 0.000000
# 2 0.000858 0.022191 -0.005601 0.000000 -0.004217 0.000000
# 3 -0.003604 -0.005601 0.010573 0.000000 -0.001534 0.000000
# 4 0.000000 0.000000 0.000000 0.019442 0.000000 0.003674
# 5 -0.002906 -0.004217 -0.001534 0.000000 0.042066 0.000000
# 6 0.000000 0.000000 0.000000 0.003674 0.000000 0.072125
#
#
# Mechanical properties :
#
#
# Convention : Reuss Voigt Hill
#
# Bulk Modulus (GPa) = 32.61924 43.48374 38.05149
# Shear Modulus (GPa) = 24.05072 30.66447 27.35760
#
# Velocity S-wave (km/s) = 3.30944 3.73687 3.52963
# Velocity P-wave (km/s) = 5.42748 6.19846 5.82574
#
# Compressibility (1/GPa) = 0.03065675
#
# Stress axis : x y z
#
# Youngs Moduli (GPa) = 68.55761 45.06385 94.58450
#
# Poissons Ratio (x) = -0.03869 0.34090
# Poissons Ratio (y) = -0.05885 0.52974
# Poissons Ratio (z) = 0.24709 0.25239
#
# Static dielectric constant tensor:
#      x y z
#    x 1.813870 0.000000 -0.044840 
#    y 0.000000 1.800830 0.000000 
#    z -0.044840 0.000000 1.859410 
# 
# From -- ./inp_files/13364.got.cif
#   From: 2010.05.17/outbox.cif.g08.bks.cpg/sg15_7_cif.got.tgz:13364.got - 2010.06.03 18:47:42.
