data_PCOD9289801
_publ_section_title
;
Structure prediction by ZEFSAII (Michael W. Deem and Ramdas Pophale) SiO2 
 PCOD9289801
Probable space group: C 2/C
;
_chemical_formula_sum "Si O2"
_cell_formula_units_Z 40
_cell_length_a 10.424117
_cell_length_b 11.318794
_cell_length_c 24.914207
_cell_angle_alpha 90.000000
_cell_angle_beta 30.927531
_cell_angle_gamma 90.000000
_cell_volume 1510.811662
_symmetry_space_group_name_H-M "C 2/C"
_symmetry_group_IT_number 15
_symmetry_cell_setting 'monoclinic'
loop_
_space_group_symop_operation_xyz
x,y,z
-x,y,1/2-z
-x,-y,-z
x,-y,1/2+z
1/2+x,1/2+y,z
1/2-x,1/2+y,1/2-z
1/2-x,1/2-y,-z
1/2+x,1/2-y,1/2+z
loop_
_atom_site_type_symbol
_atom_site_label
_atom_site_fract_x
_atom_site_fract_y
_atom_site_fract_z
Si Si1 0.904194 0.082891 0.921430
Si Si2 0.044861 0.441565 0.630719
Si Si3 0.280149 0.093110 0.629949
Si Si4 0.465592 0.828121 0.205596
Si Si5 0.395655 0.669703 0.141812
O O1 0.737530 0.071050 0.927372
O O2 0.170241 0.139228 0.809484
O O3 0.757846 0.134164 0.025397
O O4 0.972761 0.951611 0.918189
O O5 0.925669 0.512741 0.622085
O O6 0.111254 0.548310 0.647526
O O7 0.850023 0.366537 0.735415
O O8 0.341606 0.231768 0.617222
O O9 0.000000 0.075060 0.750000
O O10 0.500000 0.768976 0.250000
O O11 0.556638 0.741361 0.127417
#
# Coordination Sequence:
#
# PCOD9289801 Si02
#       5
#     8   8   8   8   8
#     4  11  23  44  67  99 132 174 226 277 329 396
#     4  10  23  42  66  97 131 175 226 272 331 399
#     4  11  20  43  66 100 130 176 227 265 337 401
#     4  10  23  41  61  96 132 175 223 266 339 401
#     4  10  22  40  68  90 139 173 215 281 332 383
#
# _framework density 26.475833999999999
#
# number of rings (size 3 to 8) (size 9 to 14) (size 15 to 20)
#    0.000    1.600    6.000    0.600    2.800    8.000 
#    3.600    0.000    0.000    0.000    0.000    0.000 
#    0.000    0.000    0.000    0.000    0.000    0.000 
#
# Total GULP energy -111811.094691 kJ/mol
# GULP energy per Si atom -5590.554735 kJ/mol
# Density = 2.641557 g / cm^3
# Si number density = 26.475834 Si / 1000 Ang^3
#
#
#
# Elastic Constant Matrix: (Units=GPa)
#
#
# Indices 1 2 3 4 5 6 
#
# 1 106.3756 -2.0981 11.2850 -0.0006 4.4868 0.0003
# 2 -2.0981 80.0263 -4.0854 0.0004 -13.1131 0.0000
# 3 11.2850 -4.0854 129.6261 0.0001 13.1894 -0.0021
# 4 -0.0006 0.0004 0.0001 -3.2614 -0.0040 0.6739
# 5 4.4868 -13.1131 13.1894 -0.0040 17.0905 -0.0005
# 6 0.0003 0.0000 -0.0021 0.6739 -0.0005 20.4451
#
#
#
# Elastic Compliance Matrix: (Units=1/GPa)
#
#
# Indices 1 2 3 4 5 6 
#
# 1 0.009554 -0.000130 -0.000619 0.000001 -0.002130 0.000000
# 2 -0.000130 0.014357 -0.000717 -0.000012 0.011603 0.000001
# 3 -0.000619 -0.000717 0.008449 0.000009 -0.006908 0.000000
# 4 0.000001 -0.000012 0.000009 -0.304542 -0.000088 0.010038
# 5 -0.002130 0.011603 -0.006908 -0.000088 0.073305 0.000004
# 6 0.000000 0.000001 0.000000 0.010038 0.000004 0.048581
#
#
# Mechanical properties :
#
#
# Convention : Reuss Voigt Hill
#
# Bulk Modulus (GPa) = 33.98202 36.24788 35.11495
# Shear Modulus (GPa) = -36.34892 27.58328 -4.38282
#
# Velocity S-wave (km/s) = -3.70930 3.23124 -1.28802
# Velocity P-wave (km/s) = 2.34141 5.25755 3.32864
#
# Compressibility (1/GPa) = 0.02942732
#
# Stress axis : x y z
#
# Youngs Moduli (GPa) = 104.67245 69.65151 118.36216
#
# Poissons Ratio (x) = 0.00907 0.07327
# Poissons Ratio (y) = 0.01363 0.08484
# Poissons Ratio (z) = 0.06480 0.04993
#
# Static dielectric constant tensor:
#      x y z
#    x 2.142740 0.000000 -0.047280 
#    y 0.000000 2.138090 0.000010 
#    z -0.047280 0.000010 2.046880 
# 
# From -- ./inp_files/141767.got.cif
#   From: 2010.05.17/outbox.cif.g08.bks.cpg/sg15_71_cif.got.tgz:141767.got - 2010.06.03 18:47:42.
