data_PCOD9289171
_publ_section_title
;
Structure prediction by ZEFSAII (Michael W. Deem and Ramdas Pophale) SiO2 
 PCOD9289171
Probable space group: C 2/C
;
_chemical_formula_sum "Si O2"
_cell_formula_units_Z 64
_cell_length_a 15.589964
_cell_length_b 18.567839
_cell_length_c 17.165614
_cell_angle_alpha 90.000000
_cell_angle_beta 38.640658
_cell_angle_gamma 90.000000
_cell_volume 3102.789919
_symmetry_space_group_name_H-M "C 2/C"
_symmetry_group_IT_number 15
_symmetry_cell_setting 'monoclinic'
loop_
_space_group_symop_operation_xyz
x,y,z
-x,y,1/2-z
-x,-y,-z
x,-y,1/2+z
1/2+x,1/2+y,z
1/2-x,1/2+y,1/2-z
1/2-x,1/2-y,-z
1/2+x,1/2-y,1/2+z
loop_
_atom_site_type_symbol
_atom_site_label
_atom_site_fract_x
_atom_site_fract_y
_atom_site_fract_z
Si Si1 0.820345 0.237310 0.088704
Si Si2 0.155231 0.731860 0.670157
Si Si3 0.646316 0.604727 0.315859
Si Si4 0.091576 0.645037 0.866007
Si Si5 0.850411 0.889973 0.979286
Si Si6 0.842114 0.941855 0.161558
Si Si7 0.028554 0.178463 0.818284
Si Si8 0.711537 0.112236 0.432690
O O1 0.827337 0.165622 0.138396
O O2 0.915430 0.302313 0.055106
O O3 0.664626 0.269830 0.209290
O O4 0.894894 0.216422 0.953739
O O5 0.154766 0.698397 0.756497
O O6 0.252377 0.679191 0.552402
O O7 0.225223 0.808347 0.620067
O O8 0.000000 0.733095 0.750000
O O9 0.510649 0.628603 0.363656
O O10 0.614677 0.524427 0.366951
O O11 0.768634 0.587777 0.169579
O O12 0.193274 0.578204 0.802746
O O13 0.947596 0.617520 0.936663
O O14 0.830986 0.924391 0.077655
O O15 0.797821 0.928667 0.938339
O O16 0.934748 0.886072 0.146585
O O17 0.000000 0.152662 0.750000
#
# Coordination Sequence:
#
# PCOD9289171 Si02
#       8
#     8   8   8   8   8   8   8   8
#     4  11  22  41  69  96 125 167 212 274 327 380
#     4  11  20  33  56  91 131 163 197 241 300 373
#     4  12  23  40  62  92 128 167 216 257 321 384
#     4  10  22  40  61  93 129 167 206 248 327 385
#     4  11  22  37  59  89 127 166 204 245 308 383
#     4  10  25  43  64  87 125 170 209 269 325 385
#     4  11  24  44  70  94 122 163 225 281 329 376
#     4  12  23  34  61  95 131 165 202 252 304 399
#
# _framework density 20.626598000000001
#
# number of rings (size 3 to 8) (size 9 to 14) (size 15 to 20)
#    0.000    1.000    3.750    3.750    1.750    1.500 
#    0.000    0.000    2.750    0.000    0.000    0.000 
#    0.000    0.000    0.000    0.000    0.000    0.000 
#
# Total GULP energy -178311.556121 kJ/mol
# GULP energy per Si atom -5572.236129 kJ/mol
# Density = 2.057965 g / cm^3
# Si number density = 20.626598 Si / 1000 Ang^3
#
#
#
# Elastic Constant Matrix: (Units=GPa)
#
#
# Indices 1 2 3 4 5 6 
#
# 1 64.7598 24.3843 22.7680 0.0001 1.1899 0.0000
# 2 24.3843 80.8610 21.4708 0.0002 -11.0005 -0.0001
# 3 22.7680 21.4708 73.7588 0.0003 6.4107 -0.0001
# 4 0.0001 0.0002 0.0003 7.0788 -0.0001 -6.9485
# 5 1.1899 -11.0005 6.4107 -0.0001 42.2798 0.0000
# 6 0.0000 -0.0001 -0.0001 -6.9485 0.0000 3.1217
#
#
#
# Elastic Compliance Matrix: (Units=1/GPa)
#
#
# Indices 1 2 3 4 5 6 
#
# 1 0.018735 -0.004645 -0.004337 0.000000 -0.001078 0.000000
# 2 -0.004645 0.015307 -0.003425 0.000000 0.004633 0.000000
# 3 -0.004337 -0.003425 0.016174 0.000000 -0.003221 0.000001
# 4 0.000000 0.000000 0.000000 -0.119224 0.000000 -0.265377
# 5 -0.001078 0.004633 -0.003221 0.000000 0.025376 -0.000001
# 6 0.000000 0.000000 0.000001 -0.265377 -0.000001 -0.270355
#
#
# Mechanical properties :
#
#
# Convention : Reuss Voigt Hill
#
# Bulk Modulus (GPa) = 39.36687 39.62510 39.49598
# Shear Modulus (GPa) = -17.81222 20.54651 1.36714
#
# Velocity S-wave (km/s) = -2.94182 3.15956 0.81501
# Velocity P-wave (km/s) = 2.75460 5.70638 4.48055
#
# Compressibility (1/GPa) = 0.02540207
#
# Stress axis : x y z
#
# Youngs Moduli (GPa) = 53.37499 65.32887 61.82952
#
# Poissons Ratio (x) = 0.30344 0.26819
# Poissons Ratio (y) = 0.24791 0.21175
# Poissons Ratio (z) = 0.23151 0.22373
#
# Static dielectric constant tensor:
#      x y z
#    x 1.845650 0.000000 0.078700 
#    y 0.000000 1.614760 0.000000 
#    z 0.078700 0.000000 1.854480 
# 
# From -- ./inp_files/206433.got.cif
#   From: 2010.05.17/outbox.cif.g08.bks.cpg/sg15_104_cif.got.tgz:206433.got - 2010.06.03 18:47:42.
