data_PCOD9289786
_publ_section_title
;
Structure prediction by ZEFSAII (Michael W. Deem and Ramdas Pophale) SiO2 
 PCOD9289786
Probable space group: C 2/C
;
_chemical_formula_sum "Si O2"
_cell_formula_units_Z 44
_cell_length_a 14.760265
_cell_length_b 10.189584
_cell_length_c 13.135446
_cell_angle_alpha 90.000000
_cell_angle_beta 78.150615
_cell_angle_gamma 90.000000
_cell_volume 1933.485510
_symmetry_space_group_name_H-M "C 2/C"
_symmetry_group_IT_number 15
_symmetry_cell_setting 'monoclinic'
loop_
_space_group_symop_operation_xyz
x,y,z
-x,y,1/2-z
-x,-y,-z
x,-y,1/2+z
1/2+x,1/2+y,z
1/2-x,1/2+y,1/2-z
1/2-x,1/2-y,-z
1/2+x,1/2-y,1/2+z
loop_
_atom_site_type_symbol
_atom_site_label
_atom_site_fract_x
_atom_site_fract_y
_atom_site_fract_z
Si Si1 0.349601 0.531305 0.559019
Si Si2 0.777220 0.372906 0.567255
Si Si3 0.530258 0.781793 0.019102
Si Si4 0.000000 0.384871 0.250000
Si Si5 0.802480 0.468385 0.239276
Si Si6 0.336926 0.763247 0.053717
O O1 0.294505 0.525835 0.465004
O O2 0.428694 0.640824 0.527841
O O3 0.273252 0.570596 0.660374
O O4 0.371577 0.381607 0.579846
O O5 0.750000 0.250000 0.500000
O O6 0.886653 0.382316 0.523868
O O7 0.771706 0.397488 0.689142
O O8 0.513751 0.797093 0.144664
O O9 0.434064 0.816239 0.986440
O O10 0.906145 0.469592 0.260251
O O11 0.808786 0.356099 0.152551
O O12 0.250000 0.750000 0.000000
#
# Coordination Sequence:
#
# PCOD9289786 Si02
#       6
#     8   8   8   4   8   8
#     4  11  23  42  69  98 136 179 232 279 349 408
#     4  10  22  41  69  96 133 179 224 276 345 415
#     4  10  23  42  68  98 136 179 231 279 342 413
#     4  10  22  40  68 106 134 182 236 286 352 406
#     4  11  24  41  70 100 137 179 235 284 342 411
#     4  11  24  43  63  96 137 178 227 287 336 398
#
# _framework density 22.756830000000001
#
# number of rings (size 3 to 8) (size 9 to 14) (size 15 to 20)
#    0.000    1.455    3.636    0.545    5.091    5.818 
#    0.000    0.909    0.000    0.000    0.000    0.000 
#    0.000    0.000    0.000    0.000    0.000    0.000 
#
# Total GULP energy -122531.995799 kJ/mol
# GULP energy per Si atom -5569.636173 kJ/mol
# Density = 2.270503 g / cm^3
# Si number density = 22.756830 Si / 1000 Ang^3
#
#
#
# Elastic Constant Matrix: (Units=GPa)
#
#
# Indices 1 2 3 4 5 6 
#
# 1 172.3414 5.9950 47.4870 0.0000 -0.8912 0.0000
# 2 5.9950 94.9167 2.8740 0.0000 5.5762 0.0000
# 3 47.4870 2.8740 85.6907 0.0000 -7.6450 0.0000
# 4 0.0000 0.0000 0.0000 42.9896 0.0000 -0.2196
# 5 -0.8912 5.5762 -7.6450 0.0000 38.9374 0.0000
# 6 0.0000 0.0000 0.0000 -0.2196 0.0000 15.2014
#
#
#
# Elastic Compliance Matrix: (Units=1/GPa)
#
#
# Indices 1 2 3 4 5 6 
#
# 1 0.006869 -0.000285 -0.003847 0.000000 -0.000557 0.000000
# 2 -0.000285 0.010658 -0.000342 0.000000 -0.001600 0.000000
# 3 -0.003847 -0.000342 0.014056 0.000000 0.002721 0.000000
# 4 0.000000 0.000000 0.000000 0.023263 0.000000 0.000336
# 5 -0.000557 -0.001600 0.002721 0.000000 0.026433 0.000000
# 6 0.000000 0.000000 0.000000 0.000336 0.000000 0.065788
#
#
# Mechanical properties :
#
#
# Convention : Reuss Voigt Hill
#
# Bulk Modulus (GPa) = 44.17917 51.74010 47.95964
# Shear Modulus (GPa) = 30.56964 39.19853 34.88409
#
# Velocity S-wave (km/s) = 3.66911 4.15480 3.91948
# Velocity P-wave (km/s) = 6.11600 6.76771 6.45009
#
# Compressibility (1/GPa) = 0.02263510
#
# Stress axis : x y z
#
# Youngs Moduli (GPa) = 145.57182 93.82707 71.14401
#
# Poissons Ratio (x) = 0.02671 0.27369
# Poissons Ratio (y) = 0.04144 0.02436
# Poissons Ratio (z) = 0.56002 0.03213
#
# Static dielectric constant tensor:
#      x y z
#    x 1.894310 0.000000 0.010180 
#    y 0.000000 2.048890 0.000000 
#    z 0.010180 0.000000 1.847300 
# 
# From -- ./inp_files/151331.got.cif
#   From: 2010.05.17/outbox.cif.g08.bks.cpg/sg15_76_cif.got.tgz:151331.got - 2010.06.03 18:47:42.
