data_PCOD9289552
_publ_section_title
;
Structure prediction by ZEFSAII (Michael W. Deem and Ramdas Pophale) SiO2 
 PCOD9289552
Probable space group: C 2/C
;
_chemical_formula_sum "Si O2"
_cell_formula_units_Z 60
_cell_length_a 5.085763
_cell_length_b 21.975248
_cell_length_c 21.949992
_cell_angle_alpha 90.000000
_cell_angle_beta 92.569810
_cell_angle_gamma 90.000000
_cell_volume 2450.683879
_symmetry_space_group_name_H-M "C 2/C"
_symmetry_group_IT_number 15
_symmetry_cell_setting 'monoclinic'
loop_
_space_group_symop_operation_xyz
x,y,z
-x,y,1/2-z
-x,-y,-z
x,-y,1/2+z
1/2+x,1/2+y,z
1/2-x,1/2+y,1/2-z
1/2-x,1/2-y,-z
1/2+x,1/2-y,1/2+z
loop_
_atom_site_type_symbol
_atom_site_label
_atom_site_fract_x
_atom_site_fract_y
_atom_site_fract_z
Si Si1 0.562411 0.938832 0.538741
Si Si2 0.171417 0.771511 0.881237
Si Si3 0.340186 0.521036 0.165342
Si Si4 0.839540 0.243612 0.689346
Si Si5 0.616971 0.856651 0.431536
Si Si6 0.190580 0.116110 0.129721
Si Si7 0.000000 0.395847 0.750000
Si Si8 0.895199 0.113492 0.645058
O O1 0.707977 0.965538 0.598962
O O2 0.695950 0.891697 0.493516
O O3 0.338954 0.897477 0.568809
O O4 0.500000 0.000000 0.500000
O O5 0.477134 0.765340 0.866507
O O6 0.122966 0.717413 0.929827
O O7 0.970584 0.754179 0.824103
O O8 0.057800 0.839922 0.887748
O O9 0.623012 0.549179 0.154525
O O10 0.349834 0.450305 0.177075
O O11 0.203785 0.562505 0.214548
O O12 0.000000 0.261854 0.750000
O O13 0.855305 0.170529 0.687448
O O14 0.324353 0.877947 0.410159
O O15 0.818402 0.879985 0.382102
O O16 0.345140 0.138550 0.192756
#
# Coordination Sequence:
#
# PCOD9289552 Si02
#       8
#     8   8   8   8   8   8   4   8
#     4  11  23  41  70 101 133 178 232 281 349 413
#     4  10  24  43  65  94 138 176 229 279 344 405
#     4  11  24  42  67  98 134 181 224 286 341 418
#     4  10  22  40  65  97 125 180 228 282 335 403
#     4  10  22  43  66  99 134 176 220 285 337 409
#     4  11  26  43  66  98 134 182 229 282 344 414
#     4  10  26  44  60 100 134 180 232 274 360 402
#     4  10  22  41  65  95 137 170 223 279 344 401
#
# _framework density 24.482963999999999
#
# number of rings (size 3 to 8) (size 9 to 14) (size 15 to 20)
#    0.000    1.600    1.333    1.600    8.400    3.733 
#    4.800    0.667    0.000    0.000    0.000    0.000 
#    0.000    0.000    0.000    0.000    0.000    0.000 
#
# Total GULP energy -167437.369485 kJ/mol
# GULP energy per Si atom -5581.245650 kJ/mol
# Density = 2.442724 g / cm^3
# Si number density = 24.482964 Si / 1000 Ang^3
#
#
#
# Elastic Constant Matrix: (Units=GPa)
#
#
# Indices 1 2 3 4 5 6 
#
# 1 55.6238 4.7602 -5.5543 0.0000 10.0440 0.0000
# 2 4.7602 112.7986 18.1177 0.0000 10.8760 0.0000
# 3 -5.5543 18.1177 84.0957 0.0000 15.9296 0.0000
# 4 0.0000 0.0000 0.0000 32.1465 0.0000 6.6431
# 5 10.0440 10.8760 15.9296 0.0000 23.0651 0.0000
# 6 0.0000 0.0000 0.0000 6.6431 0.0000 29.2120
#
#
#
# Elastic Compliance Matrix: (Units=1/GPa)
#
#
# Indices 1 2 3 4 5 6 
#
# 1 0.020373 -0.000353 0.003533 0.000000 -0.011145 0.000000
# 2 -0.000353 0.009428 -0.001428 0.000000 -0.003306 0.000000
# 3 0.003533 -0.001428 0.014492 0.000000 -0.010874 0.000000
# 4 0.000000 0.000000 0.000000 0.032642 0.000000 -0.007423
# 5 -0.011145 -0.003306 -0.010874 0.000000 0.057277 0.000000
# 6 0.000000 0.000000 0.000000 -0.007423 0.000000 0.035921
#
#
# Mechanical properties :
#
#
# Convention : Reuss Voigt Hill
#
# Bulk Modulus (GPa) = 20.92161 31.90725 26.41443
# Shear Modulus (GPa) = 27.38796 32.56438 29.97617
#
# Velocity S-wave (km/s) = 3.34826 3.65099 3.50289
# Velocity P-wave (km/s) = 4.84889 5.55281 5.21274
#
# Compressibility (1/GPa) = 0.04779748
#
# Stress axis : x y z
#
# Youngs Moduli (GPa) = 49.08360 106.06251 69.00376
#
# Poissons Ratio (x) = 0.03739 -0.24377
# Poissons Ratio (y) = 0.01730 0.09856
# Poissons Ratio (z) = -0.17340 0.15149
#
# Static dielectric constant tensor:
#      x y z
#    x 2.014900 0.000000 0.033170 
#    y 0.000000 2.051440 0.000000 
#    z 0.033170 0.000000 1.998840 
# 
# From -- ./inp_files/261380.got.cif
#   From: 2010.05.17/outbox.cif.g08.bks.cpg/sg15_131_cif.got.tgz:261380.got - 2010.06.03 18:47:42.
