data_PCOD9289104
_publ_section_title
;
Structure prediction by ZEFSAII (Michael W. Deem and Ramdas Pophale) SiO2 
 PCOD9289104
Probable space group: C 2/C
;
_chemical_formula_sum "Si O2"
_cell_formula_units_Z 48
_cell_length_a 11.418012
_cell_length_b 22.202364
_cell_length_c 14.380444
_cell_angle_alpha 90.000000
_cell_angle_beta 39.104047
_cell_angle_gamma 90.000000
_cell_volume 2299.354453
_symmetry_space_group_name_H-M "C 2/C"
_symmetry_group_IT_number 15
_symmetry_cell_setting 'monoclinic'
loop_
_space_group_symop_operation_xyz
x,y,z
-x,y,1/2-z
-x,-y,-z
x,-y,1/2+z
1/2+x,1/2+y,z
1/2-x,1/2+y,1/2-z
1/2-x,1/2-y,-z
1/2+x,1/2-y,1/2+z
loop_
_atom_site_type_symbol
_atom_site_label
_atom_site_fract_x
_atom_site_fract_y
_atom_site_fract_z
Si Si1 0.607116 0.941255 0.279401
Si Si2 0.597380 0.925199 0.789182
Si Si3 0.000000 0.764458 0.750000
Si Si4 0.000000 0.125702 0.750000
Si Si5 0.906251 0.341184 0.053874
Si Si6 0.408696 0.714706 0.507327
Si Si7 0.510718 0.406522 0.037616
O O1 0.500000 0.930144 0.250000
O O2 0.580062 0.887508 0.368506
O O3 0.826732 0.942269 0.123594
O O4 0.550814 0.007135 0.351659
O O5 0.500000 0.917471 0.750000
O O6 0.813953 0.921668 0.632688
O O7 0.526056 0.873234 0.900121
O O8 0.812534 0.725518 0.855305
O O9 0.030816 0.800914 0.635616
O O10 0.809280 0.161449 0.845854
O O11 0.960321 0.088055 0.868909
O O12 0.990514 0.277079 0.028836
O O13 0.465613 0.663296 0.543306
#
# Coordination Sequence:
#
# PCOD9289104 Si02
#       7
#     8   8   4   4   8   8   8
#     4  10  24  41  68  90 126 168 212 253 318 364
#     4  11  22  43  64  94 128 164 211 266 299 364
#     4  10  22  40  60  89 136 157 202 248 316 364
#     4  10  22  40  64  87 130 167 206 244 322 360
#     4  11  23  42  65  95 126 167 206 260 308 379
#     4  11  24  39  66  92 128 165 199 258 314 372
#     4  11  23  42  65  95 126 167 206 260 308 379
#
# _framework density 20.875425
#
# number of rings (size 3 to 8) (size 9 to 14) (size 15 to 20)
#    0.000    1.333    1.667    4.000    7.000    0.667 
#    3.000    0.000    0.000    0.000    0.000    0.000 
#    0.000    0.000    0.000    0.000    0.000    0.000 
#
# Total GULP energy -134145.536315 kJ/mol
# GULP energy per Si atom -5589.397346 kJ/mol
# Density = 2.082791 g / cm^3
# Si number density = 20.875425 Si / 1000 Ang^3
#
#
#
# Elastic Constant Matrix: (Units=GPa)
#
#
# Indices 1 2 3 4 5 6 
#
# 1 118.9086 30.9092 40.5119 0.0008 -4.6427 -0.0005
# 2 30.9092 71.1327 15.2251 0.0004 5.4463 -0.0006
# 3 40.5119 15.2251 112.3312 0.0010 3.6099 -0.0012
# 4 0.0008 0.0004 0.0010 20.4054 -0.0007 4.1126
# 5 -4.6427 5.4463 3.6099 -0.0007 33.8430 0.0007
# 6 -0.0005 -0.0006 -0.0012 4.1126 0.0007 -43.4898
#
#
#
# Elastic Compliance Matrix: (Units=1/GPa)
#
#
# Indices 1 2 3 4 5 6 
#
# 1 0.010737 -0.004131 -0.003393 0.000000 0.002500 0.000000
# 2 -0.004131 0.016222 -0.000609 0.000000 -0.003112 0.000000
# 3 -0.003393 -0.000609 0.010255 0.000000 -0.001461 0.000000
# 4 0.000000 0.000000 0.000000 0.048090 0.000001 0.004548
# 5 0.002500 -0.003112 -0.001461 0.000001 0.030548 0.000001
# 6 0.000000 0.000000 0.000000 0.004548 0.000001 -0.022564
#
#
# Mechanical properties :
#
#
# Convention : Reuss Voigt Hill
#
# Bulk Modulus (GPa) = 47.73417 52.85167 50.29292
# Shear Modulus (GPa) = 42.90513 16.53348 29.71930
#
# Velocity S-wave (km/s) = 4.53845 2.81731 3.77722
# Velocity P-wave (km/s) = 7.09783 5.99630 6.57019
#
# Compressibility (1/GPa) = 0.02094935
#
# Stress axis : x y z
#
# Youngs Moduli (GPa) = 93.13525 61.64548 97.51031
#
# Poissons Ratio (x) = 0.25464 0.33083
# Poissons Ratio (y) = 0.38472 0.05937
# Poissons Ratio (z) = 0.31598 0.03754
#
# Static dielectric constant tensor:
#      x y z
#    x 1.732550 0.000000 -0.003780 
#    y 0.000000 1.727100 0.000000 
#    z -0.003780 0.000000 1.837120 
# 
# From -- ./inp_files/147413.got.cif
#   From: 2010.05.17/outbox.cif.g08.bks.cpg/sg15_74_cif.got.tgz:147413.got - 2010.06.03 18:47:42.
