data_PCOD9289216
_publ_section_title
;
Structure prediction by ZEFSAII (Michael W. Deem and Ramdas Pophale) SiO2 
 PCOD9289216
Probable space group: C 2/C
;
_chemical_formula_sum "Si O2"
_cell_formula_units_Z 56
_cell_length_a 28.068920
_cell_length_b 5.180724
_cell_length_c 23.235159
_cell_angle_alpha 90.000000
_cell_angle_beta 130.080573
_cell_angle_gamma 90.000000
_cell_volume 2585.250175
_symmetry_space_group_name_H-M "C 2/C"
_symmetry_group_IT_number 15
_symmetry_cell_setting 'monoclinic'
loop_
_space_group_symop_operation_xyz
x,y,z
-x,y,1/2-z
-x,-y,-z
x,-y,1/2+z
1/2+x,1/2+y,z
1/2-x,1/2+y,1/2-z
1/2-x,1/2-y,-z
1/2+x,1/2-y,1/2+z
loop_
_atom_site_type_symbol
_atom_site_label
_atom_site_fract_x
_atom_site_fract_y
_atom_site_fract_z
Si Si1 0.755369 0.445512 0.390917
Si Si2 0.154946 0.637962 0.357680
Si Si3 0.285126 0.301282 0.796657
Si Si4 0.421697 0.651217 0.616567
Si Si5 0.681374 0.725910 0.472895
Si Si6 0.640360 0.787401 0.249249
Si Si7 0.000330 0.651556 0.819595
O O1 0.721605 0.273682 0.413402
O O2 0.784408 0.279484 0.362211
O O3 0.808060 0.627357 0.458929
O O4 0.694908 0.608872 0.320452
O O5 0.147273 0.401115 0.396953
O O6 0.155288 0.559330 0.291424
O O7 0.095819 0.809583 0.329250
O O8 0.236997 0.094912 0.729869
O O9 0.347347 0.246728 0.808554
O O10 0.352565 0.548573 0.543671
O O11 0.460396 0.400272 0.634247
O O12 0.462737 0.896280 0.629434
O O13 0.750000 0.750000 0.500000
O O14 0.568423 0.779432 0.210890
O O15 0.000000 0.628419 0.750000
#
# Coordination Sequence:
#
# PCOD9289216 Si02
#       7
#     8   8   8   8   8   8   8
#     4  11  23  38  63  93 126 159 203 255 311 371
#     4  12  20  38  59  92 129 158 197 244 316 366
#     4  10  22  40  62  90 123 158 202 254 313 364
#     4  12  25  40  56  92 123 170 200 243 306 365
#     4  12  23  37  59  93 130 164 200 251 312 371
#     4  11  23  40  63  93 124 162 202 258 307 367
#     4  12  24  38  62  86 127 163 208 247 303 370
#
# _framework density 21.661346999999999
#
# number of rings (size 3 to 8) (size 9 to 14) (size 15 to 20)
#    0.000    0.571    7.143    1.714    2.000    0.000 
#    0.000    0.000    0.000    1.714    0.000    0.000 
#    0.000    0.000    0.000    0.000    0.000    0.000 
#
# Total GULP energy -155957.329695 kJ/mol
# GULP energy per Si atom -5569.904632 kJ/mol
# Density = 2.161204 g / cm^3
# Si number density = 21.661347 Si / 1000 Ang^3
#
#
#
# Elastic Constant Matrix: (Units=GPa)
#
#
# Indices 1 2 3 4 5 6 
#
# 1 141.4960 26.6928 29.7699 0.0139 15.8019 0.0019
# 2 26.6928 104.2644 13.7724 0.0354 13.2531 0.0029
# 3 29.7699 13.7724 40.5575 0.0032 8.5279 -0.0080
# 4 0.0139 0.0354 0.0032 29.3860 -0.0029 0.2559
# 5 15.8019 13.2531 8.5279 -0.0029 32.6216 0.0011
# 6 0.0019 0.0029 -0.0080 0.2559 0.0011 19.0153
#
#
#
# Elastic Compliance Matrix: (Units=1/GPa)
#
#
# Indices 1 2 3 4 5 6 
#
# 1 0.008709 -0.001212 -0.005500 -0.000002 -0.002288 -0.000003
# 2 -0.001212 0.010574 -0.002033 -0.000012 -0.003177 -0.000002
# 3 -0.005500 -0.002033 0.030316 0.000001 -0.004435 0.000014
# 4 -0.000002 -0.000012 0.000001 0.034034 0.000009 -0.000458
# 5 -0.002288 -0.003177 -0.004435 0.000009 0.034213 -0.000003
# 6 -0.000003 -0.000002 0.000014 -0.000458 -0.000003 0.052595
#
#
# Mechanical properties :
#
#
# Convention : Reuss Voigt Hill
#
# Bulk Modulus (GPa) = 31.14353 47.42089 39.28221
# Shear Modulus (GPa) = 25.17205 30.61009 27.89107
#
# Velocity S-wave (km/s) = 3.41262 3.76323 3.59220
# Velocity P-wave (km/s) = 5.47144 6.38921 5.94805
#
# Compressibility (1/GPa) = 0.03210940
#
# Stress axis : x y z
#
# Youngs Moduli (GPa) = 114.82863 94.57421 32.98588
#
# Poissons Ratio (x) = 0.11464 0.18141
# Poissons Ratio (y) = 0.13919 0.06705
# Poissons Ratio (z) = 0.63150 0.19225
#
# Static dielectric constant tensor:
#      x y z
#    x 1.827420 -0.000010 0.072840 
#    y -0.000010 1.958940 0.000000 
#    z 0.072840 0.000000 1.955130 
# 
# From -- ./inp_files/283032.got.cif
#   From: 2010.05.17/outbox.cif.g08.bks.cpg/sg15_142_cif.got.tgz:283032.got - 2010.06.03 18:47:42.
