data_PCOD9289508
_publ_section_title
;
Structure prediction by ZEFSAII (Michael W. Deem and Ramdas Pophale) SiO2 
 PCOD9289508
Probable space group: C 2/C
;
_chemical_formula_sum "Si O2"
_cell_formula_units_Z 52
_cell_length_a 14.067929
_cell_length_b 19.931423
_cell_length_c 9.281761
_cell_angle_alpha 90.000000
_cell_angle_beta 68.498477
_cell_angle_gamma 90.000000
_cell_volume 2421.431623
_symmetry_space_group_name_H-M "C 2/C"
_symmetry_group_IT_number 15
_symmetry_cell_setting 'monoclinic'
loop_
_space_group_symop_operation_xyz
x,y,z
-x,y,1/2-z
-x,-y,-z
x,-y,1/2+z
1/2+x,1/2+y,z
1/2-x,1/2+y,1/2-z
1/2-x,1/2-y,-z
1/2+x,1/2-y,1/2+z
loop_
_atom_site_type_symbol
_atom_site_label
_atom_site_fract_x
_atom_site_fract_y
_atom_site_fract_z
Si Si1 0.680572 0.293315 0.827575
Si Si2 0.368040 0.277305 0.346215
Si Si3 0.500000 0.517755 0.750000
Si Si4 0.584180 0.378746 0.424464
Si Si5 0.312707 0.078580 0.214080
Si Si6 0.000000 0.649639 0.250000
Si Si7 0.718278 0.475173 0.494768
Si Si8 0.500000 0.307133 0.750000
O O1 0.756882 0.237299 0.842646
O O2 0.745697 0.354010 0.727608
O O3 0.596532 0.268782 0.761889
O O4 0.635121 0.318700 0.005227
O O5 0.416433 0.317862 0.188393
O O6 0.419573 0.205403 0.355499
O O7 0.472333 0.561594 0.625883
O O8 0.609185 0.485611 0.640289
O O9 0.693602 0.410828 0.407321
O O10 0.534980 0.352927 0.598516
O O11 0.426534 0.103308 0.193533
O O12 0.301440 0.038499 0.071934
O O13 0.258620 0.035440 0.371382
#
# Coordination Sequence:
#
# PCOD9289508 Si02
#       8
#     8   8   4   8   8   4   8   4
#     4  10  22  40  65  93 126 164 217 267 335 387
#     4  10  22  44  66  89 123 177 216 270 321 395
#     4  12  24  40  62  94 132 171 205 256 340 414
#     4  12  23  37  63  93 130 163 210 258 335 396
#     4  11  24  43  67  93 133 172 220 270 321 391
#     4  10  23  46  68  90 122 181 234 258 312 386
#     4  12  24  40  62 100 133 170 205 271 335 392
#     4  12  21  34  58  96 126 156 201 272 320 398
#
# _framework density 21.474899000000001
#
# number of rings (size 3 to 8) (size 9 to 14) (size 15 to 20)
#    0.000    0.923    3.077    5.077    0.000    1.231 
#    2.769    0.000    0.000    0.000    0.000    0.000 
#    0.000    0.000    0.000    0.000    0.000    0.000 
#
# Total GULP energy -144971.000367 kJ/mol
# GULP energy per Si atom -5575.807706 kJ/mol
# Density = 2.142602 g / cm^3
# Si number density = 21.474899 Si / 1000 Ang^3
#
#
#
# Elastic Constant Matrix: (Units=GPa)
#
#
# Indices 1 2 3 4 5 6 
#
# 1 158.0065 31.1125 30.1519 0.0000 33.2807 0.0000
# 2 31.1125 42.9336 18.5619 0.0000 12.1814 0.0000
# 3 30.1519 18.5619 84.6756 0.0000 20.8924 0.0000
# 4 0.0000 0.0000 0.0000 16.6205 0.0000 6.8946
# 5 33.2807 12.1814 20.8924 0.0000 38.5365 0.0000
# 6 0.0000 0.0000 0.0000 6.8946 0.0000 37.2442
#
#
#
# Elastic Compliance Matrix: (Units=1/GPa)
#
#
# Indices 1 2 3 4 5 6 
#
# 1 0.008480 -0.004252 -0.000707 0.000000 -0.005596 0.000000
# 2 -0.004252 0.029061 -0.004036 0.000000 -0.003327 0.000000
# 3 -0.000707 -0.004036 0.014408 0.000000 -0.005925 0.000000
# 4 0.000000 0.000000 0.000000 0.065171 0.000000 -0.012064
# 5 -0.005596 -0.003327 -0.005925 0.000000 0.035046 0.000000
# 6 0.000000 0.000000 0.000000 -0.012064 0.000000 0.029083
#
#
# Mechanical properties :
#
#
# Convention : Reuss Voigt Hill
#
# Bulk Modulus (GPa) = 29.44582 49.47427 39.46004
# Shear Modulus (GPa) = 23.74637 32.19953 27.97295
#
# Velocity S-wave (km/s) = 3.32892 3.87641 3.61305
# Velocity P-wave (km/s) = 5.34015 6.56686 5.98501
#
# Compressibility (1/GPa) = 0.03396068
#
# Stress axis : x y z
#
# Youngs Moduli (GPa) = 117.93073 34.40986 69.40539
#
# Poissons Ratio (x) = 0.14630 0.04905
# Poissons Ratio (y) = 0.50139 0.28011
# Poissons Ratio (z) = 0.08335 0.13888
#
# Static dielectric constant tensor:
#      x y z
#    x 1.890410 0.000000 -0.073150 
#    y 0.000000 1.778540 0.000000 
#    z -0.073150 0.000000 1.833740 
# 
# From -- ./inp_files/40805.got.cif
#   From: 2010.05.17/outbox.cif.g08.bks.cpg/sg15_21_cif.got.tgz:40805.got - 2010.06.03 18:47:42.
