data_PCOD9289488
_publ_section_title
;
Structure prediction by ZEFSAII (Michael W. Deem and Ramdas Pophale) SiO2 
 PCOD9289488
Probable space group: C 2/C
;
_chemical_formula_sum "Si O2"
_cell_formula_units_Z 48
_cell_length_a 17.473286
_cell_length_b 11.637980
_cell_length_c 11.031552
_cell_angle_alpha 90.000000
_cell_angle_beta 124.831050
_cell_angle_gamma 90.000000
_cell_volume 1841.396091
_symmetry_space_group_name_H-M "C 2/C"
_symmetry_group_IT_number 15
_symmetry_cell_setting 'monoclinic'
loop_
_space_group_symop_operation_xyz
x,y,z
-x,y,1/2-z
-x,-y,-z
x,-y,1/2+z
1/2+x,1/2+y,z
1/2-x,1/2+y,1/2-z
1/2-x,1/2-y,-z
1/2+x,1/2-y,1/2+z
loop_
_atom_site_type_symbol
_atom_site_label
_atom_site_fract_x
_atom_site_fract_y
_atom_site_fract_z
Si Si1 0.938746 0.882927 0.071907
Si Si2 0.269989 0.501546 0.516379
Si Si3 0.979983 0.789062 0.599397
Si Si4 0.777770 0.720084 0.880169
Si Si5 0.877647 0.578939 0.792217
Si Si6 0.677801 0.131757 0.119962
O O1 0.000000 0.885674 0.250000
O O2 0.860986 0.985416 0.013793
O O3 0.877798 0.765296 0.012933
O O4 0.993099 0.868142 0.992539
O O5 0.265405 0.627218 0.571895
O O6 0.168340 0.472669 0.369249
O O7 0.267980 0.411158 0.625833
O O8 0.877845 0.734305 0.493034
O O9 0.000000 0.841372 0.750000
O O10 0.042123 0.671207 0.653050
O O11 0.793633 0.654291 0.769351
O O12 0.712593 0.823073 0.781191
O O13 0.886315 0.477921 0.900271
#
# Coordination Sequence:
#
# PCOD9289488 Si02
#       6
#     8   8   8   8   8   8
#     4  11  24  43  73 106 146 195 254 304 369 450
#     4  11  22  42  70 104 145 196 251 302 379 452
#     4  11  23  43  67 116 148 189 245 319 378 433
#     4  10  23  41  67 103 141 197 250 302 374 446
#     4  10  22  40  65 106 144 189 250 305 373 444
#     4  11  22  42  72 101 151 190 250 314 369 446
#
# _framework density 26.067177000000001
#
# number of rings (size 3 to 8) (size 9 to 14) (size 15 to 20)
#    0.000    1.333    3.333    2.000    2.333    0.667 
#    0.000    0.833    7.333    0.000    0.000    0.000 
#    0.000    0.000    0.000    0.000    0.000    0.000 
#
# Total GULP energy -134053.206146 kJ/mol
# GULP energy per Si atom -5585.550256 kJ/mol
# Density = 2.600785 g / cm^3
# Si number density = 26.067177 Si / 1000 Ang^3
#
#
#
# Elastic Constant Matrix: (Units=GPa)
#
#
# Indices 1 2 3 4 5 6 
#
# 1 127.9376 44.6288 47.5183 0.0000 -24.3915 0.0000
# 2 44.6288 110.6890 39.6302 0.0000 -6.0294 0.0000
# 3 47.5183 39.6302 140.0038 0.0000 -11.3149 0.0000
# 4 0.0000 0.0000 0.0000 30.6074 0.0000 -0.1584
# 5 -24.3915 -6.0294 -11.3149 0.0000 42.7531 0.0000
# 6 0.0000 0.0000 0.0000 -0.1584 0.0000 6.6967
#
#
#
# Elastic Compliance Matrix: (Units=1/GPa)
#
#
# Indices 1 2 3 4 5 6 
#
# 1 0.010779 -0.003234 -0.002333 0.000000 0.005076 0.000000
# 2 -0.003234 0.011043 -0.002096 0.000000 -0.000843 0.000000
# 3 -0.002333 -0.002096 0.008580 0.000000 0.000644 0.000000
# 4 0.000000 0.000000 0.000000 0.032676 0.000000 0.000773
# 5 0.005076 -0.000843 0.000644 0.000000 0.026338 0.000000
# 6 0.000000 0.000000 0.000000 0.000773 0.000000 0.149346
#
#
# Mechanical properties :
#
#
# Convention : Reuss Voigt Hill
#
# Bulk Modulus (GPa) = 66.33394 71.35386 68.84390
# Shear Modulus (GPa) = 19.29664 32.46830 25.88247
#
# Velocity S-wave (km/s) = 2.72373 3.53308 3.15447
# Velocity P-wave (km/s) = 5.94930 6.63898 6.30358
#
# Compressibility (1/GPa) = 0.01507524
#
# Stress axis : x y z
#
# Youngs Moduli (GPa) = 92.77619 90.55550 116.55256
#
# Poissons Ratio (x) = 0.29287 0.27187
# Poissons Ratio (y) = 0.30006 0.24432
# Poissons Ratio (z) = 0.21641 0.18983
#
# Static dielectric constant tensor:
#      x y z
#    x 2.063360 0.000000 -0.049170 
#    y 0.000000 2.091240 0.000000 
#    z -0.049170 0.000000 2.158650 
# 
# From -- ./inp_files/111218.got.cif
#   From: 2010.05.17/outbox.cif.g08.bks.cpg/sg15_56_cif.got.tgz:111218.got - 2010.06.03 18:47:42.
