data_PCOD9289088
_publ_section_title
;
Structure prediction by ZEFSAII (Michael W. Deem and Ramdas Pophale) SiO2 
 PCOD9289088
Probable space group: C 2/C
;
_chemical_formula_sum "Si O2"
_cell_formula_units_Z 40
_cell_length_a 15.025507
_cell_length_b 25.112892
_cell_length_c 9.281962
_cell_angle_alpha 90.000000
_cell_angle_beta 151.451482
_cell_angle_gamma 90.000000
_cell_volume 1673.806301
_symmetry_space_group_name_H-M "C 2/C"
_symmetry_group_IT_number 15
_symmetry_cell_setting 'monoclinic'
loop_
_space_group_symop_operation_xyz
x,y,z
-x,y,1/2-z
-x,-y,-z
x,-y,1/2+z
1/2+x,1/2+y,z
1/2-x,1/2+y,1/2-z
1/2-x,1/2-y,-z
1/2+x,1/2-y,1/2+z
loop_
_atom_site_type_symbol
_atom_site_label
_atom_site_fract_x
_atom_site_fract_y
_atom_site_fract_z
Si Si1 0.210939 0.940181 0.712762
Si Si2 0.243212 0.823126 0.681523
Si Si3 0.712918 0.850804 0.077427
Si Si4 0.769179 0.963471 0.075352
Si Si5 0.651759 0.775341 0.222243
O O1 0.226493 0.876881 0.751371
O O2 0.300149 0.953944 0.684999
O O3 0.992953 0.955754 0.390848
O O4 0.282661 0.979135 0.938077
O O5 0.195729 0.838861 0.448277
O O6 0.128182 0.774239 0.580693
O O7 0.457337 0.802725 0.987922
O O8 0.500000 0.833443 0.750000
O O9 0.710123 0.914259 0.092299
O O10 0.773372 0.818206 0.303462
O O11 0.750000 0.750000 0.500000
#
# Coordination Sequence:
#
# PCOD9289088 Si02
#       5
#     8   8   8   8   8
#     4   9  19  36  60  90 118 155 204 251 300 370
#     4  10  22  40  60  87 123 160 207 249 301 369
#     4   9  20  39  60  86 117 160 208 249 304 373
#     4   9  18  36  61  88 119 156 200 248 310 367
#     4  11  23  39  58  87 122 161 205 256 308 356
#
# _framework density 23.897627
#
# number of rings (size 3 to 8) (size 9 to 14) (size 15 to 20)
#    0.000    2.400    0.000    1.200    2.800    1.600 
#    7.200   11.000    0.000    0.000    0.000    0.000 
#    0.000    0.000    0.000    0.000    0.000    0.000 
#
# Total GULP energy -111776.896443 kJ/mol
# GULP energy per Si atom -5588.844822 kJ/mol
# Density = 2.384323 g / cm^3
# Si number density = 23.897627 Si / 1000 Ang^3
#
#
#
# Elastic Constant Matrix: (Units=GPa)
#
#
# Indices 1 2 3 4 5 6 
#
# 1 72.0894 58.0216 12.0584 0.0000 -3.3236 0.0000
# 2 58.0216 181.1253 -1.1388 0.0000 -2.6350 0.0000
# 3 12.0584 -1.1388 34.5952 0.0000 5.6968 0.0000
# 4 0.0000 0.0000 0.0000 16.6550 0.0000 -17.6829
# 5 -3.3236 -2.6350 5.6968 0.0000 21.1041 0.0000
# 6 0.0000 0.0000 0.0000 -17.6829 0.0000 45.9040
#
#
#
# Elastic Compliance Matrix: (Units=1/GPa)
#
#
# Indices 1 2 3 4 5 6 
#
# 1 0.020822 -0.006654 -0.008246 0.000000 0.004674 0.000000
# 2 -0.006654 0.007658 0.002707 0.000000 -0.000822 0.000000
# 3 -0.008246 0.002707 0.033517 0.000000 -0.010008 0.000000
# 4 0.000000 0.000000 0.000000 0.101592 0.000000 0.039135
# 5 0.004674 -0.000822 -0.010008 0.000000 0.050719 0.000000
# 6 0.000000 0.000000 0.000000 0.039135 0.000000 0.036860
#
#
# Mechanical properties :
#
#
# Convention : Reuss Voigt Hill
#
# Bulk Modulus (GPa) = 26.58886 47.29915 36.94400
# Shear Modulus (GPa) = 17.35559 31.32388 24.33973
#
# Velocity S-wave (km/s) = 2.69782 3.62436 3.19486
# Velocity P-wave (km/s) = 4.56669 6.11147 5.39466
#
# Compressibility (1/GPa) = 0.03760974
#
# Stress axis : x y z
#
# Youngs Moduli (GPa) = 48.02601 130.58881 29.83532
#
# Poissons Ratio (x) = 0.86893 0.24604
# Poissons Ratio (y) = 0.31956 -0.08076
# Poissons Ratio (z) = 0.39604 -0.35348
#
# Static dielectric constant tensor:
#      x y z
#    x 1.984150 0.000000 0.035370 
#    y 0.000000 1.890290 0.000000 
#    z 0.035370 0.000000 1.954880 
# 
# From -- ./inp_files/31751.got.cif
#   From: 2010.05.17/outbox.cif.g08.bks.cpg/sg15_16_cif.got.tgz:31751.got - 2010.06.03 18:47:42.
