data_PCOD9289077
_publ_section_title
;
Structure prediction by ZEFSAII (Michael W. Deem and Ramdas Pophale) SiO2 
 PCOD9289077
Probable space group: C 2/C
;
_chemical_formula_sum "Si O2"
_cell_formula_units_Z 48
_cell_length_a 29.565796
_cell_length_b 12.123552
_cell_length_c 16.049220
_cell_angle_alpha 90.000000
_cell_angle_beta 28.396997
_cell_angle_gamma 90.000000
_cell_volume 2735.868613
_symmetry_space_group_name_H-M "C 2/C"
_symmetry_group_IT_number 15
_symmetry_cell_setting 'monoclinic'
loop_
_space_group_symop_operation_xyz
x,y,z
-x,y,1/2-z
-x,-y,-z
x,-y,1/2+z
1/2+x,1/2+y,z
1/2-x,1/2+y,1/2-z
1/2-x,1/2-y,-z
1/2+x,1/2-y,1/2+z
loop_
_atom_site_type_symbol
_atom_site_label
_atom_site_fract_x
_atom_site_fract_y
_atom_site_fract_z
Si Si1 0.000000 0.990217 0.750000
Si Si2 0.855040 0.171153 0.037537
Si Si3 0.164227 0.745617 0.754267
Si Si4 0.514454 0.096665 0.412085
Si Si5 0.766131 0.637209 0.425050
Si Si6 0.000000 0.640010 0.250000
Si Si7 0.829027 0.907153 0.913241
O O1 0.067365 0.072568 0.587089
O O2 0.075091 0.924801 0.686913
O O3 0.813046 0.193756 0.196076
O O4 0.773818 0.143540 0.103539
O O5 0.910772 0.277612 0.909716
O O6 0.154274 0.830481 0.694163
O O7 0.245191 0.655550 0.600506
O O8 0.063860 0.687482 0.937163
O O9 0.621941 0.128644 0.253154
O O10 0.506959 0.073562 0.324955
O O11 0.500000 0.000000 0.500000
O O12 0.750000 0.750000 0.500000
O O13 0.712363 0.527434 0.545774
#
# Coordination Sequence:
#
# PCOD9289077 Si02
#       7
#     4   8   8   8   8   4   8
#     4   9  20  38  61  82 116 156 203 237 292 348
#     4   9  19  37  59  85 111 157 194 242 287 348
#     4  10  22  40  60  85 126 152 194 242 306 347
#     4  11  21  39  60  88 117 159 195 240 298 355
#     4  11  21  40  61  86 119 152 203 241 288 355
#     4   9  18  36  59  80 118 150 193 245 288 342
#     4  10  22  41  59  87 123 156 189 255 294 349
#
# _framework density 17.544701
#
# number of rings (size 3 to 8) (size 9 to 14) (size 15 to 20)
#    0.000    2.000    3.333    0.000    2.333    2.000 
#    9.000    0.833    0.000    0.000    0.000    0.000 
#    0.000    0.000    0.000    0.000    0.000    0.000 
#
# Total GULP energy -133683.972884 kJ/mol
# GULP energy per Si atom -5570.165537 kJ/mol
# Density = 1.750477 g / cm^3
# Si number density = 17.544701 Si / 1000 Ang^3
#
#
#
# Elastic Constant Matrix: (Units=GPa)
#
#
# Indices 1 2 3 4 5 6 
#
# 1 124.5095 63.1503 73.0415 0.0000 -2.1921 0.0000
# 2 63.1503 96.6888 43.8445 0.0000 4.0842 0.0000
# 3 73.0415 43.8445 99.0268 0.0000 -2.5365 0.0000
# 4 0.0000 0.0000 0.0000 19.8211 0.0000 7.8034
# 5 -2.1921 4.0842 -2.5365 0.0000 38.0877 0.0000
# 6 0.0000 0.0000 0.0000 7.8034 0.0000 29.2106
#
#
#
# Elastic Compliance Matrix: (Units=1/GPa)
#
#
# Indices 1 2 3 4 5 6 
#
# 1 0.017183 -0.006925 -0.009580 0.000000 0.001094 0.000000
# 2 -0.006925 0.015852 -0.001968 0.000000 -0.002229 0.000000
# 3 -0.009580 -0.001968 0.018058 0.000000 0.000862 0.000000
# 4 0.000000 0.000000 0.000000 0.056381 0.000000 -0.015062
# 5 0.001094 -0.002229 0.000862 0.000000 0.026615 0.000000
# 6 0.000000 0.000000 0.000000 -0.015062 0.000000 0.038258
#
#
# Mechanical properties :
#
#
# Convention : Reuss Voigt Hill
#
# Bulk Modulus (GPa) = 70.68556 75.58864 73.13710
# Shear Modulus (GPa) = 23.36374 26.76981 25.06677
#
# Velocity S-wave (km/s) = 3.65316 3.91039 3.78397
# Velocity P-wave (km/s) = 7.62695 7.97278 7.80178
#
# Compressibility (1/GPa) = 0.01414716
#
# Stress axis : x y z
#
# Youngs Moduli (GPa) = 58.19741 63.08469 55.37752
#
# Poissons Ratio (x) = 0.43684 0.53052
# Poissons Ratio (y) = 0.40300 0.10898
# Poissons Ratio (z) = 0.55753 0.12415
#
# Static dielectric constant tensor:
#      x y z
#    x 1.595310 0.000000 -0.002270 
#    y 0.000000 1.589060 0.000000 
#    z -0.002270 0.000000 1.564500 
# 
# From -- ./inp_files/151883.got.cif
#   From: 2010.05.17/outbox.cif.g08.bks.cpg/sg15_76_cif.got.tgz:151883.got - 2010.06.03 18:47:42.
