data_PCOD9289819
_publ_section_title
;
Structure prediction by ZEFSAII (Michael W. Deem and Ramdas Pophale) SiO2 
 PCOD9289819
Probable space group: C 2/C
;
_chemical_formula_sum "Si O2"
_cell_formula_units_Z 52
_cell_length_a 18.175502
_cell_length_b 13.649040
_cell_length_c 18.805004
_cell_angle_alpha 90.000000
_cell_angle_beta 30.259027
_cell_angle_gamma 90.000000
_cell_volume 2350.796241
_symmetry_space_group_name_H-M "C 2/C"
_symmetry_group_IT_number 15
_symmetry_cell_setting 'monoclinic'
loop_
_space_group_symop_operation_xyz
x,y,z
-x,y,1/2-z
-x,-y,-z
x,-y,1/2+z
1/2+x,1/2+y,z
1/2-x,1/2+y,1/2-z
1/2-x,1/2-y,-z
1/2+x,1/2-y,1/2+z
loop_
_atom_site_type_symbol
_atom_site_label
_atom_site_fract_x
_atom_site_fract_y
_atom_site_fract_z
Si Si1 0.383426 0.122521 0.074244
Si Si2 0.146303 0.807176 0.032065
Si Si3 0.657467 0.747342 0.757948
Si Si4 0.375686 0.738384 0.454203
Si Si5 0.716134 0.942578 0.275202
Si Si6 0.500000 0.878082 0.250000
Si Si7 0.797299 0.971800 0.044385
O O1 0.387309 0.169434 0.149037
O O2 0.277698 0.029870 0.172132
O O3 0.333632 0.205760 0.061227
O O4 0.544255 0.086160 0.917169
O O5 0.205971 0.778534 0.903765
O O6 0.152745 0.924989 0.028513
O O7 0.250000 0.750000 0.000000
O O8 0.980617 0.772710 0.176524
O O9 0.695501 0.650202 0.770375
O O10 0.250000 0.750000 0.500000
O O11 0.503261 0.804051 0.314029
O O12 0.398875 0.623421 0.446245
O O13 0.769254 0.975184 0.152842
O O14 0.643046 0.944243 0.135824
#
# Coordination Sequence:
#
# PCOD9289819 Si02
#       7
#     8   8   8   8   8   4   8
#     4  11  22  42  71 103 142 183 236 288 349 429
#     4  12  29  49  70 103 145 189 243 301 356 432
#     4  12  25  47  71 105 140 187 240 297 357 418
#     4  10  22  41  65 101 136 177 230 291 348 419
#     4  11  23  41  73 105 136 185 241 286 354 427
#     4  10  22  40  68  94 138 184 232 282 366 432
#     4  11  23  42  69 101 134 188 233 293 358 422
#
# _framework density 22.120165
#
# number of rings (size 3 to 8) (size 9 to 14) (size 15 to 20)
#    0.000    0.923    6.154    0.462    2.154    3.077 
#   11.077    0.000    0.000    0.000    0.000    0.000 
#    0.000    0.000    0.000    0.000    0.000    0.000 
#
# Total GULP energy -145321.768499 kJ/mol
# GULP energy per Si atom -5589.298788 kJ/mol
# Density = 2.206982 g / cm^3
# Si number density = 22.120165 Si / 1000 Ang^3
#
#
#
# Elastic Constant Matrix: (Units=GPa)
#
#
# Indices 1 2 3 4 5 6 
#
# 1 44.4703 13.1153 -5.0195 0.0002 11.8609 -0.0001
# 2 13.1153 123.7894 0.0375 0.0001 9.3447 -0.0001
# 3 -5.0195 0.0375 35.6652 0.0002 4.4311 -0.0002
# 4 0.0002 0.0001 0.0002 32.3007 -0.0001 5.8980
# 5 11.8609 9.3447 4.4311 -0.0001 31.9060 0.0001
# 6 -0.0001 -0.0001 -0.0002 5.8980 0.0001 35.8598
#
#
#
# Elastic Compliance Matrix: (Units=1/GPa)
#
#
# Indices 1 2 3 4 5 6 
#
# 1 0.026273 -0.002041 0.004924 0.000000 -0.009853 0.000000
# 2 -0.002041 0.008423 -0.000085 0.000000 -0.001696 0.000000
# 3 0.004924 -0.000085 0.029464 0.000000 -0.005897 0.000000
# 4 0.000000 0.000000 0.000000 0.031918 0.000000 -0.005250
# 5 -0.009853 -0.001696 -0.005897 0.000000 0.036321 0.000000
# 6 0.000000 0.000000 0.000000 -0.005250 0.000000 0.028750
#
#
# Mechanical properties :
#
#
# Convention : Reuss Voigt Hill
#
# Bulk Modulus (GPa) = 14.33615 24.46572 19.40093
# Shear Modulus (GPa) = 27.96351 33.06605 30.51478
#
# Velocity S-wave (km/s) = 3.55937 3.87051 3.71819
# Velocity P-wave (km/s) = 4.83603 5.57304 5.21757
#
# Compressibility (1/GPa) = 0.06975373
#
# Stress axis : x y z
#
# Youngs Moduli (GPa) = 38.06248 118.72861 33.93942
#
# Poissons Ratio (x) = 0.24236 -0.16711
# Poissons Ratio (y) = 0.07770 0.00290
# Poissons Ratio (z) = -0.18741 0.01014
#
# Static dielectric constant tensor:
#      x y z
#    x 1.797290 0.000000 0.010990 
#    y 0.000000 1.827600 0.000000 
#    z 0.010990 0.000000 1.847090 
# 
# From -- ./inp_files/252725.got.cif
#   From: 2010.05.17/outbox.cif.g08.bks.cpg/sg15_127_cif.got.tgz:252725.got - 2010.06.03 18:47:42.
