data_PCOD9289747
_publ_section_title
;
Structure prediction by ZEFSAII (Michael W. Deem and Ramdas Pophale) SiO2 
 PCOD9289747
Probable space group: C 2/C
;
_chemical_formula_sum "Si O2"
_cell_formula_units_Z 24
_cell_length_a 8.365268
_cell_length_b 21.665138
_cell_length_c 5.423453
_cell_angle_alpha 90.000000
_cell_angle_beta 59.846581
_cell_angle_gamma 90.000000
_cell_volume 849.912771
_symmetry_space_group_name_H-M "C 2/C"
_symmetry_group_IT_number 15
_symmetry_cell_setting 'monoclinic'
loop_
_space_group_symop_operation_xyz
x,y,z
-x,y,1/2-z
-x,-y,-z
x,-y,1/2+z
1/2+x,1/2+y,z
1/2-x,1/2+y,1/2-z
1/2-x,1/2-y,-z
1/2+x,1/2-y,1/2+z
loop_
_atom_site_type_symbol
_atom_site_label
_atom_site_fract_x
_atom_site_fract_y
_atom_site_fract_z
Si Si1 0.254692 0.832663 0.679636
Si Si2 0.598574 0.696527 0.871056
Si Si3 0.291159 0.975366 0.684025
O O1 0.372064 0.769796 0.626148
O O2 0.271014 0.837851 0.360087
O O3 0.295999 0.902540 0.719744
O O4 0.122657 0.817208 0.043184
O O5 0.500000 0.681213 0.250000
O O6 0.500000 0.000000 0.500000
O O7 0.201660 0.992303 0.490886
#
# Coordination Sequence:
#
# PCOD9289747 Si02
#       3
#     8   8   8
#     4  10  23  41  65 103 130 174 234 273 352 405
#     4  10  22  40  67  98 134 175 214 297 342 405
#     4  10  24  43  69  98 131 183 230 282 329 407
#
# _framework density 28.238192999999999
#
# number of rings (size 3 to 8) (size 9 to 14) (size 15 to 20)
#    0.000    2.000    0.000    1.000    9.333   10.667 
#    0.000    6.667    0.000    0.000    0.000    0.000 
#    0.000    0.000    0.000    0.000    0.000    0.000 
#
# Total GULP energy -66851.905764 kJ/mol
# GULP energy per Si atom -5570.992147 kJ/mol
# Density = 2.817392 g / cm^3
# Si number density = 28.238193 Si / 1000 Ang^3
#
#
#
# Elastic Constant Matrix: (Units=GPa)
#
#
# Indices 1 2 3 4 5 6 
#
# 1 92.4983 51.7311 101.8726 0.0000 49.1804 0.0000
# 2 51.7311 281.9388 84.6226 0.0000 0.1301 0.0000
# 3 101.8726 84.6226 191.1677 0.0000 36.6058 0.0000
# 4 0.0000 0.0000 0.0000 42.6377 0.0000 -1.0469
# 5 49.1804 0.1301 36.6058 0.0000 79.2069 0.0000
# 6 0.0000 0.0000 0.0000 -1.0469 0.0000 11.1602
#
#
#
# Elastic Compliance Matrix: (Units=1/GPa)
#
#
# Indices 1 2 3 4 5 6 
#
# 1 0.039546 -0.002174 -0.016907 0.000000 -0.016737 0.000000
# 2 -0.002174 0.004271 -0.001085 0.000000 0.001844 0.000000
# 3 -0.016907 -0.001085 0.013944 0.000000 0.004055 0.000000
# 4 0.000000 0.000000 0.000000 0.023508 0.000000 0.002205
# 5 -0.016737 0.001844 0.004055 0.000000 0.021141 0.000000
# 6 0.000000 0.000000 0.000000 0.002205 0.000000 0.089811
#
#
# Mechanical properties :
#
#
# Convention : Reuss Voigt Hill
#
# Bulk Modulus (GPa) = 57.37333 115.78415 86.57874
# Shear Modulus (GPa) = 20.97659 48.42620 34.70140
#
# Velocity S-wave (km/s) = 2.72847 4.14565 3.50934
# Velocity P-wave (km/s) = 5.50344 8.00043 6.86639
#
# Compressibility (1/GPa) = 0.01742970
#
# Stress axis : x y z
#
# Youngs Moduli (GPa) = 25.28702 234.16012 71.71335
#
# Poissons Ratio (x) = 0.50903 1.21243
# Poissons Ratio (y) = 0.05497 0.07782
# Poissons Ratio (z) = 0.42752 0.25409
#
# Static dielectric constant tensor:
#      x y z
#    x -0.783150 0.000000 1.137670 
#    y 0.000000 1.908660 0.000000 
#    z 1.137670 0.000000 2.026000 
# 
# From -- ./inp_files/1555.got.cif
#   From: 2010.05.17/outbox.cif.g08.bks.cpg/sg15_1_cif.got.tgz:1555.got - 2010.06.03 18:47:42.
