data_PCOD9289117
_publ_section_title
;
Structure prediction by ZEFSAII (Michael W. Deem and Ramdas Pophale) SiO2 
 PCOD9289117
Probable space group: C 2/C
;
_chemical_formula_sum "Si O2"
_cell_formula_units_Z 44
_cell_length_a 6.791892
_cell_length_b 23.774371
_cell_length_c 19.539184
_cell_angle_alpha 90.000000
_cell_angle_beta 137.931660
_cell_angle_gamma 90.000000
_cell_volume 2113.935548
_symmetry_space_group_name_H-M "C 2/C"
_symmetry_group_IT_number 15
_symmetry_cell_setting 'monoclinic'
loop_
_space_group_symop_operation_xyz
x,y,z
-x,y,1/2-z
-x,-y,-z
x,-y,1/2+z
1/2+x,1/2+y,z
1/2-x,1/2+y,1/2-z
1/2-x,1/2-y,-z
1/2+x,1/2-y,1/2+z
loop_
_atom_site_type_symbol
_atom_site_label
_atom_site_fract_x
_atom_site_fract_y
_atom_site_fract_z
Si Si1 0.000000 0.234040 0.250000
Si Si2 0.698696 0.395955 0.362224
Si Si3 0.373632 0.585960 0.004437
Si Si4 0.155141 0.979000 0.143871
Si Si5 0.335878 0.690473 0.351128
Si Si6 0.359557 0.281184 0.095297
O O1 0.997010 0.198331 0.178292
O O2 0.290776 0.271098 0.314982
O O3 0.500000 0.370945 0.250000
O O4 0.525582 0.450651 0.342076
O O5 0.712944 0.346505 0.421477
O O6 0.025942 0.411265 0.426300
O O7 0.530877 0.540119 0.093426
O O8 0.507654 0.646265 0.058545
O O9 0.407648 0.561673 0.937062
O O10 0.500000 0.980555 0.250000
O O11 0.293250 0.749542 0.379952
O O12 0.000000 0.671111 0.250000
O O13 0.250000 0.250000 0.000000
#
# Coordination Sequence:
#
# PCOD9289117 Si02
#       6
#     4   8   8   8   8   8
#     4  10  22  40  60  92 132 172 212 262 318 380
#     4  12  24  40  63  97 128 165 213 265 322 383
#     4  11  24  43  67  91 128 168 213 270 322 385
#     4  11  24  44  66  93 125 168 215 266 328 385
#     4  10  22  42  63  96 128 171 221 262 323 387
#     4  11  24  39  64  95 131 172 215 266 322 393
#
# _framework density 20.814257000000001
#
# number of rings (size 3 to 8) (size 9 to 14) (size 15 to 20)
#    0.000    1.091    1.818    4.909    1.273    7.273 
#    1.636    0.000    0.000    0.000    0.000    0.000 
#    0.000    0.000    0.000    0.000    0.000    0.000 
#
# Total GULP energy -122988.373151 kJ/mol
# GULP energy per Si atom -5590.380598 kJ/mol
# Density = 2.076688 g / cm^3
# Si number density = 20.814257 Si / 1000 Ang^3
#
#
#
# Elastic Constant Matrix: (Units=GPa)
#
#
# Indices 1 2 3 4 5 6 
#
# 1 82.6339 30.7538 10.5036 0.0004 2.7782 0.0000
# 2 30.7538 70.2879 3.6141 0.0000 4.4975 0.0000
# 3 10.5036 3.6141 57.2470 0.0015 3.2711 0.0000
# 4 0.0004 0.0000 0.0015 31.7886 0.0005 -1.4119
# 5 2.7782 4.4975 3.2711 0.0005 35.3675 0.0000
# 6 0.0000 0.0000 0.0000 -1.4119 0.0000 29.8087
#
#
#
# Elastic Compliance Matrix: (Units=1/GPa)
#
#
# Indices 1 2 3 4 5 6 
#
# 1 0.014754 -0.006328 -0.002299 0.000000 -0.000142 0.000000
# 2 -0.006328 0.017095 0.000179 0.000000 -0.001693 0.000000
# 3 -0.002299 0.000179 0.017965 -0.000001 -0.001504 0.000000
# 4 0.000000 0.000000 -0.000001 0.031524 0.000000 0.001493
# 5 -0.000142 -0.001693 -0.001504 0.000000 0.028640 0.000000
# 6 0.000000 0.000000 0.000000 0.001493 0.000000 0.033618
#
#
# Mechanical properties :
#
#
# Convention : Reuss Voigt Hill
#
# Bulk Modulus (GPa) = 30.38052 33.32351 31.85201
# Shear Modulus (GPa) = 29.16041 30.41279 29.78660
#
# Velocity S-wave (km/s) = 3.74703 3.82665 3.78705
# Velocity P-wave (km/s) = 5.77477 5.96398 5.87014
#
# Compressibility (1/GPa) = 0.03291583
#
# Stress axis : x y z
#
# Youngs Moduli (GPa) = 67.77955 58.49619 55.66471
#
# Poissons Ratio (x) = 0.37017 0.12800
# Poissons Ratio (y) = 0.42891 -0.00994
# Poissons Ratio (z) = 0.15585 -0.01045
#
# Static dielectric constant tensor:
#      x y z
#    x 1.743960 0.000000 -0.055810 
#    y 0.000000 1.704340 0.000000 
#    z -0.055810 0.000000 1.802760 
# 
# From -- ./inp_files/129499.got.cif
#   From: 2010.05.17/outbox.cif.g08.bks.cpg/sg15_65_cif.got.tgz:129499.got - 2010.06.03 18:47:42.
