data_PCOD9289234
_publ_section_title
;
Structure prediction by ZEFSAII (Michael W. Deem and Ramdas Pophale) SiO2 
 PCOD9289234
Probable space group: C 2/C
;
_chemical_formula_sum "Si O2"
_cell_formula_units_Z 48
_cell_length_a 24.147401
_cell_length_b 10.799184
_cell_length_c 12.810541
_cell_angle_alpha 90.000000
_cell_angle_beta 38.730166
_cell_angle_gamma 90.000000
_cell_volume 2090.078793
_symmetry_space_group_name_H-M "C 2/C"
_symmetry_group_IT_number 15
_symmetry_cell_setting 'monoclinic'
loop_
_space_group_symop_operation_xyz
x,y,z
-x,y,1/2-z
-x,-y,-z
x,-y,1/2+z
1/2+x,1/2+y,z
1/2-x,1/2+y,1/2-z
1/2-x,1/2-y,-z
1/2+x,1/2-y,1/2+z
loop_
_atom_site_type_symbol
_atom_site_label
_atom_site_fract_x
_atom_site_fract_y
_atom_site_fract_z
Si Si1 0.172869 0.864020 0.528609
Si Si2 0.900538 0.291603 0.532345
Si Si3 0.917142 0.095891 0.932987
Si Si4 0.076137 0.195816 0.365191
Si Si5 0.653292 0.068125 0.856111
Si Si6 0.263066 0.219319 0.600958
O O1 0.143618 0.737969 0.513957
O O2 0.159361 0.842784 0.671083
O O3 0.265240 0.914754 0.345880
O O4 0.102926 0.966555 0.592511
O O5 0.893182 0.435831 0.572112
O O6 0.834001 0.223048 0.708532
O O7 0.995505 0.230328 0.408301
O O8 0.000000 0.155114 0.750000
O O9 0.938638 0.093589 0.023786
O O10 0.826590 0.173186 0.052805
O O11 0.090102 0.321381 0.411506
O O12 0.691089 0.098274 0.916638
O O13 0.250000 0.250000 0.500000
#
# Coordination Sequence:
#
# PCOD9289234 Si02
#       6
#     8   8   8   8   8   8
#     4  11  24  43  66  98 135 180 226 278 345 407
#     4  11  22  42  64  97 132 174 225 280 340 403
#     4  11  23  42  65  97 133 175 229 282 337 405
#     4  11  24  42  70  99 134 179 229 284 340 409
#     4  10  23  43  65  96 136 173 229 279 339 407
#     4  10  22  40  62  92 129 176 220 272 337 401
#
# _framework density 22.965641000000002
#
# number of rings (size 3 to 8) (size 9 to 14) (size 15 to 20)
#    0.000    1.333    1.667    3.500    0.000    6.667 
#    0.000    8.333    0.000    0.000    0.000    0.000 
#    0.000    0.000    0.000    0.000    0.000    0.000 
#
# Total GULP energy -134032.494297 kJ/mol
# GULP energy per Si atom -5584.687262 kJ/mol
# Density = 2.291337 g / cm^3
# Si number density = 22.965641 Si / 1000 Ang^3
#
#
#
# Elastic Constant Matrix: (Units=GPa)
#
#
# Indices 1 2 3 4 5 6 
#
# 1 66.1113 10.3388 15.2729 0.0000 14.4661 0.0000
# 2 10.3388 69.3989 -18.4490 0.0000 -1.7160 0.0000
# 3 15.2729 -18.4490 85.9981 0.0000 17.0429 0.0000
# 4 0.0000 0.0000 0.0000 11.7921 0.0000 -5.0797
# 5 14.4661 -1.7160 17.0429 0.0000 45.9749 0.0000
# 6 0.0000 0.0000 0.0000 -5.0797 0.0000 26.5097
#
#
#
# Elastic Compliance Matrix: (Units=1/GPa)
#
#
# Indices 1 2 3 4 5 6 
#
# 1 0.017330 -0.003472 -0.002932 0.000000 -0.004496 0.000000
# 2 -0.003472 0.015997 0.004008 0.000000 0.000204 0.000000
# 3 -0.002932 0.004008 0.013811 0.000000 -0.004048 0.000000
# 4 0.000000 0.000000 0.000000 0.092432 0.000000 0.017712
# 5 -0.004496 0.000204 -0.004048 0.000000 0.024674 0.000000
# 6 0.000000 0.000000 0.000000 0.017712 0.000000 0.041116
#
#
# Mechanical properties :
#
#
# Convention : Reuss Voigt Hill
#
# Bulk Modulus (GPa) = 23.61469 26.20373 24.90921
# Shear Modulus (GPa) = 22.29484 31.14505 26.71995
#
# Velocity S-wave (km/s) = 3.11913 3.68660 3.41468
# Velocity P-wave (km/s) = 4.82462 5.43655 5.13970
#
# Compressibility (1/GPa) = 0.04234652
#
# Stress axis : x y z
#
# Youngs Moduli (GPa) = 57.70326 62.51048 72.40696
#
# Poissons Ratio (x) = 0.21705 0.21227
# Poissons Ratio (y) = 0.20036 -0.29022
# Poissons Ratio (z) = 0.16917 -0.25055
#
# Static dielectric constant tensor:
#      x y z
#    x 1.910550 0.000000 0.053190 
#    y 0.000000 1.914700 0.000000 
#    z 0.053190 0.000000 1.878810 
# 
# From -- ./inp_files/111451.got.cif
#   From: 2010.05.17/outbox.cif.g08.bks.cpg/sg15_56_cif.got.tgz:111451.got - 2010.06.03 18:47:42.
