data_PCOD9289572
_publ_section_title
;
Structure prediction by ZEFSAII (Michael W. Deem and Ramdas Pophale) SiO2 
 PCOD9289572
Probable space group: C 2/C
;
_chemical_formula_sum "Si O2"
_cell_formula_units_Z 52
_cell_length_a 21.988132
_cell_length_b 9.169008
_cell_length_c 12.218961
_cell_angle_alpha 90.000000
_cell_angle_beta 59.908761
_cell_angle_gamma 90.000000
_cell_volume 2131.452109
_symmetry_space_group_name_H-M "C 2/C"
_symmetry_group_IT_number 15
_symmetry_cell_setting 'monoclinic'
loop_
_space_group_symop_operation_xyz
x,y,z
-x,y,1/2-z
-x,-y,-z
x,-y,1/2+z
1/2+x,1/2+y,z
1/2-x,1/2+y,1/2-z
1/2-x,1/2-y,-z
1/2+x,1/2-y,1/2+z
loop_
_atom_site_type_symbol
_atom_site_label
_atom_site_fract_x
_atom_site_fract_y
_atom_site_fract_z
Si Si1 0.265287 0.088516 0.443110
Si Si2 0.093306 0.094726 0.850129
Si Si3 0.201594 0.653888 0.315935
Si Si4 0.052919 0.210337 0.111655
Si Si5 0.326354 0.637289 0.344243
Si Si6 0.000000 0.242802 0.750000
Si Si7 0.903494 0.482989 0.940388
O O1 0.250000 0.250000 0.500000
O O2 0.256534 0.085058 0.321972
O O3 0.209842 0.992126 0.556664
O O4 0.344816 0.037799 0.398020
O O5 0.155595 0.213315 0.811881
O O6 0.048841 0.150084 0.786774
O O7 0.123895 0.936884 0.792013
O O8 0.054378 0.113314 0.002093
O O9 0.260181 0.712983 0.347164
O O10 0.149913 0.529518 0.412718
O O11 0.127440 0.218019 0.107625
O O12 0.041643 0.381769 0.100421
O O13 0.000000 0.155566 0.250000
O O14 0.047735 0.342823 0.625391
#
# Coordination Sequence:
#
# PCOD9289572 Si02
#       7
#     8   8   8   8   8   4   8
#     4  11  20  42  66  98 135 170 230 278 342 405
#     4  11  25  45  69 102 137 181 233 286 343 415
#     4  10  22  40  66 100 132 175 223 286 338 401
#     4  11  26  47  64  99 143 182 232 282 352 411
#     4  11  24  43  69  98 135 181 229 289 345 409
#     4  12  22  46  70 102 140 184 230 284 340 412
#     4  10  23  40  68  98 132 179 225 279 338 409
#
# _framework density 24.396511
#
# number of rings (size 3 to 8) (size 9 to 14) (size 15 to 20)
#    0.000    1.231    3.846    0.923    1.077   11.077 
#    5.538    0.000    0.000    0.000    0.000    0.000 
#    0.000    0.000    0.000    0.000    0.000    0.000 
#
# Total GULP energy -145331.593193 kJ/mol
# GULP energy per Si atom -5589.676661 kJ/mol
# Density = 2.434098 g / cm^3
# Si number density = 24.396511 Si / 1000 Ang^3
#
#
#
# Elastic Constant Matrix: (Units=GPa)
#
#
# Indices 1 2 3 4 5 6 
#
# 1 110.9863 19.6426 10.4067 0.0000 14.4158 0.0000
# 2 19.6426 69.7255 9.4858 0.0000 3.1482 0.0000
# 3 10.4067 9.4858 126.0543 0.0000 3.7733 0.0000
# 4 0.0000 0.0000 0.0000 26.9573 0.0000 0.7749
# 5 14.4158 3.1482 3.7733 0.0000 34.1116 0.0000
# 6 0.0000 0.0000 0.0000 0.7749 0.0000 25.1632
#
#
#
# Elastic Compliance Matrix: (Units=1/GPa)
#
#
# Indices 1 2 3 4 5 6 
#
# 1 0.010027 -0.002576 -0.000516 0.000000 -0.003942 0.000000
# 2 -0.002576 0.015203 -0.000925 0.000000 -0.000212 0.000000
# 3 -0.000516 -0.000925 0.008063 0.000000 -0.000589 0.000000
# 4 0.000000 0.000000 0.000000 0.037129 0.000000 -0.001143
# 5 -0.003942 -0.000212 -0.000589 0.000000 0.031066 0.000000
# 6 0.000000 0.000000 0.000000 -0.001143 0.000000 0.039776
#
#
# Mechanical properties :
#
#
# Convention : Reuss Voigt Hill
#
# Bulk Modulus (GPa) = 39.59140 42.87070 41.23105
# Shear Modulus (GPa) = 31.70229 35.06181 33.38205
#
# Velocity S-wave (km/s) = 3.60871 3.79511 3.70308
# Velocity P-wave (km/s) = 5.79890 6.06749 5.93472
#
# Compressibility (1/GPa) = 0.02525801
#
# Stress axis : x y z
#
# Youngs Moduli (GPa) = 99.73523 65.77566 124.02480
#
# Poissons Ratio (x) = 0.16947 0.06398
# Poissons Ratio (y) = 0.25696 0.11473
# Poissons Ratio (z) = 0.05145 0.06084
#
# Static dielectric constant tensor:
#      x y z
#    x 1.977900 0.000000 -0.006260 
#    y 0.000000 1.949220 0.000000 
#    z -0.006260 0.000000 1.999690 
# 
# From -- ./inp_files/110958.got.cif
#   From: 2010.05.17/outbox.cif.g08.bks.cpg/sg15_56_cif.got.tgz:110958.got - 2010.06.03 18:47:42.
