data_PCOD9289608
_publ_section_title
;
Structure prediction by ZEFSAII (Michael W. Deem and Ramdas Pophale) SiO2 
 PCOD9289608
Probable space group: C 2/C
;
_chemical_formula_sum "Si O2"
_cell_formula_units_Z 60
_cell_length_a 18.735197
_cell_length_b 8.824797
_cell_length_c 23.677329
_cell_angle_alpha 90.000000
_cell_angle_beta 55.444698
_cell_angle_gamma 90.000000
_cell_volume 3224.044430
_symmetry_space_group_name_H-M "C 2/C"
_symmetry_group_IT_number 15
_symmetry_cell_setting 'monoclinic'
loop_
_space_group_symop_operation_xyz
x,y,z
-x,y,1/2-z
-x,-y,-z
x,-y,1/2+z
1/2+x,1/2+y,z
1/2-x,1/2+y,1/2-z
1/2-x,1/2-y,-z
1/2+x,1/2-y,1/2+z
loop_
_atom_site_type_symbol
_atom_site_label
_atom_site_fract_x
_atom_site_fract_y
_atom_site_fract_z
Si Si1 0.710680 0.007987 0.649820
Si Si2 0.730725 0.216981 0.443497
Si Si3 0.194455 0.700033 0.861855
Si Si4 0.347886 0.478804 0.810338
Si Si5 0.000000 0.210930 0.750000
Si Si6 0.915909 0.529964 0.500125
Si Si7 0.600446 0.199932 0.786216
Si Si8 0.043643 0.457430 0.647014
O O1 0.772105 0.127230 0.590163
O O2 0.667379 0.094454 0.721721
O O3 0.757814 0.857778 0.648972
O O4 0.633484 0.969136 0.640625
O O5 0.750000 0.250000 0.500000
O O6 0.807764 0.118205 0.379960
O O7 0.643621 0.119807 0.477134
O O8 0.266399 0.568654 0.820250
O O9 0.141649 0.653198 0.941352
O O10 0.131292 0.708554 0.836752
O O11 0.417402 0.604591 0.796561
O O12 0.393154 0.362182 0.746956
O O13 0.989917 0.323725 0.701382
O O14 0.941057 0.574168 0.425411
O O15 0.000000 0.500000 0.500000
O O16 0.508538 0.114971 0.823335
#
# Coordination Sequence:
#
# PCOD9289608 Si02
#       8
#     8   8   8   8   4   8   8   8
#     4  11  22  40  66  95 122 165 216 258 322 372
#     4  10  22  40  66  91 125 169 218 258 312 387
#     4  11  22  43  62  92 129 165 210 264 320 382
#     4  10  24  37  62  95 127 161 213 261 315 375
#     4  12  24  40  60 100 130 160 214 270 320 368
#     4  11  24  43  64  90 127 170 211 263 325 374
#     4  11  22  39  66  89 128 169 209 259 321 383
#     4  12  22  40  67  90 127 170 210 265 315 384
#
# _framework density 18.610164000000001
#
# number of rings (size 3 to 8) (size 9 to 14) (size 15 to 20)
#    0.000    1.067    5.333    0.800    3.733    1.600 
#    4.800    0.667    0.000    0.000    0.000    0.000 
#    0.000    0.000    0.000    0.000    0.000    0.000 
#
# Total GULP energy -167636.502164 kJ/mol
# GULP energy per Si atom -5587.883405 kJ/mol
# Density = 1.856781 g / cm^3
# Si number density = 18.610164 Si / 1000 Ang^3
#
#
#
# Elastic Constant Matrix: (Units=GPa)
#
#
# Indices 1 2 3 4 5 6 
#
# 1 80.9817 31.1544 22.7959 0.0000 8.8981 0.0001
# 2 31.1544 102.2991 33.0944 -0.0001 8.8548 0.0002
# 3 22.7959 33.0944 95.0666 0.0000 21.4337 0.0000
# 4 0.0000 -0.0001 0.0000 17.7485 0.0000 -1.9999
# 5 8.8981 8.8548 21.4337 0.0000 29.1330 0.0000
# 6 0.0001 0.0002 0.0000 -1.9999 0.0000 23.5972
#
#
#
# Elastic Compliance Matrix: (Units=1/GPa)
#
#
# Indices 1 2 3 4 5 6 
#
# 1 0.014472 -0.003670 -0.001735 0.000000 -0.002028 0.000000
# 2 -0.003670 0.011956 -0.003256 0.000000 -0.000118 0.000000
# 3 -0.001735 -0.003256 0.014058 0.000000 -0.008823 0.000000
# 4 0.000000 0.000000 0.000000 0.056886 0.000000 0.004821
# 5 -0.002028 -0.000118 -0.008823 0.000000 0.041472 0.000000
# 6 0.000000 0.000000 0.000000 0.004821 0.000000 0.042786
#
#
# Mechanical properties :
#
#
# Convention : Reuss Voigt Hill
#
# Bulk Modulus (GPa) = 43.17155 50.27075 46.72115
# Shear Modulus (GPa) = 24.19275 26.84926 25.52100
#
# Velocity S-wave (km/s) = 3.60943 3.80244 3.70719
# Velocity P-wave (km/s) = 6.37329 6.80802 6.59424
#
# Compressibility (1/GPa) = 0.02316340
#
# Stress axis : x y z
#
# Youngs Moduli (GPa) = 69.10004 83.63696 71.13608
#
# Poissons Ratio (x) = 0.30698 0.12344
# Poissons Ratio (y) = 0.25362 0.23159
# Poissons Ratio (z) = 0.11991 0.27229
#
# Static dielectric constant tensor:
#      x y z
#    x 1.621790 0.000000 -0.019510 
#    y 0.000000 1.633600 0.000000 
#    z -0.019510 0.000000 1.642720 
# 
# From -- ./inp_files/247398.got.cif
#   From: 2010.05.17/outbox.cif.g08.bks.cpg/sg15_124_cif.got.tgz:247398.got - 2010.06.03 18:47:42.
