data_PCOD9289470
_publ_section_title
;
Structure prediction by ZEFSAII (Michael W. Deem and Ramdas Pophale) SiO2 
 PCOD9289470
Probable space group: C 2/C
;
_chemical_formula_sum "Si O2"
_cell_formula_units_Z 60
_cell_length_a 24.919953
_cell_length_b 8.928648
_cell_length_c 25.737913
_cell_angle_alpha 90.000000
_cell_angle_beta 31.275380
_cell_angle_gamma 90.000000
_cell_volume 2973.039638
_symmetry_space_group_name_H-M "C 2/C"
_symmetry_group_IT_number 15
_symmetry_cell_setting 'monoclinic'
loop_
_space_group_symop_operation_xyz
x,y,z
-x,y,1/2-z
-x,-y,-z
x,-y,1/2+z
1/2+x,1/2+y,z
1/2-x,1/2+y,1/2-z
1/2-x,1/2-y,-z
1/2+x,1/2-y,1/2+z
loop_
_atom_site_type_symbol
_atom_site_label
_atom_site_fract_x
_atom_site_fract_y
_atom_site_fract_z
Si Si1 0.162136 0.848480 0.541847
Si Si2 0.888436 0.546754 0.108945
Si Si3 0.000000 0.996135 0.250000
Si Si4 0.327110 0.634177 0.039867
Si Si5 0.820287 0.096177 0.834123
Si Si6 0.428316 0.642343 0.634926
Si Si7 0.220185 0.042631 0.823546
Si Si8 0.202956 0.322970 0.913429
O O1 0.250000 0.750000 0.500000
O O2 0.132536 0.741320 0.517583
O O3 0.065369 0.899797 0.656366
O O4 0.197076 0.004268 0.483278
O O5 0.902244 0.700049 0.129446
O O6 0.816248 0.448340 0.205163
O O7 0.838642 0.560474 0.093643
O O8 0.000000 0.500000 0.000000
O O9 0.080976 0.887214 0.211059
O O10 0.272814 0.792918 0.072609
O O11 0.279384 0.590304 0.135446
O O12 0.451147 0.633783 0.948279
O O13 0.861268 0.120205 0.742015
O O14 0.793369 0.920024 0.863565
O O15 0.382284 0.532573 0.628076
O O16 0.226115 0.184857 0.856595
#
# Coordination Sequence:
#
# PCOD9289470 Si02
#       8
#     8   8   4   8   8   8   8   8
#     4  11  24  48  68  97 128 175 232 285 344 403
#     4  11  22  38  61 102 142 176 219 271 333 408
#     4  12  26  46  74  94 130 178 230 294 358 402
#     4  11  24  44  69  96 136 178 227 280 339 418
#     4  12  23  44  68  98 134 177 229 284 341 408
#     4  11  22  39  67  99 133 183 219 271 343 401
#     4  10  22  40  64  98 137 178 224 266 332 413
#     4  10  23  41  67  95 135 179 219 280 331 401
#
# _framework density 20.181366000000001
#
# number of rings (size 3 to 8) (size 9 to 14) (size 15 to 20)
#    0.000    1.067    5.333    1.200    0.000    1.600 
#    2.400    0.667    0.000    0.000    0.000    0.000 
#    0.000    0.000    0.000    0.000    0.000    0.000 
#
# Total GULP energy -167004.301543 kJ/mol
# GULP energy per Si atom -5566.810051 kJ/mol
# Density = 2.013543 g / cm^3
# Si number density = 20.181366 Si / 1000 Ang^3
#
#
#
# Elastic Constant Matrix: (Units=GPa)
#
#
# Indices 1 2 3 4 5 6 
#
# 1 94.8133 39.4304 41.2940 -0.0003 4.9816 -0.0001
# 2 39.4304 36.1281 27.1054 -0.0012 3.0447 -0.0008
# 3 41.2940 27.1054 126.8443 -0.0011 21.8084 0.0001
# 4 -0.0003 -0.0012 -0.0011 26.0490 0.0004 -1.0120
# 5 4.9816 3.0447 21.8084 0.0004 40.7805 0.0002
# 6 -0.0001 -0.0008 0.0001 -1.0120 0.0002 26.7605
#
#
#
# Elastic Compliance Matrix: (Units=1/GPa)
#
#
# Indices 1 2 3 4 5 6 
#
# 1 0.019808 -0.019971 -0.002226 -0.000001 0.000262 0.000000
# 2 -0.019971 0.053176 -0.005064 0.000002 0.001178 0.000001
# 3 -0.002226 -0.005064 0.010549 0.000000 -0.004991 0.000000
# 4 -0.000001 0.000002 0.000000 0.038446 -0.000001 0.001454
# 5 0.000262 0.001178 -0.004991 -0.000001 0.027071 0.000000
# 6 0.000000 0.000001 0.000000 0.001454 0.000000 0.037424
#
#
# Mechanical properties :
#
#
# Convention : Reuss Voigt Hill
#
# Bulk Modulus (GPa) = 34.46997 52.60502 43.53749
# Shear Modulus (GPa) = 19.94704 28.71506 24.33105
#
# Velocity S-wave (km/s) = 3.14728 3.77616 3.47597
# Velocity P-wave (km/s) = 5.50675 6.71828 6.14246
#
# Compressibility (1/GPa) = 0.02901076
#
# Stress axis : x y z
#
# Youngs Moduli (GPa) = 50.48470 18.80564 94.79902
#
# Poissons Ratio (x) = 0.37556 0.21102
# Poissons Ratio (y) = 1.00821 0.48008
# Poissons Ratio (z) = 0.11238 0.09524
#
# Static dielectric constant tensor:
#      x y z
#    x 1.579050 0.000000 0.030650 
#    y 0.000000 1.573400 0.000000 
#    z 0.030650 0.000000 1.649420 
# 
# From -- ./inp_files/302051.got.cif
#   From: 2010.05.17/outbox.cif.g08.bks.cpg/sg15_152_cif.got.tgz:302051.got - 2010.06.03 18:47:42.
