data_PCOD9289790
_publ_section_title
;
Structure prediction by ZEFSAII (Michael W. Deem and Ramdas Pophale) SiO2 
 PCOD9289790
Probable space group: C 2/C
;
_chemical_formula_sum "Si O2"
_cell_formula_units_Z 40
_cell_length_a 11.449645
_cell_length_b 14.608452
_cell_length_c 14.779159
_cell_angle_alpha 90.000000
_cell_angle_beta 133.060131
_cell_angle_gamma 90.000000
_cell_volume 1806.125527
_symmetry_space_group_name_H-M "C 2/C"
_symmetry_group_IT_number 15
_symmetry_cell_setting 'monoclinic'
loop_
_space_group_symop_operation_xyz
x,y,z
-x,y,1/2-z
-x,-y,-z
x,-y,1/2+z
1/2+x,1/2+y,z
1/2-x,1/2+y,1/2-z
1/2-x,1/2-y,-z
1/2+x,1/2-y,1/2+z
loop_
_atom_site_type_symbol
_atom_site_label
_atom_site_fract_x
_atom_site_fract_y
_atom_site_fract_z
Si Si1 0.062177 0.235021 0.385343
Si Si2 0.219080 0.643589 0.735744
Si Si3 0.132759 0.944618 0.016860
Si Si4 0.242172 0.900848 0.442614
Si Si5 0.493366 0.233005 0.141729
O O1 0.250000 0.250000 0.500000
O O2 0.038100 0.140298 0.424063
O O3 0.000000 0.226497 0.250000
O O4 0.958502 0.318301 0.369326
O O5 0.242555 0.589679 0.841155
O O6 0.276359 0.590971 0.675527
O O7 0.335931 0.732520 0.802308
O O8 0.214127 0.006960 0.983094
O O9 0.000000 0.000000 0.000000
O O10 0.411057 0.850556 0.547552
O O11 0.117946 0.824476 0.416057
O O12 0.500000 0.205362 0.250000
#
# Coordination Sequence:
#
# PCOD9289790 Si02
#       5
#     8   8   8   8   8
#     4  12  28  52  75 102 150 206 256 305 381 460
#     4  11  23  46  75 103 146 200 252 305 383 447
#     4  12  26  44  73 113 147 196 251 312 367 450
#     4  10  22  40  68 110 147 185 242 311 369 446
#     4   9  19  38  68 105 145 184 234 297 379 446
#
# _framework density 22.146854999999999
#
# number of rings (size 3 to 8) (size 9 to 14) (size 15 to 20)
#    0.000    1.200    4.000    1.200    8.400    0.000 
#    3.600    1.000    0.000    0.000    0.000    0.000 
#    0.000    0.000    0.000    0.000    0.000    0.000 
#
# Total GULP energy -111819.891794 kJ/mol
# GULP energy per Si atom -5590.994590 kJ/mol
# Density = 2.209645 g / cm^3
# Si number density = 22.146855 Si / 1000 Ang^3
#
#
#
# Elastic Constant Matrix: (Units=GPa)
#
#
# Indices 1 2 3 4 5 6 
#
# 1 93.9372 39.6338 51.5925 0.0000 -1.2094 0.0000
# 2 39.6338 73.7232 53.5305 0.0000 -22.2670 0.0000
# 3 51.5925 53.5305 124.5107 0.0000 -7.9016 0.0000
# 4 0.0000 0.0000 0.0000 32.2818 0.0000 -8.6671
# 5 -1.2094 -22.2670 -7.9016 0.0000 50.5171 0.0000
# 6 0.0000 0.0000 0.0000 -8.6671 0.0000 31.5620
#
#
#
# Elastic Compliance Matrix: (Units=1/GPa)
#
#
# Indices 1 2 3 4 5 6 
#
# 1 0.015421 -0.006450 -0.003812 0.000000 -0.003070 0.000000
# 2 -0.006450 0.025639 -0.007720 0.000000 0.009939 0.000000
# 3 -0.003812 -0.007720 0.012835 0.000000 -0.001486 0.000000
# 4 0.000000 0.000000 0.000000 0.033443 0.000000 0.009184
# 5 -0.003070 0.009939 -0.001486 0.000000 0.023870 0.000000
# 6 0.000000 0.000000 0.000000 0.009184 0.000000 0.034206
#
#
# Mechanical properties :
#
#
# Convention : Reuss Voigt Hill
#
# Bulk Modulus (GPa) = 55.76327 64.63165 60.19746
# Shear Modulus (GPa) = 26.68758 32.69980 29.69369
#
# Velocity S-wave (km/s) = 3.47512 3.84669 3.66562
# Velocity P-wave (km/s) = 6.42926 6.99828 6.71980
#
# Compressibility (1/GPa) = 0.01793295
#
# Stress axis : x y z
#
# Youngs Moduli (GPa) = 64.84837 39.00328 77.90994
#
# Poissons Ratio (x) = 0.25156 0.29696
# Poissons Ratio (y) = 0.41826 0.60143
# Poissons Ratio (z) = 0.24718 0.30109
#
# Static dielectric constant tensor:
#      x y z
#    x 1.855330 0.000000 -0.015750 
#    y 0.000000 1.687770 0.000000 
#    z -0.015750 0.000000 1.879160 
# 
# From -- ./inp_files/143924.got.cif
#   From: 2010.05.17/outbox.cif.g08.bks.cpg/sg15_72_cif.got.tgz:143924.got - 2010.06.03 18:47:42.
