data_PCOD9289067
_publ_section_title
;
Structure prediction by ZEFSAII (Michael W. Deem and Ramdas Pophale) SiO2 
 PCOD9289067
Probable space group: C 2/C
;
_chemical_formula_sum "Si O2"
_cell_formula_units_Z 56
_cell_length_a 12.211285
_cell_length_b 16.567854
_cell_length_c 16.467451
_cell_angle_alpha 90.000000
_cell_angle_beta 61.913798
_cell_angle_gamma 90.000000
_cell_volume 2939.279484
_symmetry_space_group_name_H-M "C 2/C"
_symmetry_group_IT_number 15
_symmetry_cell_setting 'monoclinic'
loop_
_space_group_symop_operation_xyz
x,y,z
-x,y,1/2-z
-x,-y,-z
x,-y,1/2+z
1/2+x,1/2+y,z
1/2-x,1/2+y,1/2-z
1/2-x,1/2-y,-z
1/2+x,1/2-y,1/2+z
loop_
_atom_site_type_symbol
_atom_site_label
_atom_site_fract_x
_atom_site_fract_y
_atom_site_fract_z
Si Si1 0.019903 0.420612 0.938934
Si Si2 0.168856 0.878821 0.522831
Si Si3 0.259790 0.045844 0.469307
Si Si4 0.271986 0.365354 0.811117
Si Si5 0.525123 0.612146 0.645455
Si Si6 0.401232 0.746043 0.583851
Si Si7 0.592853 0.548217 0.372592
O O1 0.895431 0.416469 0.929180
O O2 0.154756 0.427563 0.849138
O O3 0.037328 0.329845 0.969977
O O4 0.000000 0.500000 0.000000
O O5 0.177012 0.861009 0.615252
O O6 0.163949 0.802998 0.465551
O O7 0.039757 0.923810 0.548235
O O8 0.270088 0.948483 0.473292
O O9 0.162717 0.078904 0.572127
O O10 0.194427 0.059878 0.406159
O O11 0.205818 0.279868 0.818765
O O12 0.372990 0.394889 0.714119
O O13 0.500000 0.625079 0.750000
O O14 0.494331 0.690402 0.601975
O O15 0.428641 0.542203 0.651373
#
# Coordination Sequence:
#
# PCOD9289067 Si02
#       7
#     8   8   8   8   8   8   8
#     4  10  23  40  59  91 122 169 202 247 326 377
#     4  11  18  41  65  90 117 164 214 260 305 372
#     4  11  20  39  67  86 128 161 206 252 323 381
#     4  10  23  37  62  88 126 159 212 256 309 371
#     4  11  22  38  63  95 122 161 210 262 310 370
#     4  10  22  40  59  93 123 163 210 256 319 366
#     4  11  21  38  65  92 121 160 214 261 311 368
#
# _framework density 19.052288000000001
#
# number of rings (size 3 to 8) (size 9 to 14) (size 15 to 20)
#    0.857    0.571    4.286    3.429    0.000    2.286 
#    2.571    0.000    0.000    1.714    0.000    0.000 
#    0.000    0.000    0.000    0.000    0.000    0.000 
#
# Total GULP energy -155869.528218 kJ/mol
# GULP energy per Si atom -5566.768865 kJ/mol
# Density = 1.900892 g / cm^3
# Si number density = 19.052288 Si / 1000 Ang^3
#
#
#
# Elastic Constant Matrix: (Units=GPa)
#
#
# Indices 1 2 3 4 5 6 
#
# 1 90.4324 15.4786 11.6946 0.0000 8.7080 0.0000
# 2 15.4786 107.8725 21.5640 0.0000 3.3550 0.0000
# 3 11.6946 21.5640 63.2148 0.0000 14.0523 0.0000
# 4 0.0000 0.0000 0.0000 24.3878 0.0000 5.8033
# 5 8.7080 3.3550 14.0523 0.0000 20.6189 0.0000
# 6 0.0000 0.0000 0.0000 5.8033 0.0000 19.8533
#
#
#
# Elastic Compliance Matrix: (Units=1/GPa)
#
#
# Indices 1 2 3 4 5 6 
#
# 1 0.011806 -0.001410 -0.000761 0.000000 -0.004238 0.000000
# 2 -0.001410 0.010129 -0.003489 0.000000 0.001325 0.000000
# 3 -0.000761 -0.003489 0.019979 0.000000 -0.012727 0.000000
# 4 0.000000 0.000000 0.000000 0.044070 0.000000 -0.012882
# 5 -0.004238 0.001325 -0.012727 0.000000 0.058747 0.000000
# 6 0.000000 0.000000 0.000000 -0.012882 0.000000 0.054135
#
#
# Mechanical properties :
#
#
# Convention : Reuss Voigt Hill
#
# Bulk Modulus (GPa) = 32.68620 39.88820 36.28720
# Shear Modulus (GPa) = 22.68774 27.15750 24.92262
#
# Velocity S-wave (km/s) = 3.45456 3.77957 3.62071
# Velocity P-wave (km/s) = 5.75372 6.32681 6.04706
#
# Compressibility (1/GPa) = 0.03059395
#
# Stress axis : x y z
#
# Youngs Moduli (GPa) = 84.70388 98.72885 50.05210
#
# Poissons Ratio (x) = 0.13922 0.03809
# Poissons Ratio (y) = 0.11944 0.17462
# Poissons Ratio (z) = 0.06446 0.34445
#
# Static dielectric constant tensor:
#      x y z
#    x 1.718370 0.000000 0.002270 
#    y 0.000000 1.717070 0.000000 
#    z 0.002270 0.000000 1.674320 
# 
# From -- ./inp_files/145564.got.cif
#   From: 2010.05.17/outbox.cif.g08.bks.cpg/sg15_73_cif.got.tgz:145564.got - 2010.06.03 18:47:42.
