data_PCOD9289896
_publ_section_title
;
Structure prediction by ZEFSAII (Michael W. Deem and Ramdas Pophale) SiO2 
 PCOD9289896
Probable space group: C 2/C
;
_chemical_formula_sum "Si O2"
_cell_formula_units_Z 56
_cell_length_a 11.925925
_cell_length_b 16.716199
_cell_length_c 28.996057
_cell_angle_alpha 90.000000
_cell_angle_beta 29.860848
_cell_angle_gamma 90.000000
_cell_volume 2878.104315
_symmetry_space_group_name_H-M "C 2/C"
_symmetry_group_IT_number 15
_symmetry_cell_setting 'monoclinic'
loop_
_space_group_symop_operation_xyz
x,y,z
-x,y,1/2-z
-x,-y,-z
x,-y,1/2+z
1/2+x,1/2+y,z
1/2-x,1/2+y,1/2-z
1/2-x,1/2-y,-z
1/2+x,1/2-y,1/2+z
loop_
_atom_site_type_symbol
_atom_site_label
_atom_site_fract_x
_atom_site_fract_y
_atom_site_fract_z
Si Si1 0.960844 0.047842 0.348049
Si Si2 0.825654 0.705710 0.354683
Si Si3 0.128397 0.438906 0.044599
Si Si4 0.956705 0.394441 0.641893
Si Si5 0.226457 0.189239 0.143693
Si Si6 0.311070 0.610579 0.856804
Si Si7 0.312603 0.298937 0.024035
O O1 0.859353 0.068759 0.433647
O O2 0.827946 0.102272 0.358545
O O3 0.218891 0.071031 0.246660
O O4 0.890732 0.956584 0.363910
O O5 0.806153 0.799036 0.376546
O O6 0.576167 0.681200 0.428540
O O7 0.000000 0.702123 0.250000
O O8 0.913178 0.650302 0.364197
O O9 0.154394 0.376892 0.077343
O O10 0.083901 0.528532 0.076655
O O11 0.925696 0.412286 0.082757
O O12 0.905996 0.330655 0.619256
O O13 0.277865 0.247146 0.082730
O O14 0.000000 0.217911 0.250000
O O15 0.500000 0.607653 0.750000
O O16 0.250000 0.250000 0.000000
#
# Coordination Sequence:
#
# PCOD9289896 Si02
#       7
#     8   8   8   8   8   8   8
#     4  11  20  40  67  98 129 173 222 275 334 386
#     4  11  26  43  69  97 139 178 223 273 339 400
#     4  12  23  39  70  92 134 177 222 274 326 400
#     4  11  25  44  65  99 136 171 222 279 336 396
#     4  10  22  40  69  98 134 172 220 277 340 387
#     4  11  20  37  65 102 122 163 233 278 315 380
#     4  12  24  43  67 101 134 180 225 270 333 405
#
# _framework density 19.457252
#
# number of rings (size 3 to 8) (size 9 to 14) (size 15 to 20)
#    0.000    0.857    5.714    1.714    4.000    1.143 
#    0.000    0.714    0.000    0.000    0.000    0.000 
#    0.000    0.000    0.000    0.000    0.000    0.000 
#
# Total GULP energy -156416.710107 kJ/mol
# GULP energy per Si atom -5586.311075 kJ/mol
# Density = 1.941297 g / cm^3
# Si number density = 19.457252 Si / 1000 Ang^3
#
#
#
# Elastic Constant Matrix: (Units=GPa)
#
#
# Indices 1 2 3 4 5 6 
#
# 1 137.7549 68.1446 53.6009 0.0003 -10.5913 0.0002
# 2 68.1446 96.0622 28.8097 0.0008 -4.2579 -0.0019
# 3 53.6009 28.8097 88.0451 -0.0291 10.9905 -0.0109
# 4 0.0003 0.0008 -0.0291 8.5764 0.0108 2.2676
# 5 -10.5913 -4.2579 10.9905 0.0108 27.0195 0.0003
# 6 0.0002 -0.0019 -0.0109 2.2676 0.0003 40.8335
#
#
#
# Elastic Compliance Matrix: (Units=1/GPa)
#
#
# Indices 1 2 3 4 5 6 
#
# 1 0.014472 -0.007785 -0.007182 -0.000033 0.007367 -0.000001
# 2 -0.007785 0.016061 -0.000475 -0.000003 -0.000328 0.000001
# 3 -0.007182 -0.000475 0.017116 0.000070 -0.009852 0.000001
# 4 -0.000033 -0.000003 0.000070 0.118336 -0.000089 -0.006571
# 5 0.007367 -0.000328 -0.009852 -0.000089 0.043854 0.000002
# 6 -0.000001 0.000001 0.000001 -0.006571 0.000002 0.024855
#
#
# Mechanical properties :
#
#
# Convention : Reuss Voigt Hill
#
# Bulk Modulus (GPa) = 59.65553 69.21918 64.43735
# Shear Modulus (GPa) = 18.43894 26.70636 22.57265
#
# Velocity S-wave (km/s) = 3.08176 3.70883 3.40974
# Velocity P-wave (km/s) = 6.58706 7.34798 6.97790
#
# Compressibility (1/GPa) = 0.01676291
#
# Stress axis : x y z
#
# Youngs Moduli (GPa) = 69.10071 62.26453 58.42632
#
# Poissons Ratio (x) = 0.48475 0.41964
# Poissons Ratio (y) = 0.53797 0.02774
# Poissons Ratio (z) = 0.49631 0.02956
#
# Static dielectric constant tensor:
#      x y z
#    x 1.667270 0.000000 0.013910 
#    y 0.000000 1.706360 0.000000 
#    z 0.013910 0.000000 1.711650 
# 
# From -- ./inp_files/199587.got.cif
#   From: 2010.05.17/outbox.cif.g08.bks.cpg/sg15_100_cif.got.tgz:199587.got - 2010.06.03 18:47:42.
