data_PCOD9289405
_publ_section_title
;
Structure prediction by ZEFSAII (Michael W. Deem and Ramdas Pophale) SiO2 
 PCOD9289405
Probable space group: C 2/C
;
_chemical_formula_sum "Si O2"
_cell_formula_units_Z 48
_cell_length_a 6.191419
_cell_length_b 23.582933
_cell_length_c 16.111008
_cell_angle_alpha 90.000000
_cell_angle_beta 74.127767
_cell_angle_gamma 90.000000
_cell_volume 2262.709997
_symmetry_space_group_name_H-M "C 2/C"
_symmetry_group_IT_number 15
_symmetry_cell_setting 'monoclinic'
loop_
_space_group_symop_operation_xyz
x,y,z
-x,y,1/2-z
-x,-y,-z
x,-y,1/2+z
1/2+x,1/2+y,z
1/2-x,1/2+y,1/2-z
1/2-x,1/2-y,-z
1/2+x,1/2-y,1/2+z
loop_
_atom_site_type_symbol
_atom_site_label
_atom_site_fract_x
_atom_site_fract_y
_atom_site_fract_z
Si Si1 0.122309 0.211016 0.904058
Si Si2 0.000000 0.501819 0.250000
Si Si3 0.722294 0.626641 0.630168
Si Si4 0.681011 0.418641 0.675657
Si Si5 0.060956 0.983082 0.397469
Si Si6 0.122841 0.334671 0.974060
Si Si7 0.000000 0.332924 0.250000
O O1 0.064185 0.273580 0.941399
O O2 0.351797 0.205610 0.827174
O O3 0.935437 0.180974 0.868526
O O4 0.174071 0.175297 0.982202
O O5 0.849918 0.542179 0.208478
O O6 0.818079 0.474045 0.335349
O O7 0.582417 0.570905 0.620189
O O8 0.924867 0.636000 0.545432
O O9 0.832273 0.629728 0.710141
O O10 0.500000 0.385769 0.750000
O O11 0.531344 0.462095 0.639538
O O12 0.810271 0.375919 0.605255
O O13 0.000000 0.000000 0.500000
#
# Coordination Sequence:
#
# PCOD9289405 Si02
#       7
#     8   4   8   8   8   8   4
#     4  10  22  40  64  92 129 169 218 267 329 392
#     4  10  24  43  60  98 130 170 219 264 326 400
#     4  11  23  41  65  95 131 172 220 272 334 399
#     4  10  23  42  63  94 128 166 217 267 327 389
#     4  11  24  42  69  95 132 175 219 275 333 399
#     4  10  22  41  64  93 128 169 217 272 324 399
#     4  10  24  41  60  96 128 170 217 270 332 384
#
# _framework density 21.213501000000001
#
# number of rings (size 3 to 8) (size 9 to 14) (size 15 to 20)
#    0.000    1.667    0.000    3.000    1.167   12.000 
#    3.000    0.000    0.000    0.000    0.000    0.000 
#    0.000    0.000    0.000    0.000    0.000    0.000 
#
# Total GULP energy -133997.102768 kJ/mol
# GULP energy per Si atom -5583.212615 kJ/mol
# Density = 2.116522 g / cm^3
# Si number density = 21.213501 Si / 1000 Ang^3
#
#
#
# Elastic Constant Matrix: (Units=GPa)
#
#
# Indices 1 2 3 4 5 6 
#
# 1 92.8252 23.2367 52.8173 0.0000 2.9076 0.0000
# 2 23.2367 54.8183 38.2218 0.0000 -3.5125 0.0000
# 3 52.8173 38.2218 148.6945 0.0000 -8.1582 0.0000
# 4 0.0000 0.0000 0.0000 39.0337 0.0000 0.7880
# 5 2.9076 -3.5125 -8.1582 0.0000 35.9173 0.0000
# 6 0.0000 0.0000 0.0000 0.7880 0.0000 16.3183
#
#
#
# Elastic Compliance Matrix: (Units=1/GPa)
#
#
# Indices 1 2 3 4 5 6 
#
# 1 0.014097 -0.003103 -0.004343 0.000000 -0.002431 0.000000
# 2 -0.003103 0.022937 -0.004715 0.000000 0.001423 0.000000
# 3 -0.004343 -0.004715 0.009594 0.000000 0.002069 0.000000
# 4 0.000000 0.000000 0.000000 0.025644 0.000000 -0.001238
# 5 -0.002431 0.001423 0.002069 0.000000 0.028648 0.000000
# 6 0.000000 0.000000 0.000000 -0.001238 0.000000 0.061341
#
#
# Mechanical properties :
#
#
# Convention : Reuss Voigt Hill
#
# Bulk Modulus (GPa) = 44.83554 58.32106 51.57830
# Shear Modulus (GPa) = 25.77084 30.39133 28.08109
#
# Velocity S-wave (km/s) = 3.48923 3.78913 3.64227
# Velocity P-wave (km/s) = 6.11671 6.83341 6.48497
#
# Compressibility (1/GPa) = 0.02230374
#
# Stress axis : x y z
#
# Youngs Moduli (GPa) = 70.93659 43.59862 104.23666
#
# Poissons Ratio (x) = 0.13529 0.45271
# Poissons Ratio (y) = 0.22012 0.49153
# Poissons Ratio (z) = 0.30809 0.20559
#
# Static dielectric constant tensor:
#      x y z
#    x 1.773810 0.000000 -0.032130 
#    y 0.000000 1.737450 0.000000 
#    z -0.032130 0.000000 1.811970 
# 
# From -- ./inp_files/185491.got.cif
#   From: 2010.05.17/outbox.cif.g08.bks.cpg/sg15_93_cif.got.tgz:185491.got - 2010.06.03 18:47:42.
