data_PCOD9289899
_publ_section_title
;
Structure prediction by ZEFSAII (Michael W. Deem and Ramdas Pophale) SiO2 
 PCOD9289899
Probable space group: C 2/C
;
_chemical_formula_sum "Si O2"
_cell_formula_units_Z 36
_cell_length_a 12.370203
_cell_length_b 8.895126
_cell_length_c 22.628066
_cell_angle_alpha 90.000000
_cell_angle_beta 146.478635
_cell_angle_gamma 90.000000
_cell_volume 1375.024500
_symmetry_space_group_name_H-M "C 2/C"
_symmetry_group_IT_number 15
_symmetry_cell_setting 'monoclinic'
loop_
_space_group_symop_operation_xyz
x,y,z
-x,y,1/2-z
-x,-y,-z
x,-y,1/2+z
1/2+x,1/2+y,z
1/2-x,1/2+y,1/2-z
1/2-x,1/2-y,-z
1/2+x,1/2-y,1/2+z
loop_
_atom_site_type_symbol
_atom_site_label
_atom_site_fract_x
_atom_site_fract_y
_atom_site_fract_z
Si Si1 0.000000 0.710157 0.750000
Si Si2 0.535193 0.763529 0.678780
Si Si3 0.891454 0.917200 0.799785
Si Si4 0.839807 0.124821 0.983570
Si Si5 0.111250 0.777919 0.514847
O O1 0.132471 0.818553 0.769901
O O2 0.866319 0.617821 0.643930
O O3 0.719933 0.873345 0.767365
O O4 0.612658 0.593020 0.714037
O O5 0.341830 0.759414 0.630885
O O6 0.446925 0.803916 0.572681
O O7 0.103135 0.859565 0.921577
O O8 0.972050 0.243751 0.007364
O O9 0.919206 0.953645 0.013917
#
# Coordination Sequence:
#
# PCOD9289899 Si02
#       5
#     4   8   8   8   8
#     4  12  24  44  60  96 140 170 212 290 314 388
#     4  10  22  43  67  99 135 170 217 269 332 389
#     4  11  25  42  66  99 130 176 220 267 331 390
#     4  10  22  40  69  99 126 174 223 262 335 387
#     4   9  20  41  69  97 129 170 221 273 319 397
#
# _framework density 26.181350999999999
#
# number of rings (size 3 to 8) (size 9 to 14) (size 15 to 20)
#    0.000    1.778    2.222    0.667    3.111    2.667 
#    4.000    2.222    0.000    0.000    0.000    0.000 
#    0.000    0.000    0.000    0.000    0.000    0.000 
#
# Total GULP energy -100511.019555 kJ/mol
# GULP energy per Si atom -5583.945531 kJ/mol
# Density = 2.612176 g / cm^3
# Si number density = 26.181351 Si / 1000 Ang^3
#
#
#
# Elastic Constant Matrix: (Units=GPa)
#
#
# Indices 1 2 3 4 5 6 
#
# 1 72.0507 -5.0400 11.0481 0.0000 15.2975 0.0000
# 2 -5.0400 43.1891 11.4467 0.0000 4.4333 0.0000
# 3 11.0481 11.4467 115.9895 0.0000 11.9239 0.0000
# 4 0.0000 0.0000 0.0000 27.0487 0.0000 10.3138
# 5 15.2975 4.4333 11.9239 0.0000 49.6691 0.0000
# 6 0.0000 0.0000 0.0000 10.3138 0.0000 21.0161
#
#
#
# Elastic Compliance Matrix: (Units=1/GPa)
#
#
# Indices 1 2 3 4 5 6 
#
# 1 0.015230 0.002578 -0.001230 0.000000 -0.004626 0.000000
# 2 0.002578 0.024337 -0.002402 0.000000 -0.002390 0.000000
# 3 -0.001230 -0.002402 0.009140 0.000000 -0.001601 0.000000
# 4 0.000000 0.000000 0.000000 0.045481 0.000000 -0.022320
# 5 -0.004626 -0.002390 -0.001601 0.000000 0.022156 0.000000
# 6 0.000000 0.000000 0.000000 -0.022320 0.000000 0.058536
#
#
# Mechanical properties :
#
#
# Convention : Reuss Voigt Hill
#
# Bulk Modulus (GPa) = 21.45898 29.57099 25.51499
# Shear Modulus (GPa) = 25.97136 33.79840 29.88488
#
# Velocity S-wave (km/s) = 3.15299 3.59686 3.38221
# Velocity P-wave (km/s) = 4.63349 5.34500 5.00191
#
# Compressibility (1/GPa) = 0.04660053
#
# Stress axis : x y z
#
# Youngs Moduli (GPa) = 65.65950 41.09032 109.40674
#
# Poissons Ratio (x) = -0.10593 0.13452
# Poissons Ratio (y) = -0.16927 0.26275
# Poissons Ratio (z) = 0.08073 0.09868
#
# Static dielectric constant tensor:
#      x y z
#    x 2.265500 0.000000 0.012570 
#    y 0.000000 2.010820 0.000000 
#    z 0.012570 0.000000 2.163170 
# 
# From -- ./inp_files/151159.got.cif
#   From: 2010.05.17/outbox.cif.g08.bks.cpg/sg15_76_cif.got.tgz:151159.got - 2010.06.03 18:47:42.
