data_PCOD9289642
_publ_section_title
;
Structure prediction by ZEFSAII (Michael W. Deem and Ramdas Pophale) SiO2 
 PCOD9289642
Probable space group: C 2/C
;
_chemical_formula_sum "Si O2"
_cell_formula_units_Z 44
_cell_length_a 6.479861
_cell_length_b 14.537354
_cell_length_c 22.172181
_cell_angle_alpha 90.000000
_cell_angle_beta 66.757619
_cell_angle_gamma 90.000000
_cell_volume 1919.115487
_symmetry_space_group_name_H-M "C 2/C"
_symmetry_group_IT_number 15
_symmetry_cell_setting 'monoclinic'
loop_
_space_group_symop_operation_xyz
x,y,z
-x,y,1/2-z
-x,-y,-z
x,-y,1/2+z
1/2+x,1/2+y,z
1/2-x,1/2+y,1/2-z
1/2-x,1/2-y,-z
1/2+x,1/2-y,1/2+z
loop_
_atom_site_type_symbol
_atom_site_label
_atom_site_fract_x
_atom_site_fract_y
_atom_site_fract_z
Si Si1 0.000000 0.365718 0.250000
Si Si2 0.369796 0.962353 0.957594
Si Si3 0.431550 0.419924 0.080836
Si Si4 0.103102 0.268027 0.576819
Si Si5 0.249010 0.727138 0.193722
Si Si6 0.389143 0.515774 0.197858
O O1 0.914539 0.297643 0.207441
O O2 0.800779 0.437614 0.285205
O O3 0.486503 0.872267 0.916109
O O4 0.301287 0.039200 0.917181
O O5 0.123877 0.927311 0.007591
O O6 0.500000 0.000000 0.000000
O O7 0.421297 0.312992 0.099039
O O8 0.529550 0.483601 0.123421
O O9 0.250000 0.250000 0.500000
O O10 0.240962 0.258775 0.622754
O O11 0.309791 0.620403 0.198893
O O12 0.000000 0.743088 0.250000
O O13 0.500000 0.507029 0.250000
#
# Coordination Sequence:
#
# PCOD9289642 Si02
#       6
#     4   8   8   8   8   8
#     4  12  26  46  74 100 140 188 234 294 360 424
#     4  10  22  40  66  95 130 178 225 276 344 415
#     4  10  22  42  63  92 136 171 221 289 336 406
#     4  10  22  43  67  95 137 177 225 286 345 417
#     4  12  25  47  72 104 141 187 240 292 358 429
#     4  12  25  45  72 104 142 186 233 295 358 426
#
# _framework density 22.927229000000001
#
# number of rings (size 3 to 8) (size 9 to 14) (size 15 to 20)
#    0.000    1.091    3.636    2.727    0.000    6.545 
#    3.273    0.000    0.000    0.000    0.000    0.000 
#    0.000    0.000    0.000    0.000    0.000    0.000 
#
# Total GULP energy -122912.698003 kJ/mol
# GULP energy per Si atom -5586.940818 kJ/mol
# Density = 2.287505 g / cm^3
# Si number density = 22.927229 Si / 1000 Ang^3
#
#
#
# Elastic Constant Matrix: (Units=GPa)
#
#
# Indices 1 2 3 4 5 6 
#
# 1 62.7329 75.4696 46.1598 0.0000 24.7164 0.0000
# 2 75.4696 226.1264 57.6904 0.0000 46.2443 0.0000
# 3 46.1598 57.6904 157.4297 0.0000 46.2507 0.0000
# 4 0.0000 0.0000 0.0000 40.5373 0.0000 7.2544
# 5 24.7164 46.2443 46.2507 0.0000 50.0719 0.0000
# 6 0.0000 0.0000 0.0000 7.2544 0.0000 34.3172
#
#
#
# Elastic Compliance Matrix: (Units=1/GPa)
#
#
# Indices 1 2 3 4 5 6 
#
# 1 0.031025 -0.008480 -0.005203 0.000000 -0.002677 0.000000
# 2 -0.008480 0.007828 0.000703 0.000000 -0.003693 0.000000
# 3 -0.005203 0.000703 0.009684 0.000000 -0.007026 0.000000
# 4 0.000000 0.000000 0.000000 0.025639 0.000000 -0.005420
# 5 -0.002677 -0.003693 -0.007026 0.000000 0.031193 0.000000
# 6 0.000000 0.000000 0.000000 -0.005420 0.000000 0.030286
#
#
# Mechanical properties :
#
#
# Convention : Reuss Voigt Hill
#
# Bulk Modulus (GPa) = 44.29144 89.43651 66.86397
# Shear Modulus (GPa) = 29.56108 42.78324 36.17216
#
# Velocity S-wave (km/s) = 3.59464 4.32446 3.97633
# Velocity P-wave (km/s) = 6.04887 8.00176 7.09285
#
# Compressibility (1/GPa) = 0.02257773
#
# Stress axis : x y z
#
# Youngs Moduli (GPa) = 32.23189 127.73913 103.26099
#
# Poissons Ratio (x) = 1.08319 0.53726
# Poissons Ratio (y) = 0.27332 -0.07255
# Poissons Ratio (z) = 0.16770 -0.08975
#
# Static dielectric constant tensor:
#      x y z
#    x 1.873330 0.000000 -0.107020 
#    y 0.000000 1.914260 0.000000 
#    z -0.107020 0.000000 1.962930 
# 
# From -- ./inp_files/260409.got.cif
#   From: 2010.05.17/outbox.cif.g08.bks.cpg/sg15_131_cif.got.tgz:260409.got - 2010.06.03 18:47:42.
