data_PCOD9289769
_publ_section_title
;
Structure prediction by ZEFSAII (Michael W. Deem and Ramdas Pophale) SiO2 
 PCOD9289769
Probable space group: C 2/C
;
_chemical_formula_sum "Si O2"
_cell_formula_units_Z 36
_cell_length_a 10.865144
_cell_length_b 12.195034
_cell_length_c 11.434723
_cell_angle_alpha 90.000000
_cell_angle_beta 89.312357
_cell_angle_gamma 90.000000
_cell_volume 1515.000835
_symmetry_space_group_name_H-M "C 2/C"
_symmetry_group_IT_number 15
_symmetry_cell_setting 'monoclinic'
loop_
_space_group_symop_operation_xyz
x,y,z
-x,y,1/2-z
-x,-y,-z
x,-y,1/2+z
1/2+x,1/2+y,z
1/2-x,1/2+y,1/2-z
1/2-x,1/2-y,-z
1/2+x,1/2-y,1/2+z
loop_
_atom_site_type_symbol
_atom_site_label
_atom_site_fract_x
_atom_site_fract_y
_atom_site_fract_z
Si Si1 0.500000 0.826986 0.250000
Si Si2 0.261395 0.578502 0.793737
Si Si3 0.778035 0.508364 0.456685
Si Si4 0.914916 0.288605 0.850463
Si Si5 0.888933 0.718751 0.974951
O O1 0.386152 0.898706 0.203524
O O2 0.561311 0.751902 0.151660
O O3 0.287394 0.524794 0.666149
O O4 0.329120 0.695323 0.798477
O O5 0.289367 0.517246 0.916523
O O6 0.836912 0.625198 0.424968
O O7 0.881108 0.414100 0.474059
O O8 0.000000 0.343687 0.750000
O O9 0.015518 0.236157 0.934328
O O10 0.750000 0.750000 0.000000
#
# Coordination Sequence:
#
# PCOD9289769 Si02
#       5
#     4   8   8   8   8
#     4  10  22  40  68 100 142 176 238 288 360 406
#     4  11  25  43  70 107 144 181 243 295 357 423
#     4  11  24  44  73 107 135 189 240 298 350 431
#     4  12  24  43  74 102 141 188 233 301 357 423
#     4  11  24  43  69 104 142 176 240 291 356 422
#
# _framework density 23.762362
#
# number of rings (size 3 to 8) (size 9 to 14) (size 15 to 20)
#    0.000    0.889    2.222    5.333    9.333    0.000 
#    0.000    4.444    7.333    0.000    0.000    0.000 
#    0.000    0.000    0.000    0.000    0.000    0.000 
#
# Total GULP energy -100557.100943 kJ/mol
# GULP energy per Si atom -5586.505608 kJ/mol
# Density = 2.370828 g / cm^3
# Si number density = 23.762362 Si / 1000 Ang^3
#
#
#
# Elastic Constant Matrix: (Units=GPa)
#
#
# Indices 1 2 3 4 5 6 
#
# 1 73.7209 46.2063 39.5091 0.0000 12.4220 0.0000
# 2 46.2063 56.8469 25.8342 0.0000 8.5881 0.0000
# 3 39.5091 25.8342 180.2490 0.0000 0.2284 0.0000
# 4 0.0000 0.0000 0.0000 32.3980 0.0000 10.7510
# 5 12.4220 8.5881 0.2284 0.0000 31.6650 0.0000
# 6 0.0000 0.0000 0.0000 10.7510 0.0000 15.6397
#
#
#
# Elastic Compliance Matrix: (Units=1/GPa)
#
#
# Indices 1 2 3 4 5 6 
#
# 1 0.030301 -0.022175 -0.003456 0.000000 -0.005848 0.000000
# 2 -0.022175 0.035901 -0.000284 0.000000 -0.001036 0.000000
# 3 -0.003456 -0.000284 0.006344 0.000000 0.001387 0.000000
# 4 0.000000 0.000000 0.000000 0.039988 0.000000 -0.027488
# 5 -0.005848 -0.001036 0.001387 0.000000 0.034146 0.000000
# 6 0.000000 0.000000 0.000000 -0.027488 0.000000 0.082836
#
#
# Mechanical properties :
#
#
# Convention : Reuss Voigt Hill
#
# Bulk Modulus (GPa) = 48.27061 59.32399 53.79730
# Shear Modulus (GPa) = 17.34599 29.22501 23.28550
#
# Velocity S-wave (km/s) = 2.70474 3.51078 3.13378
# Velocity P-wave (km/s) = 5.48745 6.43846 5.98189
#
# Compressibility (1/GPa) = 0.02071654
#
# Stress axis : x y z
#
# Youngs Moduli (GPa) = 33.00204 27.85435 157.62166
#
# Poissons Ratio (x) = 0.61768 0.54475
# Poissons Ratio (y) = 0.73183 0.04469
# Poissons Ratio (z) = 0.11406 0.00790
#
# Static dielectric constant tensor:
#      x y z
#    x 1.837330 0.000000 -0.001040 
#    y 0.000000 1.932640 0.000000 
#    z -0.001040 0.000000 2.063200 
# 
# From -- ./inp_files/84433.got.cif
#   From: 2010.05.17/outbox.cif.g08.bks.cpg/sg15_43_cif.got.tgz:84433.got - 2010.06.03 18:47:42.
