data_PCOD9289121
_publ_section_title
;
Structure prediction by ZEFSAII (Michael W. Deem and Ramdas Pophale) SiO2 
 PCOD9289121
Probable space group: C 2/C
;
_chemical_formula_sum "Si O2"
_cell_formula_units_Z 60
_cell_length_a 15.761073
_cell_length_b 8.196987
_cell_length_c 27.178199
_cell_angle_alpha 90.000000
_cell_angle_beta 134.874876
_cell_angle_gamma 90.000000
_cell_volume 2488.238804
_symmetry_space_group_name_H-M "C 2/C"
_symmetry_group_IT_number 15
_symmetry_cell_setting 'monoclinic'
loop_
_space_group_symop_operation_xyz
x,y,z
-x,y,1/2-z
-x,-y,-z
x,-y,1/2+z
1/2+x,1/2+y,z
1/2-x,1/2+y,1/2-z
1/2-x,1/2-y,-z
1/2+x,1/2-y,1/2+z
loop_
_atom_site_type_symbol
_atom_site_label
_atom_site_fract_x
_atom_site_fract_y
_atom_site_fract_z
Si Si1 0.841544 0.246785 0.629943
Si Si2 0.000000 0.016984 0.250000
Si Si3 0.122862 0.889850 0.454206
Si Si4 0.074181 0.136730 0.175563
Si Si5 0.557686 0.335168 0.047973
Si Si6 0.261536 0.318838 0.450468
Si Si7 0.488110 0.936499 0.175149
Si Si8 0.762961 0.526526 0.181468
O O1 0.940856 0.379098 0.652543
O O2 0.762558 0.336428 0.638729
O O3 0.802774 0.170543 0.562194
O O4 0.903662 0.100811 0.685153
O O5 0.940135 0.111260 0.271480
O O6 0.204890 0.994047 0.524074
O O7 0.023347 0.018687 0.390826
O O8 0.042559 0.771716 0.455706
O O9 0.204142 0.095317 0.207217
O O10 0.045393 0.327561 0.154946
O O11 0.626094 0.241547 0.032348
O O12 0.671798 0.388703 0.126830
O O13 0.500000 0.500000 0.000000
O O14 0.250000 0.250000 0.500000
O O15 0.135892 0.330285 0.370175
O O16 0.397746 0.963567 0.242687
#
# Coordination Sequence:
#
# PCOD9289121 Si02
#       8
#     8   4   8   8   8   8   8   8
#     4  11  22  41  65  94 132 170 218 275 328 401
#     4  10  22  40  60  94 132 166 210 270 338 388
#     4   9  21  43  65  94 131 177 219 269 335 396
#     4  10  24  40  65  93 132 174 217 274 333 409
#     4   9  20  40  65  90 126 179 216 263 325 408
#     4  11  21  40  67 101 132 174 232 280 332 408
#     4  12  24  40  68  99 132 176 224 280 338 408
#     4  11  23  40  65  97 128 169 224 270 339 391
#
# _framework density 24.113440000000001
#
# number of rings (size 3 to 8) (size 9 to 14) (size 15 to 20)
#    0.000    1.600    4.000    0.000    3.733    1.600 
#    0.000    1.333    0.000    1.600    0.000    0.000 
#    0.000    0.000    0.000    0.000    0.000    0.000 
#
# Total GULP energy -167173.433854 kJ/mol
# GULP energy per Si atom -5572.447795 kJ/mol
# Density = 2.405856 g / cm^3
# Si number density = 24.113440 Si / 1000 Ang^3
#
#
#
# Elastic Constant Matrix: (Units=GPa)
#
#
# Indices 1 2 3 4 5 6 
#
# 1 203.8152 31.0482 61.4394 0.0000 -13.5777 0.0000
# 2 31.0482 43.9519 -1.1937 0.0000 -3.3849 0.0000
# 3 61.4394 -1.1937 120.4860 0.0000 2.4406 0.0000
# 4 0.0000 0.0000 0.0000 25.3414 0.0000 -7.6240
# 5 -13.5777 -3.3849 2.4406 0.0000 44.4209 0.0000
# 6 0.0000 0.0000 0.0000 -7.6240 0.0000 34.1299
#
#
#
# Elastic Compliance Matrix: (Units=1/GPa)
#
#
# Indices 1 2 3 4 5 6 
#
# 1 0.006840 -0.004781 -0.003574 0.000000 0.001923 0.000000
# 2 -0.004781 0.026233 0.002690 0.000000 0.000390 0.000000
# 3 -0.003574 0.002690 0.010178 0.000000 -0.001447 0.000000
# 4 0.000000 0.000000 0.000000 0.042304 0.000000 0.009450
# 5 0.001923 0.000390 -0.001447 0.000000 0.023209 0.000000
# 6 0.000000 0.000000 0.000000 0.009450 0.000000 0.031411
#
#
# Mechanical properties :
#
#
# Convention : Reuss Voigt Hill
#
# Bulk Modulus (GPa) = 31.32795 61.20456 46.26626
# Shear Modulus (GPa) = 30.83634 39.24238 35.03936
#
# Velocity S-wave (km/s) = 3.57992 4.03849 3.81610
# Velocity P-wave (km/s) = 5.48706 6.86898 6.21654
#
# Compressibility (1/GPa) = 0.03192038
#
# Stress axis : x y z
#
# Youngs Moduli (GPa) = 146.19192 38.12045 98.24754
#
# Poissons Ratio (x) = 0.18226 0.35118
# Poissons Ratio (y) = 0.69896 -0.26429
# Poissons Ratio (z) = 0.52255 -0.10254
#
# Static dielectric constant tensor:
#      x y z
#    x 1.996280 0.000000 -0.021160 
#    y 0.000000 2.018560 0.000000 
#    z -0.021160 0.000000 1.984590 
# 
# From -- ./inp_files/315375.got.cif
#   From: 2010.05.17/outbox.cif.g08.bks.cpg/sg15_158_cif.got.tgz:315375.got - 2010.06.03 18:47:42.
