data_PCOD9289866
_publ_section_title
;
Structure prediction by ZEFSAII (Michael W. Deem and Ramdas Pophale) SiO2 
 PCOD9289866
Probable space group: C 2/C
;
_chemical_formula_sum "Si O2"
_cell_formula_units_Z 60
_cell_length_a 17.007113
_cell_length_b 9.728727
_cell_length_c 17.308566
_cell_angle_alpha 90.000000
_cell_angle_beta 91.418774
_cell_angle_gamma 90.000000
_cell_volume 2862.955124
_symmetry_space_group_name_H-M "C 2/C"
_symmetry_group_IT_number 15
_symmetry_cell_setting 'monoclinic'
loop_
_space_group_symop_operation_xyz
x,y,z
-x,y,1/2-z
-x,-y,-z
x,-y,1/2+z
1/2+x,1/2+y,z
1/2-x,1/2+y,1/2-z
1/2-x,1/2-y,-z
1/2+x,1/2-y,1/2+z
loop_
_atom_site_type_symbol
_atom_site_label
_atom_site_fract_x
_atom_site_fract_y
_atom_site_fract_z
Si Si1 0.456281 0.932925 0.071864
Si Si2 0.364932 0.562255 0.697989
Si Si3 0.162043 0.264282 0.528197
Si Si4 0.838326 0.379171 0.663052
Si Si5 0.667286 0.495833 0.621779
Si Si6 0.699904 0.031078 0.164631
Si Si7 0.500000 0.403793 0.750000
Si Si8 0.902580 0.273632 0.349539
O O1 0.524111 0.860650 0.121642
O O2 0.408941 0.043311 0.121539
O O3 0.395785 0.819530 0.038455
O O4 0.500000 0.000000 0.000000
O O5 0.352723 0.715160 0.664299
O O6 0.349734 0.553887 0.791338
O O7 0.294486 0.468911 0.662771
O O8 0.453265 0.503383 0.689836
O O9 0.250000 0.250000 0.500000
O O10 0.163394 0.377705 0.596389
O O11 0.144817 0.116736 0.564117
O O12 0.757549 0.440882 0.624234
O O13 0.829693 0.417295 0.753155
O O14 0.618133 0.359354 0.600784
O O15 0.670875 0.873921 0.158473
O O16 0.569702 0.301458 0.727319
#
# Coordination Sequence:
#
# PCOD9289866 Si02
#       8
#     8   8   8   8   8   8   4   8
#     4  12  27  44  64 101 141 177 232 285 343 406
#     4  10  22  40  69 105 135 168 236 287 338 410
#     4  12  25  45  69 101 140 183 226 281 346 417
#     4  11  22  42  73  98 135 182 227 286 338 410
#     4  10  22  43  69 101 134 178 231 280 345 412
#     4  11  23  42  73 101 133 180 234 278 337 420
#     4  10  24  38  68 104 138 168 224 294 350 392
#     4  11  23  44  65  98 138 178 225 285 341 407
#
# _framework density 20.957364999999999
#
# number of rings (size 3 to 8) (size 9 to 14) (size 15 to 20)
#    0.000    1.067    5.333    0.800    1.867    3.733 
#    2.400    2.000    0.000    0.000    0.000    0.000 
#    0.000    0.000    0.000    0.000    0.000    0.000 
#
# Total GULP energy -167436.618335 kJ/mol
# GULP energy per Si atom -5581.220611 kJ/mol
# Density = 2.090967 g / cm^3
# Si number density = 20.957365 Si / 1000 Ang^3
#
#
#
# Elastic Constant Matrix: (Units=GPa)
#
#
# Indices 1 2 3 4 5 6 
#
# 1 94.9067 20.6275 4.0197 0.0000 1.9408 0.0000
# 2 20.6275 99.2855 2.4982 0.0000 -11.4905 0.0000
# 3 4.0197 2.4982 18.6579 0.0000 -3.9329 0.0000
# 4 0.0000 0.0000 0.0000 9.0171 0.0000 6.3472
# 5 1.9408 -11.4905 -3.9329 0.0000 21.1848 0.0000
# 6 0.0000 0.0000 0.0000 6.3472 0.0000 43.9294
#
#
#
# Elastic Compliance Matrix: (Units=1/GPa)
#
#
# Indices 1 2 3 4 5 6 
#
# 1 0.011280 -0.002618 -0.002703 0.000000 -0.002955 0.000000
# 2 -0.002618 0.011355 0.000408 0.000000 0.006474 0.000000
# 3 -0.002703 0.000408 0.056432 0.000000 0.010946 0.000000
# 4 0.000000 0.000000 0.000000 0.123456 0.000000 -0.017838
# 5 -0.002955 0.006474 0.010946 0.000000 0.053018 0.000000
# 6 0.000000 0.000000 0.000000 -0.017838 0.000000 0.025341
#
#
# Mechanical properties :
#
#
# Convention : Reuss Voigt Hill
#
# Bulk Modulus (GPa) = 14.44190 29.68231 22.06211
# Shear Modulus (GPa) = 15.93435 27.20657 21.57046
#
# Velocity S-wave (km/s) = 2.76039 3.60694 3.21168
# Velocity P-wave (km/s) = 4.13106 5.61611 4.92983
#
# Compressibility (1/GPa) = 0.06924296
#
# Stress axis : x y z
#
# Youngs Moduli (GPa) = 88.64873 88.06843 17.72058
#
# Poissons Ratio (x) = 0.23053 0.04789
# Poissons Ratio (y) = 0.23205 -0.00724
# Poissons Ratio (z) = 0.23959 -0.03596
#
# Static dielectric constant tensor:
#      x y z
#    x 1.838380 0.000000 -0.125210 
#    y 0.000000 1.519290 0.000000 
#    z -0.125210 0.000000 1.922750 
# 
# From -- ./inp_files/209594.got.cif
#   From: 2010.05.17/outbox.cif.g08.bks.cpg/sg15_105_cif.got.tgz:209594.got - 2010.06.03 18:47:42.
