data_PCOD9289012
_publ_section_title
;
Structure prediction by ZEFSAII (Michael W. Deem and Ramdas Pophale) SiO2 
 PCOD9289012
Probable space group: C 2/C
;
_chemical_formula_sum "Si O2"
_cell_formula_units_Z 40
_cell_length_a 14.627753
_cell_length_b 12.153812
_cell_length_c 11.142058
_cell_angle_alpha 90.000000
_cell_angle_beta 60.576058
_cell_angle_gamma 90.000000
_cell_volume 1725.353113
_symmetry_space_group_name_H-M "C 2/C"
_symmetry_group_IT_number 15
_symmetry_cell_setting 'monoclinic'
loop_
_space_group_symop_operation_xyz
x,y,z
-x,y,1/2-z
-x,-y,-z
x,-y,1/2+z
1/2+x,1/2+y,z
1/2-x,1/2+y,1/2-z
1/2-x,1/2-y,-z
1/2+x,1/2-y,1/2+z
loop_
_atom_site_type_symbol
_atom_site_label
_atom_site_fract_x
_atom_site_fract_y
_atom_site_fract_z
Si Si1 0.732700 0.139975 0.085013
Si Si2 0.776568 0.614885 0.140904
Si Si3 0.405216 0.919324 0.026939
Si Si4 0.907304 0.030647 0.392999
Si Si5 0.970546 0.254391 0.408681
O O1 0.721633 0.167305 0.230397
O O2 0.627129 0.089984 0.091582
O O3 0.750000 0.250000 0.000000
O O4 0.829490 0.056404 0.002473
O O5 0.667134 0.606420 0.144415
O O6 0.807141 0.486258 0.143445
O O7 0.863833 0.678038 0.006456
O O8 0.438930 0.806446 0.066260
O O9 0.500000 0.000000 0.000000
O O10 0.956167 0.124958 0.445953
O O11 0.000000 0.982666 0.250000
O O12 0.000000 0.270451 0.250000
#
# Coordination Sequence:
#
# PCOD9289012 Si02
#       5
#     8   8   8   8   8
#     4  11  26  45  66  99 145 181 228 288 363 403
#     4  10  23  43  69 103 142 183 224 293 347 414
#     4   9  22  41  66  99 134 175 225 280 339 411
#     4  10  24  46  68 100 136 188 238 280 338 423
#     4  10  22  39  75 103 134 176 242 280 338 409
#
# _framework density 23.183661000000001
#
# number of rings (size 3 to 8) (size 9 to 14) (size 15 to 20)
#    0.000    2.000    0.000    0.600   14.000    6.400 
#    7.200    0.000    0.000    0.000    0.000    0.000 
#    0.000    0.000    0.000    0.000    0.000    0.000 
#
# Total GULP energy -111717.584845 kJ/mol
# GULP energy per Si atom -5585.879242 kJ/mol
# Density = 2.313089 g / cm^3
# Si number density = 23.183661 Si / 1000 Ang^3
#
#
#
# Elastic Constant Matrix: (Units=GPa)
#
#
# Indices 1 2 3 4 5 6 
#
# 1 78.8668 25.3875 36.2931 0.0000 -14.9818 0.0000
# 2 25.3875 108.4018 29.7482 0.0000 -0.7574 0.0000
# 3 36.2931 29.7482 129.1791 0.0000 -3.9926 0.0000
# 4 0.0000 0.0000 0.0000 19.9146 0.0000 -16.5564
# 5 -14.9818 -0.7574 -3.9926 0.0000 25.8710 0.0000
# 6 0.0000 0.0000 0.0000 -16.5564 0.0000 45.8468
#
#
#
# Elastic Compliance Matrix: (Units=1/GPa)
#
#
# Indices 1 2 3 4 5 6 
#
# 1 0.017146 -0.002890 -0.003866 0.000000 0.009248 0.000000
# 2 -0.002890 0.010334 -0.001618 0.000000 -0.001621 0.000000
# 3 -0.003866 -0.001618 0.009173 0.000000 -0.000870 0.000000
# 4 0.000000 0.000000 0.000000 0.071758 0.000000 0.025914
# 5 0.009248 -0.001621 -0.000870 0.000000 0.043827 0.000000
# 6 0.000000 0.000000 0.000000 0.025914 0.000000 0.031170
#
#
# Mechanical properties :
#
#
# Convention : Reuss Voigt Hill
#
# Bulk Modulus (GPa) = 50.23732 55.47835 52.85783
# Shear Modulus (GPa) = 24.17905 33.32775 28.75340
#
# Velocity S-wave (km/s) = 3.23295 3.79562 3.52553
# Velocity P-wave (km/s) = 5.97096 6.57198 6.27866
#
# Compressibility (1/GPa) = 0.01990552
#
# Stress axis : x y z
#
# Youngs Moduli (GPa) = 58.32413 96.76348 109.01577
#
# Poissons Ratio (x) = 0.27965 0.42143
# Poissons Ratio (y) = 0.16856 0.17639
# Poissons Ratio (z) = 0.22547 0.15657
#
# Static dielectric constant tensor:
#      x y z
#    x 2.042420 0.000000 0.020360 
#    y 0.000000 1.956340 0.000000 
#    z 0.020360 0.000000 1.851360 
# 
# From -- ./inp_files/104736.got.cif
#   From: 2010.05.17/outbox.cif.g08.bks.cpg/sg15_53_cif.got.tgz:104736.got - 2010.06.03 18:47:42.
