data_PCOD9289001
_publ_section_title
;
Structure prediction by ZEFSAII (Michael W. Deem and Ramdas Pophale) SiO2 
 PCOD9289001
Probable space group: C 2/C
;
_chemical_formula_sum "Si O2"
_cell_formula_units_Z 40
_cell_length_a 9.334115
_cell_length_b 15.615940
_cell_length_c 12.887141
_cell_angle_alpha 90.000000
_cell_angle_beta 95.750724
_cell_angle_gamma 90.000000
_cell_volume 1868.988573
_symmetry_space_group_name_H-M "C 2/C"
_symmetry_group_IT_number 15
_symmetry_cell_setting 'monoclinic'
loop_
_space_group_symop_operation_xyz
x,y,z
-x,y,1/2-z
-x,-y,-z
x,-y,1/2+z
1/2+x,1/2+y,z
1/2-x,1/2+y,1/2-z
1/2-x,1/2-y,-z
1/2+x,1/2-y,1/2+z
loop_
_atom_site_type_symbol
_atom_site_label
_atom_site_fract_x
_atom_site_fract_y
_atom_site_fract_z
Si Si1 0.000000 0.642865 0.250000
Si Si2 0.554601 0.162395 0.643386
Si Si3 0.686872 0.653448 0.154367
Si Si4 0.821366 0.938697 0.066611
Si Si5 0.106937 0.575876 0.039516
Si Si6 0.500000 0.514546 0.250000
O O1 0.147678 0.681138 0.309659
O O2 0.066235 0.596111 0.154379
O O3 0.500000 0.129152 0.750000
O O4 0.593286 0.261573 0.656410
O O5 0.697630 0.110363 0.622440
O O6 0.435961 0.149423 0.544431
O O7 0.629161 0.578269 0.225477
O O8 0.667826 0.614423 0.038051
O O9 0.762684 0.034386 0.037384
O O10 0.956451 0.955115 0.150049
O O11 0.000000 0.500000 0.000000
#
# Coordination Sequence:
#
# PCOD9289001 Si02
#       6
#     4   8   8   8   8   4
#     4  12  22  41  75  94 140 178 228 268 348 403
#     4  11  25  45  70 100 141 177 233 286 338 405
#     4  12  25  47  67 103 142 177 227 284 347 402
#     4  11  25  42  72  97 137 183 230 276 341 413
#     4  10  22  39  72 100 126 181 229 277 327 414
#     4  12  26  45  67 106 140 176 222 298 336 397
#
# _framework density 21.401948999999998
#
# number of rings (size 3 to 8) (size 9 to 14) (size 15 to 20)
#    0.000    0.800    7.000    1.200    8.400    0.800 
#    0.000    2.000    0.000    0.000    0.000    0.000 
#    0.000    0.000    0.000    0.000    0.000    0.000 
#
# Total GULP energy -111582.515262 kJ/mol
# GULP energy per Si atom -5579.125763 kJ/mol
# Density = 2.135324 g / cm^3
# Si number density = 21.401949 Si / 1000 Ang^3
#
#
#
# Elastic Constant Matrix: (Units=GPa)
#
#
# Indices 1 2 3 4 5 6 
#
# 1 58.2576 13.1484 39.3004 0.0000 6.0330 0.0000
# 2 13.1484 56.5855 37.6481 0.0000 3.9632 0.0000
# 3 39.3004 37.6481 122.5349 0.0000 10.1095 0.0000
# 4 0.0000 0.0000 0.0000 4.1952 0.0000 -13.3873
# 5 6.0330 3.9632 10.1095 0.0000 48.2112 0.0000
# 6 0.0000 0.0000 0.0000 -13.3873 0.0000 25.9142
#
#
#
# Elastic Compliance Matrix: (Units=1/GPa)
#
#
# Indices 1 2 3 4 5 6 
#
# 1 0.021995 -0.000500 -0.006795 0.000000 -0.001286 0.000000
# 2 -0.000500 0.022232 -0.006640 0.000000 -0.000373 0.000000
# 3 -0.006795 -0.006640 0.012481 0.000000 -0.001221 0.000000
# 4 0.000000 0.000000 0.000000 -0.367550 0.000000 -0.189877
# 5 -0.001286 -0.000373 -0.001221 0.000000 0.021190 0.000000
# 6 0.000000 0.000000 0.000000 -0.189877 0.000000 -0.059502
#
#
# Mechanical properties :
#
#
# Convention : Reuss Voigt Hill
#
# Bulk Modulus (GPa) = 34.67467 46.39687 40.53577
# Shear Modulus (GPa) = -16.04246 25.48288 4.72021
#
# Velocity S-wave (km/s) = -2.74081 3.45437 1.48671
# Velocity P-wave (km/s) = 2.49414 6.13482 4.68278
#
# Compressibility (1/GPa) = 0.02883950
#
# Stress axis : x y z
#
# Youngs Moduli (GPa) = 45.46524 44.97985 80.12263
#
# Poissons Ratio (x) = 0.02249 0.54440
# Poissons Ratio (y) = 0.02273 0.53198
# Poissons Ratio (z) = 0.30892 0.29865
#
# Static dielectric constant tensor:
#      x y z
#    x 1.804930 0.000000 0.052870 
#    y 0.000000 1.784950 0.000000 
#    z 0.052870 0.000000 1.786050 
# 
# From -- ./inp_files/76864.got.cif
#   From: 2010.05.17/outbox.cif.g08.bks.cpg/sg15_39_cif.got.tgz:76864.got - 2010.06.03 18:47:42.
