data_PCOD9289119
_publ_section_title
;
Structure prediction by ZEFSAII (Michael W. Deem and Ramdas Pophale) SiO2 
 PCOD9289119
Probable space group: C 2/C
;
_chemical_formula_sum "Si O2"
_cell_formula_units_Z 28
_cell_length_a 8.130152
_cell_length_b 25.751295
_cell_length_c 6.887663
_cell_angle_alpha 90.000000
_cell_angle_beta 125.561478
_cell_angle_gamma 90.000000
_cell_volume 1173.067205
_symmetry_space_group_name_H-M "C 2/C"
_symmetry_group_IT_number 15
_symmetry_cell_setting 'monoclinic'
loop_
_space_group_symop_operation_xyz
x,y,z
-x,y,1/2-z
-x,-y,-z
x,-y,1/2+z
1/2+x,1/2+y,z
1/2-x,1/2+y,1/2-z
1/2-x,1/2-y,-z
1/2+x,1/2-y,1/2+z
loop_
_atom_site_type_symbol
_atom_site_label
_atom_site_fract_x
_atom_site_fract_y
_atom_site_fract_z
Si Si1 0.759487 0.443004 0.085470
Si Si2 0.230443 0.332668 0.476688
Si Si3 0.671245 0.749081 0.762805
Si Si4 0.000000 0.962724 0.250000
O O1 0.716521 0.391637 0.930622
O O2 0.644633 0.430571 0.208122
O O3 0.000000 0.450942 0.250000
O O4 0.656530 0.496934 0.956262
O O5 0.331260 0.305059 0.360225
O O6 0.244047 0.294458 0.667620
O O7 0.000000 0.336340 0.250000
O O8 0.401821 0.758460 0.553524
#
# Coordination Sequence:
#
# PCOD9289119 Si02
#       4
#     8   8   8   4
#     4  10  22  42  65  93 132 165 216 276 321 389
#     4  10  22  40  60  93 126 167 214 260 318 388
#     4  11  22  38  61  89 128 164 208 259 313 383
#     4  10  22  42  66  96 124 170 218 264 340 382
#
# _framework density 23.869050000000001
#
# number of rings (size 3 to 8) (size 9 to 14) (size 15 to 20)
#    0.000    1.714    2.857    0.857    2.000    2.286 
#    5.143    1.429    0.000    0.000    0.000    0.000 
#    0.000    0.000    0.000    0.000    0.000    0.000 
#
# Total GULP energy -78016.148727 kJ/mol
# GULP energy per Si atom -5572.582052 kJ/mol
# Density = 2.381472 g / cm^3
# Si number density = 23.869050 Si / 1000 Ang^3
#
#
#
# Elastic Constant Matrix: (Units=GPa)
#
#
# Indices 1 2 3 4 5 6 
#
# 1 147.8015 19.7897 42.6981 0.0000 20.7620 0.0000
# 2 19.7897 95.4128 5.3880 0.0000 -3.5134 0.0000
# 3 42.6981 5.3880 137.1978 0.0000 28.9830 0.0000
# 4 0.0000 0.0000 0.0000 -12.5965 0.0000 -55.7365
# 5 20.7620 -3.5134 28.9830 0.0000 53.0210 0.0000
# 6 0.0000 0.0000 0.0000 -55.7365 0.0000 -124.9999
#
#
#
# Elastic Compliance Matrix: (Units=1/GPa)
#
#
# Indices 1 2 3 4 5 6 
#
# 1 0.007834 -0.001594 -0.001928 0.000000 -0.002119 0.000000
# 2 -0.001594 0.010880 -0.000243 0.000000 0.001478 0.000000
# 3 -0.001928 -0.000243 0.008753 0.000000 -0.004046 0.000000
# 4 0.000000 0.000000 0.000000 0.081593 0.000000 -0.036382
# 5 -0.002119 0.001478 -0.004046 0.000000 0.022000 0.000000
# 6 0.000000 0.000000 0.000000 -0.036382 0.000000 0.008222
#
#
# Mechanical properties :
#
#
# Convention : Reuss Voigt Hill
#
# Bulk Modulus (GPa) = 50.16033 57.35153 53.75593
# Shear Modulus (GPa) = 32.58239 3.92067 18.25153
#
# Velocity S-wave (km/s) = 3.69866 1.28302 2.76824
# Velocity P-wave (km/s) = 6.26902 5.12587 5.72604
#
# Compressibility (1/GPa) = 0.01993607
#
# Stress axis : x y z
#
# Youngs Moduli (GPa) = 127.65070 91.91534 114.24735
#
# Poissons Ratio (x) = 0.14652 0.22023
# Poissons Ratio (y) = 0.20348 0.02781
# Poissons Ratio (z) = 0.24607 0.02238
#
# Static dielectric constant tensor:
#      x y z
#    x 1.957490 0.000000 0.079340 
#    y 0.000000 1.813510 0.000000 
#    z 0.079340 0.000000 2.109110 
# 
# From -- ./inp_files/24955.got.cif
#   From: 2010.05.17/outbox.cif.g08.bks.cpg/sg15_13_cif.got.tgz:24955.got - 2010.06.03 18:47:42.
