data_PCOD9289973
_publ_section_title
;
Structure prediction by ZEFSAII (Michael W. Deem and Ramdas Pophale) SiO2 
 PCOD9289973
Probable space group: C 2/C
;
_chemical_formula_sum "Si O2"
_cell_formula_units_Z 52
_cell_length_a 11.474336
_cell_length_b 16.588658
_cell_length_c 14.189047
_cell_angle_alpha 90.000000
_cell_angle_beta 111.300141
_cell_angle_gamma 90.000000
_cell_volume 2516.307046
_symmetry_space_group_name_H-M "C 2/C"
_symmetry_group_IT_number 15
_symmetry_cell_setting 'monoclinic'
loop_
_space_group_symop_operation_xyz
x,y,z
-x,y,1/2-z
-x,-y,-z
x,-y,1/2+z
1/2+x,1/2+y,z
1/2-x,1/2+y,1/2-z
1/2-x,1/2-y,-z
1/2+x,1/2-y,1/2+z
loop_
_atom_site_type_symbol
_atom_site_label
_atom_site_fract_x
_atom_site_fract_y
_atom_site_fract_z
Si Si1 0.255469 0.726570 0.806643
Si Si2 0.022814 0.924920 0.619947
Si Si3 0.598525 0.043182 0.596486
Si Si4 0.233985 0.191551 0.905885
Si Si5 0.213890 0.896632 0.836332
Si Si6 0.510680 0.611983 0.600479
Si Si7 0.500000 0.863878 0.250000
O O1 0.250180 0.732961 0.691231
O O2 0.286054 0.812545 0.861660
O O3 0.363818 0.663370 0.861782
O O4 0.121948 0.691930 0.801685
O O5 0.878649 0.907493 0.602811
O O6 0.045333 0.896528 0.521090
O O7 0.118144 0.886557 0.721110
O O8 0.039267 0.020633 0.637664
O O9 0.668627 0.117193 0.565528
O O10 0.533427 0.080670 0.669930
O O11 0.500000 0.000000 0.500000
O O12 0.700169 0.974484 0.651518
O O13 0.095901 0.153068 0.868883
O O14 0.250000 0.250000 0.000000
#
# Coordination Sequence:
#
# PCOD9289973 Si02
#       7
#     8   8   8   8   8   8   4
#     4  11  25  41  68  98 133 179 222 285 342 400
#     4  10  22  40  71  94 130 174 228 282 333 400
#     4  11  26  44  69  98 139 187 223 283 347 414
#     4  11  24  43  66  97 139 173 227 285 343 406
#     4  11  23  44  64 100 134 174 224 276 342 405
#     4  11  23  41  69 101 126 176 231 281 338 409
#     4  10  24  46  64  96 142 180 228 280 344 406
#
# _framework density 20.665205
#
# number of rings (size 3 to 8) (size 9 to 14) (size 15 to 20)
#    0.000    1.231    1.538    4.154    6.462    4.308 
#    0.000    0.000    0.000    0.000    0.000    0.000 
#    0.000    0.000    0.000    0.000    0.000    0.000 
#
# Total GULP energy -145396.628867 kJ/mol
# GULP energy per Si atom -5592.178033 kJ/mol
# Density = 2.061817 g / cm^3
# Si number density = 20.665205 Si / 1000 Ang^3
#
#
#
# Elastic Constant Matrix: (Units=GPa)
#
#
# Indices 1 2 3 4 5 6 
#
# 1 124.5525 56.2995 22.9895 0.0000 -8.7917 0.0000
# 2 56.2995 141.3176 31.3798 0.0000 -14.8390 0.0000
# 3 22.9895 31.3798 35.3861 0.0000 1.7271 0.0000
# 4 0.0000 0.0000 0.0000 -3.0664 0.0000 -13.0836
# 5 -8.7917 -14.8390 1.7271 0.0000 24.3539 0.0000
# 6 0.0000 0.0000 0.0000 -13.0836 0.0000 25.4500
#
#
#
# Elastic Compliance Matrix: (Units=1/GPa)
#
#
# Indices 1 2 3 4 5 6 
#
# 1 0.010285 -0.002934 -0.004188 0.000000 0.002222 0.000000
# 2 -0.002934 0.010598 -0.007782 0.000000 0.005950 0.000000
# 3 -0.004188 -0.007782 0.038320 0.000000 -0.008972 0.000000
# 4 0.000000 0.000000 0.000000 -0.102118 0.000000 -0.052498
# 5 0.002222 0.005950 -0.008972 0.000000 0.046125 0.000000
# 6 0.000000 0.000000 0.000000 -0.052498 0.000000 0.012304
#
#
# Mechanical properties :
#
#
# Convention : Reuss Voigt Hill
#
# Bulk Modulus (GPa) = 34.02149 58.06597 46.04373
# Shear Modulus (GPa) = 90.70745 22.05330 56.38037
#
# Velocity S-wave (km/s) = 6.63243 3.27030 5.22896
# Velocity P-wave (km/s) = 8.66897 6.51301 7.66715
#
# Compressibility (1/GPa) = 0.02939318
#
# Stress axis : x y z
#
# Youngs Moduli (GPa) = 97.22986 94.35695 26.09593
#
# Poissons Ratio (x) = 0.27684 0.10930
# Poissons Ratio (y) = 0.28527 0.20309
# Poissons Ratio (z) = 0.40725 0.73433
#
# Static dielectric constant tensor:
#      x y z
#    x 1.716670 0.000000 -0.003500 
#    y 0.000000 1.735260 0.000000 
#    z -0.003500 0.000000 1.784200 
# 
# From -- ./inp_files/144319.got.cif
#   From: 2010.05.17/outbox.cif.g08.bks.cpg/sg15_73_cif.got.tgz:144319.got - 2010.06.03 18:47:42.
