data_PCOD9289162
_publ_section_title
;
Structure prediction by ZEFSAII (Michael W. Deem and Ramdas Pophale) SiO2 
 PCOD9289162
Probable space group: C 2/C
;
_chemical_formula_sum "Si O2"
_cell_formula_units_Z 56
_cell_length_a 23.428451
_cell_length_b 9.798143
_cell_length_c 13.972898
_cell_angle_alpha 90.000000
_cell_angle_beta 66.222518
_cell_angle_gamma 90.000000
_cell_volume 2935.290093
_symmetry_space_group_name_H-M "C 2/C"
_symmetry_group_IT_number 15
_symmetry_cell_setting 'monoclinic'
loop_
_space_group_symop_operation_xyz
x,y,z
-x,y,1/2-z
-x,-y,-z
x,-y,1/2+z
1/2+x,1/2+y,z
1/2-x,1/2+y,1/2-z
1/2-x,1/2-y,-z
1/2+x,1/2-y,1/2+z
loop_
_atom_site_type_symbol
_atom_site_label
_atom_site_fract_x
_atom_site_fract_y
_atom_site_fract_z
Si Si1 0.936526 0.694073 0.845727
Si Si2 0.112653 0.903470 0.766703
Si Si3 0.518973 0.532284 0.095670
Si Si4 0.850608 0.549247 0.464018
Si Si5 0.374233 0.339428 0.515786
Si Si6 0.737089 0.121777 0.147551
Si Si7 0.761348 0.059871 0.814459
O O1 0.893802 0.771867 0.796211
O O2 0.958120 0.813031 0.903910
O O3 0.897542 0.575210 0.920311
O O4 0.000000 0.646237 0.750000
O O5 0.118759 0.860427 0.874256
O O6 0.045751 0.979019 0.802844
O O7 0.172107 0.995022 0.703452
O O8 0.500000 0.500000 0.000000
O O9 0.577245 0.433652 0.072660
O O10 0.884143 0.682917 0.482737
O O11 0.819789 0.589276 0.383530
O O12 0.792789 0.521322 0.574214
O O13 0.302125 0.376557 0.544122
O O14 0.733405 0.275647 0.192154
O O15 0.743084 0.008799 0.225867
#
# Coordination Sequence:
#
# PCOD9289162 Si02
#       7
#     8   8   8   8   8   8   8
#     4  10  23  41  59  87 122 157 201 250 301 358
#     4   9  20  38  63  84 123 155 205 250 293 351
#     4   9  19  39  63  83 113 157 203 245 290 350
#     4  11  24  38  63  88 127 159 196 248 309 362
#     4   9  19  39  61  87 120 159 199 249 298 355
#     4  10  23  39  60  90 130 151 202 247 300 359
#     4  10  22  40  61  92 120 161 198 250 301 357
#
# _framework density 19.078182000000002
#
# number of rings (size 3 to 8) (size 9 to 14) (size 15 to 20)
#    0.000    2.286    0.000    1.714   10.000    4.000 
#    2.571    6.429    0.000    0.000    0.000    0.000 
#    0.000    0.000    0.000    0.000    0.000    0.000 
#
# Total GULP energy -156265.590126 kJ/mol
# GULP energy per Si atom -5580.913933 kJ/mol
# Density = 1.903476 g / cm^3
# Si number density = 19.078182 Si / 1000 Ang^3
#
#
#
# Elastic Constant Matrix: (Units=GPa)
#
#
# Indices 1 2 3 4 5 6 
#
# 1 79.2743 60.1800 29.6409 0.0000 -15.6228 0.0000
# 2 60.1800 122.5509 79.7483 0.0000 -31.2871 0.0000
# 3 29.6409 79.7483 84.8801 0.0000 -14.6756 0.0000
# 4 0.0000 0.0000 0.0000 39.5789 0.0000 -3.7963
# 5 -15.6228 -31.2871 -14.6756 0.0000 34.6242 0.0000
# 6 0.0000 0.0000 0.0000 -3.7963 0.0000 19.1085
#
#
#
# Elastic Compliance Matrix: (Units=1/GPa)
#
#
# Indices 1 2 3 4 5 6 
#
# 1 0.021322 -0.014897 0.006352 0.000000 -0.001148 0.000000
# 2 -0.014897 0.036668 -0.026634 0.000000 0.015123 0.000000
# 3 0.006352 -0.026634 0.033367 0.000000 -0.007058 0.000000
# 4 0.000000 0.000000 0.000000 0.025757 0.000000 0.005117
# 5 -0.001148 0.015123 -0.007058 0.000000 0.039037 0.000000
# 6 0.000000 0.000000 0.000000 0.005117 0.000000 0.053349
#
#
# Mechanical properties :
#
#
# Convention : Reuss Voigt Hill
#
# Bulk Modulus (GPa) = 47.62296 69.53820 58.58058
# Shear Modulus (GPa) = 17.43027 26.47141 21.95084
#
# Velocity S-wave (km/s) = 3.02590 3.72899 3.39569
# Velocity P-wave (km/s) = 6.10117 7.42083 6.79312
#
# Compressibility (1/GPa) = 0.02099828
#
# Stress axis : x y z
#
# Youngs Moduli (GPa) = 46.90005 27.27181 29.97012
#
# Poissons Ratio (x) = 0.40627 -0.19037
# Poissons Ratio (y) = 0.69867 0.79823
# Poissons Ratio (z) = -0.29791 0.72636
#
# Static dielectric constant tensor:
#      x y z
#    x 1.705780 0.000000 0.019820 
#    y 0.000000 1.631640 0.000000 
#    z 0.019820 0.000000 1.679680 
# 
# From -- ./inp_files/172280.got.cif
#   From: 2010.05.17/outbox.cif.g08.bks.cpg/sg15_87_cif.got.tgz:172280.got - 2010.06.03 18:47:42.
