data_PCOD9289580
_publ_section_title
;
Structure prediction by ZEFSAII (Michael W. Deem and Ramdas Pophale) SiO2 
 PCOD9289580
Probable space group: C 2/C
;
_chemical_formula_sum "Si O2"
_cell_formula_units_Z 44
_cell_length_a 25.299535
_cell_length_b 16.577876
_cell_length_c 5.546365
_cell_angle_alpha 90.000000
_cell_angle_beta 58.983204
_cell_angle_gamma 90.000000
_cell_volume 1993.604227
_symmetry_space_group_name_H-M "C 2/C"
_symmetry_group_IT_number 15
_symmetry_cell_setting 'monoclinic'
loop_
_space_group_symop_operation_xyz
x,y,z
-x,y,1/2-z
-x,-y,-z
x,-y,1/2+z
1/2+x,1/2+y,z
1/2-x,1/2+y,1/2-z
1/2-x,1/2-y,-z
1/2+x,1/2-y,1/2+z
loop_
_atom_site_type_symbol
_atom_site_label
_atom_site_fract_x
_atom_site_fract_y
_atom_site_fract_z
Si Si1 0.889036 0.326678 0.795250
Si Si2 0.194653 0.806165 0.220237
Si Si3 0.105005 0.786886 0.832043
Si Si4 0.720113 0.048889 0.053575
Si Si5 0.925800 0.040758 0.920085
Si Si6 0.500000 0.775108 0.250000
O O1 0.861307 0.240753 0.772537
O O2 0.955913 0.329979 0.519606
O O3 0.893094 0.304182 0.065847
O O4 0.841217 0.395278 0.834620
O O5 0.171075 0.801964 0.550080
O O6 0.219595 0.894174 0.104141
O O7 0.250000 0.750000 0.000000
O O8 0.044958 0.781267 0.801180
O O9 0.091753 0.865882 0.020153
O O10 0.719844 0.992452 0.816568
O O11 0.000000 0.033826 0.750000
O O12 0.903699 0.001256 0.721306
#
# Coordination Sequence:
#
# PCOD9289580 Si02
#       6
#     8   8   8   8   8   4
#     4  10  23  43  71  98 134 181 227 280 337 412
#     4   9  23  42  67  95 129 173 225 277 339 399
#     4  11  23  39  69  94 135 180 236 273 336 405
#     4  11  27  46  71 102 139 177 226 288 351 402
#     4  10  23  37  56  87 131 172 213 266 326 383
#     4  10  22  40  66 102 130 178 240 276 332 406
#
# _framework density 22.070581000000001
#
# number of rings (size 3 to 8) (size 9 to 14) (size 15 to 20)
#    0.000    1.818    0.000    1.636   19.091    2.909 
#    0.000    0.909    0.000    0.000    0.000    0.000 
#    0.000    0.000    0.000    0.000    0.000    0.000 
#
# Total GULP energy -122632.288217 kJ/mol
# GULP energy per Si atom -5574.194919 kJ/mol
# Density = 2.202035 g / cm^3
# Si number density = 22.070581 Si / 1000 Ang^3
#
#
#
# Elastic Constant Matrix: (Units=GPa)
#
#
# Indices 1 2 3 4 5 6 
#
# 1 49.3588 27.4405 29.0050 0.0000 -12.2133 0.0000
# 2 27.4405 77.8716 32.8102 0.0000 7.1492 0.0000
# 3 29.0050 32.8102 104.9740 0.0000 -12.5927 0.0000
# 4 0.0000 0.0000 0.0000 24.6398 0.0000 -2.5870
# 5 -12.2133 7.1492 -12.5927 0.0000 37.3300 0.0000
# 6 0.0000 0.0000 0.0000 -2.5870 0.0000 48.5840
#
#
#
# Elastic Compliance Matrix: (Units=1/GPa)
#
#
# Indices 1 2 3 4 5 6 
#
# 1 0.030966 -0.010169 -0.004095 0.000000 0.010697 0.000000
# 2 -0.010169 0.018919 -0.004103 0.000000 -0.008334 0.000000
# 3 -0.004095 -0.004103 0.012374 0.000000 0.003621 0.000000
# 4 0.000000 0.000000 0.000000 0.040813 0.000000 0.002173
# 5 0.010697 -0.008334 0.003621 0.000000 0.033105 0.000000
# 6 0.000000 0.000000 0.000000 0.002173 0.000000 0.020699
#
#
# Mechanical properties :
#
#
# Convention : Reuss Voigt Hill
#
# Bulk Modulus (GPa) = 39.17557 45.63508 42.40533
# Shear Modulus (GPa) = 24.73797 31.64068 28.18932
#
# Velocity S-wave (km/s) = 3.35155 3.79042 3.57772
# Velocity P-wave (km/s) = 5.72415 6.31491 6.02677
#
# Compressibility (1/GPa) = 0.02552611
#
# Stress axis : x y z
#
# Youngs Moduli (GPa) = 32.29338 52.85699 80.81229
#
# Poissons Ratio (x) = 0.53749 0.33089
# Poissons Ratio (y) = 0.32838 0.33160
# Poissons Ratio (z) = 0.13223 0.21689
#
# Static dielectric constant tensor:
#      x y z
#    x 1.894300 0.000000 0.193170 
#    y 0.000000 1.798640 0.000000 
#    z 0.193170 0.000000 2.150670 
# 
# From -- ./inp_files/16908.got.cif
#   From: 2010.05.17/outbox.cif.g08.bks.cpg/sg15_9_cif.got.tgz:16908.got - 2010.06.03 18:47:42.
