data_PCOD9289343
_publ_section_title
;
Structure prediction by ZEFSAII (Michael W. Deem and Ramdas Pophale) SiO2 
 PCOD9289343
Probable space group: C 2/C
;
_chemical_formula_sum "Si O2"
_cell_formula_units_Z 60
_cell_length_a 8.631205
_cell_length_b 26.184793
_cell_length_c 12.288659
_cell_angle_alpha 90.000000
_cell_angle_beta 95.262781
_cell_angle_gamma 90.000000
_cell_volume 2765.606759
_symmetry_space_group_name_H-M "C 2/C"
_symmetry_group_IT_number 15
_symmetry_cell_setting 'monoclinic'
loop_
_space_group_symop_operation_xyz
x,y,z
-x,y,1/2-z
-x,-y,-z
x,-y,1/2+z
1/2+x,1/2+y,z
1/2-x,1/2+y,1/2-z
1/2-x,1/2-y,-z
1/2+x,1/2-y,1/2+z
loop_
_atom_site_type_symbol
_atom_site_label
_atom_site_fract_x
_atom_site_fract_y
_atom_site_fract_z
Si Si1 0.701508 0.037465 0.453068
Si Si2 0.349207 0.194687 0.168440
Si Si3 0.972123 0.933702 0.127076
Si Si4 0.685425 0.407736 0.751299
Si Si5 0.170847 0.708074 0.710576
Si Si6 0.539129 0.137553 0.529644
Si Si7 0.722005 0.928887 0.496349
Si Si8 0.000000 0.834468 0.250000
O O1 0.772802 0.051871 0.340564
O O2 0.593122 0.084738 0.478158
O O3 0.832040 0.040152 0.555548
O O4 0.635954 0.980564 0.451606
O O5 0.500000 0.207485 0.250000
O O6 0.264071 0.145601 0.217409
O O7 0.227680 0.240911 0.151776
O O8 0.422023 0.179350 0.057846
O O9 0.949868 0.873458 0.150544
O O10 0.000000 0.955970 0.250000
O O11 0.117185 0.935547 0.056645
O O12 0.500000 0.401874 0.750000
O O13 0.752558 0.424409 0.872589
O O14 0.126055 0.657526 0.640329
O O15 0.339827 0.693705 0.775502
O O16 0.000000 0.721186 0.750000
O O17 0.362076 0.123435 0.544858
#
# Coordination Sequence:
#
# PCOD9289343 Si02
#       8
#     8   8   8   8   8   8   8   4
#     4  11  24  39  65  96 139 184 236 284 348 415
#     4  11  23  45  70  98 137 177 225 299 356 414
#     4  10  22  40  63  97 138 180 230 290 344 401
#     4  11  24  41  66  99 141 184 236 290 350 419
#     4  12  24  45  73 103 135 183 235 286 364 430
#     4  11  24  46  65  99 135 181 227 292 355 417
#     4  12  24  40  67 100 137 188 238 285 347 428
#     4  10  22  42  68  96 140 182 222 298 348 406
#
# _framework density 21.695058
#
# number of rings (size 3 to 8) (size 9 to 14) (size 15 to 20)
#    0.400    0.533    4.667    2.400    1.867    0.000 
#    0.000    0.667    0.000    0.000    0.000    0.000 
#    0.000    0.000    0.000    0.000    0.000    0.000 
#
# Total GULP energy -167198.079826 kJ/mol
# GULP energy per Si atom -5573.269328 kJ/mol
# Density = 2.164568 g / cm^3
# Si number density = 21.695058 Si / 1000 Ang^3
#
#
#
# Elastic Constant Matrix: (Units=GPa)
#
#
# Indices 1 2 3 4 5 6 
#
# 1 91.1460 22.4748 14.9370 0.0000 4.5190 0.0000
# 2 22.4748 85.5013 9.6797 0.0000 -1.3873 0.0000
# 3 14.9370 9.6797 74.7215 0.0000 7.2792 0.0000
# 4 0.0000 0.0000 0.0000 7.6095 0.0000 -19.2349
# 5 4.5190 -1.3873 7.2792 0.0000 22.9255 0.0000
# 6 0.0000 0.0000 0.0000 -19.2349 0.0000 40.2981
#
#
#
# Elastic Compliance Matrix: (Units=1/GPa)
#
#
# Indices 1 2 3 4 5 6 
#
# 1 0.012113 -0.003008 -0.001838 0.000000 -0.001986 0.000000
# 2 -0.003008 0.012651 -0.001207 0.000000 0.001742 0.000000
# 3 -0.001838 -0.001207 0.014322 0.000000 -0.004258 0.000000
# 4 0.000000 0.000000 0.000000 -0.636303 0.000000 -0.303716
# 5 -0.001986 0.001742 -0.004258 0.000000 0.045468 0.000000
# 6 0.000000 0.000000 0.000000 -0.303716 0.000000 -0.120153
#
#
# Mechanical properties :
#
#
# Convention : Reuss Voigt Hill
#
# Bulk Modulus (GPa) = 37.06621 38.39463 37.73042
# Shear Modulus (GPa) = -7.68283 27.78512 10.05115
#
# Velocity S-wave (km/s) = -1.88387 3.58259 2.15476
# Velocity P-wave (km/s) = 3.51998 5.90331 4.86000
#
# Compressibility (1/GPa) = 0.02697875
#
# Stress axis : x y z
#
# Youngs Moduli (GPa) = 82.55695 79.04288 69.82414
#
# Poissons Ratio (x) = 0.23777 0.12835
# Poissons Ratio (y) = 0.24834 0.08430
# Poissons Ratio (z) = 0.15176 0.09543
#
# Static dielectric constant tensor:
#      x y z
#    x 1.899430 0.000000 -0.031360 
#    y 0.000000 1.818470 0.000000 
#    z -0.031360 0.000000 1.780540 
# 
# From -- ./inp_files/81358.got.cif
#   From: 2010.05.17/outbox.cif.g08.bks.cpg/sg15_41_cif.got.tgz:81358.got - 2010.06.03 18:47:42.
