data_PCOD9289718
_publ_section_title
;
Structure prediction by ZEFSAII (Michael W. Deem and Ramdas Pophale) SiO2 
 PCOD9289718
Probable space group: C 2/C
;
_chemical_formula_sum "Si O2"
_cell_formula_units_Z 48
_cell_length_a 24.289660
_cell_length_b 5.014636
_cell_length_c 18.548152
_cell_angle_alpha 90.000000
_cell_angle_beta 109.256428
_cell_angle_gamma 90.000000
_cell_volume 2132.835815
_symmetry_space_group_name_H-M "C 2/C"
_symmetry_group_IT_number 15
_symmetry_cell_setting 'monoclinic'
loop_
_space_group_symop_operation_xyz
x,y,z
-x,y,1/2-z
-x,-y,-z
x,-y,1/2+z
1/2+x,1/2+y,z
1/2-x,1/2+y,1/2-z
1/2-x,1/2-y,-z
1/2+x,1/2-y,1/2+z
loop_
_atom_site_type_symbol
_atom_site_label
_atom_site_fract_x
_atom_site_fract_y
_atom_site_fract_z
Si Si1 0.394194 0.996526 0.374595
Si Si2 0.125956 0.746563 0.912405
Si Si3 0.824262 0.249235 0.622323
Si Si4 0.233652 0.730334 0.700830
Si Si5 0.064170 0.472454 0.761702
Si Si6 0.430655 0.498602 0.971271
O O1 0.430244 0.932370 0.317733
O O2 0.405246 0.302852 0.399485
O O3 0.327690 0.915789 0.333581
O O4 0.414075 0.805058 0.447918
O O5 0.158790 0.462952 0.931938
O O6 0.078501 0.695075 0.828522
O O7 0.174206 0.953230 0.906018
O O8 0.094947 0.879000 0.966570
O O9 0.765966 0.307957 0.640877
O O10 0.880006 0.281105 0.700495
O O11 0.272097 0.500174 0.755812
O O12 0.000000 0.361589 0.750000
O O13 0.500000 0.500000 0.000000
#
# Coordination Sequence:
#
# PCOD9289718 Si02
#       6
#     8   8   8   8   8   8
#     4  12  26  42  71 108 127 190 238 282 353 422
#     4  10  23  43  64  94 136 185 219 278 363 400
#     4  10  22  40  67  93 134 178 222 281 356 392
#     4  12  22  43  69 103 148 175 233 303 350 411
#     4  10  23  40  68 100 133 168 242 282 347 411
#     4  12  27  46  67  97 148 182 230 286 358 425
#
# _framework density 22.50525
#
# number of rings (size 3 to 8) (size 9 to 14) (size 15 to 20)
#    1.000    0.000    1.667    5.500    4.667    0.667 
#    0.000    5.000    0.000    0.000    0.000    0.000 
#    0.000    0.000    0.000    0.000    0.000    0.000 
#
# Total GULP energy -134019.511689 kJ/mol
# GULP energy per Si atom -5584.146320 kJ/mol
# Density = 2.245403 g / cm^3
# Si number density = 22.505250 Si / 1000 Ang^3
#
#
#
# Elastic Constant Matrix: (Units=GPa)
#
#
# Indices 1 2 3 4 5 6 
#
# 1 120.5494 -11.8301 5.0956 0.0000 -28.2001 0.0000
# 2 -11.8301 65.0997 -11.0681 0.0004 8.1591 -0.0002
# 3 5.0956 -11.0681 24.4856 0.0000 -41.3626 0.0000
# 4 0.0000 0.0004 0.0000 21.3369 0.0000 7.5896
# 5 -28.2001 8.1591 -41.3626 0.0000 -4.2804 -0.0001
# 6 0.0000 -0.0002 0.0000 7.5896 -0.0001 26.3141
#
#
#
# Elastic Compliance Matrix: (Units=1/GPa)
#
#
# Indices 1 2 3 4 5 6 
#
# 1 0.008069 0.000883 -0.005094 0.000000 -0.002258 0.000000
# 2 0.000883 0.016332 0.002884 0.000000 -0.002554 0.000000
# 3 -0.005094 0.002884 0.006302 0.000000 -0.021845 0.000000
# 4 0.000000 0.000000 0.000000 0.052225 0.000000 -0.015063
# 5 -0.002258 -0.002554 -0.021845 0.000000 -0.012526 0.000000
# 6 0.000000 0.000000 0.000000 -0.015063 0.000000 0.042347
#
#
# Mechanical properties :
#
#
# Convention : Reuss Voigt Hill
#
# Bulk Modulus (GPa) = 35.65020 19.39216 27.52118
# Shear Modulus (GPa) = 40.07942 23.86993 31.97468
#
# Velocity S-wave (km/s) = 4.22464 3.26028 3.77339
# Velocity P-wave (km/s) = 6.29857 4.77577 5.58927
#
# Compressibility (1/GPa) = 0.02805033
#
# Stress axis : x y z
#
# Youngs Moduli (GPa) = 123.92741 61.22949 158.67671
#
# Poissons Ratio (x) = -0.05408 0.80823
# Poissons Ratio (y) = -0.10947 -0.45758
# Poissons Ratio (z) = 0.63123 -0.17657
#
# Static dielectric constant tensor:
#      x y z
#    x 1.786560 0.000000 0.002360 
#    y 0.000000 1.816000 0.000000 
#    z 0.002360 0.000000 1.898440 
# 
# From -- ./inp_files/220995.got.cif
#   From: 2010.05.17/outbox.cif.g08.bks.cpg/sg15_111_cif.got.tgz:220995.got - 2010.06.03 18:47:42.
