data_PCOD9289534
_publ_section_title
;
Structure prediction by ZEFSAII (Michael W. Deem and Ramdas Pophale) SiO2 
 PCOD9289534
Probable space group: C 2/C
;
_chemical_formula_sum "Si O2"
_cell_formula_units_Z 48
_cell_length_a 9.915379
_cell_length_b 15.022426
_cell_length_c 25.613882
_cell_angle_alpha 90.000000
_cell_angle_beta 42.208993
_cell_angle_gamma 90.000000
_cell_volume 2563.236164
_symmetry_space_group_name_H-M "C 2/C"
_symmetry_group_IT_number 15
_symmetry_cell_setting 'monoclinic'
loop_
_space_group_symop_operation_xyz
x,y,z
-x,y,1/2-z
-x,-y,-z
x,-y,1/2+z
1/2+x,1/2+y,z
1/2-x,1/2+y,1/2-z
1/2-x,1/2-y,-z
1/2+x,1/2-y,1/2+z
loop_
_atom_site_type_symbol
_atom_site_label
_atom_site_fract_x
_atom_site_fract_y
_atom_site_fract_z
Si Si1 0.661351 0.916278 0.657202
Si Si2 0.925208 0.924845 0.673114
Si Si3 0.923898 0.295322 0.916204
Si Si4 0.327394 0.239150 0.755990
Si Si5 0.871690 0.460211 0.583116
Si Si6 0.884137 0.556863 0.686390
O O1 0.500000 0.895637 0.750000
O O2 0.871314 0.922416 0.627346
O O3 0.658027 0.842931 0.612857
O O4 0.580853 0.008142 0.654488
O O5 0.843408 0.834980 0.723735
O O6 0.153723 0.935903 0.623775
O O7 0.798979 0.006422 0.732708
O O8 0.107398 0.232324 0.845160
O O9 0.027146 0.372971 0.920835
O O10 0.750000 0.250000 0.000000
O O11 0.500000 0.235108 0.750000
O O12 0.369872 0.159833 0.703748
O O13 0.864341 0.531909 0.631792
O O14 0.000000 0.500000 0.500000
#
# Coordination Sequence:
#
# PCOD9289534 Si02
#       6
#     8   8   8   8   8   8
#     4   9  18  41  66  87 128 162 215 267 314 388
#     4  11  20  43  68  91 126 169 221 270 312 387
#     4  11  24  42  61  97 135 166 211 277 333 378
#     4  12  21  40  71  93 127 174 223 266 316 394
#     4  11  24  45  62  93 136 168 210 274 335 391
#     4  10  22  40  65  96 122 168 220 261 322 393
#
# _framework density 18.726327999999999
#
# number of rings (size 3 to 8) (size 9 to 14) (size 15 to 20)
#    0.000    1.333    6.667    2.000    2.333    1.333 
#    6.000    3.333    0.000    0.000    0.000    0.000 
#    0.000    0.000    0.000    0.000    0.000    0.000 
#
# Total GULP energy -134017.781219 kJ/mol
# GULP energy per Si atom -5584.074217 kJ/mol
# Density = 1.868371 g / cm^3
# Si number density = 18.726328 Si / 1000 Ang^3
#
#
#
# Elastic Constant Matrix: (Units=GPa)
#
#
# Indices 1 2 3 4 5 6 
#
# 1 159.8583 17.1660 51.0414 -0.0004 -0.1219 0.0001
# 2 17.1660 44.7982 12.3046 -0.0006 -1.8897 0.0001
# 3 51.0414 12.3046 69.7000 -0.0005 2.3943 0.0003
# 4 -0.0004 -0.0006 -0.0005 26.2286 0.0001 4.9893
# 5 -0.1219 -1.8897 2.3943 0.0001 23.0467 -0.0001
# 6 0.0001 0.0001 0.0003 4.9893 -0.0001 12.5114
#
#
#
# Elastic Compliance Matrix: (Units=1/GPa)
#
#
# Indices 1 2 3 4 5 6 
#
# 1 0.008276 -0.001555 -0.005804 0.000000 0.000519 0.000000
# 2 -0.001555 0.023881 -0.003155 0.000000 0.002278 0.000000
# 3 -0.005804 -0.003155 0.019233 0.000000 -0.002287 -0.000001
# 4 0.000000 0.000000 0.000000 0.041256 0.000000 -0.016452
# 5 0.000519 0.002278 -0.002287 0.000000 0.043817 0.000000
# 6 0.000000 0.000000 -0.000001 -0.016452 0.000000 0.086488
#
#
# Mechanical properties :
#
#
# Convention : Reuss Voigt Hill
#
# Bulk Modulus (GPa) = 32.93652 48.37562 40.65607
# Shear Modulus (GPa) = 19.67724 25.28029 22.47877
#
# Velocity S-wave (km/s) = 3.24509 3.67820 3.46841
# Velocity P-wave (km/s) = 5.62737 6.62781 6.14798
#
# Compressibility (1/GPa) = 0.03036143
#
# Stress axis : x y z
#
# Youngs Moduli (GPa) = 120.83038 41.87431 51.99404
#
# Poissons Ratio (x) = 0.06512 0.30177
# Poissons Ratio (y) = 0.18792 0.16405
# Poissons Ratio (z) = 0.70128 0.13212
#
# Static dielectric constant tensor:
#      x y z
#    x 1.673140 0.000000 -0.015530 
#    y 0.000000 1.635920 0.000000 
#    z -0.015530 0.000000 1.640450 
# 
# From -- ./inp_files/289014.got.cif
#   From: 2010.05.17/outbox.cif.g08.bks.cpg/sg15_145_cif.got.tgz:289014.got - 2010.06.03 18:47:42.
