data_PCOD9289658
_publ_section_title
;
Structure prediction by ZEFSAII (Michael W. Deem and Ramdas Pophale) SiO2 
 PCOD9289658
Probable space group: C 2/C
;
_chemical_formula_sum "Si O2"
_cell_formula_units_Z 44
_cell_length_a 25.977516
_cell_length_b 6.552395
_cell_length_c 13.897469
_cell_angle_alpha 90.000000
_cell_angle_beta 57.690758
_cell_angle_gamma 90.000000
_cell_volume 1999.311071
_symmetry_space_group_name_H-M "C 2/C"
_symmetry_group_IT_number 15
_symmetry_cell_setting 'monoclinic'
loop_
_space_group_symop_operation_xyz
x,y,z
-x,y,1/2-z
-x,-y,-z
x,-y,1/2+z
1/2+x,1/2+y,z
1/2-x,1/2+y,1/2-z
1/2-x,1/2-y,-z
1/2+x,1/2-y,1/2+z
loop_
_atom_site_type_symbol
_atom_site_label
_atom_site_fract_x
_atom_site_fract_y
_atom_site_fract_z
Si Si1 0.402870 0.775285 0.484632
Si Si2 0.311120 0.861322 0.060299
Si Si3 0.380946 0.395822 0.636798
Si Si4 0.572545 0.006146 0.350328
Si Si5 0.168600 0.214852 0.667743
Si Si6 0.000000 0.572659 0.750000
O O1 0.394848 0.551625 0.536178
O O2 0.444548 0.797182 0.349490
O O3 0.340859 0.910660 0.532441
O O4 0.436831 0.887568 0.538925
O O5 0.329611 0.747611 0.139794
O O6 0.239227 0.834088 0.118212
O O7 0.339091 0.749556 0.938130
O O8 0.429616 0.233555 0.625461
O O9 0.364459 0.529889 0.745584
O O10 0.527513 0.059598 0.309016
O O11 0.639045 0.084878 0.247011
#
# Coordination Sequence:
#
# PCOD9289658 Si02
#       6
#     8   8   8   8   8   4
#     4  10  23  43  63  96 130 170 222 265 326 384
#     4  10  22  40  66  97 130 170 213 268 332 392
#     4  10  24  39  64  96 134 163 216 272 322 396
#     4  10  23  43  63  96 130 170 222 265 326 384
#     4  10  22  40  66  97 130 170 213 268 332 392
#     4  12  22  42  72  86 132 184 214 276 314 378
#
# _framework density 22.007581999999999
#
# number of rings (size 3 to 8) (size 9 to 14) (size 15 to 20)
#    0.000    1.818    1.818    0.545   10.182    0.727 
#    0.000   12.727    0.000    0.000    0.000    0.000 
#    0.000    0.000    0.000    0.000    0.000    0.000 
#
# Total GULP energy -122674.565160 kJ/mol
# GULP energy per Si atom -5576.116598 kJ/mol
# Density = 2.195749 g / cm^3
# Si number density = 22.007582 Si / 1000 Ang^3
#
#
#
# Elastic Constant Matrix: (Units=GPa)
#
#
# Indices 1 2 3 4 5 6 
#
# 1 86.9591 22.1118 29.2034 0.0000 11.8451 -0.0002
# 2 22.1118 95.5914 30.5220 0.0001 -6.0738 0.0001
# 3 29.2034 30.5220 85.2892 0.0000 1.7520 0.0001
# 4 0.0000 0.0001 0.0000 18.0021 0.0000 8.8215
# 5 11.8451 -6.0738 1.7520 0.0000 40.1247 0.0000
# 6 -0.0002 0.0001 0.0001 8.8215 0.0000 17.1376
#
#
#
# Elastic Compliance Matrix: (Units=1/GPa)
#
#
# Indices 1 2 3 4 5 6 
#
# 1 0.013964 -0.002263 -0.003883 0.000000 -0.004295 0.000000
# 2 -0.002263 0.012336 -0.003695 0.000000 0.002697 0.000000
# 3 -0.003883 -0.003695 0.014378 0.000000 -0.000041 0.000000
# 4 0.000000 0.000000 0.000000 0.074287 0.000000 -0.038239
# 5 -0.004295 0.002697 -0.000041 0.000000 0.026600 0.000000
# 6 0.000000 0.000000 0.000000 -0.038239 0.000000 0.078034
#
#
# Mechanical properties :
#
#
# Convention : Reuss Voigt Hill
#
# Bulk Modulus (GPa) = 47.63084 47.94600 47.78842
# Shear Modulus (GPa) = 20.30204 27.45304 23.87754
#
# Velocity S-wave (km/s) = 3.04057 3.53574 3.29746
# Velocity P-wave (km/s) = 5.83238 6.20500 6.02157
#
# Compressibility (1/GPa) = 0.02099480
#
# Stress axis : x y z
#
# Youngs Moduli (GPa) = 71.61087 81.06440 69.55239
#
# Poissons Ratio (x) = 0.18346 0.27009
# Poissons Ratio (y) = 0.16207 0.25700
# Poissons Ratio (z) = 0.27809 0.29954
#
# Static dielectric constant tensor:
#      x y z
#    x 1.853610 0.000000 -0.029140 
#    y 0.000000 1.812680 0.000000 
#    z -0.029140 0.000000 1.825860 
# 
# From -- ./inp_files/175658.got.cif
#   From: 2010.05.17/outbox.cif.g08.bks.cpg/sg15_88_cif.got.tgz:175658.got - 2010.06.03 18:47:42.
