data_PCOD9289616
_publ_section_title
;
Structure prediction by ZEFSAII (Michael W. Deem and Ramdas Pophale) SiO2 
 PCOD9289616
Probable space group: C 2/C
;
_chemical_formula_sum "Si O2"
_cell_formula_units_Z 44
_cell_length_a 12.421722
_cell_length_b 11.830356
_cell_length_c 16.111231
_cell_angle_alpha 90.000000
_cell_angle_beta 58.806895
_cell_angle_gamma 90.000000
_cell_volume 2025.308060
_symmetry_space_group_name_H-M "C 2/C"
_symmetry_group_IT_number 15
_symmetry_cell_setting 'monoclinic'
loop_
_space_group_symop_operation_xyz
x,y,z
-x,y,1/2-z
-x,-y,-z
x,-y,1/2+z
1/2+x,1/2+y,z
1/2-x,1/2+y,1/2-z
1/2-x,1/2-y,-z
1/2+x,1/2-y,1/2+z
loop_
_atom_site_type_symbol
_atom_site_label
_atom_site_fract_x
_atom_site_fract_y
_atom_site_fract_z
Si Si1 0.145684 0.775213 0.720955
Si Si2 0.500000 0.115206 0.250000
Si Si3 0.937060 0.863137 0.582843
Si Si4 0.728824 0.959930 0.125985
Si Si5 0.826683 0.962713 0.916001
Si Si6 0.392420 0.711384 0.922595
O O1 0.142889 0.787589 0.821081
O O2 0.221309 0.667655 0.659186
O O3 0.194717 0.890593 0.658136
O O4 0.000000 0.758751 0.750000
O O5 0.534377 0.197731 0.160579
O O6 0.618763 0.032677 0.211803
O O7 0.955580 0.806617 0.486838
O O8 0.063466 0.894443 0.579890
O O9 0.857032 0.976050 0.597639
O O10 0.718005 0.965553 0.029507
O O11 0.876544 0.089827 0.883746
O O12 0.250000 0.750000 0.000000
#
# Coordination Sequence:
#
# PCOD9289616 Si02
#       6
#     8   4   8   8   8   8
#     4  10  22  40  66  92 127 165 208 258 321 380
#     4  12  24  38  66  92 128 174 206 270 332 360
#     4  10  23  40  63  98 122 165 216 264 311 384
#     4  11  21  41  62  91 130 162 211 267 318 375
#     4  10  22  42  64  92 124 169 212 261 316 382
#     4  11  22  41  63  93 132 164 215 265 317 381
#
# _framework density 21.725090000000002
#
# number of rings (size 3 to 8) (size 9 to 14) (size 15 to 20)
#    0.000    1.455    4.545    2.727    3.818    4.364 
#    0.000    0.909    0.000    0.000    0.000    0.000 
#    0.000    0.000    0.000    0.000    0.000    0.000 
#
# Total GULP energy -122966.492238 kJ/mol
# GULP energy per Si atom -5589.386011 kJ/mol
# Density = 2.167564 g / cm^3
# Si number density = 21.725090 Si / 1000 Ang^3
#
#
#
# Elastic Constant Matrix: (Units=GPa)
#
#
# Indices 1 2 3 4 5 6 
#
# 1 31.5151 1.7331 18.0423 0.0000 -2.6120 0.0000
# 2 1.7331 103.7340 48.6705 0.0000 11.4925 0.0000
# 3 18.0423 48.6705 108.1726 0.0000 -4.6769 0.0000
# 4 0.0000 0.0000 0.0000 44.9809 0.0000 -9.1295
# 5 -2.6120 11.4925 -4.6769 0.0000 25.1560 0.0000
# 6 0.0000 0.0000 0.0000 -9.1295 0.0000 14.4679
#
#
#
# Elastic Compliance Matrix: (Units=1/GPa)
#
#
# Indices 1 2 3 4 5 6 
#
# 1 0.035738 0.002587 -0.007072 0.000000 0.001214 0.000000
# 2 0.002587 0.013623 -0.006874 0.000000 -0.007233 0.000000
# 3 -0.007072 -0.006874 0.013731 0.000000 0.004959 0.000000
# 4 0.000000 0.000000 0.000000 0.025497 0.000000 0.016089
# 5 0.001214 -0.007233 0.004959 0.000000 0.044104 0.000000
# 6 0.000000 0.000000 0.000000 0.016089 0.000000 0.079271
#
#
# Mechanical properties :
#
#
# Convention : Reuss Voigt Hill
#
# Bulk Modulus (GPa) = 24.76849 42.25705 33.51277
# Shear Modulus (GPa) = 20.14983 28.58603 24.36793
#
# Velocity S-wave (km/s) = 3.04878 3.63134 3.35274
# Velocity P-wave (km/s) = 4.88047 6.08894 5.51789
#
# Compressibility (1/GPa) = 0.04037388
#
# Stress axis : x y z
#
# Youngs Moduli (GPa) = 27.98143 73.40421 72.82714
#
# Poissons Ratio (x) = -0.18986 0.51504
# Poissons Ratio (y) = -0.07237 0.50059
# Poissons Ratio (z) = 0.19789 0.50456
#
# Static dielectric constant tensor:
#      x y z
#    x 1.806410 0.000000 -0.016280 
#    y 0.000000 1.785050 0.000000 
#    z -0.016280 0.000000 1.860590 
# 
# From -- ./inp_files/142327.got.cif
#   From: 2010.05.17/outbox.cif.g08.bks.cpg/sg15_72_cif.got.tgz:142327.got - 2010.06.03 18:47:42.
