data_PCOD9289875
_publ_section_title
;
Structure prediction by ZEFSAII (Michael W. Deem and Ramdas Pophale) SiO2 
 PCOD9289875
Probable space group: C 2/C
;
_chemical_formula_sum "Si O2"
_cell_formula_units_Z 40
_cell_length_a 22.991847
_cell_length_b 8.555473
_cell_length_c 10.541424
_cell_angle_alpha 90.000000
_cell_angle_beta 131.807476
_cell_angle_gamma 90.000000
_cell_volume 1545.610861
_symmetry_space_group_name_H-M "C 2/C"
_symmetry_group_IT_number 15
_symmetry_cell_setting 'monoclinic'
loop_
_space_group_symop_operation_xyz
x,y,z
-x,y,1/2-z
-x,-y,-z
x,-y,1/2+z
1/2+x,1/2+y,z
1/2-x,1/2+y,1/2-z
1/2-x,1/2-y,-z
1/2+x,1/2-y,1/2+z
loop_
_atom_site_type_symbol
_atom_site_label
_atom_site_fract_x
_atom_site_fract_y
_atom_site_fract_z
Si Si1 0.854201 0.460198 0.594840
Si Si2 0.094871 0.027538 0.560068
Si Si3 0.237972 0.448266 0.300038
Si Si4 0.012936 0.250471 0.606554
Si Si5 0.127291 0.250304 0.253680
O O1 0.801903 0.444009 0.395470
O O2 0.787169 0.719047 0.679004
O O3 0.928244 0.345245 0.719074
O O4 0.881781 0.641889 0.638465
O O5 0.115004 0.932150 0.720472
O O6 0.029171 0.911077 0.411578
O O7 0.171014 0.029598 0.585806
O O8 0.062553 0.192355 0.556529
O O9 0.198090 0.555760 0.351246
O O10 0.936452 0.332437 0.434922
#
# Coordination Sequence:
#
# PCOD9289875 Si02
#       5
#     8   8   8   8   8
#     4  10  22  40  69  91 127 173 217 268 312 403
#     4   9  20  40  62  93 131 168 207 276 319 392
#     4  10  23  39  67  95 129 167 223 259 331 373
#     4   9  19  40  64  91 129 167 217 260 334 373
#     4   8  20  39  63  89 123 169 213 263 313 392
#
# _framework density 25.879735
#
# number of rings (size 3 to 8) (size 9 to 14) (size 15 to 20)
#    2.400    0.400    0.000    0.600    2.800    2.400 
#    0.000    0.000    4.400    0.000    0.000    0.000 
#    0.000    0.000    0.000    0.000    0.000    0.000 
#
# Total GULP energy -111366.938007 kJ/mol
# GULP energy per Si atom -5568.346900 kJ/mol
# Density = 2.582083 g / cm^3
# Si number density = 25.879735 Si / 1000 Ang^3
#
#
#
# Elastic Constant Matrix: (Units=GPa)
#
#
# Indices 1 2 3 4 5 6 
#
# 1 181.8082 39.0932 79.2182 0.0000 35.8324 0.0000
# 2 39.0932 47.1781 23.7105 0.0000 3.2246 0.0000
# 3 79.2182 23.7105 156.5718 0.0000 -22.8245 0.0000
# 4 0.0000 0.0000 0.0000 20.8264 0.0000 12.2375
# 5 35.8324 3.2246 -22.8245 0.0000 26.8796 0.0000
# 6 0.0000 0.0000 0.0000 12.2375 0.0000 31.2030
#
#
#
# Elastic Compliance Matrix: (Units=1/GPa)
#
#
# Indices 1 2 3 4 5 6 
#
# 1 0.023845 -0.007810 -0.017551 0.000000 -0.045754 0.000000
# 2 -0.007810 0.026544 0.001125 0.000000 0.008183 0.000000
# 3 -0.017551 0.001125 0.021100 0.000000 0.041179 0.000000
# 4 0.000000 0.000000 0.000000 0.062395 0.000000 -0.024471
# 5 -0.045754 0.008183 0.041179 0.000000 0.132181 0.000000
# 6 0.000000 0.000000 0.000000 -0.024471 0.000000 0.041645
#
#
# Mechanical properties :
#
#
# Convention : Reuss Voigt Hill
#
# Bulk Modulus (GPa) = 43.45139 74.40022 58.92580
# Shear Modulus (GPa) = 13.74175 32.01753 22.87964
#
# Velocity S-wave (km/s) = 2.30681 3.52115 2.97657
# Velocity P-wave (km/s) = 4.89095 6.73366 5.88488
#
# Compressibility (1/GPa) = 0.02301422
#
# Stress axis : x y z
#
# Youngs Moduli (GPa) = 41.93767 37.67394 47.39406
#
# Poissons Ratio (x) = 0.29425 0.83184
# Poissons Ratio (y) = 0.32755 -0.05332
# Poissons Ratio (z) = 0.73607 -0.04238
#
# Static dielectric constant tensor:
#      x y z
#    x 2.031880 0.000000 -0.029090 
#    y 0.000000 2.091610 0.000000 
#    z -0.029090 0.000000 2.090400 
# 
# From -- ./inp_files/121677.got.cif
#   From: 2010.05.17/outbox.cif.g08.bks.cpg/sg15_61_cif.got.tgz:121677.got - 2010.06.03 18:47:42.
