data_PCOD9289466
_publ_section_title
;
Structure prediction by ZEFSAII (Michael W. Deem and Ramdas Pophale) SiO2 
 PCOD9289466
Probable space group: C 2/C
;
_chemical_formula_sum "Si O2"
_cell_formula_units_Z 48
_cell_length_a 8.351741
_cell_length_b 22.034829
_cell_length_c 15.627227
_cell_angle_alpha 90.000000
_cell_angle_beta 128.865293
_cell_angle_gamma 90.000000
_cell_volume 2239.216429
_symmetry_space_group_name_H-M "C 2/C"
_symmetry_group_IT_number 15
_symmetry_cell_setting 'monoclinic'
loop_
_space_group_symop_operation_xyz
x,y,z
-x,y,1/2-z
-x,-y,-z
x,-y,1/2+z
1/2+x,1/2+y,z
1/2-x,1/2+y,1/2-z
1/2-x,1/2-y,-z
1/2+x,1/2-y,1/2+z
loop_
_atom_site_type_symbol
_atom_site_label
_atom_site_fract_x
_atom_site_fract_y
_atom_site_fract_z
Si Si1 0.840739 0.366333 0.774434
Si Si2 0.568783 0.335458 0.967346
Si Si3 0.770324 0.897360 0.130468
Si Si4 0.133929 0.506113 0.707599
Si Si5 0.958691 0.298586 0.983769
Si Si6 0.990534 0.054719 0.932269
O O1 0.615393 0.355407 0.658036
O O2 0.861122 0.435683 0.815017
O O3 0.898115 0.320024 0.868526
O O4 0.000000 0.360589 0.750000
O O5 0.771141 0.320740 0.980957
O O6 0.513225 0.273162 0.996984
O O7 0.601339 0.388184 0.048115
O O8 0.613844 0.943759 0.126616
O O9 0.805575 0.923235 0.046574
O O10 0.000000 0.889211 0.250000
O O11 0.660148 0.833245 0.084096
O O12 0.358780 0.525069 0.813679
O O13 0.000000 0.513352 0.750000
O O14 0.000000 0.000000 0.000000
#
# Coordination Sequence:
#
# PCOD9289466 Si02
#       6
#     8   8   8   8   8   8
#     4  11  24  41  67  99 131 172 221 274 330 394
#     4  11  25  45  66  97 135 176 221 272 328 401
#     4  10  24  42  66  99 130 175 220 271 334 389
#     4  10  22  40  64  98 132 170 219 272 331 392
#     4  11  26  44  68  96 132 181 218 268 337 395
#     4  11  22  39  66  94 129 169 213 272 326 383
#
# _framework density 21.436070000000001
#
# number of rings (size 3 to 8) (size 9 to 14) (size 15 to 20)
#    0.000    1.333    1.667    2.500    4.667    8.000 
#    0.000    3.333    0.000    0.000    0.000    0.000 
#    0.000    0.000    0.000    0.000    0.000    0.000 
#
# Total GULP energy -133993.004736 kJ/mol
# GULP energy per Si atom -5583.041864 kJ/mol
# Density = 2.138728 g / cm^3
# Si number density = 21.436070 Si / 1000 Ang^3
#
#
#
# Elastic Constant Matrix: (Units=GPa)
#
#
# Indices 1 2 3 4 5 6 
#
# 1 57.5153 35.3717 -0.5927 0.0000 -0.2945 0.0000
# 2 35.3717 145.9716 20.0761 0.0000 -10.6474 0.0000
# 3 -0.5927 20.0761 61.3258 0.0000 7.3988 0.0000
# 4 0.0000 0.0000 0.0000 -32.9986 0.0000 97.8300
# 5 -0.2945 -10.6474 7.3988 0.0000 36.7105 0.0000
# 6 0.0000 0.0000 0.0000 97.8300 0.0000 -131.4181
#
#
#
# Elastic Compliance Matrix: (Units=1/GPa)
#
#
# Indices 1 2 3 4 5 6 
#
# 1 0.020766 -0.005473 0.002218 0.000000 -0.001868 0.000000
# 2 -0.005473 0.008870 -0.003343 0.000000 0.003203 0.000000
# 3 0.002218 -0.003343 0.017974 0.000000 -0.004574 0.000000
# 4 0.000000 0.000000 0.000000 0.025108 0.000000 0.018691
# 5 -0.001868 0.003203 -0.004574 0.000000 0.029076 0.000000
# 6 0.000000 0.000000 0.000000 0.018691 0.000000 0.006305
#
#
# Mechanical properties :
#
#
# Convention : Reuss Voigt Hill
#
# Bulk Modulus (GPa) = 29.05854 41.61364 35.33609
# Shear Modulus (GPa) = 37.65986 -11.54407 13.05789
#
# Velocity S-wave (km/s) = 4.19602 -2.32315 2.47078
# Velocity P-wave (km/s) = 6.08776 3.50128 4.96587
#
# Compressibility (1/GPa) = 0.03441329
#
# Stress axis : x y z
#
# Youngs Moduli (GPa) = 48.15560 112.73550 55.63553
#
# Poissons Ratio (x) = 0.61703 -0.12339
# Poissons Ratio (y) = 0.26357 0.18600
# Poissons Ratio (z) = -0.10680 0.37689
#
# Static dielectric constant tensor:
#      x y z
#    x 1.857850 0.000000 -0.029710 
#    y 0.000000 1.812770 0.000000 
#    z -0.029710 0.000000 1.776970 
# 
# From -- ./inp_files/192300.got.cif
#   From: 2010.05.17/outbox.cif.g08.bks.cpg/sg15_97_cif.got.tgz:192300.got - 2010.06.03 18:47:42.
