data_PCOD9289187
_publ_section_title
;
Structure prediction by ZEFSAII (Michael W. Deem and Ramdas Pophale) SiO2 
 PCOD9289187
Probable space group: C 2/C
;
_chemical_formula_sum "Si O2"
_cell_formula_units_Z 64
_cell_length_a 9.069805
_cell_length_b 26.743609
_cell_length_c 15.260848
_cell_angle_alpha 90.000000
_cell_angle_beta 48.559298
_cell_angle_gamma 90.000000
_cell_volume 2774.917125
_symmetry_space_group_name_H-M "C 2/C"
_symmetry_group_IT_number 15
_symmetry_cell_setting 'monoclinic'
loop_
_space_group_symop_operation_xyz
x,y,z
-x,y,1/2-z
-x,-y,-z
x,-y,1/2+z
1/2+x,1/2+y,z
1/2-x,1/2+y,1/2-z
1/2-x,1/2-y,-z
1/2+x,1/2-y,1/2+z
loop_
_atom_site_type_symbol
_atom_site_label
_atom_site_fract_x
_atom_site_fract_y
_atom_site_fract_z
Si Si1 0.162001 0.625881 0.252076
Si Si2 0.809294 0.081709 0.765399
Si Si3 0.264611 0.143063 0.868105
Si Si4 0.749821 0.989543 0.995660
Si Si5 0.518234 0.082303 0.010134
Si Si6 0.222293 0.010906 0.320182
Si Si7 0.416143 0.358864 0.871963
Si Si8 0.292942 0.252973 0.879960
O O1 0.209813 0.567826 0.208582
O O2 0.369995 0.653956 0.169899
O O3 0.000000 0.646873 0.250000
O O4 0.060095 0.618493 0.385498
O O5 0.845137 0.108400 0.659296
O O6 0.643605 0.109636 0.886357
O O7 0.718663 0.026847 0.780302
O O8 0.000000 0.077793 0.750000
O O9 0.500000 0.138147 0.750000
O O10 0.193365 0.201060 0.886030
O O11 0.205762 0.127308 0.990989
O O12 0.655763 0.949410 0.966805
O O13 0.707368 0.986825 0.116188
O O14 0.664503 0.042638 0.998066
O O15 0.986040 0.988225 0.902093
O O16 0.500000 0.388086 0.750000
O O17 0.293736 0.313477 0.876857
O O18 0.500000 0.244863 0.750000
O O19 0.250000 0.250000 0.000000
#
# Coordination Sequence:
#
# PCOD9289187 Si02
#       8
#     8   8   8   8   8   8   8   8
#     4  12  27  40  59  91 137 182 234 281 339 397
#     4  12  27  40  59  91 137 182 234 281 339 397
#     4  10  24  42  71 101 132 167 219 281 346 412
#     4  10  22  40  62  80 122 185 245 286 339 381
#     4  11  24  40  58  87 128 176 239 291 326 403
#     4  11  24  39  58  86 128 187 237 288 336 386
#     4  10  24  42  71 101 132 167 219 281 346 412
#     4   8  16  40  68  98 124 154 200 268 340 410
#
# _framework density 23.063753999999999
#
# number of rings (size 3 to 8) (size 9 to 14) (size 15 to 20)
#    0.000    1.500    2.500    1.500   10.500    0.000 
#    0.000    0.000    0.000    6.750    0.000   24.500 
#    0.000    0.000    0.000    0.000    0.000    0.000 
#
# Total GULP energy -178236.819823 kJ/mol
# GULP energy per Si atom -5569.900619 kJ/mol
# Density = 2.301126 g / cm^3
# Si number density = 23.063754 Si / 1000 Ang^3
#
#
#
# Elastic Constant Matrix: (Units=GPa)
#
#
# Indices 1 2 3 4 5 6 
#
# 1 136.9800 34.3366 37.6433 0.0000 -1.8632 0.0000
# 2 34.3366 50.0490 13.2899 0.0000 22.6941 0.0000
# 3 37.6433 13.2899 168.3653 0.0000 17.6528 0.0000
# 4 0.0000 0.0000 0.0000 29.1991 0.0000 9.1449
# 5 -1.8632 22.6941 17.6528 0.0000 34.7611 0.0000
# 6 0.0000 0.0000 0.0000 9.1449 0.0000 12.5252
#
#
#
# Elastic Compliance Matrix: (Units=1/GPa)
#
#
# Indices 1 2 3 4 5 6 
#
# 1 0.010811 -0.010784 -0.002498 0.000000 0.008888 0.000000
# 2 -0.010784 0.039155 0.002177 0.000000 -0.027247 0.000000
# 3 -0.002498 0.002177 0.006854 0.000000 -0.005036 0.000000
# 4 0.000000 0.000000 0.000000 0.044401 0.000000 -0.032418
# 5 0.008888 -0.027247 -0.005036 0.000000 0.049590 0.000000
# 6 0.000000 0.000000 0.000000 -0.032418 0.000000 0.103508
#
#
# Mechanical properties :
#
#
# Convention : Reuss Voigt Hill
#
# Bulk Modulus (GPa) = 28.89245 58.43710 43.66477
# Shear Modulus (GPa) = 17.35720 33.30539 25.33129
#
# Velocity S-wave (km/s) = 2.74629 3.80420 3.31768
# Velocity P-wave (km/s) = 4.75505 6.68492 5.80080
#
# Compressibility (1/GPa) = 0.03461111
#
# Stress axis : x y z
#
# Youngs Moduli (GPa) = 92.49965 25.53927 145.89828
#
# Poissons Ratio (x) = 0.27541 0.36443
# Poissons Ratio (y) = 0.99751 -0.31764
# Poissons Ratio (z) = 0.23105 -0.05560
#
# Static dielectric constant tensor:
#      x y z
#    x 1.895580 0.000000 -0.013020 
#    y 0.000000 1.967720 0.000000 
#    z -0.013020 0.000000 1.960300 
# 
# From -- ./inp_files/139787.got.cif
#   From: 2010.05.17/outbox.cif.g08.bks.cpg/sg15_70_cif.got.tgz:139787.got - 2010.06.03 18:47:42.
