data_PCOD9289399
_publ_section_title
;
Structure prediction by ZEFSAII (Michael W. Deem and Ramdas Pophale) SiO2 
 PCOD9289399
Probable space group: C 2/C
;
_chemical_formula_sum "Si O2"
_cell_formula_units_Z 32
_cell_length_a 5.048947
_cell_length_b 30.112961
_cell_length_c 9.907636
_cell_angle_alpha 90.000000
_cell_angle_beta 110.706271
_cell_angle_gamma 90.000000
_cell_volume 1409.042718
_symmetry_space_group_name_H-M "C 2/C"
_symmetry_group_IT_number 15
_symmetry_cell_setting 'monoclinic'
loop_
_space_group_symop_operation_xyz
x,y,z
-x,y,1/2-z
-x,-y,-z
x,-y,1/2+z
1/2+x,1/2+y,z
1/2-x,1/2+y,1/2-z
1/2-x,1/2-y,-z
1/2+x,1/2-y,1/2+z
loop_
_atom_site_type_symbol
_atom_site_label
_atom_site_fract_x
_atom_site_fract_y
_atom_site_fract_z
Si Si1 0.333997 0.725962 0.843846
Si Si2 0.259656 0.320912 0.599854
Si Si3 0.397647 0.539741 0.577947
Si Si4 0.106499 0.595217 0.922539
O O1 0.500000 0.706071 0.750000
O O2 0.409026 0.777861 0.877264
O O3 0.000000 0.724627 0.750000
O O4 0.398120 0.699631 0.990155
O O5 0.500000 0.333482 0.750000
O O6 0.086506 0.362753 0.516357
O O7 0.500000 0.530866 0.750000
O O8 0.500000 0.500000 0.500000
O O9 0.570728 0.580930 0.545283
O O10 0.074589 0.555310 0.542203
O O11 0.000000 0.604190 0.750000
#
# Coordination Sequence:
#
# PCOD9289399 Si02
#       4
#     8   8   8   8
#     4  10  23  42  63  87 127 177 216 260 318 372
#     4  10  23  40  63  95 127 165 220 268 309 364
#     4  10  22  42  66  92 121 158 202 250 313 381
#     4  10  22  40  64  92 126 164 202 252 315 379
#
# _framework density 22.710455
#
# number of rings (size 3 to 8) (size 9 to 14) (size 15 to 20)
#    0.000    2.000    0.000    1.500    0.000   20.000 
#    0.000    2.500    0.000    0.000    0.000    0.000 
#    0.000    0.000    0.000    0.000    0.000    0.000 
#
# Total GULP energy -89388.102553 kJ/mol
# GULP energy per Si atom -5586.756410 kJ/mol
# Density = 2.265876 g / cm^3
# Si number density = 22.710455 Si / 1000 Ang^3
#
#
#
# Elastic Constant Matrix: (Units=GPa)
#
#
# Indices 1 2 3 4 5 6 
#
# 1 103.0160 15.7078 40.0049 0.0000 -18.1614 0.0000
# 2 15.7078 95.9665 50.1231 0.0000 -0.2665 0.0000
# 3 40.0049 50.1231 116.2490 0.0000 -27.8214 0.0000
# 4 0.0000 0.0000 0.0000 10.1431 0.0000 25.9860
# 5 -18.1614 -0.2665 -27.8214 0.0000 31.2372 0.0000
# 6 0.0000 0.0000 0.0000 25.9860 0.0000 -29.0647
#
#
#
# Elastic Compliance Matrix: (Units=1/GPa)
#
#
# Indices 1 2 3 4 5 6 
#
# 1 0.011607 -0.000432 -0.002788 0.000000 0.004261 0.000000
# 2 -0.000432 0.014560 -0.007828 0.000000 -0.007099 0.000000
# 3 -0.002788 -0.007828 0.015928 0.000000 0.012499 0.000000
# 4 0.000000 0.000000 0.000000 0.029961 0.000000 0.026788
# 5 0.004261 -0.007099 0.012499 0.000000 0.045562 0.000000
# 6 0.000000 0.000000 0.000000 0.026788 0.000000 -0.010456
#
#
# Mechanical properties :
#
#
# Convention : Reuss Voigt Hill
#
# Bulk Modulus (GPa) = 50.00301 58.54480 54.27391
# Shear Modulus (GPa) = 36.78491 16.42283 26.60387
#
# Velocity S-wave (km/s) = 4.02896 2.69204 3.42634
# Velocity P-wave (km/s) = 6.61126 5.95798 6.29310
#
# Compressibility (1/GPa) = 0.01999879
#
# Stress axis : x y z
#
# Youngs Moduli (GPa) = 86.15386 68.68178 62.78114
#
# Poissons Ratio (x) = 0.02964 0.17506
# Poissons Ratio (y) = 0.03718 0.49146
# Poissons Ratio (z) = 0.24024 0.53766
#
# Static dielectric constant tensor:
#      x y z
#    x 1.889210 0.000000 -0.020340 
#    y 0.000000 1.875200 0.000000 
#    z -0.020340 0.000000 1.863530 
# 
# From -- ./inp_files/20128.got.cif
#   From: 2010.05.17/outbox.cif.g08.bks.cpg/sg15_11_cif.got.tgz:20128.got - 2010.06.03 18:47:42.
