data_PCOD9289939
_publ_section_title
;
Structure prediction by ZEFSAII (Michael W. Deem and Ramdas Pophale) SiO2 
 PCOD9289939
Probable space group: C 2/C
;
_chemical_formula_sum "Si O2"
_cell_formula_units_Z 44
_cell_length_a 12.820082
_cell_length_b 23.774992
_cell_length_c 9.126067
_cell_angle_alpha 90.000000
_cell_angle_beta 131.985595
_cell_angle_gamma 90.000000
_cell_volume 2067.600278
_symmetry_space_group_name_H-M "C 2/C"
_symmetry_group_IT_number 15
_symmetry_cell_setting 'monoclinic'
loop_
_space_group_symop_operation_xyz
x,y,z
-x,y,1/2-z
-x,-y,-z
x,-y,1/2+z
1/2+x,1/2+y,z
1/2-x,1/2+y,1/2-z
1/2-x,1/2-y,-z
1/2+x,1/2-y,1/2+z
loop_
_atom_site_type_symbol
_atom_site_label
_atom_site_fract_x
_atom_site_fract_y
_atom_site_fract_z
Si Si1 0.896549 0.554404 0.902622
Si Si2 0.337979 0.797725 0.839713
Si Si3 0.990363 0.197082 0.407371
Si Si4 0.500000 0.590684 0.250000
Si Si5 0.000000 0.362487 0.750000
Si Si6 0.500000 0.132109 0.750000
Si Si7 0.900694 0.013510 0.772461
O O1 0.741537 0.536142 0.799704
O O2 0.908992 0.590442 0.766095
O O3 0.937227 0.597031 0.069183
O O4 0.000000 0.500000 0.000000
O O5 0.170220 0.797826 0.694243
O O6 0.389079 0.825696 0.736940
O O7 0.401481 0.734796 0.902801
O O8 0.406246 0.831592 0.044616
O O9 0.026676 0.131721 0.412249
O O10 0.000000 0.219847 0.250000
O O11 0.623353 0.547137 0.328824
O O12 0.000000 0.046614 0.750000
O O13 0.000000 0.000000 0.000000
#
# Coordination Sequence:
#
# PCOD9289939 Si02
#       7
#     8   8   8   4   4   4   8
#     4  11  25  41  68  95 138 179 226 265 331 395
#     4  11  23  44  69  98 132 164 229 275 339 402
#     4  10  22  40  70  95 125 170 217 279 330 397
#     4   8  23  36  66  94 132 172 215 268 330 388
#     4  10  27  44  68 100 138 178 217 278 338 392
#     4  10  24  38  70  96 130 174 226 274 326 404
#     4  10  25  42  64  96 140 174 224 275 325 391
#
# _framework density 21.280709000000002
#
# number of rings (size 3 to 8) (size 9 to 14) (size 15 to 20)
#    1.091    0.727    0.909    1.091   12.727    0.727 
#    3.273    0.000    2.000    0.000    0.000    0.000 
#    0.000    0.000    0.000    0.000    0.000    0.000 
#
# Total GULP energy -122654.972893 kJ/mol
# GULP energy per Si atom -5575.226041 kJ/mol
# Density = 2.123227 g / cm^3
# Si number density = 21.280709 Si / 1000 Ang^3
#
#
#
# Elastic Constant Matrix: (Units=GPa)
#
#
# Indices 1 2 3 4 5 6 
#
# 1 196.7298 49.2615 43.1874 0.0000 5.9844 0.0000
# 2 49.2615 90.1964 -0.7497 0.0000 5.8448 0.0000
# 3 43.1874 -0.7497 29.9873 0.0000 -4.2623 0.0000
# 4 0.0000 0.0000 0.0000 6.0732 0.0000 -0.9016
# 5 5.9844 5.8448 -4.2623 0.0000 37.6275 0.0000
# 6 0.0000 0.0000 0.0000 -0.9016 0.0000 68.3232
#
#
#
# Elastic Compliance Matrix: (Units=1/GPa)
#
#
# Indices 1 2 3 4 5 6 
#
# 1 0.009592 -0.005206 -0.014275 0.000000 -0.002334 0.000000
# 2 -0.005206 0.014025 0.007781 0.000000 -0.000469 0.000000
# 3 -0.014275 0.007781 0.055140 0.000000 0.007308 0.000000
# 4 0.000000 0.000000 0.000000 0.164981 0.000000 0.002177
# 5 -0.002334 -0.000469 0.007308 0.000000 0.027848 0.000000
# 6 0.000000 0.000000 0.000000 0.002177 0.000000 0.014665
#
#
# Mechanical properties :
#
#
# Convention : Reuss Voigt Hill
#
# Bulk Modulus (GPa) = 18.06458 55.59022 36.82740
# Shear Modulus (GPa) = 15.23908 37.41906 26.32907
#
# Velocity S-wave (km/s) = 2.67890 4.19782 3.52124
# Velocity P-wave (km/s) = 4.25157 7.04803 5.82025
#
# Compressibility (1/GPa) = 0.05535695
#
# Stress axis : x y z
#
# Youngs Moduli (GPa) = 104.25872 71.30000 18.13562
#
# Poissons Ratio (x) = 0.37118 0.25889
# Poissons Ratio (y) = 0.54276 -0.14112
# Poissons Ratio (z) = 1.48834 -0.55482
#
# Static dielectric constant tensor:
#      x y z
#    x 1.885570 0.000000 -0.005540 
#    y 0.000000 1.850740 0.000000 
#    z -0.005540 0.000000 1.825430 
# 
# From -- ./inp_files/35435.got.cif
#   From: 2010.05.17/outbox.cif.g08.bks.cpg/sg15_18_cif.got.tgz:35435.got - 2010.06.03 18:47:42.
