data_PCOD9289105
_publ_section_title
;
Structure prediction by ZEFSAII (Michael W. Deem and Ramdas Pophale) SiO2 
 PCOD9289105
Probable space group: C 2/C
;
_chemical_formula_sum "Si O2"
_cell_formula_units_Z 44
_cell_length_a 24.243100
_cell_length_b 12.313151
_cell_length_c 23.295659
_cell_angle_alpha 90.000000
_cell_angle_beta 160.924844
_cell_angle_gamma 90.000000
_cell_volume 2272.611551
_symmetry_space_group_name_H-M "C 2/C"
_symmetry_group_IT_number 15
_symmetry_cell_setting 'monoclinic'
loop_
_space_group_symop_operation_xyz
x,y,z
-x,y,1/2-z
-x,-y,-z
x,-y,1/2+z
1/2+x,1/2+y,z
1/2-x,1/2+y,1/2-z
1/2-x,1/2-y,-z
1/2+x,1/2-y,1/2+z
loop_
_atom_site_type_symbol
_atom_site_label
_atom_site_fract_x
_atom_site_fract_y
_atom_site_fract_z
Si Si1 0.000000 0.919018 0.250000
Si Si2 0.359753 0.617413 0.719716
Si Si3 0.991262 0.461509 0.894755
Si Si4 0.954955 0.346494 0.438957
Si Si5 0.938669 0.881777 0.423681
Si Si6 0.851206 0.352540 0.651205
O O1 0.071885 0.966191 0.261121
O O2 0.169794 0.862793 0.442666
O O3 0.171966 0.583009 0.551727
O O4 0.465363 0.628125 0.881626
O O5 0.363574 0.736336 0.694733
O O6 0.005242 0.583618 0.932834
O O7 0.872612 0.439961 0.723595
O O8 0.944403 0.392055 0.905972
O O9 0.759851 0.372459 0.258834
O O10 0.977029 0.217809 0.459947
O O11 0.000000 0.000000 0.500000
O O12 0.000000 0.364570 0.750000
#
# Coordination Sequence:
#
# PCOD9289105 Si02
#       6
#     4   8   8   8   8   8
#     4  12  24  32  62  92 134 180 214 272 340 400
#     4  11  22  37  60  91 135 168 219 267 338 398
#     4  10  22  40  60  89 138 175 204 269 332 396
#     4  10  24  41  64  92 133 176 218 264 334 397
#     4  11  26  41  65  98 133 176 222 276 329 400
#     4  12  22  39  59  98 138 176 216 278 338 398
#
# _framework density 19.360986
#
# number of rings (size 3 to 8) (size 9 to 14) (size 15 to 20)
#    0.000    1.091    4.545    1.636   12.727    0.000 
#    0.000    0.000    0.000    0.000    2.364    3.818 
#    0.000    0.000    0.000    0.000    0.000    0.000 
#
# Total GULP energy -122723.031022 kJ/mol
# GULP energy per Si atom -5578.319592 kJ/mol
# Density = 1.931692 g / cm^3
# Si number density = 19.360986 Si / 1000 Ang^3
#
#
#
# Elastic Constant Matrix: (Units=GPa)
#
#
# Indices 1 2 3 4 5 6 
#
# 1 129.6924 48.6916 42.1763 0.0022 -15.1346 0.0000
# 2 48.6916 120.6030 39.5552 0.0143 -21.1666 0.0011
# 3 42.1763 39.5552 100.5189 0.0070 -11.0916 0.0014
# 4 0.0022 0.0143 0.0070 18.0049 0.0008 -1.1086
# 5 -15.1346 -21.1666 -11.0916 0.0008 34.4376 -0.0008
# 6 0.0000 0.0011 0.0014 -1.1086 -0.0008 29.0334
#
#
#
# Elastic Compliance Matrix: (Units=1/GPa)
#
#
# Indices 1 2 3 4 5 6 
#
# 1 0.009876 -0.002741 -0.002874 0.000002 0.001730 0.000000
# 2 -0.002741 0.011119 -0.002700 -0.000008 0.004760 0.000000
# 3 -0.002874 -0.002700 0.012333 -0.000002 0.001049 -0.000001
# 4 0.000002 -0.000008 -0.000002 0.055671 -0.000006 0.002126
# 5 0.001730 0.004760 0.001049 -0.000006 0.033062 0.000000
# 6 0.000000 0.000000 -0.000001 0.002126 0.000000 0.034524
#
#
# Mechanical properties :
#
#
# Convention : Reuss Voigt Hill
#
# Bulk Modulus (GPa) = 59.89095 67.96226 63.92660
# Shear Modulus (GPa) = 27.96686 30.98792 29.47739
#
# Velocity S-wave (km/s) = 3.80478 4.00501 3.90618
# Velocity P-wave (km/s) = 7.09244 7.52102 7.30987
#
# Compressibility (1/GPa) = 0.01669701
#
# Stress axis : x y z
#
# Youngs Moduli (GPa) = 101.25259 89.93329 81.08458
#
# Poissons Ratio (x) = 0.24651 0.23307
# Poissons Ratio (y) = 0.27754 0.21895
# Poissons Ratio (z) = 0.29104 0.24284
#
# Static dielectric constant tensor:
#      x y z
#    x 1.751400 0.000000 0.004080 
#    y 0.000000 1.679260 0.000000 
#    z 0.004080 0.000000 1.719060 
# 
# From -- ./inp_files/281985.got.cif
#   From: 2010.05.17/outbox.cif.g08.bks.cpg/sg15_141_cif.got.tgz:281985.got - 2010.06.03 18:47:42.
