data_PCOD9289724
_publ_section_title
;
Structure prediction by ZEFSAII (Michael W. Deem and Ramdas Pophale) SiO2 
 PCOD9289724
Probable space group: C 2/C
;
_chemical_formula_sum "Si O2"
_cell_formula_units_Z 36
_cell_length_a 15.420259
_cell_length_b 20.323491
_cell_length_c 8.051009
_cell_angle_alpha 90.000000
_cell_angle_beta 42.115656
_cell_angle_gamma 90.000000
_cell_volume 1692.087582
_symmetry_space_group_name_H-M "C 2/C"
_symmetry_group_IT_number 15
_symmetry_cell_setting 'monoclinic'
loop_
_space_group_symop_operation_xyz
x,y,z
-x,y,1/2-z
-x,-y,-z
x,-y,1/2+z
1/2+x,1/2+y,z
1/2-x,1/2+y,1/2-z
1/2-x,1/2-y,-z
1/2+x,1/2-y,1/2+z
loop_
_atom_site_type_symbol
_atom_site_label
_atom_site_fract_x
_atom_site_fract_y
_atom_site_fract_z
Si Si1 0.639570 0.914059 0.967174
Si Si2 0.093398 0.131673 0.953582
Si Si3 0.240542 0.017898 0.894649
Si Si4 0.500000 0.579672 0.750000
Si Si5 0.346772 0.233273 0.016173
O O1 0.500000 0.911249 0.250000
O O2 0.681280 0.839048 0.870388
O O3 0.733858 0.944047 0.972319
O O4 0.644549 0.968189 0.816067
O O5 0.159535 0.202983 0.858702
O O6 0.000000 0.126558 0.250000
O O7 0.013711 0.120507 0.899353
O O8 0.201296 0.075027 0.821126
O O9 0.120826 0.968839 0.071726
O O10 0.500000 0.231012 0.750000
O O11 0.250000 0.250000 0.000000
#
# Coordination Sequence:
#
# PCOD9289724 Si02
#       5
#     8   8   8   4   8
#     4  11  24  41  64  94 131 182 222 262 337 407
#     4  11  22  40  68  99 133 170 220 280 340 384
#     4  12  21  39  66  96 137 165 221 281 332 395
#     4  12  24  38  66 114 128 164 222 292 336 384
#     4  10  22  40  67  94 129 180 227 268 330 403
#
# _framework density 21.275494999999999
#
# number of rings (size 3 to 8) (size 9 to 14) (size 15 to 20)
#    0.000    0.889    5.556    2.667    3.111    0.000 
#    0.000    1.111   17.111    0.000    0.000    0.000 
#    0.000    0.000    0.000    0.000    0.000    0.000 
#
# Total GULP energy -100494.602668 kJ/mol
# GULP energy per Si atom -5583.033482 kJ/mol
# Density = 2.122707 g / cm^3
# Si number density = 21.275495 Si / 1000 Ang^3
#
#
#
# Elastic Constant Matrix: (Units=GPa)
#
#
# Indices 1 2 3 4 5 6 
#
# 1 114.3349 50.7513 11.6312 0.0000 9.9080 0.0000
# 2 50.7513 209.1642 36.7429 0.0000 10.7151 0.0000
# 3 11.6312 36.7429 45.8170 0.0000 -4.3909 0.0000
# 4 0.0000 0.0000 0.0000 19.8604 0.0000 -8.7648
# 5 9.9080 10.7151 -4.3909 0.0000 34.1042 0.0000
# 6 0.0000 0.0000 0.0000 -8.7648 0.0000 7.5646
#
#
#
# Elastic Compliance Matrix: (Units=1/GPa)
#
#
# Indices 1 2 3 4 5 6 
#
# 1 0.010001 -0.002117 -0.001069 0.000000 -0.002378 0.000000
# 2 -0.002117 0.006206 -0.004624 0.000000 -0.001930 0.000000
# 3 -0.001069 -0.004624 0.026299 0.000000 0.005150 0.000000
# 4 0.000000 0.000000 0.000000 0.103042 0.000000 0.119392
# 5 -0.002378 -0.001930 0.005150 0.000000 0.031282 0.000000
# 6 0.000000 0.000000 0.000000 0.119392 0.000000 0.270531
#
#
# Mechanical properties :
#
#
# Convention : Reuss Voigt Hill
#
# Bulk Modulus (GPa) = 37.19506 63.06301 50.12904
# Shear Modulus (GPa) = 10.59450 30.31853 20.45651
#
# Velocity S-wave (km/s) = 2.23394 3.77907 3.10418
# Velocity P-wave (km/s) = 4.91676 6.98193 6.03829
#
# Compressibility (1/GPa) = 0.02688529
#
# Stress axis : x y z
#
# Youngs Moduli (GPa) = 99.99263 161.13967 38.02383
#
# Poissons Ratio (x) = 0.34113 0.04065
# Poissons Ratio (y) = 0.21168 0.17583
# Poissons Ratio (z) = 0.10689 0.74516
#
# Static dielectric constant tensor:
#      x y z
#    x 1.808200 0.000000 -0.026290 
#    y 0.000000 1.793830 0.000000 
#    z -0.026290 0.000000 1.863850 
# 
# From -- ./inp_files/28980.got.cif
#   From: 2010.05.17/outbox.cif.g08.bks.cpg/sg15_15_cif.got.tgz:28980.got - 2010.06.03 18:47:42.
