data_PCOD9289998
_publ_section_title
;
Structure prediction by ZEFSAII (Michael W. Deem and Ramdas Pophale) SiO2 
 PCOD9289998
Probable space group: C 2/C
;
_chemical_formula_sum "Si O2"
_cell_formula_units_Z 52
_cell_length_a 30.472131
_cell_length_b 13.292615
_cell_length_c 18.505143
_cell_angle_alpha 90.000000
_cell_angle_beta 159.005570
_cell_angle_gamma 90.000000
_cell_volume 2685.498151
_symmetry_space_group_name_H-M "C 2/C"
_symmetry_group_IT_number 15
_symmetry_cell_setting 'monoclinic'
loop_
_space_group_symop_operation_xyz
x,y,z
-x,y,1/2-z
-x,-y,-z
x,-y,1/2+z
1/2+x,1/2+y,z
1/2-x,1/2+y,1/2-z
1/2-x,1/2-y,-z
1/2+x,1/2-y,1/2+z
loop_
_atom_site_type_symbol
_atom_site_label
_atom_site_fract_x
_atom_site_fract_y
_atom_site_fract_z
Si Si1 0.377409 0.784453 0.015930
Si Si2 0.134935 0.867678 0.434807
Si Si3 0.000000 0.500000 0.000000
Si Si4 0.311751 0.529945 0.268014
Si Si5 0.117603 0.286055 0.643931
Si Si6 0.760275 0.931175 0.337239
Si Si7 0.412129 0.600562 0.800149
O O1 0.500000 0.803220 0.250000
O O2 0.279036 0.874784 0.872871
O O3 0.415559 0.777370 0.990685
O O4 0.315614 0.677713 0.939668
O O5 0.235597 0.794950 0.623927
O O6 0.145537 0.869456 0.364657
O O7 0.000000 0.835855 0.250000
O O8 0.160357 0.979887 0.503755
O O9 0.932376 0.391111 0.904166
O O10 0.876374 0.555558 0.843868
O O11 0.265155 0.454366 0.258715
O O12 0.451400 0.558608 0.503808
O O13 0.328371 0.478424 0.215388
O O14 0.073182 0.194393 0.623791
#
# Coordination Sequence:
#
# PCOD9289998 Si02
#       7
#     8   8   4   8   8   8   8
#     4  12  25  42  70 104 140 184 230 281 361 420
#     4  11  21  40  67  97 130 176 230 275 340 413
#     4  10  22  40  72  90 138 180 228 278 358 394
#     4  11  23  44  68  93 139 173 226 285 338 411
#     4  11  23  42  64  98 136 182 223 289 343 411
#     4  11  22  43  69  91 137 182 219 286 345 409
#     4  11  23  41  71  98 130 178 235 280 345 414
#
# _framework density 19.36326
#
# number of rings (size 3 to 8) (size 9 to 14) (size 15 to 20)
#    0.000    0.923    6.154    1.846    0.000    2.462 
#    0.000    3.077    0.000    0.000    0.000    0.000 
#    0.000    0.000    0.000    0.000    0.000    0.000 
#
# Total GULP energy -144748.519643 kJ/mol
# GULP energy per Si atom -5567.250755 kJ/mol
# Density = 1.931919 g / cm^3
# Si number density = 19.363260 Si / 1000 Ang^3
#
#
#
# Elastic Constant Matrix: (Units=GPa)
#
#
# Indices 1 2 3 4 5 6 
#
# 1 84.3279 9.7127 45.9241 0.0000 -10.4945 0.0000
# 2 9.7127 57.2657 -6.0920 0.0000 6.5658 0.0000
# 3 45.9241 -6.0920 80.0652 0.0000 6.3574 0.0000
# 4 0.0000 0.0000 0.0000 16.1108 0.0000 1.6535
# 5 -10.4945 6.5658 6.3574 0.0000 46.0420 0.0000
# 6 0.0000 0.0000 0.0000 1.6535 0.0000 0.4724
#
#
#
# Elastic Compliance Matrix: (Units=1/GPa)
#
#
# Indices 1 2 3 4 5 6 
#
# 1 0.020267 -0.005601 -0.012620 0.000000 0.007161 0.000000
# 2 -0.005601 0.019498 0.005074 0.000000 -0.004758 0.000000
# 3 -0.012620 0.005074 0.020626 0.000000 -0.006448 0.000000
# 4 0.000000 0.000000 0.000000 0.096874 0.000000 -0.339104
# 5 0.007161 -0.004758 -0.006448 0.000000 0.024920 0.000000
# 6 0.000000 0.000000 0.000000 -0.339104 0.000000 3.304031
#
#
# Mechanical properties :
#
#
# Convention : Reuss Voigt Hill
#
# Bulk Modulus (GPa) = 29.32745 35.63872 32.48309
# Shear Modulus (GPa) = 1.41889 23.99930 12.70909
#
# Velocity S-wave (km/s) = 0.85695 3.52437 2.56471
# Velocity P-wave (km/s) = 4.01970 5.91666 5.05790
#
# Compressibility (1/GPa) = 0.03409774
#
# Stress axis : x y z
#
# Youngs Moduli (GPa) = 49.34047 51.28816 48.48159
#
# Poissons Ratio (x) = 0.28727 0.61183
# Poissons Ratio (y) = 0.27636 -0.24599
# Poissons Ratio (z) = 0.62267 -0.26023
#
# Static dielectric constant tensor:
#      x y z
#    x 1.681120 0.000000 -0.007510 
#    y 0.000000 1.671240 0.000000 
#    z -0.007510 0.000000 1.658120 
# 
# From -- ./inp_files/225513.got.cif
#   From: 2010.05.17/outbox.cif.g08.bks.cpg/sg15_113_cif.got.tgz:225513.got - 2010.06.03 18:47:42.
