data_PCOD9289362
_publ_section_title
;
Structure prediction by ZEFSAII (Michael W. Deem and Ramdas Pophale) SiO2 
 PCOD9289362
Probable space group: C 2/C
;
_chemical_formula_sum "Si O2"
_cell_formula_units_Z 52
_cell_length_a 17.974255
_cell_length_b 19.839854
_cell_length_c 6.582786
_cell_angle_alpha 90.000000
_cell_angle_beta 63.887649
_cell_angle_gamma 90.000000
_cell_volume 2107.865541
_symmetry_space_group_name_H-M "C 2/C"
_symmetry_group_IT_number 15
_symmetry_cell_setting 'monoclinic'
loop_
_space_group_symop_operation_xyz
x,y,z
-x,y,1/2-z
-x,-y,-z
x,-y,1/2+z
1/2+x,1/2+y,z
1/2-x,1/2+y,1/2-z
1/2-x,1/2-y,-z
1/2+x,1/2-y,1/2+z
loop_
_atom_site_type_symbol
_atom_site_label
_atom_site_fract_x
_atom_site_fract_y
_atom_site_fract_z
Si Si1 0.875919 0.344535 0.900152
Si Si2 0.265069 0.925283 0.717684
Si Si3 0.583073 0.423021 0.025522
Si Si4 0.500000 0.372531 0.750000
Si Si5 0.742790 0.181476 0.627424
Si Si6 0.566684 0.010426 0.050544
Si Si7 0.102025 0.201684 0.785947
O O1 0.806073 0.374020 0.831143
O O2 0.913554 0.279576 0.744136
O O3 0.843417 0.318668 0.154052
O O4 0.923937 0.410533 0.910285
O O5 0.247479 0.881647 0.534976
O O6 0.340218 0.976951 0.580230
O O7 0.177039 0.953073 0.912807
O O8 0.500000 0.447281 0.250000
O O9 0.593904 0.347344 0.102792
O O10 0.558662 0.417741 0.819692
O O11 0.545503 0.326078 0.533716
O O12 0.750000 0.250000 0.500000
O O13 0.808100 0.187668 0.730132
O O14 0.543027 0.011874 0.826231
#
# Coordination Sequence:
#
# PCOD9289362 Si02
#       7
#     8   8   8   4   8   8   8
#     4  12  26  44  73 102 146 202 252 313 376 448
#     4  12  24  46  75 100 147 205 245 315 383 438
#     4  10  22  42  72 109 151 185 236 306 387 460
#     4  10  22  40  64 108 156 186 232 306 382 470
#     4  12  23  40  69 109 146 191 255 301 381 465
#     4  12  27  52  71 104 149 203 268 315 357 439
#     4  11  22  41  66 110 152 189 242 307 382 460
#
# _framework density 24.669505000000001
#
# number of rings (size 3 to 8) (size 9 to 14) (size 15 to 20)
#    0.000    0.615    6.154    2.308    0.000    1.846 
#    1.385    0.000    0.000    0.923    2.000    0.000 
#    0.000    0.000    0.000    0.000    0.000    0.000 
#
# Total GULP energy -145173.076501 kJ/mol
# GULP energy per Si atom -5583.579865 kJ/mol
# Density = 2.461336 g / cm^3
# Si number density = 24.669505 Si / 1000 Ang^3
#
#
#
# Elastic Constant Matrix: (Units=GPa)
#
#
# Indices 1 2 3 4 5 6 
#
# 1 166.2102 70.1256 73.0002 0.0000 -1.6423 0.0000
# 2 70.1256 135.7085 47.8040 0.0000 1.9678 0.0000
# 3 73.0002 47.8040 137.5291 0.0000 -8.8330 0.0000
# 4 0.0000 0.0000 0.0000 -72.0713 0.0000 2.9453
# 5 -1.6423 1.9678 -8.8330 0.0000 65.7658 0.0000
# 6 0.0000 0.0000 0.0000 2.9453 0.0000 13.0425
#
#
#
# Elastic Compliance Matrix: (Units=1/GPa)
#
#
# Indices 1 2 3 4 5 6 
#
# 1 0.009040 -0.003390 -0.003630 0.000000 -0.000160 0.000000
# 2 -0.003390 0.009696 -0.001609 0.000000 -0.000591 0.000000
# 3 -0.003630 -0.001609 0.009839 0.000000 0.001279 0.000000
# 4 0.000000 0.000000 0.000000 -0.013748 0.000000 0.003105
# 5 -0.000160 -0.000591 0.001279 0.000000 0.015391 0.000000
# 6 0.000000 0.000000 0.000000 0.003105 0.000000 0.075971
#
#
# Mechanical properties :
#
#
# Convention : Reuss Voigt Hill
#
# Bulk Modulus (GPa) = 88.36292 91.25638 89.80965
# Shear Modulus (GPa) = 39.30247 17.91528 28.60888
#
# Velocity S-wave (km/s) = 3.99577 2.69775 3.40911
# Velocity P-wave (km/s) = 7.56206 6.83928 7.20973
#
# Compressibility (1/GPa) = 0.01131696
#
# Stress axis : x y z
#
# Youngs Moduli (GPa) = 110.62516 103.13838 101.63245
#
# Poissons Ratio (x) = 0.34964 0.36894
# Poissons Ratio (y) = 0.37502 0.16350
# Poissons Ratio (z) = 0.40158 0.16592
#
# Static dielectric constant tensor:
#      x y z
#    x 1.991610 0.000000 -0.081710 
#    y 0.000000 1.900700 0.000000 
#    z -0.081710 0.000000 2.016610 
# 
# From -- ./inp_files/13411.got.cif
#   From: 2010.05.17/outbox.cif.g08.bks.cpg/sg15_7_cif.got.tgz:13411.got - 2010.06.03 18:47:42.
