data_PCOD9289273
_publ_section_title
;
Structure prediction by ZEFSAII (Michael W. Deem and Ramdas Pophale) SiO2 
 PCOD9289273
Probable space group: C 2/C
;
_chemical_formula_sum "Si O2"
_cell_formula_units_Z 60
_cell_length_a 23.778467
_cell_length_b 15.010709
_cell_length_c 17.393993
_cell_angle_alpha 90.000000
_cell_angle_beta 154.847077
_cell_angle_gamma 90.000000
_cell_volume 2638.819934
_symmetry_space_group_name_H-M "C 2/C"
_symmetry_group_IT_number 15
_symmetry_cell_setting 'monoclinic'
loop_
_space_group_symop_operation_xyz
x,y,z
-x,y,1/2-z
-x,-y,-z
x,-y,1/2+z
1/2+x,1/2+y,z
1/2-x,1/2+y,1/2-z
1/2-x,1/2-y,-z
1/2+x,1/2-y,1/2+z
loop_
_atom_site_type_symbol
_atom_site_label
_atom_site_fract_x
_atom_site_fract_y
_atom_site_fract_z
Si Si1 0.286994 0.932380 0.352738
Si Si2 0.258024 0.948986 0.491112
Si Si3 0.900518 0.789081 0.196497
Si Si4 0.873733 0.371940 0.184330
Si Si5 0.434279 0.135508 0.343770
Si Si6 0.202296 0.820816 0.115123
Si Si7 0.163970 0.620921 0.105262
Si Si8 0.500000 0.719154 0.250000
O O1 0.306016 0.916631 0.466591
O O2 0.428160 0.916020 0.487703
O O3 0.197343 0.867150 0.191704
O O4 0.245788 0.034742 0.292976
O O5 0.119211 0.895859 0.324164
O O6 0.343314 0.912803 0.668079
O O7 0.283552 0.054432 0.530469
O O8 0.953197 0.736459 0.336202
O O9 0.000000 0.767766 0.250000
O O10 0.750000 0.750000 0.000000
O O11 0.813340 0.355142 0.193635
O O12 0.891283 0.283179 0.155368
O O13 0.027434 0.398720 0.389211
O O14 0.371186 0.131728 0.348879
O O15 0.218929 0.715227 0.146488
O O16 0.067568 0.835151 0.901094
#
# Coordination Sequence:
#
# PCOD9289273 Si02
#       8
#     8   8   8   8   8   8   8   4
#     4  12  22  39  68 105 135 180 229 295 357 422
#     4  11  22  37  65  97 139 179 227 285 348 424
#     4  10  22  40  62  99 141 189 234 284 349 425
#     4  11  21  43  68  99 127 179 235 295 348 415
#     4  11  20  37  64  98 139 179 232 283 349 421
#     4  11  24  42  68  97 135 172 227 295 355 413
#     4  11  23  40  67 105 132 176 240 300 344 421
#     4  10  24  42  70  94 126 174 242 292 350 416
#
# _framework density 22.737435000000001
#
# number of rings (size 3 to 8) (size 9 to 14) (size 15 to 20)
#    0.000    1.067    2.667    6.000    0.000    1.067 
#    1.200    0.000    0.000    4.000    0.000    0.000 
#    0.000    0.000    0.000    0.000    0.000    0.000 
#
# Total GULP energy -167520.405614 kJ/mol
# GULP energy per Si atom -5584.013520 kJ/mol
# Density = 2.268568 g / cm^3
# Si number density = 22.737435 Si / 1000 Ang^3
#
#
#
# Elastic Constant Matrix: (Units=GPa)
#
#
# Indices 1 2 3 4 5 6 
#
# 1 94.7566 -9.8083 -0.1202 0.0000 -7.3282 0.0000
# 2 -9.8083 69.3792 16.3738 0.0000 6.5946 0.0000
# 3 -0.1202 16.3738 28.2035 0.0000 -11.3637 0.0000
# 4 0.0000 0.0000 0.0000 25.5018 0.0000 4.5755
# 5 -7.3282 6.5946 -11.3637 0.0000 33.5246 0.0000
# 6 0.0000 0.0000 0.0000 4.5755 0.0000 23.5260
#
#
#
# Elastic Compliance Matrix: (Units=1/GPa)
#
#
# Indices 1 2 3 4 5 6 
#
# 1 0.010855 0.001285 0.000179 0.000000 0.002181 0.000000
# 2 0.001285 0.018718 -0.014167 0.000000 -0.008203 0.000000
# 3 0.000179 -0.014167 0.051910 0.000000 0.020422 0.000000
# 4 0.000000 0.000000 0.000000 0.040631 0.000000 -0.007902
# 5 0.002181 -0.008203 0.020422 0.000000 0.038841 0.000000
# 6 0.000000 0.000000 0.000000 -0.007902 0.000000 0.044043
#
#
# Mechanical properties :
#
#
# Convention : Reuss Voigt Hill
#
# Bulk Modulus (GPa) = 17.83231 22.80333 20.31782
# Shear Modulus (GPa) = 20.07246 28.90340 24.48793
#
# Velocity S-wave (km/s) = 2.97441 3.56923 3.28531
# Velocity P-wave (km/s) = 4.43349 5.19968 4.83180
#
# Compressibility (1/GPa) = 0.05607799
#
# Stress axis : x y z
#
# Youngs Moduli (GPa) = 92.12125 53.42341 19.26405
#
# Poissons Ratio (x) = -0.06866 -0.00344
# Poissons Ratio (y) = -0.11839 0.27291
# Poissons Ratio (z) = -0.01647 0.75684
#
# Static dielectric constant tensor:
#      x y z
#    x 1.831300 0.000000 -0.008830 
#    y 0.000000 1.969500 0.000000 
#    z -0.008830 0.000000 1.912990 
# 
# From -- ./inp_files/219607.got.cif
#   From: 2010.05.17/outbox.cif.g08.bks.cpg/sg15_110_cif.got.tgz:219607.got - 2010.06.03 18:47:42.
