data_PCOD9289147
_publ_section_title
;
Structure prediction by ZEFSAII (Michael W. Deem and Ramdas Pophale) SiO2 
 PCOD9289147
Probable space group: C 2/C
;
_chemical_formula_sum "Si O2"
_cell_formula_units_Z 36
_cell_length_a 8.764130
_cell_length_b 11.875852
_cell_length_c 18.061661
_cell_angle_alpha 90.000000
_cell_angle_beta 52.258468
_cell_angle_gamma 90.000000
_cell_volume 1486.575521
_symmetry_space_group_name_H-M "C 2/C"
_symmetry_group_IT_number 15
_symmetry_cell_setting 'monoclinic'
loop_
_space_group_symop_operation_xyz
x,y,z
-x,y,1/2-z
-x,-y,-z
x,-y,1/2+z
1/2+x,1/2+y,z
1/2-x,1/2+y,1/2-z
1/2-x,1/2-y,-z
1/2+x,1/2-y,1/2+z
loop_
_atom_site_type_symbol
_atom_site_label
_atom_site_fract_x
_atom_site_fract_y
_atom_site_fract_z
Si Si1 0.211880 0.845103 0.399475
Si Si2 0.553449 0.795711 0.624503
Si Si3 0.723829 0.611821 0.055119
Si Si4 0.000000 0.474503 0.750000
Si Si5 0.321146 0.882044 0.069046
O O1 0.319721 0.728046 0.390256
O O2 0.125330 0.886525 0.503992
O O3 0.068477 0.800329 0.379802
O O4 0.336907 0.944454 0.329529
O O5 0.439132 0.889815 0.702843
O O6 0.656091 0.860667 0.526294
O O7 0.704924 0.727017 0.629960
O O8 0.708932 0.499649 0.108323
O O9 0.958323 0.613337 0.968852
#
# Coordination Sequence:
#
# PCOD9289147 Si02
#       5
#     8   8   8   4   8
#     4  10  22  40  63  90 121 167 209 250 323 362
#     4  10  22  40  61  90 122 169 205 252 323 368
#     4   9  18  39  67  95 119 156 215 267 300 373
#     4  12  24  44  56  92 140 166 198 276 308 386
#     4   9  18  39  68  91 122 156 211 265 304 369
#
# _framework density 24.216729999999998
#
# number of rings (size 3 to 8) (size 9 to 14) (size 15 to 20)
#    0.000    2.222    2.222    0.000    0.000    2.667 
#   12.000    0.000    0.000    0.000    0.000    0.000 
#    0.000    0.000    0.000    0.000    0.000    0.000 
#
# Total GULP energy -100480.309278 kJ/mol
# GULP energy per Si atom -5582.239404 kJ/mol
# Density = 2.416161 g / cm^3
# Si number density = 24.216730 Si / 1000 Ang^3
#
#
#
# Elastic Constant Matrix: (Units=GPa)
#
#
# Indices 1 2 3 4 5 6 
#
# 1 74.5211 40.2755 13.7898 0.0000 7.9066 0.0000
# 2 40.2755 145.4425 37.0774 0.0000 0.2595 0.0000
# 3 13.7898 37.0774 50.1159 0.0000 7.1166 0.0000
# 4 0.0000 0.0000 0.0000 58.8994 0.0000 -0.9829
# 5 7.9066 0.2595 7.1166 0.0000 5.9956 0.0000
# 6 0.0000 0.0000 0.0000 -0.9829 0.0000 37.6525
#
#
#
# Elastic Compliance Matrix: (Units=1/GPa)
#
#
# Indices 1 2 3 4 5 6 
#
# 1 0.019183 -0.006120 0.003373 0.000000 -0.029036 0.000000
# 2 -0.006120 0.010803 -0.008886 0.000000 0.018151 0.000000
# 3 0.003373 -0.008886 0.031484 0.000000 -0.041434 0.000000
# 4 0.000000 0.000000 0.000000 0.016986 0.000000 0.000443
# 5 -0.029036 0.018151 -0.041434 0.000000 0.253475 0.000000
# 6 0.000000 0.000000 0.000000 0.000443 0.000000 0.026570
#
#
# Mechanical properties :
#
#
# Convention : Reuss Voigt Hill
#
# Bulk Modulus (GPa) = 26.17584 50.26274 38.21929
# Shear Modulus (GPa) = 12.67418 32.43862 22.55640
#
# Velocity S-wave (km/s) = 2.29020 3.66391 3.05526
# Velocity P-wave (km/s) = 4.22206 6.22088 5.31626
#
# Compressibility (1/GPa) = 0.03820316
#
# Stress axis : x y z
#
# Youngs Moduli (GPa) = 52.12851 92.56431 31.76250
#
# Poissons Ratio (x) = 0.56651 -0.10713
# Poissons Ratio (y) = 0.31904 0.28225
# Poissons Ratio (z) = -0.17582 0.82254
#
# Static dielectric constant tensor:
#      x y z
#    x 2.009860 0.000000 -0.007050 
#    y 0.000000 1.960400 0.000000 
#    z -0.007050 0.000000 1.956130 
# 
# From -- ./inp_files/141344.got.cif
#   From: 2010.05.17/outbox.cif.g08.bks.cpg/sg15_71_cif.got.tgz:141344.got - 2010.06.03 18:47:42.
