data_PCOD9289450
_publ_section_title
;
Structure prediction by ZEFSAII (Michael W. Deem and Ramdas Pophale) SiO2 
 PCOD9289450
Probable space group: C 2/C
;
_chemical_formula_sum "Si O2"
_cell_formula_units_Z 32
_cell_length_a 16.635504
_cell_length_b 7.942329
_cell_length_c 9.537346
_cell_angle_alpha 90.000000
_cell_angle_beta 62.888279
_cell_angle_gamma 90.000000
_cell_volume 1121.656136
_symmetry_space_group_name_H-M "C 2/C"
_symmetry_group_IT_number 15
_symmetry_cell_setting 'monoclinic'
loop_
_space_group_symop_operation_xyz
x,y,z
-x,y,1/2-z
-x,-y,-z
x,-y,1/2+z
1/2+x,1/2+y,z
1/2-x,1/2+y,1/2-z
1/2-x,1/2-y,-z
1/2+x,1/2-y,1/2+z
loop_
_atom_site_type_symbol
_atom_site_label
_atom_site_fract_x
_atom_site_fract_y
_atom_site_fract_z
Si Si1 0.889206 0.529091 0.990870
Si Si2 0.281457 0.905657 0.850869
Si Si3 0.000000 0.250310 0.750000
Si Si4 0.140304 0.963183 0.255166
Si Si5 0.000000 0.214331 0.250000
O O1 0.800413 0.537922 0.961902
O O2 0.928477 0.360131 0.891370
O O3 0.967556 0.661435 0.898582
O O4 0.854787 0.539096 0.174422
O O5 0.295910 0.699529 0.845078
O O6 0.186842 0.955019 0.852969
O O7 0.953385 0.139351 0.667612
O O8 0.093757 0.115102 0.204817
#
# Coordination Sequence:
#
# PCOD9289450 Si02
#       5
#     8   8   4   8   4
#     4  10  23  44  68  94 128 169 213 264 321 379
#     4  11  24  43  67  96 130 169 213 263 320 381
#     4   8  20  40  64  94 128 166 210 262 320 378
#     4  10  22  40  64  96 131 168 212 263 318 378
#     4  10  22  42  66  96 130 168 214 266 318 376
#
# _framework density 28.529242
#
# number of rings (size 3 to 8) (size 9 to 14) (size 15 to 20)
#    0.000    2.000    0.000    1.500    0.000   18.000 
#    0.000   12.500    0.000    0.000    0.000    0.000 
#    0.000    0.000    0.000    0.000    0.000    0.000 
#
# Total GULP energy -89236.440356 kJ/mol
# GULP energy per Si atom -5577.277522 kJ/mol
# Density = 2.846431 g / cm^3
# Si number density = 28.529242 Si / 1000 Ang^3
#
#
#
# Elastic Constant Matrix: (Units=GPa)
#
#
# Indices 1 2 3 4 5 6 
#
# 1 162.7306 42.8704 -23.5552 0.0000 -5.3297 0.0000
# 2 42.8704 134.4333 19.4653 0.0000 -8.4800 0.0000
# 3 -23.5552 19.4653 79.8353 0.0000 -0.6240 0.0000
# 4 0.0000 0.0000 0.0000 6.0039 0.0000 -34.9382
# 5 -5.3297 -8.4800 -0.6240 0.0000 35.3680 0.0000
# 6 0.0000 0.0000 0.0000 -34.9382 0.0000 26.3278
#
#
#
# Elastic Compliance Matrix: (Units=1/GPa)
#
#
# Indices 1 2 3 4 5 6 
#
# 1 0.007278 -0.002696 0.002809 0.000000 0.000500 0.000000
# 2 -0.002696 0.008828 -0.002935 0.000000 0.001659 0.000000
# 3 0.002809 -0.002935 0.014070 0.000000 -0.000032 0.000000
# 4 0.000000 0.000000 0.000000 -0.024777 0.000000 -0.032880
# 5 0.000500 0.001659 -0.000032 0.000000 0.028747 0.000000
# 6 0.000000 0.000000 0.000000 -0.032880 0.000000 -0.005650
#
#
# Mechanical properties :
#
#
# Convention : Reuss Voigt Hill
#
# Bulk Modulus (GPa) = 40.76411 50.50669 45.63540
# Shear Modulus (GPa) = 118.15294 36.08785 77.12040
#
# Velocity S-wave (km/s) = 6.44241 3.56046 5.20488
# Velocity P-wave (km/s) = 8.34620 5.88595 7.22161
#
# Compressibility (1/GPa) = 0.02453138
#
# Stress axis : x y z
#
# Youngs Moduli (GPa) = 137.39353 113.27546 71.07392
#
# Poissons Ratio (x) = 0.30541 -0.19963
# Poissons Ratio (y) = 0.37044 0.20860
# Poissons Ratio (z) = -0.38590 0.33246
#
# Static dielectric constant tensor:
#      x y z
#    x 2.378130 0.000000 0.088800 
#    y 0.000000 2.290300 0.000000 
#    z 0.088800 0.000000 2.457850 
# 
# From -- ./inp_files/102183.got.cif
#   From: 2010.05.17/outbox.cif.g08.bks.cpg/sg15_52_cif.got.tgz:102183.got - 2010.06.03 18:47:42.
