data_PCOD9289654
_publ_section_title
;
Structure prediction by ZEFSAII (Michael W. Deem and Ramdas Pophale) SiO2 
 PCOD9289654
Probable space group: C 2/C
;
_chemical_formula_sum "Si O2"
_cell_formula_units_Z 28
_cell_length_a 5.658403
_cell_length_b 9.145872
_cell_length_c 23.494239
_cell_angle_alpha 90.000000
_cell_angle_beta 61.845900
_cell_angle_gamma 90.000000
_cell_volume 1071.993666
_symmetry_space_group_name_H-M "C 2/C"
_symmetry_group_IT_number 15
_symmetry_cell_setting 'monoclinic'
loop_
_space_group_symop_operation_xyz
x,y,z
-x,y,1/2-z
-x,-y,-z
x,-y,1/2+z
1/2+x,1/2+y,z
1/2-x,1/2+y,1/2-z
1/2-x,1/2-y,-z
1/2+x,1/2-y,1/2+z
loop_
_atom_site_type_symbol
_atom_site_label
_atom_site_fract_x
_atom_site_fract_y
_atom_site_fract_z
Si Si1 0.649397 0.294050 0.423575
Si Si2 0.398092 0.870759 0.050819
Si Si3 0.723033 0.138825 0.305365
Si Si4 0.500000 0.925358 0.250000
O O1 0.495547 0.268651 0.501264
O O2 0.421167 0.376181 0.413460
O O3 0.706195 0.157246 0.375110
O O4 0.935493 0.356113 0.410261
O O5 0.500000 0.000000 0.000000
O O6 0.498943 0.038433 0.302571
O O7 0.000000 0.072366 0.250000
O O8 0.758300 0.306493 0.278702
#
# Coordination Sequence:
#
# PCOD9289654 Si02
#       4
#     8   8   8   4
#     4  10  23  41  64 100 132 185 229 297 349 437
#     4  10  22  40  66  96 137 176 238 282 363 416
#     4  10  26  44  70 102 141 188 240 297 367 427
#     4  10  26  44  70 102 142 186 246 292 370 430
#
# _framework density 26.119554999999998
#
# number of rings (size 3 to 8) (size 9 to 14) (size 15 to 20)
#    0.857    1.143    0.000    0.857   10.000    2.286 
#    0.000    0.000    0.000    0.000    0.000    0.000 
#    0.000    0.000    0.000    0.000    0.000    0.000 
#
# Total GULP energy -77996.761417 kJ/mol
# GULP energy per Si atom -5571.197244 kJ/mol
# Density = 2.606011 g / cm^3
# Si number density = 26.119555 Si / 1000 Ang^3
#
#
#
# Elastic Constant Matrix: (Units=GPa)
#
#
# Indices 1 2 3 4 5 6 
#
# 1 190.8324 63.8147 30.7715 0.0000 39.5727 0.0000
# 2 63.8147 119.6560 24.0240 0.0000 30.0616 0.0000
# 3 30.7715 24.0240 120.3024 0.0000 24.2435 0.0000
# 4 0.0000 0.0000 0.0000 33.0300 0.0000 7.6636
# 5 39.5727 30.0616 24.2435 0.0000 39.8337 0.0000
# 6 0.0000 0.0000 0.0000 7.6636 0.0000 3.6955
#
#
#
# Elastic Compliance Matrix: (Units=1/GPa)
#
#
# Indices 1 2 3 4 5 6 
#
# 1 0.007172 -0.002492 -0.000319 0.000000 -0.005050 0.000000
# 2 -0.002492 0.011212 -0.000451 0.000000 -0.005711 0.000000
# 3 -0.000319 -0.000451 0.009519 0.000000 -0.005136 0.000000
# 4 0.000000 0.000000 0.000000 0.058352 0.000000 -0.121010
# 5 -0.005050 -0.005711 -0.005136 0.000000 0.037558 0.000000
# 6 0.000000 0.000000 0.000000 -0.121010 0.000000 0.521550
#
#
# Mechanical properties :
#
#
# Convention : Reuss Voigt Hill
#
# Bulk Modulus (GPa) = 46.77435 74.22348 60.49891
# Shear Modulus (GPa) = 7.58710 36.12388 21.85549
#
# Velocity S-wave (km/s) = 1.70618 3.72293 2.89580
# Velocity P-wave (km/s) = 4.67205 6.85265 5.86459
#
# Compressibility (1/GPa) = 0.02137924
#
# Stress axis : x y z
#
# Youngs Moduli (GPa) = 139.42430 89.19224 105.05199
#
# Poissons Ratio (x) = 0.22229 0.03353
# Poissons Ratio (y) = 0.34748 0.04733
# Poissons Ratio (z) = 0.04450 0.04019
#
# Static dielectric constant tensor:
#      x y z
#    x 2.105030 0.000000 -0.017400 
#    y 0.000000 2.121270 0.000000 
#    z -0.017400 0.000000 1.839740 
# 
# From -- ./inp_files/226064.got.cif
#   From: 2010.05.17/outbox.cif.g08.bks.cpg/sg15_114_cif.got.tgz:226064.got - 2010.06.03 18:47:42.
