data_PCOD9289366
_publ_section_title
;
Structure prediction by ZEFSAII (Michael W. Deem and Ramdas Pophale) SiO2 
 PCOD9289366
Probable space group: C 2/C
;
_chemical_formula_sum "Si O2"
_cell_formula_units_Z 28
_cell_length_a 7.084177
_cell_length_b 29.755586
_cell_length_c 7.807515
_cell_angle_alpha 90.000000
_cell_angle_beta 134.444304
_cell_angle_gamma 90.000000
_cell_volume 1174.971285
_symmetry_space_group_name_H-M "C 2/C"
_symmetry_group_IT_number 15
_symmetry_cell_setting 'monoclinic'
loop_
_space_group_symop_operation_xyz
x,y,z
-x,y,1/2-z
-x,-y,-z
x,-y,1/2+z
1/2+x,1/2+y,z
1/2-x,1/2+y,1/2-z
1/2-x,1/2-y,-z
1/2+x,1/2-y,1/2+z
loop_
_atom_site_type_symbol
_atom_site_label
_atom_site_fract_x
_atom_site_fract_y
_atom_site_fract_z
Si Si1 0.250320 0.367626 0.781816
Si Si2 0.006530 0.552247 0.957519
Si Si3 0.338807 0.228791 0.329571
Si Si4 0.500000 0.394948 0.250000
O O1 0.217948 0.322887 0.652781
O O2 0.000000 0.366690 0.750000
O O3 0.236103 0.415182 0.676741
O O4 0.485772 0.365704 0.068659
O O5 0.746971 0.572890 0.879501
O O6 0.000000 0.556702 0.750000
O O7 0.000000 0.500000 0.000000
O O8 0.500000 0.228993 0.250000
O O9 0.551562 0.250072 0.596919
#
# Coordination Sequence:
#
# PCOD9289366 Si02
#       4
#     8   8   8   4
#     4   9  20  35  57  90 123 166 211 262 317 385
#     4  11  24  41  63  93 125 162 214 260 322 391
#     4   9  18  29  54  89 128 167 217 268 323 385
#     4  10  22  40  64  86 132 162 206 264 322 376
#
# _framework density 23.830368
#
# number of rings (size 3 to 8) (size 9 to 14) (size 15 to 20)
#    0.000    2.286    0.000    2.571   14.000    5.714 
#    0.000    0.000    0.000    1.714    0.000    0.000 
#    0.000    0.000    0.000    0.000    0.000    0.000 
#
# Total GULP energy -78114.860529 kJ/mol
# GULP energy per Si atom -5579.632895 kJ/mol
# Density = 2.377613 g / cm^3
# Si number density = 23.830368 Si / 1000 Ang^3
#
#
#
# Elastic Constant Matrix: (Units=GPa)
#
#
# Indices 1 2 3 4 5 6 
#
# 1 73.7498 11.7576 25.8667 0.0000 -0.1266 0.0000
# 2 11.7576 175.0423 84.0244 0.0000 0.2827 0.0000
# 3 25.8667 84.0244 140.2540 0.0000 -3.7281 0.0000
# 4 0.0000 0.0000 0.0000 20.1344 0.0000 -2.4467
# 5 -0.1266 0.2827 -3.7281 0.0000 45.7145 0.0000
# 6 0.0000 0.0000 0.0000 -2.4467 0.0000 7.3336
#
#
#
# Elastic Compliance Matrix: (Units=1/GPa)
#
#
# Indices 1 2 3 4 5 6 
#
# 1 0.014523 0.000440 -0.002947 0.000000 -0.000203 0.000000
# 2 0.000440 0.008041 -0.004910 0.000000 -0.000449 0.000000
# 3 -0.002947 -0.004910 0.010639 0.000000 0.000890 0.000000
# 4 0.000000 0.000000 0.000000 0.051765 0.000000 0.017270
# 5 -0.000203 -0.000449 0.000890 0.000000 0.021950 0.000000
# 6 0.000000 0.000000 0.000000 0.017270 0.000000 0.142120
#
#
# Mechanical properties :
#
#
# Convention : Reuss Voigt Hill
#
# Bulk Modulus (GPa) = 54.44615 70.26038 62.35326
# Shear Modulus (GPa) = 18.51885 32.46298 25.49092
#
# Velocity S-wave (km/s) = 2.79070 3.69487 3.27415
# Velocity P-wave (km/s) = 5.76897 6.91016 6.36519
#
# Compressibility (1/GPa) = 0.01836677
#
# Stress axis : x y z
#
# Youngs Moduli (GPa) = 68.85824 124.35946 93.99519
#
# Poissons Ratio (x) = -0.05466 0.27701
# Poissons Ratio (y) = -0.03026 0.46155
# Poissons Ratio (z) = 0.20293 0.61065
#
# Static dielectric constant tensor:
#      x y z
#    x 1.894530 0.000000 -0.050390 
#    y 0.000000 1.943680 0.000000 
#    z -0.050390 0.000000 2.202510 
# 
# From -- ./inp_files/1941.got.cif
#   From: 2010.05.17/outbox.cif.g08.bks.cpg/sg15_1_cif.got.tgz:1941.got - 2010.06.03 18:47:42.
