data_PCOD9289330
_publ_section_title
;
Structure prediction by ZEFSAII (Michael W. Deem and Ramdas Pophale) SiO2 
 PCOD9289330
Probable space group: C 2/C
;
_chemical_formula_sum "Si O2"
_cell_formula_units_Z 60
_cell_length_a 9.148492
_cell_length_b 23.224366
_cell_length_c 16.156317
_cell_angle_alpha 90.000000
_cell_angle_beta 115.930870
_cell_angle_gamma 90.000000
_cell_volume 3087.102940
_symmetry_space_group_name_H-M "C 2/C"
_symmetry_group_IT_number 15
_symmetry_cell_setting 'monoclinic'
loop_
_space_group_symop_operation_xyz
x,y,z
-x,y,1/2-z
-x,-y,-z
x,-y,1/2+z
1/2+x,1/2+y,z
1/2-x,1/2+y,1/2-z
1/2-x,1/2-y,-z
1/2+x,1/2-y,1/2+z
loop_
_atom_site_type_symbol
_atom_site_label
_atom_site_fract_x
_atom_site_fract_y
_atom_site_fract_z
Si Si1 0.940960 0.900663 0.434628
Si Si2 0.158787 0.440297 0.243326
Si Si3 0.000000 0.339384 0.750000
Si Si4 0.255198 0.248968 0.100729
Si Si5 0.576878 0.588209 0.385650
Si Si6 0.102008 0.205985 0.467289
Si Si7 0.775687 0.431511 0.783350
Si Si8 0.841653 0.879394 0.153782
O O1 0.806308 0.926173 0.341520
O O2 0.902641 0.833849 0.450449
O O3 0.109414 0.900875 0.425699
O O4 0.065311 0.068689 0.478076
O O5 0.150999 0.508235 0.226845
O O6 0.195863 0.410675 0.164651
O O7 0.000000 0.418236 0.250000
O O8 0.123692 0.299224 0.832680
O O9 0.105550 0.380150 0.714918
O O10 0.310621 0.311645 0.143662
O O11 0.071475 0.236257 0.083334
O O12 0.250000 0.250000 0.000000
O O13 0.611115 0.656731 0.399509
O O14 0.399785 0.577644 0.303733
O O15 0.721198 0.563621 0.365736
O O16 0.250000 0.250000 0.500000
O O17 0.000000 0.890395 0.250000
#
# Coordination Sequence:
#
# PCOD9289330 Si02
#       8
#     8   8   4   8   8   8   8   8
#     4   9  21  43  62  93 125 166 220 262 324 406
#     4  11  25  44  63  92 132 174 223 275 330 387
#     4  12  24  44  66 100 138 178 222 288 340 400
#     4  12  23  41  68  97 137 176 222 277 334 406
#     4   9  22  41  64  96 120 170 218 264 334 394
#     4  10  22  40  63  95 132 170 209 271 323 398
#     4  11  23  44  65  92 133 169 222 281 334 393
#     4  10  22  41  65  94 129 173 216 266 335 395
#
# _framework density 19.435697999999999
#
# number of rings (size 3 to 8) (size 9 to 14) (size 15 to 20)
#    0.800    0.800    4.000    0.000    9.333    0.533 
#    0.000    0.667    0.000    0.000    0.000    0.000 
#    0.000    0.000    0.000    0.000    0.000    0.000 
#
# Total GULP energy -167258.235565 kJ/mol
# GULP energy per Si atom -5575.274519 kJ/mol
# Density = 1.939146 g / cm^3
# Si number density = 19.435698 Si / 1000 Ang^3
#
#
#
# Elastic Constant Matrix: (Units=GPa)
#
#
# Indices 1 2 3 4 5 6 
#
# 1 155.4573 45.4470 44.1340 0.0000 -18.3850 0.0000
# 2 45.4470 58.6326 19.4995 0.0000 -12.5345 0.0000
# 3 44.1340 19.4995 58.2374 0.0000 -22.6847 0.0000
# 4 0.0000 0.0000 0.0000 21.9719 0.0000 -1.3783
# 5 -18.3850 -12.5345 -22.6847 0.0000 30.0989 0.0000
# 6 0.0000 0.0000 0.0000 -1.3783 0.0000 64.0065
#
#
#
# Elastic Compliance Matrix: (Units=1/GPa)
#
#
# Indices 1 2 3 4 5 6 
#
# 1 0.009632 -0.005745 -0.005685 0.000000 -0.000794 0.000000
# 2 -0.005745 0.023051 -0.001404 0.000000 0.005032 0.000000
# 3 -0.005685 -0.001404 0.028834 0.000000 0.017674 0.000000
# 4 0.000000 0.000000 0.000000 0.045574 0.000000 0.000981
# 5 -0.000794 0.005032 0.017674 0.000000 0.048155 0.000000
# 6 0.000000 0.000000 0.000000 0.000981 0.000000 0.015645
#
#
# Mechanical properties :
#
#
# Convention : Reuss Voigt Hill
#
# Bulk Modulus (GPa) = 27.89523 54.49872 41.19697
# Shear Modulus (GPa) = 23.97963 34.09857 29.03910
#
# Velocity S-wave (km/s) = 3.51635 4.19314 3.86957
# Velocity P-wave (km/s) = 5.55608 7.17946 6.41929
#
# Compressibility (1/GPa) = 0.03584843
#
# Stress axis : x y z
#
# Youngs Moduli (GPa) = 103.81697 43.38155 34.68113
#
# Poissons Ratio (x) = 0.24923 0.19717
# Poissons Ratio (y) = 0.59644 0.04870
# Poissons Ratio (z) = 0.59022 0.06092
#
# Static dielectric constant tensor:
#      x y z
#    x 1.702190 0.000000 -0.043400 
#    y 0.000000 1.659910 0.000000 
#    z -0.043400 0.000000 1.686560 
# 
# From -- ./inp_files/192578.got.cif
#   From: 2010.05.17/outbox.cif.g08.bks.cpg/sg15_97_cif.got.tgz:192578.got - 2010.06.03 18:47:42.
