data_PCOD9289571
_publ_section_title
;
Structure prediction by ZEFSAII (Michael W. Deem and Ramdas Pophale) SiO2 
 PCOD9289571
Probable space group: C 2/C
;
_chemical_formula_sum "Si O2"
_cell_formula_units_Z 52
_cell_length_a 22.376644
_cell_length_b 10.243949
_cell_length_c 13.287732
_cell_angle_alpha 90.000000
_cell_angle_beta 42.829963
_cell_angle_gamma 90.000000
_cell_volume 2070.667176
_symmetry_space_group_name_H-M "C 2/C"
_symmetry_group_IT_number 15
_symmetry_cell_setting 'monoclinic'
loop_
_space_group_symop_operation_xyz
x,y,z
-x,y,1/2-z
-x,-y,-z
x,-y,1/2+z
1/2+x,1/2+y,z
1/2-x,1/2+y,1/2-z
1/2-x,1/2-y,-z
1/2+x,1/2-y,1/2+z
loop_
_atom_site_type_symbol
_atom_site_label
_atom_site_fract_x
_atom_site_fract_y
_atom_site_fract_z
Si Si1 0.076571 0.430687 0.842717
Si Si2 0.097505 0.970612 0.584752
Si Si3 0.169117 0.897151 0.694718
Si Si4 0.853929 0.477721 0.549797
Si Si5 0.627218 0.660977 0.837184
Si Si6 0.500000 0.945221 0.250000
Si Si7 0.331219 0.738015 0.099292
O O1 0.158971 0.466393 0.813505
O O2 0.072170 0.276020 0.855556
O O3 0.067928 0.482266 0.741629
O O4 0.000000 0.500000 0.000000
O O5 0.150867 0.881854 0.600104
O O6 0.096554 0.890057 0.482612
O O7 0.000000 0.988541 0.750000
O O8 0.142922 0.110895 0.499030
O O9 0.146162 0.795015 0.811494
O O10 0.269139 0.932884 0.596177
O O11 0.120843 0.033405 0.777169
O O12 0.932435 0.385681 0.412718
O O13 0.879166 0.629551 0.504931
O O14 0.728872 0.712998 0.718409
#
# Coordination Sequence:
#
# PCOD9289571 Si02
#       7
#     8   8   8   8   8   4   8
#     4  10  22  43  62  99 133 170 220 283 339 401
#     4  11  27  44  69 105 138 183 237 286 345 413
#     4  10  23  43  70  96 137 185 228 278 350 411
#     4  10  22  40  66 100 131 176 224 283 332 408
#     4  10  23  45  68  98 144 175 228 295 338 410
#     4  10  24  36  66  96 128 170 218 278 330 396
#     4  10  23  43  70  98 134 184 224 288 342 410
#
# _framework density 25.112679
#
# number of rings (size 3 to 8) (size 9 to 14) (size 15 to 20)
#    0.000    1.846    1.538    0.000    5.385    8.000 
#   11.077    0.000    0.000    0.000    0.000    0.000 
#    0.000    0.000    0.000    0.000    0.000    0.000 
#
# Total GULP energy -145091.222740 kJ/mol
# GULP energy per Si atom -5580.431644 kJ/mol
# Density = 2.505552 g / cm^3
# Si number density = 25.112679 Si / 1000 Ang^3
#
#
#
# Elastic Constant Matrix: (Units=GPa)
#
#
# Indices 1 2 3 4 5 6 
#
# 1 101.2938 -13.7700 22.3817 0.0000 11.9656 0.0000
# 2 -13.7700 80.4537 6.6652 0.0000 -15.6319 -0.0001
# 3 22.3817 6.6652 85.3093 0.0000 -5.5913 0.0000
# 4 0.0000 0.0000 0.0000 39.8521 0.0000 -41.5637
# 5 11.9656 -15.6319 -5.5913 0.0000 37.0122 0.0000
# 6 0.0000 -0.0001 0.0000 -41.5637 0.0000 166.3974
#
#
#
# Elastic Compliance Matrix: (Units=1/GPa)
#
#
# Indices 1 2 3 4 5 6 
#
# 1 0.011217 0.001516 -0.003289 0.000000 -0.003483 0.000000
# 2 0.001516 0.013786 -0.001136 0.000000 0.005161 0.000000
# 3 -0.003289 -0.001136 0.012839 0.000000 0.002523 0.000000
# 4 0.000000 0.000000 0.000000 0.033933 0.000000 0.008476
# 5 -0.003483 0.005161 0.002523 0.000000 0.030705 0.000000
# 6 0.000000 0.000000 0.000000 0.008476 0.000000 0.008127
#
#
# Mechanical properties :
#
#
# Convention : Reuss Voigt Hill
#
# Bulk Modulus (GPa) = 31.22970 33.06784 32.14877
# Shear Modulus (GPa) = 39.33899 65.43768 52.38834
#
# Velocity S-wave (km/s) = 3.96220 5.11021 4.57237
# Velocity P-wave (km/s) = 5.77883 6.92931 6.38005
#
# Compressibility (1/GPa) = 0.03202080
#
# Stress axis : x y z
#
# Youngs Moduli (GPa) = 89.15384 72.53865 77.88631
#
# Poissons Ratio (x) = -0.10994 0.25620
# Poissons Ratio (y) = -0.13512 0.08851
# Poissons Ratio (z) = 0.29327 0.08244
#
# Static dielectric constant tensor:
#      x y z
#    x 2.090090 0.000000 -0.044830 
#    y 0.000000 2.030350 0.000000 
#    z -0.044830 0.000000 1.970650 
# 
# From -- ./inp_files/117953.got.cif
#   From: 2010.05.17/outbox.cif.g08.bks.cpg/sg15_59_cif.got.tgz:117953.got - 2010.06.03 18:47:42.
