data_PCOD9289518
_publ_section_title
;
Structure prediction by ZEFSAII (Michael W. Deem and Ramdas Pophale) SiO2 
 PCOD9289518
Probable space group: C 2/C
;
_chemical_formula_sum "Si O2"
_cell_formula_units_Z 48
_cell_length_a 10.467298
_cell_length_b 18.501088
_cell_length_c 10.839928
_cell_angle_alpha 90.000000
_cell_angle_beta 102.709342
_cell_angle_gamma 90.000000
_cell_volume 2047.787763
_symmetry_space_group_name_H-M "C 2/C"
_symmetry_group_IT_number 15
_symmetry_cell_setting 'monoclinic'
loop_
_space_group_symop_operation_xyz
x,y,z
-x,y,1/2-z
-x,-y,-z
x,-y,1/2+z
1/2+x,1/2+y,z
1/2-x,1/2+y,1/2-z
1/2-x,1/2-y,-z
1/2+x,1/2-y,1/2+z
loop_
_atom_site_type_symbol
_atom_site_label
_atom_site_fract_x
_atom_site_fract_y
_atom_site_fract_z
Si Si1 0.993134 0.585779 0.012168
Si Si2 0.255927 0.064526 0.135734
Si Si3 0.257909 0.170230 0.344075
Si Si4 0.142527 0.821119 0.074636
Si Si5 0.923464 0.069182 0.619537
Si Si6 0.179543 0.411512 0.237310
O O1 0.877626 0.598454 0.086393
O O2 0.128892 0.616155 0.086092
O O3 0.946878 0.610387 0.866721
O O4 0.000000 0.500000 0.000000
O O5 0.203684 0.128065 0.213522
O O6 0.312573 0.995140 0.220134
O O7 0.143664 0.035076 0.016859
O O8 0.151527 0.185120 0.428609
O O9 0.337385 0.245458 0.351066
O O10 0.272647 0.864973 0.139282
O O11 0.019312 0.867885 0.092697
O O12 0.797173 0.098889 0.663778
O O13 0.000000 0.028944 0.750000
#
# Coordination Sequence:
#
# PCOD9289518 Si02
#       6
#     8   8   8   8   8   8
#     4  11  22  39  65  96 127 164 216 276 329 378
#     4  11  23  39  66  98 124 167 223 271 325 398
#     4  11  24  41  65  95 130 174 218 268 326 392
#     4  10  24  44  61  90 137 174 214 267 324 394
#     4   9  22  43  61  88 126 169 212 262 328 383
#     4  10  22  40  65  94 128 167 213 272 330 383
#
# _framework density 23.439928999999999
#
# number of rings (size 3 to 8) (size 9 to 14) (size 15 to 20)
#    0.000    1.667    1.667    1.500    2.333   10.667 
#    3.000    9.167    0.000    0.000    0.000    0.000 
#    0.000    0.000    0.000    0.000    0.000    0.000 
#
# Total GULP energy -133952.261257 kJ/mol
# GULP energy per Si atom -5581.344219 kJ/mol
# Density = 2.338658 g / cm^3
# Si number density = 23.439929 Si / 1000 Ang^3
#
#
#
# Elastic Constant Matrix: (Units=GPa)
#
#
# Indices 1 2 3 4 5 6 
#
# 1 61.3780 -6.2398 28.6041 0.0000 5.1359 0.0000
# 2 -6.2398 81.7741 18.4201 0.0000 -4.8649 0.0000
# 3 28.6041 18.4201 110.5205 0.0000 3.0584 0.0000
# 4 0.0000 0.0000 0.0000 18.8122 0.0000 5.7364
# 5 5.1359 -4.8649 3.0584 0.0000 39.1922 0.0000
# 6 0.0000 0.0000 0.0000 5.7364 0.0000 25.0301
#
#
#
# Elastic Compliance Matrix: (Units=1/GPa)
#
#
# Indices 1 2 3 4 5 6 
#
# 1 0.019193 0.002563 -0.005345 0.000000 -0.001780 0.000000
# 2 0.002563 0.013168 -0.002900 0.000000 0.001525 0.000000
# 3 -0.005345 -0.002900 0.010929 0.000000 -0.000512 0.000000
# 4 0.000000 0.000000 0.000000 0.057151 0.000000 -0.013098
# 5 -0.001780 0.001525 -0.000512 0.000000 0.025978 0.000000
# 6 0.000000 0.000000 0.000000 -0.013098 0.000000 0.042954
#
#
# Mechanical properties :
#
#
# Convention : Reuss Voigt Hill
#
# Bulk Modulus (GPa) = 31.32346 37.24903 34.28625
# Shear Modulus (GPa) = 26.12604 30.79945 28.46275
#
# Velocity S-wave (km/s) = 3.34218 3.62881 3.48844
# Velocity P-wave (km/s) = 5.31844 5.78649 5.55740
#
# Compressibility (1/GPa) = 0.03192495
#
# Stress axis : x y z
#
# Youngs Moduli (GPa) = 52.10230 75.93947 91.49915
#
# Poissons Ratio (x) = -0.19461 0.48909
# Poissons Ratio (y) = -0.13352 0.26537
# Poissons Ratio (z) = 0.27850 0.22024
#
# Static dielectric constant tensor:
#      x y z
#    x 1.937180 0.000000 -0.011400 
#    y 0.000000 1.890350 0.000000 
#    z -0.011400 0.000000 2.038800 
# 
# From -- ./inp_files/88508.got.cif
#   From: 2010.05.17/outbox.cif.g08.bks.cpg/sg15_45_cif.got.tgz:88508.got - 2010.06.03 18:47:42.
