data_PCOD9289400
_publ_section_title
;
Structure prediction by ZEFSAII (Michael W. Deem and Ramdas Pophale) SiO2 
 PCOD9289400
Probable space group: C 2/C
;
_chemical_formula_sum "Si O2"
_cell_formula_units_Z 44
_cell_length_a 11.619888
_cell_length_b 14.282299
_cell_length_c 17.287639
_cell_angle_alpha 90.000000
_cell_angle_beta 45.774203
_cell_angle_gamma 90.000000
_cell_volume 2055.940380
_symmetry_space_group_name_H-M "C 2/C"
_symmetry_group_IT_number 15
_symmetry_cell_setting 'monoclinic'
loop_
_space_group_symop_operation_xyz
x,y,z
-x,y,1/2-z
-x,-y,-z
x,-y,1/2+z
1/2+x,1/2+y,z
1/2-x,1/2+y,1/2-z
1/2-x,1/2-y,-z
1/2+x,1/2-y,1/2+z
loop_
_atom_site_type_symbol
_atom_site_label
_atom_site_fract_x
_atom_site_fract_y
_atom_site_fract_z
Si Si1 0.348551 0.346600 0.468588
Si Si2 0.792675 0.415794 0.629362
Si Si3 0.500000 0.454024 0.250000
Si Si4 0.572176 0.016352 0.089376
Si Si5 0.440920 0.175775 0.856518
Si Si6 0.603545 0.718556 0.975105
O O1 0.250000 0.250000 0.500000
O O2 0.426404 0.388965 0.352926
O O3 0.215897 0.423276 0.557539
O O4 0.486204 0.326640 0.467791
O O5 0.633194 0.474279 0.722274
O O6 0.859279 0.470428 0.522191
O O7 0.798084 0.307485 0.604254
O O8 0.924563 0.419511 0.634484
O O9 0.492173 0.928358 0.168706
O O10 0.500000 0.218825 0.750000
O O11 0.248421 0.157851 0.942316
O O12 0.487149 0.237985 0.908245
#
# Coordination Sequence:
#
# PCOD9289400 Si02
#       6
#     8   8   4   8   8   8
#     4  11  22  41  65  98 132 170 215 269 319 380
#     4   9  18  38  62  88 123 168 208 252 319 390
#     4  10  24  36  66  98 128 180 220 248 324 400
#     4   9  19  38  62  87 127 163 204 267 321 370
#     4  10  23  40  62  90 125 172 213 265 324 379
#     4  10  22  40  64  92 126 166 214 268 315 382
#
# _framework density 21.401399000000001
#
# number of rings (size 3 to 8) (size 9 to 14) (size 15 to 20)
#    0.000    2.182    1.818    0.000    6.364    0.727 
#    1.636    1.818    0.000    0.000    0.000    0.000 
#    0.000    0.000    0.000    0.000    0.000    0.000 
#
# Total GULP energy -122560.863108 kJ/mol
# GULP energy per Si atom -5570.948323 kJ/mol
# Density = 2.135269 g / cm^3
# Si number density = 21.401399 Si / 1000 Ang^3
#
#
#
# Elastic Constant Matrix: (Units=GPa)
#
#
# Indices 1 2 3 4 5 6 
#
# 1 125.3717 33.0764 32.0863 0.0000 -6.2146 0.0000
# 2 33.0764 62.6760 14.5116 -0.0001 -2.5267 0.0000
# 3 32.0863 14.5116 59.8270 -0.0003 3.5392 0.0000
# 4 0.0000 -0.0001 -0.0003 104.3662 0.0001 8.4869
# 5 -6.2146 -2.5267 3.5392 0.0001 28.2890 0.0000
# 6 0.0000 0.0000 0.0000 8.4869 0.0000 50.6939
#
#
#
# Elastic Compliance Matrix: (Units=1/GPa)
#
#
# Indices 1 2 3 4 5 6 
#
# 1 0.010443 -0.004322 -0.004700 0.000000 0.002496 0.000000
# 2 -0.004322 0.018811 -0.002305 0.000000 0.001019 0.000000
# 3 -0.004700 -0.002305 0.020016 0.000000 -0.003743 0.000000
# 4 0.000000 0.000000 0.000000 0.009714 0.000000 -0.001626
# 5 0.002496 0.001019 -0.003743 0.000000 0.036457 0.000000
# 6 0.000000 0.000000 0.000000 -0.001626 0.000000 0.019998
#
#
# Mechanical properties :
#
#
# Convention : Reuss Voigt Hill
#
# Bulk Modulus (GPa) = 37.57215 45.24703 41.40959
# Shear Modulus (GPa) = 34.02139 47.88319 40.95229
#
# Velocity S-wave (km/s) = 3.99141 4.73523 4.37914
# Velocity P-wave (km/s) = 6.23184 7.14735 6.70524
#
# Compressibility (1/GPa) = 0.02661546
#
# Stress axis : x y z
#
# Youngs Moduli (GPa) = 95.75522 53.16066 49.95984
#
# Poissons Ratio (x) = 0.22978 0.23482
# Poissons Ratio (y) = 0.41390 0.11515
# Poissons Ratio (z) = 0.45006 0.12253
#
# Static dielectric constant tensor:
#      x y z
#    x 1.769770 0.000000 0.014430 
#    y 0.000000 1.771550 0.000000 
#    z 0.014430 0.000000 1.817770 
# 
# From -- ./inp_files/142965.got.cif
#   From: 2010.05.17/outbox.cif.g08.bks.cpg/sg15_72_cif.got.tgz:142965.got - 2010.06.03 18:47:42.
