data_PCOD9289452
_publ_section_title
;
Structure prediction by ZEFSAII (Michael W. Deem and Ramdas Pophale) SiO2 
 PCOD9289452
Probable space group: C 2/C
;
_chemical_formula_sum "Si O2"
_cell_formula_units_Z 60
_cell_length_a 25.743236
_cell_length_b 8.082275
_cell_length_c 12.484061
_cell_angle_alpha 90.000000
_cell_angle_beta 104.623542
_cell_angle_gamma 90.000000
_cell_volume 2513.338474
_symmetry_space_group_name_H-M "C 2/C"
_symmetry_group_IT_number 15
_symmetry_cell_setting 'monoclinic'
loop_
_space_group_symop_operation_xyz
x,y,z
-x,y,1/2-z
-x,-y,-z
x,-y,1/2+z
1/2+x,1/2+y,z
1/2-x,1/2+y,1/2-z
1/2-x,1/2-y,-z
1/2+x,1/2-y,1/2+z
loop_
_atom_site_type_symbol
_atom_site_label
_atom_site_fract_x
_atom_site_fract_y
_atom_site_fract_z
Si Si1 0.072429 0.713609 0.093328
Si Si2 0.220319 0.454342 0.731035
Si Si3 0.470576 0.319253 0.966031
Si Si4 0.712311 0.242494 0.878314
Si Si5 0.387538 0.595492 0.094332
Si Si6 0.627285 0.113209 0.540599
Si Si7 0.000000 0.154123 0.250000
Si Si8 0.645042 0.258341 0.329107
O O1 0.089749 0.537752 0.056092
O O2 0.095175 0.751173 0.221766
O O3 0.098153 0.843509 0.018906
O O4 0.008262 0.716691 0.064075
O O5 0.270554 0.388717 0.692686
O O6 0.230192 0.574063 0.833361
O O7 0.180790 0.563628 0.634235
O O8 0.191682 0.295295 0.771016
O O9 0.408168 0.278464 0.951431
O O10 0.483307 0.260761 0.851889
O O11 0.500000 0.500000 0.000000
O O12 0.649921 0.261150 0.874980
O O13 0.750000 0.250000 0.000000
O O14 0.444453 0.568750 0.184110
O O15 0.353905 0.430960 0.105778
O O16 0.640195 0.125869 0.422152
#
# Coordination Sequence:
#
# PCOD9289452 Si02
#       8
#     8   8   8   8   8   8   4   8
#     4  10  23  40  61  97 135 175 227 279 340 413
#     4  11  25  44  68 100 132 177 232 284 349 417
#     4  11  22  38  62  96 134 179 229 276 335 410
#     4  12  25  45  70  99 137 179 229 289 345 411
#     4  11  23  42  68  98 136 180 226 286 346 413
#     4  11  23  42  65  95 134 178 225 281 342 409
#     4  10  22  40  64  96 132 172 222 278 338 402
#     4  11  23  42  67  96 136 178 223 284 346 410
#
# _framework density 23.872631999999999
#
# number of rings (size 3 to 8) (size 9 to 14) (size 15 to 20)
#    0.000    1.067    0.000    7.600    0.000    5.867 
#    0.000    2.667    0.000    0.800    0.000    0.000 
#    0.000    0.000    0.000    0.000    0.000    0.000 
#
# Total GULP energy -167317.502114 kJ/mol
# GULP energy per Si atom -5577.250070 kJ/mol
# Density = 2.381830 g / cm^3
# Si number density = 23.872632 Si / 1000 Ang^3
#
#
#
# Elastic Constant Matrix: (Units=GPa)
#
#
# Indices 1 2 3 4 5 6 
#
# 1 85.1338 -4.4227 1.0905 0.0000 -24.6166 0.0000
# 2 -4.4227 84.0462 6.3109 0.0000 -0.9265 0.0000
# 3 1.0905 6.3109 96.6483 0.0000 -12.1038 0.0000
# 4 0.0000 0.0000 0.0000 24.2601 0.0000 -15.4429
# 5 -24.6166 -0.9265 -12.1038 0.0000 29.7586 0.0000
# 6 0.0000 0.0000 0.0000 -15.4429 0.0000 34.1303
#
#
#
# Elastic Compliance Matrix: (Units=1/GPa)
#
#
# Indices 1 2 3 4 5 6 
#
# 1 0.015711 0.000866 0.001472 0.000000 0.013622 0.000000
# 2 0.000866 0.012005 -0.000692 0.000000 0.000809 0.000000
# 3 0.001472 -0.000692 0.011090 0.000000 0.005707 0.000000
# 4 0.000000 0.000000 0.000000 0.057895 0.000000 0.026196
# 5 0.013622 0.000809 0.005707 0.000000 0.047219 0.000000
# 6 0.000000 0.000000 0.000000 0.026196 0.000000 0.041152
#
#
# Mechanical properties :
#
#
# Convention : Reuss Voigt Hill
#
# Bulk Modulus (GPa) = 23.75387 30.19843 26.97615
# Shear Modulus (GPa) = 25.53463 35.15310 30.34386
#
# Velocity S-wave (km/s) = 3.27405 3.84151 3.56908
# Velocity P-wave (km/s) = 4.92589 5.68802 5.32062
#
# Compressibility (1/GPa) = 0.04209841
#
# Stress axis : x y z
#
# Youngs Moduli (GPa) = 63.64866 83.30057 90.17049
#
# Poissons Ratio (x) = -0.07217 -0.13274
# Poissons Ratio (y) = -0.05514 0.06243
# Poissons Ratio (z) = -0.09370 0.05767
#
# Static dielectric constant tensor:
#      x y z
#    x 1.959670 0.000000 -0.001920 
#    y 0.000000 2.125840 0.000000 
#    z -0.001920 0.000000 1.853420 
# 
# From -- ./inp_files/125610.got.cif
#   From: 2010.05.17/outbox.cif.g08.bks.cpg/sg15_63_cif.got.tgz:125610.got - 2010.06.03 18:47:42.
