data_PCOD9289168
_publ_section_title
;
Structure prediction by ZEFSAII (Michael W. Deem and Ramdas Pophale) SiO2 
 PCOD9289168
Probable space group: C 2/C
;
_chemical_formula_sum "Si O2"
_cell_formula_units_Z 40
_cell_length_a 7.564341
_cell_length_b 11.892902
_cell_length_c 23.449824
_cell_angle_alpha 90.000000
_cell_angle_beta 59.127988
_cell_angle_gamma 90.000000
_cell_volume 1810.696084
_symmetry_space_group_name_H-M "C 2/C"
_symmetry_group_IT_number 15
_symmetry_cell_setting 'monoclinic'
loop_
_space_group_symop_operation_xyz
x,y,z
-x,y,1/2-z
-x,-y,-z
x,-y,1/2+z
1/2+x,1/2+y,z
1/2-x,1/2+y,1/2-z
1/2-x,1/2-y,-z
1/2+x,1/2-y,1/2+z
loop_
_atom_site_type_symbol
_atom_site_label
_atom_site_fract_x
_atom_site_fract_y
_atom_site_fract_z
Si Si1 0.407052 0.302614 0.097430
Si Si2 0.486371 0.442740 0.926058
Si Si3 0.777010 0.744065 0.365193
Si Si4 0.049448 0.626272 0.509601
Si Si5 0.011288 0.193692 0.314220
O O1 0.487279 0.426476 0.068563
O O2 0.510037 0.273337 0.141297
O O3 0.474754 0.210456 0.039744
O O4 0.162505 0.287771 0.144794
O O5 0.694973 0.375112 0.904231
O O6 0.453595 0.412728 0.864135
O O7 0.290052 0.382270 0.987236
O O8 0.607869 0.832031 0.416859
O O9 0.728665 0.732319 0.305993
O O10 0.000000 0.500000 0.500000
O O11 0.000000 0.167016 0.250000
#
# Coordination Sequence:
#
# PCOD9289168 Si02
#       5
#     8   8   8   8   8
#     4  11  22  41  63  93 123 164 204 246 312 369
#     4   9  22  40  60  91 123 161 202 247 308 362
#     4  10  22  40  61  93 121 165 201 245 312 364
#     4  11  21  38  62  94 135 160 190 257 304 370
#     4   9  23  46  58  87 125 153 214 264 296 357
#
# _framework density 22.090952000000001
#
# number of rings (size 3 to 8) (size 9 to 14) (size 15 to 20)
#    1.200    0.800    2.000    1.200    0.000    3.200 
#    3.600    0.000    0.000    0.000    0.000    0.000 
#    0.000    0.000    0.000    0.000    0.000    0.000 
#
# Total GULP energy -111546.810924 kJ/mol
# GULP energy per Si atom -5577.340546 kJ/mol
# Density = 2.204067 g / cm^3
# Si number density = 22.090952 Si / 1000 Ang^3
#
#
#
# Elastic Constant Matrix: (Units=GPa)
#
#
# Indices 1 2 3 4 5 6 
#
# 1 129.8539 23.1222 9.1576 0.0000 25.7593 0.0000
# 2 23.1222 144.7168 17.0561 0.0000 11.2513 0.0000
# 3 9.1576 17.0561 66.9874 0.0000 30.6975 0.0000
# 4 0.0000 0.0000 0.0000 13.5995 0.0000 2.9007
# 5 25.7593 11.2513 30.6975 0.0000 34.5236 0.0000
# 6 0.0000 0.0000 0.0000 2.9007 0.0000 29.5949
#
#
#
# Elastic Compliance Matrix: (Units=1/GPa)
#
#
# Indices 1 2 3 4 5 6 
#
# 1 0.009637 -0.001184 0.003548 0.000000 -0.009960 0.000000
# 2 -0.001184 0.007299 -0.001707 0.000000 0.000022 0.000000
# 3 0.003548 -0.001707 0.026726 0.000000 -0.025855 0.000000
# 4 0.000000 0.000000 0.000000 0.075102 0.000000 -0.007361
# 5 -0.009960 0.000022 -0.025855 0.000000 0.059380 0.000000
# 6 0.000000 0.000000 0.000000 -0.007361 0.000000 0.034511
#
#
# Mechanical properties :
#
#
# Convention : Reuss Voigt Hill
#
# Bulk Modulus (GPa) = 22.23338 48.91442 35.57390
# Shear Modulus (GPa) = 22.09146 35.02506 28.55826
#
# Velocity S-wave (km/s) = 3.16574 3.98615 3.59940
# Velocity P-wave (km/s) = 4.84241 6.58606 5.78036
#
# Compressibility (1/GPa) = 0.04497742
#
# Stress axis : x y z
#
# Youngs Moduli (GPa) = 103.76420 137.01277 37.41676
#
# Poissons Ratio (x) = 0.16217 -0.13276
# Poissons Ratio (y) = 0.12282 0.06386
# Poissons Ratio (z) = -0.36816 0.23383
#
# Static dielectric constant tensor:
#      x y z
#    x 1.866860 0.000000 0.012160 
#    y 0.000000 1.786200 0.000000 
#    z 0.012160 0.000000 1.854650 
# 
# From -- ./inp_files/262861.got.cif
#   From: 2010.05.17/outbox.cif.g08.bks.cpg/sg15_132_cif.got.tgz:262861.got - 2010.06.03 18:47:42.
