data_PCOD9289085
_publ_section_title
;
Structure prediction by ZEFSAII (Michael W. Deem and Ramdas Pophale) SiO2 
 PCOD9289085
Probable space group: C 2/C
;
_chemical_formula_sum "Si O2"
_cell_formula_units_Z 48
_cell_length_a 12.211149
_cell_length_b 15.338543
_cell_length_c 21.981979
_cell_angle_alpha 90.000000
_cell_angle_beta 138.119482
_cell_angle_gamma 90.000000
_cell_volume 2748.592614
_symmetry_space_group_name_H-M "C 2/C"
_symmetry_group_IT_number 15
_symmetry_cell_setting 'monoclinic'
loop_
_space_group_symop_operation_xyz
x,y,z
-x,y,1/2-z
-x,-y,-z
x,-y,1/2+z
1/2+x,1/2+y,z
1/2-x,1/2+y,1/2-z
1/2-x,1/2-y,-z
1/2+x,1/2-y,1/2+z
loop_
_atom_site_type_symbol
_atom_site_label
_atom_site_fract_x
_atom_site_fract_y
_atom_site_fract_z
Si Si1 0.139284 0.871247 0.924073
Si Si2 0.500000 0.741771 0.750000
Si Si3 0.978304 0.960291 0.056944
Si Si4 0.311129 0.401964 0.246394
Si Si5 0.500000 0.454085 0.750000
Si Si6 0.494488 0.202235 0.926774
Si Si7 0.202075 0.782896 0.547054
O O1 0.077723 0.891652 0.831688
O O2 0.025397 0.797322 0.908655
O O3 0.120009 0.964871 0.948121
O O4 0.325942 0.839693 0.999098
O O5 0.574956 0.678035 0.729482
O O6 0.357926 0.793485 0.656602
O O7 0.134133 0.933617 0.163852
O O8 0.882765 0.872744 0.003578
O O9 0.000000 0.000000 0.000000
O O10 0.363422 0.482047 0.223814
O O11 0.130774 0.362037 0.160793
O O12 0.417227 0.220645 0.961774
O O13 0.250000 0.750000 0.500000
#
# Coordination Sequence:
#
# PCOD9289085 Si02
#       7
#     8   4   8   8   4   8   8
#     4  10  22  41  57  86 123 154 197 243 301 361
#     4   9  18  36  58  85 114 150 204 239 288 356
#     4  11  21  40  60  86 122 154 193 251 307 341
#     4   9  19  37  60  82 113 156 199 242 292 354
#     4   9  20  38  60  81 114 158 196 247 292 348
#     4  10  22  40  60  87 119 159 199 242 297 367
#     4  11  21  39  63  88 117 160 200 249 298 355
#
# _framework density 17.463483
#
# number of rings (size 3 to 8) (size 9 to 14) (size 15 to 20)
#    0.000    2.000    3.333    0.000    2.333    2.000 
#    3.000    0.000    0.000    0.000    0.000    0.000 
#    0.000    0.000    0.000    0.000    0.000    0.000 
#
# Total GULP energy -133614.528696 kJ/mol
# GULP energy per Si atom -5567.272029 kJ/mol
# Density = 1.742373 g / cm^3
# Si number density = 17.463483 Si / 1000 Ang^3
#
#
#
# Elastic Constant Matrix: (Units=GPa)
#
#
# Indices 1 2 3 4 5 6 
#
# 1 89.8229 33.1419 71.7339 0.0000 -10.8552 0.0000
# 2 33.1419 80.5179 55.4394 0.0000 -5.3227 0.0000
# 3 71.7339 55.4394 113.4752 0.0000 -15.6601 0.0000
# 4 0.0000 0.0000 0.0000 37.1160 0.0000 -1.0948
# 5 -10.8552 -5.3227 -15.6601 0.0000 33.6977 0.0000
# 6 0.0000 0.0000 0.0000 -1.0948 0.0000 14.3523
#
#
#
# Elastic Compliance Matrix: (Units=1/GPa)
#
#
# Indices 1 2 3 4 5 6 
#
# 1 0.022531 0.000776 -0.014536 0.000000 0.000625 0.000000
# 2 0.000776 0.018802 -0.009865 0.000000 -0.001365 0.000000
# 3 -0.014536 -0.009865 0.023464 0.000000 0.004664 0.000000
# 4 0.000000 0.000000 0.000000 0.027003 0.000000 0.002060
# 5 0.000625 -0.001365 0.004664 0.000000 0.031829 0.000000
# 6 0.000000 0.000000 0.000000 0.002060 0.000000 0.069832
#
#
# Mechanical properties :
#
#
# Convention : Reuss Voigt Hill
#
# Bulk Modulus (GPa) = 56.98583 67.16074 62.07328
# Shear Modulus (GPa) = 20.27899 25.26660 22.77280
#
# Velocity S-wave (km/s) = 3.41137 3.80784 3.61504
# Velocity P-wave (km/s) = 6.94398 7.60751 7.28330
#
# Compressibility (1/GPa) = 0.01754822
#
# Stress axis : x y z
#
# Youngs Moduli (GPa) = 44.38380 53.18491 42.61769
#
# Poissons Ratio (x) = -0.04126 0.61947
# Poissons Ratio (y) = -0.03443 0.42041
# Poissons Ratio (z) = 0.64515 0.52466
#
# Static dielectric constant tensor:
#      x y z
#    x 1.551060 0.000000 0.074750 
#    y 0.000000 1.563440 0.000000 
#    z 0.074750 0.000000 1.491210 
# 
# From -- ./inp_files/143475.got.cif
#   From: 2010.05.17/outbox.cif.g08.bks.cpg/sg15_72_cif.got.tgz:143475.got - 2010.06.03 18:47:42.
