data_PCOD9289911
_publ_section_title
;
Structure prediction by ZEFSAII (Michael W. Deem and Ramdas Pophale) SiO2 
 PCOD9289911
Probable space group: C 2/C
;
_chemical_formula_sum "Si O2"
_cell_formula_units_Z 52
_cell_length_a 9.222821
_cell_length_b 21.818753
_cell_length_c 16.093622
_cell_angle_alpha 90.000000
_cell_angle_beta 133.373132
_cell_angle_gamma 90.000000
_cell_volume 2354.074774
_symmetry_space_group_name_H-M "C 2/C"
_symmetry_group_IT_number 15
_symmetry_cell_setting 'monoclinic'
loop_
_space_group_symop_operation_xyz
x,y,z
-x,y,1/2-z
-x,-y,-z
x,-y,1/2+z
1/2+x,1/2+y,z
1/2-x,1/2+y,1/2-z
1/2-x,1/2-y,-z
1/2+x,1/2-y,1/2+z
loop_
_atom_site_type_symbol
_atom_site_label
_atom_site_fract_x
_atom_site_fract_y
_atom_site_fract_z
Si Si1 0.503271 0.136268 0.031622
Si Si2 0.773288 0.795153 0.178953
Si Si3 0.500000 0.991127 0.750000
Si Si4 0.265160 0.461034 0.998989
Si Si5 0.798614 0.893562 0.504092
Si Si6 0.635839 0.322377 0.721242
Si Si7 0.209908 0.907362 0.187459
O O1 0.384137 0.073157 0.997545
O O2 0.638246 0.135415 0.002485
O O3 0.654067 0.149983 0.165732
O O4 0.340845 0.188618 0.950986
O O5 0.668640 0.741142 0.187641
O O6 0.773623 0.856889 0.235146
O O7 0.000000 0.778116 0.250000
O O8 0.634308 0.036165 0.744477
O O9 0.656616 0.954148 0.866973
O O10 0.291076 0.533744 0.017378
O O11 0.483740 0.432307 0.093731
O O12 0.751165 0.880702 0.389489
O O13 0.012927 0.867695 0.613808
O O14 0.500000 0.313901 0.750000
#
# Coordination Sequence:
#
# PCOD9289911 Si02
#       7
#     8   8   4   8   8   8   8
#     4  11  25  45  66 106 132 181 224 278 352 389
#     4  12  26  46  65  99 138 179 232 283 337 402
#     4  10  22  40  70 102 136 186 220 274 346 404
#     4  11  23  42  70 101 145 171 226 278 343 410
#     4  10  23  45  70 102 132 181 225 282 337 406
#     4  10  27  45  71  98 132 182 233 278 338 403
#     4  11  24  42  68 101 134 181 227 273 344 405
#
# _framework density 22.089358000000001
#
# number of rings (size 3 to 8) (size 9 to 14) (size 15 to 20)
#    0.000    1.231    1.538    4.154    9.692    3.077 
#    5.538    0.000    0.000    0.000    0.000    0.000 
#    0.000    0.000    0.000    0.000    0.000    0.000 
#
# Total GULP energy -145468.986639 kJ/mol
# GULP energy per Si atom -5594.961025 kJ/mol
# Density = 2.203908 g / cm^3
# Si number density = 22.089358 Si / 1000 Ang^3
#
#
#
# Elastic Constant Matrix: (Units=GPa)
#
#
# Indices 1 2 3 4 5 6 
#
# 1 47.8267 14.0204 20.7738 0.0000 16.9021 0.0000
# 2 14.0204 60.0445 37.8965 0.0000 13.0698 0.0000
# 3 20.7738 37.8965 130.7574 0.0000 31.1497 0.0000
# 4 0.0000 0.0000 0.0000 -5.0203 0.0000 4.8239
# 5 16.9021 13.0698 31.1497 0.0000 35.9703 0.0000
# 6 0.0000 0.0000 0.0000 4.8239 0.0000 30.5971
#
#
#
# Elastic Compliance Matrix: (Units=1/GPa)
#
#
# Indices 1 2 3 4 5 6 
#
# 1 0.025839 -0.003361 -0.000667 0.000000 -0.010342 0.000000
# 2 -0.003361 0.021060 -0.005195 0.000000 -0.001574 0.000000
# 3 -0.000667 -0.005195 0.011005 0.000000 -0.007329 0.000000
# 4 0.000000 0.000000 0.000000 -0.172987 0.000000 0.027273
# 5 -0.010342 -0.001574 -0.007329 0.000000 0.039580 0.000000
# 6 0.000000 0.000000 0.000000 0.027273 0.000000 0.028383
#
#
# Mechanical properties :
#
#
# Convention : Reuss Voigt Hill
#
# Bulk Modulus (GPa) = 25.34290 42.66778 34.00534
# Shear Modulus (GPa) = -322.16271 23.37196 -149.39538
#
# Velocity S-wave (km/s) = -12.08974 3.25632 -8.23281
# Velocity P-wave (km/s) = 13.54196 5.78758 8.65704
#
# Compressibility (1/GPa) = 0.03945878
#
# Stress axis : x y z
#
# Youngs Moduli (GPa) = 38.70129 47.48239 90.86478
#
# Poissons Ratio (x) = 0.15959 0.06062
# Poissons Ratio (y) = 0.13008 0.47202
# Poissons Ratio (z) = 0.02582 0.24666
#
# Static dielectric constant tensor:
#      x y z
#    x 1.816680 0.000000 0.008250 
#    y 0.000000 1.770300 0.000000 
#    z 0.008250 0.000000 1.820190 
# 
# From -- ./inp_files/192590.got.cif
#   From: 2010.05.17/outbox.cif.g08.bks.cpg/sg15_97_cif.got.tgz:192590.got - 2010.06.03 18:47:42.
