data_PCOD9289173
_publ_section_title
;
Structure prediction by ZEFSAII (Michael W. Deem and Ramdas Pophale) SiO2 
 PCOD9289173
Probable space group: C 2/C
;
_chemical_formula_sum "Si O2"
_cell_formula_units_Z 40
_cell_length_a 12.530851
_cell_length_b 7.151385
_cell_length_c 22.097154
_cell_angle_alpha 90.000000
_cell_angle_beta 55.355987
_cell_angle_gamma 90.000000
_cell_volume 1629.102930
_symmetry_space_group_name_H-M "C 2/C"
_symmetry_group_IT_number 15
_symmetry_cell_setting 'monoclinic'
loop_
_space_group_symop_operation_xyz
x,y,z
-x,y,1/2-z
-x,-y,-z
x,-y,1/2+z
1/2+x,1/2+y,z
1/2-x,1/2+y,1/2-z
1/2-x,1/2-y,-z
1/2+x,1/2-y,1/2+z
loop_
_atom_site_type_symbol
_atom_site_label
_atom_site_fract_x
_atom_site_fract_y
_atom_site_fract_z
Si Si1 0.132361 0.658996 0.765322
Si Si2 0.409544 0.230229 0.186498
Si Si3 0.638951 0.976563 0.925429
Si Si4 0.640171 0.220115 0.624579
Si Si5 0.696664 0.216292 0.084884
O O1 0.280714 0.652344 0.740001
O O2 0.096434 0.443674 0.766583
O O3 0.134660 0.752695 0.698971
O O4 0.012488 0.739816 0.843662
O O5 0.389910 0.131433 0.127396
O O6 0.554047 0.308472 0.140011
O O7 0.742222 0.855265 0.931926
O O8 0.705479 0.179749 0.901517
O O9 0.500000 0.000000 0.000000
O O10 0.680764 0.005729 0.599263
O O11 0.750000 0.250000 0.000000
#
# Coordination Sequence:
#
# PCOD9289173 Si02
#       5
#     8   8   8   8   8
#     4   9  20  40  59  88 122 156 203 258 308 375
#     4  10  22  40  61  94 121 161 212 252 318 383
#     4  11  23  42  62  92 125 164 209 257 314 382
#     4   9  22  42  61  88 125 158 206 258 310 374
#     4  11  23  42  62  92 125 164 209 257 314 382
#
# _framework density 24.55339
#
# number of rings (size 3 to 8) (size 9 to 14) (size 15 to 20)
#    0.000    2.000    2.000    0.000    5.600    1.600 
#    0.000    0.000    0.000    0.000    0.000    0.000 
#    0.000    0.000    0.000    0.000    0.000    0.000 
#
# Total GULP energy -111646.226558 kJ/mol
# GULP energy per Si atom -5582.311328 kJ/mol
# Density = 2.449751 g / cm^3
# Si number density = 24.553390 Si / 1000 Ang^3
#
#
#
# Elastic Constant Matrix: (Units=GPa)
#
#
# Indices 1 2 3 4 5 6 
#
# 1 116.5636 19.3964 67.4811 0.0000 -50.6512 0.0000
# 2 19.3964 68.2736 44.9886 0.0000 -28.0705 0.0000
# 3 67.4811 44.9886 142.8310 0.0000 -57.9438 0.0000
# 4 0.0000 0.0000 0.0000 37.1241 0.0000 -10.3183
# 5 -50.6512 -28.0705 -57.9438 0.0000 68.7697 0.0000
# 6 0.0000 0.0000 0.0000 -10.3183 0.0000 44.4368
#
#
#
# Elastic Compliance Matrix: (Units=1/GPa)
#
#
# Indices 1 2 3 4 5 6 
#
# 1 0.013929 0.001851 -0.004095 0.000000 0.007564 0.000000
# 2 0.001851 0.019487 -0.004911 0.000000 0.005180 0.000000
# 3 -0.004095 -0.004911 0.012832 0.000000 0.005791 0.000000
# 4 0.000000 0.000000 0.000000 0.028795 0.000000 0.006686
# 5 0.007564 0.005180 0.005791 0.000000 0.027106 0.000000
# 6 0.000000 0.000000 0.000000 0.006686 0.000000 0.024056
#
#
# Mechanical properties :
#
#
# Convention : Reuss Voigt Hill
#
# Bulk Modulus (GPa) = 31.31106 65.71115 48.51111
# Shear Modulus (GPa) = 33.07712 43.11962 38.09837
#
# Velocity S-wave (km/s) = 3.67434 4.19520 3.94338
# Velocity P-wave (km/s) = 5.54806 7.09133 6.36663
#
# Compressibility (1/GPa) = 0.03193760
#
# Stress axis : x y z
#
# Youngs Moduli (GPa) = 71.79497 51.31665 77.92723
#
# Poissons Ratio (x) = -0.09500 0.31912
# Poissons Ratio (y) = -0.13292 0.38273
# Poissons Ratio (z) = 0.29401 0.25203
#
# Static dielectric constant tensor:
#      x y z
#    x 2.055760 0.000000 0.017000 
#    y 0.000000 1.977340 0.000000 
#    z 0.017000 0.000000 2.022220 
# 
# From -- ./inp_files/294680.got.cif
#   From: 2010.05.17/outbox.cif.g08.bks.cpg/sg15_148_cif.got.tgz:294680.got - 2010.06.03 18:47:42.
