data_PCOD9289332
_publ_section_title
;
Structure prediction by ZEFSAII (Michael W. Deem and Ramdas Pophale) SiO2 
 PCOD9289332
Probable space group: C 2/C
;
_chemical_formula_sum "Si O2"
_cell_formula_units_Z 56
_cell_length_a 8.389089
_cell_length_b 12.003475
_cell_length_c 26.708900
_cell_angle_alpha 90.000000
_cell_angle_beta 111.818479
_cell_angle_gamma 90.000000
_cell_volume 2496.876290
_symmetry_space_group_name_H-M "C 2/C"
_symmetry_group_IT_number 15
_symmetry_cell_setting 'monoclinic'
loop_
_space_group_symop_operation_xyz
x,y,z
-x,y,1/2-z
-x,-y,-z
x,-y,1/2+z
1/2+x,1/2+y,z
1/2-x,1/2+y,1/2-z
1/2-x,1/2-y,-z
1/2+x,1/2-y,1/2+z
loop_
_atom_site_type_symbol
_atom_site_label
_atom_site_fract_x
_atom_site_fract_y
_atom_site_fract_z
Si Si1 0.341048 0.991256 0.694651
Si Si2 0.643874 0.739159 0.810800
Si Si3 0.954312 0.282433 0.025539
Si Si4 0.175804 0.363784 0.583545
Si Si5 0.562124 0.069628 0.630240
Si Si6 0.611813 0.342350 0.138355
Si Si7 0.008448 0.953698 0.944880
O O1 0.500000 0.987922 0.750000
O O2 0.415125 0.035209 0.651067
O O3 0.210121 0.088844 0.693237
O O4 0.277955 0.864381 0.683084
O O5 0.500000 0.730199 0.750000
O O6 0.796247 0.649355 0.828146
O O7 0.543881 0.719568 0.851775
O O8 0.060572 0.172643 0.053607
O O9 0.988696 0.371947 0.072038
O O10 0.750000 0.250000 0.000000
O O11 0.979180 0.331150 0.972687
O O12 0.141130 0.454093 0.621436
O O13 0.214814 0.249643 0.618087
O O14 0.317856 0.422125 0.564994
O O15 0.560141 0.444189 0.096149
O O16 0.000000 0.000000 0.000000
#
# Coordination Sequence:
#
# PCOD9289332 Si02
#       7
#     8   8   8   8   8   8   8
#     4  11  25  43  68  98 128 175 223 278 344 394
#     4  11  25  47  70  99 133 173 231 285 333 401
#     4  10  22  40  63  95 134 174 217 268 322 402
#     4  11  23  41  64  99 131 178 218 269 332 398
#     4  12  23  44  67  97 137 174 225 277 336 400
#     4  12  23  45  70  95 138 175 220 281 336 398
#     4  11  22  39  65  93 129 173 224 261 328 394
#
# _framework density 22.428021999999999
#
# number of rings (size 3 to 8) (size 9 to 14) (size 15 to 20)
#    0.000    0.857    4.286    3.857    2.000    0.000 
#    0.000    2.143    0.000    0.000    0.000    0.000 
#    0.000    0.000    0.000    0.000    0.000    0.000 
#
# Total GULP energy -156136.398034 kJ/mol
# GULP energy per Si atom -5576.299930 kJ/mol
# Density = 2.237698 g / cm^3
# Si number density = 22.428022 Si / 1000 Ang^3
#
#
#
# Elastic Constant Matrix: (Units=GPa)
#
#
# Indices 1 2 3 4 5 6 
#
# 1 43.8270 18.7651 -2.3634 0.0000 -8.3778 0.0000
# 2 18.7651 181.0660 43.7279 0.0000 8.6681 0.0000
# 3 -2.3634 43.7279 79.6735 0.0000 8.0624 0.0000
# 4 0.0000 0.0000 0.0000 25.5264 0.0000 -1.1386
# 5 -8.3778 8.6681 8.0624 0.0000 27.5701 0.0000
# 6 0.0000 0.0000 0.0000 -1.1386 0.0000 16.3483
#
#
#
# Elastic Compliance Matrix: (Units=1/GPa)
#
#
# Indices 1 2 3 4 5 6 
#
# 1 0.026065 -0.003559 0.001867 0.000000 0.008493 0.000000
# 2 -0.003559 0.006880 -0.003662 0.000000 -0.002174 0.000000
# 3 0.001867 -0.003662 0.014883 0.000000 -0.002634 0.000000
# 4 0.000000 0.000000 0.000000 0.039297 0.000000 0.002737
# 5 0.008493 -0.002174 -0.002634 0.000000 0.040306 0.000000
# 6 0.000000 0.000000 0.000000 0.002737 0.000000 0.061359
#
#
# Mechanical properties :
#
#
# Convention : Reuss Voigt Hill
#
# Bulk Modulus (GPa) = 26.93908 47.20284 37.07096
# Shear Modulus (GPa) = 23.59938 30.18477 26.89207
#
# Velocity S-wave (km/s) = 3.24732 3.67256 3.46647
# Velocity P-wave (km/s) = 5.10858 6.25106 5.70847
#
# Compressibility (1/GPa) = 0.03712079
#
# Stress axis : x y z
#
# Youngs Moduli (GPa) = 38.36570 145.34844 67.19183
#
# Poissons Ratio (x) = 0.51726 -0.12544
# Poissons Ratio (y) = 0.13653 0.24603
# Poissons Ratio (z) = -0.07162 0.53221
#
# Static dielectric constant tensor:
#      x y z
#    x 2.478890 0.000000 -1.420450 
#    y 0.000000 2.267890 0.000000 
#    z -1.420450 0.000000 5.430530 
# 
# From -- ./inp_files/288070.got.cif
#   From: 2010.05.17/outbox.cif.g08.bks.cpg/sg15_145_cif.got.tgz:288070.got - 2010.06.03 18:47:42.
