data_PCOD9289004
_publ_section_title
;
Structure prediction by ZEFSAII (Michael W. Deem and Ramdas Pophale) SiO2 
 PCOD9289004
Probable space group: C 2/C
;
_chemical_formula_sum "Si O2"
_cell_formula_units_Z 56
_cell_length_a 5.632640
_cell_length_b 27.930021
_cell_length_c 20.260678
_cell_angle_alpha 90.000000
_cell_angle_beta 125.300346
_cell_angle_gamma 90.000000
_cell_volume 2601.349805
_symmetry_space_group_name_H-M "C 2/C"
_symmetry_group_IT_number 15
_symmetry_cell_setting 'monoclinic'
loop_
_space_group_symop_operation_xyz
x,y,z
-x,y,1/2-z
-x,-y,-z
x,-y,1/2+z
1/2+x,1/2+y,z
1/2-x,1/2+y,1/2-z
1/2-x,1/2-y,-z
1/2+x,1/2-y,1/2+z
loop_
_atom_site_type_symbol
_atom_site_label
_atom_site_fract_x
_atom_site_fract_y
_atom_site_fract_z
Si Si1 0.823632 0.749925 0.827681
Si Si2 0.393840 0.660194 0.077179
Si Si3 0.026773 0.496992 0.394271
Si Si4 0.838402 0.596888 0.794613
Si Si5 0.757526 0.323830 0.096206
Si Si6 0.590420 0.546837 0.424818
Si Si7 0.190529 0.702386 0.532376
O O1 0.500000 0.741829 0.750000
O O2 0.871306 0.724205 0.905967
O O3 0.893143 0.805804 0.847219
O O4 0.094068 0.720632 0.840243
O O5 0.441002 0.603973 0.086467
O O6 0.384076 0.678840 0.999869
O O7 0.065521 0.673960 0.044431
O O8 0.270966 0.525531 0.391070
O O9 0.208261 0.469137 0.480776
O O10 0.882831 0.457204 0.325190
O O11 0.771972 0.526759 0.390788
O O12 0.500000 0.608995 0.750000
O O13 0.000000 0.602788 0.750000
O O14 0.021874 0.632764 0.869632
O O15 0.460552 0.332598 0.087702
O O16 0.250000 0.750000 0.500000
#
# Coordination Sequence:
#
# PCOD9289004 Si02
#       7
#     8   8   8   8   8   8   8
#     4  11  24  40  58  92 138 175 221 277 344 402
#     4  11  22  40  65  98 130 173 230 286 331 409
#     4  10  22  43  64  98 130 168 217 282 334 409
#     4  12  27  43  67 102 139 181 221 286 359 409
#     4  11  23  40  63  94 130 176 229 276 334 410
#     4  10  22  39  72  96 126 169 226 275 334 392
#     4  11  21  39  65  88 127 178 227 277 331 395
#
# _framework density 21.527286
#
# number of rings (size 3 to 8) (size 9 to 14) (size 15 to 20)
#    0.000    1.143    4.286    2.143    8.000    1.143 
#    0.000    2.143    0.000    1.714    0.000    0.000 
#    0.000    0.000    0.000    0.000    0.000    0.000 
#
# Total GULP energy -156033.209919 kJ/mol
# GULP energy per Si atom -5572.614640 kJ/mol
# Density = 2.147829 g / cm^3
# Si number density = 21.527286 Si / 1000 Ang^3
#
#
#
# Elastic Constant Matrix: (Units=GPa)
#
#
# Indices 1 2 3 4 5 6 
#
# 1 98.5706 23.0534 11.8556 0.0000 20.2623 0.0000
# 2 23.0534 122.0753 7.9177 0.0000 15.0280 0.0000
# 3 11.8556 7.9177 34.4397 0.0000 12.3032 0.0000
# 4 0.0000 0.0000 0.0000 24.4936 0.0000 9.3396
# 5 20.2623 15.0280 12.3032 0.0000 29.0754 0.0000
# 6 0.0000 0.0000 0.0000 9.3396 0.0000 35.2310
#
#
#
# Elastic Compliance Matrix: (Units=1/GPa)
#
#
# Indices 1 2 3 4 5 6 
#
# 1 0.012087 -0.001313 -0.001287 0.000000 -0.007200 0.000000
# 2 -0.001313 0.008897 -0.000327 0.000000 -0.003545 0.000000
# 3 -0.001287 -0.000327 0.034369 0.000000 -0.013477 0.000000
# 4 0.000000 0.000000 0.000000 0.045418 0.000000 -0.012040
# 5 -0.007200 -0.003545 -0.013477 0.000000 0.046946 0.000000
# 6 0.000000 0.000000 0.000000 -0.012040 0.000000 0.031576
#
#
# Mechanical properties :
#
#
# Convention : Reuss Voigt Hill
#
# Bulk Modulus (GPa) = 20.20203 37.85989 29.03096
# Shear Modulus (GPa) = 24.79586 31.91060 28.35323
#
# Velocity S-wave (km/s) = 3.39755 3.85428 3.63310
# Velocity P-wave (km/s) = 4.97955 6.11821 5.57801
#
# Compressibility (1/GPa) = 0.04949996
#
# Stress axis : x y z
#
# Youngs Moduli (GPa) = 82.73432 112.39449 29.09600
#
# Poissons Ratio (x) = 0.14754 0.03744
# Poissons Ratio (y) = 0.10861 0.00951
# Poissons Ratio (z) = 0.10647 0.03675
#
# Static dielectric constant tensor:
#      x y z
#    x 2.327820 0.000000 -0.091890 
#    y 0.000000 1.898330 0.000000 
#    z -0.091890 0.000000 1.771710 
# 
# From -- ./inp_files/228547.got.cif
#   From: 2010.05.17/outbox.cif.g08.bks.cpg/sg15_115_cif.got.tgz:228547.got - 2010.06.03 18:47:42.
