data_PCOD9289180
_publ_section_title
;
Structure prediction by ZEFSAII (Michael W. Deem and Ramdas Pophale) SiO2 
 PCOD9289180
Probable space group: C 2/C
;
_chemical_formula_sum "Si O2"
_cell_formula_units_Z 44
_cell_length_a 8.420063
_cell_length_b 22.217845
_cell_length_c 11.931225
_cell_angle_alpha 90.000000
_cell_angle_beta 81.480523
_cell_angle_gamma 90.000000
_cell_volume 2207.412397
_symmetry_space_group_name_H-M "C 2/C"
_symmetry_group_IT_number 15
_symmetry_cell_setting 'monoclinic'
loop_
_space_group_symop_operation_xyz
x,y,z
-x,y,1/2-z
-x,-y,-z
x,-y,1/2+z
1/2+x,1/2+y,z
1/2-x,1/2+y,1/2-z
1/2-x,1/2-y,-z
1/2+x,1/2-y,1/2+z
loop_
_atom_site_type_symbol
_atom_site_label
_atom_site_fract_x
_atom_site_fract_y
_atom_site_fract_z
Si Si1 0.819189 0.363915 0.337755
Si Si2 0.376847 0.347816 0.920384
Si Si3 0.661430 0.068227 0.283855
Si Si4 0.000000 0.255016 0.250000
Si Si5 0.627605 0.448364 0.950073
Si Si6 0.858651 0.562325 0.634190
O O1 0.715237 0.342738 0.452770
O O2 0.857164 0.303947 0.261298
O O3 0.760081 0.411942 0.252112
O O4 0.976649 0.398558 0.374754
O O5 0.261450 0.384303 0.846424
O O6 0.448903 0.288145 0.856727
O O7 0.524182 0.390617 0.931717
O O8 0.500000 0.096568 0.250000
O O9 0.771875 0.041525 0.173319
O O10 0.606703 0.008659 0.356832
O O11 0.500000 0.500000 0.000000
O O12 0.752434 0.433417 0.035197
#
# Coordination Sequence:
#
# PCOD9289180 Si02
#       6
#     8   8   8   4   8   8
#     4  10  23  44  69  88 125 177 214 261 308 381
#     4  12  23  41  67  94 128 164 212 270 318 372
#     4  12  23  38  62  94 132 168 209 257 320 388
#     4  10  22  46  66  92 122 168 222 258 318 370
#     4  12  24  36  62  96 135 165 204 263 326 376
#     4  10  22  40  61  96 130 169 212 249 320 385
#
# _framework density 19.932841
#
# number of rings (size 3 to 8) (size 9 to 14) (size 15 to 20)
#    0.000    1.091    5.455    2.727    0.000    3.636 
#    0.000    3.636    8.000    0.000    0.000    0.000 
#    0.000    0.000    0.000    0.000    0.000    0.000 
#
# Total GULP energy -122628.446022 kJ/mol
# GULP energy per Si atom -5574.020274 kJ/mol
# Density = 1.988747 g / cm^3
# Si number density = 19.932841 Si / 1000 Ang^3
#
#
#
# Elastic Constant Matrix: (Units=GPa)
#
#
# Indices 1 2 3 4 5 6 
#
# 1 52.7825 12.8315 6.2117 0.0000 6.4871 0.0000
# 2 12.8315 104.3770 15.2972 0.0000 1.9183 0.0000
# 3 6.2117 15.2972 70.4850 0.0000 -15.7551 0.0000
# 4 0.0000 0.0000 0.0000 27.4604 0.0000 -9.4035
# 5 6.4871 1.9183 -15.7551 0.0000 46.0166 0.0000
# 6 0.0000 0.0000 0.0000 -9.4035 0.0000 20.0320
#
#
#
# Elastic Compliance Matrix: (Units=1/GPa)
#
#
# Indices 1 2 3 4 5 6 
#
# 1 0.020129 -0.002104 -0.002092 0.000000 -0.003466 0.000000
# 2 -0.002104 0.010181 -0.002223 0.000000 -0.000889 0.000000
# 3 -0.002092 -0.002223 0.016179 0.000000 0.005927 0.000000
# 4 0.000000 0.000000 0.000000 0.043391 0.000000 0.020369
# 5 -0.003466 -0.000889 0.005927 0.000000 0.024286 0.000000
# 6 0.000000 0.000000 0.000000 0.020369 0.000000 0.059482
#
#
# Mechanical properties :
#
#
# Convention : Reuss Voigt Hill
#
# Bulk Modulus (GPa) = 29.71640 32.92503 31.32071
# Shear Modulus (GPa) = 25.29021 31.58872 28.43947
#
# Velocity S-wave (km/s) = 3.56585 3.98522 3.78135
# Velocity P-wave (km/s) = 5.64750 6.14246 5.90017
#
# Compressibility (1/GPa) = 0.03365145
#
# Stress axis : x y z
#
# Youngs Moduli (GPa) = 49.67842 98.21774 61.80837
#
# Poissons Ratio (x) = 0.20668 0.12931
# Poissons Ratio (y) = 0.10454 0.13739
# Poissons Ratio (z) = 0.10393 0.21833
#
# Static dielectric constant tensor:
#      x y z
#    x 1.718990 0.000000 -0.093670 
#    y 0.000000 1.714970 0.000000 
#    z -0.093670 0.000000 1.817120 
# 
# From -- ./inp_files/78187.got.cif
#   From: 2010.05.17/outbox.cif.g08.bks.cpg/sg15_40_cif.got.tgz:78187.got - 2010.06.03 18:47:42.
