data_PCOD9289207
_publ_section_title
;
Structure prediction by ZEFSAII (Michael W. Deem and Ramdas Pophale) SiO2 
 PCOD9289207
Probable space group: C 2/C
;
_chemical_formula_sum "Si O2"
_cell_formula_units_Z 36
_cell_length_a 8.398156
_cell_length_b 13.084128
_cell_length_c 18.151981
_cell_angle_alpha 90.000000
_cell_angle_beta 107.656432
_cell_angle_gamma 90.000000
_cell_volume 1900.625757
_symmetry_space_group_name_H-M "C 2/C"
_symmetry_group_IT_number 15
_symmetry_cell_setting 'monoclinic'
loop_
_space_group_symop_operation_xyz
x,y,z
-x,y,1/2-z
-x,-y,-z
x,-y,1/2+z
1/2+x,1/2+y,z
1/2-x,1/2+y,1/2-z
1/2-x,1/2-y,-z
1/2+x,1/2-y,1/2+z
loop_
_atom_site_type_symbol
_atom_site_label
_atom_site_fract_x
_atom_site_fract_y
_atom_site_fract_z
Si Si1 0.886519 0.015731 0.368089
Si Si2 0.500000 0.622692 0.750000
Si Si3 0.264598 0.547726 0.006710
Si Si4 0.292094 0.218558 0.131283
Si Si5 0.945528 0.338418 0.507251
O O1 0.766512 0.113313 0.339793
O O2 0.067300 0.053020 0.422585
O O3 0.811628 0.953341 0.427102
O O4 0.918113 0.947627 0.301338
O O5 0.640652 0.695812 0.804906
O O6 0.173581 0.439080 0.010725
O O7 0.129677 0.632060 0.008660
O O8 0.434704 0.199220 0.089699
O O9 0.138126 0.258580 0.059955
#
# Coordination Sequence:
#
# PCOD9289207 Si02
#       5
#     8   4   8   8   8
#     4  10  22  40  62  89 122 163 206 251 316 368
#     4  12  24  44  58  86 142 166 188 278 302 360
#     4   9  18  38  67  91 117 155 209 264 301 365
#     4  10  22  40  62  89 121 165 205 248 324 364
#     4   9  18  38  67  91 115 156 209 261 304 369
#
# _framework density 18.941129
#
# number of rings (size 3 to 8) (size 9 to 14) (size 15 to 20)
#    0.000    2.222    2.222    0.000    3.111    2.667 
#    8.000    0.000    0.000    0.000    0.000    0.000 
#    0.000    0.000    0.000    0.000    0.000    0.000 
#
# Total GULP energy -100512.002405 kJ/mol
# GULP energy per Si atom -5584.000134 kJ/mol
# Density = 1.889802 g / cm^3
# Si number density = 18.941129 Si / 1000 Ang^3
#
#
#
# Elastic Constant Matrix: (Units=GPa)
#
#
# Indices 1 2 3 4 5 6 
#
# 1 132.1579 53.8677 57.3442 0.0000 -21.9229 0.0000
# 2 53.8677 94.8820 71.5430 0.0000 -21.0533 0.0000
# 3 57.3442 71.5430 99.9245 0.0000 -21.2395 0.0000
# 4 0.0000 0.0000 0.0000 20.9398 0.0000 -4.6225
# 5 -21.9229 -21.0533 -21.2395 0.0000 10.5792 0.0000
# 6 0.0000 0.0000 0.0000 -4.6225 0.0000 30.8193
#
#
#
# Elastic Compliance Matrix: (Units=1/GPa)
#
#
# Indices 1 2 3 4 5 6 
#
# 1 0.012002 -0.001082 -0.002240 0.000000 0.018222 0.000000
# 2 -0.001082 0.026397 -0.013239 0.000000 0.023711 0.000000
# 3 -0.002240 -0.013239 0.024745 0.000000 0.018690 0.000000
# 4 0.000000 0.000000 0.000000 0.049391 0.000000 0.007408
# 5 0.018222 0.023711 0.018690 0.000000 0.216996 0.000000
# 6 0.000000 0.000000 0.000000 0.007408 0.000000 0.033558
#
#
# Mechanical properties :
#
#
# Convention : Reuss Voigt Hill
#
# Bulk Modulus (GPa) = 33.30849 76.94158 55.12503
# Shear Modulus (GPa) = 12.30862 22.08162 17.19512
#
# Velocity S-wave (km/s) = 2.55195 3.41809 3.01627
# Velocity P-wave (km/s) = 5.12901 7.50249 6.42628
#
# Compressibility (1/GPa) = 0.03002238
#
# Stress axis : x y z
#
# Youngs Moduli (GPa) = 83.31684 37.88280 40.41291
#
# Poissons Ratio (x) = 0.04098 0.09053
# Poissons Ratio (y) = 0.09013 0.53502
# Poissons Ratio (z) = 0.18665 0.50153
#
# Static dielectric constant tensor:
#      x y z
#    x 1.639270 0.000000 -0.006360 
#    y 0.000000 1.679090 0.000000 
#    z -0.006360 0.000000 1.624820 
# 
# From -- ./inp_files/187577.got.cif
#   From: 2010.05.17/outbox.cif.g08.bks.cpg/sg15_94_cif.got.tgz:187577.got - 2010.06.03 18:47:42.
