data_PCOD9289877
_publ_section_title
;
Structure prediction by ZEFSAII (Michael W. Deem and Ramdas Pophale) SiO2 
 PCOD9289877
Probable space group: C 2/C
;
_chemical_formula_sum "Si O2"
_cell_formula_units_Z 36
_cell_length_a 13.029367
_cell_length_b 11.012883
_cell_length_c 26.527827
_cell_angle_alpha 90.000000
_cell_angle_beta 159.972030
_cell_angle_gamma 90.000000
_cell_volume 1303.646225
_symmetry_space_group_name_H-M "C 2/C"
_symmetry_group_IT_number 15
_symmetry_cell_setting 'monoclinic'
loop_
_space_group_symop_operation_xyz
x,y,z
-x,y,1/2-z
-x,-y,-z
x,-y,1/2+z
1/2+x,1/2+y,z
1/2-x,1/2+y,1/2-z
1/2-x,1/2-y,-z
1/2+x,1/2-y,1/2+z
loop_
_atom_site_type_symbol
_atom_site_label
_atom_site_fract_x
_atom_site_fract_y
_atom_site_fract_z
Si Si1 0.751896 0.483299 0.324747
Si Si2 0.461934 0.206918 0.483445
Si Si3 0.107833 0.666109 0.390530
Si Si4 0.500000 0.893091 0.250000
Si Si5 0.929568 0.975773 0.869877
O O1 0.500000 0.455788 0.250000
O O2 0.861235 0.617332 0.391038
O O3 0.623548 0.471199 0.210445
O O4 0.999875 0.384591 0.452835
O O5 0.742231 0.281503 0.590984
O O6 0.207350 0.303461 0.378239
O O7 0.250000 0.750000 0.500000
O O8 0.244765 0.530432 0.465167
O O9 0.747870 0.653208 0.219061
O O10 0.272981 0.967169 0.179283
#
# Coordination Sequence:
#
# PCOD9289877 Si02
#       5
#     8   8   8   4   8
#     4  11  22  41  68 105 127 183 234 277 339 421
#     4  10  22  40  69  92 143 176 228 284 341 399
#     4  11  23  49  68 104 141 188 223 296 346 409
#     4  10  24  48  62 100 140 184 222 292 344 408
#     4  11  26  44  75 100 140 183 237 281 349 425
#
# _framework density 27.614854000000001
#
# number of rings (size 3 to 8) (size 9 to 14) (size 15 to 20)
#    0.000    1.333    3.333    1.333    3.111    4.444 
#   14.000    0.000    0.000    0.000    0.000    0.000 
#    0.000    0.000    0.000    0.000    0.000    0.000 
#
# Total GULP energy -100730.949270 kJ/mol
# GULP energy per Si atom -5596.163848 kJ/mol
# Density = 2.755200 g / cm^3
# Si number density = 27.614854 Si / 1000 Ang^3
#
#
#
# Elastic Constant Matrix: (Units=GPa)
#
#
# Indices 1 2 3 4 5 6 
#
# 1 81.9718 8.2082 -3.4191 -0.0182 -9.5735 -0.0109
# 2 8.2082 108.7838 28.2420 -0.0242 -12.5316 -0.0068
# 3 -3.4191 28.2420 77.1756 -0.0021 -4.6039 -0.0287
# 4 -0.0182 -0.0242 -0.0021 63.5641 -0.0161 -7.8413
# 5 -9.5735 -12.5316 -4.6039 -0.0161 32.1926 0.0026
# 6 -0.0109 -0.0068 -0.0287 -7.8413 0.0026 22.1971
#
#
#
# Elastic Compliance Matrix: (Units=1/GPa)
#
#
# Indices 1 2 3 4 5 6 
#
# 1 0.012751 -0.000826 0.001083 0.000005 0.003625 0.000009
# 2 -0.000826 0.010606 -0.003718 0.000004 0.003351 -0.000001
# 3 0.001083 -0.003718 0.014422 0.000002 0.000937 0.000019
# 4 0.000005 0.000004 0.000002 0.016449 0.000011 0.005811
# 5 0.003625 0.003351 0.000937 0.000011 0.033580 0.000004
# 6 0.000009 -0.000001 0.000019 0.005811 0.000004 0.047104
#
#
# Mechanical properties :
#
#
# Convention : Reuss Voigt Hill
#
# Bulk Modulus (GPa) = 32.40645 37.11039 34.75842
# Shear Modulus (GPa) = 32.86929 39.25076 36.06003
#
# Velocity S-wave (km/s) = 3.45378 3.77419 3.61753
# Velocity P-wave (km/s) = 5.25979 5.69740 5.48297
#
# Compressibility (1/GPa) = 0.03085806
#
# Stress axis : x y z
#
# Youngs Moduli (GPa) = 78.42776 94.28491 69.33884
#
# Poissons Ratio (x) = 0.07785 -0.07512
# Poissons Ratio (y) = 0.06476 0.25780
# Poissons Ratio (z) = -0.08496 0.35054
#
# Static dielectric constant tensor:
#      x y z
#    x 2.096530 0.000010 -0.023230 
#    y 0.000010 2.243540 -0.000010 
#    z -0.023230 -0.000010 2.301890 
# 
# From -- ./inp_files/126207.got.cif
#   From: 2010.05.17/outbox.cif.g08.bks.cpg/sg15_64_cif.got.tgz:126207.got - 2010.06.03 18:47:42.
