data_PCOD9289701
_publ_section_title
;
Structure prediction by ZEFSAII (Michael W. Deem and Ramdas Pophale) SiO2 
 PCOD9289701
Probable space group: C 2/C
;
_chemical_formula_sum "Si O2"
_cell_formula_units_Z 40
_cell_length_a 19.281749
_cell_length_b 8.389310
_cell_length_c 11.250424
_cell_angle_alpha 90.000000
_cell_angle_beta 100.850317
_cell_angle_gamma 90.000000
_cell_volume 1787.339842
_symmetry_space_group_name_H-M "C 2/C"
_symmetry_group_IT_number 15
_symmetry_cell_setting 'monoclinic'
loop_
_space_group_symop_operation_xyz
x,y,z
-x,y,1/2-z
-x,-y,-z
x,-y,1/2+z
1/2+x,1/2+y,z
1/2-x,1/2+y,1/2-z
1/2-x,1/2-y,-z
1/2+x,1/2-y,1/2+z
loop_
_atom_site_type_symbol
_atom_site_label
_atom_site_fract_x
_atom_site_fract_y
_atom_site_fract_z
Si Si1 0.039540 0.500478 0.642063
Si Si2 0.313666 0.831404 0.856610
Si Si3 0.281266 0.365211 0.111995
Si Si4 0.534390 0.367039 0.645290
Si Si5 0.114804 0.939762 0.999667
O O1 0.110064 0.401034 0.652077
O O2 0.056577 0.685970 0.673992
O O3 0.000000 0.444192 0.750000
O O4 0.000000 0.500000 0.500000
O O5 0.285281 0.737511 0.733001
O O6 0.329476 0.700181 0.962784
O O7 0.267077 0.980359 0.880913
O O8 0.250000 0.250000 0.000000
O O9 0.355564 0.438341 0.088704
O O10 0.500000 0.444130 0.750000
O O11 0.463373 0.365905 0.542747
O O12 0.600533 0.458254 0.613501
#
# Coordination Sequence:
#
# PCOD9289701 Si02
#       5
#     8   8   8   8   8
#     4  11  25  44  74 106 146 190 248 314 382 445
#     4  12  27  46  71 105 144 193 249 305 373 450
#     4  12  28  46  72 101 144 194 244 301 369 454
#     4  10  22  40  67 103 139 182 233 298 369 435
#     4  11  23  43  71  98 144 181 245 295 374 431
#
# _framework density 22.379626999999999
#
# number of rings (size 3 to 8) (size 9 to 14) (size 15 to 20)
#    0.000    0.800    2.000    4.200    5.600    4.000 
#    0.000    0.000    0.000    0.000    0.000    0.000 
#    0.000    0.000    0.000    0.000    0.000    0.000 
#
# Total GULP energy -111711.589648 kJ/mol
# GULP energy per Si atom -5585.579482 kJ/mol
# Density = 2.232869 g / cm^3
# Si number density = 22.379627 Si / 1000 Ang^3
#
#
#
# Elastic Constant Matrix: (Units=GPa)
#
#
# Indices 1 2 3 4 5 6 
#
# 1 85.2344 49.2142 25.1742 0.0000 -18.6185 0.0000
# 2 49.2142 123.5295 34.7901 0.0000 -3.3046 0.0000
# 3 25.1742 34.7901 78.0175 0.0000 -8.3859 0.0000
# 4 0.0000 0.0000 0.0000 34.4074 0.0000 -4.0941
# 5 -18.6185 -3.3046 -8.3859 0.0000 39.2171 0.0000
# 6 0.0000 0.0000 0.0000 -4.0941 0.0000 52.6848
#
#
#
# Elastic Compliance Matrix: (Units=1/GPa)
#
#
# Indices 1 2 3 4 5 6 
#
# 1 0.017539 -0.006198 -0.002105 0.000000 0.007354 0.000000
# 2 -0.006198 0.011449 -0.003396 0.000000 -0.002704 0.000000
# 3 -0.002105 -0.003396 0.015223 0.000000 0.001970 0.000000
# 4 0.000000 0.000000 0.000000 0.029335 0.000000 0.002280
# 5 0.007354 -0.002704 0.001970 0.000000 0.029184 0.000000
# 6 0.000000 0.000000 0.000000 0.002280 0.000000 0.019158
#
#
# Mechanical properties :
#
#
# Convention : Reuss Voigt Hill
#
# Bulk Modulus (GPa) = 48.04756 56.12650 52.08703
# Shear Modulus (GPa) = 32.84647 37.10205 34.97426
#
# Velocity S-wave (km/s) = 3.83521 4.07609 3.95748
# Velocity P-wave (km/s) = 6.41309 6.87651 6.64884
#
# Compressibility (1/GPa) = 0.02081271
#
# Stress axis : x y z
#
# Youngs Moduli (GPa) = 57.01462 87.34673 65.69032
#
# Poissons Ratio (x) = 0.54138 0.13828
# Poissons Ratio (y) = 0.35338 0.22308
# Poissons Ratio (z) = 0.12002 0.29662
#
# Static dielectric constant tensor:
#      x y z
#    x 1.816800 0.000000 0.026130 
#    y 0.000000 1.811420 0.000000 
#    z 0.026130 0.000000 2.003540 
# 
# From -- ./inp_files/102801.got.cif
#   From: 2010.05.17/outbox.cif.g08.bks.cpg/sg15_52_cif.got.tgz:102801.got - 2010.06.03 18:47:42.
