data_PCOD9289079
_publ_section_title
;
Structure prediction by ZEFSAII (Michael W. Deem and Ramdas Pophale) SiO2 
 PCOD9289079
Probable space group: C 2/C
;
_chemical_formula_sum "Si O2"
_cell_formula_units_Z 36
_cell_length_a 12.005869
_cell_length_b 12.404129
_cell_length_c 11.819216
_cell_angle_alpha 90.000000
_cell_angle_beta 111.121124
_cell_angle_gamma 90.000000
_cell_volume 1641.900143
_symmetry_space_group_name_H-M "C 2/C"
_symmetry_group_IT_number 15
_symmetry_cell_setting 'monoclinic'
loop_
_space_group_symop_operation_xyz
x,y,z
-x,y,1/2-z
-x,-y,-z
x,-y,1/2+z
1/2+x,1/2+y,z
1/2-x,1/2+y,1/2-z
1/2-x,1/2-y,-z
1/2+x,1/2-y,1/2+z
loop_
_atom_site_type_symbol
_atom_site_label
_atom_site_fract_x
_atom_site_fract_y
_atom_site_fract_z
Si Si1 0.802968 0.909058 0.629890
Si Si2 0.000000 0.721776 0.250000
Si Si3 0.455271 0.337603 0.899365
Si Si4 0.676217 0.649298 0.922604
Si Si5 0.466765 0.124364 0.478904
O O1 0.856972 0.879973 0.773696
O O2 0.675207 0.854909 0.561562
O O3 0.773925 0.035282 0.597640
O O4 0.085746 0.122649 0.409115
O O5 0.887258 0.800004 0.209072
O O6 0.002530 0.654498 0.364127
O O7 0.418230 0.374423 0.011235
O O8 0.465087 0.206993 0.912679
O O9 0.750000 0.750000 0.000000
O O10 0.500000 0.000000 0.500000
#
# Coordination Sequence:
#
# PCOD9289079 Si02
#       5
#     8   4   8   8   8
#     4  11  22  40  66  94 127 164 210 273 322 380
#     4  10  22  40  60  86 120 162 208 252 314 396
#     4  10  23  41  62  95 127 167 216 261 327 390
#     4  11  22  41  65  90 124 168 214 259 319 391
#     4  11  24  42  64  92 128 168 214 270 326 386
#
# _framework density 21.925815
#
# number of rings (size 3 to 8) (size 9 to 14) (size 15 to 20)
#    0.000    1.333    0.000    6.667    0.000    3.556 
#    0.000    6.667    0.000    0.000    0.000    0.000 
#    0.000    0.000    0.000    0.000    0.000    0.000 
#
# Total GULP energy -100431.076687 kJ/mol
# GULP energy per Si atom -5579.504260 kJ/mol
# Density = 2.187591 g / cm^3
# Si number density = 21.925815 Si / 1000 Ang^3
#
#
#
# Elastic Constant Matrix: (Units=GPa)
#
#
# Indices 1 2 3 4 5 6 
#
# 1 82.6032 12.3617 22.2747 0.0000 10.7277 0.0000
# 2 12.3617 139.9442 47.6830 0.0000 7.5833 0.0000
# 3 22.2747 47.6830 81.7826 0.0000 3.7098 0.0000
# 4 0.0000 0.0000 0.0000 31.7645 0.0000 3.5810
# 5 10.7277 7.5833 3.7098 0.0000 36.1367 0.0000
# 6 0.0000 0.0000 0.0000 3.5810 0.0000 35.0294
#
#
#
# Elastic Compliance Matrix: (Units=1/GPa)
#
#
# Indices 1 2 3 4 5 6 
#
# 1 0.013537 0.000254 -0.003668 0.000000 -0.003695 0.000000
# 2 0.000254 0.008987 -0.005245 0.000000 -0.001423 0.000000
# 3 -0.003668 -0.005245 0.016261 0.000000 0.000520 0.000000
# 4 0.000000 0.000000 0.000000 0.031849 0.000000 -0.003256
# 5 -0.003695 -0.001423 0.000520 0.000000 0.029015 0.000000
# 6 0.000000 0.000000 0.000000 -0.003256 0.000000 0.028880
#
#
# Mechanical properties :
#
#
# Convention : Reuss Voigt Hill
#
# Bulk Modulus (GPa) = 46.57908 52.10764 49.34336
# Shear Modulus (GPa) = 32.67940 35.38684 34.03312
#
# Velocity S-wave (km/s) = 3.86483 4.02174 3.94406
# Velocity P-wave (km/s) = 6.41918 6.73668 6.57985
#
# Compressibility (1/GPa) = 0.02146886
#
# Stress axis : x y z
#
# Youngs Moduli (GPa) = 73.87191 111.26695 61.49775
#
# Poissons Ratio (x) = -0.02828 0.22554
# Poissons Ratio (y) = -0.01877 0.32254
# Poissons Ratio (z) = 0.27093 0.58356
#
# Static dielectric constant tensor:
#      x y z
#    x 1.858570 0.000000 0.009410 
#    y 0.000000 1.848890 0.000000 
#    z 0.009410 0.000000 1.732770 
# 
# From -- ./inp_files/141384.got.cif
#   From: 2010.05.17/outbox.cif.g08.bks.cpg/sg15_71_cif.got.tgz:141384.got - 2010.06.03 18:47:42.
