data_PCOD9289334
_publ_section_title
;
Structure prediction by ZEFSAII (Michael W. Deem and Ramdas Pophale) SiO2 
 PCOD9289334
Probable space group: C 2/C
;
_chemical_formula_sum "Si O2"
_cell_formula_units_Z 64
_cell_length_a 27.017688
_cell_length_b 14.048591
_cell_length_c 8.575407
_cell_angle_alpha 90.000000
_cell_angle_beta 83.048086
_cell_angle_gamma 90.000000
_cell_volume 3230.955677
_symmetry_space_group_name_H-M "C 2/C"
_symmetry_group_IT_number 15
_symmetry_cell_setting 'monoclinic'
loop_
_space_group_symop_operation_xyz
x,y,z
-x,y,1/2-z
-x,-y,-z
x,-y,1/2+z
1/2+x,1/2+y,z
1/2-x,1/2+y,1/2-z
1/2-x,1/2-y,-z
1/2+x,1/2-y,1/2+z
loop_
_atom_site_type_symbol
_atom_site_label
_atom_site_fract_x
_atom_site_fract_y
_atom_site_fract_z
Si Si1 0.753139 0.976453 0.604756
Si Si2 0.137799 0.212095 0.324052
Si Si3 0.943087 0.635696 0.750554
Si Si4 0.099176 0.505497 0.470120
Si Si5 0.336795 0.683132 0.818871
Si Si6 0.329855 0.521052 0.319588
Si Si7 0.235970 0.689181 0.659347
Si Si8 0.154697 0.611427 0.199204
O O1 0.805263 0.988927 0.492467
O O2 0.728231 0.079605 0.615095
O O3 0.776740 0.953233 0.761748
O O4 0.709672 0.899727 0.601587
O O5 0.090888 0.278934 0.303136
O O6 0.149218 0.193613 0.503166
O O7 0.136889 0.112535 0.227378
O O8 0.185973 0.268521 0.246185
O O9 0.938754 0.546489 0.632205
O O10 0.000000 0.664727 0.750000
O O11 0.921864 0.592604 0.920687
O O12 0.145638 0.542107 0.348386
O O13 0.117575 0.425296 0.581914
O O14 0.354190 0.578855 0.756405
O O15 0.279553 0.685848 0.775052
O O16 0.356899 0.781924 0.743092
O O17 0.250000 0.750000 0.500000
#
# Coordination Sequence:
#
# PCOD9289334 Si02
#       8
#     8   8   8   8   8   8   8   8
#     4  11  22  33  52  86 128 164 209 242 304 368
#     4  12  23  42  59  89 123 164 217 258 314 377
#     4  11  24  43  69  95 125 164 209 270 326 379
#     4  10  22  40  63  96 127 157 201 253 323 390
#     4  11  25  38  58  88 128 167 209 253 308 371
#     4  11  23  37  54  80 121 175 209 256 295 362
#     4  11  23  35  57  88 126 165 206 247 303 373
#     4  11  22  36  60  93 127 165 201 256 307 377
#
# _framework density 19.80838
#
# number of rings (size 3 to 8) (size 9 to 14) (size 15 to 20)
#    0.000    1.000    3.750    3.750    7.000    0.000 
#    0.000    0.000    0.000    0.750    0.000    0.000 
#    0.000    0.000    0.000    0.000    0.000    0.000 
#
# Total GULP energy -178317.332393 kJ/mol
# GULP energy per Si atom -5572.416637 kJ/mol
# Density = 1.976330 g / cm^3
# Si number density = 19.808380 Si / 1000 Ang^3
#
#
#
# Elastic Constant Matrix: (Units=GPa)
#
#
# Indices 1 2 3 4 5 6 
#
# 1 73.5609 45.0537 45.1484 0.0000 14.2179 0.0000
# 2 45.0537 120.8172 13.1285 0.0000 4.4670 0.0000
# 3 45.1484 13.1285 63.3254 0.0000 11.9991 0.0000
# 4 0.0000 0.0000 0.0000 25.6443 0.0000 3.5915
# 5 14.2179 4.4670 11.9991 0.0000 14.8437 0.0000
# 6 0.0000 0.0000 0.0000 3.5915 0.0000 24.6194
#
#
#
# Elastic Compliance Matrix: (Units=1/GPa)
#
#
# Indices 1 2 3 4 5 6 
#
# 1 0.035041 -0.010354 -0.020154 0.000000 -0.014156 0.000000
# 2 -0.010354 0.011549 0.004448 0.000000 0.002846 0.000000
# 3 -0.020154 0.004448 0.030507 0.000000 -0.006695 0.000000
# 4 0.000000 0.000000 0.000000 0.039808 0.000000 -0.005807
# 5 -0.014156 0.002846 -0.006695 0.000000 0.085483 0.000000
# 6 0.000000 0.000000 0.000000 -0.005807 0.000000 0.041465
#
#
# Mechanical properties :
#
#
# Convention : Reuss Voigt Hill
#
# Bulk Modulus (GPa) = 40.03501 51.59608 45.81554
# Shear Modulus (GPa) = 16.43111 23.31300 19.87206
#
# Velocity S-wave (km/s) = 2.88323 3.43436 3.17079
# Velocity P-wave (km/s) = 5.59813 6.46766 6.04854
#
# Compressibility (1/GPa) = 0.02497814
#
# Stress axis : x y z
#
# Youngs Moduli (GPa) = 28.53761 86.58455 32.77947
#
# Poissons Ratio (x) = 0.89648 0.66064
# Poissons Ratio (y) = 0.29547 -0.14581
# Poissons Ratio (z) = 0.57515 -0.38514
#
# Static dielectric constant tensor:
#      x y z
#    x 1.652190 0.000000 -0.025770 
#    y 0.000000 1.766270 0.000000 
#    z -0.025770 0.000000 1.863280 
# 
# From -- ./inp_files/61923.got.cif
#   From: 2010.05.17/outbox.cif.g08.bks.cpg/sg15_31_cif.got.tgz:61923.got - 2010.06.03 18:47:42.
