data_PCOD9289921
_publ_section_title
;
Structure prediction by ZEFSAII (Michael W. Deem and Ramdas Pophale) SiO2 
 PCOD9289921
Probable space group: C 2/C
;
_chemical_formula_sum "Si O2"
_cell_formula_units_Z 56
_cell_length_a 9.086993
_cell_length_b 33.024377
_cell_length_c 11.320257
_cell_angle_alpha 90.000000
_cell_angle_beta 54.945299
_cell_angle_gamma 90.000000
_cell_volume 2780.897703
_symmetry_space_group_name_H-M "C 2/C"
_symmetry_group_IT_number 15
_symmetry_cell_setting 'monoclinic'
loop_
_space_group_symop_operation_xyz
x,y,z
-x,y,1/2-z
-x,-y,-z
x,-y,1/2+z
1/2+x,1/2+y,z
1/2-x,1/2+y,1/2-z
1/2-x,1/2-y,-z
1/2+x,1/2-y,1/2+z
loop_
_atom_site_type_symbol
_atom_site_label
_atom_site_fract_x
_atom_site_fract_y
_atom_site_fract_z
Si Si1 0.532490 0.348105 0.015925
Si Si2 0.985170 0.623397 0.613006
Si Si3 0.645905 0.590091 0.081204
Si Si4 0.889804 0.000339 0.427517
Si Si5 0.788841 0.725714 0.359437
Si Si6 0.191930 0.915589 0.101998
Si Si7 0.168842 0.700819 0.760736
O O1 0.657814 0.373865 0.047497
O O2 0.351254 0.323301 0.137535
O O3 0.450759 0.384480 0.976246
O O4 0.664314 0.313773 0.905554
O O5 0.841552 0.591953 0.630903
O O6 0.919850 0.668266 0.610180
O O7 0.000000 0.621402 0.750000
O O8 0.176196 0.614378 0.469201
O O9 0.500000 0.588334 0.250000
O O10 0.704139 0.544252 0.024425
O O11 0.000000 0.001512 0.250000
O O12 0.777946 0.958332 0.477948
O O13 0.000000 0.000000 0.500000
O O14 0.750000 0.750000 0.500000
O O15 0.732731 0.757552 0.285038
O O16 0.000000 0.716614 0.250000
O O17 0.000000 0.921018 0.250000
O O18 0.000000 0.708068 0.750000
#
# Coordination Sequence:
#
# PCOD9289921 Si02
#       7
#     8   8   8   8   8   8   8
#     4  12  23  43  70  97 136 178 228 285 345 409
#     4  11  22  40  70 102 129 178 240 283 333 417
#     4  11  24  44  66  99 146 175 219 296 348 395
#     4  10  22  40  70 105 141 185 235 286 353 418
#     4  12  27  45  67 100 140 174 224 288 342 407
#     4  11  21  38  73  99 129 189 234 278 341 424
#     4  11  23  44  69 101 129 176 236 284 333 420
#
# _framework density 20.137381999999999
#
# number of rings (size 3 to 8) (size 9 to 14) (size 15 to 20)
#    0.000    0.857    7.143    0.857    2.000    4.000 
#    0.000    0.000    0.000    0.000    0.000    0.000 
#    0.000    0.000    0.000    0.000    0.000    0.000 
#
# Total GULP energy -155917.718250 kJ/mol
# GULP energy per Si atom -5568.489937 kJ/mol
# Density = 2.009155 g / cm^3
# Si number density = 20.137382 Si / 1000 Ang^3
#
#
#
# Elastic Constant Matrix: (Units=GPa)
#
#
# Indices 1 2 3 4 5 6 
#
# 1 123.4114 51.7332 26.6285 0.0000 -11.3369 0.0000
# 2 51.7332 161.9591 27.3244 0.0000 -4.3319 0.0000
# 3 26.6285 27.3244 44.4555 0.0000 -14.6092 0.0000
# 4 0.0000 0.0000 0.0000 9.6054 0.0000 -4.4543
# 5 -11.3369 -4.3319 -14.6092 0.0000 38.6987 0.0000
# 6 0.0000 0.0000 0.0000 -4.4543 0.0000 -8.7628
#
#
#
# Elastic Compliance Matrix: (Units=1/GPa)
#
#
# Indices 1 2 3 4 5 6 
#
# 1 0.010159 -0.002511 -0.004174 0.000000 0.001119 0.000000
# 2 -0.002511 0.007540 -0.003533 0.000000 -0.001225 0.000000
# 3 -0.004174 -0.003533 0.030407 0.000000 0.009861 0.000000
# 4 0.000000 0.000000 0.000000 0.084249 0.000000 -0.042825
# 5 0.001119 -0.001225 0.009861 0.000000 0.029754 0.000000
# 6 0.000000 0.000000 0.000000 -0.042825 0.000000 -0.092350
#
#
# Mechanical properties :
#
#
# Convention : Reuss Voigt Hill
#
# Bulk Modulus (GPa) = 36.14071 60.13312 48.13691
# Shear Modulus (GPa) = 50.29334 22.85092 36.57213
#
# Velocity S-wave (km/s) = 5.00293 3.37226 4.26623
# Velocity P-wave (km/s) = 7.16648 6.71484 6.94434
#
# Compressibility (1/GPa) = 0.02766963
#
# Stress axis : x y z
#
# Youngs Moduli (GPa) = 98.43532 132.63141 32.88760
#
# Poissons Ratio (x) = 0.33302 0.13727
# Poissons Ratio (y) = 0.24716 0.11619
# Poissons Ratio (z) = 0.41087 0.46858
#
# Static dielectric constant tensor:
#      x y z
#    x 1.724840 0.000000 0.044540 
#    y 0.000000 1.781760 0.000000 
#    z 0.044540 0.000000 1.760740 
# 
# From -- ./inp_files/82447.got.cif
#   From: 2010.05.17/outbox.cif.g08.bks.cpg/sg15_42_cif.got.tgz:82447.got - 2010.06.03 18:47:42.
