data_PCOD9289568
_publ_section_title
;
Structure prediction by ZEFSAII (Michael W. Deem and Ramdas Pophale) SiO2 
 PCOD9289568
Probable space group: C 2/C
;
_chemical_formula_sum "Si O2"
_cell_formula_units_Z 44
_cell_length_a 11.447728
_cell_length_b 31.177992
_cell_length_c 5.232974
_cell_angle_alpha 90.000000
_cell_angle_beta 90.153544
_cell_angle_gamma 90.000000
_cell_volume 1867.731575
_symmetry_space_group_name_H-M "C 2/C"
_symmetry_group_IT_number 15
_symmetry_cell_setting 'monoclinic'
loop_
_space_group_symop_operation_xyz
x,y,z
-x,y,1/2-z
-x,-y,-z
x,-y,1/2+z
1/2+x,1/2+y,z
1/2-x,1/2+y,1/2-z
1/2-x,1/2-y,-z
1/2+x,1/2-y,1/2+z
loop_
_atom_site_type_symbol
_atom_site_label
_atom_site_fract_x
_atom_site_fract_y
_atom_site_fract_z
Si Si1 0.500000 0.428903 0.750000
Si Si2 0.000000 0.129213 0.750000
Si Si3 0.751081 0.027313 0.204107
Si Si4 0.691561 0.681400 0.456432
Si Si5 0.628110 0.116667 0.128489
Si Si6 0.000000 0.666753 0.750000
Si Si7 0.851443 0.737655 0.811386
O O1 0.524634 0.400013 0.499249
O O2 0.614503 0.456966 0.807692
O O3 0.109682 0.157832 0.661059
O O4 0.669781 0.068375 0.153938
O O5 0.730279 0.007109 0.481322
O O6 0.762211 0.646396 0.289540
O O7 0.792207 0.709599 0.588972
O O8 0.616332 0.716336 0.304425
O O9 0.500000 0.122830 0.250000
O O10 0.599708 0.134204 0.844419
O O11 0.943144 0.703838 0.932880
O O12 0.750000 0.750000 0.000000
#
# Coordination Sequence:
#
# PCOD9289568 Si02
#       7
#     4   4   8   8   8   4   8
#     4  12  26  50  80 112 152 198 242 316 401 467
#     4  12  26  43  80 112 151 193 260 310 382 453
#     4  12  28  50  81 114 152 194 254 319 392 467
#     4  10  24  42  65 110 145 203 256 315 370 453
#     4  11  25  47  74 104 152 200 258 306 389 456
#     4  10  24  41  70 100 145 209 244 314 371 444
#     4  10  22  40  65  99 148 197 256 306 373 432
#
# _framework density 23.557991999999999
#
# number of rings (size 3 to 8) (size 9 to 14) (size 15 to 20)
#    0.000    1.091    1.818    2.727    7.636    2.182 
#    3.273    0.000    0.000    0.000    0.000    0.000 
#    0.000    0.000    0.000    0.000    0.000    0.000 
#
# Total GULP energy -122809.732082 kJ/mol
# GULP energy per Si atom -5582.260549 kJ/mol
# Density = 2.350437 g / cm^3
# Si number density = 23.557992 Si / 1000 Ang^3
#
#
#
# Elastic Constant Matrix: (Units=GPa)
#
#
# Indices 1 2 3 4 5 6 
#
# 1 125.8422 52.7018 16.0043 0.0000 -3.3435 0.0000
# 2 52.7018 129.5259 25.0586 0.0000 9.3167 0.0000
# 3 16.0043 25.0586 72.7210 0.0000 -0.5866 0.0000
# 4 0.0000 0.0000 0.0000 25.6180 0.0000 -11.6610
# 5 -3.3435 9.3167 -0.5866 0.0000 37.2625 0.0000
# 6 0.0000 0.0000 0.0000 -11.6610 0.0000 34.0608
#
#
#
# Elastic Compliance Matrix: (Units=1/GPa)
#
#
# Indices 1 2 3 4 5 6 
#
# 1 0.009748 -0.003951 -0.000769 0.000000 0.001850 0.000000
# 2 -0.003951 0.010043 -0.002615 0.000000 -0.002907 0.000000
# 3 -0.000769 -0.002615 0.014828 0.000000 0.000818 0.000000
# 4 0.000000 0.000000 0.000000 0.046241 0.000000 0.015831
# 5 0.001850 -0.002907 0.000818 0.000000 0.027742 0.000000
# 6 0.000000 0.000000 0.000000 0.015831 0.000000 0.034779
#
#
# Mechanical properties :
#
#
# Convention : Reuss Voigt Hill
#
# Bulk Modulus (GPa) = 50.12477 57.29092 53.70785
# Shear Modulus (GPa) = 30.35828 35.00988 32.68408
#
# Velocity S-wave (km/s) = 3.59369 3.85920 3.72881
# Velocity P-wave (km/s) = 6.20829 6.65055 6.43322
#
# Compressibility (1/GPa) = 0.01995022
#
# Stress axis : x y z
#
# Youngs Moduli (GPa) = 102.58635 99.57416 67.43999
#
# Poissons Ratio (x) = 0.39337 0.05187
# Poissons Ratio (y) = 0.40527 0.17633
# Poissons Ratio (z) = 0.07890 0.26035
#
# Static dielectric constant tensor:
#      x y z
#    x 2.048370 0.000000 0.048700 
#    y 0.000000 1.968820 0.000000 
#    z 0.048700 0.000000 2.020920 
# 
# From -- ./inp_files/5820.got.cif
#   From: 2010.05.17/outbox.cif.g08.bks.cpg/sg15_3_cif.got.tgz:5820.got - 2010.06.03 18:47:42.
