data_PCOD9289066
_publ_section_title
;
Structure prediction by ZEFSAII (Michael W. Deem and Ramdas Pophale) SiO2 
 PCOD9289066
Probable space group: C 2/C
;
_chemical_formula_sum "Si O2"
_cell_formula_units_Z 56
_cell_length_a 27.618421
_cell_length_b 6.539140
_cell_length_c 23.577482
_cell_angle_alpha 90.000000
_cell_angle_beta 139.565064
_cell_angle_gamma 90.000000
_cell_volume 2761.742727
_symmetry_space_group_name_H-M "C 2/C"
_symmetry_group_IT_number 15
_symmetry_cell_setting 'monoclinic'
loop_
_space_group_symop_operation_xyz
x,y,z
-x,y,1/2-z
-x,-y,-z
x,-y,1/2+z
1/2+x,1/2+y,z
1/2-x,1/2+y,1/2-z
1/2-x,1/2-y,-z
1/2+x,1/2-y,1/2+z
loop_
_atom_site_type_symbol
_atom_site_label
_atom_site_fract_x
_atom_site_fract_y
_atom_site_fract_z
Si Si1 0.589159 0.474928 0.331624
Si Si2 0.220072 0.421118 0.118360
Si Si3 0.605855 0.570503 0.978124
Si Si4 0.902567 0.321279 0.949084
Si Si5 0.022623 0.358556 0.603187
Si Si6 0.286939 0.751427 0.094373
Si Si7 0.846571 0.347868 0.698853
O O1 0.500000 0.477119 0.250000
O O2 0.613799 0.480974 0.419162
O O3 0.628921 0.665968 0.337016
O O4 0.622294 0.279869 0.327232
O O5 0.173215 0.543960 0.123603
O O6 0.239823 0.592546 0.089549
O O7 0.297982 0.303334 0.195715
O O8 0.164054 0.247939 0.045844
O O9 0.524412 0.671442 0.913478
O O10 0.611960 0.379480 0.026253
O O11 0.937425 0.284629 0.918703
O O12 0.964381 0.461566 0.036193
O O13 0.084302 0.427865 0.703056
O O14 0.294355 0.971294 0.129616
O O15 0.250000 0.750000 0.000000
#
# Coordination Sequence:
#
# PCOD9289066 Si02
#       7
#     8   8   8   8   8   8   8
#     4  11  23  37  60  97 125 162 208 252 314 380
#     4  10  22  40  59  93 120 162 215 247 312 377
#     4  11  21  41  66  88 127 163 206 264 312 378
#     4  10  22  41  66  89 119 169 217 257 319 376
#     4  10  23  41  62  94 122 163 214 262 316 380
#     4  11  23  40  62  91 127 171 203 246 315 382
#     4  11  23  41  61  91 135 163 204 271 315 370
#
# _framework density 20.277052000000001
#
# number of rings (size 3 to 8) (size 9 to 14) (size 15 to 20)
#    0.000    1.429    1.429    3.857    2.000    4.000 
#    5.143    0.000    0.000    0.000    0.000    0.000 
#    0.000    0.000    0.000    0.000    0.000    0.000 
#
# Total GULP energy -156335.499903 kJ/mol
# GULP energy per Si atom -5583.410711 kJ/mol
# Density = 2.023090 g / cm^3
# Si number density = 20.277052 Si / 1000 Ang^3
#
#
#
# Elastic Constant Matrix: (Units=GPa)
#
#
# Indices 1 2 3 4 5 6 
#
# 1 101.1556 29.5012 23.2508 -0.0001 17.8196 0.0003
# 2 29.5012 77.5330 36.8353 0.0001 7.8707 0.0008
# 3 23.2508 36.8353 47.4961 0.0002 8.7566 0.0000
# 4 -0.0001 0.0001 0.0002 20.5830 -0.0001 7.8513
# 5 17.8196 7.8707 8.7566 -0.0001 33.1459 0.0000
# 6 0.0003 0.0008 0.0000 7.8513 0.0000 29.1672
#
#
#
# Elastic Compliance Matrix: (Units=1/GPa)
#
#
# Indices 1 2 3 4 5 6 
#
# 1 0.012271 -0.002760 -0.002913 0.000000 -0.005172 0.000000
# 2 -0.002760 0.021059 -0.015066 0.000000 0.000464 -0.000001
# 3 -0.002913 -0.015066 0.034917 -0.000001 -0.004081 0.000001
# 4 0.000000 0.000000 -0.000001 0.054143 0.000000 -0.014574
# 5 -0.005172 0.000464 -0.004081 0.000000 0.033918 0.000000
# 6 0.000000 -0.000001 0.000001 -0.014574 0.000000 0.038208
#
#
# Mechanical properties :
#
#
# Convention : Reuss Voigt Hill
#
# Bulk Modulus (GPa) = 37.35730 45.03993 41.19862
# Shear Modulus (GPa) = 20.41491 25.68573 23.05032
#
# Velocity S-wave (km/s) = 3.17645 3.56299 3.37526
# Velocity P-wave (km/s) = 5.64947 6.25995 5.96253
#
# Compressibility (1/GPa) = 0.02676853
#
# Stress axis : x y z
#
# Youngs Moduli (GPa) = 81.48984 47.48605 28.63913
#
# Poissons Ratio (x) = 0.13108 0.08342
# Poissons Ratio (y) = 0.22494 0.43148
# Poissons Ratio (z) = 0.23738 0.71544
#
# Static dielectric constant tensor:
#      x y z
#    x 1.709210 0.000000 0.045550 
#    y 0.000000 1.699490 0.000000 
#    z 0.045550 0.000000 1.708280 
# 
# From -- ./inp_files/302936.got.cif
#   From: 2010.05.17/outbox.cif.g08.bks.cpg/sg15_152_cif.got.tgz:302936.got - 2010.06.03 18:47:42.
