data_PCOD9289895
_publ_section_title
;
Structure prediction by ZEFSAII (Michael W. Deem and Ramdas Pophale) SiO2 
 PCOD9289895
Probable space group: C 2/C
;
_chemical_formula_sum "Si O2"
_cell_formula_units_Z 40
_cell_length_a 14.267285
_cell_length_b 23.179757
_cell_length_c 8.469730
_cell_angle_alpha 90.000000
_cell_angle_beta 40.955533
_cell_angle_gamma 90.000000
_cell_volume 1836.008375
_symmetry_space_group_name_H-M "C 2/C"
_symmetry_group_IT_number 15
_symmetry_cell_setting 'monoclinic'
loop_
_space_group_symop_operation_xyz
x,y,z
-x,y,1/2-z
-x,-y,-z
x,-y,1/2+z
1/2+x,1/2+y,z
1/2-x,1/2+y,1/2-z
1/2-x,1/2-y,-z
1/2+x,1/2-y,1/2+z
loop_
_atom_site_type_symbol
_atom_site_label
_atom_site_fract_x
_atom_site_fract_y
_atom_site_fract_z
Si Si1 0.838734 0.894385 0.015408
Si Si2 0.085426 0.693822 0.302122
Si Si3 0.359973 0.898311 0.505881
Si Si4 0.112683 0.178756 0.738148
Si Si5 0.884108 0.977649 0.522467
O O1 0.841128 0.864804 0.182994
O O2 0.809528 0.963224 0.058825
O O3 0.730209 0.870240 0.023299
O O4 0.000000 0.888098 0.750000
O O5 0.074620 0.648423 0.456712
O O6 0.055330 0.760587 0.383539
O O7 0.000000 0.679456 0.250000
O O8 0.248724 0.691261 0.041341
O O9 0.239726 0.936496 0.751482
O O10 0.500000 0.928796 0.250000
O O11 0.000000 0.160469 0.750000
O O12 0.000000 0.000000 0.500000
O O13 0.000000 0.954271 0.250000
#
# Coordination Sequence:
#
# PCOD9289895 Si02
#       5
#     8   8   8   8   8
#     4  11  23  41  67  99 130 175 232 279 333 398
#     4  10  23  43  64  97 138 179 221 276 339 407
#     4  12  26  43  67 101 142 180 223 284 352 399
#     4  10  22  40  69  98 129 180 234 271 330 403
#     4  11  24  46  69  98 135 175 229 285 329 406
#
# _framework density 21.786391999999999
#
# number of rings (size 3 to 8) (size 9 to 14) (size 15 to 20)
#    0.000    1.200    4.000    2.400    2.800    2.400 
#    0.000    2.000    0.000    0.000    0.000    0.000 
#    0.000    0.000    0.000    0.000    0.000    0.000 
#
# Total GULP energy -111534.488110 kJ/mol
# GULP energy per Si atom -5576.724405 kJ/mol
# Density = 2.173681 g / cm^3
# Si number density = 21.786392 Si / 1000 Ang^3
#
#
#
# Elastic Constant Matrix: (Units=GPa)
#
#
# Indices 1 2 3 4 5 6 
#
# 1 152.7364 43.8196 27.9674 0.0000 -5.1175 0.0000
# 2 43.8196 116.8456 46.3813 0.0000 13.6675 0.0000
# 3 27.9674 46.3813 130.3701 0.0000 -5.8765 0.0000
# 4 0.0000 0.0000 0.0000 23.7277 0.0000 10.7691
# 5 -5.1175 13.6675 -5.8765 0.0000 31.4829 0.0000
# 6 0.0000 0.0000 0.0000 10.7691 0.0000 34.4787
#
#
#
# Elastic Compliance Matrix: (Units=1/GPa)
#
#
# Indices 1 2 3 4 5 6 
#
# 1 0.007554 -0.002929 -0.000470 0.000000 0.002412 0.000000
# 2 -0.002929 0.011959 -0.003915 0.000000 -0.006398 0.000000
# 3 -0.000470 -0.003915 0.009316 0.000000 0.003362 0.000000
# 4 0.000000 0.000000 0.000000 0.049106 0.000000 -0.015338
# 5 0.002412 -0.006398 0.003362 0.000000 0.035560 0.000000
# 6 0.000000 0.000000 0.000000 -0.015338 0.000000 0.033794
#
#
# Mechanical properties :
#
#
# Convention : Reuss Voigt Hill
#
# Bulk Modulus (GPa) = 70.41156 70.69874 70.55515
# Shear Modulus (GPa) = 30.00299 36.72344 33.36321
#
# Velocity S-wave (km/s) = 3.71501 4.11008 3.91753
# Velocity P-wave (km/s) = 7.12678 7.41923 7.27447
#
# Compressibility (1/GPa) = 0.01420221
#
# Stress axis : x y z
#
# Youngs Moduli (GPa) = 132.37536 83.61947 107.34711
#
# Poissons Ratio (x) = 0.24488 0.05045
# Poissons Ratio (y) = 0.38767 0.42024
# Poissons Ratio (z) = 0.06221 0.32735
#
# Static dielectric constant tensor:
#      x y z
#    x 1.903990 0.000000 0.081350 
#    y 0.000000 1.937000 0.000000 
#    z 0.081350 0.000000 1.753040 
# 
# From -- ./inp_files/43035.got.cif
#   From: 2010.05.17/outbox.cif.g08.bks.cpg/sg15_22_cif.got.tgz:43035.got - 2010.06.03 18:47:42.
