data_PCOD9289849
_publ_section_title
;
Structure prediction by ZEFSAII (Michael W. Deem and Ramdas Pophale) SiO2 
 PCOD9289849
Probable space group: C 2/C
;
_chemical_formula_sum "Si O2"
_cell_formula_units_Z 36
_cell_length_a 10.268375
_cell_length_b 11.567596
_cell_length_c 20.719984
_cell_angle_alpha 90.000000
_cell_angle_beta 38.782926
_cell_angle_gamma 90.000000
_cell_volume 1541.580711
_symmetry_space_group_name_H-M "C 2/C"
_symmetry_group_IT_number 15
_symmetry_cell_setting 'monoclinic'
loop_
_space_group_symop_operation_xyz
x,y,z
-x,y,1/2-z
-x,-y,-z
x,-y,1/2+z
1/2+x,1/2+y,z
1/2-x,1/2+y,1/2-z
1/2-x,1/2-y,-z
1/2+x,1/2-y,1/2+z
loop_
_atom_site_type_symbol
_atom_site_label
_atom_site_fract_x
_atom_site_fract_y
_atom_site_fract_z
Si Si1 0.775871 0.852408 0.540135
Si Si2 0.736738 0.661815 0.883162
Si Si3 0.610278 0.930368 0.047941
Si Si4 0.763403 0.090596 0.345216
Si Si5 0.000000 0.549097 0.250000
O O1 0.750000 0.750000 0.500000
O O2 0.579511 0.868259 0.662775
O O3 0.992653 0.841543 0.492822
O O4 0.777757 0.970616 0.499646
O O5 0.864506 0.656487 0.901687
O O6 0.768477 0.773119 0.824868
O O7 0.810783 0.543945 0.818659
O O8 0.390835 0.999270 0.128795
O O9 0.669483 0.892836 0.953620
O O10 0.000000 0.048817 0.250000
#
# Coordination Sequence:
#
# PCOD9289849 Si02
#       5
#     8   8   8   8   4
#     4  11  23  45  68 103 145 178 241 301 348 442
#     4  11  22  44  70 100 138 183 238 294 355 433
#     4  10  23  41  66  96 141 177 225 290 356 413
#     4  11  23  43  65  99 136 183 233 289 356 426
#     4  10  22  40  68  98 132 198 230 288 380 408
#
# _framework density 23.352654999999999
#
# number of rings (size 3 to 8) (size 9 to 14) (size 15 to 20)
#    0.000    1.333    3.333    3.333    0.000    7.111 
#    2.000    0.000    0.000    0.000    0.000    0.000 
#    0.000    0.000    0.000    0.000    0.000    0.000 
#
# Total GULP energy -100331.945951 kJ/mol
# GULP energy per Si atom -5573.996997 kJ/mol
# Density = 2.329950 g / cm^3
# Si number density = 23.352655 Si / 1000 Ang^3
#
#
#
# Elastic Constant Matrix: (Units=GPa)
#
#
# Indices 1 2 3 4 5 6 
#
# 1 114.9975 34.7859 61.2981 0.0000 -23.6515 0.0000
# 2 34.7859 83.8762 37.1651 0.0000 0.0804 0.0000
# 3 61.2981 37.1651 138.9893 0.0000 -8.4438 0.0000
# 4 0.0000 0.0000 0.0000 27.2237 0.0000 -0.0892
# 5 -23.6515 0.0804 -8.4438 0.0000 38.3824 0.0000
# 6 0.0000 0.0000 0.0000 -0.0892 0.0000 48.2824
#
#
#
# Elastic Compliance Matrix: (Units=1/GPa)
#
#
# Indices 1 2 3 4 5 6 
#
# 1 0.013839 -0.003681 -0.004663 0.000000 0.007510 0.000000
# 2 -0.003681 0.014530 -0.002434 0.000000 -0.002834 0.000000
# 3 -0.004663 -0.002434 0.009860 0.000000 -0.000699 0.000000
# 4 0.000000 0.000000 0.000000 0.036733 0.000000 0.000068
# 5 0.007510 -0.002834 -0.000699 0.000000 0.030533 0.000000
# 6 0.000000 0.000000 0.000000 0.000068 0.000000 0.020712
#
#
# Mechanical properties :
#
#
# Convention : Reuss Voigt Hill
#
# Bulk Modulus (GPa) = 59.97589 67.15127 63.56358
# Shear Modulus (GPa) = 32.61143 36.41865 34.51504
#
# Velocity S-wave (km/s) = 3.74100 3.95334 3.84864
# Velocity P-wave (km/s) = 6.66322 7.04672 6.85765
#
# Compressibility (1/GPa) = 0.01667337
#
# Stress axis : x y z
#
# Youngs Moduli (GPa) = 72.25775 68.82280 101.42206
#
# Poissons Ratio (x) = 0.25331 0.47295
# Poissons Ratio (y) = 0.26595 0.24688
# Poissons Ratio (z) = 0.33695 0.16753
#
# Static dielectric constant tensor:
#      x y z
#    x 1.993060 0.000000 0.045000 
#    y 0.000000 1.922440 0.000000 
#    z 0.045000 0.000000 1.895060 
# 
# From -- ./inp_files/269117.got.cif
#   From: 2010.05.17/outbox.cif.g08.bks.cpg/sg15_135_cif.got.tgz:269117.got - 2010.06.03 18:47:42.
