data_PCOD9289597
_publ_section_title
;
Structure prediction by ZEFSAII (Michael W. Deem and Ramdas Pophale) SiO2 
 PCOD9289597
Probable space group: C 2/C
;
_chemical_formula_sum "Si O2"
_cell_formula_units_Z 64
_cell_length_a 9.172010
_cell_length_b 26.893627
_cell_length_c 26.622455
_cell_angle_alpha 90.000000
_cell_angle_beta 29.819520
_cell_angle_gamma 90.000000
_cell_volume 3265.531533
_symmetry_space_group_name_H-M "C 2/C"
_symmetry_group_IT_number 15
_symmetry_cell_setting 'monoclinic'
loop_
_space_group_symop_operation_xyz
x,y,z
-x,y,1/2-z
-x,-y,-z
x,-y,1/2+z
1/2+x,1/2+y,z
1/2-x,1/2+y,1/2-z
1/2-x,1/2-y,-z
1/2+x,1/2-y,1/2+z
loop_
_atom_site_type_symbol
_atom_site_label
_atom_site_fract_x
_atom_site_fract_y
_atom_site_fract_z
Si Si1 0.677445 0.467846 0.248435
Si Si2 0.852072 0.052704 0.535929
Si Si3 0.087870 0.113120 0.079602
Si Si4 0.748666 0.884621 0.413156
Si Si5 0.896427 0.797959 0.002461
Si Si6 0.686921 0.369803 0.991677
Si Si7 0.200554 0.290405 0.358580
Si Si8 0.222429 0.083438 0.230763
O O1 0.500000 0.469364 0.250000
O O2 0.480210 0.430003 0.340095
O O3 0.721128 0.525767 0.249648
O O4 0.001861 0.448340 0.140188
O O5 0.970814 0.074523 0.447824
O O6 0.941895 0.088773 0.554137
O O7 0.000000 0.000000 0.500000
O O8 0.073182 0.165573 0.055029
O O9 0.879840 0.112868 0.189571
O O10 0.412283 0.099721 0.003389
O O11 0.765929 0.862296 0.463719
O O12 0.792527 0.841875 0.358094
O O13 0.070306 0.822227 0.996330
O O14 0.033527 0.745094 0.947753
O O15 0.542174 0.796956 0.112825
O O16 0.974417 0.394413 0.880406
O O17 0.500000 0.266457 0.250000
O O18 0.000000 0.086857 0.250000
#
# Coordination Sequence:
#
# PCOD9289597 Si02
#       8
#     8   8   8   8   8   8   8   8
#     4  11  23  39  63  89 123 175 218 254 309 385
#     4  11  23  41  58  89 129 165 214 264 308 367
#     4  10  22  40  66  88 124 169 208 260 318 380
#     4  11  23  40  66  90 127 170 207 265 320 376
#     4   9  23  43  66  95 124 157 211 271 316 379
#     4  11  24  41  60  92 133 162 211 273 312 370
#     4  10  22  43  70  93 121 165 215 253 328 399
#     4  11  23  38  62  93 127 168 223 254 313 381
#
# _framework density 19.598647
#
# number of rings (size 3 to 8) (size 9 to 14) (size 15 to 20)
#    0.000    1.500    3.750    0.375    7.000    3.000 
#    0.000    0.000    0.000    0.000    0.000    0.000 
#    0.000    0.000    0.000    0.000    0.000    0.000 
#
# Total GULP energy -178499.502880 kJ/mol
# GULP energy per Si atom -5578.109465 kJ/mol
# Density = 1.955404 g / cm^3
# Si number density = 19.598647 Si / 1000 Ang^3
#
#
#
# Elastic Constant Matrix: (Units=GPa)
#
#
# Indices 1 2 3 4 5 6 
#
# 1 98.6136 18.9546 28.0446 0.0035 -4.3294 -0.0092
# 2 18.9546 53.8725 6.0542 0.0020 -3.7549 -0.0006
# 3 28.0446 6.0542 80.6778 0.0057 -10.8134 -0.0044
# 4 0.0035 0.0020 0.0057 15.8708 -0.0011 -7.1364
# 5 -4.3294 -3.7549 -10.8134 -0.0011 32.9552 0.0039
# 6 -0.0092 -0.0006 -0.0044 -7.1364 0.0039 24.9781
#
#
#
# Elastic Compliance Matrix: (Units=1/GPa)
#
#
# Indices 1 2 3 4 5 6 
#
# 1 0.011969 -0.003783 -0.003895 0.000001 -0.000137 0.000004
# 2 -0.003783 0.020013 0.000055 -0.000002 0.001801 -0.000002
# 3 -0.003895 0.000055 0.014306 -0.000004 0.004189 -0.000001
# 4 0.000001 -0.000002 -0.000004 0.072297 -0.000002 0.020656
# 5 -0.000137 0.001801 0.004189 -0.000002 0.031906 -0.000005
# 6 0.000004 -0.000002 -0.000001 0.020656 -0.000005 0.045937
#
#
# Mechanical properties :
#
#
# Convention : Reuss Voigt Hill
#
# Bulk Modulus (GPa) = 32.21509 37.69676 34.95592
# Shear Modulus (GPa) = 22.52025 26.76817 24.64421
#
# Velocity S-wave (km/s) = 3.39347 3.69971 3.54989
# Velocity P-wave (km/s) = 5.64157 6.12589 5.88871
#
# Compressibility (1/GPa) = 0.03104136
#
# Stress axis : x y z
#
# Youngs Moduli (GPa) = 83.54570 49.96794 69.89920
#
# Poissons Ratio (x) = 0.18904 0.27227
# Poissons Ratio (y) = 0.31607 -0.00382
# Poissons Ratio (z) = 0.32542 -0.00273
#
# Static dielectric constant tensor:
#      x y z
#    x 1.689230 0.000000 -0.034230 
#    y 0.000000 1.720760 0.000000 
#    z -0.034230 0.000000 1.732370 
# 
# From -- ./inp_files/266717.got.cif
#   From: 2010.05.17/outbox.cif.g08.bks.cpg/sg15_134_cif.got.tgz:266717.got - 2010.06.03 18:47:42.
