data_PCOD9289246
_publ_section_title
;
Structure prediction by ZEFSAII (Michael W. Deem and Ramdas Pophale) SiO2 
 PCOD9289246
Probable space group: C 2/C
;
_chemical_formula_sum "Si O2"
_cell_formula_units_Z 36
_cell_length_a 9.866835
_cell_length_b 24.625480
_cell_length_c 7.508161
_cell_angle_alpha 90.000000
_cell_angle_beta 115.960795
_cell_angle_gamma 90.000000
_cell_volume 1640.216389
_symmetry_space_group_name_H-M "C 2/C"
_symmetry_group_IT_number 15
_symmetry_cell_setting 'monoclinic'
loop_
_space_group_symop_operation_xyz
x,y,z
-x,y,1/2-z
-x,-y,-z
x,-y,1/2+z
1/2+x,1/2+y,z
1/2-x,1/2+y,1/2-z
1/2-x,1/2-y,-z
1/2+x,1/2-y,1/2+z
loop_
_atom_site_type_symbol
_atom_site_label
_atom_site_fract_x
_atom_site_fract_y
_atom_site_fract_z
Si Si1 0.376976 0.582857 0.393146
Si Si2 0.877764 0.301136 0.913562
Si Si3 0.500000 0.500247 0.250000
Si Si4 0.621732 0.322795 0.045843
Si Si5 0.692835 0.159944 0.492159
O O1 0.366634 0.543833 0.215813
O O2 0.457991 0.541523 0.572754
O O3 0.487054 0.635007 0.436917
O O4 0.229743 0.605083 0.405510
O O5 0.924056 0.240365 0.996177
O O6 0.808914 0.297664 0.674119
O O7 0.757520 0.326463 0.980428
O O8 0.028820 0.336017 0.984397
O O9 0.686856 0.332318 0.281969
#
# Coordination Sequence:
#
# PCOD9289246 Si02
#       5
#     8   8   4   8   8
#     4  11  22  39  67  88 117 154 215 255 309 343
#     4  10  25  36  60  89 133 158 195 228 309 368
#     4  10  22  40  62  94 110 154 210 280 300 342
#     4  11  22  40  58  93 121 166 192 248 291 371
#     4  11  22  39  59  89 123 162 194 244 291 371
#
# _framework density 21.948322000000001
#
# number of rings (size 3 to 8) (size 9 to 14) (size 15 to 20)
#    0.000    1.333    2.222    2.667    9.333    0.000 
#    0.000    0.000    0.000   24.000    0.000    0.000 
#    0.000    0.000    0.000    0.000    0.000    0.000 
#
# Total GULP energy -100474.619567 kJ/mol
# GULP energy per Si atom -5581.923309 kJ/mol
# Density = 2.189837 g / cm^3
# Si number density = 21.948322 Si / 1000 Ang^3
#
#
#
# Elastic Constant Matrix: (Units=GPa)
#
#
# Indices 1 2 3 4 5 6 
#
# 1 143.2681 70.7331 6.9103 0.0000 -10.7627 0.0000
# 2 70.7331 125.6364 7.0326 0.0000 0.1730 0.0000
# 3 6.9103 7.0326 76.6810 0.0000 -5.2988 0.0000
# 4 0.0000 0.0000 0.0000 -4.5353 0.0000 -4.4046
# 5 -10.7627 0.1730 -5.2988 0.0000 28.0250 0.0000
# 6 0.0000 0.0000 0.0000 -4.4046 0.0000 38.6996
#
#
#
# Elastic Compliance Matrix: (Units=1/GPa)
#
#
# Indices 1 2 3 4 5 6 
#
# 1 0.010078 -0.005673 -0.000120 0.000000 0.003883 0.000000
# 2 -0.005673 0.011194 -0.000680 0.000000 -0.002376 0.000000
# 3 -0.000120 -0.000680 0.013285 0.000000 0.002470 0.000000
# 4 0.000000 0.000000 0.000000 -0.198548 0.000000 -0.022598
# 5 0.003883 -0.002376 0.002470 0.000000 0.037655 0.000000
# 6 0.000000 0.000000 0.000000 -0.022598 0.000000 0.023268
#
#
# Mechanical properties :
#
#
# Convention : Reuss Voigt Hill
#
# Bulk Modulus (GPa) = 46.26730 57.21527 51.74128
# Shear Modulus (GPa) = -60.29993 29.83185 -15.23404
#
# Velocity S-wave (km/s) = -5.24721 3.69071 -2.63741
# Velocity P-wave (km/s) = 3.94780 6.65482 3.78824
#
# Compressibility (1/GPa) = 0.02161354
#
# Stress axis : x y z
#
# Youngs Moduli (GPa) = 99.22639 89.33028 75.27373
#
# Poissons Ratio (x) = 0.50673 0.00901
# Poissons Ratio (y) = 0.56286 0.05116
# Poissons Ratio (z) = 0.01187 0.06071
#
# Static dielectric constant tensor:
#      x y z
#    x 1.921390 0.000000 -0.102130 
#    y 0.000000 1.813090 0.000000 
#    z -0.102130 0.000000 1.918440 
# 
# From -- ./inp_files/23861.got.cif
#   From: 2010.05.17/outbox.cif.g08.bks.cpg/sg15_12_cif.got.tgz:23861.got - 2010.06.03 18:47:42.
