data_PCOD9289376
_publ_section_title
;
Structure prediction by ZEFSAII (Michael W. Deem and Ramdas Pophale) SiO2 
 PCOD9289376
Probable space group: C 2/C
;
_chemical_formula_sum "Si O2"
_cell_formula_units_Z 44
_cell_length_a 12.492314
_cell_length_b 22.893951
_cell_length_c 12.739192
_cell_angle_alpha 90.000000
_cell_angle_beta 141.569052
_cell_angle_gamma 90.000000
_cell_volume 2264.624837
_symmetry_space_group_name_H-M "C 2/C"
_symmetry_group_IT_number 15
_symmetry_cell_setting 'monoclinic'
loop_
_space_group_symop_operation_xyz
x,y,z
-x,y,1/2-z
-x,-y,-z
x,-y,1/2+z
1/2+x,1/2+y,z
1/2-x,1/2+y,1/2-z
1/2-x,1/2-y,-z
1/2+x,1/2-y,1/2+z
loop_
_atom_site_type_symbol
_atom_site_label
_atom_site_fract_x
_atom_site_fract_y
_atom_site_fract_z
Si Si1 0.000000 0.992370 0.250000
Si Si2 0.824254 0.697824 0.986381
Si Si3 0.082029 0.943061 0.618649
Si Si4 0.194233 0.577815 0.399345
Si Si5 0.680111 0.249814 0.181281
Si Si6 0.984548 0.822020 0.612116
O O1 0.147162 0.954839 0.420906
O O2 0.889788 0.032917 0.243445
O O3 0.714826 0.699821 0.794684
O O4 0.750000 0.750000 0.000000
O O5 0.818329 0.639608 0.050318
O O6 0.015430 0.714525 0.096114
O O7 0.241700 0.921909 0.671771
O O8 0.963465 0.886396 0.546341
O O9 0.000000 0.000000 0.500000
O O10 0.000000 0.552214 0.250000
O O11 0.838631 0.205846 0.295656
O O12 0.653910 0.279280 0.047618
O O13 0.000000 0.823946 0.750000
#
# Coordination Sequence:
#
# PCOD9289376 Si02
#       6
#     4   8   8   8   8   8
#     4  10  24  42  64  88 120 172 214 258 320 382
#     4  11  21  35  58  92 126 158 202 258 328 375
#     4  10  22  40  64  90 120 166 218 259 320 379
#     4  11  23  39  63  92 126 161 210 270 317 380
#     4  10  23  36  59  95 124 165 205 260 322 384
#     4  11  21  40  64  87 129 168 211 260 315 387
#
# _framework density 19.429268
#
# number of rings (size 3 to 8) (size 9 to 14) (size 15 to 20)
#    0.000    1.455    0.909    5.455    7.636    0.727 
#    0.000    0.000    4.000    0.000    0.000    0.000 
#    0.000    0.000    0.000    0.000    0.000    0.000 
#
# Total GULP energy -122583.238927 kJ/mol
# GULP energy per Si atom -5571.965406 kJ/mol
# Density = 1.938505 g / cm^3
# Si number density = 19.429268 Si / 1000 Ang^3
#
#
#
# Elastic Constant Matrix: (Units=GPa)
#
#
# Indices 1 2 3 4 5 6 
#
# 1 103.9816 25.4766 28.2025 0.0000 -19.4543 0.0000
# 2 25.4766 93.7032 27.8645 0.0000 -5.5613 0.0000
# 3 28.2025 27.8645 79.7346 0.0000 -8.1960 0.0000
# 4 0.0000 0.0000 0.0000 13.1164 0.0000 -6.4233
# 5 -19.4543 -5.5613 -8.1960 0.0000 30.8075 0.0000
# 6 0.0000 0.0000 0.0000 -6.4233 0.0000 27.3581
#
#
#
# Elastic Compliance Matrix: (Units=1/GPa)
#
#
# Indices 1 2 3 4 5 6 
#
# 1 0.012125 -0.002046 -0.002904 0.000000 0.006515 0.000000
# 2 -0.002046 0.012290 -0.003573 0.000000 -0.000024 0.000000
# 3 -0.002904 -0.003573 0.014972 0.000000 0.001504 0.000000
# 4 0.000000 0.000000 0.000000 0.086145 0.000000 0.020226
# 5 0.006515 -0.000024 0.001504 0.000000 0.036969 0.000000
# 6 0.000000 0.000000 0.000000 0.020226 0.000000 0.041301
#
#
# Mechanical properties :
#
#
# Convention : Reuss Voigt Hill
#
# Bulk Modulus (GPa) = 44.76439 48.94517 46.85478
# Shear Modulus (GPa) = 21.90135 27.31478 24.60807
#
# Velocity S-wave (km/s) = 3.36107 3.75354 3.56272
# Velocity P-wave (km/s) = 6.17674 6.63563 6.41029
#
# Compressibility (1/GPa) = 0.02233919
#
# Stress axis : x y z
#
# Youngs Moduli (GPa) = 82.47469 81.36972 66.79069
#
# Poissons Ratio (x) = 0.16652 0.19395
# Poissons Ratio (y) = 0.16878 0.23867
# Poissons Ratio (z) = 0.23949 0.29077
#
# Static dielectric constant tensor:
#      x y z
#    x 1.687440 0.000000 -0.034150 
#    y 0.000000 1.686480 0.000000 
#    z -0.034150 0.000000 1.748770 
# 
# From -- ./inp_files/30688.got.cif
#   From: 2010.05.17/outbox.cif.g08.bks.cpg/sg15_16_cif.got.tgz:30688.got - 2010.06.03 18:47:42.
