data_PCOD9289985
_publ_section_title
;
Structure prediction by ZEFSAII (Michael W. Deem and Ramdas Pophale) SiO2 
 PCOD9289985
Probable space group: C 2/C
;
_chemical_formula_sum "Si O2"
_cell_formula_units_Z 40
_cell_length_a 24.887187
_cell_length_b 14.447002
_cell_length_c 5.303851
_cell_angle_alpha 90.000000
_cell_angle_beta 64.225479
_cell_angle_gamma 90.000000
_cell_volume 1717.253747
_symmetry_space_group_name_H-M "C 2/C"
_symmetry_group_IT_number 15
_symmetry_cell_setting 'monoclinic'
loop_
_space_group_symop_operation_xyz
x,y,z
-x,y,1/2-z
-x,-y,-z
x,-y,1/2+z
1/2+x,1/2+y,z
1/2-x,1/2+y,1/2-z
1/2-x,1/2-y,-z
1/2+x,1/2-y,1/2+z
loop_
_atom_site_type_symbol
_atom_site_label
_atom_site_fract_x
_atom_site_fract_y
_atom_site_fract_z
Si Si1 0.366942 0.122952 0.452080
Si Si2 0.430196 0.147792 0.828010
Si Si3 0.474174 0.396037 0.055989
Si Si4 0.141743 0.807801 0.299965
Si Si5 0.235352 0.054677 0.808857
O O1 0.414152 0.116383 0.580958
O O2 0.349037 0.231296 0.435503
O O3 0.305800 0.072836 0.643815
O O4 0.396534 0.093977 0.125217
O O5 0.500000 0.148301 0.750000
O O6 0.396552 0.246999 0.924427
O O7 0.500000 0.354301 0.750000
O O8 0.500000 0.347375 0.250000
O O9 0.500000 0.500000 0.000000
O O10 0.403348 0.388050 0.200426
O O11 0.199094 0.853891 0.303992
O O12 0.220585 0.979778 0.619974
#
# Coordination Sequence:
#
# PCOD9289985 Si02
#       5
#     8   8   8   8   8
#     4  10  24  44  69  95 138 173 233 274 325 399
#     4  10  22  40  72 101 129 167 225 270 334 398
#     4  10  23  36  56  88 143 173 207 253 314 388
#     4  10  26  38  71  94 139 180 225 255 332 404
#     4  12  28  45  68  96 136 179 229 284 340 381
#
# _framework density 23.293005999999998
#
# number of rings (size 3 to 8) (size 9 to 14) (size 15 to 20)
#    1.200    0.400    0.000    3.000   14.000    0.800 
#    0.000    0.000    0.000   12.000    0.000    0.000 
#    0.000    0.000    0.000    0.000    0.000    0.000 
#
# Total GULP energy -111614.687248 kJ/mol
# GULP energy per Si atom -5580.734362 kJ/mol
# Density = 2.323999 g / cm^3
# Si number density = 23.293006 Si / 1000 Ang^3
#
#
#
# Elastic Constant Matrix: (Units=GPa)
#
#
# Indices 1 2 3 4 5 6 
#
# 1 144.8334 23.9682 30.5816 0.0000 9.8506 0.0000
# 2 23.9682 76.8020 -7.5602 0.0000 -1.0715 0.0000
# 3 30.5816 -7.5602 67.6164 0.0000 24.6100 0.0000
# 4 0.0000 0.0000 0.0000 17.1035 0.0000 -21.6874
# 5 9.8506 -1.0715 24.6100 0.0000 46.8295 0.0000
# 6 0.0000 0.0000 0.0000 -21.6874 0.0000 -61.4024
#
#
#
# Elastic Compliance Matrix: (Units=1/GPa)
#
#
# Indices 1 2 3 4 5 6 
#
# 1 0.008262 -0.002988 -0.004221 0.000000 0.000412 0.000000
# 2 -0.002988 0.014259 0.003213 0.000000 -0.000734 0.000000
# 3 -0.004221 0.003213 0.020659 0.000000 -0.009895 0.000000
# 4 0.000000 0.000000 0.000000 0.040382 0.000000 -0.014263
# 5 0.000412 -0.000734 -0.009895 0.000000 0.026451 0.000000
# 6 0.000000 0.000000 0.000000 -0.014263 0.000000 -0.011248
#
#
# Mechanical properties :
#
#
# Convention : Reuss Voigt Hill
#
# Bulk Modulus (GPa) = 28.41877 42.58121 35.49999
# Shear Modulus (GPa) = 42.19880 16.65696 29.42788
#
# Velocity S-wave (km/s) = 4.26097 2.67705 3.55826
# Velocity P-wave (km/s) = 6.03613 5.27975 5.67057
#
# Compressibility (1/GPa) = 0.03518801
#
# Stress axis : x y z
#
# Youngs Moduli (GPa) = 121.03283 70.13077 48.40468
#
# Poissons Ratio (x) = 0.20956 0.20431
# Poissons Ratio (y) = 0.36167 -0.15552
# Poissons Ratio (z) = 0.51086 -0.22532
#
# Static dielectric constant tensor:
#      x y z
#    x 1.845380 0.000000 0.042600 
#    y 0.000000 1.760090 0.000000 
#    z 0.042600 0.000000 1.884690 
# 
# From -- ./inp_files/13054.got.cif
#   From: 2010.05.17/outbox.cif.g08.bks.cpg/sg15_7_cif.got.tgz:13054.got - 2010.06.03 18:47:42.
