data_PCOD9289391
_publ_section_title
;
Structure prediction by ZEFSAII (Michael W. Deem and Ramdas Pophale) SiO2 
 PCOD9289391
Probable space group: C 2/C
;
_chemical_formula_sum "Si O2"
_cell_formula_units_Z 52
_cell_length_a 7.790806
_cell_length_b 31.691189
_cell_length_c 11.992357
_cell_angle_alpha 90.000000
_cell_angle_beta 123.139940
_cell_angle_gamma 90.000000
_cell_volume 2479.283480
_symmetry_space_group_name_H-M "C 2/C"
_symmetry_group_IT_number 15
_symmetry_cell_setting 'monoclinic'
loop_
_space_group_symop_operation_xyz
x,y,z
-x,y,1/2-z
-x,-y,-z
x,-y,1/2+z
1/2+x,1/2+y,z
1/2-x,1/2+y,1/2-z
1/2-x,1/2-y,-z
1/2+x,1/2-y,1/2+z
loop_
_atom_site_type_symbol
_atom_site_label
_atom_site_fract_x
_atom_site_fract_y
_atom_site_fract_z
Si Si1 0.752201 0.879353 0.534561
Si Si2 0.336068 0.478511 0.292953
Si Si3 0.000000 0.580898 0.750000
Si Si4 0.193403 0.710781 0.402488
Si Si5 0.423023 0.120692 0.096327
Si Si6 0.403676 0.562955 0.421054
Si Si7 0.596804 0.714329 0.400896
O O1 0.641624 0.889801 0.377924
O O2 0.600103 0.894023 0.577505
O O3 0.787152 0.830033 0.568155
O O4 0.967804 0.903640 0.605477
O O5 0.500000 0.475143 0.250000
O O6 0.132453 0.449824 0.215298
O O7 0.296233 0.527789 0.305839
O O8 0.436542 0.460615 0.441987
O O9 0.250000 0.750000 0.500000
O O10 0.149305 0.668214 0.456957
O O11 0.400187 0.704111 0.406484
O O12 0.000000 0.718702 0.250000
O O13 0.500000 0.124824 0.250000
O O14 0.242823 0.087366 0.045778
O O15 0.500000 0.728469 0.250000
O O16 0.750000 0.750000 0.500000
#
# Coordination Sequence:
#
# PCOD9289391 Si02
#       7
#     8   8   4   8   8   8   8
#     4  11  24  43  67  96 135 182 227 283 348 411
#     4  10  22  40  64  91 131 170 220 277 341 401
#     4  10  24  44  66  96 138 174 232 280 344 426
#     4  11  23  45  65  98 134 175 227 282 336 408
#     4  11  23  39  64  94 130 169 223 271 336 401
#     4  10  23  40  61  96 127 172 224 277 333 412
#     4  12  25  44  71 102 142 183 235 290 346 414
#
# _framework density 20.973801999999999
#
# number of rings (size 3 to 8) (size 9 to 14) (size 15 to 20)
#    0.000    1.231    1.538    4.615    4.308    0.000 
#    2.769    5.385    0.000    0.000    0.000    0.000 
#    0.000    0.000    0.000    0.000    0.000    0.000 
#
# Total GULP energy -145216.329461 kJ/mol
# GULP energy per Si atom -5585.243441 kJ/mol
# Density = 2.092606 g / cm^3
# Si number density = 20.973802 Si / 1000 Ang^3
#
#
#
# Elastic Constant Matrix: (Units=GPa)
#
#
# Indices 1 2 3 4 5 6 
#
# 1 138.5053 18.9907 1.4838 0.0000 -7.0994 0.0000
# 2 18.9907 101.6046 28.6960 0.0000 16.4512 0.0000
# 3 1.4838 28.6960 66.5805 0.0000 9.7451 0.0000
# 4 0.0000 0.0000 0.0000 21.8885 0.0000 -4.9160
# 5 -7.0994 16.4512 9.7451 0.0000 35.7392 0.0000
# 6 0.0000 0.0000 0.0000 -4.9160 0.0000 16.0072
#
#
#
# Elastic Compliance Matrix: (Units=1/GPa)
#
#
# Indices 1 2 3 4 5 6 
#
# 1 0.007591 -0.001875 0.000304 0.000000 0.002288 0.000000
# 2 -0.001875 0.012247 -0.004538 0.000000 -0.004773 0.000000
# 3 0.000304 -0.004538 0.017346 0.000000 -0.002580 0.000000
# 4 0.000000 0.000000 0.000000 0.049071 0.000000 0.015070
# 5 0.002288 -0.004773 -0.002580 0.000000 0.031335 0.000000
# 6 0.000000 0.000000 0.000000 0.015070 0.000000 0.067100
#
#
# Mechanical properties :
#
#
# Convention : Reuss Voigt Hill
#
# Bulk Modulus (GPa) = 40.05460 45.00350 42.52905
# Shear Modulus (GPa) = 24.36276 31.89498 28.12887
#
# Velocity S-wave (km/s) = 3.41189 3.90385 3.66613
# Velocity P-wave (km/s) = 5.88730 6.46712 6.18401
#
# Compressibility (1/GPa) = 0.02496592
#
# Stress axis : x y z
#
# Youngs Moduli (GPa) = 131.73356 81.65263 57.64943
#
# Poissons Ratio (x) = 0.15312 -0.01753
# Poissons Ratio (y) = 0.24703 0.26162
# Poissons Ratio (z) = -0.04006 0.37055
#
# Static dielectric constant tensor:
#      x y z
#    x 2.042290 0.000000 -0.077650 
#    y 0.000000 1.796000 0.000000 
#    z -0.077650 0.000000 1.807670 
# 
# From -- ./inp_files/81480.got.cif
#   From: 2010.05.17/outbox.cif.g08.bks.cpg/sg15_41_cif.got.tgz:81480.got - 2010.06.03 18:47:42.
