data_PCOD9289672
_publ_section_title
;
Structure prediction by ZEFSAII (Michael W. Deem and Ramdas Pophale) SiO2 
 PCOD9289672
Probable space group: C 2/C
;
_chemical_formula_sum "Si O2"
_cell_formula_units_Z 52
_cell_length_a 14.687357
_cell_length_b 19.962566
_cell_length_c 8.585836
_cell_angle_alpha 90.000000
_cell_angle_beta 91.730130
_cell_angle_gamma 90.000000
_cell_volume 2516.196618
_symmetry_space_group_name_H-M "C 2/C"
_symmetry_group_IT_number 15
_symmetry_cell_setting 'monoclinic'
loop_
_space_group_symop_operation_xyz
x,y,z
-x,y,1/2-z
-x,-y,-z
x,-y,1/2+z
1/2+x,1/2+y,z
1/2-x,1/2+y,1/2-z
1/2-x,1/2-y,-z
1/2+x,1/2-y,1/2+z
loop_
_atom_site_type_symbol
_atom_site_label
_atom_site_fract_x
_atom_site_fract_y
_atom_site_fract_z
Si Si1 0.901461 0.900298 0.732757
Si Si2 0.309408 0.933974 0.362102
Si Si3 0.894988 0.442698 0.695855
Si Si4 0.500000 0.389376 0.250000
Si Si5 0.380665 0.484838 0.025593
Si Si6 0.806664 0.823435 0.322347
Si Si7 0.730729 0.171233 0.171939
O O1 0.821835 0.850046 0.768543
O O2 0.000000 0.868449 0.750000
O O3 0.893755 0.938050 0.568489
O O4 0.892363 0.962977 0.849247
O O5 0.377297 0.925934 0.512633
O O6 0.221850 0.970318 0.430765
O O7 0.263336 0.867981 0.284694
O O8 0.353491 0.984383 0.238472
O O9 0.841412 0.386604 0.793408
O O10 0.000000 0.442221 0.750000
O O11 0.450439 0.437156 0.121228
O O12 0.412197 0.346554 0.305351
O O13 0.765804 0.828861 0.495307
O O14 0.802239 0.744575 0.283931
#
# Coordination Sequence:
#
# PCOD9289672 Si02
#       7
#     8   8   8   4   8   8   8
#     4  12  23  36  62  96 131 164 211 264 327 398
#     4  11  22  43  65  96 130 169 221 278 332 385
#     4  12  25  43  71  99 127 179 226 281 330 397
#     4  10  22  40  66  98 126 172 222 260 332 394
#     4  11  21  36  60  96 126 161 202 266 328 371
#     4  10  25  44  68  92 138 179 216 277 328 400
#     4  11  24  45  64  98 135 179 217 271 337 386
#
# _framework density 20.66611
#
# number of rings (size 3 to 8) (size 9 to 14) (size 15 to 20)
#    0.000    0.923    3.846    2.769    5.385    0.615 
#    0.000    3.846    0.000    0.000    0.000    0.000 
#    0.000    0.000    0.000    0.000    0.000    0.000 
#
# Total GULP energy -145211.165764 kJ/mol
# GULP energy per Si atom -5585.044837 kJ/mol
# Density = 2.061907 g / cm^3
# Si number density = 20.666110 Si / 1000 Ang^3
#
#
#
# Elastic Constant Matrix: (Units=GPa)
#
#
# Indices 1 2 3 4 5 6 
#
# 1 150.1478 59.7144 26.4085 0.0000 15.1836 0.0000
# 2 59.7144 123.6348 39.5601 0.0000 3.9232 0.0000
# 3 26.4085 39.5601 68.9261 0.0000 8.0297 0.0000
# 4 0.0000 0.0000 0.0000 23.9463 0.0000 -5.9758
# 5 15.1836 3.9232 8.0297 0.0000 30.6446 0.0000
# 6 0.0000 0.0000 0.0000 -5.9758 0.0000 34.5521
#
#
#
# Elastic Compliance Matrix: (Units=1/GPa)
#
#
# Indices 1 2 3 4 5 6 
#
# 1 0.008682 -0.003858 -0.000690 0.000000 -0.003627 0.000000
# 2 -0.003858 0.011623 -0.005408 0.000000 0.001840 0.000000
# 3 -0.000690 -0.005408 0.018315 0.000000 -0.003765 0.000000
# 4 0.000000 0.000000 0.000000 0.043644 0.000000 0.007548
# 5 -0.003627 0.001840 -0.003765 0.000000 0.035180 0.000000
# 6 0.000000 0.000000 0.000000 0.007548 0.000000 0.030247
#
#
# Mechanical properties :
#
#
# Convention : Reuss Voigt Hill
#
# Bulk Modulus (GPa) = 53.44622 66.00827 59.72724
# Shear Modulus (GPa) = 28.76216 32.29698 30.52957
#
# Velocity S-wave (km/s) = 3.73467 3.95751 3.84771
# Velocity P-wave (km/s) = 6.67195 7.27271 6.97880
#
# Compressibility (1/GPa) = 0.01871040
#
# Stress axis : x y z
#
# Youngs Moduli (GPa) = 115.17446 86.03276 54.60021
#
# Poissons Ratio (x) = 0.33189 0.03767
# Poissons Ratio (y) = 0.44431 0.29526
# Poissons Ratio (z) = 0.07946 0.46523
#
# Static dielectric constant tensor:
#      x y z
#    x 1.752470 0.000000 0.031770 
#    y 0.000000 1.715250 0.000000 
#    z 0.031770 0.000000 1.825570 
# 
# From -- ./inp_files/40828.got.cif
#   From: 2010.05.17/outbox.cif.g08.bks.cpg/sg15_21_cif.got.tgz:40828.got - 2010.06.03 18:47:42.
