data_PCOD9289296
_publ_section_title
;
Structure prediction by ZEFSAII (Michael W. Deem and Ramdas Pophale) SiO2 
 PCOD9289296
Probable space group: C 2/C
;
_chemical_formula_sum "Si O2"
_cell_formula_units_Z 56
_cell_length_a 30.136242
_cell_length_b 10.853115
_cell_length_c 9.042548
_cell_angle_alpha 90.000000
_cell_angle_beta 111.688872
_cell_angle_gamma 90.000000
_cell_volume 2748.182465
_symmetry_space_group_name_H-M "C 2/C"
_symmetry_group_IT_number 15
_symmetry_cell_setting 'monoclinic'
loop_
_space_group_symop_operation_xyz
x,y,z
-x,y,1/2-z
-x,-y,-z
x,-y,1/2+z
1/2+x,1/2+y,z
1/2-x,1/2+y,1/2-z
1/2-x,1/2-y,-z
1/2+x,1/2-y,1/2+z
loop_
_atom_site_type_symbol
_atom_site_label
_atom_site_fract_x
_atom_site_fract_y
_atom_site_fract_z
Si Si1 0.370993 0.143181 0.201327
Si Si2 0.705885 0.663678 0.918328
Si Si3 0.982323 0.122342 0.395528
Si Si4 0.032209 0.622914 0.027629
Si Si5 0.627391 0.646389 0.306042
Si Si6 0.822443 0.011149 0.879575
Si Si7 0.375025 0.896706 0.038396
O O1 0.344462 0.265431 0.114616
O O2 0.428483 0.142853 0.293609
O O3 0.353204 0.123225 0.348538
O O4 0.360473 0.027078 0.086226
O O5 0.703194 0.614212 0.748927
O O6 0.750000 0.750000 0.000000
O O7 0.709875 0.552970 0.038562
O O8 0.925558 0.129686 0.319280
O O9 0.000000 0.113497 0.250000
O O10 0.002428 0.251743 0.481855
O O11 0.000000 0.000000 0.500000
O O12 0.932249 0.609747 0.571216
O O13 0.000000 0.500000 0.000000
O O14 0.635428 0.572236 0.470261
O O15 0.660189 0.587837 0.219800
O O16 0.636357 0.787610 0.362012
#
# Coordination Sequence:
#
# PCOD9289296 Si02
#       7
#     8   8   8   8   8   8   8
#     4  10  23  40  65  92 128 172 217 278 329 397
#     4  11  25  48  71 102 133 164 227 275 343 414
#     4  12  24  38  59  96 132 179 229 277 317 397
#     4  10  23  41  62  90 136 178 230 272 332 384
#     4  11  21  42  66  93 137 174 219 265 340 390
#     4  10  24  44  72  95 134 176 205 281 341 395
#     4  10  22  40  63  91 128 175 224 268 329 388
#
# _framework density 20.377103999999999
#
# number of rings (size 3 to 8) (size 9 to 14) (size 15 to 20)
#    0.857    0.571    2.857    1.714    6.000    1.143 
#    2.571    1.429    0.000    0.000    0.000    0.000 
#    0.000    0.000    0.000    0.000    0.000    0.000 
#
# Total GULP energy -156203.434028 kJ/mol
# GULP energy per Si atom -5578.694072 kJ/mol
# Density = 2.033072 g / cm^3
# Si number density = 20.377104 Si / 1000 Ang^3
#
#
#
# Elastic Constant Matrix: (Units=GPa)
#
#
# Indices 1 2 3 4 5 6 
#
# 1 13.4601 11.1451 13.0390 0.0000 10.4206 0.0000
# 2 11.1451 122.5536 43.0976 0.0000 3.1997 0.0000
# 3 13.0390 43.0976 81.2927 0.0000 -3.7427 0.0000
# 4 0.0000 0.0000 0.0000 45.0646 0.0000 -7.2899
# 5 10.4206 3.1997 -3.7427 0.0000 17.3438 0.0000
# 6 0.0000 0.0000 0.0000 -7.2899 0.0000 31.0994
#
#
#
# Elastic Compliance Matrix: (Units=1/GPa)
#
#
# Indices 1 2 3 4 5 6 
#
# 1 0.233261 -0.002152 -0.043136 0.000000 -0.149060 0.000000
# 2 -0.002152 0.010209 -0.005146 0.000000 -0.001701 0.000000
# 3 -0.043136 -0.005146 0.023418 0.000000 0.031920 0.000000
# 4 0.000000 0.000000 0.000000 0.023065 0.000000 0.005407
# 5 -0.149060 -0.001701 0.031920 0.000000 0.154418 0.000000
# 6 0.000000 0.000000 0.000000 0.005407 0.000000 0.033422
#
#
# Mechanical properties :
#
#
# Convention : Reuss Voigt Hill
#
# Bulk Modulus (GPa) = 6.02332 39.09664 22.55998
# Shear Modulus (GPa) = 7.88642 28.70322 18.29482
#
# Velocity S-wave (km/s) = 1.96943 3.75721 2.99960
# Velocity P-wave (km/s) = 2.85199 6.16850 4.80542
#
# Compressibility (1/GPa) = 0.16602126
#
# Stress axis : x y z
#
# Youngs Moduli (GPa) = 4.28703 97.94949 42.70275
#
# Poissons Ratio (x) = 0.21077 1.84203
# Poissons Ratio (y) = 0.00922 0.21974
# Poissons Ratio (z) = 0.18493 0.50402
#
# Static dielectric constant tensor:
#      x y z
#    x 1.711660 0.000000 0.007930 
#    y 0.000000 1.715540 0.000000 
#    z 0.007930 0.000000 1.728000 
# 
# From -- ./inp_files/69447.got.cif
#   From: 2010.05.17/outbox.cif.g08.bks.cpg/sg15_35_cif.got.tgz:69447.got - 2010.06.03 18:47:42.
