data_PCOD9289158
_publ_section_title
;
Structure prediction by ZEFSAII (Michael W. Deem and Ramdas Pophale) SiO2 
 PCOD9289158
Probable space group: C 2/C
;
_chemical_formula_sum "Si O2"
_cell_formula_units_Z 32
_cell_length_a 8.804174
_cell_length_b 8.366375
_cell_length_c 18.985302
_cell_angle_alpha 90.000000
_cell_angle_beta 89.522511
_cell_angle_gamma 90.000000
_cell_volume 1398.390202
_symmetry_space_group_name_H-M "C 2/C"
_symmetry_group_IT_number 15
_symmetry_cell_setting 'monoclinic'
loop_
_space_group_symop_operation_xyz
x,y,z
-x,y,1/2-z
-x,-y,-z
x,-y,1/2+z
1/2+x,1/2+y,z
1/2-x,1/2+y,1/2-z
1/2-x,1/2-y,-z
1/2+x,1/2-y,1/2+z
loop_
_atom_site_type_symbol
_atom_site_label
_atom_site_fract_x
_atom_site_fract_y
_atom_site_fract_z
Si Si1 0.176301 0.814914 0.268619
Si Si2 0.825175 0.159382 0.394732
Si Si3 0.176903 0.141922 0.352568
Si Si4 0.324967 0.991164 0.479500
O O1 0.222090 0.682480 0.326436
O O2 0.272295 0.785976 0.197565
O O3 0.000000 0.804238 0.250000
O O4 0.207511 0.983961 0.305540
O O5 0.773702 0.022931 0.449155
O O6 0.806937 0.325057 0.437379
O O7 0.999096 0.143304 0.370940
O O8 0.269134 0.124856 0.424996
O O9 0.500000 0.000000 0.500000
#
# Coordination Sequence:
#
# PCOD9289158 Si02
#       4
#     8   8   8   8
#     4  11  23  39  61  90 123 164 208 254 307 366
#     4  10  22  40  61  91 124 159 206 255 307 368
#     4  11  24  41  64  91 127 165 205 256 307 366
#     4  10  22  40  64  92 123 160 204 255 310 365
#
# _framework density 22.883455999999999
#
# number of rings (size 3 to 8) (size 9 to 14) (size 15 to 20)
#    0.000    1.500    0.000    4.500    0.000    9.000 
#    0.000    0.000    0.000    0.000    0.000    0.000 
#    0.000    0.000    0.000    0.000    0.000    0.000 
#
# Total GULP energy -89575.877020 kJ/mol
# GULP energy per Si atom -5598.492314 kJ/mol
# Density = 2.283137 g / cm^3
# Si number density = 22.883456 Si / 1000 Ang^3
#
#
#
# Elastic Constant Matrix: (Units=GPa)
#
#
# Indices 1 2 3 4 5 6 
#
# 1 89.2785 -11.8556 27.0177 0.0000 2.4810 0.0000
# 2 -11.8556 55.5140 25.9047 0.0000 -6.7058 0.0000
# 3 27.0177 25.9047 125.8422 0.0000 3.0700 0.0000
# 4 0.0000 0.0000 0.0000 41.5430 0.0000 -5.0187
# 5 2.4810 -6.7058 3.0700 0.0000 62.8448 0.0000
# 6 0.0000 0.0000 0.0000 -5.0187 0.0000 24.9111
#
#
#
# Elastic Compliance Matrix: (Units=1/GPa)
#
#
# Indices 1 2 3 4 5 6 
#
# 1 0.012916 0.004505 -0.003704 0.000000 0.000152 0.000000
# 2 0.004505 0.021846 -0.005523 0.000000 0.002423 0.000000
# 3 -0.003704 -0.005523 0.009901 0.000000 -0.000927 0.000000
# 4 0.000000 0.000000 0.000000 0.024672 0.000000 0.004971
# 5 0.000152 0.002423 -0.000927 0.000000 0.016210 0.000000
# 6 0.000000 0.000000 0.000000 0.004971 0.000000 0.041144
#
#
# Mechanical properties :
#
#
# Convention : Reuss Voigt Hill
#
# Bulk Modulus (GPa) = 28.39433 39.19647 33.79540
# Shear Modulus (GPa) = 33.81289 41.16432 37.48861
#
# Velocity S-wave (km/s) = 3.84814 4.24591 4.05191
# Velocity P-wave (km/s) = 5.67269 6.41895 6.05732
#
# Compressibility (1/GPa) = 0.03521829
#
# Stress axis : x y z
#
# Youngs Moduli (GPa) = 77.42416 45.77582 100.99711
#
# Poissons Ratio (x) = -0.20622 0.37410
# Poissons Ratio (y) = -0.34880 0.55783
# Poissons Ratio (z) = 0.28678 0.25283
#
# Static dielectric constant tensor:
#      x y z
#    x 1.766190 0.000000 0.001650 
#    y 0.000000 1.894370 0.000000 
#    z 0.001650 0.000000 1.863380 
# 
# From -- ./inp_files/132004.got.cif
#   From: 2010.05.17/outbox.cif.g08.bks.cpg/sg15_67_cif.got.tgz:132004.got - 2010.06.03 18:47:42.
