data_PCOD9289606
_publ_section_title
;
Structure prediction by ZEFSAII (Michael W. Deem and Ramdas Pophale) SiO2 
 PCOD9289606
Probable space group: C 2/C
;
_chemical_formula_sum "Si O2"
_cell_formula_units_Z 40
_cell_length_a 10.216984
_cell_length_b 32.589549
_cell_length_c 5.541401
_cell_angle_alpha 90.000000
_cell_angle_beta 74.537536
_cell_angle_gamma 90.000000
_cell_volume 1778.320202
_symmetry_space_group_name_H-M "C 2/C"
_symmetry_group_IT_number 15
_symmetry_cell_setting 'monoclinic'
loop_
_space_group_symop_operation_xyz
x,y,z
-x,y,1/2-z
-x,-y,-z
x,-y,1/2+z
1/2+x,1/2+y,z
1/2-x,1/2+y,1/2-z
1/2-x,1/2-y,-z
1/2+x,1/2-y,1/2+z
loop_
_atom_site_type_symbol
_atom_site_label
_atom_site_fract_x
_atom_site_fract_y
_atom_site_fract_z
Si Si1 0.784811 0.887324 0.159289
Si Si2 0.831185 0.722113 0.153888
Si Si3 0.658403 0.483657 0.410228
Si Si4 0.000000 0.337023 0.250000
Si Si5 0.000000 0.788738 0.250000
Si Si6 0.627299 0.652201 0.381143
O O1 0.811338 0.935912 0.145148
O O2 0.633092 0.866341 0.226608
O O3 0.845861 0.873227 0.387618
O O4 0.856841 0.874147 0.869590
O O5 0.743597 0.685921 0.303255
O O6 0.878628 0.757156 0.310028
O O7 0.750000 0.750000 0.000000
O O8 0.955072 0.695675 0.977240
O O9 0.500000 0.500000 0.500000
O O10 0.716896 0.494615 0.643634
O O11 0.998111 0.817636 0.484083
#
# Coordination Sequence:
#
# PCOD9289606 Si02
#       6
#     8   8   8   4   4   8
#     4  11  24  44  64  95 129 165 215 264 323 402
#     4  11  22  40  61  91 129 175 228 274 320 379
#     4  10  22  42  68  95 124 161 200 259 330 396
#     4  10  22  40  66  90 129 178 215 270 324 374
#     4  12  22  36  60  88 127 176 221 276 322 374
#     4  11  25  40  62  93 127 170 217 267 323 377
#
# _framework density 22.493137000000001
#
# number of rings (size 3 to 8) (size 9 to 14) (size 15 to 20)
#    0.000    1.200    0.000    6.600    0.000    9.600 
#    0.000    1.000    0.000    0.000    0.000    0.000 
#    0.000    0.000    0.000    0.000    0.000    0.000 
#
# Total GULP energy -111409.148987 kJ/mol
# GULP energy per Si atom -5570.457449 kJ/mol
# Density = 2.244194 g / cm^3
# Si number density = 22.493137 Si / 1000 Ang^3
#
#
#
# Elastic Constant Matrix: (Units=GPa)
#
#
# Indices 1 2 3 4 5 6 
#
# 1 55.3137 37.0666 16.9480 0.0000 -5.5540 0.0000
# 2 37.0666 203.6729 88.8666 0.0000 3.1393 0.0000
# 3 16.9480 88.8666 161.6096 0.0000 3.5653 0.0000
# 4 0.0000 0.0000 0.0000 57.0136 0.0000 5.5323
# 5 -5.5540 3.1393 3.5653 0.0000 38.1683 0.0000
# 6 0.0000 0.0000 0.0000 5.5323 0.0000 33.6978
#
#
#
# Elastic Compliance Matrix: (Units=1/GPa)
#
#
# Indices 1 2 3 4 5 6 
#
# 1 0.021020 -0.003793 -0.000193 0.000000 0.003389 0.000000
# 2 -0.003793 0.007146 -0.003514 0.000000 -0.000812 0.000000
# 3 -0.000193 -0.003514 0.008151 0.000000 -0.000501 0.000000
# 4 0.000000 0.000000 0.000000 0.017824 0.000000 -0.002926
# 5 0.003389 -0.000812 -0.000501 0.000000 0.026806 0.000000
# 6 0.000000 0.000000 0.000000 -0.002926 0.000000 0.030156
#
#
# Mechanical properties :
#
#
# Convention : Reuss Voigt Hill
#
# Bulk Modulus (GPa) = 46.91175 78.48429 62.69802
# Shear Modulus (GPa) = 37.53499 44.29029 40.91264
#
# Velocity S-wave (km/s) = 4.08944 4.44222 4.26948
# Velocity P-wave (km/s) = 6.57262 7.82812 7.22768
#
# Compressibility (1/GPa) = 0.02131662
#
# Stress axis : x y z
#
# Youngs Moduli (GPa) = 47.57326 139.94278 122.68209
#
# Poissons Ratio (x) = 0.53086 0.02370
# Poissons Ratio (y) = 0.18047 0.43106
# Poissons Ratio (z) = 0.00919 0.49171
#
# Static dielectric constant tensor:
#      x y z
#    x 1.822950 0.000000 -0.096720 
#    y 0.000000 1.753020 0.000000 
#    z -0.096720 0.000000 1.902330 
# 
# From -- ./inp_files/5731.got.cif
#   From: 2010.05.17/outbox.cif.g08.bks.cpg/sg15_3_cif.got.tgz:5731.got - 2010.06.03 18:47:42.
