data_PCOD9289585
_publ_section_title
;
Structure prediction by ZEFSAII (Michael W. Deem and Ramdas Pophale) SiO2 
 PCOD9289585
Probable space group: C 2/C
;
_chemical_formula_sum "Si O2"
_cell_formula_units_Z 56
_cell_length_a 25.758543
_cell_length_b 5.387071
_cell_length_c 19.138529
_cell_angle_alpha 90.000000
_cell_angle_beta 122.091233
_cell_angle_gamma 90.000000
_cell_volume 2249.935909
_symmetry_space_group_name_H-M "C 2/C"
_symmetry_group_IT_number 15
_symmetry_cell_setting 'monoclinic'
loop_
_space_group_symop_operation_xyz
x,y,z
-x,y,1/2-z
-x,-y,-z
x,-y,1/2+z
1/2+x,1/2+y,z
1/2-x,1/2+y,1/2-z
1/2-x,1/2-y,-z
1/2+x,1/2-y,1/2+z
loop_
_atom_site_type_symbol
_atom_site_label
_atom_site_fract_x
_atom_site_fract_y
_atom_site_fract_z
Si Si1 0.728747 0.953644 0.041890
Si Si2 0.167605 0.636538 0.634254
Si Si3 0.351731 0.281382 0.603710
Si Si4 0.119805 0.520641 0.733761
Si Si5 0.984419 0.138163 0.383041
Si Si6 0.440382 0.361163 0.224559
Si Si7 0.409199 0.635840 0.942164
O O1 0.721063 0.859597 0.115342
O O2 0.784643 0.141052 0.081106
O O3 0.750000 0.750000 0.000000
O O4 0.666474 0.093790 0.971724
O O5 0.175207 0.618554 0.724141
O O6 0.133128 0.371914 0.600963
O O7 0.129595 0.881471 0.584957
O O8 0.379277 0.139569 0.689058
O O9 0.395592 0.525020 0.633147
O O10 0.060834 0.626842 0.649824
O O11 0.107805 0.241780 0.751002
O O12 0.050683 0.190157 0.460818
O O13 0.980527 0.046818 0.301507
O O14 0.957374 0.925752 0.414827
O O15 0.500000 0.184272 0.250000
#
# Coordination Sequence:
#
# PCOD9289585 Si02
#       7
#     8   8   8   8   8   8   8
#     4  11  26  49  72  98 136 190 244 306 361 431
#     4  11  25  43  74 103 142 185 246 301 362 420
#     4  10  25  48  68  98 142 183 243 296 363 430
#     4  10  22  45  65 104 143 186 236 300 357 439
#     4   9  21  37  62  92 147 180 234 282 355 423
#     4  11  23  40  66 101 143 191 231 291 364 441
#     4  10  22  40  66 103 138 187 232 295 352 428
#
# _framework density 24.889597999999999
#
# number of rings (size 3 to 8) (size 9 to 14) (size 15 to 20)
#    0.000    1.714    1.429    0.857    8.000    5.143 
#    5.143    0.000    0.000    0.000    0.000    0.000 
#    0.000    0.000    0.000    0.000    0.000    0.000 
#
# Total GULP energy -155909.939734 kJ/mol
# GULP energy per Si atom -5568.212133 kJ/mol
# Density = 2.483295 g / cm^3
# Si number density = 24.889598 Si / 1000 Ang^3
#
#
#
# Elastic Constant Matrix: (Units=GPa)
#
#
# Indices 1 2 3 4 5 6 
#
# 1 78.2207 -4.1401 4.7287 0.0003 -15.0902 -0.0002
# 2 -4.1401 67.7390 4.8041 0.0003 14.1435 -0.0013
# 3 4.7287 4.8041 70.3821 -0.0004 5.2679 0.0001
# 4 0.0003 0.0003 -0.0004 15.7743 0.0000 2.6756
# 5 -15.0902 14.1435 5.2679 0.0000 35.6117 0.0001
# 6 -0.0002 -0.0013 0.0001 2.6756 0.0001 21.4495
#
#
#
# Elastic Compliance Matrix: (Units=1/GPa)
#
#
# Indices 1 2 3 4 5 6 
#
# 1 0.014067 -0.000359 -0.001393 0.000000 0.006309 0.000000
# 2 -0.000359 0.016134 -0.000593 -0.000001 -0.006472 0.000001
# 3 -0.001393 -0.000593 0.014530 0.000000 -0.002504 0.000000
# 4 0.000000 -0.000001 0.000000 0.064765 0.000000 -0.008079
# 5 0.006309 -0.006472 -0.002504 0.000000 0.033695 0.000000
# 6 0.000000 0.000001 0.000000 -0.008079 0.000000 0.047629
#
#
# Mechanical properties :
#
#
# Convention : Reuss Voigt Hill
#
# Bulk Modulus (GPa) = 24.97403 25.23635 25.10519
# Shear Modulus (GPa) = 23.94007 28.63038 26.28522
#
# Velocity S-wave (km/s) = 3.10474 3.39528 3.25325
# Velocity P-wave (km/s) = 4.78625 5.05291 4.92139
#
# Compressibility (1/GPa) = 0.04004159
#
# Stress axis : x y z
#
# Youngs Moduli (GPa) = 71.08984 61.98093 68.82492
#
# Poissons Ratio (x) = 0.02224 0.09586
# Poissons Ratio (y) = 0.02551 0.04079
# Poissons Ratio (z) = 0.09902 0.03674
#
# Static dielectric constant tensor:
#      x y z
#    x 2.374440 0.000000 -0.100680 
#    y 0.000000 2.254710 0.000000 
#    z -0.100680 0.000000 2.042630 
# 
# From -- ./inp_files/256608.got.cif
#   From: 2010.05.17/outbox.cif.g08.bks.cpg/sg15_129_cif.got.tgz:256608.got - 2010.06.03 18:47:42.
