data_PCOD9289825
_publ_section_title
;
Structure prediction by ZEFSAII (Michael W. Deem and Ramdas Pophale) SiO2 
 PCOD9289825
Probable space group: C 2/C
;
_chemical_formula_sum "Si O2"
_cell_formula_units_Z 48
_cell_length_a 8.635271
_cell_length_b 28.277036
_cell_length_c 14.218823
_cell_angle_alpha 90.000000
_cell_angle_beta 137.044078
_cell_angle_gamma 90.000000
_cell_volume 2365.910295
_symmetry_space_group_name_H-M "C 2/C"
_symmetry_group_IT_number 15
_symmetry_cell_setting 'monoclinic'
loop_
_space_group_symop_operation_xyz
x,y,z
-x,y,1/2-z
-x,-y,-z
x,-y,1/2+z
1/2+x,1/2+y,z
1/2-x,1/2+y,1/2-z
1/2-x,1/2-y,-z
1/2+x,1/2-y,1/2+z
loop_
_atom_site_type_symbol
_atom_site_label
_atom_site_fract_x
_atom_site_fract_y
_atom_site_fract_z
Si Si1 0.489814 0.755063 0.357442
Si Si2 0.305523 0.835104 0.740354
Si Si3 0.569903 0.589261 0.388697
Si Si4 0.887997 0.490031 0.098106
Si Si5 0.243272 0.557841 0.612148
Si Si6 0.504116 0.847579 0.032837
O O1 0.500000 0.753484 0.250000
O O2 0.347940 0.711704 0.336520
O O3 0.413246 0.805214 0.365159
O O4 0.750000 0.750000 0.500000
O O5 0.500000 0.837995 0.750000
O O6 0.143510 0.881418 0.667179
O O7 0.419591 0.830664 0.893688
O O8 0.500000 0.575250 0.250000
O O9 0.668911 0.544846 0.490597
O O10 0.781487 0.625906 0.476189
O O11 0.000000 0.493239 0.250000
O O12 0.077229 0.467789 0.112565
O O13 0.821256 0.539405 0.020167
O O14 0.500000 0.545848 0.750000
O O15 0.193479 0.612899 0.601402
#
# Coordination Sequence:
#
# PCOD9289825 Si02
#       6
#     8   8   8   8   8   8
#     4  12  22  44  71  94 128 179 224 261 325 407
#     4  11  23  39  63  98 137 173 217 274 331 380
#     4   9  18  39  65  91 128 180 221 264 322 398
#     4  10  22  40  68  96 127 175 222 265 331 399
#     4  10  23  43  63  95 134 167 219 279 323 381
#     4  10  22  41  64  91 130 176 219 264 329 397
#
# _framework density 20.288173
#
# number of rings (size 3 to 8) (size 9 to 14) (size 15 to 20)
#    0.000    1.667    3.333    1.000    0.000    8.000 
#    3.000    0.000    0.000    0.000    0.000    0.000 
#    0.000    0.000    0.000    0.000    0.000    0.000 
#
# Total GULP energy -134124.254165 kJ/mol
# GULP energy per Si atom -5588.510590 kJ/mol
# Density = 2.024200 g / cm^3
# Si number density = 20.288173 Si / 1000 Ang^3
#
#
#
# Elastic Constant Matrix: (Units=GPa)
#
#
# Indices 1 2 3 4 5 6 
#
# 1 104.8515 58.6811 51.7037 0.0000 -0.0502 0.0000
# 2 58.6811 105.7499 41.0682 0.0000 1.6011 0.0000
# 3 51.7037 41.0682 117.5406 0.0000 -7.1951 0.0000
# 4 0.0000 0.0000 0.0000 -7.5320 0.0000 -28.2418
# 5 -0.0502 1.6011 -7.1951 0.0000 27.4538 0.0000
# 6 0.0000 0.0000 0.0000 -28.2418 0.0000 -0.4617
#
#
#
# Elastic Compliance Matrix: (Units=1/GPa)
#
#
# Indices 1 2 3 4 5 6 
#
# 1 0.015626 -0.006910 -0.004505 0.000000 -0.000749 0.000000
# 2 -0.006910 0.014072 -0.001960 0.000000 -0.001347 0.000000
# 3 -0.004505 -0.001960 0.011363 0.000000 0.003084 0.000000
# 4 0.000000 0.000000 0.000000 0.000581 0.000000 -0.035564
# 5 -0.000749 -0.001347 0.003084 0.000000 0.037310 0.000000
# 6 0.000000 0.000000 0.000000 -0.035564 0.000000 0.009485
#
#
# Mechanical properties :
#
#
# Convention : Reuss Voigt Hill
#
# Bulk Modulus (GPa) = 69.87395 70.11646 69.99521
# Shear Modulus (GPa) = 41.68192 15.67128 28.67660
#
# Velocity S-wave (km/s) = 4.53757 2.78229 3.76368
# Velocity P-wave (km/s) = 7.87199 6.70498 7.31181
#
# Compressibility (1/GPa) = 0.01431148
#
# Stress axis : x y z
#
# Youngs Moduli (GPa) = 63.99777 71.06315 88.00636
#
# Poissons Ratio (x) = 0.49103 0.39646
# Poissons Ratio (y) = 0.44221 0.17246
# Poissons Ratio (z) = 0.28831 0.13926
#
# Static dielectric constant tensor:
#      x y z
#    x 1.704110 0.000000 0.009600 
#    y 0.000000 1.799290 0.000000 
#    z 0.009600 0.000000 1.697080 
# 
# From -- ./inp_files/138997.got.cif
#   From: 2010.05.17/outbox.cif.g08.bks.cpg/sg15_70_cif.got.tgz:138997.got - 2010.06.03 18:47:42.
