data_PCOD9289445
_publ_section_title
;
Structure prediction by ZEFSAII (Michael W. Deem and Ramdas Pophale) SiO2 
 PCOD9289445
Probable space group: C 2/C
;
_chemical_formula_sum "Si O2"
_cell_formula_units_Z 44
_cell_length_a 26.406647
_cell_length_b 7.163246
_cell_length_c 15.260944
_cell_angle_alpha 90.000000
_cell_angle_beta 135.296186
_cell_angle_gamma 90.000000
_cell_volume 2030.639501
_symmetry_space_group_name_H-M "C 2/C"
_symmetry_group_IT_number 15
_symmetry_cell_setting 'monoclinic'
loop_
_space_group_symop_operation_xyz
x,y,z
-x,y,1/2-z
-x,-y,-z
x,-y,1/2+z
1/2+x,1/2+y,z
1/2-x,1/2+y,1/2-z
1/2-x,1/2-y,-z
1/2+x,1/2-y,1/2+z
loop_
_atom_site_type_symbol
_atom_site_label
_atom_site_fract_x
_atom_site_fract_y
_atom_site_fract_z
Si Si1 0.844567 0.116567 0.917770
Si Si2 0.242302 0.551332 0.537707
Si Si3 0.000000 0.607586 0.750000
Si Si4 0.143003 0.781956 0.866316
Si Si5 0.562460 0.048790 0.009888
Si Si6 0.190334 0.697834 0.658227
O O1 0.842331 0.902143 0.889940
O O2 0.767985 0.204265 0.797551
O O3 0.847554 0.132334 0.025480
O O4 0.909510 0.238217 0.958771
O O5 0.250000 0.750000 0.500000
O O6 0.190650 0.407238 0.422061
O O7 0.317709 0.438669 0.644256
O O8 0.205446 0.602330 0.583379
O O9 0.059236 0.725207 0.766814
O O10 0.041087 0.503251 0.881130
O O11 0.130926 0.567813 0.628178
O O12 0.500000 0.000000 0.000000
#
# Coordination Sequence:
#
# PCOD9289445 Si02
#       6
#     8   8   4   8   8   8
#     4  11  22  42  67  96 131 177 228 283 333 409
#     4  11  21  37  66  98 123 173 223 274 332 395
#     4  10  22  46  66  98 146 178 220 280 346 424
#     4  10  22  40  64  95 137 174 221 273 341 404
#     4  11  26  46  68 100 141 183 222 289 354 406
#     4  12  22  42  69  99 134 173 235 280 339 408
#
# _framework density 21.668050000000001
#
# number of rings (size 3 to 8) (size 9 to 14) (size 15 to 20)
#    0.000    1.091    7.273    0.000    0.000    6.545 
#    0.000   10.000    0.000    0.000    0.000    0.000 
#    0.000    0.000    0.000    0.000    0.000    0.000 
#
# Total GULP energy -122841.466745 kJ/mol
# GULP energy per Si atom -5583.703034 kJ/mol
# Density = 2.161873 g / cm^3
# Si number density = 21.668050 Si / 1000 Ang^3
#
#
#
# Elastic Constant Matrix: (Units=GPa)
#
#
# Indices 1 2 3 4 5 6 
#
# 1 152.3555 27.7342 3.9217 0.0000 4.5233 0.0000
# 2 27.7342 111.9388 -5.4469 0.0000 -6.7380 0.0000
# 3 3.9217 -5.4469 59.6503 0.0000 6.6732 0.0000
# 4 0.0000 0.0000 0.0000 22.6179 0.0000 0.5419
# 5 4.5233 -6.7380 6.6732 0.0000 28.0368 0.0000
# 6 0.0000 0.0000 0.0000 0.5419 0.0000 21.7806
#
#
#
# Elastic Compliance Matrix: (Units=1/GPa)
#
#
# Indices 1 2 3 4 5 6 
#
# 1 0.006952 -0.001832 -0.000462 0.000000 -0.001452 0.000000
# 2 -0.001832 0.009568 0.000723 0.000000 0.002423 0.000000
# 3 -0.000462 0.000723 0.017293 0.000000 -0.003868 0.000000
# 4 0.000000 0.000000 0.000000 0.044239 0.000000 -0.001101
# 5 -0.001452 0.002423 -0.003868 0.000000 0.037405 0.000000
# 6 0.000000 0.000000 0.000000 -0.001101 0.000000 0.045940
#
#
# Mechanical properties :
#
#
# Convention : Reuss Voigt Hill
#
# Bulk Modulus (GPa) = 32.60327 41.81807 37.21067
# Shear Modulus (GPa) = 28.61000 34.33608 31.47304
#
# Velocity S-wave (km/s) = 3.63764 3.98507 3.81531
# Velocity P-wave (km/s) = 5.72037 6.36520 6.05138
#
# Compressibility (1/GPa) = 0.03067177
#
# Stress axis : x y z
#
# Youngs Moduli (GPa) = 143.84033 104.50977 57.82524
#
# Poissons Ratio (x) = 0.19150 0.02671
# Poissons Ratio (y) = 0.26357 -0.04182
# Poissons Ratio (z) = 0.06645 -0.07557
#
# Static dielectric constant tensor:
#      x y z
#    x 1.849670 0.000000 0.013740 
#    y 0.000000 1.777380 0.000000 
#    z 0.013740 0.000000 1.849230 
# 
# From -- ./inp_files/121179.got.cif
#   From: 2010.05.17/outbox.cif.g08.bks.cpg/sg15_61_cif.got.tgz:121179.got - 2010.06.03 18:47:42.
