data_PCOD9289913
_publ_section_title
;
Structure prediction by ZEFSAII (Michael W. Deem and Ramdas Pophale) SiO2 
 PCOD9289913
Probable space group: C 2/C
;
_chemical_formula_sum "Si O2"
_cell_formula_units_Z 56
_cell_length_a 26.649192
_cell_length_b 18.042229
_cell_length_c 7.998374
_cell_angle_alpha 90.000000
_cell_angle_beta 44.911937
_cell_angle_gamma 90.000000
_cell_volume 2715.141160
_symmetry_space_group_name_H-M "C 2/C"
_symmetry_group_IT_number 15
_symmetry_cell_setting 'monoclinic'
loop_
_space_group_symop_operation_xyz
x,y,z
-x,y,1/2-z
-x,-y,-z
x,-y,1/2+z
1/2+x,1/2+y,z
1/2-x,1/2+y,1/2-z
1/2-x,1/2-y,-z
1/2+x,1/2-y,1/2+z
loop_
_atom_site_type_symbol
_atom_site_label
_atom_site_fract_x
_atom_site_fract_y
_atom_site_fract_z
Si Si1 0.139114 0.288401 0.334297
Si Si2 0.000000 0.285536 0.250000
Si Si3 0.918606 0.565341 0.474750
Si Si4 0.732848 0.822274 0.440266
Si Si5 0.484240 0.416113 0.587419
Si Si6 0.605811 0.097933 0.340781
Si Si7 0.632031 0.317443 0.570718
Si Si8 0.500000 0.691679 0.750000
O O1 0.116563 0.371424 0.327107
O O2 0.187455 0.299175 0.382957
O O3 0.168825 0.237504 0.116426
O O4 0.067042 0.244555 0.555456
O O5 0.955776 0.341370 0.476683
O O6 0.935923 0.232687 0.332798
O O7 0.886344 0.576477 0.370272
O O8 0.912423 0.479857 0.533621
O O9 0.000000 0.584009 0.250000
O O10 0.750000 0.750000 0.500000
O O11 0.684175 0.869519 0.682864
O O12 0.810350 0.847562 0.195349
O O13 0.500000 0.408903 0.750000
O O14 0.500000 0.500000 0.500000
O O15 0.402822 0.389437 0.763073
O O16 0.518529 0.359960 0.368386
#
# Coordination Sequence:
#
# PCOD9289913 Si02
#       8
#     8   4   8   8   8   8   8   4
#     4  10  23  39  68  96 127 168 218 265 324 390
#     4  12  22  38  68 102 116 166 228 260 316 382
#     4  11  21  37  60  93 134 163 204 260 317 380
#     4  11  24  42  62  93 130 168 213 268 327 386
#     4  11  23  41  66  98 133 167 220 279 336 386
#     4  11  25  37  61  94 130 169 213 253 324 384
#     4  11  24  42  69  93 129 166 220 273 324 384
#     4  10  22  40  70 104 126 168 222 282 328 394
#
# _framework density 20.625078999999999
#
# number of rings (size 3 to 8) (size 9 to 14) (size 15 to 20)
#    0.000    1.143    4.286    1.714   10.000    0.000 
#    0.000    2.857    3.143    0.000    0.000    0.000 
#    0.000    0.000    0.000    0.000    0.000    0.000 
#
# Total GULP energy -155879.530105 kJ/mol
# GULP energy per Si atom -5567.126075 kJ/mol
# Density = 2.057814 g / cm^3
# Si number density = 20.625079 Si / 1000 Ang^3
#
#
#
# Elastic Constant Matrix: (Units=GPa)
#
#
# Indices 1 2 3 4 5 6 
#
# 1 58.9749 23.3357 -5.8922 0.0000 2.6770 0.0000
# 2 23.3357 119.0430 26.0944 0.0000 -4.5832 0.0000
# 3 -5.8922 26.0944 84.6405 0.0000 -7.7146 0.0000
# 4 0.0000 0.0000 0.0000 32.0781 0.0000 -1.2406
# 5 2.6770 -4.5832 -7.7146 0.0000 25.6807 0.0000
# 6 0.0000 0.0000 0.0000 -1.2406 0.0000 20.6587
#
#
#
# Elastic Compliance Matrix: (Units=1/GPa)
#
#
# Indices 1 2 3 4 5 6 
#
# 1 0.019017 -0.004349 0.002481 0.000000 -0.002013 0.000000
# 2 -0.004349 0.010020 -0.003277 0.000000 0.001257 0.000000
# 3 0.002481 -0.003277 0.013285 0.000000 0.003147 0.000000
# 4 0.000000 0.000000 0.000000 0.031246 0.000000 0.001876
# 5 -0.002013 0.001257 0.003147 0.000000 0.040319 0.000000
# 6 0.000000 0.000000 0.000000 0.001876 0.000000 0.048518
#
#
# Mechanical properties :
#
#
# Convention : Reuss Voigt Hill
#
# Bulk Modulus (GPa) = 31.22034 38.85935 35.03984
# Shear Modulus (GPa) = 27.26694 30.29154 28.77924
#
# Velocity S-wave (km/s) = 3.63992 3.83649 3.73949
# Velocity P-wave (km/s) = 5.73021 6.20537 5.97251
#
# Compressibility (1/GPa) = 0.03203040
#
# Stress axis : x y z
#
# Youngs Moduli (GPa) = 52.58584 99.80401 75.27509
#
# Poissons Ratio (x) = 0.43406 -0.18677
# Poissons Ratio (y) = 0.22870 0.24669
# Poissons Ratio (z) = -0.13047 0.32708
#
# Static dielectric constant tensor:
#      x y z
#    x 1.752210 0.000000 -0.008040 
#    y 0.000000 1.799240 0.000000 
#    z -0.008040 0.000000 1.733190 
# 
# From -- ./inp_files/67167.got.cif
#   From: 2010.05.17/outbox.cif.g08.bks.cpg/sg15_34_cif.got.tgz:67167.got - 2010.06.03 18:47:42.
