data_PCOD9289537
_publ_section_title
;
Structure prediction by ZEFSAII (Michael W. Deem and Ramdas Pophale) SiO2 
 PCOD9289537
Probable space group: C 2/C
;
_chemical_formula_sum "Si O2"
_cell_formula_units_Z 40
_cell_length_a 8.391356
_cell_length_b 8.732315
_cell_length_c 23.915134
_cell_angle_alpha 90.000000
_cell_angle_beta 87.130948
_cell_angle_gamma 90.000000
_cell_volume 1750.207924
_symmetry_space_group_name_H-M "C 2/C"
_symmetry_group_IT_number 15
_symmetry_cell_setting 'monoclinic'
loop_
_space_group_symop_operation_xyz
x,y,z
-x,y,1/2-z
-x,-y,-z
x,-y,1/2+z
1/2+x,1/2+y,z
1/2-x,1/2+y,1/2-z
1/2-x,1/2-y,-z
1/2+x,1/2-y,1/2+z
loop_
_atom_site_type_symbol
_atom_site_label
_atom_site_fract_x
_atom_site_fract_y
_atom_site_fract_z
Si Si1 0.335119 0.676980 0.582613
Si Si2 0.992373 0.675144 0.981602
Si Si3 0.674202 0.328299 0.682901
Si Si4 0.830738 0.819313 0.281474
Si Si5 0.349846 0.326737 0.620415
O O1 0.171580 0.690623 0.550337
O O2 0.474507 0.722259 0.537436
O O3 0.310605 0.790755 0.634933
O O4 0.348886 0.505157 0.604869
O O5 0.129306 0.730680 0.936982
O O6 0.000000 0.500000 0.000000
O O7 0.703693 0.223103 0.735965
O O8 0.678283 0.503112 0.702397
O O9 0.506459 0.298019 0.655627
O O10 0.795889 0.723330 0.338036
O O11 0.000000 0.785802 0.250000
#
# Coordination Sequence:
#
# PCOD9289537 Si02
#       5
#     8   8   8   8   8
#     4  10  22  41  65  95 126 162 209 259 312 374
#     4  10  22  40  65  96 128 163 206 257 314 373
#     4  11  24  43  64  91 127 165 211 260 314 373
#     4  12  25  41  64  93 126 166 212 260 313 371
#     4  11  24  43  66  93 129 168 209 259 313 374
#
# _framework density 22.854427999999999
#
# number of rings (size 3 to 8) (size 9 to 14) (size 15 to 20)
#    0.000    1.200    0.000    6.000    0.000    8.800 
#    0.000    1.000    0.000    0.000    0.000    0.000 
#    0.000    0.000    0.000    0.000    0.000    0.000 
#
# Total GULP energy -112007.136785 kJ/mol
# GULP energy per Si atom -5600.356839 kJ/mol
# Density = 2.280241 g / cm^3
# Si number density = 22.854428 Si / 1000 Ang^3
#
#
#
# Elastic Constant Matrix: (Units=GPa)
#
#
# Indices 1 2 3 4 5 6 
#
# 1 73.3453 30.3479 65.2182 0.0000 -27.2257 0.0000
# 2 30.3479 101.7882 76.9579 0.0000 -41.8969 0.0000
# 3 65.2182 76.9579 207.1082 0.0000 -55.8487 0.0000
# 4 0.0000 0.0000 0.0000 65.1539 0.0000 3.2042
# 5 -27.2257 -41.8969 -55.8487 0.0000 32.3260 0.0000
# 6 0.0000 0.0000 0.0000 3.2042 0.0000 19.4548
#
#
#
# Elastic Compliance Matrix: (Units=1/GPa)
#
#
# Indices 1 2 3 4 5 6 
#
# 1 0.021394 0.002574 -0.003623 0.000000 0.015096 0.000000
# 2 0.002574 0.021452 -0.001310 0.000000 0.027708 0.000000
# 3 -0.003623 -0.001310 0.009690 0.000000 0.011991 0.000000
# 4 0.000000 0.000000 0.000000 0.015474 0.000000 -0.002548
# 5 0.015096 0.027708 0.011991 0.000000 0.100278 0.000000
# 6 0.000000 0.000000 0.000000 -0.002548 0.000000 0.051821
#
#
# Mechanical properties :
#
#
# Convention : Reuss Voigt Hill
#
# Bulk Modulus (GPa) = 20.91259 80.80995 50.86127
# Shear Modulus (GPa) = 20.76715 37.36813 29.06764
#
# Velocity S-wave (km/s) = 3.01769 4.04796 3.57018
# Velocity P-wave (km/s) = 4.61651 7.56857 6.26879
#
# Compressibility (1/GPa) = 0.04781808
#
# Stress axis : x y z
#
# Youngs Moduli (GPa) = 46.74240 46.61497 103.20424
#
# Poissons Ratio (x) = -0.11998 0.37387
# Poissons Ratio (y) = -0.12031 0.13520
# Poissons Ratio (z) = 0.16933 0.06107
#
# Static dielectric constant tensor:
#      x y z
#    x 1.879540 0.000000 -0.010710 
#    y 0.000000 1.775410 0.000000 
#    z -0.010710 0.000000 1.864180 
# 
# From -- ./inp_files/262426.got.cif
#   From: 2010.05.17/outbox.cif.g08.bks.cpg/sg15_132_cif.got.tgz:262426.got - 2010.06.03 18:47:42.
