data_PCOD9289704
_publ_section_title
;
Structure prediction by ZEFSAII (Michael W. Deem and Ramdas Pophale) SiO2 
 PCOD9289704
Probable space group: C 2/C
;
_chemical_formula_sum "Si O2"
_cell_formula_units_Z 52
_cell_length_a 6.243769
_cell_length_b 15.882446
_cell_length_c 28.830059
_cell_angle_alpha 90.000000
_cell_angle_beta 59.705328
_cell_angle_gamma 90.000000
_cell_volume 2468.556938
_symmetry_space_group_name_H-M "C 2/C"
_symmetry_group_IT_number 15
_symmetry_cell_setting 'monoclinic'
loop_
_space_group_symop_operation_xyz
x,y,z
-x,y,1/2-z
-x,-y,-z
x,-y,1/2+z
1/2+x,1/2+y,z
1/2-x,1/2+y,1/2-z
1/2-x,1/2-y,-z
1/2+x,1/2-y,1/2+z
loop_
_atom_site_type_symbol
_atom_site_label
_atom_site_fract_x
_atom_site_fract_y
_atom_site_fract_z
Si Si1 0.133167 0.853184 0.438999
Si Si2 0.019218 0.483982 0.602058
Si Si3 0.416868 0.643246 0.056945
Si Si4 0.242687 0.106356 0.200094
Si Si5 0.766743 0.983463 0.448570
Si Si6 0.001401 0.773063 0.647507
Si Si7 0.500000 0.221762 0.250000
O O1 0.050780 0.815864 0.497876
O O2 0.282381 0.791963 0.389468
O O3 0.883458 0.893122 0.445238
O O4 0.311991 0.934765 0.424882
O O5 0.150630 0.396308 0.572141
O O6 0.939411 0.463288 0.662586
O O7 0.770071 0.501257 0.601334
O O8 0.563003 0.556508 0.050128
O O9 0.420924 0.691017 0.105389
O O10 0.382069 0.166339 0.221324
O O11 0.000000 0.067692 0.250000
O O12 0.129718 0.160491 0.169055
O O13 0.500000 0.000000 0.500000
O O14 0.749694 0.737838 0.699692
#
# Coordination Sequence:
#
# PCOD9289704 Si02
#       7
#     8   8   8   8   8   8   4
#     4  11  24  35  59  97 130 159 201 258 315 374
#     4  11  20  39  62  88 120 165 201 250 307 369
#     4  11  20  37  62  91 125 165 206 244 309 388
#     4  10  22  40  67  87 110 162 217 252 306 377
#     4  11  19  37  59  86 129 166 198 242 304 375
#     4  11  23  40  61  92 124 160 212 260 315 376
#     4  10  22  44  68  80 120 164 210 264 318 370
#
# _framework density 21.064937
#
# number of rings (size 3 to 8) (size 9 to 14) (size 15 to 20)
#    0.000    1.231    6.154    1.385    0.000    1.231 
#    1.385    1.538    5.077    0.000    0.000    0.000 
#    0.000    0.000    0.000    0.000    0.000    0.000 
#
# Total GULP energy -144854.240571 kJ/mol
# GULP energy per Si atom -5571.316945 kJ/mol
# Density = 2.101699 g / cm^3
# Si number density = 21.064937 Si / 1000 Ang^3
#
#
#
# Elastic Constant Matrix: (Units=GPa)
#
#
# Indices 1 2 3 4 5 6 
#
# 1 76.6327 11.0484 26.8689 0.0001 2.7648 -0.0002
# 2 11.0484 29.7203 34.7043 0.0001 -0.9655 -0.0001
# 3 26.8689 34.7043 146.4379 0.0002 -11.9393 -0.0002
# 4 0.0001 0.0001 0.0002 28.3865 -0.0001 -8.8184
# 5 2.7648 -0.9655 -11.9393 -0.0001 36.4849 0.0001
# 6 -0.0002 -0.0001 -0.0002 -8.8184 0.0001 27.1794
#
#
#
# Elastic Compliance Matrix: (Units=1/GPa)
#
#
# Indices 1 2 3 4 5 6 
#
# 1 0.014266 -0.002947 -0.002069 0.000000 -0.001836 0.000000
# 2 -0.002947 0.047342 -0.010848 0.000000 -0.002074 0.000000
# 3 -0.002069 -0.010848 0.010036 0.000000 0.003154 0.000000
# 4 0.000000 0.000000 0.000000 0.039177 0.000000 0.012711
# 5 -0.001836 -0.002074 0.003154 0.000000 0.028525 0.000000
# 6 0.000000 0.000000 0.000000 0.012711 0.000000 0.040917
#
#
# Mechanical properties :
#
#
# Convention : Reuss Voigt Hill
#
# Bulk Modulus (GPa) = 25.05216 44.22602 34.63909
# Shear Modulus (GPa) = 22.19299 30.42144 26.30722
#
# Velocity S-wave (km/s) = 3.24937 3.80435 3.53776
# Velocity P-wave (km/s) = 5.09868 6.35123 5.75911
#
# Compressibility (1/GPa) = 0.03991672
#
# Stress axis : x y z
#
# Youngs Moduli (GPa) = 70.09794 21.12271 99.63703
#
# Poissons Ratio (x) = 0.06225 0.20613
# Poissons Ratio (y) = 0.20659 1.08086
# Poissons Ratio (z) = 0.14502 0.22914
#
# Static dielectric constant tensor:
#      x y z
#    x 1.849560 0.000000 -0.008500 
#    y 0.000000 1.743720 0.000000 
#    z -0.008500 0.000000 1.848450 
# 
# From -- ./inp_files/285985.got.cif
#   From: 2010.05.17/outbox.cif.g08.bks.cpg/sg15_143_cif.got.tgz:285985.got - 2010.06.03 18:47:42.
