data_PCOD9289496
_publ_section_title
;
Structure prediction by ZEFSAII (Michael W. Deem and Ramdas Pophale) SiO2 
 PCOD9289496
Probable space group: C 2/C
;
_chemical_formula_sum "Si O2"
_cell_formula_units_Z 48
_cell_length_a 15.520889
_cell_length_b 13.763212
_cell_length_c 32.442739
_cell_angle_alpha 90.000000
_cell_angle_beta 160.370590
_cell_angle_gamma 90.000000
_cell_volume 2328.140945
_symmetry_space_group_name_H-M "C 2/C"
_symmetry_group_IT_number 15
_symmetry_cell_setting 'monoclinic'
loop_
_space_group_symop_operation_xyz
x,y,z
-x,y,1/2-z
-x,-y,-z
x,-y,1/2+z
1/2+x,1/2+y,z
1/2-x,1/2+y,1/2-z
1/2-x,1/2-y,-z
1/2+x,1/2-y,1/2+z
loop_
_atom_site_type_symbol
_atom_site_label
_atom_site_fract_x
_atom_site_fract_y
_atom_site_fract_z
Si Si1 0.966104 0.165290 0.332917
Si Si2 0.449362 0.205647 0.905648
Si Si3 0.367087 0.037164 0.647517
Si Si4 0.998995 0.208340 0.589916
Si Si5 0.238503 0.950355 0.248085
Si Si6 0.872241 0.160468 0.441153
O O1 0.758415 0.231920 0.216021
O O2 0.260374 0.175748 0.450918
O O3 0.967542 0.209322 0.379646
O O4 0.863027 0.055900 0.286041
O O5 0.309917 0.116672 0.819455
O O6 0.308586 0.254287 0.880841
O O7 0.500000 0.073100 0.750000
O O8 0.329039 0.922422 0.637510
O O9 0.519462 0.047274 0.673800
O O10 0.103864 0.096663 0.525986
O O11 0.033767 0.103281 0.626547
O O12 0.750000 0.250000 0.500000
O O13 0.959285 0.204059 0.523636
#
# Coordination Sequence:
#
# PCOD9289496 Si02
#       6
#     8   8   8   8   8   8
#     4  10  22  40  65  90 132 173 215 260 326 400
#     4  10  23  40  65  96 131 170 215 270 334 394
#     4  11  21  35  65  98 128 158 210 278 330 380
#     4  11  24  40  63  95 130 171 216 273 326 392
#     4  11  23  41  66  97 132 174 215 270 331 394
#     4  11  23  38  62  98 128 160 214 274 329 385
#
# _framework density 20.617308000000001
#
# number of rings (size 3 to 8) (size 9 to 14) (size 15 to 20)
#    0.000    1.333    1.667    5.000    7.000    1.333 
#    0.000    0.833    3.667    0.000    0.000    0.000 
#    0.000    0.000    0.000    0.000    0.000    0.000 
#
# Total GULP energy -134121.623336 kJ/mol
# GULP energy per Si atom -5588.400972 kJ/mol
# Density = 2.057038 g / cm^3
# Si number density = 20.617308 Si / 1000 Ang^3
#
#
#
# Elastic Constant Matrix: (Units=GPa)
#
#
# Indices 1 2 3 4 5 6 
#
# 1 90.7570 46.3386 35.7236 0.0002 -14.8580 0.0112
# 2 46.3386 123.8713 21.4737 -0.0015 -10.0047 0.0065
# 3 35.7236 21.4737 41.8259 0.0037 -10.6554 0.0320
# 4 0.0002 -0.0015 0.0037 24.3566 0.0018 0.2321
# 5 -14.8580 -10.0047 -10.6554 0.0018 29.4060 0.0009
# 6 0.0112 0.0065 0.0320 0.2321 0.0009 22.8862
#
#
#
# Elastic Compliance Matrix: (Units=1/GPa)
#
#
# Indices 1 2 3 4 5 6 
#
# 1 0.019051 -0.004593 -0.013066 0.000001 0.003329 0.000010
# 2 -0.004593 0.010030 -0.001045 0.000001 0.000713 0.000001
# 3 -0.013066 -0.001045 0.037273 -0.000006 0.006549 -0.000046
# 4 0.000001 0.000001 -0.000006 0.041061 -0.000004 -0.000416
# 5 0.003329 0.000713 0.006549 -0.000004 0.038304 -0.000012
# 6 0.000010 0.000001 -0.000046 -0.000416 -0.000012 0.043699
#
#
# Mechanical properties :
#
#
# Convention : Reuss Voigt Hill
#
# Bulk Modulus (GPa) = 34.54579 51.50290 43.02434
# Shear Modulus (GPa) = 21.14398 25.52431 23.33415
#
# Velocity S-wave (km/s) = 3.20589 3.52235 3.36784
# Velocity P-wave (km/s) = 5.52229 6.44804 6.00304
#
# Compressibility (1/GPa) = 0.02894709
#
# Stress axis : x y z
#
# Youngs Moduli (GPa) = 52.48953 99.70295 26.82914
#
# Poissons Ratio (x) = 0.45794 0.35054
# Poissons Ratio (y) = 0.24108 0.02803
# Poissons Ratio (z) = 0.68581 0.10417
#
# Static dielectric constant tensor:
#      x y z
#    x 1.707040 -0.000030 0.020900 
#    y -0.000030 1.928380 -0.000010 
#    z 0.020900 -0.000010 1.833870 
# 
# From -- ./inp_files/205293.got.cif
#   From: 2010.05.17/outbox.cif.g08.bks.cpg/sg15_103_cif.got.tgz:205293.got - 2010.06.03 18:47:42.
