data_PCOD9289045
_publ_section_title
;
Structure prediction by ZEFSAII (Michael W. Deem and Ramdas Pophale) SiO2 
 PCOD9289045
Probable space group: C 2/C
;
_chemical_formula_sum "Si O2"
_cell_formula_units_Z 40
_cell_length_a 11.330811
_cell_length_b 18.011219
_cell_length_c 14.301666
_cell_angle_alpha 90.000000
_cell_angle_beta 40.772604
_cell_angle_gamma 90.000000
_cell_volume 1906.087652
_symmetry_space_group_name_H-M "C 2/C"
_symmetry_group_IT_number 15
_symmetry_cell_setting 'monoclinic'
loop_
_space_group_symop_operation_xyz
x,y,z
-x,y,1/2-z
-x,-y,-z
x,-y,1/2+z
1/2+x,1/2+y,z
1/2-x,1/2+y,1/2-z
1/2-x,1/2-y,-z
1/2+x,1/2-y,1/2+z
loop_
_atom_site_type_symbol
_atom_site_label
_atom_site_fract_x
_atom_site_fract_y
_atom_site_fract_z
Si Si1 0.785931 0.662695 0.139490
Si Si2 0.108419 0.745028 0.002374
Si Si3 0.378047 0.610726 0.579824
Si Si4 0.423548 0.204868 0.673089
Si Si5 0.576374 0.478829 0.803633
O O1 0.612791 0.714435 0.262117
O O2 0.737838 0.577925 0.182750
O O3 0.938592 0.690172 0.121552
O O4 0.879882 0.683633 0.983947
O O5 0.185147 0.707969 0.861321
O O6 0.020514 0.823972 0.023118
O O7 0.250000 0.750000 0.000000
O O8 0.182237 0.648916 0.697198
O O9 0.375124 0.547821 0.660905
O O10 0.437428 0.570714 0.448853
O O11 0.500000 0.503433 0.750000
#
# Coordination Sequence:
#
# PCOD9289045 Si02
#       5
#     8   8   8   8   8
#     4   9  18  36  55  87 117 150 198 245 288 370
#     4   9  19  34  64  91 118 151 195 257 306 347
#     4  10  22  40  58  91 119 156 202 255 293 378
#     4   9  18  36  60  83 122 143 197 252 300 335
#     4  11  23  40  61  80 125 167 201 237 314 361
#
# _framework density 20.985392999999998
#
# number of rings (size 3 to 8) (size 9 to 14) (size 15 to 20)
#    1.200    1.200    2.000    0.000    2.800    3.200 
#    0.000   10.000    0.000    0.000    0.000    0.000 
#    0.000    0.000    0.000    0.000    0.000    0.000 
#
# Total GULP energy -111365.911023 kJ/mol
# GULP energy per Si atom -5568.295551 kJ/mol
# Density = 2.093763 g / cm^3
# Si number density = 20.985393 Si / 1000 Ang^3
#
#
#
# Elastic Constant Matrix: (Units=GPa)
#
#
# Indices 1 2 3 4 5 6 
#
# 1 79.1979 -2.4196 17.1741 -0.0014 19.6864 0.0010
# 2 -2.4196 82.0786 25.4028 -0.0010 -4.9172 0.0005
# 3 17.1741 25.4028 103.6764 -0.0019 5.7417 0.0020
# 4 -0.0014 -0.0010 -0.0019 35.4646 0.0021 -0.8098
# 5 19.6864 -4.9172 5.7417 0.0021 26.2111 -0.0019
# 6 0.0010 0.0005 0.0020 -0.8098 -0.0019 5.7096
#
#
#
# Elastic Compliance Matrix: (Units=1/GPa)
#
#
# Indices 1 2 3 4 5 6 
#
# 1 0.015939 0.000440 -0.002115 0.000001 -0.011425 -0.000006
# 2 0.000440 0.013469 -0.003538 0.000000 0.002971 0.000001
# 3 -0.002115 -0.003538 0.010944 0.000000 -0.001472 -0.000004
# 4 0.000001 0.000000 0.000000 0.028289 -0.000003 0.004012
# 5 -0.011425 0.002971 -0.001472 -0.000003 0.047613 0.000017
# 6 -0.000006 0.000001 -0.000004 0.004012 0.000017 0.175713
#
#
# Mechanical properties :
#
#
# Convention : Reuss Voigt Hill
#
# Bulk Modulus (GPa) = 33.41545 38.36304 35.88925
# Shear Modulus (GPa) = 16.00674 28.46343 22.23508
#
# Velocity S-wave (km/s) = 2.76480 3.68685 3.25860
# Velocity P-wave (km/s) = 5.11370 6.03692 5.59439
#
# Compressibility (1/GPa) = 0.02992628
#
# Stress axis : x y z
#
# Youngs Moduli (GPa) = 62.74016 74.24277 91.37298
#
# Poissons Ratio (x) = -0.03267 0.19329
# Poissons Ratio (y) = -0.02761 0.32325
# Poissons Ratio (z) = 0.13272 0.26265
#
# Static dielectric constant tensor:
#      x y z
#    x 1.777770 0.000000 0.006000 
#    y 0.000000 1.729710 0.000000 
#    z 0.006000 0.000000 1.823180 
# 
# From -- ./inp_files/89319.got.cif
#   From: 2010.05.17/outbox.cif.g08.bks.cpg/sg15_45_cif.got.tgz:89319.got - 2010.06.03 18:47:42.
