data_PCOD9289919
_publ_section_title
;
Structure prediction by ZEFSAII (Michael W. Deem and Ramdas Pophale) SiO2 
 PCOD9289919
Probable space group: C 2/C
;
_chemical_formula_sum "Si O2"
_cell_formula_units_Z 56
_cell_length_a 14.601823
_cell_length_b 7.345330
_cell_length_c 22.917271
_cell_angle_alpha 90.000000
_cell_angle_beta 70.827086
_cell_angle_gamma 90.000000
_cell_volume 2321.655864
_symmetry_space_group_name_H-M "C 2/C"
_symmetry_group_IT_number 15
_symmetry_cell_setting 'monoclinic'
loop_
_space_group_symop_operation_xyz
x,y,z
-x,y,1/2-z
-x,-y,-z
x,-y,1/2+z
1/2+x,1/2+y,z
1/2-x,1/2+y,1/2-z
1/2-x,1/2-y,-z
1/2+x,1/2-y,1/2+z
loop_
_atom_site_type_symbol
_atom_site_label
_atom_site_fract_x
_atom_site_fract_y
_atom_site_fract_z
Si Si1 0.913362 0.343816 0.121077
Si Si2 0.390206 0.009395 0.253101
Si Si3 0.353493 0.204344 0.447954
Si Si4 0.206323 0.188968 0.664989
Si Si5 0.267674 0.275885 0.853322
Si Si6 0.381103 0.231063 0.941660
Si Si7 0.068217 0.272367 0.939427
O O1 0.895587 0.433513 0.187358
O O2 0.814815 0.242907 0.126816
O O3 0.927901 0.505977 0.070646
O O4 0.011548 0.233088 0.105503
O O5 0.500000 0.033587 0.250000
O O6 0.335497 0.199362 0.272665
O O7 0.334909 0.869493 0.307443
O O8 0.250000 0.250000 0.500000
O O9 0.353373 0.271998 0.381088
O O10 0.455410 0.276781 0.453883
O O11 0.362433 0.985835 0.445280
O O12 0.214446 0.975750 0.676403
O O13 0.302124 0.305996 0.913658
O O14 0.155069 0.216992 0.877477
O O15 0.392767 0.288699 0.005901
#
# Coordination Sequence:
#
# PCOD9289919 Si02
#       7
#     8   8   8   8   8   8   8
#     4  10  22  41  69 100 132 185 230 275 357 409
#     4  12  24  48  68  95 139 185 229 289 350 410
#     4  11  20  40  68 104 140 180 228 277 344 412
#     4  11  25  43  67 100 132 175 233 281 337 415
#     4  11  24  45  67 104 139 183 233 286 352 409
#     4  11  20  44  71  98 145 182 222 289 349 411
#     4  10  22  40  70 104 142 183 230 285 345 416
#
# _framework density 24.120715000000001
#
# number of rings (size 3 to 8) (size 9 to 14) (size 15 to 20)
#    0.000    1.143    2.857    5.571    4.000    0.571 
#    2.571    1.429    0.000    0.000    0.000    0.000 
#    0.000    0.000    0.000    0.000    0.000    0.000 
#
# Total GULP energy -156604.724125 kJ/mol
# GULP energy per Si atom -5593.025862 kJ/mol
# Density = 2.406582 g / cm^3
# Si number density = 24.120715 Si / 1000 Ang^3
#
#
#
# Elastic Constant Matrix: (Units=GPa)
#
#
# Indices 1 2 3 4 5 6 
#
# 1 125.5427 8.0217 36.0934 0.0000 -33.6510 0.0000
# 2 8.0217 73.3178 13.9292 0.0000 -20.3824 0.0000
# 3 36.0934 13.9292 121.1378 0.0000 -13.7271 0.0000
# 4 0.0000 0.0000 0.0000 33.6025 0.0000 -3.1943
# 5 -33.6510 -20.3824 -13.7271 0.0000 54.2790 0.0000
# 6 0.0000 0.0000 0.0000 -3.1943 0.0000 21.8097
#
#
#
# Elastic Compliance Matrix: (Units=1/GPa)
#
#
# Indices 1 2 3 4 5 6 
#
# 1 0.010253 0.001052 -0.002482 0.000000 0.006124 0.000000
# 2 0.001052 0.015490 -0.001402 0.000000 0.006115 0.000000
# 3 -0.002482 -0.001402 0.009185 0.000000 0.000258 0.000000
# 4 0.000000 0.000000 0.000000 0.030180 0.000000 0.004420
# 5 0.006124 0.006115 0.000258 0.000000 0.024581 0.000000
# 6 0.000000 0.000000 0.000000 0.004420 0.000000 0.046498
#
#
# Mechanical properties :
#
#
# Convention : Reuss Voigt Hill
#
# Bulk Modulus (GPa) = 34.17001 48.45409 41.31205
# Shear Modulus (GPa) = 32.98010 39.40185 36.19097
#
# Velocity S-wave (km/s) = 3.70170 4.04608 3.87772
# Velocity P-wave (km/s) = 5.69800 6.47761 6.10027
#
# Compressibility (1/GPa) = 0.02926543
#
# Stress axis : x y z
#
# Youngs Moduli (GPa) = 97.52968 64.55644 108.87344
#
# Poissons Ratio (x) = -0.06793 0.27023
# Poissons Ratio (y) = -0.10262 0.15262
# Poissons Ratio (z) = 0.24207 0.09049
#
# Static dielectric constant tensor:
#      x y z
#    x 1.977620 0.000000 0.003990 
#    y 0.000000 1.931700 0.000000 
#    z 0.003990 0.000000 1.918870 
# 
# From -- ./inp_files/273062.got.cif
#   From: 2010.05.17/outbox.cif.g08.bks.cpg/sg15_137_cif.got.tgz:273062.got - 2010.06.03 18:47:42.
