data_PCOD9289494
_publ_section_title
;
Structure prediction by ZEFSAII (Michael W. Deem and Ramdas Pophale) SiO2 
 PCOD9289494
Probable space group: C 2/C
;
_chemical_formula_sum "Si O2"
_cell_formula_units_Z 56
_cell_length_a 21.879041
_cell_length_b 8.021770
_cell_length_c 23.223372
_cell_angle_alpha 90.000000
_cell_angle_beta 137.833210
_cell_angle_gamma 90.000000
_cell_volume 2736.116901
_symmetry_space_group_name_H-M "C 2/C"
_symmetry_group_IT_number 15
_symmetry_cell_setting 'monoclinic'
loop_
_space_group_symop_operation_xyz
x,y,z
-x,y,1/2-z
-x,-y,-z
x,-y,1/2+z
1/2+x,1/2+y,z
1/2-x,1/2+y,1/2-z
1/2-x,1/2-y,-z
1/2+x,1/2-y,1/2+z
loop_
_atom_site_type_symbol
_atom_site_label
_atom_site_fract_x
_atom_site_fract_y
_atom_site_fract_z
Si Si1 0.757491 0.818680 0.203211
Si Si2 0.461457 0.164029 0.943785
Si Si3 0.596065 0.401956 0.103853
Si Si4 0.005674 0.145187 0.135629
Si Si5 0.178887 0.124747 0.325662
Si Si6 0.802712 0.074063 0.034034
Si Si7 0.756390 0.996837 0.881332
O O1 0.648144 0.818065 0.135816
O O2 0.821786 0.808908 0.304399
O O3 0.784211 0.661657 0.181121
O O4 0.777018 0.999856 0.189588
O O5 0.495096 0.184153 0.901443
O O6 0.514410 0.297119 0.020280
O O7 0.500000 0.000000 0.000000
O O8 0.551603 0.520715 0.121047
O O9 0.647660 0.480356 0.084888
O O10 0.072998 0.142579 0.236360
O O11 0.905565 0.101175 0.085108
O O12 0.195632 0.030772 0.397783
O O13 0.214498 0.315750 0.348245
O O14 0.750000 0.250000 0.000000
O O15 0.761224 0.964385 0.953342
#
# Coordination Sequence:
#
# PCOD9289494 Si02
#       7
#     8   8   8   8   8   8   8
#     4  11  25  40  64 101 130 172 213 268 333 389
#     4  12  24  36  63  99 131 162 211 271 327 397
#     4  11  23  40  63  96 132 169 214 262 342 394
#     4  11  21  41  64  89 127 169 212 266 327 385
#     4  10  24  41  65  93 127 175 217 258 319 393
#     4  10  22  40  65  89 121 175 220 264 316 388
#     4  11  21  41  65  90 136 164 210 268 327 380
#
# _framework density 20.466961999999999
#
# number of rings (size 3 to 8) (size 9 to 14) (size 15 to 20)
#    0.000    1.143    2.857    3.429    8.000    0.571 
#    0.000    0.000    0.000    3.429    0.000    0.000 
#    0.000    0.000    0.000    0.000    0.000    0.000 
#
# Total GULP energy -156018.648877 kJ/mol
# GULP energy per Si atom -5572.094603 kJ/mol
# Density = 2.042038 g / cm^3
# Si number density = 20.466962 Si / 1000 Ang^3
#
#
#
# Elastic Constant Matrix: (Units=GPa)
#
#
# Indices 1 2 3 4 5 6 
#
# 1 45.9719 -1.4801 18.8014 0.0000 4.8417 0.0000
# 2 -1.4801 62.6174 16.1555 0.0000 0.6085 0.0000
# 3 18.8014 16.1555 130.9871 0.0000 -0.9884 0.0000
# 4 0.0000 0.0000 0.0000 26.9677 0.0000 -2.1878
# 5 4.8417 0.6085 -0.9884 0.0000 38.9169 0.0000
# 6 0.0000 0.0000 0.0000 -2.1878 0.0000 18.3620
#
#
#
# Elastic Compliance Matrix: (Units=1/GPa)
#
#
# Indices 1 2 3 4 5 6 
#
# 1 0.023593 0.001515 -0.003596 0.000000 -0.003050 0.000000
# 2 0.001515 0.016596 -0.002268 0.000000 -0.000506 0.000000
# 3 -0.003596 -0.002268 0.008436 0.000000 0.000697 0.000000
# 4 0.000000 0.000000 0.000000 0.037443 0.000000 0.004461
# 5 -0.003050 -0.000506 0.000697 0.000000 0.026101 0.000000
# 6 0.000000 0.000000 0.000000 0.004461 0.000000 0.054992
#
#
# Mechanical properties :
#
#
# Convention : Reuss Voigt Hill
#
# Bulk Modulus (GPa) = 25.04630 34.05889 29.55260
# Shear Modulus (GPa) = 26.43148 30.58928 28.51038
#
# Velocity S-wave (km/s) = 3.59753 3.87016 3.73633
# Velocity P-wave (km/s) = 5.43326 6.05375 5.75188
#
# Compressibility (1/GPa) = 0.03992605
#
# Stress axis : x y z
#
# Youngs Moduli (GPa) = 42.38491 60.25572 118.54565
#
# Poissons Ratio (x) = -0.09130 0.42634
# Poissons Ratio (y) = -0.06422 0.26888
# Poissons Ratio (z) = 0.15243 0.13667
#
# Static dielectric constant tensor:
#      x y z
#    x 1.708260 0.000000 -0.027760 
#    y 0.000000 1.840280 0.000000 
#    z -0.027760 0.000000 1.790540 
# 
# From -- ./inp_files/281526.got.cif
#   From: 2010.05.17/outbox.cif.g08.bks.cpg/sg15_141_cif.got.tgz:281526.got - 2010.06.03 18:47:42.
