data_PCOD9289831
_publ_section_title
;
Structure prediction by ZEFSAII (Michael W. Deem and Ramdas Pophale) SiO2 
 PCOD9289831
Probable space group: C 2/C
;
_chemical_formula_sum "Si O2"
_cell_formula_units_Z 36
_cell_length_a 8.995101
_cell_length_b 18.377027
_cell_length_c 16.440057
_cell_angle_alpha 90.000000
_cell_angle_beta 151.392315
_cell_angle_gamma 90.000000
_cell_volume 1301.210264
_symmetry_space_group_name_H-M "C 2/C"
_symmetry_group_IT_number 15
_symmetry_cell_setting 'monoclinic'
loop_
_space_group_symop_operation_xyz
x,y,z
-x,y,1/2-z
-x,-y,-z
x,-y,1/2+z
1/2+x,1/2+y,z
1/2-x,1/2+y,1/2-z
1/2-x,1/2-y,-z
1/2+x,1/2-y,1/2+z
loop_
_atom_site_type_symbol
_atom_site_label
_atom_site_fract_x
_atom_site_fract_y
_atom_site_fract_z
Si Si1 0.531231 0.622604 0.361244
Si Si2 0.677154 0.984771 0.251955
Si Si3 0.476241 0.218692 0.424846
Si Si4 0.785727 0.936690 0.070864
Si Si5 0.250000 0.750000 0.000000
O O1 0.500000 0.605593 0.250000
O O2 0.350896 0.563994 0.327160
O O3 0.840217 0.657947 0.543510
O O4 0.360867 0.705410 0.281550
O O5 0.500000 0.979197 0.250000
O O6 0.428336 0.995453 0.058882
O O7 0.958330 0.929286 0.376914
O O8 0.750000 0.250000 0.500000
O O9 0.598122 0.135894 0.494124
O O10 0.385998 0.254048 0.465705
O O11 0.000000 0.952702 0.250000
#
# Coordination Sequence:
#
# PCOD9289831 Si02
#       5
#     8   8   8   8   4
#     4   9  21  41  64  94 135 184 226 297 359 423
#     4  11  24  45  71 106 147 191 242 308 371 438
#     4  10  24  43  65 100 140 182 237 298 359 434
#     4  11  25  46  72 104 145 194 244 299 372 438
#     4  10  22  40  68  96 132 186 238 288 366 430
#
# _framework density 27.666549
#
# number of rings (size 3 to 8) (size 9 to 14) (size 15 to 20)
#    0.000    1.778    0.000    2.000    9.333    3.556 
#    4.000    0.000    0.000    0.000    0.000    0.000 
#    0.000    0.000    0.000    0.000    0.000    0.000 
#
# Total GULP energy -100291.824092 kJ/mol
# GULP energy per Si atom -5571.768005 kJ/mol
# Density = 2.760358 g / cm^3
# Si number density = 27.666549 Si / 1000 Ang^3
#
#
#
# Elastic Constant Matrix: (Units=GPa)
#
#
# Indices 1 2 3 4 5 6 
#
# 1 235.3634 56.1535 57.5588 0.0009 37.6228 -0.0001
# 2 56.1535 102.7586 26.4352 0.0009 3.4895 0.0001
# 3 57.5588 26.4352 125.3763 0.0240 2.9493 -0.0018
# 4 0.0009 0.0009 0.0240 42.5695 -0.0036 13.7881
# 5 37.6228 3.4895 2.9493 -0.0036 66.6749 -0.0022
# 6 -0.0001 0.0001 -0.0018 13.7881 -0.0022 54.6635
#
#
#
# Elastic Compliance Matrix: (Units=1/GPa)
#
#
# Indices 1 2 3 4 5 6 
#
# 1 0.005861 -0.002564 -0.002078 0.000001 -0.003081 0.000000
# 2 -0.002564 0.011424 -0.001253 0.000001 0.000904 0.000000
# 3 -0.002078 -0.001253 0.009174 -0.000006 0.000832 0.000002
# 4 0.000001 0.000001 -0.000006 0.025581 0.000001 -0.006452
# 5 -0.003081 0.000904 0.000832 0.000001 0.016653 0.000000
# 6 0.000000 0.000000 0.000002 -0.006452 0.000000 0.019921
#
#
# Mechanical properties :
#
#
# Convention : Reuss Voigt Hill
#
# Bulk Modulus (GPa) = 68.16286 82.64370 75.40328
# Shear Modulus (GPa) = 47.48629 54.33831 50.91230
#
# Velocity S-wave (km/s) = 4.14742 4.43656 4.29442
# Velocity P-wave (km/s) = 6.90112 7.49535 7.20437
#
# Compressibility (1/GPa) = 0.01467075
#
# Stress axis : x y z
#
# Youngs Moduli (GPa) = 170.61861 87.53387 108.99815
#
# Poissons Ratio (x) = 0.22441 0.22647
# Poissons Ratio (y) = 0.43741 0.13658
# Poissons Ratio (z) = 0.35449 0.10969
#
# Static dielectric constant tensor:
#      x y z
#    x 2.294840 0.000000 0.111090 
#    y 0.000000 2.467090 -0.000060 
#    z 0.111090 -0.000060 2.654160 
# 
# From -- ./inp_files/192652.got.cif
#   From: 2010.05.17/outbox.cif.g08.bks.cpg/sg15_97_cif.got.tgz:192652.got - 2010.06.03 18:47:42.
