data_PCOD9289486
_publ_section_title
;
Structure prediction by ZEFSAII (Michael W. Deem and Ramdas Pophale) SiO2 
 PCOD9289486
Probable space group: C 2/C
;
_chemical_formula_sum "Si O2"
_cell_formula_units_Z 44
_cell_length_a 17.128887
_cell_length_b 25.863892
_cell_length_c 5.451005
_cell_angle_alpha 90.000000
_cell_angle_beta 54.349493
_cell_angle_gamma 90.000000
_cell_volume 1962.319100
_symmetry_space_group_name_H-M "C 2/C"
_symmetry_group_IT_number 15
_symmetry_cell_setting 'monoclinic'
loop_
_space_group_symop_operation_xyz
x,y,z
-x,y,1/2-z
-x,-y,-z
x,-y,1/2+z
1/2+x,1/2+y,z
1/2-x,1/2+y,1/2-z
1/2-x,1/2-y,-z
1/2+x,1/2-y,1/2+z
loop_
_atom_site_type_symbol
_atom_site_label
_atom_site_fract_x
_atom_site_fract_y
_atom_site_fract_z
Si Si1 0.693820 0.594635 0.285759
Si Si2 0.163685 0.216319 0.273759
Si Si3 0.500000 0.237894 0.750000
Si Si4 0.394306 0.804847 0.823034
Si Si5 0.000000 0.532522 0.250000
Si Si6 0.500000 0.533950 0.750000
Si Si7 0.800594 0.591619 0.591758
O O1 0.685352 0.656759 0.278729
O O2 0.592685 0.569885 0.543073
O O3 0.760667 0.579557 0.394212
O O4 0.734241 0.577040 0.945374
O O5 0.141077 0.246978 0.564152
O O6 0.064771 0.225579 0.303007
O O7 0.250000 0.250000 0.000000
O O8 0.580072 0.197066 0.507057
O O9 0.500000 0.812224 0.750000
O O10 0.320697 0.846792 0.050516
O O11 0.904081 0.566294 0.431120
O O12 0.000000 0.500000 0.500000
O O13 0.500000 0.500000 0.500000
#
# Coordination Sequence:
#
# PCOD9289486 Si02
#       7
#     8   8   4   8   4   4   8
#     4  12  29  46  79 111 144 195 253 305 374 442
#     4  11  23  42  65 109 149 193 236 302 361 449
#     4  10  24  36  66  94 156 206 246 280 356 440
#     4  10  22  40  65 103 152 198 230 281 358 453
#     4  12  28  49  77 110 145 182 237 312 378 448
#     4  12  30  57  79 102 143 198 265 336 376 414
#     4  12  26  47  75 112 147 189 239 295 375 462
#
# _framework density 22.422449
#
# number of rings (size 3 to 8) (size 9 to 14) (size 15 to 20)
#    0.000    0.727    2.727    3.273    8.909    7.273 
#    0.000    0.000    0.000    0.000    0.000    0.000 
#    0.000    0.000    0.000    0.000    0.000    0.000 
#
# Total GULP energy -122867.027498 kJ/mol
# GULP energy per Si atom -5584.864886 kJ/mol
# Density = 2.237141 g / cm^3
# Si number density = 22.422449 Si / 1000 Ang^3
#
#
#
# Elastic Constant Matrix: (Units=GPa)
#
#
# Indices 1 2 3 4 5 6 
#
# 1 123.3070 35.2780 39.7806 0.0000 -2.5902 0.0000
# 2 35.2780 85.8614 43.3276 0.0000 -4.4612 0.0000
# 3 39.7806 43.3276 161.0265 0.0000 0.0757 0.0000
# 4 0.0000 0.0000 0.0000 22.9722 0.0000 11.4443
# 5 -2.5902 -4.4612 0.0757 0.0000 40.1704 0.0000
# 6 0.0000 0.0000 0.0000 11.4443 0.0000 -8.5770
#
#
#
# Elastic Compliance Matrix: (Units=1/GPa)
#
#
# Indices 1 2 3 4 5 6 
#
# 1 0.009496 -0.003129 -0.001504 0.000000 0.000268 0.000000
# 2 -0.003129 0.014599 -0.003156 0.000000 0.001425 0.000000
# 3 -0.001504 -0.003156 0.007431 0.000000 -0.000461 0.000000
# 4 0.000000 0.000000 0.000000 0.026149 0.000000 0.034891
# 5 0.000268 0.001425 -0.000461 0.000000 0.025070 0.000000
# 6 0.000000 0.000000 0.000000 0.034891 0.000000 -0.070036
#
#
# Mechanical properties :
#
#
# Convention : Reuss Voigt Hill
#
# Bulk Modulus (GPa) = 62.70241 67.44080 65.07161
# Shear Modulus (GPa) = 148.79834 27.70037 88.24935
#
# Velocity S-wave (km/s) = 8.15508 3.51862 6.28037
# Velocity P-wave (km/s) = 10.80272 6.83010 9.03739
#
# Compressibility (1/GPa) = 0.01594835
#
# Stress axis : x y z
#
# Youngs Moduli (GPa) = 105.30940 68.49917 134.56913
#
# Poissons Ratio (x) = 0.21431 0.20242
# Poissons Ratio (y) = 0.32947 0.42468
# Poissons Ratio (z) = 0.15841 0.21617
#
# Static dielectric constant tensor:
#      x y z
#    x 1.902990 0.000000 0.062040 
#    y 0.000000 1.822370 0.000000 
#    z 0.062040 0.000000 1.921920 
# 
# From -- ./inp_files/11424.got.cif
#   From: 2010.05.17/outbox.cif.g08.bks.cpg/sg15_6_cif.got.tgz:11424.got - 2010.06.03 18:47:42.
