data_PCOD9289772
_publ_section_title
;
Structure prediction by ZEFSAII (Michael W. Deem and Ramdas Pophale) SiO2 
 PCOD9289772
Probable space group: C 2/C
;
_chemical_formula_sum "Si O2"
_cell_formula_units_Z 56
_cell_length_a 18.676234
_cell_length_b 19.548268
_cell_length_c 14.507193
_cell_angle_alpha 90.000000
_cell_angle_beta 29.399120
_cell_angle_gamma 90.000000
_cell_volume 2599.952985
_symmetry_space_group_name_H-M "C 2/C"
_symmetry_group_IT_number 15
_symmetry_cell_setting 'monoclinic'
loop_
_space_group_symop_operation_xyz
x,y,z
-x,y,1/2-z
-x,-y,-z
x,-y,1/2+z
1/2+x,1/2+y,z
1/2-x,1/2+y,1/2-z
1/2-x,1/2-y,-z
1/2+x,1/2-y,1/2+z
loop_
_atom_site_type_symbol
_atom_site_label
_atom_site_fract_x
_atom_site_fract_y
_atom_site_fract_z
Si Si1 0.500000 0.818666 0.750000
Si Si2 0.040523 0.796726 0.061401
Si Si3 0.319026 0.063001 0.348778
Si Si4 0.708673 0.890260 0.816618
Si Si5 0.000000 0.901211 0.250000
Si Si6 0.293990 0.303423 0.029618
Si Si7 0.004098 0.733933 0.567245
Si Si8 0.837469 0.423616 0.430946
O O1 0.423194 0.766316 0.909619
O O2 0.607947 0.869622 0.685913
O O3 0.953887 0.851027 0.219308
O O4 0.163726 0.842975 0.871695
O O5 0.949322 0.765564 0.081446
O O6 0.346576 0.065358 0.208015
O O7 0.144030 0.061014 0.557733
O O8 0.366606 0.995008 0.347268
O O9 0.590051 0.835542 0.980556
O O10 0.731654 0.929211 0.888331
O O11 0.267466 0.376949 0.014588
O O12 0.165474 0.285676 0.246504
O O13 0.250000 0.250000 0.000000
O O14 0.445418 0.285546 0.909091
O O15 0.000000 0.390497 0.250000
#
# Coordination Sequence:
#
# PCOD9289772 Si02
#       8
#     4   8   8   8   4   8   8   8
#     4  11  22  38  76 102 133 172 230 272 341 386
#     4  10  22  40  68 101 130 171 218 285 330 389
#     4  11  25  46  64  99 136 182 220 273 332 414
#     4  11  23  43  66  94 137 168 223 279 333 387
#     4   9  24  44  64  90 141 170 214 276 341 382
#     4  12  23  40  64  93 128 169 217 275 329 382
#     4  12  21  37  63  97 128 162 214 275 331 384
#     4  12  24  46  67  94 136 182 224 276 328 401
#
# _framework density 21.538851999999999
#
# number of rings (size 3 to 8) (size 9 to 14) (size 15 to 20)
#    0.000    0.857    6.429    0.429    2.000    2.286 
#   10.286    1.429    0.000    0.000    0.000    0.000 
#    0.000    0.000    0.000    0.000    0.000    0.000 
#
# Total GULP energy -156052.411300 kJ/mol
# GULP energy per Si atom -5573.300404 kJ/mol
# Density = 2.148983 g / cm^3
# Si number density = 21.538852 Si / 1000 Ang^3
#
#
#
# Elastic Constant Matrix: (Units=GPa)
#
#
# Indices 1 2 3 4 5 6 
#
# 1 116.0818 42.4728 27.4097 0.0001 34.6247 0.0005
# 2 42.4728 83.5370 22.5195 -0.0001 23.0983 0.0003
# 3 27.4097 22.5195 71.8367 0.0004 18.9820 -0.0001
# 4 0.0001 -0.0001 0.0004 13.3047 0.0000 5.0076
# 5 34.6247 23.0983 18.9820 0.0000 44.3922 -0.0002
# 6 0.0005 0.0003 -0.0001 5.0076 -0.0002 41.8210
#
#
#
# Elastic Compliance Matrix: (Units=1/GPa)
#
#
# Indices 1 2 3 4 5 6 
#
# 1 0.012563 -0.003997 -0.001692 0.000000 -0.006996 0.000000
# 2 -0.003997 0.015762 -0.002337 0.000000 -0.004085 0.000000
# 3 -0.001692 -0.002337 0.016492 -0.000001 -0.004516 0.000000
# 4 0.000000 0.000000 -0.000001 0.078708 0.000000 -0.009425
# 5 -0.006996 -0.004085 -0.004516 0.000000 0.032039 0.000000
# 6 0.000000 0.000000 0.000000 -0.009425 0.000000 0.025040
#
#
# Mechanical properties :
#
#
# Convention : Reuss Voigt Hill
#
# Bulk Modulus (GPa) = 34.76346 50.69550 42.72948
# Shear Modulus (GPa) = 24.24290 31.84048 28.04169
#
# Velocity S-wave (km/s) = 3.35855 3.84901 3.61212
# Velocity P-wave (km/s) = 5.58702 6.58339 6.10556
#
# Compressibility (1/GPa) = 0.02876584
#
# Stress axis : x y z
#
# Youngs Moduli (GPa) = 79.59680 63.44228 60.63553
#
# Poissons Ratio (x) = 0.25358 0.10260
# Poissons Ratio (y) = 0.31816 0.14169
# Poissons Ratio (z) = 0.13468 0.14825
#
# Static dielectric constant tensor:
#      x y z
#    x 2.168500 -0.000010 -0.290020 
#    y -0.000010 1.808810 0.000010 
#    z -0.290020 0.000010 2.102170 
# 
# From -- ./inp_files/169147.got.cif
#   From: 2010.05.17/outbox.cif.g08.bks.cpg/sg15_85_cif.got.tgz:169147.got - 2010.06.03 18:47:42.
