data_PCOD9289473
_publ_section_title
;
Structure prediction by ZEFSAII (Michael W. Deem and Ramdas Pophale) SiO2 
 PCOD9289473
Probable space group: C 2/C
;
_chemical_formula_sum "Si O2"
_cell_formula_units_Z 60
_cell_length_a 5.514095
_cell_length_b 26.819535
_cell_length_c 21.724655
_cell_angle_alpha 90.000000
_cell_angle_beta 55.935667
_cell_angle_gamma 90.000000
_cell_volume 2661.480428
_symmetry_space_group_name_H-M "C 2/C"
_symmetry_group_IT_number 15
_symmetry_cell_setting 'monoclinic'
loop_
_space_group_symop_operation_xyz
x,y,z
-x,y,1/2-z
-x,-y,-z
x,-y,1/2+z
1/2+x,1/2+y,z
1/2-x,1/2+y,1/2-z
1/2-x,1/2-y,-z
1/2+x,1/2-y,1/2+z
loop_
_atom_site_type_symbol
_atom_site_label
_atom_site_fract_x
_atom_site_fract_y
_atom_site_fract_z
Si Si1 0.851736 0.709641 0.704551
Si Si2 0.977686 0.976496 0.905627
Si Si3 0.825162 0.818464 0.672491
Si Si4 0.500000 0.973484 0.250000
Si Si5 0.018130 0.599880 0.853479
Si Si6 0.813530 0.913235 0.827756
Si Si7 0.223514 0.880252 0.927095
Si Si8 0.677079 0.417601 0.058760
O O1 0.500000 0.712289 0.750000
O O2 0.956066 0.764013 0.667024
O O3 0.000000 0.703372 0.750000
O O4 0.921548 0.658542 0.660148
O O5 0.026611 0.928627 0.941938
O O6 0.758480 0.953844 0.886922
O O7 0.266013 0.994313 0.824450
O O8 0.838902 0.024154 0.956576
O O9 0.500000 0.818180 0.750000
O O10 0.859611 0.829502 0.594375
O O11 0.003509 0.865164 0.675845
O O12 0.358069 0.935825 0.218961
O O13 0.668460 0.595817 0.891597
O O14 0.152066 0.585060 0.900845
O O15 0.510386 0.893701 0.847082
O O16 0.000000 0.939647 0.750000
O O17 0.299993 0.881552 0.987891
#
# Coordination Sequence:
#
# PCOD9289473 Si02
#       8
#     8   8   8   4   8   8   8   8
#     4  11  23  42  73 103 130 163 214 279 339 387
#     4  10  24  37  63  92 129 174 224 267 326 387
#     4  10  22  40  64  99 128 165 215 275 337 386
#     4  10  22  42  64  98 130 164 218 284 334 368
#     4  11  25  45  68  98 132 171 222 272 329 390
#     4  11  21  35  65  91 128 165 222 276 333 378
#     4  11  24  43  61  94 134 180 218 269 321 397
#     4  11  27  44  65  93 138 182 221 261 323 398
#
# _framework density 22.543845999999998
#
# number of rings (size 3 to 8) (size 9 to 14) (size 15 to 20)
#    0.000    1.333    2.000    2.400   14.933    0.533 
#    0.000    1.333    0.000    0.000    0.000    0.000 
#    0.000    0.000    0.000    0.000    0.000    0.000 
#
# Total GULP energy -167207.581975 kJ/mol
# GULP energy per Si atom -5573.586066 kJ/mol
# Density = 2.249254 g / cm^3
# Si number density = 22.543846 Si / 1000 Ang^3
#
#
#
# Elastic Constant Matrix: (Units=GPa)
#
#
# Indices 1 2 3 4 5 6 
#
# 1 80.8802 8.0802 23.5981 0.0000 11.5780 0.0000
# 2 8.0802 97.3606 -0.4638 0.0000 1.1138 0.0000
# 3 23.5981 -0.4638 53.5258 0.0000 14.0735 0.0000
# 4 0.0000 0.0000 0.0000 10.3527 0.0000 6.2550
# 5 11.5780 1.1138 14.0735 0.0000 40.1805 0.0000
# 6 0.0000 0.0000 0.0000 6.2550 0.0000 29.0284
#
#
#
# Elastic Compliance Matrix: (Units=1/GPa)
#
#
# Indices 1 2 3 4 5 6 
#
# 1 0.014491 -0.001207 -0.005849 0.000000 -0.002094 0.000000
# 2 -0.001207 0.010376 0.000668 0.000000 -0.000174 0.000000
# 3 -0.005849 0.000668 0.022941 0.000000 -0.006369 0.000000
# 4 0.000000 0.000000 0.000000 0.111050 0.000000 -0.023929
# 5 -0.002094 -0.000174 -0.006369 0.000000 0.027726 0.000000
# 6 0.000000 0.000000 0.000000 -0.023929 0.000000 0.039605
#
#
# Mechanical properties :
#
#
# Convention : Reuss Voigt Hill
#
# Bulk Modulus (GPa) = 28.54432 32.68843 30.61638
# Shear Modulus (GPa) = 19.94872 29.28248 24.61560
#
# Velocity S-wave (km/s) = 2.97793 3.60795 3.30797
# Velocity P-wave (km/s) = 4.95109 5.64693 5.31042
#
# Compressibility (1/GPa) = 0.03503324
#
# Stress axis : x y z
#
# Youngs Moduli (GPa) = 69.01032 96.37261 43.58951
#
# Poissons Ratio (x) = 0.11628 0.25493
# Poissons Ratio (y) = 0.08326 -0.02910
# Poissons Ratio (z) = 0.40361 -0.06433
#
# Static dielectric constant tensor:
#      x y z
#    x 1.924030 0.000000 0.011210 
#    y 0.000000 1.823790 0.000000 
#    z 0.011210 0.000000 1.934650 
# 
# From -- ./inp_files/228448.got.cif
#   From: 2010.05.17/outbox.cif.g08.bks.cpg/sg15_115_cif.got.tgz:228448.got - 2010.06.03 18:47:42.
