data_PCOD9289730
_publ_section_title
;
Structure prediction by ZEFSAII (Michael W. Deem and Ramdas Pophale) SiO2 
 PCOD9289730
Probable space group: C 2/C
;
_chemical_formula_sum "Si O2"
_cell_formula_units_Z 64
_cell_length_a 14.975397
_cell_length_b 15.750018
_cell_length_c 16.791361
_cell_angle_alpha 90.000000
_cell_angle_beta 137.900359
_cell_angle_gamma 90.000000
_cell_volume 2655.177354
_symmetry_space_group_name_H-M "C 2/C"
_symmetry_group_IT_number 15
_symmetry_cell_setting 'monoclinic'
loop_
_space_group_symop_operation_xyz
x,y,z
-x,y,1/2-z
-x,-y,-z
x,-y,1/2+z
1/2+x,1/2+y,z
1/2-x,1/2+y,1/2-z
1/2-x,1/2-y,-z
1/2+x,1/2-y,1/2+z
loop_
_atom_site_type_symbol
_atom_site_label
_atom_site_fract_x
_atom_site_fract_y
_atom_site_fract_z
Si Si1 0.167507 0.489555 0.699848
Si Si2 0.474255 0.373937 0.624236
Si Si3 0.704390 0.285335 0.861741
Si Si4 0.403154 0.083679 0.517964
Si Si5 0.636591 0.329131 0.291994
Si Si6 0.302412 0.529625 0.548750
Si Si7 0.156485 0.643533 0.326792
Si Si8 0.660039 0.633041 0.627046
O O1 0.142859 0.461767 0.593597
O O2 0.150177 0.405377 0.739666
O O3 0.294403 0.538736 0.817800
O O4 0.052723 0.560822 0.635453
O O5 0.621436 0.344725 0.745442
O O6 0.378839 0.309056 0.612880
O O7 0.432368 0.470208 0.622923
O O8 0.448936 0.369956 0.514052
O O9 0.852895 0.321547 0.972838
O O10 0.724887 0.192485 0.838038
O O11 0.313333 0.040782 0.525972
O O12 0.500000 0.326693 0.250000
O O13 0.700719 0.412676 0.373664
O O14 0.706614 0.240100 0.356310
O O15 0.618427 0.330586 0.185216
O O16 0.257911 0.592821 0.450232
O O17 0.000000 0.642638 0.250000
#
# Coordination Sequence:
#
# PCOD9289730 Si02
#       8
#     8   8   8   8   8   8   8   8
#     4  11  22  40  68 101 133 176 234 280 335 412
#     4  10  24  45  73 103 138 182 226 288 341 424
#     4  10  24  45  70 101 145 175 226 283 355 407
#     4  10  22  40  67  95 137 181 217 284 342 403
#     4  11  27  46  69  98 142 182 230 289 348 407
#     4  11  21  43  69  95 139 181 226 276 351 406
#     4  11  22  43  63  99 133 178 228 279 338 409
#     4  12  24  46  71 105 137 179 239 281 346 416
#
# _framework density 24.103850999999999
#
# number of rings (size 3 to 8) (size 9 to 14) (size 15 to 20)
#    0.000    1.250    3.750    1.500    5.250    0.000 
#   13.500    1.250    0.000    0.000    0.000    0.000 
#    0.000    0.000    0.000    0.000    0.000    0.000 
#
# Total GULP energy -178695.143938 kJ/mol
# GULP energy per Si atom -5584.223248 kJ/mol
# Density = 2.404899 g / cm^3
# Si number density = 24.103851 Si / 1000 Ang^3
#
#
#
# Elastic Constant Matrix: (Units=GPa)
#
#
# Indices 1 2 3 4 5 6 
#
# 1 60.0939 22.1724 22.2643 0.0000 -23.5610 0.0000
# 2 22.1724 127.5768 32.4346 0.0000 -18.3937 0.0000
# 3 22.2643 32.4346 107.8400 -0.0001 -32.5348 0.0000
# 4 0.0000 0.0000 -0.0001 33.1452 0.0000 -5.3131
# 5 -23.5610 -18.3937 -32.5348 0.0000 34.3281 0.0000
# 6 0.0000 0.0000 0.0000 -5.3131 0.0000 67.7666
#
#
#
# Elastic Compliance Matrix: (Units=1/GPa)
#
#
# Indices 1 2 3 4 5 6 
#
# 1 0.023188 -0.001931 0.000396 0.000000 0.015255 0.000000
# 2 -0.001931 0.008872 -0.001730 0.000000 0.001789 0.000000
# 3 0.000396 -0.001730 0.013324 0.000000 0.011972 0.000000
# 4 0.000000 0.000000 0.000000 0.030554 0.000000 0.002396
# 5 0.015255 0.001789 0.011972 0.000000 0.051906 0.000000
# 6 0.000000 0.000000 0.000000 0.002396 0.000000 0.014944
#
#
# Mechanical properties :
#
#
# Convention : Reuss Voigt Hill
#
# Bulk Modulus (GPa) = 25.73828 49.91702 37.82765
# Shear Modulus (GPa) = 30.81304 41.62394 36.21849
#
# Velocity S-wave (km/s) = 3.57927 4.16006 3.88055
# Velocity P-wave (km/s) = 5.27095 6.62034 5.98380
#
# Compressibility (1/GPa) = 0.03885263
#
# Stress axis : x y z
#
# Youngs Moduli (GPa) = 43.12658 112.71732 75.05500
#
# Poissons Ratio (x) = 0.21767 -0.02973
# Poissons Ratio (y) = 0.08328 0.12985
# Poissons Ratio (z) = -0.01708 0.19500
#
# Static dielectric constant tensor:
#      x y z
#    x 1.999780 0.000000 0.017550 
#    y 0.000000 1.963380 0.000000 
#    z 0.017550 0.000000 1.913620 
# 
# From -- ./inp_files/211404.got.cif
#   From: 2010.05.17/outbox.cif.g08.bks.cpg/sg15_106_cif.got.tgz:211404.got - 2010.06.03 18:47:42.
