data_PCOD9289068
_publ_section_title
;
Structure prediction by ZEFSAII (Michael W. Deem and Ramdas Pophale) SiO2 
 PCOD9289068
Probable space group: C 2/C
;
_chemical_formula_sum "Si O2"
_cell_formula_units_Z 32
_cell_length_a 10.523517
_cell_length_b 16.556066
_cell_length_c 7.576500
_cell_angle_alpha 90.000000
_cell_angle_beta 68.522472
_cell_angle_gamma 90.000000
_cell_volume 1228.376908
_symmetry_space_group_name_H-M "C 2/C"
_symmetry_group_IT_number 15
_symmetry_cell_setting 'monoclinic'
loop_
_space_group_symop_operation_xyz
x,y,z
-x,y,1/2-z
-x,-y,-z
x,-y,1/2+z
1/2+x,1/2+y,z
1/2-x,1/2+y,1/2-z
1/2-x,1/2-y,-z
1/2+x,1/2-y,1/2+z
loop_
_atom_site_type_symbol
_atom_site_label
_atom_site_fract_x
_atom_site_fract_y
_atom_site_fract_z
Si Si1 0.492043 0.629112 0.961386
Si Si2 0.375712 0.796329 0.031953
Si Si3 0.688181 0.077425 0.217104
Si Si4 0.293580 0.102163 0.897777
O O1 0.500000 0.608142 0.750000
O O2 0.488394 0.726797 0.976650
O O3 0.351270 0.593666 0.107212
O O4 0.371064 0.399935 0.015712
O O5 0.338917 0.826318 0.245640
O O6 0.250000 0.750000 0.000000
O O7 0.382993 0.874491 0.904877
O O8 0.654126 0.107862 0.430086
O O9 0.662013 0.982754 0.209296
#
# Coordination Sequence:
#
# PCOD9289068 Si02
#       4
#     8   8   8   8
#     4  11  21  39  60  93 132 164 203 265 317 373
#     4  10  22  40  59  93 132 171 198 269 320 376
#     4  11  22  38  66  94 128 163 212 266 324 365
#     4  12  21  40  65  95 125 165 213 266 316 376
#
# _framework density 26.050633999999999
#
# number of rings (size 3 to 8) (size 9 to 14) (size 15 to 20)
#    0.000    1.000    7.500    1.500    0.000    4.000 
#    4.500    0.000    0.000    1.500    0.000    0.000 
#    0.000    0.000    0.000    0.000    0.000    0.000 
#
# Total GULP energy -89806.215880 kJ/mol
# GULP energy per Si atom -5612.888492 kJ/mol
# Density = 2.599134 g / cm^3
# Si number density = 26.050634 Si / 1000 Ang^3
#
#
#
# Elastic Constant Matrix: (Units=GPa)
#
#
# Indices 1 2 3 4 5 6 
#
# 1 129.7323 20.6814 40.9194 0.0000 15.9647 0.0000
# 2 20.6814 116.5722 25.6872 0.0000 14.2985 0.0000
# 3 40.9194 25.6872 201.2266 0.0000 31.1442 0.0000
# 4 0.0000 0.0000 0.0000 50.9568 0.0000 -7.0839
# 5 15.9647 14.2985 31.1442 0.0000 40.3416 0.0000
# 6 0.0000 0.0000 0.0000 -7.0839 0.0000 23.6343
#
#
#
# Elastic Compliance Matrix: (Units=1/GPa)
#
#
# Indices 1 2 3 4 5 6 
#
# 1 0.008522 -0.000978 -0.001294 0.000000 -0.002026 0.000000
# 2 -0.000978 0.009179 -0.000601 0.000000 -0.002402 0.000000
# 3 -0.001294 -0.000601 0.005902 0.000000 -0.003832 0.000000
# 4 0.000000 0.000000 0.000000 0.020478 0.000000 0.006138
# 5 -0.002026 -0.002402 -0.003832 0.000000 0.029400 0.000000
# 6 0.000000 0.000000 0.000000 0.006138 0.000000 0.044151
#
#
# Mechanical properties :
#
#
# Convention : Reuss Voigt Hill
#
# Bulk Modulus (GPa) = 56.00300 69.12302 62.56301
# Shear Modulus (GPa) = 38.66053 47.00273 42.83163
#
# Velocity S-wave (km/s) = 3.85652 4.25229 4.05923
# Velocity P-wave (km/s) = 6.43232 7.12047 6.78512
#
# Compressibility (1/GPa) = 0.01785619
#
# Stress axis : x y z
#
# Youngs Moduli (GPa) = 117.34690 108.94436 169.42047
#
# Poissons Ratio (x) = 0.10656 0.21930
# Poissons Ratio (y) = 0.11477 0.10183
# Poissons Ratio (z) = 0.15189 0.06548
#
# Static dielectric constant tensor:
#      x y z
#    x 2.062430 0.000000 -0.059530 
#    y 0.000000 2.072760 0.000000 
#    z -0.059530 0.000000 1.991740 
# 
# From -- ./inp_files/46454.got.cif
#   From: 2010.05.17/outbox.cif.g08.bks.cpg/sg15_24_cif.got.tgz:46454.got - 2010.06.03 18:47:42.
