data_PCOD9289126
_publ_section_title
;
Structure prediction by ZEFSAII (Michael W. Deem and Ramdas Pophale) SiO2 
 PCOD9289126
Probable space group: C 2/C
;
_chemical_formula_sum "Si O2"
_cell_formula_units_Z 52
_cell_length_a 22.455459
_cell_length_b 7.436721
_cell_length_c 13.011470
_cell_angle_alpha 90.000000
_cell_angle_beta 84.734533
_cell_angle_gamma 90.000000
_cell_volume 2163.681204
_symmetry_space_group_name_H-M "C 2/C"
_symmetry_group_IT_number 15
_symmetry_cell_setting 'monoclinic'
loop_
_space_group_symop_operation_xyz
x,y,z
-x,y,1/2-z
-x,-y,-z
x,-y,1/2+z
1/2+x,1/2+y,z
1/2-x,1/2+y,1/2-z
1/2-x,1/2-y,-z
1/2+x,1/2-y,1/2+z
loop_
_atom_site_type_symbol
_atom_site_label
_atom_site_fract_x
_atom_site_fract_y
_atom_site_fract_z
Si Si1 0.230860 0.481359 0.616287
Si Si2 0.719554 0.844854 0.842456
Si Si3 0.000000 0.901795 0.250000
Si Si4 0.175446 0.292029 0.466328
Si Si5 0.590276 0.243054 0.399840
Si Si6 0.564800 0.708168 0.135885
Si Si7 0.428404 0.164602 0.648856
O O1 0.235657 0.697253 0.615362
O O2 0.241058 0.407963 0.728485
O O3 0.171666 0.385461 0.578674
O O4 0.282509 0.381970 0.542637
O O5 0.656857 0.736531 0.844295
O O6 0.703219 0.033919 0.900489
O O7 0.963550 0.816353 0.161391
O O8 0.947280 0.014514 0.313312
O O9 0.115768 0.228292 0.418352
O O10 0.592644 0.294984 0.519432
O O11 0.577437 0.031813 0.395376
O O12 0.591332 0.820363 0.228282
O O13 0.496761 0.778287 0.132106
#
# Coordination Sequence:
#
# PCOD9289126 Si02
#       7
#     8   8   4   8   8   8   8
#     4  11  23  44  64  91 130 166 219 275 324 378
#     4  11  24  42  67  92 131 169 222 270 328 381
#     4  10  22  40  60  96 138 164 214 254 312 396
#     4  10  23  42  65  95 123 173 217 265 326 388
#     4  11  23  40  63  99 125 175 211 258 326 382
#     4  10  22  41  65  94 133 170 202 268 315 384
#     4   9  21  40  66  92 127 167 214 258 321 379
#
# _framework density 24.033114999999999
#
# number of rings (size 3 to 8) (size 9 to 14) (size 15 to 20)
#    0.000    1.846    1.538    2.308    4.308    6.154 
#    8.308    0.000    0.000    0.000    0.000    0.000 
#    0.000    0.000    0.000    0.000    0.000    0.000 
#
# Total GULP energy -145038.034943 kJ/mol
# GULP energy per Si atom -5578.385959 kJ/mol
# Density = 2.397841 g / cm^3
# Si number density = 24.033115 Si / 1000 Ang^3
#
#
#
# Elastic Constant Matrix: (Units=GPa)
#
#
# Indices 1 2 3 4 5 6 
#
# 1 43.1011 -4.2081 8.6603 0.0000 15.3629 0.0000
# 2 -4.2081 37.6011 17.9096 0.0000 -3.4739 0.0000
# 3 8.6603 17.9096 78.1016 0.0000 11.5442 0.0000
# 4 0.0000 0.0000 0.0000 46.7663 0.0000 35.8282
# 5 15.3629 -3.4739 11.5442 0.0000 35.5759 0.0000
# 6 0.0000 0.0000 0.0000 35.8282 0.0000 57.2515
#
#
#
# Elastic Compliance Matrix: (Units=1/GPa)
#
#
# Indices 1 2 3 4 5 6 
#
# 1 0.027875 0.003140 -0.002182 0.000000 -0.011023 0.000000
# 2 0.003140 0.031229 -0.008151 0.000000 0.004338 0.000000
# 3 -0.002182 -0.008151 0.015644 0.000000 -0.004930 0.000000
# 4 0.000000 0.000000 0.000000 0.041076 0.000000 -0.025706
# 5 -0.011023 0.004338 -0.004930 0.000000 0.034892 0.000000
# 6 0.000000 0.000000 0.000000 -0.025706 0.000000 0.033553
#
#
# Mechanical properties :
#
#
# Convention : Reuss Voigt Hill
#
# Bulk Modulus (GPa) = 16.56614 22.61415 19.59014
# Shear Modulus (GPa) = 22.85443 37.01487 29.93465
#
# Velocity S-wave (km/s) = 3.08710 3.92875 3.53308
# Velocity P-wave (km/s) = 4.42888 5.47814 4.98122
#
# Compressibility (1/GPa) = 0.06036410
#
# Stress axis : x y z
#
# Youngs Moduli (GPa) = 35.87415 32.02101 63.92422
#
# Poissons Ratio (x) = -0.10056 0.13947
# Poissons Ratio (y) = -0.11266 0.52103
# Poissons Ratio (z) = 0.07827 0.26100
#
# Static dielectric constant tensor:
#      x y z
#    x 1.839400 0.000000 -0.110270 
#    y 0.000000 1.945060 0.000000 
#    z -0.110270 0.000000 1.839760 
# 
# From -- ./inp_files/121571.got.cif
#   From: 2010.05.17/outbox.cif.g08.bks.cpg/sg15_61_cif.got.tgz:121571.got - 2010.06.03 18:47:42.
