data_PCOD9289444
_publ_section_title
;
Structure prediction by ZEFSAII (Michael W. Deem and Ramdas Pophale) SiO2 
 PCOD9289444
Probable space group: C 2/C
;
_chemical_formula_sum "Si O2"
_cell_formula_units_Z 64
_cell_length_a 23.749151
_cell_length_b 8.650115
_cell_length_c 29.453209
_cell_angle_alpha 90.000000
_cell_angle_beta 28.119251
_cell_angle_gamma 90.000000
_cell_volume 2851.724883
_symmetry_space_group_name_H-M "C 2/C"
_symmetry_group_IT_number 15
_symmetry_cell_setting 'monoclinic'
loop_
_space_group_symop_operation_xyz
x,y,z
-x,y,1/2-z
-x,-y,-z
x,-y,1/2+z
1/2+x,1/2+y,z
1/2-x,1/2+y,1/2-z
1/2-x,1/2-y,-z
1/2+x,1/2-y,1/2+z
loop_
_atom_site_type_symbol
_atom_site_label
_atom_site_fract_x
_atom_site_fract_y
_atom_site_fract_z
Si Si1 0.034900 0.498184 0.318513
Si Si2 0.095402 0.173180 0.082005
Si Si3 0.368500 0.538232 0.344746
Si Si4 0.238868 0.682729 0.219232
Si Si5 0.179416 0.291872 0.504614
Si Si6 0.607291 0.499394 0.328230
Si Si7 0.211142 0.347340 0.130900
Si Si8 0.613147 0.421771 0.966471
O O1 0.141353 0.550055 0.276452
O O2 0.101696 0.459633 0.223168
O O3 0.957852 0.345603 0.384746
O O4 0.943031 0.637954 0.388835
O O5 0.122180 0.125783 0.113891
O O6 0.218954 0.150513 0.966645
O O7 0.991459 0.064089 0.135909
O O8 0.500000 0.462578 0.250000
O O9 0.261226 0.419297 0.421703
O O10 0.340699 0.674390 0.328392
O O11 0.303423 0.633723 0.219635
O O12 0.176602 0.848220 0.263332
O O13 0.337857 0.678981 0.109308
O O14 0.250000 0.250000 0.500000
O O15 0.155054 0.162856 0.483701
O O16 0.526971 0.446676 0.428607
O O17 0.319562 0.412435 0.084342
#
# Coordination Sequence:
#
# PCOD9289444 Si02
#       8
#     8   8   8   8   8   8   8   8
#     4  11  23  42  68  97 134 176 226 274 344 404
#     4  11  23  41  66  96 138 176 223 282 330 408
#     4  12  25  39  67 100 135 180 233 277 335 403
#     4  11  24  44  72  99 131 178 226 287 347 410
#     4  12  26  43  66 100 143 186 225 283 342 406
#     4  11  23  45  69  97 134 173 225 287 348 398
#     4  10  22  40  64  95 130 181 219 272 332 404
#     4  10  24  43  70  98 140 178 227 278 344 414
#
# _framework density 22.442557999999998
#
# number of rings (size 3 to 8) (size 9 to 14) (size 15 to 20)
#    0.000    1.000    3.750    3.000    3.500    1.000 
#    0.000    0.625    0.000    0.000    0.000    0.000 
#    0.000    0.000    0.000    0.000    0.000    0.000 
#
# Total GULP energy -178622.975889 kJ/mol
# GULP energy per Si atom -5581.967997 kJ/mol
# Density = 2.239148 g / cm^3
# Si number density = 22.442558 Si / 1000 Ang^3
#
#
#
# Elastic Constant Matrix: (Units=GPa)
#
#
# Indices 1 2 3 4 5 6 
#
# 1 77.3033 38.4462 14.5875 0.0043 -14.5826 -0.0065
# 2 38.4462 79.9600 19.2552 0.0127 -9.1509 -0.0148
# 3 14.5875 19.2552 123.0021 0.0014 -4.9698 -0.0046
# 4 0.0043 0.0127 0.0014 37.4247 -0.0019 -12.5093
# 5 -14.5826 -9.1509 -4.9698 -0.0019 27.0203 0.0048
# 6 -0.0065 -0.0148 -0.0046 -12.5093 0.0048 32.0426
#
#
#
# Elastic Compliance Matrix: (Units=1/GPa)
#
#
# Indices 1 2 3 4 5 6 
#
# 1 0.018291 -0.007823 -0.000658 0.000001 0.007101 -0.000001
# 2 -0.007823 0.016800 -0.001655 -0.000003 0.001163 0.000005
# 3 -0.000658 -0.001655 0.008493 0.000000 0.000647 0.000000
# 4 0.000001 -0.000003 0.000000 0.030730 -0.000001 0.011997
# 5 0.007101 0.001163 0.000647 -0.000001 0.041354 -0.000004
# 6 -0.000001 0.000005 0.000000 0.011997 -0.000004 0.035892
#
#
# Mechanical properties :
#
#
# Convention : Reuss Voigt Hill
#
# Bulk Modulus (GPa) = 42.89800 47.20482 45.05141
# Shear Modulus (GPa) = 27.83928 33.16262 30.50095
#
# Velocity S-wave (km/s) = 3.52585 3.84821 3.69055
# Velocity P-wave (km/s) = 5.97759 6.38939 6.18691
#
# Compressibility (1/GPa) = 0.02331111
#
# Stress axis : x y z
#
# Youngs Moduli (GPa) = 54.67294 59.52536 117.74194
#
# Poissons Ratio (x) = 0.46569 0.07742
# Poissons Ratio (y) = 0.42773 0.19487
# Poissons Ratio (z) = 0.03595 0.09852
#
# Static dielectric constant tensor:
#      x y z
#    x 1.833670 0.000000 0.026100 
#    y 0.000000 1.850520 0.000000 
#    z 0.026100 0.000000 1.896510 
# 
# From -- ./inp_files/318589.got.cif
#   From: 2010.05.17/outbox.cif.g08.bks.cpg/sg15_160_cif.got.tgz:318589.got - 2010.06.03 18:47:42.
