data_PCOD9289069
_publ_section_title
;
Structure prediction by ZEFSAII (Michael W. Deem and Ramdas Pophale) SiO2 
 PCOD9289069
Probable space group: C 2/C
;
_chemical_formula_sum "Si O2"
_cell_formula_units_Z 60
_cell_length_a 19.324384
_cell_length_b 24.718548
_cell_length_c 10.584201
_cell_angle_alpha 90.000000
_cell_angle_beta 144.919649
_cell_angle_gamma 90.000000
_cell_volume 2905.671491
_symmetry_space_group_name_H-M "C 2/C"
_symmetry_group_IT_number 15
_symmetry_cell_setting 'monoclinic'
loop_
_space_group_symop_operation_xyz
x,y,z
-x,y,1/2-z
-x,-y,-z
x,-y,1/2+z
1/2+x,1/2+y,z
1/2-x,1/2+y,1/2-z
1/2-x,1/2-y,-z
1/2+x,1/2-y,1/2+z
loop_
_atom_site_type_symbol
_atom_site_label
_atom_site_fract_x
_atom_site_fract_y
_atom_site_fract_z
Si Si1 0.580106 0.158239 0.495438
Si Si2 0.916619 0.076563 0.816449
Si Si3 0.220487 0.245245 0.106459
Si Si4 0.368377 0.455325 0.687484
Si Si5 0.572074 0.172426 0.988569
Si Si6 0.368047 0.052118 0.490550
Si Si7 0.500000 0.332863 0.250000
Si Si8 0.228587 0.558127 0.740052
O O1 0.500000 0.153537 0.250000
O O2 0.689336 0.196668 0.617690
O O3 0.509057 0.181026 0.508804
O O4 0.624188 0.100224 0.607590
O O5 0.937963 0.126796 0.757502
O O6 0.789648 0.075039 0.699240
O O7 0.913168 0.017487 0.746103
O O8 0.029582 0.075018 0.081009
O O9 0.324489 0.216103 0.339355
O O10 0.250000 0.250000 0.000000
O O11 0.103736 0.207385 0.951025
O O12 0.240801 0.448544 0.570220
O O13 0.336072 0.436697 0.500061
O O14 0.624205 0.110808 0.063690
O O15 0.500000 0.178257 0.750000
O O16 0.327084 0.001923 0.342286
O O17 0.500000 0.042221 0.750000
#
# Coordination Sequence:
#
# PCOD9289069 Si02
#       8
#     8   8   8   8   8   8   4   8
#     4  12  25  44  67 101 136 176 228 284 341 400
#     4  10  24  37  62  94 128 176 224 273 335 394
#     4  12  24  47  72  98 134 176 235 290 343 413
#     4  10  22  40  59  93 138 172 219 274 330 405
#     4  11  25  44  72 100 137 177 224 288 345 409
#     4  10  22  40  62 100 133 175 220 268 338 400
#     4  12  24  40  70  96 124 180 232 278 338 408
#     4  11  23  39  66  93 137 178 219 275 333 409
#
# _framework density 20.649273000000001
#
# number of rings (size 3 to 8) (size 9 to 14) (size 15 to 20)
#    0.000    1.067    2.000    4.000    7.467    3.733 
#    0.000    2.667    0.000    0.000    0.000    0.000 
#    0.000    0.000    0.000    0.000    0.000    0.000 
#
# Total GULP energy -167602.670888 kJ/mol
# GULP energy per Si atom -5586.755696 kJ/mol
# Density = 2.060227 g / cm^3
# Si number density = 20.649273 Si / 1000 Ang^3
#
#
#
# Elastic Constant Matrix: (Units=GPa)
#
#
# Indices 1 2 3 4 5 6 
#
# 1 51.0831 10.9522 14.0952 0.0000 -2.3038 0.0000
# 2 10.9522 92.7050 28.7979 0.0000 -9.1082 0.0000
# 3 14.0952 28.7979 98.3729 0.0000 -2.3536 0.0000
# 4 0.0000 0.0000 0.0000 16.5728 0.0000 18.9275
# 5 -2.3038 -9.1082 -2.3536 0.0000 29.6242 0.0000
# 6 0.0000 0.0000 0.0000 18.9275 0.0000 -62.5530
#
#
#
# Elastic Compliance Matrix: (Units=1/GPa)
#
#
# Indices 1 2 3 4 5 6 
#
# 1 0.020638 -0.001579 -0.002473 0.000000 0.000923 0.000000
# 2 -0.001579 0.012334 -0.003303 0.000000 0.003407 0.000000
# 3 -0.002473 -0.003303 0.011480 0.000000 -0.000296 0.000000
# 4 0.000000 0.000000 0.000000 0.044843 0.000000 0.013569
# 5 0.000923 0.003407 -0.000296 0.000000 0.034852 0.000000
# 6 0.000000 0.000000 0.000000 0.013569 0.000000 -0.011881
#
#
# Mechanical properties :
#
#
# Convention : Reuss Voigt Hill
#
# Bulk Modulus (GPa) = 33.62233 38.87238 36.24735
# Shear Modulus (GPa) = 36.52544 9.28317 22.90430
#
# Velocity S-wave (km/s) = 4.21033 2.12259 3.33409
# Velocity P-wave (km/s) = 6.32090 4.98730 5.69328
#
# Compressibility (1/GPa) = 0.02974214
#
# Stress axis : x y z
#
# Youngs Moduli (GPa) = 48.45315 81.07495 87.11160
#
# Poissons Ratio (x) = 0.12805 0.21540
# Poissons Ratio (y) = 0.07653 0.28772
# Poissons Ratio (z) = 0.11981 0.26779
#
# Static dielectric constant tensor:
#      x y z
#    x 1.686560 0.000000 0.028780 
#    y 0.000000 1.714480 0.000000 
#    z 0.028780 0.000000 1.720850 
# 
# From -- ./inp_files/114836.got.cif
#   From: 2010.05.17/outbox.cif.g08.bks.cpg/sg15_58_cif.got.tgz:114836.got - 2010.06.03 18:47:42.
