data_PCOD9289052
_publ_section_title
;
Structure prediction by ZEFSAII (Michael W. Deem and Ramdas Pophale) SiO2 
 PCOD9289052
Probable space group: C 2/C
;
_chemical_formula_sum "Si O2"
_cell_formula_units_Z 52
_cell_length_a 28.651201
_cell_length_b 10.638573
_cell_length_c 8.935067
_cell_angle_alpha 90.000000
_cell_angle_beta 84.244810
_cell_angle_gamma 90.000000
_cell_volume 2709.751087
_symmetry_space_group_name_H-M "C 2/C"
_symmetry_group_IT_number 15
_symmetry_cell_setting 'monoclinic'
loop_
_space_group_symop_operation_xyz
x,y,z
-x,y,1/2-z
-x,-y,-z
x,-y,1/2+z
1/2+x,1/2+y,z
1/2-x,1/2+y,1/2-z
1/2-x,1/2-y,-z
1/2+x,1/2-y,1/2+z
loop_
_atom_site_type_symbol
_atom_site_label
_atom_site_fract_x
_atom_site_fract_y
_atom_site_fract_z
Si Si1 0.159806 0.428083 0.466413
Si Si2 0.000000 0.548487 0.750000
Si Si3 0.798784 0.346628 0.726899
Si Si4 0.065419 0.414086 0.969269
Si Si5 0.690197 0.668750 0.326474
Si Si6 0.620139 0.328039 0.352839
Si Si7 0.644729 0.490993 0.089802
O O1 0.176209 0.389166 0.626734
O O2 0.192647 0.539361 0.391144
O O3 0.107232 0.485068 0.484972
O O4 0.166122 0.304094 0.361640
O O5 0.030248 0.467590 0.856766
O O6 0.037395 0.616800 0.630612
O O7 0.744993 0.317083 0.775596
O O8 0.826334 0.224231 0.659616
O O9 0.088795 0.290896 0.894537
O O10 0.667591 0.587983 0.199654
O O11 0.682187 0.587472 0.480102
O O12 0.614811 0.392057 0.194437
O O13 0.614569 0.431209 0.481905
#
# Coordination Sequence:
#
# PCOD9289052 Si02
#       7
#     8   4   8   8   8   8   8
#     4  11  23  37  61  86 124 162 199 257 292 358
#     4  10  22  40  70  96 116 144 180 264 320 376
#     4  11  23  36  55  87 122 165 208 259 287 334
#     4  10  22  41  65  98 117 146 197 247 324 356
#     4  11  23  37  56  83 123 167 216 244 290 340
#     4  10  22  40  59  85 124 155 208 243 294 368
#     4  10  23  38  56  84 113 175 196 248 283 349
#
# _framework density 19.189954
#
# number of rings (size 3 to 8) (size 9 to 14) (size 15 to 20)
#    0.000    1.538    1.538    3.231   10.769    0.615 
#    0.000    0.000    0.000    2.769    0.000    0.000 
#    0.000    0.000    0.000    0.000    0.000    0.000 
#
# Total GULP energy -145226.420337 kJ/mol
# GULP energy per Si atom -5585.631551 kJ/mol
# Density = 1.914628 g / cm^3
# Si number density = 19.189954 Si / 1000 Ang^3
#
#
#
# Elastic Constant Matrix: (Units=GPa)
#
#
# Indices 1 2 3 4 5 6 
#
# 1 65.9209 4.6919 13.9367 0.0000 -18.6670 0.0000
# 2 4.6919 67.1240 11.4020 0.0000 -17.4230 0.0000
# 3 13.9367 11.4020 93.3001 0.0000 -19.4573 0.0000
# 4 0.0000 0.0000 0.0000 -6.9944 0.0000 10.5186
# 5 -18.6670 -17.4230 -19.4573 0.0000 22.6948 0.0000
# 6 0.0000 0.0000 0.0000 10.5186 0.0000 -0.5070
#
#
#
# Elastic Compliance Matrix: (Units=1/GPa)
#
#
# Indices 1 2 3 4 5 6 
#
# 1 0.020516 0.003727 0.000726 0.000000 0.020358 0.000000
# 2 0.003727 0.019339 0.000993 0.000000 0.018763 0.000000
# 3 0.000726 0.000993 0.013117 0.000000 0.012605 0.000000
# 4 0.000000 0.000000 0.000000 0.004734 0.000000 0.098217
# 5 0.020358 0.018763 0.012605 0.000000 0.086020 0.000000
# 6 0.000000 0.000000 0.000000 0.098217 0.000000 0.065310
#
#
# Mechanical properties :
#
#
# Convention : Reuss Voigt Hill
#
# Bulk Modulus (GPa) = 15.65857 31.82291 23.74074
# Shear Modulus (GPa) = 22.78606 16.12631 19.45619
#
# Velocity S-wave (km/s) = 3.44960 2.90203 3.18759
# Velocity P-wave (km/s) = 4.90345 5.27713 5.09372
#
# Compressibility (1/GPa) = 0.06386278
#
# Stress axis : x y z
#
# Youngs Moduli (GPa) = 48.74268 51.70916 76.23653
#
# Poissons Ratio (x) = -0.19272 -0.05531
# Poissons Ratio (y) = -0.18166 -0.07570
# Poissons Ratio (z) = -0.03537 -0.05134
#
# Static dielectric constant tensor:
#      x y z
#    x 1.646640 0.000000 -0.014420 
#    y 0.000000 1.664350 0.000000 
#    z -0.014420 0.000000 1.695750 
# 
# From -- ./inp_files/65141.got.cif
#   From: 2010.05.17/outbox.cif.g08.bks.cpg/sg15_33_cif.got.tgz:65141.got - 2010.06.03 18:47:42.
