data_PCOD9289627
_publ_section_title
;
Structure prediction by ZEFSAII (Michael W. Deem and Ramdas Pophale) SiO2 
 PCOD9289627
Probable space group: C 2/C
;
_chemical_formula_sum "Si O2"
_cell_formula_units_Z 56
_cell_length_a 6.955921
_cell_length_b 26.683387
_cell_length_c 17.936237
_cell_angle_alpha 90.000000
_cell_angle_beta 127.754636
_cell_angle_gamma 90.000000
_cell_volume 2632.120279
_symmetry_space_group_name_H-M "C 2/C"
_symmetry_group_IT_number 15
_symmetry_cell_setting 'monoclinic'
loop_
_space_group_symop_operation_xyz
x,y,z
-x,y,1/2-z
-x,-y,-z
x,-y,1/2+z
1/2+x,1/2+y,z
1/2-x,1/2+y,1/2-z
1/2-x,1/2-y,-z
1/2+x,1/2-y,1/2+z
loop_
_atom_site_type_symbol
_atom_site_label
_atom_site_fract_x
_atom_site_fract_y
_atom_site_fract_z
Si Si1 0.224889 0.004663 0.498426
Si Si2 0.926530 0.628786 0.816625
Si Si3 0.915515 0.267514 0.363234
Si Si4 0.139791 0.881744 0.965665
Si Si5 0.647515 0.795693 0.576040
Si Si6 0.741993 0.471164 0.343662
Si Si7 0.351193 0.830390 0.649470
O O1 0.191522 0.060926 0.458356
O O2 0.492196 0.002247 0.599617
O O3 0.207978 0.967562 0.424674
O O4 0.000000 0.000000 0.500000
O O5 0.808582 0.683404 0.799162
O O6 0.775993 0.582855 0.813937
O O7 0.000000 0.618810 0.750000
O O8 0.173969 0.630806 0.923739
O O9 0.755572 0.218358 0.333691
O O10 0.156893 0.249416 0.375643
O O11 0.984136 0.281768 0.465108
O O12 0.207639 0.845518 0.913791
O O13 0.870001 0.866478 0.926472
O O14 0.499316 0.809351 0.614270
O O15 0.500000 0.494839 0.250000
O O16 0.500000 0.857783 0.750000
#
# Coordination Sequence:
#
# PCOD9289627 Si02
#       7
#     8   8   8   8   8   8   8
#     4  10  23  45  72  94 130 172 213 272 337 398
#     4  10  22  40  66  93 132 168 206 268 332 388
#     4   9  20  37  58  91 122 172 209 256 322 378
#     4   9  22  43  61  90 123 168 212 259 330 380
#     4   9  19  40  61  81 129 164 211 267 310 379
#     4  10  24  43  65 101 129 166 216 270 330 397
#     4  11  23  37  61  92 124 170 219 264 312 381
#
# _framework density 21.275621999999998
#
# number of rings (size 3 to 8) (size 9 to 14) (size 15 to 20)
#    0.000    2.286    0.000    1.286    6.000    6.857 
#    5.143    0.000    0.000    0.000    0.000    0.000 
#    0.000    0.000    0.000    0.000    0.000    0.000 
#
# Total GULP energy -156242.243192 kJ/mol
# GULP energy per Si atom -5580.080114 kJ/mol
# Density = 2.122720 g / cm^3
# Si number density = 21.275622 Si / 1000 Ang^3
#
#
#
# Elastic Constant Matrix: (Units=GPa)
#
#
# Indices 1 2 3 4 5 6 
#
# 1 135.2841 7.1363 52.9263 0.0000 4.2826 0.0000
# 2 7.1363 58.7894 6.5443 0.0000 -12.3124 0.0000
# 3 52.9263 6.5443 80.4852 0.0000 14.0282 0.0000
# 4 0.0000 0.0000 0.0000 10.0442 0.0000 -4.0963
# 5 4.2826 -12.3124 14.0282 0.0000 22.3331 0.0000
# 6 0.0000 0.0000 0.0000 -4.0963 0.0000 19.0727
#
#
#
# Elastic Compliance Matrix: (Units=1/GPa)
#
#
# Indices 1 2 3 4 5 6 
#
# 1 0.010076 0.000105 -0.007083 0.000000 0.002575 0.000000
# 2 0.000105 0.020344 -0.004126 0.000000 0.013788 0.000000
# 3 -0.007083 -0.004126 0.019739 0.000000 -0.013315 0.000000
# 4 0.000000 0.000000 0.000000 0.109118 0.000000 0.023435
# 5 0.002575 0.013788 -0.013315 0.000000 0.060248 0.000000
# 6 0.000000 0.000000 0.000000 0.023435 0.000000 0.057464
#
#
# Mechanical properties :
#
#
# Convention : Reuss Voigt Hill
#
# Bulk Modulus (GPa) = 35.77883 45.30805 40.54344
# Shear Modulus (GPa) = 16.20673 24.15344 20.18008
#
# Velocity S-wave (km/s) = 2.76298 3.37302 3.08313
# Velocity P-wave (km/s) = 5.19924 6.04249 5.63665
#
# Compressibility (1/GPa) = 0.02794949
#
# Stress axis : x y z
#
# Youngs Moduli (GPa) = 99.24688 49.15448 50.66207
#
# Poissons Ratio (x) = -0.00514 0.35884
# Poissons Ratio (y) = -0.01038 0.20904
# Poissons Ratio (z) = 0.70297 0.20282
#
# Static dielectric constant tensor:
#      x y z
#    x 1.782050 0.000000 0.048700 
#    y 0.000000 1.800410 0.000000 
#    z 0.048700 0.000000 1.789240 
# 
# From -- ./inp_files/186799.got.cif
#   From: 2010.05.17/outbox.cif.g08.bks.cpg/sg15_94_cif.got.tgz:186799.got - 2010.06.03 18:47:42.
