data_PCOD9289918
_publ_section_title
;
Structure prediction by ZEFSAII (Michael W. Deem and Ramdas Pophale) SiO2 
 PCOD9289918
Probable space group: C 2/C
;
_chemical_formula_sum "Si O2"
_cell_formula_units_Z 44
_cell_length_a 15.783434
_cell_length_b 10.951095
_cell_length_c 24.693746
_cell_angle_alpha 90.000000
_cell_angle_beta 154.839933
_cell_angle_gamma 90.000000
_cell_volume 1814.624340
_symmetry_space_group_name_H-M "C 2/C"
_symmetry_group_IT_number 15
_symmetry_cell_setting 'monoclinic'
loop_
_space_group_symop_operation_xyz
x,y,z
-x,y,1/2-z
-x,-y,-z
x,-y,1/2+z
1/2+x,1/2+y,z
1/2-x,1/2+y,1/2-z
1/2-x,1/2-y,-z
1/2+x,1/2-y,1/2+z
loop_
_atom_site_type_symbol
_atom_site_label
_atom_site_fract_x
_atom_site_fract_y
_atom_site_fract_z
Si Si1 0.549621 0.034172 0.644178
Si Si2 0.691937 0.877637 0.596465
Si Si3 0.606210 0.802821 0.980976
Si Si4 0.005470 0.970474 0.438195
Si Si5 0.154028 0.353948 0.379717
Si Si6 0.500000 0.569179 0.750000
O O1 0.467645 0.063381 0.537130
O O2 0.782426 0.030648 0.787554
O O3 0.460761 0.141060 0.630390
O O4 0.465910 0.897344 0.607214
O O5 0.566368 0.824349 0.573132
O O6 0.792698 0.768993 0.620680
O O7 0.865806 0.976338 0.708815
O O8 0.600651 0.657761 0.974849
O O9 0.828349 0.848709 0.124071
O O10 0.000000 0.000000 0.500000
O O11 0.141881 0.075906 0.493154
O O12 0.000000 0.422614 0.250000
#
# Coordination Sequence:
#
# PCOD9289918 Si02
#       6
#     8   8   8   8   8   4
#     4  11  26  43  70 108 136 188 242 290 357 424
#     4  11  23  46  73 103 145 186 239 296 352 435
#     4  11  26  46  73 107 145 188 237 301 359 427
#     4  12  26  46  72 100 147 192 233 298 363 427
#     4  12  24  45  72 101 142 194 242 286 358 429
#     4  10  22  40  70 104 140 182 236 294 360 408
#
# _framework density 24.247441999999999
#
# number of rings (size 3 to 8) (size 9 to 14) (size 15 to 20)
#    0.000    0.727    4.545    2.727    3.818    6.545 
#    0.000    0.000    0.000    0.000    0.000    0.000 
#    0.000    0.000    0.000    0.000    0.000    0.000 
#
# Total GULP energy -122982.840836 kJ/mol
# GULP energy per Si atom -5590.129129 kJ/mol
# Density = 2.419225 g / cm^3
# Si number density = 24.247442 Si / 1000 Ang^3
#
#
#
# Elastic Constant Matrix: (Units=GPa)
#
#
# Indices 1 2 3 4 5 6 
#
# 1 77.9778 7.8265 34.2809 0.0010 6.6553 -0.0001
# 2 7.8265 153.1278 61.3964 0.0033 18.1146 -0.0003
# 3 34.2809 61.3964 203.7968 0.0144 38.9151 -0.0020
# 4 0.0010 0.0033 0.0144 26.5050 -0.0020 5.6905
# 5 6.6553 18.1146 38.9151 -0.0020 25.4340 -0.0004
# 6 -0.0001 -0.0003 -0.0020 5.6905 -0.0004 25.4881
#
#
#
# Elastic Compliance Matrix: (Units=1/GPa)
#
#
# Indices 1 2 3 4 5 6 
#
# 1 0.013858 0.000266 -0.002377 0.000001 -0.000179 0.000000
# 2 0.000266 0.007560 -0.001810 0.000000 -0.002685 0.000000
# 3 -0.002377 -0.001810 0.007752 -0.000005 -0.009950 0.000002
# 4 0.000001 0.000000 -0.000005 0.039628 0.000011 -0.008847
# 5 -0.000179 -0.002685 -0.009950 0.000011 0.056500 -0.000002
# 6 0.000000 0.000000 0.000002 -0.008847 -0.000002 0.041209
#
#
# Mechanical properties :
#
#
# Convention : Reuss Voigt Hill
#
# Bulk Modulus (GPa) = 46.88613 71.32333 59.10473
# Shear Modulus (GPa) = 27.55455 37.57865 32.56660
#
# Velocity S-wave (km/s) = 3.37470 3.94102 3.66880
# Velocity P-wave (km/s) = 5.87905 7.08431 6.50964
#
# Compressibility (1/GPa) = 0.02132827
#
# Stress axis : x y z
#
# Youngs Moduli (GPa) = 72.16192 132.27322 129.00308
#
# Poissons Ratio (x) = -0.03517 0.30665
# Poissons Ratio (y) = -0.01919 0.23344
# Poissons Ratio (z) = 0.17153 0.23935
#
# Static dielectric constant tensor:
#      x y z
#    x 2.010350 0.000000 -0.005210 
#    y 0.000000 1.992710 0.000000 
#    z -0.005210 0.000000 1.869360 
# 
# From -- ./inp_files/316278.got.cif
#   From: 2010.05.17/outbox.cif.g08.bks.cpg/sg15_159_cif.got.tgz:316278.got - 2010.06.03 18:47:42.
