data_PCOD9289245
_publ_section_title
;
Structure prediction by ZEFSAII (Michael W. Deem and Ramdas Pophale) SiO2 
 PCOD9289245
Probable space group: C 2/C
;
_chemical_formula_sum "Si O2"
_cell_formula_units_Z 40
_cell_length_a 8.398928
_cell_length_b 12.806130
_cell_length_c 27.851963
_cell_angle_alpha 90.000000
_cell_angle_beta 139.656784
_cell_angle_gamma 90.000000
_cell_volume 1939.307543
_symmetry_space_group_name_H-M "C 2/C"
_symmetry_group_IT_number 15
_symmetry_cell_setting 'monoclinic'
loop_
_space_group_symop_operation_xyz
x,y,z
-x,y,1/2-z
-x,-y,-z
x,-y,1/2+z
1/2+x,1/2+y,z
1/2-x,1/2+y,1/2-z
1/2-x,1/2-y,-z
1/2+x,1/2-y,1/2+z
loop_
_atom_site_type_symbol
_atom_site_label
_atom_site_fract_x
_atom_site_fract_y
_atom_site_fract_z
Si Si1 0.785209 0.948780 0.980604
Si Si2 0.104724 0.086933 0.163273
Si Si3 0.000544 0.354321 0.670686
Si Si4 0.580786 0.645791 0.897922
Si Si5 0.342489 0.153603 0.489172
O O1 0.579756 0.912186 0.896382
O O2 0.910136 0.858790 0.041881
O O3 0.690193 0.041425 0.992563
O O4 0.000000 0.000000 0.000000
O O5 0.258426 0.107411 0.246390
O O6 0.277236 0.126310 0.158064
O O7 0.844252 0.146147 0.098608
O O8 0.042322 0.964413 0.144337
O O9 0.037639 0.236538 0.660851
O O10 0.870373 0.659880 0.953954
O O11 0.250000 0.250000 0.500000
#
# Coordination Sequence:
#
# PCOD9289245 Si02
#       5
#     8   8   8   8   8
#     4  11  20  38  64  94 128 169 221 267 317 401
#     4  10  22  40  62  93 133 163 219 272 333 393
#     4  11  22  40  65  94 129 170 216 272 340 385
#     4  11  22  42  68  91 130 174 215 270 328 399
#     4  11  21  40  65  95 125 173 218 262 330 398
#
# _framework density 20.625921000000002
#
# number of rings (size 3 to 8) (size 9 to 14) (size 15 to 20)
#    0.000    1.200    6.000    3.000    0.000    1.600 
#    0.000    3.000    8.800    0.000    0.000    0.000 
#    0.000    0.000    0.000    0.000    0.000    0.000 
#
# Total GULP energy -111603.620452 kJ/mol
# GULP energy per Si atom -5580.181023 kJ/mol
# Density = 2.057898 g / cm^3
# Si number density = 20.625921 Si / 1000 Ang^3
#
#
#
# Elastic Constant Matrix: (Units=GPa)
#
#
# Indices 1 2 3 4 5 6 
#
# 1 48.2769 20.0813 19.5100 0.0000 -9.0786 0.0000
# 2 20.0813 126.0753 71.4050 0.0000 -20.3689 0.0000
# 3 19.5100 71.4050 209.0625 0.0000 -24.5064 0.0000
# 4 0.0000 0.0000 0.0000 42.7713 0.0000 -2.7907
# 5 -9.0786 -20.3689 -24.5064 0.0000 20.7053 0.0000
# 6 0.0000 0.0000 0.0000 -2.7907 0.0000 36.9451
#
#
#
# Elastic Compliance Matrix: (Units=1/GPa)
#
#
# Indices 1 2 3 4 5 6 
#
# 1 0.023238 -0.002196 -0.000554 0.000000 0.007372 0.000000
# 2 -0.002196 0.010890 -0.002754 0.000000 0.006491 0.000000
# 3 -0.000554 -0.002754 0.006304 0.000000 0.004510 0.000000
# 4 0.000000 0.000000 0.000000 0.023496 0.000000 0.001775
# 5 0.007372 0.006491 0.004510 0.000000 0.063252 0.000000
# 6 0.000000 0.000000 0.000000 0.001775 0.000000 0.027201
#
#
# Mechanical properties :
#
#
# Convention : Reuss Voigt Hill
#
# Bulk Modulus (GPa) = 33.98655 67.26748 50.62702
# Shear Modulus (GPa) = 28.53926 38.24554 33.39240
#
# Velocity S-wave (km/s) = 3.72379 4.31077 4.02799
# Velocity P-wave (km/s) = 5.91627 7.58029 6.79938
#
# Compressibility (1/GPa) = 0.02942340
#
# Stress axis : x y z
#
# Youngs Moduli (GPa) = 43.03330 91.82908 158.62759
#
# Poissons Ratio (x) = 0.20169 0.08792
# Poissons Ratio (y) = 0.09452 0.43679
# Poissons Ratio (z) = 0.02385 0.25286
#
# Static dielectric constant tensor:
#      x y z
#    x 1.693030 0.000000 0.007240 
#    y 0.000000 1.764110 0.000000 
#    z 0.007240 0.000000 1.725430 
# 
# From -- ./inp_files/307347.got.cif
#   From: 2010.05.17/outbox.cif.g08.bks.cpg/sg15_154_cif.got.tgz:307347.got - 2010.06.03 18:47:42.
