data_PCOD9289465
_publ_section_title
;
Structure prediction by ZEFSAII (Michael W. Deem and Ramdas Pophale) SiO2 
 PCOD9289465
Probable space group: C 2/C
;
_chemical_formula_sum "Si O2"
_cell_formula_units_Z 60
_cell_length_a 25.114249
_cell_length_b 22.668822
_cell_length_c 12.893141
_cell_angle_alpha 90.000000
_cell_angle_beta 21.676651
_cell_angle_gamma 90.000000
_cell_volume 2711.235568
_symmetry_space_group_name_H-M "C 2/C"
_symmetry_group_IT_number 15
_symmetry_cell_setting 'monoclinic'
loop_
_space_group_symop_operation_xyz
x,y,z
-x,y,1/2-z
-x,-y,-z
x,-y,1/2+z
1/2+x,1/2+y,z
1/2-x,1/2+y,1/2-z
1/2-x,1/2-y,-z
1/2+x,1/2-y,1/2+z
loop_
_atom_site_type_symbol
_atom_site_label
_atom_site_fract_x
_atom_site_fract_y
_atom_site_fract_z
Si Si1 0.942148 0.332761 0.472107
Si Si2 0.289740 0.336193 0.300965
Si Si3 0.265441 0.607860 0.525925
Si Si4 0.346076 0.725550 0.060140
Si Si5 0.000000 0.896925 0.750000
Si Si6 0.931329 0.220943 0.137826
Si Si7 0.474725 0.910914 0.672170
Si Si8 0.947363 0.546678 0.726061
O O1 0.778353 0.315719 0.756176
O O2 0.031098 0.281827 0.370738
O O3 0.956888 0.398662 0.488996
O O4 0.000000 0.332201 0.250000
O O5 0.188109 0.287017 0.433727
O O6 0.408967 0.307758 0.161036
O O7 0.179539 0.378931 0.558623
O O8 0.388545 0.361683 0.027456
O O9 0.388602 0.574073 0.369985
O O10 0.209549 0.572364 0.525088
O O11 0.336228 0.670989 0.368705
O O12 0.123042 0.613770 0.854773
O O13 0.500000 0.702295 0.750000
O O14 0.353316 0.732187 0.170668
O O15 0.500000 0.908943 0.750000
O O16 0.461897 0.979604 0.665112
O O17 0.000000 0.544383 0.750000
#
# Coordination Sequence:
#
# PCOD9289465 Si02
#       8
#     8   8   8   8   4   8   8   8
#     4  10  23  39  62  95 133 174 221 268 333 413
#     4  10  23  41  65  99 134 170 227 272 338 400
#     4  11  23  41  69 100 133 176 224 282 335 404
#     4  11  25  40  62  97 138 177 217 273 343 406
#     4  10  22  40  64  98 130 172 222 274 336 394
#     4  10  24  40  65  98 137 175 215 275 347 403
#     4  11  22  41  72  97 132 172 232 292 322 389
#     4  10  23  41  65  99 134 176 232 276 333 392
#
# _framework density 22.130130999999999
#
# number of rings (size 3 to 8) (size 9 to 14) (size 15 to 20)
#    0.000    1.600    1.333    2.400   10.267    4.267 
#    0.000    2.667    4.400    0.000    0.000    0.000 
#    0.000    0.000    0.000    0.000    0.000    0.000 
#
# Total GULP energy -167371.890378 kJ/mol
# GULP energy per Si atom -5579.063013 kJ/mol
# Density = 2.207976 g / cm^3
# Si number density = 22.130131 Si / 1000 Ang^3
#
#
#
# Elastic Constant Matrix: (Units=GPa)
#
#
# Indices 1 2 3 4 5 6 
#
# 1 120.1908 44.7639 41.3347 0.0005 -32.1242 -0.0006
# 2 44.7639 164.4208 75.5656 0.0032 -14.5021 -0.0017
# 3 41.3347 75.5656 139.0226 0.0071 -17.5317 -0.0037
# 4 0.0005 0.0032 0.0071 17.5816 0.0004 1.3447
# 5 -32.1242 -14.5021 -17.5317 0.0004 46.2418 -0.0001
# 6 -0.0006 -0.0017 -0.0037 1.3447 -0.0001 21.7765
#
#
#
# Elastic Compliance Matrix: (Units=1/GPa)
#
#
# Indices 1 2 3 4 5 6 
#
# 1 0.011308 -0.001774 -0.001552 0.000001 0.006711 0.000000
# 2 -0.001774 0.008422 -0.004067 0.000000 -0.000133 0.000000
# 3 -0.001552 -0.004067 0.010049 -0.000003 0.001456 0.000002
# 4 0.000001 0.000000 -0.000003 0.057148 -0.000001 -0.003529
# 5 0.006711 -0.000133 0.001456 -0.000001 0.026798 0.000001
# 6 0.000000 0.000000 0.000002 -0.003529 0.000001 0.046139
#
#
# Mechanical properties :
#
#
# Convention : Reuss Voigt Hill
#
# Bulk Modulus (GPa) = 66.69389 82.99585 74.84487
# Shear Modulus (GPa) = 27.83226 34.58465 31.20846
#
# Velocity S-wave (km/s) = 3.55020 3.95750 3.75937
# Velocity P-wave (km/s) = 6.85622 7.64639 7.26206
#
# Compressibility (1/GPa) = 0.01499388
#
# Stress axis : x y z
#
# Youngs Moduli (GPa) = 88.43253 118.73067 99.51279
#
# Poissons Ratio (x) = 0.21057 0.15443
# Poissons Ratio (y) = 0.15684 0.40476
# Poissons Ratio (z) = 0.13723 0.48293
#
# Static dielectric constant tensor:
#      x y z
#    x 1.976070 0.000000 0.015970 
#    y 0.000000 1.819530 0.000000 
#    z 0.015970 0.000000 1.811310 
# 
# From -- ./inp_files/179267.got.cif
#   From: 2010.05.17/outbox.cif.g08.bks.cpg/sg15_90_cif.got.tgz:179267.got - 2010.06.03 18:47:42.
