data_PCOD9289382
_publ_section_title
;
Structure prediction by ZEFSAII (Michael W. Deem and Ramdas Pophale) SiO2 
 PCOD9289382
Probable space group: C 2/C
;
_chemical_formula_sum "Si O2"
_cell_formula_units_Z 56
_cell_length_a 9.607024
_cell_length_b 16.946080
_cell_length_c 18.441372
_cell_angle_alpha 90.000000
_cell_angle_beta 58.651388
_cell_angle_gamma 90.000000
_cell_volume 2564.001351
_symmetry_space_group_name_H-M "C 2/C"
_symmetry_group_IT_number 15
_symmetry_cell_setting 'monoclinic'
loop_
_space_group_symop_operation_xyz
x,y,z
-x,y,1/2-z
-x,-y,-z
x,-y,1/2+z
1/2+x,1/2+y,z
1/2-x,1/2+y,1/2-z
1/2-x,1/2-y,-z
1/2+x,1/2-y,1/2+z
loop_
_atom_site_type_symbol
_atom_site_label
_atom_site_fract_x
_atom_site_fract_y
_atom_site_fract_z
Si Si1 0.905172 0.165757 0.699716
Si Si2 0.913952 0.506857 0.946439
Si Si3 0.577681 0.552145 0.546993
Si Si4 0.178194 0.198174 0.204618
Si Si5 0.707001 0.339037 0.532134
Si Si6 0.590524 0.421018 0.851905
Si Si7 0.144633 0.533966 0.757441
O O1 0.814843 0.244665 0.698777
O O2 0.000000 0.176589 0.750000
O O3 0.001807 0.130247 0.603004
O O4 0.767844 0.099718 0.751237
O O5 0.051227 0.495100 0.849289
O O6 0.767907 0.443759 0.980994
O O7 0.822574 0.593285 0.966316
O O8 0.000000 0.500000 0.000000
O O9 0.500000 0.500000 0.500000
O O10 0.545971 0.488791 0.620637
O O11 0.223034 0.163391 0.114621
O O12 0.142381 0.127328 0.268637
O O13 0.000000 0.240222 0.250000
O O14 0.750000 0.250000 0.500000
O O15 0.514028 0.359851 0.570148
O O16 0.752256 0.473536 0.821026
O O17 0.000000 0.570589 0.750000
#
# Coordination Sequence:
#
# PCOD9289382 Si02
#       7
#     8   8   8   8   8   8   8
#     4  11  24  40  62  93 131 170 217 270 328 394
#     4  11  22  38  64  94 128 157 219 276 329 380
#     4  10  22  41  65  93 124 169 211 271 330 385
#     4  10  22  40  64  90 125 174 220 262 330 403
#     4  10  23  38  65  98 129 172 220 279 333 398
#     4   9  21  40  63  91 131 166 217 259 333 390
#     4  11  23  39  67  94 125 169 222 266 324 403
#
# _framework density 21.840862000000001
#
# number of rings (size 3 to 8) (size 9 to 14) (size 15 to 20)
#    0.000    1.714    0.000    3.857   10.000    9.714 
#    0.000    1.429    0.000    3.429    0.000    0.000 
#    0.000    0.000    0.000    0.000    0.000    0.000 
#
# Total GULP energy -155949.995152 kJ/mol
# GULP energy per Si atom -5569.642684 kJ/mol
# Density = 2.179115 g / cm^3
# Si number density = 21.840862 Si / 1000 Ang^3
#
#
#
# Elastic Constant Matrix: (Units=GPa)
#
#
# Indices 1 2 3 4 5 6 
#
# 1 112.8704 14.3222 23.8432 0.0000 -3.0135 0.0000
# 2 14.3222 77.7799 25.4680 0.0000 -5.2079 0.0000
# 3 23.8432 25.4680 120.8383 0.0000 -15.5527 0.0000
# 4 0.0000 0.0000 0.0000 25.9853 0.0000 -0.5198
# 5 -3.0135 -5.2079 -15.5527 0.0000 37.3229 0.0000
# 6 0.0000 0.0000 0.0000 -0.5198 0.0000 27.3910
#
#
#
# Elastic Compliance Matrix: (Units=1/GPa)
#
#
# Indices 1 2 3 4 5 6 
#
# 1 0.009348 -0.001202 -0.001602 0.000000 -0.000080 0.000000
# 2 -0.001202 0.013985 -0.002612 0.000000 0.000766 0.000000
# 3 -0.001602 -0.002612 0.009593 0.000000 0.003504 0.000000
# 4 0.000000 0.000000 0.000000 0.038498 0.000000 0.000731
# 5 -0.000080 0.000766 0.003504 0.000000 0.028354 0.000000
# 6 0.000000 0.000000 0.000000 0.000731 0.000000 0.036522
#
#
# Mechanical properties :
#
#
# Convention : Reuss Voigt Hill
#
# Bulk Modulus (GPa) = 45.25908 48.75060 47.00484
# Shear Modulus (GPa) = 32.36339 34.66354 33.51346
#
# Velocity S-wave (km/s) = 3.85357 3.98816 3.92144
# Velocity P-wave (km/s) = 6.36924 6.60125 6.48628
#
# Compressibility (1/GPa) = 0.02209501
#
# Stress axis : x y z
#
# Youngs Moduli (GPa) = 106.96958 71.50720 104.24387
#
# Poissons Ratio (x) = 0.08598 0.16695
# Poissons Ratio (y) = 0.12862 0.27224
# Poissons Ratio (z) = 0.17131 0.18675
#
# Static dielectric constant tensor:
#      x y z
#    x 1.926800 0.000000 0.075180 
#    y 0.000000 1.823050 0.000000 
#    z 0.075180 0.000000 1.904070 
# 
# From -- ./inp_files/232566.got.cif
#   From: 2010.05.17/outbox.cif.g08.bks.cpg/sg15_117_cif.got.tgz:232566.got - 2010.06.03 18:47:42.
