data_PCOD9289372
_publ_section_title
;
Structure prediction by ZEFSAII (Michael W. Deem and Ramdas Pophale) SiO2 
 PCOD9289372
Probable space group: C 2/C
;
_chemical_formula_sum "Si O2"
_cell_formula_units_Z 52
_cell_length_a 29.282358
_cell_length_b 14.844652
_cell_length_c 18.390190
_cell_angle_alpha 90.000000
_cell_angle_beta 14.310534
_cell_angle_gamma 90.000000
_cell_volume 1975.925791
_symmetry_space_group_name_H-M "C 2/C"
_symmetry_group_IT_number 15
_symmetry_cell_setting 'monoclinic'
loop_
_space_group_symop_operation_xyz
x,y,z
-x,y,1/2-z
-x,-y,-z
x,-y,1/2+z
1/2+x,1/2+y,z
1/2-x,1/2+y,1/2-z
1/2-x,1/2-y,-z
1/2+x,1/2-y,1/2+z
loop_
_atom_site_type_symbol
_atom_site_label
_atom_site_fract_x
_atom_site_fract_y
_atom_site_fract_z
Si Si1 0.549721 0.003618 0.008399
Si Si2 0.508882 0.530728 0.137274
Si Si3 0.938156 0.161769 0.950479
Si Si4 0.452190 0.801854 0.463777
Si Si5 0.500000 0.680526 0.250000
Si Si6 0.876885 0.654888 0.369624
Si Si7 0.033864 0.855817 0.935951
O O1 0.765892 0.028914 0.695455
O O2 0.492513 0.905540 0.129054
O O3 0.429193 0.080782 0.230433
O O4 0.500000 0.000000 0.000000
O O5 0.464714 0.563766 0.124055
O O6 0.460054 0.428576 0.230029
O O7 0.401943 0.603620 0.351506
O O8 0.063815 0.248600 0.753069
O O9 0.859134 0.137930 0.153391
O O10 0.757429 0.187081 0.183021
O O11 0.436360 0.744714 0.413590
O O12 0.567411 0.738067 0.340950
O O13 0.671209 0.649138 0.715543
O O14 0.000000 0.636187 0.250000
#
# Coordination Sequence:
#
# PCOD9289372 Si02
#       7
#     8   8   8   8   4   8   8
#     4  11  24  42  64  91 126 167 206 259 317 374
#     4  10  23  41  62  88 129 158 210 257 310 369
#     4  11  23  39  64  90 123 162 203 254 314 371
#     4  10  23  41  63  88 126 161 209 256 308 368
#     4  10  22  40  64  88 120 168 198 258 310 362
#     4  12  22  40  65  94 125 160 209 259 310 367
#     4  11  22  42  63  92 123 165 205 258 311 368
#
# _framework density 26.316779
#
# number of rings (size 3 to 8) (size 9 to 14) (size 15 to 20)
#    0.000    1.231    3.077    2.769    2.154    1.231 
#    0.000    6.923    0.000    0.000    0.000    0.000 
#    0.000    0.000    0.000    0.000    0.000    0.000 
#
# Total GULP energy -145390.926432 kJ/mol
# GULP energy per Si atom -5591.958709 kJ/mol
# Density = 2.625688 g / cm^3
# Si number density = 26.316779 Si / 1000 Ang^3
#
#
#
# Elastic Constant Matrix: (Units=GPa)
#
#
# Indices 1 2 3 4 5 6 
#
# 1 141.5222 36.3613 11.3498 -0.0001 25.6546 0.0031
# 2 36.3613 250.8180 39.3108 0.0026 32.0274 -0.0016
# 3 11.3498 39.3108 53.6588 0.0005 -1.8056 0.0032
# 4 -0.0001 0.0026 0.0005 18.2908 -0.0018 16.3651
# 5 25.6546 32.0274 -1.8056 -0.0018 48.4536 -0.0019
# 6 0.0031 -0.0016 0.0032 16.3651 -0.0019 42.9573
#
#
#
# Elastic Compliance Matrix: (Units=1/GPa)
#
#
# Indices 1 2 3 4 5 6 
#
# 1 0.008026 -0.000407 -0.001535 0.000001 -0.004037 -0.000001
# 2 -0.000407 0.005045 -0.003719 -0.000002 -0.003258 0.000001
# 3 -0.001535 -0.003719 0.021823 0.000003 0.004084 -0.000002
# 4 0.000001 -0.000002 0.000003 0.082944 0.000003 -0.031598
# 5 -0.004037 -0.003258 0.004084 0.000003 0.025081 0.000000
# 6 -0.000001 0.000001 -0.000002 -0.031598 0.000000 0.035317
#
#
# Mechanical properties :
#
#
# Convention : Reuss Voigt Hill
#
# Bulk Modulus (GPa) = 42.42626 68.89364 55.65995
# Shear Modulus (GPa) = 25.32721 45.87214 35.59967
#
# Velocity S-wave (km/s) = 3.10562 4.17955 3.68195
# Velocity P-wave (km/s) = 5.38667 7.03753 6.26670
#
# Compressibility (1/GPa) = 0.02357031
#
# Stress axis : x y z
#
# Youngs Moduli (GPa) = 124.60038 198.21938 45.82277
#
# Poissons Ratio (x) = 0.08075 0.07034
# Poissons Ratio (y) = 0.05076 0.17043
# Poissons Ratio (z) = 0.19126 0.73725
#
# Static dielectric constant tensor:
#      x y z
#    x 2.265530 0.000000 -0.039450 
#    y 0.000000 2.047590 0.000000 
#    z -0.039450 0.000000 2.069230 
# 
# From -- ./inp_files/225464.got.cif
#   From: 2010.05.17/outbox.cif.g08.bks.cpg/sg15_113_cif.got.tgz:225464.got - 2010.06.03 18:47:42.
