data_PCOD9289824
_publ_section_title
;
Structure prediction by ZEFSAII (Michael W. Deem and Ramdas Pophale) SiO2 
 PCOD9289824
Probable space group: C 2/C
;
_chemical_formula_sum "Si O2"
_cell_formula_units_Z 52
_cell_length_a 20.374076
_cell_length_b 9.625111
_cell_length_c 27.425426
_cell_angle_alpha 90.000000
_cell_angle_beta 154.257353
_cell_angle_gamma 90.000000
_cell_volume 2335.912347
_symmetry_space_group_name_H-M "C 2/C"
_symmetry_group_IT_number 15
_symmetry_cell_setting 'monoclinic'
loop_
_space_group_symop_operation_xyz
x,y,z
-x,y,1/2-z
-x,-y,-z
x,-y,1/2+z
1/2+x,1/2+y,z
1/2-x,1/2+y,1/2-z
1/2-x,1/2-y,-z
1/2+x,1/2-y,1/2+z
loop_
_atom_site_type_symbol
_atom_site_label
_atom_site_fract_x
_atom_site_fract_y
_atom_site_fract_z
Si Si1 0.517733 0.776069 0.420926
Si Si2 0.541631 0.968786 0.680610
Si Si3 0.362601 0.611024 0.912957
Si Si4 0.178212 0.207633 0.719459
Si Si5 0.500000 0.631905 0.750000
Si Si6 0.288831 0.845782 0.572612
Si Si7 0.493818 0.509092 0.141814
O O1 0.629210 0.711818 0.535104
O O2 0.355187 0.763699 0.338308
O O3 0.515688 0.671596 0.373577
O O4 0.532085 0.929990 0.409291
O O5 0.582961 0.821013 0.684700
O O6 0.423606 0.944901 0.644778
O O7 0.700657 0.034491 0.803204
O O8 0.369265 0.702239 0.868458
O O9 0.500000 0.500000 0.000000
O O10 0.144451 0.056894 0.719782
O O11 0.355880 0.737284 0.656480
O O12 0.516433 0.540394 0.809390
O O13 0.250000 0.750000 0.500000
O O14 0.139673 0.936514 0.479617
#
# Coordination Sequence:
#
# PCOD9289824 Si02
#       7
#     8   8   8   8   4   8   8
#     4  11  24  42  65 103 139 173 222 282 344 400
#     4  11  23  43  64 100 137 169 237 274 326 410
#     4  11  22  40  70  98 132 189 210 274 360 381
#     4  11  21  41  68  98 135 175 229 281 322 411
#     4  10  22  40  68  96 122 182 232 268 332 398
#     4  10  22  41  64  95 123 176 223 280 323 395
#     4  11  23  43  67  94 137 175 223 280 334 401
#
# _framework density 22.261109999999999
#
# number of rings (size 3 to 8) (size 9 to 14) (size 15 to 20)
#    0.000    1.231    6.154    0.923    2.154    2.462 
#   11.077    0.769    0.000    0.000    0.000    0.000 
#    0.000    0.000    0.000    0.000    0.000    0.000 
#
# Total GULP energy -145353.215323 kJ/mol
# GULP energy per Si atom -5590.508282 kJ/mol
# Density = 2.221044 g / cm^3
# Si number density = 22.261110 Si / 1000 Ang^3
#
#
#
# Elastic Constant Matrix: (Units=GPa)
#
#
# Indices 1 2 3 4 5 6 
#
# 1 61.4334 2.0746 17.5938 0.0000 0.7523 0.0000
# 2 2.0746 36.2498 -3.4582 -0.0008 -7.7232 -0.0005
# 3 17.5938 -3.4582 78.7116 -0.0009 -7.9561 -0.0005
# 4 0.0000 -0.0008 -0.0009 21.8232 -0.0001 -14.5090
# 5 0.7523 -7.7232 -7.9561 -0.0001 38.3666 -0.0001
# 6 0.0000 -0.0005 -0.0005 -14.5090 -0.0001 32.9813
#
#
#
# Elastic Compliance Matrix: (Units=1/GPa)
#
#
# Indices 1 2 3 4 5 6 
#
# 1 0.017545 -0.001732 -0.004155 0.000000 -0.001554 0.000000
# 2 -0.001732 0.029272 0.002321 0.000002 0.006408 0.000001
# 3 -0.004155 0.002321 0.014086 0.000001 0.003470 0.000001
# 4 0.000000 0.000002 0.000001 0.064765 0.000001 0.028491
# 5 -0.001554 0.006408 0.003470 0.000001 0.028104 0.000001
# 6 0.000000 0.000001 0.000001 0.028491 0.000001 0.042854
#
#
# Mechanical properties :
#
#
# Convention : Reuss Voigt Hill
#
# Bulk Modulus (GPa) = 18.59711 23.20167 20.89939
# Shear Modulus (GPa) = 22.55485 29.31319 25.93402
#
# Velocity S-wave (km/s) = 3.18653 3.63270 3.41690
# Velocity P-wave (km/s) = 4.68090 5.29532 4.99756
#
# Compressibility (1/GPa) = 0.05377181
#
# Stress axis : x y z
#
# Youngs Moduli (GPa) = 56.99556 34.16227 70.99246
#
# Poissons Ratio (x) = 0.05916 0.29497
# Poissons Ratio (y) = 0.09870 -0.16476
# Poissons Ratio (z) = 0.23681 -0.07928
#
# Static dielectric constant tensor:
#      x y z
#    x 1.807640 0.000000 0.006210 
#    y 0.000000 1.806900 0.000000 
#    z 0.006210 0.000000 1.860660 
# 
# From -- ./inp_files/302009.got.cif
#   From: 2010.05.17/outbox.cif.g08.bks.cpg/sg15_152_cif.got.tgz:302009.got - 2010.06.03 18:47:42.
