data_PCOD9289280
_publ_section_title
;
Structure prediction by ZEFSAII (Michael W. Deem and Ramdas Pophale) SiO2 
 PCOD9289280
Probable space group: C 2/C
;
_chemical_formula_sum "Si O2"
_cell_formula_units_Z 52
_cell_length_a 15.773637
_cell_length_b 11.459089
_cell_length_c 24.770244
_cell_angle_alpha 90.000000
_cell_angle_beta 36.179706
_cell_angle_gamma 90.000000
_cell_volume 2643.014678
_symmetry_space_group_name_H-M "C 2/C"
_symmetry_group_IT_number 15
_symmetry_cell_setting 'monoclinic'
loop_
_space_group_symop_operation_xyz
x,y,z
-x,y,1/2-z
-x,-y,-z
x,-y,1/2+z
1/2+x,1/2+y,z
1/2-x,1/2+y,1/2-z
1/2-x,1/2-y,-z
1/2+x,1/2-y,1/2+z
loop_
_atom_site_type_symbol
_atom_site_label
_atom_site_fract_x
_atom_site_fract_y
_atom_site_fract_z
Si Si1 0.818294 0.148259 0.927811
Si Si2 0.000000 0.731125 0.250000
Si Si3 0.255226 0.559294 0.154685
Si Si4 0.024505 0.611135 0.024715
Si Si5 0.501025 0.732597 0.058542
Si Si6 0.952622 0.455732 0.156347
Si Si7 0.721772 0.445703 0.470482
O O1 0.954304 0.192993 0.825060
O O2 0.750000 0.250000 0.000000
O O3 0.693542 0.123154 0.948652
O O4 0.840914 0.035040 0.952934
O O5 0.866604 0.650085 0.302539
O O6 0.382166 0.631830 0.116743
O O7 0.175906 0.470860 0.235829
O O8 0.307519 0.495913 0.073877
O O9 0.957578 0.572991 0.116468
O O10 0.972794 0.720620 0.016128
O O11 0.000000 0.500000 0.000000
O O12 0.445159 0.842412 0.122037
O O13 0.643683 0.678483 0.011362
O O14 0.107112 0.446550 0.106729
#
# Coordination Sequence:
#
# PCOD9289280 Si02
#       7
#     8   4   8   8   8   8   8
#     4  11  20  37  63  89 117 158 202 243 305 362
#     4  12  20  36  66  86 122 158 204 252 298 362
#     4  12  22  38  62  91 118 157 207 253 299 364
#     4   9  19  38  58  82 119 155 192 241 304 360
#     4  11  23  38  61  90 121 158 207 253 305 363
#     4  10  22  40  63  87 123 164 201 247 315 371
#     4  11  22  40  62  88 123 162 199 251 311 369
#
# _framework density 19.674503000000001
#
# number of rings (size 3 to 8) (size 9 to 14) (size 15 to 20)
#    0.000    1.231    4.615    1.846    0.000    2.462 
#    0.000    0.000    6.769    0.000    0.000    0.000 
#    0.000    0.000    0.000    0.000    0.000    0.000 
#
# Total GULP energy -145189.098425 kJ/mol
# GULP energy per Si atom -5584.196093 kJ/mol
# Density = 1.962972 g / cm^3
# Si number density = 19.674503 Si / 1000 Ang^3
#
#
#
# Elastic Constant Matrix: (Units=GPa)
#
#
# Indices 1 2 3 4 5 6 
#
# 1 81.7198 40.5309 21.7504 0.0000 1.6780 0.0000
# 2 40.5309 79.3047 36.3540 0.0000 8.1438 0.0000
# 3 21.7504 36.3540 72.9507 0.0000 12.8423 0.0000
# 4 0.0000 0.0000 0.0000 29.6903 0.0000 -0.0183
# 5 1.6780 8.1438 12.8423 0.0000 23.3199 0.0000
# 6 0.0000 0.0000 0.0000 -0.0183 0.0000 47.0909
#
#
#
# Elastic Compliance Matrix: (Units=1/GPa)
#
#
# Indices 1 2 3 4 5 6 
#
# 1 0.016557 -0.008101 -0.001315 0.000000 0.002362 0.000000
# 2 -0.008101 0.020346 -0.007281 0.000000 -0.002512 0.000000
# 3 -0.001315 -0.007281 0.019118 0.000000 -0.007891 0.000000
# 4 0.000000 0.000000 0.000000 0.033681 0.000000 0.000013
# 5 0.002362 -0.002512 -0.007891 0.000000 0.047935 0.000000
# 6 0.000000 0.000000 0.000000 0.000013 0.000000 0.021236
#
#
# Mechanical properties :
#
#
# Convention : Reuss Voigt Hill
#
# Bulk Modulus (GPa) = 44.19977 47.91619 46.05798
# Shear Modulus (GPa) = 25.02402 29.04290 27.03346
#
# Velocity S-wave (km/s) = 3.57024 3.84626 3.71082
# Velocity P-wave (km/s) = 6.28568 6.64322 6.46692
#
# Compressibility (1/GPa) = 0.02262455
#
# Stress axis : x y z
#
# Youngs Moduli (GPa) = 60.39914 49.14993 52.30789
#
# Poissons Ratio (x) = 0.39819 0.06878
# Poissons Ratio (y) = 0.48932 0.38087
# Poissons Ratio (z) = 0.07942 0.35788
#
# Static dielectric constant tensor:
#      x y z
#    x 1.696620 0.000000 0.036690 
#    y 0.000000 1.708260 0.000000 
#    z 0.036690 0.000000 1.690570 
# 
# From -- ./inp_files/273798.got.cif
#   From: 2010.05.17/outbox.cif.g08.bks.cpg/sg15_137_cif.got.tgz:273798.got - 2010.06.03 18:47:42.
