data_PCOD9289785
_publ_section_title
;
Structure prediction by ZEFSAII (Michael W. Deem and Ramdas Pophale) SiO2 
 PCOD9289785
Probable space group: C 2/C
;
_chemical_formula_sum "Si O2"
_cell_formula_units_Z 44
_cell_length_a 7.039822
_cell_length_b 17.712567
_cell_length_c 16.252093
_cell_angle_alpha 90.000000
_cell_angle_beta 110.856485
_cell_angle_gamma 90.000000
_cell_volume 1893.739490
_symmetry_space_group_name_H-M "C 2/C"
_symmetry_group_IT_number 15
_symmetry_cell_setting 'monoclinic'
loop_
_space_group_symop_operation_xyz
x,y,z
-x,y,1/2-z
-x,-y,-z
x,-y,1/2+z
1/2+x,1/2+y,z
1/2-x,1/2+y,1/2-z
1/2-x,1/2-y,-z
1/2+x,1/2-y,1/2+z
loop_
_atom_site_type_symbol
_atom_site_label
_atom_site_fract_x
_atom_site_fract_y
_atom_site_fract_z
Si Si1 0.500576 0.714536 0.847121
Si Si2 0.202399 0.832033 0.626611
Si Si3 0.348355 0.036438 0.581521
Si Si4 0.000000 0.559247 0.250000
Si Si5 0.100664 0.925419 0.454888
Si Si6 0.371666 0.789640 0.092967
O O1 0.500000 0.719650 0.750000
O O2 0.384970 0.789934 0.606050
O O3 0.622882 0.640308 0.892687
O O4 0.280192 0.709463 0.853163
O O5 0.305503 0.885662 0.710009
O O6 0.089768 0.881701 0.541018
O O7 0.061672 0.764992 0.637300
O O8 0.412925 0.122676 0.578236
O O9 0.124032 0.040569 0.591601
O O10 0.493019 0.991978 0.667040
O O11 0.280765 0.985896 0.492416
O O12 0.250000 0.750000 0.000000
#
# Coordination Sequence:
#
# PCOD9289785 Si02
#       6
#     8   8   8   4   8   8
#     4  11  23  40  68 108 141 183 234 300 354 410
#     4  11  21  43  71 100 138 188 238 285 352 426
#     4   9  19  39  69 103 138 188 228 295 351 415
#     4  10  22  40  68 104 148 188 220 304 368 406
#     4   9  19  38  71  96 141 186 234 282 353 425
#     4  11  23  42  76 105 133 187 248 290 345 429
#
# _framework density 23.234452999999998
#
# number of rings (size 3 to 8) (size 9 to 14) (size 15 to 20)
#    0.000    1.818    4.545    0.545    0.000    3.636 
#    0.000    0.909    8.000    0.000    0.000    0.000 
#    0.000    0.000    0.000    0.000    0.000    0.000 
#
# Total GULP energy -122915.502692 kJ/mol
# GULP energy per Si atom -5587.068304 kJ/mol
# Density = 2.318157 g / cm^3
# Si number density = 23.234453 Si / 1000 Ang^3
#
#
#
# Elastic Constant Matrix: (Units=GPa)
#
#
# Indices 1 2 3 4 5 6 
#
# 1 74.4611 35.5244 8.9399 0.0000 11.1403 0.0000
# 2 35.5244 188.1353 36.7685 0.0000 17.1943 0.0000
# 3 8.9399 36.7685 73.4530 0.0000 17.4960 0.0000
# 4 0.0000 0.0000 0.0000 -3.9502 0.0000 36.1307
# 5 11.1403 17.1943 17.4960 0.0000 28.9232 0.0000
# 6 0.0000 0.0000 0.0000 36.1307 0.0000 37.0484
#
#
#
# Elastic Compliance Matrix: (Units=1/GPa)
#
#
# Indices 1 2 3 4 5 6 
#
# 1 0.015290 -0.002564 0.000540 0.000000 -0.004692 0.000000
# 2 -0.002564 0.006423 -0.002604 0.000000 -0.001256 0.000000
# 3 0.000540 -0.002604 0.016979 0.000000 -0.008931 0.000000
# 4 0.000000 0.000000 0.000000 -0.025519 0.000000 0.024887
# 5 -0.004692 -0.001256 -0.008931 0.000000 0.042530 0.000000
# 6 0.000000 0.000000 0.000000 0.024887 0.000000 0.002721
#
#
# Mechanical properties :
#
#
# Convention : Reuss Voigt Hill
#
# Bulk Modulus (GPa) = 33.97138 55.39054 44.68096
# Shear Modulus (GPa) = 64.52226 29.39205 46.95715
#
# Velocity S-wave (km/s) = 5.27545 3.56057 4.50045
# Velocity P-wave (km/s) = 7.19444 6.38711 6.80276
#
# Compressibility (1/GPa) = 0.02943655
#
# Stress axis : x y z
#
# Youngs Moduli (GPa) = 65.40165 155.68712 58.89544
#
# Poissons Ratio (x) = 0.39916 -0.03180
# Poissons Ratio (y) = 0.16768 0.15337
# Poissons Ratio (z) = -0.03532 0.40543
#
# Static dielectric constant tensor:
#      x y z
#    x 1.932560 0.000000 0.034440 
#    y 0.000000 1.925920 0.000000 
#    z 0.034440 0.000000 1.858020 
# 
# From -- ./inp_files/134578.got.cif
#   From: 2010.05.17/outbox.cif.g08.bks.cpg/sg15_68_cif.got.tgz:134578.got - 2010.06.03 18:47:42.
