data_PCOD9289358
_publ_section_title
;
Structure prediction by ZEFSAII (Michael W. Deem and Ramdas Pophale) SiO2 
 PCOD9289358
Probable space group: C 2/C
;
_chemical_formula_sum "Si O2"
_cell_formula_units_Z 40
_cell_length_a 31.027017
_cell_length_b 4.924086
_cell_length_c 10.462824
_cell_angle_alpha 90.000000
_cell_angle_beta 104.338972
_cell_angle_gamma 90.000000
_cell_volume 1548.709621
_symmetry_space_group_name_H-M "C 2/C"
_symmetry_group_IT_number 15
_symmetry_cell_setting 'monoclinic'
loop_
_space_group_symop_operation_xyz
x,y,z
-x,y,1/2-z
-x,-y,-z
x,-y,1/2+z
1/2+x,1/2+y,z
1/2-x,1/2+y,1/2-z
1/2-x,1/2-y,-z
1/2+x,1/2-y,1/2+z
loop_
_atom_site_type_symbol
_atom_site_label
_atom_site_fract_x
_atom_site_fract_y
_atom_site_fract_z
Si Si1 0.038764 0.721472 0.051881
Si Si2 0.801267 0.854147 0.536312
Si Si3 0.385772 0.014907 0.556990
Si Si4 0.932937 0.995238 0.168956
Si Si5 0.279510 0.316704 0.787553
O O1 0.044088 0.853754 0.194673
O O2 0.962152 0.051723 0.062682
O O3 0.085952 0.577283 0.049869
O O4 0.000000 0.500000 0.000000
O O5 0.750000 0.750000 0.500000
O O6 0.837062 0.637383 0.516095
O O7 0.810270 0.905932 0.692315
O O8 0.799397 0.102983 0.437554
O O9 0.412786 0.207154 0.678103
O O10 0.393312 0.705439 0.598410
O O11 0.235615 0.507492 0.739612
#
# Coordination Sequence:
#
# PCOD9289358 Si02
#       5
#     8   8   8   8   8
#     4  10  26  54  83 114 159 202 264 324 405 486
#     4  10  23  44  69 108 149 206 257 310 381 453
#     4  10  26  46  77 108 163 201 257 327 386 467
#     4  10  26  50  77 119 152 202 257 324 398 473
#     4  10  22  40  64 103 144 199 259 316 370 451
#
# _framework density 25.827952
#
# number of rings (size 3 to 8) (size 9 to 14) (size 15 to 20)
#    1.200    0.800    0.000    0.600    5.600    8.000 
#   10.800    1.000    0.000    0.000    0.000    0.000 
#    0.000    0.000    0.000    0.000    0.000    0.000 
#
# Total GULP energy -111792.637455 kJ/mol
# GULP energy per Si atom -5589.631873 kJ/mol
# Density = 2.576917 g / cm^3
# Si number density = 25.827952 Si / 1000 Ang^3
#
#
#
# Elastic Constant Matrix: (Units=GPa)
#
#
# Indices 1 2 3 4 5 6 
#
# 1 139.2959 33.0573 51.7443 0.0000 1.1362 0.0000
# 2 33.0573 122.0129 38.1807 0.0000 2.3049 0.0000
# 3 51.7443 38.1807 117.7086 0.0000 -21.4395 0.0000
# 4 0.0000 0.0000 0.0000 44.6690 0.0000 9.6406
# 5 1.1362 2.3049 -21.4395 0.0000 41.3508 0.0000
# 6 0.0000 0.0000 0.0000 9.6406 0.0000 42.2575
#
#
#
# Elastic Compliance Matrix: (Units=1/GPa)
#
#
# Indices 1 2 3 4 5 6 
#
# 1 0.008942 -0.001138 -0.003970 0.000000 -0.002241 0.000000
# 2 -0.001138 0.009461 -0.002936 0.000000 -0.002018 0.000000
# 3 -0.003970 -0.002936 0.012415 0.000000 0.006710 0.000000
# 4 0.000000 0.000000 0.000000 0.023546 0.000000 -0.005372
# 5 -0.002241 -0.002018 0.006710 0.000000 0.027836 0.000000
# 6 0.000000 0.000000 0.000000 -0.005372 0.000000 0.024890
#
#
# Mechanical properties :
#
#
# Convention : Reuss Voigt Hill
#
# Bulk Modulus (GPa) = 67.88821 69.44244 68.66532
# Shear Modulus (GPa) = 39.03533 42.72446 40.87989
#
# Velocity S-wave (km/s) = 3.89184 4.07159 3.98273
# Velocity P-wave (km/s) = 6.82181 7.00348 6.91324
#
# Compressibility (1/GPa) = 0.01473010
#
# Stress axis : x y z
#
# Youngs Moduli (GPa) = 111.83185 105.69551 80.54651
#
# Poissons Ratio (x) = 0.12029 0.31975
# Poissons Ratio (y) = 0.12728 0.23650
# Poissons Ratio (z) = 0.44395 0.31034
#
# Static dielectric constant tensor:
#      x y z
#    x 2.082330 0.000000 0.005300 
#    y 0.000000 2.033550 0.000000 
#    z 0.005300 0.000000 2.085510 
# 
# From -- ./inp_files/120880.got.cif
#   From: 2010.05.17/outbox.cif.g08.bks.cpg/sg15_61_cif.got.tgz:120880.got - 2010.06.03 18:47:42.
