data_PCOD9289967
_publ_section_title
;
Structure prediction by ZEFSAII (Michael W. Deem and Ramdas Pophale) SiO2 
 PCOD9289967
Probable space group: C 2/C
;
_chemical_formula_sum "Si O2"
_cell_formula_units_Z 40
_cell_length_a 30.429913
_cell_length_b 4.847208
_cell_length_c 9.477369
_cell_angle_alpha 90.000000
_cell_angle_beta 78.539071
_cell_angle_gamma 90.000000
_cell_volume 1370.039257
_symmetry_space_group_name_H-M "C 2/C"
_symmetry_group_IT_number 15
_symmetry_cell_setting 'monoclinic'
loop_
_space_group_symop_operation_xyz
x,y,z
-x,y,1/2-z
-x,-y,-z
x,-y,1/2+z
1/2+x,1/2+y,z
1/2-x,1/2+y,1/2-z
1/2-x,1/2-y,-z
1/2+x,1/2-y,1/2+z
loop_
_atom_site_type_symbol
_atom_site_label
_atom_site_fract_x
_atom_site_fract_y
_atom_site_fract_z
Si Si1 0.251844 0.431802 0.839706
Si Si2 0.096143 0.400143 0.150863
Si Si3 0.000000 0.000000 0.000000
Si Si4 0.897508 0.972046 0.107087
Si Si5 0.825556 0.751404 0.458990
Si Si6 0.500000 0.926245 0.250000
O O1 0.250186 0.113055 0.801977
O O2 0.296271 0.533759 0.889217
O O3 0.208639 0.533534 0.951754
O O4 0.100133 0.116391 0.237840
O O5 0.138068 0.593481 0.160251
O O6 0.049369 0.559488 0.227381
O O7 0.101200 0.324961 0.980416
O O8 0.946271 0.074521 0.023012
O O9 0.993989 0.760161 0.888276
O O10 0.853893 0.104292 0.063511
#
# Coordination Sequence:
#
# PCOD9289967 Si02
#       6
#     8   8   4   8   8   4
#     4  11  28  49  75 107 152 194 254 322 391 455
#     4  10  22  42  68 108 144 198 246 307 374 452
#     4   8  16  36  60  98 136 192 234 296 362 436
#     4  10  22  40  71 101 149 190 247 303 375 449
#     4  11  26  42  73 106 143 196 251 312 386 461
#     4   8  16  36  62  94 148 184 246 294 364 438
#
# _framework density 29.196244
#
# number of rings (size 3 to 8) (size 9 to 14) (size 15 to 20)
#    0.000    2.000    0.000    1.200    8.400    3.200 
#    0.000   15.000    0.000    0.000    0.000    0.000 
#    0.000    0.000    0.000    0.000    0.000    0.000 
#
# Total GULP energy -111502.594008 kJ/mol
# GULP energy per Si atom -5575.129700 kJ/mol
# Density = 2.912979 g / cm^3
# Si number density = 29.196244 Si / 1000 Ang^3
#
#
#
# Elastic Constant Matrix: (Units=GPa)
#
#
# Indices 1 2 3 4 5 6 
#
# 1 219.9180 10.7923 29.1937 0.0000 -25.2327 0.0000
# 2 10.7923 88.7891 13.9900 0.0000 -12.6269 0.0000
# 3 29.1937 13.9900 82.2870 0.0000 -14.0549 0.0000
# 4 0.0000 0.0000 0.0000 46.5017 0.0000 -14.8929
# 5 -25.2327 -12.6269 -14.0549 0.0000 53.8390 0.0000
# 6 0.0000 0.0000 0.0000 -14.8929 0.0000 40.3488
#
#
#
# Elastic Compliance Matrix: (Units=1/GPa)
#
#
# Indices 1 2 3 4 5 6 
#
# 1 0.004961 -0.000106 -0.001412 0.000000 0.001932 0.000000
# 2 -0.000106 0.011854 -0.001582 0.000000 0.002318 0.000000
# 3 -0.001412 -0.001582 0.013341 0.000000 0.002450 0.000000
# 4 0.000000 0.000000 0.000000 0.024387 0.000000 0.009002
# 5 0.001932 0.002318 0.002450 0.000000 0.020662 0.000000
# 6 0.000000 0.000000 0.000000 0.009002 0.000000 0.028106
#
#
# Mechanical properties :
#
#
# Convention : Reuss Voigt Hill
#
# Bulk Modulus (GPa) = 41.74203 55.43843 48.59023
# Shear Modulus (GPa) = 42.55361 50.60578 46.57969
#
# Velocity S-wave (km/s) = 3.82187 4.16781 3.99858
# Velocity P-wave (km/s) = 5.81409 6.49540 6.16417
#
# Compressibility (1/GPa) = 0.02395667
#
# Stress axis : x y z
#
# Youngs Moduli (GPa) = 201.55325 84.35708 74.95665
#
# Poissons Ratio (x) = 0.00893 0.10586
# Poissons Ratio (y) = 0.02133 0.11858
# Poissons Ratio (z) = 0.28465 0.13345
#
# Static dielectric constant tensor:
#      x y z
#    x 2.284140 0.000000 0.074880 
#    y 0.000000 2.214510 0.000000 
#    z 0.074880 0.000000 2.470020 
# 
# From -- ./inp_files/120790.got.cif
#   From: 2010.05.17/outbox.cif.g08.bks.cpg/sg15_61_cif.got.tgz:120790.got - 2010.06.03 18:47:42.
