data_PCOD9289479
_publ_section_title
;
Structure prediction by ZEFSAII (Michael W. Deem and Ramdas Pophale) SiO2 
 PCOD9289479
Probable space group: C 2/C
;
_chemical_formula_sum "Si O2"
_cell_formula_units_Z 44
_cell_length_a 18.476173
_cell_length_b 8.749738
_cell_length_c 14.917837
_cell_angle_alpha 90.000000
_cell_angle_beta 54.428312
_cell_angle_gamma 90.000000
_cell_volume 1961.601808
_symmetry_space_group_name_H-M "C 2/C"
_symmetry_group_IT_number 15
_symmetry_cell_setting 'monoclinic'
loop_
_space_group_symop_operation_xyz
x,y,z
-x,y,1/2-z
-x,-y,-z
x,-y,1/2+z
1/2+x,1/2+y,z
1/2-x,1/2+y,1/2-z
1/2-x,1/2-y,-z
1/2+x,1/2-y,1/2+z
loop_
_atom_site_type_symbol
_atom_site_label
_atom_site_fract_x
_atom_site_fract_y
_atom_site_fract_z
Si Si1 0.773002 0.499458 0.178257
Si Si2 0.833903 0.819052 0.883984
Si Si3 0.449799 0.085730 0.457423
Si Si4 0.376357 0.360682 0.435454
Si Si5 0.301113 0.805543 0.821626
Si Si6 0.000000 0.597476 0.750000
O O1 0.706241 0.618221 0.180092
O O2 0.720408 0.341347 0.224643
O O3 0.815409 0.560839 0.239329
O O4 0.847659 0.462019 0.049843
O O5 0.911207 0.698671 0.810934
O O6 0.879927 0.963987 0.901809
O O7 0.750000 0.750000 0.000000
O O8 0.448398 0.269568 0.444144
O O9 0.500000 0.000000 0.500000
O O10 0.488528 0.009162 0.342676
O O11 0.366511 0.257430 0.351951
O O12 0.285460 0.352709 0.558350
#
# Coordination Sequence:
#
# PCOD9289479 Si02
#       6
#     8   8   8   8   8   4
#     4  10  22  40  65 100 133 181 234 288 360 432
#     4  11  24  46  70 100 141 186 239 300 373 435
#     4  11  26  44  67 105 139 188 246 297 369 441
#     4   9  22  43  65  99 140 189 236 291 371 436
#     4   9  20  36  68  99 127 177 238 283 355 435
#     4  12  28  44  72 102 142 186 242 308 358 454
#
# _framework density 22.430648000000001
#
# number of rings (size 3 to 8) (size 9 to 14) (size 15 to 20)
#    0.000    1.818    1.818    1.091   10.182    0.727 
#    3.273    0.909    0.000    0.000    0.000    0.000 
#    0.000    0.000    0.000    0.000    0.000    0.000 
#
# Total GULP energy -122818.185076 kJ/mol
# GULP energy per Si atom -5582.644776 kJ/mol
# Density = 2.237959 g / cm^3
# Si number density = 22.430648 Si / 1000 Ang^3
#
#
#
# Elastic Constant Matrix: (Units=GPa)
#
#
# Indices 1 2 3 4 5 6 
#
# 1 59.0782 39.7260 16.6955 0.0000 -1.9780 0.0000
# 2 39.7260 102.2704 39.5601 0.0000 8.5707 0.0001
# 3 16.6955 39.5601 109.6674 0.0000 8.7555 0.0000
# 4 0.0000 0.0000 0.0000 36.1882 0.0000 -1.5305
# 5 -1.9780 8.5707 8.7555 0.0000 35.3985 0.0000
# 6 0.0000 0.0001 0.0000 -1.5305 0.0000 29.4271
#
#
#
# Elastic Compliance Matrix: (Units=1/GPa)
#
#
# Indices 1 2 3 4 5 6 
#
# 1 0.023373 -0.009177 -0.000540 0.000000 0.003662 0.000000
# 2 -0.009177 0.015077 -0.003784 0.000000 -0.003227 0.000000
# 3 -0.000540 -0.003784 0.010706 0.000000 -0.001762 0.000000
# 4 0.000000 0.000000 0.000000 0.027694 0.000000 0.001440
# 5 0.003662 -0.003227 -0.001762 0.000000 0.029672 0.000000
# 6 0.000000 0.000000 0.000000 0.001440 0.000000 0.034057
#
#
# Mechanical properties :
#
#
# Convention : Reuss Voigt Hill
#
# Bulk Modulus (GPa) = 45.13847 51.44214 48.29031
# Shear Modulus (GPa) = 28.57706 31.87172 30.22439
#
# Velocity S-wave (km/s) = 3.57321 3.77357 3.67476
# Velocity P-wave (km/s) = 6.09845 6.47844 6.29131
#
# Compressibility (1/GPa) = 0.02215405
#
# Stress axis : x y z
#
# Youngs Moduli (GPa) = 42.78485 66.32703 93.40240
#
# Poissons Ratio (x) = 0.60867 0.05046
# Poissons Ratio (y) = 0.39263 0.35343
# Poissons Ratio (z) = 0.02311 0.25098
#
# Static dielectric constant tensor:
#      x y z
#    x 1.956690 0.000000 -0.017910 
#    y 0.000000 1.867750 0.000000 
#    z -0.017910 0.000000 1.808690 
# 
# From -- ./inp_files/166090.got.cif
#   From: 2010.05.17/outbox.cif.g08.bks.cpg/sg15_84_cif.got.tgz:166090.got - 2010.06.03 18:47:42.
