data_PCOD9289344
_publ_section_title
;
Structure prediction by ZEFSAII (Michael W. Deem and Ramdas Pophale) SiO2 
 PCOD9289344
Probable space group: C 2/C
;
_chemical_formula_sum "Si O2"
_cell_formula_units_Z 32
_cell_length_a 12.669323
_cell_length_b 26.245811
_cell_length_c 5.312027
_cell_angle_alpha 90.000000
_cell_angle_beta 124.513177
_cell_angle_gamma 90.000000
_cell_volume 1455.454831
_symmetry_space_group_name_H-M "C 2/C"
_symmetry_group_IT_number 15
_symmetry_cell_setting 'monoclinic'
loop_
_space_group_symop_operation_xyz
x,y,z
-x,y,1/2-z
-x,-y,-z
x,-y,1/2+z
1/2+x,1/2+y,z
1/2-x,1/2+y,1/2-z
1/2-x,1/2-y,-z
1/2+x,1/2-y,1/2+z
loop_
_atom_site_type_symbol
_atom_site_label
_atom_site_fract_x
_atom_site_fract_y
_atom_site_fract_z
Si Si1 0.356637 0.340731 0.048102
Si Si2 0.193881 0.638467 0.823351
Si Si3 0.144089 0.478147 0.207301
Si Si4 0.392541 0.244907 0.802923
O O1 0.377412 0.280026 0.027593
O O2 0.500000 0.363039 0.250000
O O3 0.729117 0.357612 0.807700
O O4 0.288785 0.352700 0.217116
O O5 0.137583 0.582240 0.726339
O O6 0.091747 0.684256 0.649366
O O7 0.208053 0.504172 0.534990
O O8 0.000000 0.500000 0.000000
O O9 0.500000 0.264012 0.750000
O O10 0.250000 0.250000 0.500000
#
# Coordination Sequence:
#
# PCOD9289344 Si02
#       4
#     8   8   8   8
#     4  11  22  42  64  95 134 177 225 272 326 408
#     4  11  23  40  67  95 131 181 220 273 346 397
#     4  10  22  41  63  92 133 161 216 279 344 389
#     4  10  22  40  63  97 140 176 225 270 330 411
#
# _framework density 21.986255
#
# number of rings (size 3 to 8) (size 9 to 14) (size 15 to 20)
#    0.000    1.500    0.000    6.000    3.500    2.000 
#    9.000    0.000    0.000   15.000    0.000    0.000 
#    0.000    0.000    0.000    0.000    0.000    0.000 
#
# Total GULP energy -89327.703824 kJ/mol
# GULP energy per Si atom -5582.981489 kJ/mol
# Density = 2.193621 g / cm^3
# Si number density = 21.986255 Si / 1000 Ang^3
#
#
#
# Elastic Constant Matrix: (Units=GPa)
#
#
# Indices 1 2 3 4 5 6 
#
# 1 96.7541 0.0910 20.8012 0.0000 -11.9051 0.0000
# 2 0.0910 172.0827 21.4207 0.0000 1.0581 0.0000
# 3 20.8012 21.4207 111.2509 0.0000 -26.2644 0.0000
# 4 0.0000 0.0000 0.0000 27.9787 0.0000 -9.3262
# 5 -11.9051 1.0581 -26.2644 0.0000 36.4588 0.0000
# 6 0.0000 0.0000 0.0000 -9.3262 0.0000 13.2189
#
#
#
# Elastic Compliance Matrix: (Units=1/GPa)
#
#
# Indices 1 2 3 4 5 6 
#
# 1 0.010964 0.000164 -0.001491 0.000000 0.002501 0.000000
# 2 0.000164 0.006000 -0.001463 0.000000 -0.001175 0.000000
# 3 -0.001491 -0.001463 0.011380 0.000000 0.007753 0.000000
# 4 0.000000 0.000000 0.000000 0.046731 0.000000 0.032970
# 5 0.002501 -0.001175 0.007753 0.000000 0.033864 0.000000
# 6 0.000000 0.000000 0.000000 0.032970 0.000000 0.098910
#
#
# Mechanical properties :
#
#
# Convention : Reuss Voigt Hill
#
# Bulk Modulus (GPa) = 43.92988 51.63484 47.78236
# Shear Modulus (GPa) = 22.62266 38.04961 30.33614
#
# Velocity S-wave (km/s) = 3.21120 4.16457 3.71857
# Velocity P-wave (km/s) = 5.81146 6.83088 6.34169
#
# Compressibility (1/GPa) = 0.02276355
#
# Stress axis : x y z
#
# Youngs Moduli (GPa) = 91.21048 166.65392 87.87586
#
# Poissons Ratio (x) = -0.02740 0.13104
# Poissons Ratio (y) = -0.01500 0.12860
# Poissons Ratio (z) = 0.13601 0.24388
#
# Static dielectric constant tensor:
#      x y z
#    x 1.648670 0.000000 0.277060 
#    y 0.000000 1.859110 0.000000 
#    z 0.277060 0.000000 1.448710 
# 
# From -- ./inp_files/4156.got.cif
#   From: 2010.05.17/outbox.cif.g08.bks.cpg/sg15_3_cif.got.tgz:4156.got - 2010.06.03 18:47:42.
