data_PCOD9289652
_publ_section_title
;
Structure prediction by ZEFSAII (Michael W. Deem and Ramdas Pophale) SiO2 
 PCOD9289652
Probable space group: C 2/C
;
_chemical_formula_sum "Si O2"
_cell_formula_units_Z 60
_cell_length_a 11.312578
_cell_length_b 29.416333
_cell_length_c 9.632826
_cell_angle_alpha 90.000000
_cell_angle_beta 131.350376
_cell_angle_gamma 90.000000
_cell_volume 2406.360753
_symmetry_space_group_name_H-M "C 2/C"
_symmetry_group_IT_number 15
_symmetry_cell_setting 'monoclinic'
loop_
_space_group_symop_operation_xyz
x,y,z
-x,y,1/2-z
-x,-y,-z
x,-y,1/2+z
1/2+x,1/2+y,z
1/2-x,1/2+y,1/2-z
1/2-x,1/2-y,-z
1/2+x,1/2-y,1/2+z
loop_
_atom_site_type_symbol
_atom_site_label
_atom_site_fract_x
_atom_site_fract_y
_atom_site_fract_z
Si Si1 0.126807 0.540196 0.459126
Si Si2 0.502988 0.639888 0.955479
Si Si3 0.736985 0.656736 0.379773
Si Si4 0.897948 0.042797 0.471461
Si Si5 0.379344 0.937129 0.970184
Si Si6 0.974377 0.276334 0.935342
Si Si7 0.691631 0.306249 0.356146
Si Si8 0.500000 0.272204 0.750000
O O1 0.303732 0.544113 0.543520
O O2 0.112737 0.485419 0.448531
O O3 0.000000 0.558416 0.250000
O O4 0.055504 0.563857 0.540657
O O5 0.495204 0.586594 0.935393
O O6 0.332001 0.658341 0.787278
O O7 0.613860 0.668389 0.930507
O O8 0.586263 0.645879 0.166529
O O9 0.816660 0.609527 0.491722
O O10 0.659063 0.698191 0.404372
O O11 0.865282 0.680996 0.383068
O O12 0.756634 0.052453 0.251367
O O13 0.000000 0.000000 0.500000
O O14 0.130842 0.293269 0.981925
O O15 0.023030 0.255650 0.124837
O O16 0.889051 0.238047 0.777384
#
# Coordination Sequence:
#
# PCOD9289652 Si02
#       8
#     8   8   8   8   8   8   8   4
#     4   9  19  41  64  94 134 166 218 276 328 405
#     4  10  24  43  65 103 132 168 224 288 331 410
#     4  11  24  43  67  96 131 181 222 280 346 411
#     4  10  22  40  66  96 135 177 213 265 347 401
#     4   9  21  40  65  95 127 175 219 270 338 394
#     4  12  25  44  68  94 131 187 222 285 354 400
#     4  11  24  44  67 100 134 175 230 290 341 407
#     4  12  24  46  64  90 138 174 228 278 332 430
#
# _framework density 24.933918999999999
#
# number of rings (size 3 to 8) (size 9 to 14) (size 15 to 20)
#    0.000    1.600    2.667    0.400    1.867   10.133 
#    6.000    0.000    0.000    0.000    0.000    0.000 
#    0.000    0.000    0.000    0.000    0.000    0.000 
#
# Total GULP energy -167274.993353 kJ/mol
# GULP energy per Si atom -5575.833112 kJ/mol
# Density = 2.487717 g / cm^3
# Si number density = 24.933919 Si / 1000 Ang^3
#
#
#
# Elastic Constant Matrix: (Units=GPa)
#
#
# Indices 1 2 3 4 5 6 
#
# 1 42.5098 26.3162 22.3908 0.0000 15.9836 0.0000
# 2 26.3162 103.9792 14.8035 0.0000 17.5155 0.0000
# 3 22.3908 14.8035 59.7376 0.0000 6.5775 0.0000
# 4 0.0000 0.0000 0.0000 35.2740 0.0000 3.3886
# 5 15.9836 17.5155 6.5775 0.0000 36.0882 0.0000
# 6 0.0000 0.0000 0.0000 3.3886 0.0000 -0.9471
#
#
#
# Elastic Compliance Matrix: (Units=1/GPa)
#
#
# Indices 1 2 3 4 5 6 
#
# 1 0.037549 -0.005922 -0.011319 0.000000 -0.011693 0.000000
# 2 -0.005922 0.011666 -0.000344 0.000000 -0.002977 0.000000
# 3 -0.011319 -0.000344 0.020917 0.000000 0.001368 0.000000
# 4 0.000000 0.000000 0.000000 0.021098 0.000000 0.075484
# 5 -0.011693 -0.002977 0.001368 0.000000 0.034084 0.000000
# 6 0.000000 0.000000 0.000000 0.075484 0.000000 -0.785775
#
#
# Mechanical properties :
#
#
# Convention : Reuss Voigt Hill
#
# Bulk Modulus (GPa) = 28.60161 37.02750 32.81455
# Shear Modulus (GPa) = -8.14814 23.59743 7.72464
#
# Velocity S-wave (km/s) = -1.80969 3.07970 1.76204
# Velocity P-wave (km/s) = 2.67006 5.24676 4.16280
#
# Compressibility (1/GPa) = 0.03496307
#
# Stress axis : x y z
#
# Youngs Moduli (GPa) = 26.63215 85.71556 47.80804
#
# Poissons Ratio (x) = 0.50761 0.54113
# Poissons Ratio (y) = 0.15772 0.01643
# Poissons Ratio (z) = 0.30145 0.02945
#
# Static dielectric constant tensor:
#      x y z
#    x 2.110260 0.000000 -0.048410 
#    y 0.000000 2.018010 0.000000 
#    z -0.048410 0.000000 2.097020 
# 
# From -- ./inp_files/92615.got.cif
#   From: 2010.05.17/outbox.cif.g08.bks.cpg/sg15_47_cif.got.tgz:92615.got - 2010.06.03 18:47:42.
