data_PCOD9289840
_publ_section_title
;
Structure prediction by ZEFSAII (Michael W. Deem and Ramdas Pophale) SiO2 
 PCOD9289840
Probable space group: C 2/C
;
_chemical_formula_sum "Si O2"
_cell_formula_units_Z 36
_cell_length_a 13.381023
_cell_length_b 5.175380
_cell_length_c 18.303504
_cell_angle_alpha 90.000000
_cell_angle_beta 88.416268
_cell_angle_gamma 90.000000
_cell_volume 1267.067839
_symmetry_space_group_name_H-M "C 2/C"
_symmetry_group_IT_number 15
_symmetry_cell_setting 'monoclinic'
loop_
_space_group_symop_operation_xyz
x,y,z
-x,y,1/2-z
-x,-y,-z
x,-y,1/2+z
1/2+x,1/2+y,z
1/2-x,1/2+y,1/2-z
1/2-x,1/2-y,-z
1/2+x,1/2-y,1/2+z
loop_
_atom_site_type_symbol
_atom_site_label
_atom_site_fract_x
_atom_site_fract_y
_atom_site_fract_z
Si Si1 0.040921 0.321701 0.604374
Si Si2 0.247873 0.783252 0.086672
Si Si3 0.301129 0.477958 0.719789
Si Si4 0.500000 0.157556 0.750000
Si Si5 0.137608 0.677483 0.475824
O O1 0.136733 0.132164 0.610619
O O2 0.085237 0.534711 0.545923
O O3 0.019518 0.469504 0.680062
O O4 0.952806 0.173610 0.562764
O O5 0.276314 0.540319 0.134459
O O6 0.337126 0.982798 0.091913
O O7 0.250000 0.750000 0.000000
O O8 0.276686 0.764348 0.746467
O O9 0.407364 0.350375 0.735354
O O10 0.250000 0.750000 0.500000
#
# Coordination Sequence:
#
# PCOD9289840 Si02
#       5
#     8   8   8   4   8
#     4  10  22  42  64 100 144 184 250 305 374 447
#     4  10  22  44  71 104 148 195 255 310 374 453
#     4  12  28  50  76 112 158 203 257 316 391 465
#     4  12  24  44  76 108 154 198 258 312 392 458
#     4  10  22  40  68  97 139 194 245 308 373 446
#
# _framework density 28.412053
#
# number of rings (size 3 to 8) (size 9 to 14) (size 15 to 20)
#    0.000    1.333    4.444    0.000    3.111    1.778 
#    0.000    0.000    0.000    0.000    0.000    0.000 
#    0.000    0.000    0.000    0.000    0.000    0.000 
#
# Total GULP energy -100611.255005 kJ/mol
# GULP energy per Si atom -5589.514167 kJ/mol
# Density = 2.834739 g / cm^3
# Si number density = 28.412053 Si / 1000 Ang^3
#
#
#
# Elastic Constant Matrix: (Units=GPa)
#
#
# Indices 1 2 3 4 5 6 
#
# 1 161.1568 -11.0967 94.2992 0.0000 2.7181 0.0000
# 2 -11.0967 79.2218 38.3724 0.0000 -18.5935 0.0000
# 3 94.2992 38.3724 179.5980 0.0000 1.3188 0.0000
# 4 0.0000 0.0000 0.0000 42.8329 0.0000 -16.2579
# 5 2.7181 -18.5935 1.3188 0.0000 49.1716 0.0000
# 6 0.0000 0.0000 0.0000 -16.2579 0.0000 53.7607
#
#
#
# Elastic Compliance Matrix: (Units=1/GPa)
#
#
# Indices 1 2 3 4 5 6 
#
# 1 0.010309 0.004925 -0.006476 0.000000 0.001466 0.000000
# 2 0.004925 0.018032 -0.006488 0.000000 0.006720 0.000000
# 3 -0.006476 -0.006488 0.010372 0.000000 -0.002373 0.000000
# 4 0.000000 0.000000 0.000000 0.026374 0.000000 0.007976
# 5 0.001466 0.006720 -0.002373 0.000000 0.022861 0.000000
# 6 0.000000 0.000000 0.000000 0.007976 0.000000 0.021013
#
#
# Mechanical properties :
#
#
# Convention : Reuss Voigt Hill
#
# Bulk Modulus (GPa) = 44.17932 73.68071 58.93002
# Shear Modulus (GPa) = 37.71235 49.04647 43.37941
#
# Velocity S-wave (km/s) = 3.64721 4.15933 3.91166
# Velocity P-wave (km/s) = 5.77230 7.00399 6.41776
#
# Compressibility (1/GPa) = 0.02263502
#
# Stress axis : x y z
#
# Youngs Moduli (GPa) = 97.00659 55.45597 96.41725
#
# Poissons Ratio (x) = -0.27309 0.62435
# Poissons Ratio (y) = -0.47771 0.62553
# Poissons Ratio (z) = 0.62817 0.35978
#
# Static dielectric constant tensor:
#      x y z
#    x 2.225860 0.000000 -0.037690 
#    y 0.000000 2.705670 0.000000 
#    z -0.037690 0.000000 2.234170 
# 
# From -- ./inp_files/241466.got.cif
#   From: 2010.05.17/outbox.cif.g08.bks.cpg/sg15_121_cif.got.tgz:241466.got - 2010.06.03 18:47:42.
