data_PCOD9289055
_publ_section_title
;
Structure prediction by ZEFSAII (Michael W. Deem and Ramdas Pophale) SiO2 
 PCOD9289055
Probable space group: C 2/C
;
_chemical_formula_sum "Si O2"
_cell_formula_units_Z 36
_cell_length_a 12.733792
_cell_length_b 26.819385
_cell_length_c 5.069640
_cell_angle_alpha 90.000000
_cell_angle_beta 102.589497
_cell_angle_gamma 90.000000
_cell_volume 1689.718084
_symmetry_space_group_name_H-M "C 2/C"
_symmetry_group_IT_number 15
_symmetry_cell_setting 'monoclinic'
loop_
_space_group_symop_operation_xyz
x,y,z
-x,y,1/2-z
-x,-y,-z
x,-y,1/2+z
1/2+x,1/2+y,z
1/2-x,1/2+y,1/2-z
1/2-x,1/2-y,-z
1/2+x,1/2-y,1/2+z
loop_
_atom_site_type_symbol
_atom_site_label
_atom_site_fract_x
_atom_site_fract_y
_atom_site_fract_z
Si Si1 0.869340 0.672786 0.191851
Si Si2 0.926123 0.231296 0.965361
Si Si3 0.806811 0.612902 0.657775
Si Si4 0.427102 0.617397 0.969385
Si Si5 0.000000 0.464293 0.250000
O O1 0.844936 0.726913 0.310395
O O2 0.823107 0.633691 0.373210
O O3 0.000000 0.669688 0.250000
O O4 0.826333 0.657195 0.882581
O O5 0.892801 0.175218 0.018157
O O6 0.000000 0.223623 0.750000
O O7 0.000000 0.250403 0.250000
O O8 0.687372 0.591718 0.629654
O O9 0.898221 0.571711 0.736403
O O10 0.500000 0.615841 0.750000
O O11 0.500000 0.599460 0.250000
O O12 0.000000 0.500000 0.500000
#
# Coordination Sequence:
#
# PCOD9289055 Si02
#       5
#     8   8   8   8   4
#     4  11  19  34  56  90 129 157 211 254 300 369
#     4   9  18  32  52  82 127 173 205 254 291 337
#     4  12  23  39  66  91 118 167 203 255 323 369
#     4  10  22  40  59  88 129 170 216 245 289 363
#     4  12  26  46  68  96 126 146 198 268 338 388
#
# _framework density 21.305332
#
# number of rings (size 3 to 8) (size 9 to 14) (size 15 to 20)
#    0.000    1.333    2.222    5.333    0.000    1.778 
#    0.000    0.000    0.000    4.000    0.000    0.000 
#    0.000    0.000    0.000    0.000    0.000    0.000 
#
# Total GULP energy -100494.463965 kJ/mol
# GULP energy per Si atom -5583.025776 kJ/mol
# Density = 2.125684 g / cm^3
# Si number density = 21.305332 Si / 1000 Ang^3
#
#
#
# Elastic Constant Matrix: (Units=GPa)
#
#
# Indices 1 2 3 4 5 6 
#
# 1 140.0487 25.7098 44.2823 0.0000 17.3086 0.0000
# 2 25.7098 46.2699 6.6236 0.0000 3.0127 0.0000
# 3 44.2823 6.6236 127.8770 0.0000 -4.8159 0.0000
# 4 0.0000 0.0000 0.0000 -12.3751 0.0000 -3.2600
# 5 17.3086 3.0127 -4.8159 0.0000 36.3472 0.0000
# 6 0.0000 0.0000 0.0000 -3.2600 0.0000 3.9591
#
#
#
# Elastic Compliance Matrix: (Units=1/GPa)
#
#
# Indices 1 2 3 4 5 6 
#
# 1 0.009575 -0.004554 -0.003254 0.000000 -0.004613 0.000000
# 2 -0.004554 0.024080 0.000338 0.000000 0.000218 0.000000
# 3 -0.003254 0.000338 0.009032 0.000000 0.002718 0.000000
# 4 0.000000 0.000000 0.000000 -0.066404 0.000000 -0.054678
# 5 -0.004613 0.000218 0.002718 0.000000 0.030051 0.000000
# 6 0.000000 0.000000 0.000000 -0.054678 0.000000 0.207559
#
#
# Mechanical properties :
#
#
# Convention : Reuss Voigt Hill
#
# Bulk Modulus (GPa) = 36.03953 51.93635 43.98794
# Shear Modulus (GPa) = 21.00108 21.42492 21.21300
#
# Velocity S-wave (km/s) = 3.14302 3.17458 3.15884
# Velocity P-wave (km/s) = 5.48853 6.15365 5.83058
#
# Compressibility (1/GPa) = 0.02774731
#
# Stress axis : x y z
#
# Youngs Moduli (GPa) = 104.43397 41.52752 110.72259
#
# Poissons Ratio (x) = 0.18913 0.36026
# Poissons Ratio (y) = 0.47564 -0.03743
# Poissons Ratio (z) = 0.33980 -0.01404
#
# Static dielectric constant tensor:
#      x y z
#    x 1.782340 0.000000 0.045050 
#    y 0.000000 1.814110 0.000000 
#    z 0.045050 0.000000 1.750600 
# 
# From -- ./inp_files/4821.got.cif
#   From: 2010.05.17/outbox.cif.g08.bks.cpg/sg15_3_cif.got.tgz:4821.got - 2010.06.03 18:47:42.
