data_PCOD9289231
_publ_section_title
;
Structure prediction by ZEFSAII (Michael W. Deem and Ramdas Pophale) SiO2 
 PCOD9289231
Probable space group: C 2/C
;
_chemical_formula_sum "Si O2"
_cell_formula_units_Z 48
_cell_length_a 7.939091
_cell_length_b 33.329660
_cell_length_c 14.086128
_cell_angle_alpha 90.000000
_cell_angle_beta 140.216315
_cell_angle_gamma 90.000000
_cell_volume 2385.059572
_symmetry_space_group_name_H-M "C 2/C"
_symmetry_group_IT_number 15
_symmetry_cell_setting 'monoclinic'
loop_
_space_group_symop_operation_xyz
x,y,z
-x,y,1/2-z
-x,-y,-z
x,-y,1/2+z
1/2+x,1/2+y,z
1/2-x,1/2+y,1/2-z
1/2-x,1/2-y,-z
1/2+x,1/2-y,1/2+z
loop_
_atom_site_type_symbol
_atom_site_label
_atom_site_fract_x
_atom_site_fract_y
_atom_site_fract_z
Si Si1 0.897410 0.592540 0.569379
Si Si2 0.984482 0.927336 0.356567
Si Si3 0.568095 0.365059 0.542889
Si Si4 0.841083 0.708800 0.084578
Si Si5 0.297438 0.142942 0.343285
Si Si6 0.214874 0.989579 0.924060
O O1 0.725894 0.625330 0.549821
O O2 0.911175 0.610762 0.467823
O O3 0.741891 0.550588 0.496055
O O4 0.174124 0.580500 0.734435
O O5 0.000000 0.921788 0.250000
O O6 0.129831 0.895569 0.485035
O O7 0.101252 0.971241 0.426898
O O8 0.609868 0.320925 0.519451
O O9 0.749410 0.371674 0.714207
O O10 0.000000 0.717196 0.250000
O O11 0.019677 0.681970 0.090518
O O12 0.750000 0.750000 0.000000
O O13 0.000000 0.152822 0.250000
O O14 0.000000 0.981111 0.750000
O O15 0.500000 0.000000 0.000000
#
# Coordination Sequence:
#
# PCOD9289231 Si02
#       6
#     8   8   8   8   8   8
#     4  11  21  41  64  90 126 169 217 269 319 378
#     4  11  22  38  61  89 128 168 221 269 318 371
#     4  10  22  40  62  92 122 163 212 257 318 390
#     4  10  22  41  63  93 127 158 205 258 322 395
#     4   9  20  41  67  89 124 167 208 259 323 385
#     4  11  21  38  61  90 129 173 225 271 324 376
#
# _framework density 20.125285000000002
#
# number of rings (size 3 to 8) (size 9 to 14) (size 15 to 20)
#    0.000    1.667    3.333    3.000    0.000    2.667 
#    3.000    9.167    0.000    0.000    0.000    0.000 
#    0.000    0.000    0.000    0.000    0.000    0.000 
#
# Total GULP energy -133922.960559 kJ/mol
# GULP energy per Si atom -5580.123357 kJ/mol
# Density = 2.007948 g / cm^3
# Si number density = 20.125285 Si / 1000 Ang^3
#
#
#
# Elastic Constant Matrix: (Units=GPa)
#
#
# Indices 1 2 3 4 5 6 
#
# 1 102.9372 59.2649 35.1595 0.0000 8.7050 0.0000
# 2 59.2649 175.3080 79.5533 0.0000 -4.5535 0.0000
# 3 35.1595 79.5533 87.5271 0.0000 8.6130 0.0000
# 4 0.0000 0.0000 0.0000 34.8697 0.0000 9.2266
# 5 8.7050 -4.5535 8.6130 0.0000 43.2125 0.0000
# 6 0.0000 0.0000 0.0000 9.2266 0.0000 20.0907
#
#
#
# Elastic Compliance Matrix: (Units=1/GPa)
#
#
# Indices 1 2 3 4 5 6 
#
# 1 0.012532 -0.003637 -0.001471 0.000000 -0.002615 0.000000
# 2 -0.003637 0.011117 -0.009008 0.000000 0.003700 0.000000
# 3 -0.001471 -0.009008 0.020673 0.000000 -0.004773 0.000000
# 4 0.000000 0.000000 0.000000 0.032645 0.000000 -0.014992
# 5 -0.002615 0.003700 -0.004773 0.000000 0.025009 0.000000
# 6 0.000000 0.000000 0.000000 -0.014992 0.000000 0.056660
#
#
# Mechanical properties :
#
#
# Convention : Reuss Voigt Hill
#
# Bulk Modulus (GPa) = 62.14797 79.30308 70.72553
# Shear Modulus (GPa) = 26.01018 32.42087 29.21552
#
# Velocity S-wave (km/s) = 3.59891 4.01802 3.81423
# Velocity P-wave (km/s) = 6.94386 7.81129 7.39031
#
# Compressibility (1/GPa) = 0.01609063
#
# Stress axis : x y z
#
# Youngs Moduli (GPa) = 79.79435 89.94834 48.37240
#
# Poissons Ratio (x) = 0.32713 0.07117
# Poissons Ratio (y) = 0.29020 0.43573
# Poissons Ratio (z) = 0.11740 0.81024
#
# Static dielectric constant tensor:
#      x y z
#    x 1.844930 0.000000 -0.002050 
#    y 0.000000 1.683940 0.000000 
#    z -0.002050 0.000000 1.736440 
# 
# From -- ./inp_files/139643.got.cif
#   From: 2010.05.17/outbox.cif.g08.bks.cpg/sg15_70_cif.got.tgz:139643.got - 2010.06.03 18:47:42.
