data_PCOD9289013
_publ_section_title
;
Structure prediction by ZEFSAII (Michael W. Deem and Ramdas Pophale) SiO2 
 PCOD9289013
Probable space group: C 2/C
;
_chemical_formula_sum "Si O2"
_cell_formula_units_Z 36
_cell_length_a 7.359958
_cell_length_b 12.302912
_cell_length_c 15.828235
_cell_angle_alpha 90.000000
_cell_angle_beta 116.244020
_cell_angle_gamma 90.000000
_cell_volume 1285.490638
_symmetry_space_group_name_H-M "C 2/C"
_symmetry_group_IT_number 15
_symmetry_cell_setting 'monoclinic'
loop_
_space_group_symop_operation_xyz
x,y,z
-x,y,1/2-z
-x,-y,-z
x,-y,1/2+z
1/2+x,1/2+y,z
1/2-x,1/2+y,1/2-z
1/2-x,1/2-y,-z
1/2+x,1/2-y,1/2+z
loop_
_atom_site_type_symbol
_atom_site_label
_atom_site_fract_x
_atom_site_fract_y
_atom_site_fract_z
Si Si1 0.050916 0.723723 0.348294
Si Si2 0.500000 0.975925 0.750000
Si Si3 0.998889 0.066516 0.587849
Si Si4 0.420687 0.861223 0.111722
Si Si5 0.701842 0.630562 0.390182
O O1 0.851372 0.669649 0.348449
O O2 0.000000 0.783737 0.250000
O O3 0.146320 0.611134 0.330427
O O4 0.129051 0.821468 0.424192
O O5 0.430547 0.054884 0.812974
O O6 0.223558 0.114220 0.629250
O O7 0.923212 0.979057 0.639012
O O8 0.000000 0.000000 0.500000
O O9 0.449424 0.732420 0.123767
O O10 0.353107 0.882912 0.002309
#
# Coordination Sequence:
#
# PCOD9289013 Si02
#       5
#     8   4   8   8   8
#     4   9  21  38  56  88 133 158 203 273 317 375
#     4  10  22  40  50  86 136 166 192 276 334 364
#     4   9  18  38  65  89 118 164 215 264 315 380
#     4   9  19  38  60  90 127 158 218 260 314 393
#     4   9  18  37  64  87 116 170 214 263 308 383
#
# _framework density 28.004871999999999
#
# number of rings (size 3 to 8) (size 9 to 14) (size 15 to 20)
#    0.667    2.222    0.000    1.333    0.000    4.444 
#   10.000    4.444    0.000    0.000    0.000    0.000 
#    0.000    0.000    0.000    0.000    0.000    0.000 
#
# Total GULP energy -100207.481621 kJ/mol
# GULP energy per Si atom -5567.082312 kJ/mol
# Density = 2.794113 g / cm^3
# Si number density = 28.004872 Si / 1000 Ang^3
#
#
#
# Elastic Constant Matrix: (Units=GPa)
#
#
# Indices 1 2 3 4 5 6 
#
# 1 89.9879 40.9202 32.4795 0.0000 -24.4135 0.0000
# 2 40.9202 215.5750 82.7450 0.0000 -14.7965 0.0000
# 3 32.4795 82.7450 132.0363 0.0000 -25.7121 0.0000
# 4 0.0000 0.0000 0.0000 23.7317 0.0000 -3.8419
# 5 -24.4135 -14.7965 -25.7121 0.0000 31.7339 0.0000
# 6 0.0000 0.0000 0.0000 -3.8419 0.0000 39.7281
#
#
#
# Elastic Compliance Matrix: (Units=1/GPa)
#
#
# Indices 1 2 3 4 5 6 
#
# 1 0.014938 -0.001959 -0.000460 0.000000 0.010207 0.000000
# 2 -0.001959 0.006367 -0.003828 0.000000 -0.001639 0.000000
# 3 -0.000460 -0.003828 0.011480 0.000000 0.007164 0.000000
# 4 0.000000 0.000000 0.000000 0.042808 0.000000 0.004140
# 5 0.010207 -0.001639 0.007164 0.000000 0.044404 0.000000
# 6 0.000000 0.000000 0.000000 0.004140 0.000000 0.025571
#
#
# Mechanical properties :
#
#
# Convention : Reuss Voigt Hill
#
# Bulk Modulus (GPa) = 49.27542 83.32097 66.29820
# Shear Modulus (GPa) = 30.33507 37.80237 34.06872
#
# Velocity S-wave (km/s) = 3.29478 3.67802 3.49166
# Velocity P-wave (km/s) = 5.66636 6.91766 6.32304
#
# Compressibility (1/GPa) = 0.02029409
#
# Stress axis : x y z
#
# Youngs Moduli (GPa) = 66.94278 157.05486 87.10424
#
# Poissons Ratio (x) = 0.30760 0.04004
# Poissons Ratio (y) = 0.13111 0.33341
# Poissons Ratio (z) = 0.03077 0.60115
#
# Static dielectric constant tensor:
#      x y z
#    x 2.462440 0.000000 0.177840 
#    y 0.000000 2.342800 0.000000 
#    z 0.177840 0.000000 2.310530 
# 
# From -- ./inp_files/141292.got.cif
#   From: 2010.05.17/outbox.cif.g08.bks.cpg/sg15_71_cif.got.tgz:141292.got - 2010.06.03 18:47:42.
