data_PCOD9289898
_publ_section_title
;
Structure prediction by ZEFSAII (Michael W. Deem and Ramdas Pophale) SiO2 
 PCOD9289898
Probable space group: C 2/C
;
_chemical_formula_sum "Si O2"
_cell_formula_units_Z 40
_cell_length_a 20.646381
_cell_length_b 5.050816
_cell_length_c 21.407500
_cell_angle_alpha 90.000000
_cell_angle_beta 131.505163
_cell_angle_gamma 90.000000
_cell_volume 1671.833230
_symmetry_space_group_name_H-M "C 2/C"
_symmetry_group_IT_number 15
_symmetry_cell_setting 'monoclinic'
loop_
_space_group_symop_operation_xyz
x,y,z
-x,y,1/2-z
-x,-y,-z
x,-y,1/2+z
1/2+x,1/2+y,z
1/2-x,1/2+y,1/2-z
1/2-x,1/2-y,-z
1/2+x,1/2-y,1/2+z
loop_
_atom_site_type_symbol
_atom_site_label
_atom_site_fract_x
_atom_site_fract_y
_atom_site_fract_z
Si Si1 0.899240 0.561117 0.108113
Si Si2 0.701749 0.682510 0.693344
Si Si3 0.500000 0.681384 0.250000
Si Si4 0.250000 0.750000 0.500000
Si Si5 0.834615 0.188576 0.971851
Si Si6 0.484479 0.432318 0.373279
O O1 0.847512 0.818603 0.094709
O O2 0.924839 0.376693 0.179347
O O3 0.978165 0.637248 0.114407
O O4 0.825100 0.440851 0.013973
O O5 0.767358 0.439954 0.748402
O O6 0.692059 0.761315 0.614621
O O7 0.606430 0.577358 0.651320
O O8 0.473662 0.529078 0.295191
O O9 0.276264 0.551099 0.457411
O O10 0.935784 0.093683 0.043580
#
# Coordination Sequence:
#
# PCOD9289898 Si02
#       6
#     8   8   4   4   8   8
#     4  10  22  40  69  98 139 182 238 299 358 434
#     4  12  31  47  72 108 148 195 244 308 359 431
#     4  10  22  40  70 104 134 184 234 314 352 436
#     4  10  22  40  70 106 134 184 232 300 356 436
#     4  10  24  45  71 102 142 190 239 295 368 438
#     4  10  24  46  70 102 140 194 240 297 369 440
#
# _framework density 23.925833000000001
#
# number of rings (size 3 to 8) (size 9 to 14) (size 15 to 20)
#    0.000    1.600    0.000    1.800   14.000    5.600 
#    0.000    0.000    0.000    0.000    0.000    0.000 
#    0.000    0.000    0.000    0.000    0.000    0.000 
#
# Total GULP energy -111363.763853 kJ/mol
# GULP energy per Si atom -5568.188193 kJ/mol
# Density = 2.387138 g / cm^3
# Si number density = 23.925833 Si / 1000 Ang^3
#
#
#
# Elastic Constant Matrix: (Units=GPa)
#
#
# Indices 1 2 3 4 5 6 
#
# 1 81.4722 -11.9655 37.7541 -0.0004 17.3886 -0.0004
# 2 -11.9655 65.0789 36.3541 0.0019 4.6299 -0.0026
# 3 37.7541 36.3541 149.3362 0.0014 -19.6941 0.0003
# 4 -0.0004 0.0019 0.0014 41.7834 0.0008 6.0583
# 5 17.3886 4.6299 -19.6941 0.0008 34.2554 0.0008
# 6 -0.0004 -0.0026 0.0003 6.0583 0.0008 26.2959
#
#
#
# Elastic Compliance Matrix: (Units=1/GPa)
#
#
# Indices 1 2 3 4 5 6 
#
# 1 0.024014 0.012503 -0.011843 0.000000 -0.020688 0.000002
# 2 0.012503 0.025228 -0.011458 -0.000001 -0.016344 0.000004
# 3 -0.011843 -0.011458 0.014582 0.000000 0.015944 -0.000002
# 4 0.000000 -0.000001 0.000000 0.024760 0.000000 -0.005704
# 5 -0.020688 -0.016344 0.015944 0.000000 0.051070 -0.000004
# 6 0.000002 0.000004 -0.000002 -0.005704 -0.000004 0.039343
#
#
# Mechanical properties :
#
#
# Convention : Reuss Voigt Hill
#
# Bulk Modulus (GPa) = 23.68086 46.68588 35.18337
# Shear Modulus (GPa) = 23.29171 36.04991 29.67081
#
# Velocity S-wave (km/s) = 3.12348 3.88588 3.52535
# Velocity P-wave (km/s) = 4.78824 6.29988 5.59534
#
# Compressibility (1/GPa) = 0.04222820
#
# Stress axis : x y z
#
# Youngs Moduli (GPa) = 41.64251 39.63873 68.57657
#
# Poissons Ratio (x) = -0.49559 0.81215
# Poissons Ratio (y) = -0.52065 0.78572
# Poissons Ratio (z) = 0.49317 0.45417
#
# Static dielectric constant tensor:
#      x y z
#    x 1.406230 0.000000 -0.133160 
#    y 0.000000 1.042980 0.000000 
#    z -0.133160 0.000000 1.844740 
# 
# From -- ./inp_files/170937.got.cif
#   From: 2010.05.17/outbox.cif.g08.bks.cpg/sg15_86_cif.got.tgz:170937.got - 2010.06.03 18:47:42.
