data_PCOD9289031
_publ_section_title
;
Structure prediction by ZEFSAII (Michael W. Deem and Ramdas Pophale) SiO2 
 PCOD9289031
Probable space group: C 2/C
;
_chemical_formula_sum "Si O2"
_cell_formula_units_Z 44
_cell_length_a 15.627520
_cell_length_b 11.207029
_cell_length_c 13.245587
_cell_angle_alpha 90.000000
_cell_angle_beta 142.318082
_cell_angle_gamma 90.000000
_cell_volume 1418.045096
_symmetry_space_group_name_H-M "C 2/C"
_symmetry_group_IT_number 15
_symmetry_cell_setting 'monoclinic'
loop_
_space_group_symop_operation_xyz
x,y,z
-x,y,1/2-z
-x,-y,-z
x,-y,1/2+z
1/2+x,1/2+y,z
1/2-x,1/2+y,1/2-z
1/2-x,1/2-y,-z
1/2+x,1/2-y,1/2+z
loop_
_atom_site_type_symbol
_atom_site_label
_atom_site_fract_x
_atom_site_fract_y
_atom_site_fract_z
Si Si1 0.351447 0.096183 0.959619
Si Si2 0.427787 0.760904 0.820388
Si Si3 0.207267 0.457322 0.786288
Si Si4 0.250000 0.250000 0.000000
Si Si5 0.743014 0.349520 0.877977
Si Si6 0.431776 0.637007 0.040531
O O1 0.185235 0.160972 0.840786
O O2 0.317758 0.077773 0.808812
O O3 0.325222 0.967995 0.989186
O O4 0.408637 0.229560 0.076318
O O5 0.472081 0.909243 0.890399
O O6 0.257152 0.856534 0.767763
O O7 0.457342 0.690304 0.951716
O O8 0.186784 0.353804 0.861397
O O9 0.355698 0.510975 0.968989
O O10 0.676350 0.267722 0.014764
O O11 0.578832 0.362959 0.734046
#
# Coordination Sequence:
#
# PCOD9289031 Si02
#       6
#     8   8   8   4   8   8
#     4  10  22  40  57  95 132 175 215 281 328 414
#     4  11  22  38  65  97 135 173 217 279 336 406
#     4   9  20  36  59  92 130 165 229 272 325 388
#     4  12  24  42  62 100 138 176 208 270 364 404
#     4   9  22  33  62  93 128 169 227 276 332 391
#     4  11  19  37  63  96 129 169 221 286 325 388
#
# _framework density 31.028632999999999
#
# number of rings (size 3 to 8) (size 9 to 14) (size 15 to 20)
#    1.091    0.727    1.818    2.727    5.091    0.000 
#    3.273    0.000    0.000    1.091    0.000    0.000 
#    0.000    0.000    0.000    0.000    0.000    0.000 
#
# Total GULP energy -122511.540736 kJ/mol
# GULP energy per Si atom -5568.706397 kJ/mol
# Density = 3.095801 g / cm^3
# Si number density = 31.028633 Si / 1000 Ang^3
#
#
#
# Elastic Constant Matrix: (Units=GPa)
#
#
# Indices 1 2 3 4 5 6 
#
# 1 252.3580 83.0974 84.9441 0.0000 18.7108 0.0000
# 2 83.0974 211.2048 59.3195 0.0000 35.9764 0.0000
# 3 84.9441 59.3195 251.0162 0.0000 42.3731 0.0000
# 4 0.0000 0.0000 0.0000 67.7631 0.0000 16.0864
# 5 18.7108 35.9764 42.3731 0.0000 90.4029 0.0000
# 6 0.0000 0.0000 0.0000 16.0864 0.0000 80.3010
#
#
#
# Elastic Compliance Matrix: (Units=1/GPa)
#
#
# Indices 1 2 3 4 5 6 
#
# 1 0.004919 -0.001604 -0.001326 0.000000 0.000242 0.000000
# 2 -0.001604 0.005812 -0.000539 0.000000 -0.001728 0.000000
# 3 -0.001326 -0.000539 0.004862 0.000000 -0.001790 0.000000
# 4 0.000000 0.000000 0.000000 0.015494 0.000000 -0.003104
# 5 0.000242 -0.001728 -0.001790 0.000000 0.012538 0.000000
# 6 0.000000 0.000000 0.000000 -0.003104 0.000000 0.013075
#
#
# Mechanical properties :
#
#
# Convention : Reuss Voigt Hill
#
# Bulk Modulus (GPa) = 115.54962 129.92234 122.73598
# Shear Modulus (GPa) = 75.16064 80.17460 77.66762
#
# Velocity S-wave (km/s) = 4.92703 5.08871 5.00852
# Velocity P-wave (km/s) = 8.34793 8.74582 8.54919
#
# Compressibility (1/GPa) = 0.00865429
#
# Stress axis : x y z
#
# Youngs Moduli (GPa) = 203.27657 172.06960 205.66903
#
# Poissons Ratio (x) = 0.27603 0.27282
# Poissons Ratio (y) = 0.32609 0.11081
# Poissons Ratio (z) = 0.26964 0.09271
#
# Static dielectric constant tensor:
#      x y z
#    x 3.062780 0.000000 -0.003890 
#    y 0.000000 2.402710 0.000000 
#    z -0.003890 0.000000 2.250810 
# 
# From -- ./inp_files/161132.got.cif
#   From: 2010.05.17/outbox.cif.g08.bks.cpg/sg15_81_cif.got.tgz:161132.got - 2010.06.03 18:47:42.
