data_PCOD9289705
_publ_section_title
;
Structure prediction by ZEFSAII (Michael W. Deem and Ramdas Pophale) SiO2 
 PCOD9289705
Probable space group: C 2/C
;
_chemical_formula_sum "Si O2"
_cell_formula_units_Z 56
_cell_length_a 17.700952
_cell_length_b 13.110026
_cell_length_c 12.739756
_cell_angle_alpha 90.000000
_cell_angle_beta 56.267437
_cell_angle_gamma 90.000000
_cell_volume 2458.645721
_symmetry_space_group_name_H-M "C 2/C"
_symmetry_group_IT_number 15
_symmetry_cell_setting 'monoclinic'
loop_
_space_group_symop_operation_xyz
x,y,z
-x,y,1/2-z
-x,-y,-z
x,-y,1/2+z
1/2+x,1/2+y,z
1/2-x,1/2+y,1/2-z
1/2-x,1/2-y,-z
1/2+x,1/2-y,1/2+z
loop_
_atom_site_type_symbol
_atom_site_label
_atom_site_fract_x
_atom_site_fract_y
_atom_site_fract_z
Si Si1 0.356684 0.461552 0.161204
Si Si2 0.703978 0.201947 0.746598
Si Si3 0.638526 0.371295 0.679316
Si Si4 0.967141 0.384669 0.039464
Si Si5 0.540196 0.676292 0.045178
Si Si6 0.786579 0.140194 0.070620
Si Si7 0.399034 0.797718 0.873984
O O1 0.286643 0.370986 0.201320
O O2 0.342861 0.518316 0.283743
O O3 0.329181 0.541770 0.091828
O O4 0.449643 0.401327 0.060570
O O5 0.710900 0.283082 0.647506
O O6 0.613245 0.132190 0.813449
O O7 0.704205 0.275476 0.846355
O O8 0.554500 0.338985 0.820504
O O9 0.609582 0.359911 0.581960
O O10 0.040280 0.294713 0.009289
O O11 0.921090 0.353859 0.965624
O O12 0.000000 0.500000 0.000000
O O13 0.679826 0.136531 0.123260
O O14 0.848394 0.189175 0.931222
O O15 0.500000 0.784383 0.750000
#
# Coordination Sequence:
#
# PCOD9289705 Si02
#       7
#     8   8   8   8   8   8   8
#     4  11  22  38  67  91 129 172 216 270 340 390
#     4   9  21  39  60  86 129 166 201 274 324 384
#     4   9  21  42  60  89 132 170 213 270 330 389
#     4  10  23  41  62  93 128 162 217 266 319 406
#     4  10  22  41  62  93 127 169 217 267 324 400
#     4   9  22  43  57  96 132 158 224 276 318 401
#     4  10  22  40  67  90 126 176 216 272 339 390
#
# _framework density 22.776765999999999
#
# number of rings (size 3 to 8) (size 9 to 14) (size 15 to 20)
#    0.000    2.286    0.000    1.286    4.000    6.286 
#    5.143    0.000    0.000    0.000    0.000    0.000 
#    0.000    0.000    0.000    0.000    0.000    0.000 
#
# Total GULP energy -156072.500043 kJ/mol
# GULP energy per Si atom -5574.017859 kJ/mol
# Density = 2.272493 g / cm^3
# Si number density = 22.776766 Si / 1000 Ang^3
#
#
#
# Elastic Constant Matrix: (Units=GPa)
#
#
# Indices 1 2 3 4 5 6 
#
# 1 108.5234 39.6996 21.3805 0.0000 13.2913 0.0000
# 2 39.6996 158.2583 29.0547 0.0000 3.2097 0.0000
# 3 21.3805 29.0547 35.6216 0.0000 -8.6568 0.0000
# 4 0.0000 0.0000 0.0000 17.8466 0.0000 -6.7414
# 5 13.2913 3.2097 -8.6568 0.0000 31.0376 0.0000
# 6 0.0000 0.0000 0.0000 -6.7414 0.0000 36.1278
#
#
#
# Elastic Compliance Matrix: (Units=1/GPa)
#
#
# Indices 1 2 3 4 5 6 
#
# 1 0.012196 -0.001462 -0.007895 0.000000 -0.007273 0.000000
# 2 -0.001462 0.007814 -0.005943 0.000000 -0.001839 0.000000
# 3 -0.007895 -0.005943 0.041438 0.000000 0.015553 0.000000
# 4 0.000000 0.000000 0.000000 0.060282 0.000000 0.011249
# 5 -0.007273 -0.001839 0.015553 0.000000 0.039862 0.000000
# 6 0.000000 0.000000 0.000000 0.011249 0.000000 0.029778
#
#
# Mechanical properties :
#
#
# Convention : Reuss Voigt Hill
#
# Bulk Modulus (GPa) = 32.41683 53.63033 43.02358
# Shear Modulus (GPa) = 21.52826 31.15365 26.34096
#
# Velocity S-wave (km/s) = 3.07772 3.70237 3.40440
# Velocity P-wave (km/s) = 5.18586 6.47100 5.86374
#
# Compressibility (1/GPa) = 0.03084818
#
# Stress axis : x y z
#
# Youngs Moduli (GPa) = 81.99580 127.97621 24.13231
#
# Poissons Ratio (x) = 0.18715 0.19052
# Poissons Ratio (y) = 0.11991 0.14341
# Poissons Ratio (z) = 0.64734 0.76052
#
# Static dielectric constant tensor:
#      x y z
#    x 1.929850 0.000000 -0.069350 
#    y 0.000000 1.903060 0.000000 
#    z -0.069350 0.000000 2.001060 
# 
# From -- ./inp_files/161233.got.cif
#   From: 2010.05.17/outbox.cif.g08.bks.cpg/sg15_81_cif.got.tgz:161233.got - 2010.06.03 18:47:42.
