data_PCOD9289265
_publ_section_title
;
Structure prediction by ZEFSAII (Michael W. Deem and Ramdas Pophale) SiO2 
 PCOD9289265
Probable space group: C 2/C
;
_chemical_formula_sum "Si O2"
_cell_formula_units_Z 56
_cell_length_a 21.540056
_cell_length_b 14.264544
_cell_length_c 16.947284
_cell_angle_alpha 90.000000
_cell_angle_beta 147.733999
_cell_angle_gamma 90.000000
_cell_volume 2779.870917
_symmetry_space_group_name_H-M "C 2/C"
_symmetry_group_IT_number 15
_symmetry_cell_setting 'monoclinic'
loop_
_space_group_symop_operation_xyz
x,y,z
-x,y,1/2-z
-x,-y,-z
x,-y,1/2+z
1/2+x,1/2+y,z
1/2-x,1/2+y,1/2-z
1/2-x,1/2-y,-z
1/2+x,1/2-y,1/2+z
loop_
_atom_site_type_symbol
_atom_site_label
_atom_site_fract_x
_atom_site_fract_y
_atom_site_fract_z
Si Si1 0.864265 0.595129 0.512499
Si Si2 0.101269 0.920699 0.751792
Si Si3 0.791762 0.335176 0.600969
Si Si4 0.554193 0.601689 0.882267
Si Si5 0.000000 0.553105 0.250000
Si Si6 0.500000 0.743321 0.250000
Si Si7 0.069403 0.189767 0.068565
Si Si8 0.671035 0.207006 0.175230
O O1 0.738426 0.565798 0.410512
O O2 0.848904 0.617587 0.403381
O O3 0.953565 0.513996 0.630476
O O4 0.911605 0.688810 0.607482
O O5 0.064616 0.826886 0.759355
O O6 0.083422 0.899262 0.640342
O O7 0.020653 0.007762 0.688021
O O8 0.750000 0.250000 0.500000
O O9 0.687655 0.410005 0.501681
O O10 0.821141 0.305331 0.722189
O O11 0.898262 0.383947 0.673873
O O12 0.500000 0.656147 0.750000
O O13 0.552161 0.659384 0.960101
O O14 0.197421 0.241000 0.209334
O O15 0.949111 0.236926 0.966381
#
# Coordination Sequence:
#
# PCOD9289265 Si02
#       8
#     8   8   8   8   4   4   8   8
#     4  10  23  43  63  99 131 170 218 278 328 397
#     4  11  21  39  65  94 131 169 221 266 333 387
#     4  11  26  44  67  96 130 177 219 274 336 402
#     4  11  22  39  64  94 127 167 223 268 321 391
#     4  11  26  44  67  96 138 166 223 278 336 387
#     4  11  20  38  67  90 134 172 217 264 334 401
#     4  10  22  40  62  97 127 174 218 277 327 393
#     4  10  22  42  66  93 134 172 227 265 337 404
#
# _framework density 20.144819999999999
#
# number of rings (size 3 to 8) (size 9 to 14) (size 15 to 20)
#    0.000    1.429    2.143    2.571    5.000    0.571 
#    2.571    0.000    0.000    0.000    0.000    0.000 
#    0.000    0.000    0.000    0.000    0.000    0.000 
#
# Total GULP energy -156096.506056 kJ/mol
# GULP energy per Si atom -5574.875216 kJ/mol
# Density = 2.009897 g / cm^3
# Si number density = 20.144820 Si / 1000 Ang^3
#
#
#
# Elastic Constant Matrix: (Units=GPa)
#
#
# Indices 1 2 3 4 5 6 
#
# 1 98.7860 32.6263 53.1331 0.0000 5.6024 0.0000
# 2 32.6263 77.1762 52.4437 0.0000 21.5080 0.0000
# 3 53.1331 52.4437 132.9805 0.0000 17.0837 0.0000
# 4 0.0000 0.0000 0.0000 24.0235 0.0000 16.4741
# 5 5.6024 21.5080 17.0837 0.0000 54.9410 0.0000
# 6 0.0000 0.0000 0.0000 16.4741 0.0000 21.2524
#
#
#
# Elastic Compliance Matrix: (Units=1/GPa)
#
#
# Indices 1 2 3 4 5 6 
#
# 1 0.013374 -0.003069 -0.004284 0.000000 0.001170 0.000000
# 2 -0.003069 0.019804 -0.005862 0.000000 -0.005617 0.000000
# 3 -0.004284 -0.005862 0.011658 0.000000 -0.000893 0.000000
# 4 0.000000 0.000000 0.000000 0.088862 0.000000 -0.068882
# 5 0.001170 -0.005617 -0.000893 0.000000 0.020559 0.000000
# 6 0.000000 0.000000 0.000000 -0.068882 0.000000 0.100449
#
#
# Mechanical properties :
#
#
# Convention : Reuss Voigt Hill
#
# Bulk Modulus (GPa) = 54.32936 65.03875 59.68406
# Shear Modulus (GPa) = 17.40521 31.42602 24.41561
#
# Velocity S-wave (km/s) = 2.94258 3.95397 3.48516
# Velocity P-wave (km/s) = 6.21072 7.29390 6.77399
#
# Compressibility (1/GPa) = 0.01840625
#
# Stress axis : x y z
#
# Youngs Moduli (GPa) = 74.77089 50.49563 85.77723
#
# Poissons Ratio (x) = 0.15497 0.36744
# Poissons Ratio (y) = 0.22947 0.50284
# Poissons Ratio (z) = 0.32029 0.29601
#
# Static dielectric constant tensor:
#      x y z
#    x 1.727040 0.000000 0.005040 
#    y 0.000000 1.695710 0.000000 
#    z 0.005040 0.000000 1.764830 
# 
# From -- ./inp_files/215742.got.cif
#   From: 2010.05.17/outbox.cif.g08.bks.cpg/sg15_108_cif.got.tgz:215742.got - 2010.06.03 18:47:42.
