data_PCOD9289175
_publ_section_title
;
Structure prediction by ZEFSAII (Michael W. Deem and Ramdas Pophale) SiO2 
 PCOD9289175
Probable space group: C 2/C
;
_chemical_formula_sum "Si O2"
_cell_formula_units_Z 40
_cell_length_a 5.361133
_cell_length_b 24.204015
_cell_length_c 14.318797
_cell_angle_alpha 90.000000
_cell_angle_beta 103.050743
_cell_angle_gamma 90.000000
_cell_volume 1810.028789
_symmetry_space_group_name_H-M "C 2/C"
_symmetry_group_IT_number 15
_symmetry_cell_setting 'monoclinic'
loop_
_space_group_symop_operation_xyz
x,y,z
-x,y,1/2-z
-x,-y,-z
x,-y,1/2+z
1/2+x,1/2+y,z
1/2-x,1/2+y,1/2-z
1/2-x,1/2-y,-z
1/2+x,1/2-y,1/2+z
loop_
_atom_site_type_symbol
_atom_site_label
_atom_site_fract_x
_atom_site_fract_y
_atom_site_fract_z
Si Si1 0.784434 0.789517 0.815052
Si Si2 0.219509 0.021153 0.446645
Si Si3 0.999885 0.678268 0.638071
Si Si4 0.336418 0.583129 0.649219
Si Si5 0.429428 0.637939 0.015479
O O1 0.500000 0.796653 0.750000
O O2 0.806751 0.728663 0.865281
O O3 0.000000 0.794130 0.750000
O O4 0.865582 0.833423 0.900226
O O5 0.201691 0.087066 0.438915
O O6 0.500000 0.000000 0.500000
O O7 0.170934 0.982662 0.352929
O O8 0.000000 0.000000 0.500000
O O9 0.067705 0.613735 0.631805
O O10 0.000000 0.682831 0.750000
O O11 0.761256 0.682615 0.547812
O O12 0.500000 0.603548 0.750000
O O13 0.448785 0.608258 0.564065
#
# Coordination Sequence:
#
# PCOD9289175 Si02
#       5
#     8   8   8   8   8
#     4  11  28  46  66 100 141 185 234 283 342 409
#     4  10  22  40  61  94 129 169 219 274 332 400
#     4  11  22  41  69 102 137 176 232 286 342 410
#     4  11  22  39  67 100 138 173 228 283 342 405
#     4  11  24  43  70  98 136 185 227 282 346 410
#
# _framework density 22.099097
#
# number of rings (size 3 to 8) (size 9 to 14) (size 15 to 20)
#    0.000    1.200    4.000    1.200    5.600    1.600 
#    0.000    0.000    0.000    0.000    0.000    0.000 
#    0.000    0.000    0.000    0.000    0.000    0.000 
#
# Total GULP energy -111372.208664 kJ/mol
# GULP energy per Si atom -5568.610433 kJ/mol
# Density = 2.204880 g / cm^3
# Si number density = 22.099097 Si / 1000 Ang^3
#
#
#
# Elastic Constant Matrix: (Units=GPa)
#
#
# Indices 1 2 3 4 5 6 
#
# 1 97.1886 24.2616 45.2718 0.0000 34.1721 0.0000
# 2 24.2616 132.1356 70.8497 0.0000 19.7404 0.0000
# 3 45.2718 70.8497 126.8802 0.0000 39.4330 0.0000
# 4 0.0000 0.0000 0.0000 46.6536 0.0000 6.4098
# 5 34.1721 19.7404 39.4330 0.0000 41.9821 0.0000
# 6 0.0000 0.0000 0.0000 6.4098 0.0000 26.6768
#
#
#
# Elastic Compliance Matrix: (Units=1/GPa)
#
#
# Indices 1 2 3 4 5 6 
#
# 1 0.014828 -0.000084 -0.002126 0.000000 -0.010034 0.000000
# 2 -0.000084 0.010823 -0.006289 0.000000 0.000886 0.000000
# 3 -0.002126 -0.006289 0.015104 0.000000 -0.009500 0.000000
# 4 0.000000 0.000000 0.000000 0.022166 0.000000 -0.005326
# 5 -0.010034 0.000886 -0.009500 0.000000 0.040493 0.000000
# 6 0.000000 0.000000 0.000000 -0.005326 0.000000 0.038766
#
#
# Mechanical properties :
#
#
# Convention : Reuss Voigt Hill
#
# Bulk Modulus (GPa) = 42.09087 70.77454 56.43271
# Shear Modulus (GPa) = 29.92273 37.45057 33.68665
#
# Velocity S-wave (km/s) = 3.68370 4.12110 3.90852
# Velocity P-wave (km/s) = 6.09759 7.39866 6.77941
#
# Compressibility (1/GPa) = 0.02375812
#
# Stress axis : x y z
#
# Youngs Moduli (GPa) = 67.43869 92.39450 66.20706
#
# Poissons Ratio (x) = 0.00775 0.14073
# Poissons Ratio (y) = 0.00566 0.41639
# Poissons Ratio (z) = 0.14335 0.58109
#
# Static dielectric constant tensor:
#      x y z
#    x 1.939450 0.000000 0.006670 
#    y 0.000000 1.895880 0.000000 
#    z 0.006670 0.000000 1.838520 
# 
# From -- ./inp_files/73187.got.cif
#   From: 2010.05.17/outbox.cif.g08.bks.cpg/sg15_37_cif.got.tgz:73187.got - 2010.06.03 18:47:42.
