data_PCOD9289684
_publ_section_title
;
Structure prediction by ZEFSAII (Michael W. Deem and Ramdas Pophale) SiO2 
 PCOD9289684
Probable space group: C 2/C
;
_chemical_formula_sum "Si O2"
_cell_formula_units_Z 52
_cell_length_a 11.555687
_cell_length_b 25.228245
_cell_length_c 9.377087
_cell_angle_alpha 90.000000
_cell_angle_beta 119.382915
_cell_angle_gamma 90.000000
_cell_volume 2382.036720
_symmetry_space_group_name_H-M "C 2/C"
_symmetry_group_IT_number 15
_symmetry_cell_setting 'monoclinic'
loop_
_space_group_symop_operation_xyz
x,y,z
-x,y,1/2-z
-x,-y,-z
x,-y,1/2+z
1/2+x,1/2+y,z
1/2-x,1/2+y,1/2-z
1/2-x,1/2-y,-z
1/2+x,1/2-y,1/2+z
loop_
_atom_site_type_symbol
_atom_site_label
_atom_site_fract_x
_atom_site_fract_y
_atom_site_fract_z
Si Si1 0.145637 0.187834 0.704443
Si Si2 0.270220 0.660783 0.438875
Si Si3 0.500000 0.781510 0.750000
Si Si4 0.640013 0.735553 0.256088
Si Si5 0.367148 0.050499 0.579432
Si Si6 0.867608 0.865465 0.577888
Si Si7 0.861691 0.557422 0.239305
O O1 0.064215 0.242234 0.673430
O O2 0.285690 0.209847 0.729884
O O3 0.086690 0.148923 0.553122
O O4 0.160744 0.160575 0.866306
O O5 0.341442 0.703583 0.380915
O O6 0.244505 0.604499 0.347440
O O7 0.122684 0.684434 0.378233
O O8 0.500000 0.745664 0.250000
O O9 0.694578 0.688702 0.392818
O O10 0.500000 0.066717 0.750000
O O11 0.245851 0.091395 0.508009
O O12 0.390283 0.045100 0.422800
O O13 0.324653 0.995649 0.630136
O O14 0.000000 0.878517 0.750000
O O15 0.000000 0.574643 0.250000
#
# Coordination Sequence:
#
# PCOD9289684 Si02
#       7
#     8   8   4   8   8   8   8
#     4  11  26  40  69  99 134 198 234 280 349 428
#     4  11  23  42  71  99 137 185 236 293 351 420
#     4  10  22  40  66  98 140 172 238 286 348 410
#     4  10  22  44  65  98 145 186 230 292 347 420
#     4  11  25  45  77 104 138 179 239 296 363 420
#     4  11  26  45  68  98 147 182 229 289 352 419
#     4  11  23  44  71 105 136 176 235 308 354 414
#
# _framework density 21.830058999999999
#
# number of rings (size 3 to 8) (size 9 to 14) (size 15 to 20)
#    0.000    1.231    2.308    4.154   12.923    0.615 
#    0.000    0.769    1.692    0.000    0.000    0.000 
#    0.000    0.000    0.000    0.000    0.000    0.000 
#
# Total GULP energy -145095.443657 kJ/mol
# GULP energy per Si atom -5580.593987 kJ/mol
# Density = 2.178037 g / cm^3
# Si number density = 21.830059 Si / 1000 Ang^3
#
#
#
# Elastic Constant Matrix: (Units=GPa)
#
#
# Indices 1 2 3 4 5 6 
#
# 1 92.8625 18.6588 46.9344 0.0000 -9.7672 0.0000
# 2 18.6588 55.0922 61.1800 0.0000 -4.2432 0.0000
# 3 46.9344 61.1800 211.9203 0.0000 -15.9005 0.0000
# 4 0.0000 0.0000 0.0000 2.6521 0.0000 -7.7181
# 5 -9.7672 -4.2432 -15.9005 0.0000 24.3702 0.0000
# 6 0.0000 0.0000 0.0000 -7.7181 0.0000 35.9247
#
#
#
# Elastic Compliance Matrix: (Units=1/GPa)
#
#
# Indices 1 2 3 4 5 6 
#
# 1 0.012490 -0.001736 -0.002010 0.000000 0.003392 0.000000
# 2 -0.001736 0.026962 -0.007464 0.000000 -0.000872 0.000000
# 3 -0.002010 -0.007464 0.007530 0.000000 0.002807 0.000000
# 4 0.000000 0.000000 0.000000 1.006148 0.000000 0.216163
# 5 0.003392 -0.000872 0.002807 0.000000 0.044073 0.000000
# 6 0.000000 0.000000 0.000000 0.216163 0.000000 0.074277
#
#
# Mechanical properties :
#
#
# Convention : Reuss Voigt Hill
#
# Bulk Modulus (GPa) = 40.71843 68.15792 54.43818
# Shear Modulus (GPa) = 4.15943 28.12952 16.14447
#
# Velocity S-wave (km/s) = 1.38185 3.59356 2.72242
# Velocity P-wave (km/s) = 4.60857 6.96477 5.90538
#
# Compressibility (1/GPa) = 0.02455890
#
# Stress axis : x y z
#
# Youngs Moduli (GPa) = 80.06150 37.08974 132.80905
#
# Poissons Ratio (x) = 0.06440 0.26701
# Poissons Ratio (y) = 0.13902 0.99135
# Poissons Ratio (z) = 0.16096 0.27686
#
# Static dielectric constant tensor:
#      x y z
#    x 1.877630 0.000000 0.015850 
#    y 0.000000 1.785050 0.000000 
#    z 0.015850 0.000000 1.883770 
# 
# From -- ./inp_files/34420.got.cif
#   From: 2010.05.17/outbox.cif.g08.bks.cpg/sg15_18_cif.got.tgz:34420.got - 2010.06.03 18:47:42.
