data_PCOD9289304
_publ_section_title
;
Structure prediction by ZEFSAII (Michael W. Deem and Ramdas Pophale) SiO2 
 PCOD9289304
Probable space group: C 2/C
;
_chemical_formula_sum "Si O2"
_cell_formula_units_Z 60
_cell_length_a 6.127001
_cell_length_b 27.532148
_cell_length_c 17.135416
_cell_angle_alpha 90.000000
_cell_angle_beta 85.278896
_cell_angle_gamma 90.000000
_cell_volume 2880.757443
_symmetry_space_group_name_H-M "C 2/C"
_symmetry_group_IT_number 15
_symmetry_cell_setting 'monoclinic'
loop_
_space_group_symop_operation_xyz
x,y,z
-x,y,1/2-z
-x,-y,-z
x,-y,1/2+z
1/2+x,1/2+y,z
1/2-x,1/2+y,1/2-z
1/2-x,1/2-y,-z
1/2+x,1/2-y,1/2+z
loop_
_atom_site_type_symbol
_atom_site_label
_atom_site_fract_x
_atom_site_fract_y
_atom_site_fract_z
Si Si1 0.968984 0.572539 0.570502
Si Si2 0.613574 0.408069 0.822370
Si Si3 0.107384 0.862963 0.160514
Si Si4 0.752064 0.163043 0.543622
Si Si5 0.438004 0.780313 0.165330
Si Si6 0.217578 0.987174 0.946204
Si Si7 0.000000 0.339757 0.750000
Si Si8 0.344413 0.315187 0.867985
O O1 0.794545 0.596350 0.636313
O O2 0.854502 0.542822 0.505635
O O3 0.089420 0.618825 0.530284
O O4 0.153522 0.533900 0.592032
O O5 0.500000 0.430425 0.750000
O O6 0.665170 0.449856 0.880115
O O7 0.824850 0.375440 0.796151
O O8 0.435156 0.369469 0.857173
O O9 0.217385 0.809185 0.154453
O O10 0.000000 0.869816 0.250000
O O11 0.941822 0.860617 0.091892
O O12 0.623805 0.199976 0.602653
O O13 0.803634 0.189311 0.461183
O O14 0.500000 0.796245 0.250000
O O15 0.462881 0.722505 0.160367
O O16 0.000000 0.000000 0.000000
O O17 0.860649 0.310795 0.686835
#
# Coordination Sequence:
#
# PCOD9289304 Si02
#       8
#     8   8   8   8   8   8   4   8
#     4  10  23  39  67  96 124 172 224 267 329 403
#     4  10  22  40  63  92 129 166 210 267 331 395
#     4  11  23  43  66  92 136 180 214 273 334 384
#     4  11  23  42  66  94 132 176 215 281 327 394
#     4  11  23  41  63  98 131 172 224 267 325 403
#     4  11  22  43  67  95 129 168 216 279 334 392
#     4  10  22  42  66  90 132 172 200 278 332 382
#     4  11  23  40  66 100 128 169 225 265 333 398
#
# _framework density 20.827855
#
# number of rings (size 3 to 8) (size 9 to 14) (size 15 to 20)
#    0.000    1.333    1.333    4.800    0.000    6.933 
#    1.200    6.667    0.000    0.000    0.000    0.000 
#    0.000    0.000    0.000    0.000    0.000    0.000 
#
# Total GULP energy -167400.122206 kJ/mol
# GULP energy per Si atom -5580.004074 kJ/mol
# Density = 2.078045 g / cm^3
# Si number density = 20.827855 Si / 1000 Ang^3
#
#
#
# Elastic Constant Matrix: (Units=GPa)
#
#
# Indices 1 2 3 4 5 6 
#
# 1 80.1414 31.4943 49.4850 0.0000 -4.7807 0.0000
# 2 31.4943 101.5579 36.5642 0.0000 0.5008 0.0000
# 3 49.4850 36.5642 136.5730 0.0000 -8.7655 0.0000
# 4 0.0000 0.0000 0.0000 27.8293 0.0000 6.2023
# 5 -4.7807 0.5008 -8.7655 0.0000 24.5064 0.0000
# 6 0.0000 0.0000 0.0000 6.2023 0.0000 15.0550
#
#
#
# Elastic Compliance Matrix: (Units=1/GPa)
#
#
# Indices 1 2 3 4 5 6 
#
# 1 0.017127 -0.003454 -0.005181 0.000000 0.001559 0.000000
# 2 -0.003454 0.011634 -0.001967 0.000000 -0.001615 0.000000
# 3 -0.005181 -0.001967 0.009891 0.000000 0.002567 0.000000
# 4 0.000000 0.000000 0.000000 0.039566 0.000000 -0.016300
# 5 0.001559 -0.001615 0.002567 0.000000 0.042061 0.000000
# 6 0.000000 0.000000 0.000000 -0.016300 0.000000 0.073138
#
#
# Mechanical properties :
#
#
# Convention : Reuss Voigt Hill
#
# Bulk Modulus (GPa) = 57.31202 61.48436 59.39819
# Shear Modulus (GPa) = 22.68220 26.86005 24.77112
#
# Velocity S-wave (km/s) = 3.30363 3.59503 3.45240
# Velocity P-wave (km/s) = 6.49066 6.84227 6.66878
#
# Compressibility (1/GPa) = 0.01744835
#
# Stress axis : x y z
#
# Youngs Moduli (GPa) = 58.38613 85.95674 101.10447
#
# Poissons Ratio (x) = 0.29687 0.52384
# Poissons Ratio (y) = 0.20165 0.19887
# Poissons Ratio (z) = 0.30251 0.16907
#
# Static dielectric constant tensor:
#      x y z
#    x 1.798610 0.000000 0.007440 
#    y 0.000000 1.764100 0.000000 
#    z 0.007440 0.000000 1.833620 
# 
# From -- ./inp_files/186523.got.cif
#   From: 2010.05.17/outbox.cif.g08.bks.cpg/sg15_94_cif.got.tgz:186523.got - 2010.06.03 18:47:42.
