data_PCOD9289519
_publ_section_title
;
Structure prediction by ZEFSAII (Michael W. Deem and Ramdas Pophale) SiO2 
 PCOD9289519
Probable space group: C 2/C
;
_chemical_formula_sum "Si O2"
_cell_formula_units_Z 32
_cell_length_a 5.063519
_cell_length_b 19.449519
_cell_length_c 15.046129
_cell_angle_alpha 90.000000
_cell_angle_beta 62.642416
_cell_angle_gamma 90.000000
_cell_volume 1316.058698
_symmetry_space_group_name_H-M "C 2/C"
_symmetry_group_IT_number 15
_symmetry_cell_setting 'monoclinic'
loop_
_space_group_symop_operation_xyz
x,y,z
-x,y,1/2-z
-x,-y,-z
x,-y,1/2+z
1/2+x,1/2+y,z
1/2-x,1/2+y,1/2-z
1/2-x,1/2-y,-z
1/2+x,1/2-y,1/2+z
loop_
_atom_site_type_symbol
_atom_site_label
_atom_site_fract_x
_atom_site_fract_y
_atom_site_fract_z
Si Si1 0.125178 0.665800 0.953437
Si Si2 0.850700 0.049419 0.178568
Si Si3 0.270501 0.809025 0.865186
Si Si4 0.753538 0.404951 0.366506
O O1 0.090050 0.739919 0.912476
O O2 0.475506 0.645454 0.893934
O O3 0.932663 0.612057 0.927967
O O4 0.067163 0.672805 0.067195
O O5 0.500000 0.054760 0.250000
O O6 0.922936 0.123931 0.128389
O O7 0.000000 0.037533 0.250000
O O8 0.883697 0.981535 0.114778
O O9 0.500000 0.796146 0.750000
O O10 0.000000 0.399382 0.250000
#
# Coordination Sequence:
#
# PCOD9289519 Si02
#       4
#     8   8   8   8
#     4  11  25  41  68  98 124 174 219 257 324 382
#     4  10  22  40  65  94 128 171 210 259 325 376
#     4  10  24  44  65  95 135 168 213 269 320 382
#     4  11  22  42  66  95 132 167 215 266 311 377
#
# _framework density 24.315026
#
# number of rings (size 3 to 8) (size 9 to 14) (size 15 to 20)
#    0.000    1.500    0.000    5.250    0.000   15.000 
#    0.000    0.000    0.000    0.000    0.000    0.000 
#    0.000    0.000    0.000    0.000    0.000    0.000 
#
# Total GULP energy -89614.332868 kJ/mol
# GULP energy per Si atom -5600.895804 kJ/mol
# Density = 2.425968 g / cm^3
# Si number density = 24.315026 Si / 1000 Ang^3
#
#
#
# Elastic Constant Matrix: (Units=GPa)
#
#
# Indices 1 2 3 4 5 6 
#
# 1 131.2535 25.5944 40.6095 0.0000 7.7088 0.0000
# 2 25.5944 132.8269 34.8294 0.0000 19.7928 0.0000
# 3 40.6095 34.8294 175.4178 0.0000 7.2199 0.0000
# 4 0.0000 0.0000 0.0000 13.5124 0.0000 31.3027
# 5 7.7088 19.7928 7.2199 0.0000 39.1951 0.0000
# 6 0.0000 0.0000 0.0000 31.3027 0.0000 20.0587
#
#
#
# Elastic Compliance Matrix: (Units=1/GPa)
#
#
# Indices 1 2 3 4 5 6 
#
# 1 0.008398 -0.001052 -0.001702 0.000000 -0.000807 0.000000
# 2 -0.001052 0.008661 -0.001315 0.000000 -0.003925 0.000000
# 3 -0.001702 -0.001315 0.006363 0.000000 -0.000173 0.000000
# 4 0.000000 0.000000 0.000000 -0.028299 0.000000 0.044162
# 5 -0.000807 -0.003925 -0.000173 0.000000 0.027686 0.000000
# 6 0.000000 0.000000 0.000000 0.044162 0.000000 -0.019063
#
#
# Mechanical properties :
#
#
# Convention : Reuss Voigt Hill
#
# Bulk Modulus (GPa) = 65.42423 71.28499 68.35461
# Shear Modulus (GPa) = 294.51975 37.11758 165.81866
#
# Velocity S-wave (km/s) = 11.01769 3.91132 8.26704
# Velocity P-wave (km/s) = 13.74111 7.05541 10.92238
#
# Compressibility (1/GPa) = 0.01528486
#
# Stress axis : x y z
#
# Youngs Moduli (GPa) = 119.07684 115.46353 157.16160
#
# Poissons Ratio (x) = 0.12142 0.26751
# Poissons Ratio (y) = 0.12522 0.20661
# Poissons Ratio (z) = 0.20268 0.15179
#
# Static dielectric constant tensor:
#      x y z
#    x 1.867520 0.000000 -0.035110 
#    y 0.000000 2.002730 0.000000 
#    z -0.035110 0.000000 1.943570 
# 
# From -- ./inp_files/128291.got.cif
#   From: 2010.05.17/outbox.cif.g08.bks.cpg/sg15_65_cif.got.tgz:128291.got - 2010.06.03 18:47:42.
