data_PCOD9289855
_publ_section_title
;
Structure prediction by ZEFSAII (Michael W. Deem and Ramdas Pophale) SiO2 
 PCOD9289855
Probable space group: C 2/C
;
_chemical_formula_sum "Si O2"
_cell_formula_units_Z 44
_cell_length_a 6.593362
_cell_length_b 8.288345
_cell_length_c 27.579711
_cell_angle_alpha 90.000000
_cell_angle_beta 86.809691
_cell_angle_gamma 90.000000
_cell_volume 1504.841836
_symmetry_space_group_name_H-M "C 2/C"
_symmetry_group_IT_number 15
_symmetry_cell_setting 'monoclinic'
loop_
_space_group_symop_operation_xyz
x,y,z
-x,y,1/2-z
-x,-y,-z
x,-y,1/2+z
1/2+x,1/2+y,z
1/2-x,1/2+y,1/2-z
1/2-x,1/2-y,-z
1/2+x,1/2-y,1/2+z
loop_
_atom_site_type_symbol
_atom_site_label
_atom_site_fract_x
_atom_site_fract_y
_atom_site_fract_z
Si Si1 0.232108 0.337374 0.410921
Si Si2 0.791834 0.385009 0.458587
Si Si3 0.214781 0.823383 0.266229
Si Si4 0.293130 0.968175 0.675819
Si Si5 0.250000 0.250000 0.500000
Si Si6 0.743399 0.523846 0.357748
O O1 0.304782 0.470111 0.372628
O O2 0.392726 0.291637 0.449477
O O3 0.046294 0.367610 0.451737
O O4 0.159477 0.191264 0.378671
O O5 0.750000 0.250000 0.500000
O O6 0.721453 0.560774 0.477811
O O7 0.748562 0.392569 0.400886
O O8 0.314801 0.897843 0.217596
O O9 0.309800 0.679843 0.295626
O O10 0.169729 0.958048 0.307349
O O11 0.000000 0.757377 0.250000
O O12 0.519721 0.930353 0.654982
#
# Coordination Sequence:
#
# PCOD9289855 Si02
#       6
#     8   8   8   8   4   8
#     4  10  22  45  67  99 136 182 232 290 354 416
#     4  10  23  43  67 104 138 189 231 285 355 421
#     4  12  25  42  68 101 132 182 230 290 356 425
#     4  11  24  44  67  96 140 177 232 284 360 425
#     4  10  22  40  68  98 142 180 234 290 340 414
#     4  10  24  46  67  98 140 178 233 292 344 432
#
# _framework density 29.238954
#
# number of rings (size 3 to 8) (size 9 to 14) (size 15 to 20)
#    0.000    1.455    0.000    4.364    2.545    7.273 
#   13.091    0.909    0.000    0.000    0.000    0.000 
#    0.000    0.000    0.000    0.000    0.000    0.000 
#
# Total GULP energy -122853.563367 kJ/mol
# GULP energy per Si atom -5584.252880 kJ/mol
# Density = 2.917241 g / cm^3
# Si number density = 29.238954 Si / 1000 Ang^3
#
#
#
# Elastic Constant Matrix: (Units=GPa)
#
#
# Indices 1 2 3 4 5 6 
#
# 1 50.6928 9.3110 31.2271 0.0000 -3.1186 0.0000
# 2 9.3110 165.6387 91.4944 0.0000 -6.5410 0.0000
# 3 31.2271 91.4944 256.0706 0.0000 14.9552 0.0000
# 4 0.0000 0.0000 0.0000 81.5001 0.0000 3.3979
# 5 -3.1186 -6.5410 14.9552 0.0000 57.0901 0.0000
# 6 0.0000 0.0000 0.0000 3.3979 0.0000 21.3023
#
#
#
# Elastic Compliance Matrix: (Units=1/GPa)
#
#
# Indices 1 2 3 4 5 6 
#
# 1 0.021558 0.000478 -0.002916 0.000000 0.001996 0.000000
# 2 0.000478 0.007677 -0.002899 0.000000 0.001665 0.000000
# 3 -0.002916 -0.002899 0.005408 0.000000 -0.001908 0.000000
# 4 0.000000 0.000000 0.000000 0.012352 0.000000 -0.001970
# 5 0.001996 0.001665 -0.001908 0.000000 0.018316 0.000000
# 6 0.000000 0.000000 0.000000 -0.001970 0.000000 0.047257
#
#
# Mechanical properties :
#
#
# Convention : Reuss Voigt Hill
#
# Bulk Modulus (GPa) = 41.72011 81.82969 61.77490
# Shear Modulus (GPa) = 38.10032 54.66981 46.38506
#
# Velocity S-wave (km/s) = 3.61372 4.32876 3.98730
# Velocity P-wave (km/s) = 5.63131 7.28228 6.50934
#
# Compressibility (1/GPa) = 0.02396925
#
# Stress axis : x y z
#
# Youngs Moduli (GPa) = 46.38616 130.25520 184.91402
#
# Poissons Ratio (x) = -0.06225 0.53926
# Poissons Ratio (y) = -0.02217 0.53599
# Poissons Ratio (z) = 0.13528 0.37756
#
# Static dielectric constant tensor:
#      x y z
#    x 1.968840 0.000000 -0.344510 
#    y 0.000000 2.237700 0.000000 
#    z -0.344510 0.000000 1.943400 
# 
# From -- ./inp_files/306471.got.cif
#   From: 2010.05.17/outbox.cif.g08.bks.cpg/sg15_154_cif.got.tgz:306471.got - 2010.06.03 18:47:42.
