data_PCOD9289887
_publ_section_title
;
Structure prediction by ZEFSAII (Michael W. Deem and Ramdas Pophale) SiO2 
 PCOD9289887
Probable space group: C 2/C
;
_chemical_formula_sum "Si O2"
_cell_formula_units_Z 44
_cell_length_a 7.915745
_cell_length_b 17.627478
_cell_length_c 15.140638
_cell_angle_alpha 90.000000
_cell_angle_beta 118.570239
_cell_angle_gamma 90.000000
_cell_volume 1855.389797
_symmetry_space_group_name_H-M "C 2/C"
_symmetry_group_IT_number 15
_symmetry_cell_setting 'monoclinic'
loop_
_space_group_symop_operation_xyz
x,y,z
-x,y,1/2-z
-x,-y,-z
x,-y,1/2+z
1/2+x,1/2+y,z
1/2-x,1/2+y,1/2-z
1/2-x,1/2-y,-z
1/2+x,1/2-y,1/2+z
loop_
_atom_site_type_symbol
_atom_site_label
_atom_site_fract_x
_atom_site_fract_y
_atom_site_fract_z
Si Si1 0.058608 0.565877 0.857956
Si Si2 0.201488 0.411190 0.929442
Si Si3 0.155332 0.246227 0.109911
Si Si4 0.668351 0.407005 0.358467
Si Si5 0.000000 0.794287 0.750000
Si Si6 0.653066 0.845914 0.547078
O O1 0.158111 0.485797 0.863499
O O2 0.000000 0.601088 0.750000
O O3 0.860047 0.558451 0.862919
O O4 0.182079 0.613428 0.959682
O O5 0.268384 0.336208 0.895869
O O6 0.004156 0.389279 0.931909
O O7 0.347889 0.432968 0.044934
O O8 0.298860 0.315646 0.125193
O O9 0.117254 0.249875 0.204521
O O10 0.960250 0.268389 0.008250
O O11 0.500000 0.424058 0.250000
O O12 0.844658 0.838342 0.651490
#
# Coordination Sequence:
#
# PCOD9289887 Si02
#       6
#     8   8   8   8   4   8
#     4  10  23  44  68  92 139 183 222 280 339 410
#     4  10  22  45  64  98 132 179 232 279 342 406
#     4  10  24  40  69  97 134 178 226 291 330 415
#     4  10  22  40  69  96 132 174 231 278 342 407
#     4  12  26  38  68 100 142 168 228 288 338 400
#     4  10  23  44  65  99 138 176 228 276 352 394
#
# _framework density 23.714690999999998
#
# number of rings (size 3 to 8) (size 9 to 14) (size 15 to 20)
#    0.000    2.182    0.000    4.909   12.727    1.455 
#    6.545    1.818    0.000    0.000    0.000    0.000 
#    0.000    0.000    0.000    0.000    0.000    0.000 
#
# Total GULP energy -122934.199824 kJ/mol
# GULP energy per Si atom -5587.918174 kJ/mol
# Density = 2.366072 g / cm^3
# Si number density = 23.714691 Si / 1000 Ang^3
#
#
#
# Elastic Constant Matrix: (Units=GPa)
#
#
# Indices 1 2 3 4 5 6 
#
# 1 29.4495 28.1303 28.7035 0.0000 -5.8628 0.0000
# 2 28.1303 116.2707 44.5543 0.0000 4.4976 0.0000
# 3 28.7035 44.5543 185.6298 0.0000 10.1568 0.0000
# 4 0.0000 0.0000 0.0000 21.6480 0.0000 1.5764
# 5 -5.8628 4.4976 10.1568 0.0000 46.1097 0.0000
# 6 0.0000 0.0000 0.0000 1.5764 0.0000 14.2892
#
#
#
# Elastic Compliance Matrix: (Units=1/GPa)
#
#
# Indices 1 2 3 4 5 6 
#
# 1 0.051587 -0.010552 -0.005931 0.000000 0.008895 0.000000
# 2 -0.010552 0.011639 -0.001039 0.000000 -0.002248 0.000000
# 3 -0.005931 -0.001039 0.006670 0.000000 -0.002122 0.000000
# 4 0.000000 0.000000 0.000000 0.046568 0.000000 -0.005137
# 5 0.008895 -0.002248 -0.002122 0.000000 0.023505 0.000000
# 6 0.000000 0.000000 0.000000 -0.005137 0.000000 0.070550
#
#
# Mechanical properties :
#
#
# Convention : Reuss Voigt Hill
#
# Bulk Modulus (GPa) = 28.69296 59.34736 44.02016
# Shear Modulus (GPa) = 19.44168 31.74018 25.59093
#
# Velocity S-wave (km/s) = 2.86635 3.66241 3.28856
# Velocity P-wave (km/s) = 4.80418 6.55471 5.74649
#
# Compressibility (1/GPa) = 0.03485175
#
# Stress axis : x y z
#
# Youngs Moduli (GPa) = 19.38458 85.92054 149.93507
#
# Poissons Ratio (x) = 0.90667 0.88923
# Poissons Ratio (y) = 0.20455 0.15575
# Poissons Ratio (z) = 0.11497 0.08925
#
# Static dielectric constant tensor:
#      x y z
#    x 1.921930 0.000000 0.023720 
#    y 0.000000 1.931020 0.000000 
#    z 0.023720 0.000000 1.897830 
# 
# From -- ./inp_files/134941.got.cif
#   From: 2010.05.17/outbox.cif.g08.bks.cpg/sg15_68_cif.got.tgz:134941.got - 2010.06.03 18:47:42.
