data_PCOD9289949
_publ_section_title
;
Structure prediction by ZEFSAII (Michael W. Deem and Ramdas Pophale) SiO2 
 PCOD9289949
Probable space group: C 2/C
;
_chemical_formula_sum "Si O2"
_cell_formula_units_Z 56
_cell_length_a 15.839026
_cell_length_b 5.010673
_cell_length_c 30.260303
_cell_angle_alpha 90.000000
_cell_angle_beta 98.712874
_cell_angle_gamma 90.000000
_cell_volume 2373.869550
_symmetry_space_group_name_H-M "C 2/C"
_symmetry_group_IT_number 15
_symmetry_cell_setting 'monoclinic'
loop_
_space_group_symop_operation_xyz
x,y,z
-x,y,1/2-z
-x,-y,-z
x,-y,1/2+z
1/2+x,1/2+y,z
1/2-x,1/2+y,1/2-z
1/2-x,1/2-y,-z
1/2+x,1/2-y,1/2+z
loop_
_atom_site_type_symbol
_atom_site_label
_atom_site_fract_x
_atom_site_fract_y
_atom_site_fract_z
Si Si1 0.710551 0.000908 0.523396
Si Si2 0.000000 0.594753 0.750000
Si Si3 0.406729 0.932147 0.825664
Si Si4 0.446255 0.899023 0.095905
Si Si5 0.500000 0.000000 0.500000
Si Si6 0.802370 0.052605 0.302384
Si Si7 0.340170 0.639141 0.203863
Si Si8 0.836947 0.101272 0.608979
O O1 0.750000 0.750000 0.500000
O O2 0.607952 0.999701 0.515897
O O3 0.751476 0.024110 0.575624
O O4 0.750000 0.250000 0.500000
O O5 0.945162 0.425252 0.779447
O O6 0.938292 0.779849 0.716626
O O7 0.331586 0.151624 0.817298
O O8 0.479783 0.027781 0.863939
O O9 0.369421 0.643090 0.831840
O O10 0.368235 0.102166 0.099840
O O11 0.483694 0.943247 0.050578
O O12 0.410532 0.600806 0.097629
O O13 0.713022 0.913518 0.306359
O O14 0.813073 0.028504 0.249862
O O15 0.331144 0.456396 0.160441
#
# Coordination Sequence:
#
# PCOD9289949 Si02
#       8
#     8   4   8   8   4   8   8   8
#     4  12  26  53  77 116 152 198 258 322 398 472
#     4  10  22  40  70  96 138 184 242 292 366 420
#     4  11  25  45  68 107 140 191 244 308 359 458
#     4  12  27  48  75 112 148 195 262 313 397 450
#     4  12  28  52  84 110 158 208 252 340 388 472
#     4  11  26  45  68 101 153 192 253 292 378 445
#     4  11  25  46  70 106 144 206 239 314 366 449
#     4  12  26  49  75 109 151 195 258 320 377 469
#
# _framework density 23.590174999999999
#
# number of rings (size 3 to 8) (size 9 to 14) (size 15 to 20)
#    0.000    0.571    4.286    2.571    6.000    5.143 
#    2.571    0.000    0.000    0.000    0.000    0.000 
#    0.000    0.000    0.000    0.000    0.000    0.000 
#
# Total GULP energy -156320.147537 kJ/mol
# GULP energy per Si atom -5582.862412 kJ/mol
# Density = 2.353648 g / cm^3
# Si number density = 23.590175 Si / 1000 Ang^3
#
#
#
# Elastic Constant Matrix: (Units=GPa)
#
#
# Indices 1 2 3 4 5 6 
#
# 1 141.0440 1.8591 11.0503 0.0000 10.1903 0.0000
# 2 1.8591 71.8815 -13.8834 0.0000 -18.7204 0.0000
# 3 11.0503 -13.8834 80.3077 0.0000 -1.2301 0.0000
# 4 0.0000 0.0000 0.0000 12.2521 0.0000 11.3611
# 5 10.1903 -18.7204 -1.2301 0.0000 56.7747 0.0000
# 6 0.0000 0.0000 0.0000 11.3611 0.0000 17.6304
#
#
#
# Elastic Compliance Matrix: (Units=1/GPa)
#
#
# Indices 1 2 3 4 5 6 
#
# 1 0.007310 -0.000836 -0.001175 0.000000 -0.001613 0.000000
# 2 -0.000836 0.015927 0.002952 0.000000 0.005466 0.000000
# 3 -0.001175 0.002952 0.013147 0.000000 0.001469 0.000000
# 4 0.000000 0.000000 0.000000 0.202798 0.000000 -0.130683
# 5 -0.001613 0.005466 0.001469 0.000000 0.019737 0.000000
# 6 0.000000 0.000000 0.000000 -0.130683 0.000000 0.140932
#
#
# Mechanical properties :
#
#
# Convention : Reuss Voigt Hill
#
# Bulk Modulus (GPa) = 26.13327 32.36502 29.24914
# Shear Modulus (GPa) = 12.17361 36.94526 24.55944
#
# Velocity S-wave (km/s) = 2.27413 3.96173 3.23009
# Velocity P-wave (km/s) = 4.24236 5.88868 5.13197
#
# Compressibility (1/GPa) = 0.03826540
#
# Stress axis : x y z
#
# Youngs Moduli (GPa) = 136.80606 62.78622 76.06495
#
# Poissons Ratio (x) = 0.05250 0.08938
# Poissons Ratio (y) = 0.11439 -0.22456
# Poissons Ratio (z) = 0.16075 -0.18536
#
# Static dielectric constant tensor:
#      x y z
#    x 1.927150 0.000000 0.008550 
#    y 0.000000 2.031920 0.000000 
#    z 0.008550 0.000000 1.875730 
# 
# From -- ./inp_files/312381.got.cif
#   From: 2010.05.17/outbox.cif.g08.bks.cpg/sg15_157_cif.got.tgz:312381.got - 2010.06.03 18:47:42.
