data_PCOD9289313
_publ_section_title
;
Structure prediction by ZEFSAII (Michael W. Deem and Ramdas Pophale) SiO2 
 PCOD9289313
Probable space group: C 2/C
;
_chemical_formula_sum "Si O2"
_cell_formula_units_Z 48
_cell_length_a 11.215771
_cell_length_b 12.179566
_cell_length_c 22.258893
_cell_angle_alpha 90.000000
_cell_angle_beta 143.424408
_cell_angle_gamma 90.000000
_cell_volume 1811.863070
_symmetry_space_group_name_H-M "C 2/C"
_symmetry_group_IT_number 15
_symmetry_cell_setting 'monoclinic'
loop_
_space_group_symop_operation_xyz
x,y,z
-x,y,1/2-z
-x,-y,-z
x,-y,1/2+z
1/2+x,1/2+y,z
1/2-x,1/2+y,1/2-z
1/2-x,1/2-y,-z
1/2+x,1/2-y,1/2+z
loop_
_atom_site_type_symbol
_atom_site_label
_atom_site_fract_x
_atom_site_fract_y
_atom_site_fract_z
Si Si1 0.257739 0.619511 0.498993
Si Si2 0.281617 0.047833 0.890998
Si Si3 0.235888 0.439030 0.859729
Si Si4 0.672162 0.848935 0.653914
Si Si5 0.113157 0.254066 0.152726
Si Si6 0.679958 0.190818 0.865283
O O1 0.250000 0.750000 0.500000
O O2 0.331179 0.570818 0.591722
O O3 0.327886 0.585704 0.462522
O O4 0.023109 0.591032 0.400121
O O5 0.307718 0.158108 0.862990
O O6 0.199836 0.953004 0.814655
O O7 0.500000 0.000000 0.000000
O O8 0.378032 0.367962 0.873125
O O9 0.223335 0.570733 0.857149
O O10 0.000000 0.404746 0.750000
O O11 0.734003 0.764563 0.730470
O O12 0.647159 0.775738 0.583188
O O13 0.911159 0.297006 0.104788
O O14 0.500000 0.234750 0.750000
#
# Coordination Sequence:
#
# PCOD9289313 Si02
#       6
#     8   8   8   8   8   8
#     4  11  21  40  60  92 129 168 223 270 340 405
#     4  10  22  40  66  91 132 178 213 275 350 406
#     4  11  21  40  68  94 128 181 225 281 337 412
#     4  10  22  40  63  93 128 176 218 281 341 401
#     4  11  21  39  67  98 125 177 234 271 340 419
#     4   9  21  39  61  92 130 163 215 281 339 395
#
# _framework density 26.492066999999999
#
# number of rings (size 3 to 8) (size 9 to 14) (size 15 to 20)
#    0.000    1.667    3.333    2.000    4.667    0.000 
#    3.000   12.500    0.000    0.000    0.000    0.000 
#    0.000    0.000    0.000    0.000    0.000    0.000 
#
# Total GULP energy -133865.753957 kJ/mol
# GULP energy per Si atom -5577.739748 kJ/mol
# Density = 2.643177 g / cm^3
# Si number density = 26.492067 Si / 1000 Ang^3
#
#
#
# Elastic Constant Matrix: (Units=GPa)
#
#
# Indices 1 2 3 4 5 6 
#
# 1 114.3659 33.1534 27.4091 0.0000 -26.7709 0.0000
# 2 33.1534 155.4426 29.6402 0.0000 -21.3320 0.0000
# 3 27.4091 29.6402 84.7286 0.0000 -13.8167 0.0000
# 4 0.0000 0.0000 0.0000 44.5522 0.0000 -18.4921
# 5 -26.7709 -21.3320 -13.8167 0.0000 47.8173 0.0000
# 6 0.0000 0.0000 0.0000 -18.4921 0.0000 46.7293
#
#
#
# Elastic Compliance Matrix: (Units=1/GPa)
#
#
# Indices 1 2 3 4 5 6 
#
# 1 0.010769 -0.001199 -0.002275 0.000000 0.004837 0.000000
# 2 -0.001199 0.007323 -0.001837 0.000000 0.002065 0.000000
# 3 -0.002275 -0.001837 0.013475 0.000000 0.001800 0.000000
# 4 0.000000 0.000000 0.000000 0.026857 0.000000 0.010628
# 5 0.004837 0.002065 0.001800 0.000000 0.025062 0.000000
# 6 0.000000 0.000000 0.000000 0.010628 0.000000 0.025606
#
#
# Mechanical properties :
#
#
# Convention : Reuss Voigt Hill
#
# Bulk Modulus (GPa) = 47.74898 59.43805 53.59352
# Shear Modulus (GPa) = 39.46482 45.44206 42.45344
#
# Velocity S-wave (km/s) = 3.86383 4.14612 4.00746
# Velocity P-wave (km/s) = 6.16187 6.73835 6.45654
#
# Compressibility (1/GPa) = 0.02094286
#
# Stress axis : x y z
#
# Youngs Moduli (GPa) = 92.85906 136.56296 74.21340
#
# Poissons Ratio (x) = 0.16377 0.16887
# Poissons Ratio (y) = 0.11136 0.13633
# Poissons Ratio (z) = 0.21130 0.25087
#
# Static dielectric constant tensor:
#      x y z
#    x 2.490830 0.000000 0.294210 
#    y 0.000000 2.072510 0.000000 
#    z 0.294210 0.000000 2.393990 
# 
# From -- ./inp_files/237444.got.cif
#   From: 2010.05.17/outbox.cif.g08.bks.cpg/sg15_119_cif.got.tgz:237444.got - 2010.06.03 18:47:42.
