data_PCOD9289688
_publ_section_title
;
Structure prediction by ZEFSAII (Michael W. Deem and Ramdas Pophale) SiO2 
 PCOD9289688
Probable space group: C 2/C
;
_chemical_formula_sum "Si O2"
_cell_formula_units_Z 48
_cell_length_a 29.129136
_cell_length_b 5.277904
_cell_length_c 14.093245
_cell_angle_alpha 90.000000
_cell_angle_beta 112.416582
_cell_angle_gamma 90.000000
_cell_volume 2002.980885
_symmetry_space_group_name_H-M "C 2/C"
_symmetry_group_IT_number 15
_symmetry_cell_setting 'monoclinic'
loop_
_space_group_symop_operation_xyz
x,y,z
-x,y,1/2-z
-x,-y,-z
x,-y,1/2+z
1/2+x,1/2+y,z
1/2-x,1/2+y,1/2-z
1/2-x,1/2-y,-z
1/2+x,1/2-y,1/2+z
loop_
_atom_site_type_symbol
_atom_site_label
_atom_site_fract_x
_atom_site_fract_y
_atom_site_fract_z
Si Si1 0.862025 0.184756 0.474301
Si Si2 0.455803 0.364714 0.551579
Si Si3 0.719233 0.661723 0.243904
Si Si4 0.028281 0.724392 0.133107
Si Si5 0.072129 0.487549 0.844832
Si Si6 0.782199 0.995494 0.546804
O O1 0.826892 0.241643 0.358261
O O2 0.880000 0.409753 0.557246
O O3 0.912829 0.053495 0.483316
O O4 0.829344 0.007275 0.516252
O O5 0.458212 0.169422 0.465175
O O6 0.510126 0.483504 0.610154
O O7 0.436740 0.281024 0.640609
O O8 0.748918 0.422104 0.220541
O O9 0.703760 0.541629 0.332234
O O10 0.069805 0.628634 0.238775
O O11 0.977900 0.612399 0.140436
O O12 0.750000 0.750000 0.500000
O O13 0.750000 0.250000 0.500000
#
# Coordination Sequence:
#
# PCOD9289688 Si02
#       6
#     8   8   8   8   8   8
#     4  11  26  41  65 103 135 170 243 276 349 400
#     4  10  22  43  68  95 139 169 230 280 332 423
#     4  12  25  47  73  98 139 187 233 291 352 415
#     4   9  21  43  67  96 129 186 211 273 350 405
#     4  10  22  40  66  99 134 171 226 281 338 413
#     4  12  25  47  73  99 139 188 234 290 354 419
#
# _framework density 23.964282000000001
#
# number of rings (size 3 to 8) (size 9 to 14) (size 15 to 20)
#    0.000    1.333    3.333    0.500    7.000    5.333 
#    3.000    0.000    0.000    0.000    0.000    0.000 
#    0.000    0.000    0.000    0.000    0.000    0.000 
#
# Total GULP energy -133833.405844 kJ/mol
# GULP energy per Si atom -5576.391910 kJ/mol
# Density = 2.390974 g / cm^3
# Si number density = 23.964282 Si / 1000 Ang^3
#
#
#
# Elastic Constant Matrix: (Units=GPa)
#
#
# Indices 1 2 3 4 5 6 
#
# 1 61.7404 13.0859 20.2528 0.0000 7.6543 0.0000
# 2 13.0859 78.4267 35.1168 0.0000 13.7847 0.0000
# 3 20.2528 35.1168 208.3070 0.0000 5.3536 0.0000
# 4 0.0000 0.0000 0.0000 19.5862 0.0000 -3.6349
# 5 7.6543 13.7847 5.3536 0.0000 39.6113 0.0000
# 6 0.0000 0.0000 0.0000 -3.6349 0.0000 34.3774
#
#
#
# Elastic Compliance Matrix: (Units=1/GPa)
#
#
# Indices 1 2 3 4 5 6 
#
# 1 0.017333 -0.001864 -0.001306 0.000000 -0.002524 0.000000
# 2 -0.001864 0.014841 -0.002205 0.000000 -0.004507 0.000000
# 3 -0.001306 -0.002205 0.005291 0.000000 0.000305 0.000000
# 4 0.000000 0.000000 0.000000 0.052078 0.000000 0.005507
# 5 -0.002524 -0.004507 0.000305 0.000000 0.027260 0.000000
# 6 0.000000 0.000000 0.000000 0.005507 0.000000 0.029671
#
#
# Mechanical properties :
#
#
# Convention : Reuss Voigt Hill
#
# Bulk Modulus (GPa) = 37.43014 53.93167 45.68090
# Shear Modulus (GPa) = 30.09682 37.38288 33.73985
#
# Velocity S-wave (km/s) = 3.54772 3.95389 3.75630
# Velocity P-wave (km/s) = 5.69515 6.58773 6.15764
#
# Compressibility (1/GPa) = 0.02671644
#
# Stress axis : x y z
#
# Youngs Moduli (GPa) = 57.69250 67.38043 188.98273
#
# Poissons Ratio (x) = 0.12557 0.24685
# Poissons Ratio (y) = 0.10751 0.41669
# Poissons Ratio (z) = 0.07536 0.14857
#
# Static dielectric constant tensor:
#      x y z
#    x 1.904910 0.000000 -0.049190 
#    y 0.000000 2.195280 0.000000 
#    z -0.049190 0.000000 1.952550 
# 
# From -- ./inp_files/180200.got.cif
#   From: 2010.05.17/outbox.cif.g08.bks.cpg/sg15_91_cif.got.tgz:180200.got - 2010.06.03 18:47:42.
