data_PCOD9289397
_publ_section_title
;
Structure prediction by ZEFSAII (Michael W. Deem and Ramdas Pophale) SiO2 
 PCOD9289397
Probable space group: C 2/C
;
_chemical_formula_sum "Si O2"
_cell_formula_units_Z 44
_cell_length_a 7.580005
_cell_length_b 20.232836
_cell_length_c 13.431362
_cell_angle_alpha 90.000000
_cell_angle_beta 99.652364
_cell_angle_gamma 90.000000
_cell_volume 2030.739226
_symmetry_space_group_name_H-M "C 2/C"
_symmetry_group_IT_number 15
_symmetry_cell_setting 'monoclinic'
loop_
_space_group_symop_operation_xyz
x,y,z
-x,y,1/2-z
-x,-y,-z
x,-y,1/2+z
1/2+x,1/2+y,z
1/2-x,1/2+y,1/2-z
1/2-x,1/2-y,-z
1/2+x,1/2-y,1/2+z
loop_
_atom_site_type_symbol
_atom_site_label
_atom_site_fract_x
_atom_site_fract_y
_atom_site_fract_z
Si Si1 0.000000 0.122846 0.750000
Si Si2 0.412166 0.442507 0.633851
Si Si3 0.251463 0.956346 0.519177
Si Si4 0.207156 0.173157 0.493501
Si Si5 0.663766 0.073988 0.839082
Si Si6 0.815118 0.180066 0.547671
O O1 0.141006 0.080047 0.697351
O O2 0.130059 0.167811 0.831786
O O3 0.500000 0.443773 0.750000
O O4 0.571390 0.447383 0.567918
O O5 0.290033 0.504073 0.586967
O O6 0.304292 0.373837 0.604992
O O7 0.307360 0.881936 0.498288
O O8 0.358295 0.006760 0.599255
O O9 0.250000 0.250000 0.500000
O O10 0.329519 0.134284 0.583127
O O11 0.006659 0.171538 0.515121
O O12 0.500000 0.080309 0.750000
O O13 0.750000 0.250000 0.500000
#
# Coordination Sequence:
#
# PCOD9289397 Si02
#       6
#     4   8   8   8   8   8
#     4  10  22  40  68  88 116 180 204 238 340 368
#     4   9  17  33  60  86 114 159 204 250 310 366
#     4   9  20  36  59  91 120 150 211 255 302 378
#     4   9  20  38  57  89 122 160 206 252 308 368
#     4  10  22  40  64  92 126 160 209 265 304 374
#     4  10  22  41  62  86 128 162 203 260 308 376
#
# _framework density 21.666985
#
# number of rings (size 3 to 8) (size 9 to 14) (size 15 to 20)
#    0.000    2.545    0.000    3.273    7.636    0.727 
#   11.455    0.909    0.000    0.000    0.000    0.000 
#    0.000    0.000    0.000    0.000    0.000    0.000 
#
# Total GULP energy -122624.430650 kJ/mol
# GULP energy per Si atom -5573.837757 kJ/mol
# Density = 2.161767 g / cm^3
# Si number density = 21.666985 Si / 1000 Ang^3
#
#
#
# Elastic Constant Matrix: (Units=GPa)
#
#
# Indices 1 2 3 4 5 6 
#
# 1 65.6431 25.5270 34.6389 0.0000 12.1404 0.0000
# 2 25.5270 226.4640 113.7504 0.0000 26.9294 0.0000
# 3 34.6389 113.7504 176.9892 0.0000 30.7086 0.0000
# 4 0.0000 0.0000 0.0000 21.3448 0.0000 6.1036
# 5 12.1404 26.9294 30.7086 0.0000 33.5751 0.0000
# 6 0.0000 0.0000 0.0000 6.1036 0.0000 27.8951
#
#
#
# Elastic Compliance Matrix: (Units=1/GPa)
#
#
# Indices 1 2 3 4 5 6 
#
# 1 0.017387 -0.000195 -0.002631 0.000000 -0.003724 0.000000
# 2 -0.000195 0.006602 -0.003920 0.000000 -0.001639 0.000000
# 3 -0.002631 -0.003920 0.009478 0.000000 -0.004573 0.000000
# 4 0.000000 0.000000 0.000000 0.049977 0.000000 -0.010935
# 5 -0.003724 -0.001639 -0.004573 0.000000 0.036627 0.000000
# 6 0.000000 0.000000 0.000000 -0.010935 0.000000 0.038241
#
#
# Mechanical properties :
#
#
# Convention : Reuss Voigt Hill
#
# Bulk Modulus (GPa) = 50.06789 90.76986 70.41888
# Shear Modulus (GPa) = 28.01690 36.24168 32.12929
#
# Velocity S-wave (km/s) = 3.59983 4.09426 3.85498
# Velocity P-wave (km/s) = 6.35896 8.02090 7.23779
#
# Compressibility (1/GPa) = 0.01997288
#
# Stress axis : x y z
#
# Youngs Moduli (GPa) = 57.51427 151.47486 105.50684
#
# Poissons Ratio (x) = 0.02961 0.27760
# Poissons Ratio (y) = 0.01124 0.41362
# Poissons Ratio (z) = 0.15133 0.59383
#
# Static dielectric constant tensor:
#      x y z
#    x 1.861820 0.000000 -0.023930 
#    y 0.000000 1.953720 0.000000 
#    z -0.023930 0.000000 1.844240 
# 
# From -- ./inp_files/134586.got.cif
#   From: 2010.05.17/outbox.cif.g08.bks.cpg/sg15_68_cif.got.tgz:134586.got - 2010.06.03 18:47:42.
