data_PCOD9289948
_publ_section_title
;
Structure prediction by ZEFSAII (Michael W. Deem and Ramdas Pophale) SiO2 
 PCOD9289948
Probable space group: C 2/C
;
_chemical_formula_sum "Si O2"
_cell_formula_units_Z 56
_cell_length_a 5.528551
_cell_length_b 14.042287
_cell_length_c 31.711592
_cell_angle_alpha 90.000000
_cell_angle_beta 95.192048
_cell_angle_gamma 90.000000
_cell_volume 2451.780692
_symmetry_space_group_name_H-M "C 2/C"
_symmetry_group_IT_number 15
_symmetry_cell_setting 'monoclinic'
loop_
_space_group_symop_operation_xyz
x,y,z
-x,y,1/2-z
-x,-y,-z
x,-y,1/2+z
1/2+x,1/2+y,z
1/2-x,1/2+y,1/2-z
1/2-x,1/2-y,-z
1/2+x,1/2-y,1/2+z
loop_
_atom_site_type_symbol
_atom_site_label
_atom_site_fract_x
_atom_site_fract_y
_atom_site_fract_z
Si Si1 0.810579 0.606794 0.825678
Si Si2 0.586901 0.076121 0.343358
Si Si3 0.791063 0.382524 0.914740
Si Si4 0.406542 0.815803 0.088100
Si Si5 0.995916 0.690166 0.999615
Si Si6 0.732529 0.705978 0.225319
Si Si7 0.969809 0.054376 0.888561
O O1 0.800235 0.684559 0.789448
O O2 0.551314 0.586523 0.843126
O O3 0.932260 0.505477 0.816804
O O4 0.957557 0.652415 0.867554
O O5 0.413024 0.136179 0.371044
O O6 0.748537 0.139282 0.315456
O O7 0.747663 0.017146 0.378724
O O8 0.593734 0.298145 0.915243
O O9 0.676177 0.486938 0.910525
O O10 0.965202 0.371629 0.957756
O O11 0.130784 0.855528 0.087815
O O12 0.513926 0.857335 0.046644
O O13 0.750000 0.750000 0.000000
O O14 0.250000 0.750000 0.000000
O O15 0.500000 0.679561 0.250000
O O16 0.000000 0.696394 0.250000
#
# Coordination Sequence:
#
# PCOD9289948 Si02
#       7
#     8   8   8   8   8   8   8
#     4  10  24  45  71 100 137 184 225 286 349 422
#     4  10  24  45  71 100 137 184 225 286 349 422
#     4  10  22  40  70  96 138 183 230 284 340 412
#     4  10  22  40  70  96 138 183 230 284 340 412
#     4  10  24  39  63 105 136 183 235 287 341 396
#     4  12  30  48  74 107 134 181 232 288 358 426
#     4  10  22  41  69 100 128 188 228 276 350 410
#
# _framework density 22.840543
#
# number of rings (size 3 to 8) (size 9 to 14) (size 15 to 20)
#    0.000    1.714    0.000    1.714   20.000    1.143 
#    0.000    6.429    0.000    0.000    0.000    0.000 
#    0.000    0.000    0.000    0.000    0.000    0.000 
#
# Total GULP energy -156365.030701 kJ/mol
# GULP energy per Si atom -5584.465382 kJ/mol
# Density = 2.278856 g / cm^3
# Si number density = 22.840543 Si / 1000 Ang^3
#
#
#
# Elastic Constant Matrix: (Units=GPa)
#
#
# Indices 1 2 3 4 5 6 
#
# 1 87.9470 10.8177 25.4281 0.0000 -14.7840 0.0000
# 2 10.8177 68.9752 18.8893 0.0000 -13.5039 0.0000
# 3 25.4281 18.8893 57.7547 0.0000 -12.5146 0.0000
# 4 0.0000 0.0000 0.0000 21.5254 0.0000 3.3493
# 5 -14.7840 -13.5039 -12.5146 0.0000 39.5363 0.0000
# 6 0.0000 0.0000 0.0000 3.3493 0.0000 28.2017
#
#
#
# Elastic Compliance Matrix: (Units=1/GPa)
#
#
# Indices 1 2 3 4 5 6 
#
# 1 0.013438 -0.000029 -0.005175 0.000000 0.003377 0.000000
# 2 -0.000029 0.016558 -0.004487 0.000000 0.004224 0.000000
# 3 -0.005175 -0.004487 0.021805 0.000000 0.003434 0.000000
# 4 0.000000 0.000000 0.000000 0.047331 0.000000 -0.005621
# 5 0.003377 0.004224 0.003434 0.000000 0.029086 0.000000
# 6 0.000000 0.000000 0.000000 -0.005621 0.000000 0.036126
#
#
# Mechanical properties :
#
#
# Convention : Reuss Voigt Hill
#
# Bulk Modulus (GPa) = 30.84722 36.10523 33.47622
# Shear Modulus (GPa) = 25.70237 28.48881 27.09559
#
# Velocity S-wave (km/s) = 3.35818 3.53553 3.44800
# Velocity P-wave (km/s) = 5.34521 5.70162 5.52629
#
# Compressibility (1/GPa) = 0.03241783
#
# Stress axis : x y z
#
# Youngs Moduli (GPa) = 74.41566 60.39196 45.86114
#
# Poissons Ratio (x) = 0.00176 0.23734
# Poissons Ratio (y) = 0.00217 0.20580
# Poissons Ratio (z) = 0.38512 0.27101
#
# Static dielectric constant tensor:
#      x y z
#    x 1.925100 0.000000 0.033250 
#    y 0.000000 1.829450 0.000000 
#    z 0.033250 0.000000 1.878490 
# 
# From -- ./inp_files/305386.got.cif
#   From: 2010.05.17/outbox.cif.g08.bks.cpg/sg15_153_cif.got.tgz:305386.got - 2010.06.03 18:47:42.
