data_PCOD9289814
_publ_section_title
;
Structure prediction by ZEFSAII (Michael W. Deem and Ramdas Pophale) SiO2 
 PCOD9289814
Probable space group: C 2/C
;
_chemical_formula_sum "Si O2"
_cell_formula_units_Z 60
_cell_length_a 26.721969
_cell_length_b 7.980781
_cell_length_c 11.278542
_cell_angle_alpha 90.000000
_cell_angle_beta 94.185714
_cell_angle_gamma 90.000000
_cell_volume 2398.870879
_symmetry_space_group_name_H-M "C 2/C"
_symmetry_group_IT_number 15
_symmetry_cell_setting 'monoclinic'
loop_
_space_group_symop_operation_xyz
x,y,z
-x,y,1/2-z
-x,-y,-z
x,-y,1/2+z
1/2+x,1/2+y,z
1/2-x,1/2+y,1/2-z
1/2-x,1/2-y,-z
1/2+x,1/2-y,1/2+z
loop_
_atom_site_type_symbol
_atom_site_label
_atom_site_fract_x
_atom_site_fract_y
_atom_site_fract_z
Si Si1 0.782128 0.918544 0.499421
Si Si2 0.550917 0.309788 0.948235
Si Si3 0.500000 0.478108 0.250000
Si Si4 0.313126 0.127435 0.029742
Si Si5 0.639205 0.291457 0.810690
Si Si6 0.043818 0.652643 0.186056
Si Si7 0.630190 0.444226 0.576608
Si Si8 0.842921 0.462310 0.796449
O O1 0.750000 0.750000 0.500000
O O2 0.821677 0.906123 0.613522
O O3 0.745893 0.078059 0.491481
O O4 0.821802 0.931306 0.398501
O O5 0.510188 0.401316 0.861583
O O6 0.594464 0.216213 0.881703
O O7 0.529514 0.195226 0.048228
O O8 0.585431 0.459296 0.006915
O O9 0.544096 0.337969 0.246417
O O10 0.345471 0.285518 0.987546
O O11 0.330861 0.978802 0.936115
O O12 0.321619 0.132800 0.175103
O O13 0.612369 0.385843 0.700564
O O14 0.670715 0.147602 0.753326
O O15 0.097825 0.572018 0.196675
O O16 0.000000 0.558218 0.250000
#
# Coordination Sequence:
#
# PCOD9289814 Si02
#       8
#     8   8   4   8   8   8   8   8
#     4  11  23  42  65 100 137 181 229 279 334 416
#     4  11  21  45  67 102 134 178 229 285 351 418
#     4  10  22  40  68  94 130 166 232 284 346 416
#     4  11  24  43  70  98 141 184 229 289 339 418
#     4  10  23  41  67  97 136 183 223 285 344 409
#     4  10  24  40  69  97 133 177 234 288 351 424
#     4  10  24  40  68 100 139 175 234 277 349 409
#     4  11  23  46  66  97 139 180 229 287 358 408
#
# _framework density 25.011766000000001
#
# number of rings (size 3 to 8) (size 9 to 14) (size 15 to 20)
#    0.400    1.067    1.333    3.200    3.733    1.067 
#    3.600    1.333    0.000    0.000    0.000    0.000 
#    0.000    0.000    0.000    0.000    0.000    0.000 
#
# Total GULP energy -167081.503884 kJ/mol
# GULP energy per Si atom -5569.383463 kJ/mol
# Density = 2.495484 g / cm^3
# Si number density = 25.011766 Si / 1000 Ang^3
#
#
#
# Elastic Constant Matrix: (Units=GPa)
#
#
# Indices 1 2 3 4 5 6 
#
# 1 106.9996 -0.0335 30.4305 0.0000 -0.8471 0.0000
# 2 -0.0335 55.2284 8.1901 0.0000 4.2728 0.0000
# 3 30.4305 8.1901 97.3639 0.0000 -8.5275 0.0000
# 4 0.0000 0.0000 0.0000 27.9914 0.0000 1.4142
# 5 -0.8471 4.2728 -8.5275 0.0000 28.0681 0.0000
# 6 0.0000 0.0000 0.0000 1.4142 0.0000 33.6654
#
#
#
# Elastic Compliance Matrix: (Units=1/GPa)
#
#
# Indices 1 2 3 4 5 6 
#
# 1 0.010287 0.000561 -0.003331 0.000000 -0.000787 0.000000
# 2 0.000561 0.018678 -0.002049 0.000000 -0.003449 0.000000
# 3 -0.003331 -0.002049 0.011817 0.000000 0.003802 0.000000
# 4 0.000000 0.000000 0.000000 0.035801 0.000000 -0.001504
# 5 -0.000787 -0.003449 0.003802 0.000000 0.037284 0.000000
# 6 0.000000 0.000000 0.000000 -0.001504 0.000000 0.029767
#
#
# Mechanical properties :
#
#
# Convention : Reuss Voigt Hill
#
# Bulk Modulus (GPa) = 32.10842 37.41846 34.76344
# Shear Modulus (GPa) = 30.55238 32.67864 31.61551
#
# Velocity S-wave (km/s) = 3.49882 3.61852 3.55917
# Velocity P-wave (km/s) = 5.40254 5.69658 5.55151
#
# Compressibility (1/GPa) = 0.03114448
#
# Stress axis : x y z
#
# Youngs Moduli (GPa) = 97.20821 53.54014 84.62228
#
# Poissons Ratio (x) = -0.03004 0.28191
# Poissons Ratio (y) = -0.05455 0.17335
# Poissons Ratio (z) = 0.32383 0.10968
#
# Static dielectric constant tensor:
#      x y z
#    x 1.973800 0.000000 -0.059680 
#    y 0.000000 2.039920 0.000000 
#    z -0.059680 0.000000 2.077140 
# 
# From -- ./inp_files/121968.got.cif
#   From: 2010.05.17/outbox.cif.g08.bks.cpg/sg15_61_cif.got.tgz:121968.got - 2010.06.03 18:47:42.
