data_PCOD9289433
_publ_section_title
;
Structure prediction by ZEFSAII (Michael W. Deem and Ramdas Pophale) SiO2 
 PCOD9289433
Probable space group: C 2/C
;
_chemical_formula_sum "Si O2"
_cell_formula_units_Z 36
_cell_length_a 26.149083
_cell_length_b 7.756137
_cell_length_c 10.580528
_cell_angle_alpha 90.000000
_cell_angle_beta 137.811740
_cell_angle_gamma 90.000000
_cell_volume 1441.118776
_symmetry_space_group_name_H-M "C 2/C"
_symmetry_group_IT_number 15
_symmetry_cell_setting 'monoclinic'
loop_
_space_group_symop_operation_xyz
x,y,z
-x,y,1/2-z
-x,-y,-z
x,-y,1/2+z
1/2+x,1/2+y,z
1/2-x,1/2+y,1/2-z
1/2-x,1/2-y,-z
1/2+x,1/2-y,1/2+z
loop_
_atom_site_type_symbol
_atom_site_label
_atom_site_fract_x
_atom_site_fract_y
_atom_site_fract_z
Si Si1 0.283892 0.072833 0.253658
Si Si2 0.137041 0.702127 0.484674
Si Si3 0.081386 0.800388 0.109171
Si Si4 0.079556 0.793870 0.633384
Si Si5 0.250000 0.750000 0.000000
O O1 0.204428 0.162346 0.139624
O O2 0.347582 0.210706 0.328888
O O3 0.316169 0.975639 0.435731
O O4 0.268318 0.928699 0.119706
O O5 0.096407 0.758535 0.284171
O O6 0.084047 0.689312 0.510094
O O7 0.077157 0.005787 0.085655
O O8 0.994924 0.740969 0.924747
O O9 0.158536 0.779594 0.849394
#
# Coordination Sequence:
#
# PCOD9289433 Si02
#       5
#     8   8   8   8   4
#     4  11  24  39  69 100 136 180 229 273 344 399
#     4  11  23  40  67  99 135 178 227 277 335 411
#     4  11  23  44  69  96 137 174 223 291 331 404
#     4  10  23  43  69  97 129 176 225 279 349 396
#     4  10  22  40  64  94 132 174 218 276 334 404
#
# _framework density 24.980591
#
# number of rings (size 3 to 8) (size 9 to 14) (size 15 to 20)
#    0.000    1.333    2.222    2.667    6.222    3.556 
#    0.000    0.000    0.000    0.000    0.000    0.000 
#    0.000    0.000    0.000    0.000    0.000    0.000 
#
# Total GULP energy -100234.570944 kJ/mol
# GULP energy per Si atom -5568.587275 kJ/mol
# Density = 2.492373 g / cm^3
# Si number density = 24.980591 Si / 1000 Ang^3
#
#
#
# Elastic Constant Matrix: (Units=GPa)
#
#
# Indices 1 2 3 4 5 6 
#
# 1 80.9697 11.0906 29.0332 0.0000 26.1301 0.0000
# 2 11.0906 54.5942 10.8409 0.0000 2.7699 0.0000
# 3 29.0332 10.8409 75.4295 0.0000 39.7024 0.0000
# 4 0.0000 0.0000 0.0000 32.1291 0.0000 -6.4189
# 5 26.1301 2.7699 39.7024 0.0000 53.4103 0.0000
# 6 0.0000 0.0000 0.0000 -6.4189 0.0000 32.6860
#
#
#
# Elastic Compliance Matrix: (Units=1/GPa)
#
#
# Indices 1 2 3 4 5 6 
#
# 1 0.015386 -0.002303 -0.002780 0.000000 -0.005342 0.000000
# 2 -0.002303 0.019294 -0.003208 0.000000 0.002511 0.000000
# 3 -0.002780 -0.003208 0.022974 0.000000 -0.015551 0.000000
# 4 0.000000 0.000000 0.000000 0.032395 0.000000 0.006362
# 5 -0.005342 0.002511 -0.015551 0.000000 0.032766 0.000000
# 6 0.000000 0.000000 0.000000 0.006362 0.000000 0.031843
#
#
# Mechanical properties :
#
#
# Convention : Reuss Voigt Hill
#
# Bulk Modulus (GPa) = 24.34670 34.76920 29.55795
# Shear Modulus (GPa) = 27.03699 34.31367 30.67533
#
# Velocity S-wave (km/s) = 3.29343 3.71025 3.50804
# Velocity P-wave (km/s) = 4.92236 5.68360 5.31662
#
# Compressibility (1/GPa) = 0.04107333
#
# Stress axis : x y z
#
# Youngs Moduli (GPa) = 64.99290 51.82838 43.52786
#
# Poissons Ratio (x) = 0.11934 0.12099
# Poissons Ratio (y) = 0.14966 0.13965
# Poissons Ratio (z) = 0.18066 0.16628
#
# Static dielectric constant tensor:
#      x y z
#    x 2.037420 0.000000 -0.050080 
#    y 0.000000 2.041980 0.000000 
#    z -0.050080 0.000000 2.008260 
# 
# From -- ./inp_files/102423.got.cif
#   From: 2010.05.17/outbox.cif.g08.bks.cpg/sg15_52_cif.got.tgz:102423.got - 2010.06.03 18:47:42.
