data_PCOD9289353
_publ_section_title
;
Structure prediction by ZEFSAII (Michael W. Deem and Ramdas Pophale) SiO2 
 PCOD9289353
Probable space group: C 2/C
;
_chemical_formula_sum "Si O2"
_cell_formula_units_Z 60
_cell_length_a 23.445600
_cell_length_b 17.188131
_cell_length_c 12.035312
_cell_angle_alpha 90.000000
_cell_angle_beta 34.081295
_cell_angle_gamma 90.000000
_cell_volume 2717.823046
_symmetry_space_group_name_H-M "C 2/C"
_symmetry_group_IT_number 15
_symmetry_cell_setting 'monoclinic'
loop_
_space_group_symop_operation_xyz
x,y,z
-x,y,1/2-z
-x,-y,-z
x,-y,1/2+z
1/2+x,1/2+y,z
1/2-x,1/2+y,1/2-z
1/2-x,1/2-y,-z
1/2+x,1/2-y,1/2+z
loop_
_atom_site_type_symbol
_atom_site_label
_atom_site_fract_x
_atom_site_fract_y
_atom_site_fract_z
Si Si1 0.196660 0.101933 0.806486
Si Si2 0.679020 0.951157 0.835761
Si Si3 0.500000 0.970178 0.750000
Si Si4 0.234040 0.133036 0.090332
Si Si5 0.970927 0.767507 0.169935
Si Si6 0.668530 0.871466 0.613154
Si Si7 0.165350 0.304196 0.265455
Si Si8 0.487246 0.587660 0.062348
O O1 0.231789 0.108298 0.620914
O O2 0.253170 0.172865 0.773749
O O3 0.075672 0.101963 0.009275
O O4 0.247249 0.026224 0.780359
O O5 0.724381 0.900286 0.862820
O O6 0.677957 0.905891 0.721452
O O7 0.567496 0.979668 0.055127
O O8 0.580652 0.917817 0.687049
O O9 0.196362 0.219888 0.173268
O O10 0.130912 0.093105 0.213956
O O11 0.321111 0.135692 0.857036
O O12 0.865551 0.719430 0.331920
O O13 0.988917 0.845354 0.068663
O O14 0.000000 0.784925 0.250000
O O15 0.053308 0.704469 0.992905
O O16 0.500000 0.500000 0.000000
#
# Coordination Sequence:
#
# PCOD9289353 Si02
#       8
#     8   8   4   8   8   8   8   8
#     4  11  24  42  69  97 138 180 230 286 348 411
#     4  11  24  38  66  98 139 176 227 287 350 420
#     4  10  22  40  64 100 138 176 228 276 366 416
#     4  10  24  46  65  94 134 182 233 281 340 408
#     4  11  22  45  74 102 138 176 227 298 354 416
#     4  11  23  42  66 107 136 174 227 290 355 416
#     4  10  23  44  69  91 135 177 227 286 343 409
#     4  11  25  46  65  98 140 183 237 276 343 417
#
# _framework density 22.076492999999999
#
# number of rings (size 3 to 8) (size 9 to 14) (size 15 to 20)
#    0.000    1.333    3.333    1.200    7.467    3.200 
#    2.400    0.000    0.000    0.000    0.000    0.000 
#    0.000    0.000    0.000    0.000    0.000    0.000 
#
# Total GULP energy -167651.509565 kJ/mol
# GULP energy per Si atom -5588.383652 kJ/mol
# Density = 2.202625 g / cm^3
# Si number density = 22.076493 Si / 1000 Ang^3
#
#
#
# Elastic Constant Matrix: (Units=GPa)
#
#
# Indices 1 2 3 4 5 6 
#
# 1 90.5755 9.8608 38.4451 0.0000 -5.3376 0.0000
# 2 9.8608 67.0469 10.7433 0.0000 -1.9096 0.0000
# 3 38.4451 10.7433 61.8138 0.0000 -5.3339 0.0000
# 4 0.0000 0.0000 0.0000 -25.7659 0.0000 -3.6358
# 5 -5.3376 -1.9096 -5.3339 0.0000 32.1387 0.0000
# 6 0.0000 0.0000 0.0000 -3.6358 0.0000 25.6459
#
#
#
# Elastic Compliance Matrix: (Units=1/GPa)
#
#
# Indices 1 2 3 4 5 6 
#
# 1 0.015063 -0.000721 -0.009162 0.000000 0.000938 0.000000
# 2 -0.000721 0.015384 -0.002188 0.000000 0.000431 0.000000
# 3 -0.009162 -0.002188 0.022435 0.000000 0.002072 0.000000
# 4 0.000000 0.000000 0.000000 -0.038050 0.000000 -0.005394
# 5 0.000938 0.000431 0.002072 0.000000 0.031640 0.000000
# 6 0.000000 0.000000 0.000000 -0.005394 0.000000 0.038228
#
#
# Mechanical properties :
#
#
# Convention : Reuss Voigt Hill
#
# Bulk Modulus (GPa) = 34.79500 37.50383 36.14941
# Shear Modulus (GPa) = 42.22140 17.09622 29.65881
#
# Velocity S-wave (km/s) = 4.37796 2.78584 3.66930
# Velocity P-wave (km/s) = 6.43045 5.23191 5.86189
#
# Compressibility (1/GPa) = 0.02873977
#
# Stress axis : x y z
#
# Youngs Moduli (GPa) = 66.38662 65.00324 44.57262
#
# Poissons Ratio (x) = 0.04684 0.40839
# Poissons Ratio (y) = 0.04783 0.09754
# Poissons Ratio (z) = 0.60826 0.14225
#
# Static dielectric constant tensor:
#      x y z
#    x 1.750350 0.000000 0.028110 
#    y 0.000000 1.927220 0.000000 
#    z 0.028110 0.000000 1.861160 
# 
# From -- ./inp_files/113795.got.cif
#   From: 2010.05.17/outbox.cif.g08.bks.cpg/sg15_57_cif.got.tgz:113795.got - 2010.06.03 18:47:42.
