data_PCOD9289349
_publ_section_title
;
Structure prediction by ZEFSAII (Michael W. Deem and Ramdas Pophale) SiO2 
 PCOD9289349
Probable space group: C 2/C
;
_chemical_formula_sum "Si O2"
_cell_formula_units_Z 40
_cell_length_a 17.996124
_cell_length_b 10.203966
_cell_length_c 9.778692
_cell_angle_alpha 90.000000
_cell_angle_beta 93.937320
_cell_angle_gamma 90.000000
_cell_volume 1791.440955
_symmetry_space_group_name_H-M "C 2/C"
_symmetry_group_IT_number 15
_symmetry_cell_setting 'monoclinic'
loop_
_space_group_symop_operation_xyz
x,y,z
-x,y,1/2-z
-x,-y,-z
x,-y,1/2+z
1/2+x,1/2+y,z
1/2-x,1/2+y,1/2-z
1/2-x,1/2-y,-z
1/2+x,1/2-y,1/2+z
loop_
_atom_site_type_symbol
_atom_site_label
_atom_site_fract_x
_atom_site_fract_y
_atom_site_fract_z
Si Si1 0.034304 0.816113 0.905151
Si Si2 0.770951 0.151547 0.692137
Si Si3 0.936000 0.895894 0.127472
Si Si4 0.445106 0.035596 0.614620
Si Si5 0.716423 0.936084 0.889026
O O1 0.081818 0.684710 0.918210
O O2 0.000000 0.820471 0.750000
O O3 0.073550 0.955577 0.930476
O O4 0.967120 0.811439 0.005699
O O5 0.859506 0.146800 0.683187
O O6 0.737044 0.084885 0.550629
O O7 0.752008 0.306325 0.684046
O O8 0.747500 0.065647 0.818931
O O9 0.000000 0.894166 0.250000
O O10 0.500000 0.034480 0.750000
O O11 0.500000 0.000000 0.500000
O O12 0.373121 0.947457 0.628410
#
# Coordination Sequence:
#
# PCOD9289349 Si02
#       5
#     8   8   8   8   8
#     4   9  21  37  65  96 129 165 217 267 336 372
#     4  11  27  46  67  96 143 174 222 278 333 409
#     4  10  22  40  64 100 128 171 222 271 319 392
#     4  11  23  43  69  95 128 169 223 278 321 393
#     4  11  27  46  67 101 137 181 218 274 348 391
#
# _framework density 22.328395
#
# number of rings (size 3 to 8) (size 9 to 14) (size 15 to 20)
#    0.000    1.600    0.000    2.400   11.200    8.800 
#    0.000    0.000    0.000    0.000    0.000    0.000 
#    0.000    0.000    0.000    0.000    0.000    0.000 
#
# Total GULP energy -111789.152145 kJ/mol
# GULP energy per Si atom -5589.457607 kJ/mol
# Density = 2.227757 g / cm^3
# Si number density = 22.328395 Si / 1000 Ang^3
#
#
#
# Elastic Constant Matrix: (Units=GPa)
#
#
# Indices 1 2 3 4 5 6 
#
# 1 85.4568 11.7914 24.0817 0.0000 0.9622 0.0000
# 2 11.7914 108.3078 31.0031 0.0000 -4.8797 0.0000
# 3 24.0817 31.0031 92.9777 0.0000 -12.2923 0.0000
# 4 0.0000 0.0000 0.0000 42.5933 0.0000 6.2393
# 5 0.9622 -4.8797 -12.2923 0.0000 32.0957 0.0000
# 6 0.0000 0.0000 0.0000 6.2393 0.0000 26.1456
#
#
#
# Elastic Compliance Matrix: (Units=1/GPa)
#
#
# Indices 1 2 3 4 5 6 
#
# 1 0.012738 -0.000503 -0.003362 0.000000 -0.001746 0.000000
# 2 -0.000503 0.010229 -0.003237 0.000000 0.000331 0.000000
# 3 -0.003362 -0.003237 0.013329 0.000000 0.004713 0.000000
# 4 0.000000 0.000000 0.000000 0.024328 0.000000 -0.005806
# 5 -0.001746 0.000331 0.004713 0.000000 0.033065 0.000000
# 6 0.000000 0.000000 0.000000 -0.005806 0.000000 0.039633
#
#
# Mechanical properties :
#
#
# Convention : Reuss Voigt Hill
#
# Bulk Modulus (GPa) = 45.26621 46.72166 45.99393
# Shear Modulus (GPa) = 32.28085 34.82463 33.55274
#
# Velocity S-wave (km/s) = 3.80640 3.95353 3.88066
# Velocity P-wave (km/s) = 6.29565 6.46612 6.38146
#
# Compressibility (1/GPa) = 0.02209153
#
# Stress axis : x y z
#
# Youngs Moduli (GPa) = 78.50262 97.75966 75.02642
#
# Poissons Ratio (x) = 0.04917 0.25227
# Poissons Ratio (y) = 0.03949 0.24285
# Poissons Ratio (z) = 0.26396 0.31644
#
# Static dielectric constant tensor:
#      x y z
#    x 1.775960 0.000000 0.006420 
#    y 0.000000 1.943440 0.000000 
#    z 0.006420 0.000000 1.770440 
# 
# From -- ./inp_files/46208.got.cif
#   From: 2010.05.17/outbox.cif.g08.bks.cpg/sg15_24_cif.got.tgz:46208.got - 2010.06.03 18:47:42.
