data_PCOD9289327
_publ_section_title
;
Structure prediction by ZEFSAII (Michael W. Deem and Ramdas Pophale) SiO2 
 PCOD9289327
Probable space group: C 2/C
;
_chemical_formula_sum "Si O2"
_cell_formula_units_Z 56
_cell_length_a 8.932439
_cell_length_b 21.351890
_cell_length_c 12.233127
_cell_angle_alpha 90.000000
_cell_angle_beta 83.881281
_cell_angle_gamma 90.000000
_cell_volume 2319.864892
_symmetry_space_group_name_H-M "C 2/C"
_symmetry_group_IT_number 15
_symmetry_cell_setting 'monoclinic'
loop_
_space_group_symop_operation_xyz
x,y,z
-x,y,1/2-z
-x,-y,-z
x,-y,1/2+z
1/2+x,1/2+y,z
1/2-x,1/2+y,1/2-z
1/2-x,1/2-y,-z
1/2+x,1/2-y,1/2+z
loop_
_atom_site_type_symbol
_atom_site_label
_atom_site_fract_x
_atom_site_fract_y
_atom_site_fract_z
Si Si1 0.446616 0.302443 0.492499
Si Si2 0.617183 0.616829 0.139915
Si Si3 0.662400 0.512939 0.715822
Si Si4 0.694746 0.206508 0.843190
Si Si5 0.112769 0.468832 0.640654
Si Si6 0.070103 0.413517 0.414923
Si Si7 0.868417 0.716862 0.169953
O O1 0.543106 0.357340 0.535893
O O2 0.349220 0.271834 0.596578
O O3 0.333733 0.319946 0.404283
O O4 0.550208 0.246517 0.440023
O O5 0.500000 0.625715 0.250000
O O6 0.649693 0.543519 0.130724
O O7 0.767193 0.656708 0.153255
O O8 0.500000 0.541472 0.750000
O O9 0.724311 0.477733 0.819311
O O10 0.789291 0.558615 0.663531
O O11 0.562313 0.156521 0.869779
O O12 0.758354 0.227888 0.722792
O O13 0.100627 0.420207 0.542221
O O14 0.000000 0.453286 0.750000
O O15 0.062306 0.537406 0.600420
O O16 0.000000 0.705665 0.250000
#
# Coordination Sequence:
#
# PCOD9289327 Si02
#       7
#     8   8   8   8   8   8   8
#     4  10  22  40  63  95 128 166 214 258 331 379
#     4  11  22  41  63  93 128 172 216 264 314 388
#     4  10  24  40  62  95 129 168 214 265 322 382
#     4  10  22  41  66  97 129 167 211 276 324 383
#     4   9  21  43  62  91 125 163 226 256 316 387
#     4  10  22  42  67  93 127 171 212 269 328 377
#     4  10  22  40  63  95 128 167 214 262 325 379
#
# _framework density 24.139337999999999
#
# number of rings (size 3 to 8) (size 9 to 14) (size 15 to 20)
#    0.000    2.000    1.429    0.429    4.000    7.429 
#   12.857    0.000    0.000    0.000    0.000    0.000 
#    0.000    0.000    0.000    0.000    0.000    0.000 
#
# Total GULP energy -156692.861799 kJ/mol
# GULP energy per Si atom -5596.173636 kJ/mol
# Density = 2.408440 g / cm^3
# Si number density = 24.139338 Si / 1000 Ang^3
#
#
#
# Elastic Constant Matrix: (Units=GPa)
#
#
# Indices 1 2 3 4 5 6 
#
# 1 58.6160 -4.4678 6.6894 0.0000 1.0863 0.0000
# 2 -4.4678 61.0248 -10.8965 0.0000 8.0396 0.0000
# 3 6.6894 -10.8965 68.0202 0.0000 -3.9889 0.0000
# 4 0.0000 0.0000 0.0000 20.8492 0.0000 -11.2905
# 5 1.0863 8.0396 -3.9889 0.0000 25.3034 0.0000
# 6 0.0000 0.0000 0.0000 -11.2905 0.0000 28.4419
#
#
#
# Elastic Compliance Matrix: (Units=1/GPa)
#
#
# Indices 1 2 3 4 5 6 
#
# 1 0.017357 0.001165 -0.001601 0.000000 -0.001368 0.000000
# 2 0.001165 0.017593 0.002395 0.000000 -0.005262 0.000000
# 3 -0.001601 0.002395 0.015344 0.000000 0.001727 0.000000
# 4 0.000000 0.000000 0.000000 0.061098 0.000000 0.024254
# 5 -0.001368 -0.005262 0.001727 0.000000 0.041523 0.000000
# 6 0.000000 0.000000 0.000000 0.024254 0.000000 0.044787
#
#
# Mechanical properties :
#
#
# Convention : Reuss Voigt Hill
#
# Bulk Modulus (GPa) = 18.44561 18.92347 18.68454
# Shear Modulus (GPa) = 23.60121 28.00798 25.80459
#
# Velocity S-wave (km/s) = 3.13022 3.40996 3.27308
# Velocity P-wave (km/s) = 4.55218 4.83322 4.69480
#
# Compressibility (1/GPa) = 0.05421343
#
# Stress axis : x y z
#
# Youngs Moduli (GPa) = 57.61366 56.84070 65.17270
#
# Poissons Ratio (x) = -0.06623 0.10431
# Poissons Ratio (y) = -0.06713 -0.15610
# Poissons Ratio (z) = 0.09221 -0.13614
#
# Static dielectric constant tensor:
#      x y z
#    x 1.945920 0.000000 0.029470 
#    y 0.000000 1.929080 0.000000 
#    z 0.029470 0.000000 1.894450 
# 
# From -- ./inp_files/136473.got.cif
#   From: 2010.05.17/outbox.cif.g08.bks.cpg/sg15_69_cif.got.tgz:136473.got - 2010.06.03 18:47:42.
