data_PCOD9289754
_publ_section_title
;
Structure prediction by ZEFSAII (Michael W. Deem and Ramdas Pophale) SiO2 
 PCOD9289754
Probable space group: C 2/C
;
_chemical_formula_sum "Si O2"
_cell_formula_units_Z 36
_cell_length_a 12.884617
_cell_length_b 5.621843
_cell_length_c 22.543806
_cell_angle_alpha 90.000000
_cell_angle_beta 100.357324
_cell_angle_gamma 90.000000
_cell_volume 1606.359082
_symmetry_space_group_name_H-M "C 2/C"
_symmetry_group_IT_number 15
_symmetry_cell_setting 'monoclinic'
loop_
_space_group_symop_operation_xyz
x,y,z
-x,y,1/2-z
-x,-y,-z
x,-y,1/2+z
1/2+x,1/2+y,z
1/2-x,1/2+y,1/2-z
1/2-x,1/2-y,-z
1/2+x,1/2-y,1/2+z
loop_
_atom_site_type_symbol
_atom_site_label
_atom_site_fract_x
_atom_site_fract_y
_atom_site_fract_z
Si Si1 0.204944 0.925923 0.219326
Si Si2 0.654165 0.063982 0.363101
Si Si3 0.093874 0.656496 0.983571
Si Si4 0.500000 0.772049 0.750000
Si Si5 0.705010 0.448767 0.451074
O O1 0.258810 0.680814 0.249241
O O2 0.082937 0.885021 0.221585
O O3 0.242479 0.950099 0.155415
O O4 0.565623 0.071057 0.303468
O O5 0.680345 0.333592 0.385715
O O6 0.615756 0.942459 0.419273
O O7 0.100907 0.936754 0.969718
O O8 0.194535 0.622246 0.037429
O O9 0.000000 0.500000 0.000000
O O10 0.750000 0.250000 0.500000
#
# Coordination Sequence:
#
# PCOD9289754 Si02
#       5
#     8   8   8   4   8
#     4  10  24  45  66  98 140 182 235 288 348 428
#     4  10  23  42  64  95 136 176 230 289 353 426
#     4  10  22  40  67  99 129 181 236 288 363 429
#     4  10  24  44  66 100 136 186 230 286 366 426
#     4   9  21  41  61  90 134 171 220 292 348 419
#
# _framework density 22.410931000000001
#
# number of rings (size 3 to 8) (size 9 to 14) (size 15 to 20)
#    0.000    2.222    0.000    0.000    6.222   14.222 
#    8.000    0.000    0.000    0.000    0.000    0.000 
#    0.000    0.000    0.000    0.000    0.000    0.000 
#
# Total GULP energy -100280.244422 kJ/mol
# GULP energy per Si atom -5571.124690 kJ/mol
# Density = 2.235992 g / cm^3
# Si number density = 22.410931 Si / 1000 Ang^3
#
#
#
# Elastic Constant Matrix: (Units=GPa)
#
#
# Indices 1 2 3 4 5 6 
#
# 1 157.6787 36.0206 50.3590 0.0000 -39.1820 0.0000
# 2 36.0206 99.0950 29.9221 0.0000 -15.6848 0.0000
# 3 50.3590 29.9221 124.2409 0.0000 -13.0476 0.0000
# 4 0.0000 0.0000 0.0000 30.1308 0.0000 -5.6792
# 5 -39.1820 -15.6848 -13.0476 0.0000 51.0046 0.0000
# 6 0.0000 0.0000 0.0000 -5.6792 0.0000 34.8251
#
#
#
# Elastic Compliance Matrix: (Units=1/GPa)
#
#
# Indices 1 2 3 4 5 6 
#
# 1 0.008971 -0.001550 -0.002661 0.000000 0.005734 0.000000
# 2 -0.001550 0.011539 -0.001956 0.000000 0.001858 0.000000
# 3 -0.002661 -0.001956 0.009578 0.000000 -0.000195 0.000000
# 4 0.000000 0.000000 0.000000 0.034241 0.000000 0.005584
# 5 0.005734 0.001858 -0.000195 0.000000 0.024532 0.000000
# 6 0.000000 0.000000 0.000000 0.005584 0.000000 0.029626
#
#
# Mechanical properties :
#
#
# Convention : Reuss Voigt Hill
#
# Bulk Modulus (GPa) = 56.32152 68.17977 62.25064
# Shear Modulus (GPa) = 36.56630 40.83962 38.70296
#
# Velocity S-wave (km/s) = 4.04372 4.27348 4.16019
# Velocity P-wave (km/s) = 6.85479 7.40532 7.13537
#
# Compressibility (1/GPa) = 0.01775520
#
# Stress axis : x y z
#
# Youngs Moduli (GPa) = 111.47400 86.66055 104.40725
#
# Poissons Ratio (x) = 0.13431 0.27779
# Poissons Ratio (y) = 0.17276 0.20420
# Poissons Ratio (z) = 0.29660 0.16949
#
# Static dielectric constant tensor:
#      x y z
#    x 1.892640 0.000000 0.017420 
#    y 0.000000 2.078370 0.000000 
#    z 0.017420 0.000000 1.856700 
# 
# From -- ./inp_files/241441.got.cif
#   From: 2010.05.17/outbox.cif.g08.bks.cpg/sg15_121_cif.got.tgz:241441.got - 2010.06.03 18:47:42.
