data_PCOD9289215
_publ_section_title
;
Structure prediction by ZEFSAII (Michael W. Deem and Ramdas Pophale) SiO2 
 PCOD9289215
Probable space group: C 2/C
;
_chemical_formula_sum "Si O2"
_cell_formula_units_Z 40
_cell_length_a 27.270611
_cell_length_b 5.119144
_cell_length_c 25.321983
_cell_angle_alpha 90.000000
_cell_angle_beta 146.760537
_cell_angle_gamma 90.000000
_cell_volume 1937.675133
_symmetry_space_group_name_H-M "C 2/C"
_symmetry_group_IT_number 15
_symmetry_cell_setting 'monoclinic'
loop_
_space_group_symop_operation_xyz
x,y,z
-x,y,1/2-z
-x,-y,-z
x,-y,1/2+z
1/2+x,1/2+y,z
1/2-x,1/2+y,1/2-z
1/2-x,1/2-y,-z
1/2+x,1/2-y,1/2+z
loop_
_atom_site_type_symbol
_atom_site_label
_atom_site_fract_x
_atom_site_fract_y
_atom_site_fract_z
Si Si1 0.024167 0.716891 0.710794
Si Si2 0.698074 0.207637 0.619244
Si Si3 0.016110 0.228727 0.892891
Si Si4 0.411803 0.014756 0.883775
Si Si5 0.313577 0.777833 0.206605
O O1 0.975113 0.484041 0.635890
O O2 0.000000 0.725701 0.750000
O O3 0.128997 0.661339 0.793699
O O4 0.001393 0.986864 0.660918
O O5 0.607553 0.289807 0.507975
O O6 0.753875 0.476306 0.672028
O O7 0.667158 0.057637 0.645039
O O8 0.757419 0.982179 0.646307
O O9 0.936608 0.289702 0.863534
O O10 0.387281 0.244075 0.820273
O O11 0.500000 0.000000 0.000000
#
# Coordination Sequence:
#
# PCOD9289215 Si02
#       5
#     8   8   8   8   8
#     4  11  23  43  64  85 118 166 214 259 304 359
#     4  11  22  38  60  92 127 156 195 254 309 366
#     4  10  22  40  62  90 121 161 207 249 305 377
#     4   9  20  37  60  88 123 160 192 235 300 371
#     4  11  22  38  59  89 121 159 205 253 303 361
#
# _framework density 20.643293
#
# number of rings (size 3 to 8) (size 9 to 14) (size 15 to 20)
#    0.000    1.600    0.000    5.400    0.000    3.200 
#    0.000   23.000    0.000    0.000    0.000    0.000 
#    0.000    0.000    0.000    0.000    0.000    0.000 
#
# Total GULP energy -111356.978010 kJ/mol
# GULP energy per Si atom -5567.848901 kJ/mol
# Density = 2.059631 g / cm^3
# Si number density = 20.643293 Si / 1000 Ang^3
#
#
#
# Elastic Constant Matrix: (Units=GPa)
#
#
# Indices 1 2 3 4 5 6 
#
# 1 148.1120 32.3563 30.8525 -0.0067 -19.5561 0.0042
# 2 32.3563 125.2351 30.5453 -0.0087 -10.3603 -0.0004
# 3 30.8525 30.5453 49.8952 -0.0080 -2.8928 -0.0021
# 4 -0.0067 -0.0087 -0.0080 24.7663 -0.0035 -2.4251
# 5 -19.5561 -10.3603 -2.8928 -0.0035 21.8408 -0.0012
# 6 0.0042 -0.0004 -0.0021 -2.4251 -0.0012 3.5019
#
#
#
# Elastic Compliance Matrix: (Units=1/GPa)
#
#
# Indices 1 2 3 4 5 6 
#
# 1 0.008767 -0.000546 -0.004682 0.000001 0.006970 -0.000010
# 2 -0.000546 0.009730 -0.005421 0.000002 0.003408 0.000001
# 3 -0.004682 -0.005421 0.026064 0.000007 -0.003312 0.000024
# 4 0.000001 0.000002 0.000007 0.043315 0.000011 0.029996
# 5 0.006970 0.003408 -0.003312 0.000011 0.053205 0.000017
# 6 -0.000010 0.000001 0.000024 0.029996 0.000017 0.306330
#
#
# Mechanical properties :
#
#
# Convention : Reuss Voigt Hill
#
# Bulk Modulus (GPa) = 42.98999 56.75006 49.87002
# Shear Modulus (GPa) = 10.49395 25.32102 17.90748
#
# Velocity S-wave (km/s) = 2.25710 3.50608 2.94848
# Velocity P-wave (km/s) = 5.25957 6.62877 5.98346
#
# Compressibility (1/GPa) = 0.02326123
#
# Stress axis : x y z
#
# Youngs Moduli (GPa) = 114.06836 102.77071 38.36688
#
# Poissons Ratio (x) = 0.05615 0.17964
# Poissons Ratio (y) = 0.06232 0.20800
# Poissons Ratio (z) = 0.53410 0.55716
#
# Static dielectric constant tensor:
#      x y z
#    x 1.786360 -0.000010 0.050260 
#    y -0.000010 1.740970 -0.000010 
#    z 0.050260 -0.000010 1.781710 
# 
# From -- ./inp_files/170498.got.cif
#   From: 2010.05.17/outbox.cif.g08.bks.cpg/sg15_86_cif.got.tgz:170498.got - 2010.06.03 18:47:42.
