data_PCOD9289181
_publ_section_title
;
Structure prediction by ZEFSAII (Michael W. Deem and Ramdas Pophale) SiO2 
 PCOD9289181
Probable space group: C 2/C
;
_chemical_formula_sum "Si O2"
_cell_formula_units_Z 40
_cell_length_a 13.767831
_cell_length_b 23.905123
_cell_length_c 10.929305
_cell_angle_alpha 90.000000
_cell_angle_beta 35.098918
_cell_angle_gamma 90.000000
_cell_volume 2068.279354
_symmetry_space_group_name_H-M "C 2/C"
_symmetry_group_IT_number 15
_symmetry_cell_setting 'monoclinic'
loop_
_space_group_symop_operation_xyz
x,y,z
-x,y,1/2-z
-x,-y,-z
x,-y,1/2+z
1/2+x,1/2+y,z
1/2-x,1/2+y,1/2-z
1/2-x,1/2-y,-z
1/2+x,1/2-y,1/2+z
loop_
_atom_site_type_symbol
_atom_site_label
_atom_site_fract_x
_atom_site_fract_y
_atom_site_fract_z
Si Si1 0.897726 0.824470 0.672627
Si Si2 0.899254 0.516342 0.480608
Si Si3 0.675404 0.571180 0.088507
Si Si4 0.260985 0.381279 0.235596
Si Si5 0.515469 0.801157 0.088971
O O1 0.864357 0.868333 0.815120
O O2 0.050591 0.855435 0.441460
O O3 0.974279 0.764727 0.630200
O O4 0.701644 0.812208 0.839782
O O5 0.784260 0.462778 0.570976
O O6 0.797878 0.574029 0.604423
O O7 0.000000 0.500000 0.500000
O O8 0.000000 0.522778 0.250000
O O9 0.500000 0.539350 0.250000
O O10 0.745938 0.582186 0.882292
O O11 0.124878 0.332970 0.346942
O O12 0.500000 0.818622 0.250000
#
# Coordination Sequence:
#
# PCOD9289181 Si02
#       5
#     8   8   8   8   8
#     4  11  22  34  61  97 135 171 214 278 333 389
#     4  12  25  45  69  96 132 179 224 275 331 394
#     4  10  22  40  61  96 135 171 217 276 331 388
#     4  11  23  40  62  93 133 170 222 270 331 392
#     4  12  20  34  60  96 136 171 214 272 339 385
#
# _framework density 19.339748
#
# number of rings (size 3 to 8) (size 9 to 14) (size 15 to 20)
#    0.000    0.800    6.000    3.600    0.000    3.200 
#    3.600    0.000    0.000    1.200    0.000    0.000 
#    0.000    0.000    0.000    0.000    0.000    0.000 
#
# Total GULP energy -111371.908850 kJ/mol
# GULP energy per Si atom -5568.595443 kJ/mol
# Density = 1.929573 g / cm^3
# Si number density = 19.339748 Si / 1000 Ang^3
#
#
#
# Elastic Constant Matrix: (Units=GPa)
#
#
# Indices 1 2 3 4 5 6 
#
# 1 68.1423 35.2628 54.9154 0.0000 -13.1877 0.0000
# 2 35.2628 103.2511 55.0869 0.0000 -4.2054 0.0000
# 3 54.9154 55.0869 121.7907 -0.0001 -24.8014 0.0001
# 4 0.0000 0.0000 -0.0001 18.6025 0.0001 5.4847
# 5 -13.1877 -4.2054 -24.8014 0.0001 29.1665 -0.0001
# 6 0.0000 0.0000 0.0001 5.4847 -0.0001 -30.1973
#
#
#
# Elastic Compliance Matrix: (Units=1/GPa)
#
#
# Indices 1 2 3 4 5 6 
#
# 1 0.024023 -0.003466 -0.008653 0.000000 0.003005 0.000000
# 2 -0.003466 0.013607 -0.005456 0.000000 -0.004245 0.000000
# 3 -0.008653 -0.005456 0.016476 0.000000 0.009312 0.000000
# 4 0.000000 0.000000 0.000000 0.051024 0.000000 0.009267
# 5 0.003005 -0.004245 0.009312 0.000000 0.042950 0.000000
# 6 0.000000 0.000000 0.000000 0.009267 0.000000 -0.031432
#
#
# Mechanical properties :
#
#
# Convention : Reuss Voigt Hill
#
# Bulk Modulus (GPa) = 52.74997 64.85715 58.80356
# Shear Modulus (GPa) = 31.62221 13.37560 22.49891
#
# Velocity S-wave (km/s) = 4.04801 2.63271 3.41449
# Velocity P-wave (km/s) = 7.01307 6.54599 6.78355
#
# Compressibility (1/GPa) = 0.01895736
#
# Stress axis : x y z
#
# Youngs Moduli (GPa) = 41.62635 73.49213 60.69319
#
# Poissons Ratio (x) = 0.25471 0.52515
# Poissons Ratio (y) = 0.14427 0.33115
# Poissons Ratio (z) = 0.36017 0.40099
#
# Static dielectric constant tensor:
#      x y z
#    x 1.698160 0.000000 -0.061740 
#    y 0.000000 1.670530 0.000000 
#    z -0.061740 0.000000 1.795280 
# 
# From -- ./inp_files/41068.got.cif
#   From: 2010.05.17/outbox.cif.g08.bks.cpg/sg15_21_cif.got.tgz:41068.got - 2010.06.03 18:47:42.
