data_PCOD9289271
_publ_section_title
;
Structure prediction by ZEFSAII (Michael W. Deem and Ramdas Pophale) SiO2 
 PCOD9289271
Probable space group: C 2/C
;
_chemical_formula_sum "Si O2"
_cell_formula_units_Z 40
_cell_length_a 14.603035
_cell_length_b 22.819667
_cell_length_c 7.923537
_cell_angle_alpha 90.000000
_cell_angle_beta 45.811761
_cell_angle_gamma 90.000000
_cell_volume 1893.316410
_symmetry_space_group_name_H-M "C 2/C"
_symmetry_group_IT_number 15
_symmetry_cell_setting 'monoclinic'
loop_
_space_group_symop_operation_xyz
x,y,z
-x,y,1/2-z
-x,-y,-z
x,-y,1/2+z
1/2+x,1/2+y,z
1/2-x,1/2+y,1/2-z
1/2-x,1/2-y,-z
1/2+x,1/2-y,1/2+z
loop_
_atom_site_type_symbol
_atom_site_label
_atom_site_fract_x
_atom_site_fract_y
_atom_site_fract_z
Si Si1 0.849241 0.946824 0.760449
Si Si2 0.924473 0.446024 0.510397
Si Si3 0.000000 0.855356 0.750000
Si Si4 0.000000 0.952437 0.250000
Si Si5 0.096781 0.202142 0.787800
Si Si6 0.632367 0.165307 0.184206
O O1 0.879481 0.897467 0.860170
O O2 0.916591 0.923146 0.502540
O O3 0.911281 0.005077 0.754987
O O4 0.709041 0.966307 0.894101
O O5 0.887225 0.392006 0.677438
O O6 0.000000 0.423699 0.250000
O O7 0.000000 0.500000 0.500000
O O8 0.031414 0.819210 0.543171
O O9 0.228863 0.165926 0.586203
O O10 0.133770 0.270388 0.767806
O O11 0.000000 0.198427 0.750000
O O12 0.500000 0.166251 0.250000
#
# Coordination Sequence:
#
# PCOD9289271 Si02
#       6
#     8   8   4   4   8   8
#     4  10  22  40  62  99 127 179 230 281 345 408
#     4  12  26  42  65  97 139 190 232 284 349 434
#     4  11  24  38  78 104 130 178 235 298 352 420
#     4   9  20  40  64  86 136 168 223 294 336 402
#     4  10  23  47  71 104 140 181 233 295 357 417
#     4  10  24  45  69  98 142 183 227 296 357 420
#
# _framework density 21.126947999999999
#
# number of rings (size 3 to 8) (size 9 to 14) (size 15 to 20)
#    0.000    1.600    0.000    3.000    8.400    0.000 
#    3.600    4.000    0.000    0.000    0.000    0.000 
#    0.000    0.000    0.000    0.000    0.000    0.000 
#
# Total GULP energy -111549.057448 kJ/mol
# GULP energy per Si atom -5577.452872 kJ/mol
# Density = 2.107886 g / cm^3
# Si number density = 21.126948 Si / 1000 Ang^3
#
#
#
# Elastic Constant Matrix: (Units=GPa)
#
#
# Indices 1 2 3 4 5 6 
#
# 1 124.4950 38.0922 53.8884 0.0000 -19.7496 0.0000
# 2 38.0922 100.6021 42.2085 0.0000 4.9375 0.0000
# 3 53.8884 42.2085 109.9349 0.0000 1.1609 0.0000
# 4 0.0000 0.0000 0.0000 34.1155 0.0000 -6.7709
# 5 -19.7496 4.9375 1.1609 0.0000 42.1209 0.0000
# 6 0.0000 0.0000 0.0000 -6.7709 0.0000 5.3885
#
#
#
# Elastic Compliance Matrix: (Units=1/GPa)
#
#
# Indices 1 2 3 4 5 6 
#
# 1 0.011946 -0.002786 -0.004850 0.000000 0.006061 0.000000
# 2 -0.002786 0.012566 -0.003431 0.000000 -0.002685 0.000000
# 3 -0.004850 -0.003431 0.012814 0.000000 -0.002225 0.000000
# 4 0.000000 0.000000 0.000000 0.039051 0.000000 0.049070
# 5 0.006061 -0.002685 -0.002225 0.000000 0.026959 0.000000
# 6 0.000000 0.000000 0.000000 0.049070 0.000000 0.247240
#
#
# Mechanical properties :
#
#
# Convention : Reuss Voigt Hill
#
# Bulk Modulus (GPa) = 65.81924 67.04559 66.43242
# Shear Modulus (GPa) = 13.23541 29.71450 21.47496
#
# Velocity S-wave (km/s) = 2.50565 3.75437 3.19168
# Velocity P-wave (km/s) = 6.29229 7.11317 6.71528
#
# Compressibility (1/GPa) = 0.01519312
#
# Stress axis : x y z
#
# Youngs Moduli (GPa) = 83.71183 79.57902 78.03715
#
# Poissons Ratio (x) = 0.22169 0.37848
# Poissons Ratio (y) = 0.23320 0.26773
# Poissons Ratio (z) = 0.40601 0.27302
#
# Static dielectric constant tensor:
#      x y z
#    x 1.789260 0.000000 0.066420 
#    y 0.000000 1.799440 0.000000 
#    z 0.066420 0.000000 1.672400 
# 
# From -- ./inp_files/41973.got.cif
#   From: 2010.05.17/outbox.cif.g08.bks.cpg/sg15_21_cif.got.tgz:41973.got - 2010.06.03 18:47:42.
