data_PCOD9289123
_publ_section_title
;
Structure prediction by ZEFSAII (Michael W. Deem and Ramdas Pophale) SiO2 
 PCOD9289123
Probable space group: C 2/C
;
_chemical_formula_sum "Si O2"
_cell_formula_units_Z 48
_cell_length_a 18.312136
_cell_length_b 11.033598
_cell_length_c 11.994491
_cell_angle_alpha 90.000000
_cell_angle_beta 84.925363
_cell_angle_gamma 90.000000
_cell_volume 2413.972641
_symmetry_space_group_name_H-M "C 2/C"
_symmetry_group_IT_number 15
_symmetry_cell_setting 'monoclinic'
loop_
_space_group_symop_operation_xyz
x,y,z
-x,y,1/2-z
-x,-y,-z
x,-y,1/2+z
1/2+x,1/2+y,z
1/2-x,1/2+y,1/2-z
1/2-x,1/2-y,-z
1/2+x,1/2-y,1/2+z
loop_
_atom_site_type_symbol
_atom_site_label
_atom_site_fract_x
_atom_site_fract_y
_atom_site_fract_z
Si Si1 0.669680 0.597866 0.462708
Si Si2 0.759134 0.158156 0.600409
Si Si3 0.965480 0.754512 0.580467
Si Si4 0.053710 0.611710 0.144012
Si Si5 0.298003 0.246294 0.331404
Si Si6 0.909687 0.658112 0.821269
O O1 0.697164 0.462096 0.440292
O O2 0.585639 0.629942 0.442022
O O3 0.685778 0.642243 0.586779
O O4 0.722362 0.683590 0.379902
O O5 0.750000 0.250000 0.500000
O O6 0.796531 0.215392 0.703894
O O7 0.675348 0.136711 0.648304
O O8 0.966083 0.672376 0.470250
O O9 0.925430 0.689050 0.690467
O O10 0.049213 0.763787 0.613371
O O11 0.136161 0.653074 0.158527
O O12 0.052887 0.466722 0.144096
O O13 0.000000 0.653675 0.250000
#
# Coordination Sequence:
#
# PCOD9289123 Si02
#       6
#     8   8   8   8   8   8
#     4  10  22  44  66  90 135 177 214 272 336 401
#     4  12  27  40  69 100 129 173 229 272 317 407
#     4  10  22  40  60  94 134 174 208 272 352 380
#     4  11  22  37  65  95 128 167 217 282 321 390
#     4  10  23  41  65  95 132 171 215 273 345 384
#     4  11  22  37  65  98 130 166 221 274 324 396
#
# _framework density 19.884233999999999
#
# number of rings (size 3 to 8) (size 9 to 14) (size 15 to 20)
#    0.000    1.333    5.000    0.500    4.667    0.000 
#    0.000    0.833    3.667    0.000    0.000    0.000 
#    0.000    0.000    0.000    0.000    0.000    0.000 
#
# Total GULP energy -133922.010494 kJ/mol
# GULP energy per Si atom -5580.083771 kJ/mol
# Density = 1.983898 g / cm^3
# Si number density = 19.884234 Si / 1000 Ang^3
#
#
#
# Elastic Constant Matrix: (Units=GPa)
#
#
# Indices 1 2 3 4 5 6 
#
# 1 57.3358 1.1292 11.1967 0.0000 15.4570 0.0000
# 2 1.1292 65.7702 46.2019 0.0000 18.8111 0.0000
# 3 11.1967 46.2019 132.8754 0.0000 22.3842 0.0000
# 4 0.0000 0.0000 0.0000 7.8908 0.0000 -5.3985
# 5 15.4570 18.8111 22.3842 0.0000 21.3964 0.0000
# 6 0.0000 0.0000 0.0000 -5.3985 0.0000 25.4703
#
#
#
# Elastic Compliance Matrix: (Units=1/GPa)
#
#
# Indices 1 2 3 4 5 6 
#
# 1 0.023264 0.006117 -0.000425 0.000000 -0.021740 0.000000
# 2 0.006117 0.024970 -0.005772 0.000000 -0.020333 0.000000
# 3 -0.000425 -0.005772 0.010515 0.000000 -0.005619 0.000000
# 4 0.000000 0.000000 0.000000 0.148224 0.000000 0.031416
# 5 -0.021740 -0.020333 -0.005619 0.000000 0.086196 0.000000
# 6 0.000000 0.000000 0.000000 0.031416 0.000000 0.045920
#
#
# Mechanical properties :
#
#
# Convention : Reuss Voigt Hill
#
# Bulk Modulus (GPa) = 17.06813 41.44855 29.25834
# Shear Modulus (GPa) = 13.93612 24.11506 19.02559
#
# Velocity S-wave (km/s) = 2.65025 3.48627 3.09660
# Velocity P-wave (km/s) = 4.23881 6.09062 5.24705
#
# Compressibility (1/GPa) = 0.05858872
#
# Stress axis : x y z
#
# Youngs Moduli (GPa) = 42.98408 40.04835 95.09935
#
# Poissons Ratio (x) = -0.24497 0.04042
# Poissons Ratio (y) = -0.26293 0.54895
# Poissons Ratio (z) = 0.01827 0.23117
#
# Static dielectric constant tensor:
#      x y z
#    x 1.759280 0.000000 -0.009040 
#    y 0.000000 1.698830 0.000000 
#    z -0.009040 0.000000 1.681220 
# 
# From -- ./inp_files/103659.got.cif
#   From: 2010.05.17/outbox.cif.g08.bks.cpg/sg15_52_cif.got.tgz:103659.got - 2010.06.03 18:47:42.
