data_PCOD9289593
_publ_section_title
;
Structure prediction by ZEFSAII (Michael W. Deem and Ramdas Pophale) SiO2 
 PCOD9289593
Probable space group: C 2/C
;
_chemical_formula_sum "Si O2"
_cell_formula_units_Z 52
_cell_length_a 6.387184
_cell_length_b 17.587187
_cell_length_c 23.176972
_cell_angle_alpha 90.000000
_cell_angle_beta 94.536296
_cell_angle_gamma 90.000000
_cell_volume 2595.373776
_symmetry_space_group_name_H-M "C 2/C"
_symmetry_group_IT_number 15
_symmetry_cell_setting 'monoclinic'
loop_
_space_group_symop_operation_xyz
x,y,z
-x,y,1/2-z
-x,-y,-z
x,-y,1/2+z
1/2+x,1/2+y,z
1/2-x,1/2+y,1/2-z
1/2-x,1/2-y,-z
1/2+x,1/2-y,1/2+z
loop_
_atom_site_type_symbol
_atom_site_label
_atom_site_fract_x
_atom_site_fract_y
_atom_site_fract_z
Si Si1 0.876897 0.962667 0.405856
Si Si2 0.413957 0.914646 0.998901
Si Si3 0.176281 0.254254 0.147457
Si Si4 0.643715 0.121609 0.805595
Si Si5 0.028906 0.868905 0.930559
Si Si6 0.500000 0.279475 0.250000
Si Si7 0.327878 0.341517 0.045327
O O1 0.739690 0.919722 0.450407
O O2 0.752862 0.944489 0.344970
O O3 0.095654 0.917730 0.418939
O O4 0.909072 0.050299 0.422423
O O5 0.597895 0.857127 0.015808
O O6 0.273621 0.889913 0.941739
O O7 0.500000 0.000000 0.000000
O O8 0.035974 0.184168 0.123324
O O9 0.339355 0.237875 0.202793
O O10 0.313119 0.279232 0.094722
O O11 0.015431 0.322286 0.162571
O O12 0.500000 0.092632 0.750000
O O13 0.839589 0.169910 0.784718
O O14 0.962482 0.830007 0.990065
#
# Coordination Sequence:
#
# PCOD9289593 Si02
#       7
#     8   8   8   8   8   4   8
#     4  11  20  38  61  89 117 158 203 240 291 365
#     4  11  19  36  58  86 125 165 188 232 294 361
#     4  11  23  40  62  90 120 158 201 253 301 361
#     4  10  22  40  66  84 109 160 215 245 294 363
#     4  11  24  35  59  96 128 152 197 246 308 360
#     4  10  22  44  66  78 114 162 206 250 306 348
#     4  11  20  37  62  89 124 165 196 234 299 371
#
# _framework density 20.035651000000001
#
# number of rings (size 3 to 8) (size 9 to 14) (size 15 to 20)
#    0.000    1.231    6.154    1.385    0.000    1.846 
#    1.385    0.000    5.077    0.000    0.000    0.000 
#    0.000    0.000    0.000    0.000    0.000    0.000 
#
# Total GULP energy -144974.984798 kJ/mol
# GULP energy per Si atom -5575.960954 kJ/mol
# Density = 1.999005 g / cm^3
# Si number density = 20.035651 Si / 1000 Ang^3
#
#
#
# Elastic Constant Matrix: (Units=GPa)
#
#
# Indices 1 2 3 4 5 6 
#
# 1 81.6466 11.2986 38.3211 0.0000 28.1280 0.0000
# 2 11.2986 41.8763 30.8179 0.0000 17.2386 0.0000
# 3 38.3211 30.8179 105.2945 0.0000 41.0678 0.0000
# 4 0.0000 0.0000 0.0000 26.6157 0.0000 8.6497
# 5 28.1280 17.2386 41.0678 0.0000 40.3291 0.0000
# 6 0.0000 0.0000 0.0000 8.6497 0.0000 18.2273
#
#
#
# Elastic Compliance Matrix: (Units=1/GPa)
#
#
# Indices 1 2 3 4 5 6 
#
# 1 0.016580 0.001435 -0.002828 0.000000 -0.009298 0.000000
# 2 0.001435 0.031634 -0.006829 0.000000 -0.007569 0.000000
# 3 -0.002828 -0.006829 0.017613 0.000000 -0.013044 0.000000
# 4 0.000000 0.000000 0.000000 0.044423 0.000000 -0.021081
# 5 -0.009298 -0.007569 -0.013044 0.000000 0.047799 0.000000
# 6 0.000000 0.000000 0.000000 -0.021081 0.000000 0.064866
#
#
# Mechanical properties :
#
#
# Convention : Reuss Voigt Hill
#
# Bulk Modulus (GPa) = 20.24998 43.29915 31.77456
# Shear Modulus (GPa) = 19.54514 26.92642 23.23578
#
# Velocity S-wave (km/s) = 3.12672 3.66994 3.40916
# Velocity P-wave (km/s) = 4.81291 6.29411 5.60267
#
# Compressibility (1/GPa) = 0.04938277
#
# Stress axis : x y z
#
# Youngs Moduli (GPa) = 60.31507 31.61156 56.77782
#
# Poissons Ratio (x) = -0.04536 0.16055
# Poissons Ratio (y) = -0.08656 0.38774
# Poissons Ratio (z) = 0.17055 0.21588
#
# Static dielectric constant tensor:
#      x y z
#    x 1.815570 0.000000 -0.020600 
#    y 0.000000 1.737940 0.000000 
#    z -0.020600 0.000000 1.754810 
# 
# From -- ./inp_files/227551.got.cif
#   From: 2010.05.17/outbox.cif.g08.bks.cpg/sg15_114_cif.got.tgz:227551.got - 2010.06.03 18:47:42.
