data_PCOD9289476
_publ_section_title
;
Structure prediction by ZEFSAII (Michael W. Deem and Ramdas Pophale) SiO2 
 PCOD9289476
Probable space group: C 2/C
;
_chemical_formula_sum "Si O2"
_cell_formula_units_Z 64
_cell_length_a 18.117979
_cell_length_b 11.852034
_cell_length_c 21.746445
_cell_angle_alpha 90.000000
_cell_angle_beta 36.152422
_cell_angle_gamma 90.000000
_cell_volume 2754.833445
_symmetry_space_group_name_H-M "C 2/C"
_symmetry_group_IT_number 15
_symmetry_cell_setting 'monoclinic'
loop_
_space_group_symop_operation_xyz
x,y,z
-x,y,1/2-z
-x,-y,-z
x,-y,1/2+z
1/2+x,1/2+y,z
1/2-x,1/2+y,1/2-z
1/2-x,1/2-y,-z
1/2+x,1/2-y,1/2+z
loop_
_atom_site_type_symbol
_atom_site_label
_atom_site_fract_x
_atom_site_fract_y
_atom_site_fract_z
Si Si1 0.134322 0.225249 0.274760
Si Si2 0.046773 0.490874 0.552630
Si Si3 0.724754 0.422366 0.031942
Si Si4 0.649633 0.794847 0.659645
Si Si5 0.157399 0.117086 0.908041
Si Si6 0.013941 0.692627 0.976706
Si Si7 0.363527 0.659868 0.434353
Si Si8 0.225460 0.413667 0.732228
O O1 0.212438 0.317862 0.187216
O O2 0.222598 0.121678 0.235500
O O3 0.107866 0.264664 0.362481
O O4 0.002578 0.207272 0.330381
O O5 0.134178 0.461411 0.549173
O O6 0.076124 0.611966 0.503617
O O7 0.069832 0.392501 0.487718
O O8 0.902298 0.481592 0.667845
O O9 0.747911 0.367218 0.949227
O O10 0.652493 0.539866 0.087745
O O11 0.673246 0.329471 0.114449
O O12 0.500000 0.819707 0.750000
O O13 0.682861 0.822343 0.708614
O O14 0.055238 0.201246 0.947053
O O15 0.131240 0.121591 0.997613
O O16 0.172611 0.996465 0.867089
O O17 0.250000 0.750000 0.500000
#
# Coordination Sequence:
#
# PCOD9289476 Si02
#       8
#     8   8   8   8   8   8   8   8
#     4  11  24  44  66 104 134 172 231 281 342 400
#     4  11  21  40  70  92 135 179 226 273 346 410
#     4  11  23  45  66  98 135 178 225 277 341 409
#     4  11  24  44  68  99 135 179 229 274 341 414
#     4  11  23  43  68 100 135 177 229 279 348 408
#     4  10  22  40  64  99 133 173 219 287 337 404
#     4  11  26  47  70  99 139 181 225 286 347 408
#     4  12  23  43  71 100 133 184 227 287 340 411
#
# _framework density 23.231895000000002
#
# number of rings (size 3 to 8) (size 9 to 14) (size 15 to 20)
#    0.000    1.000    5.000    2.250    0.000    2.500 
#   11.250    0.000    0.000    0.000    0.000    0.000 
#    0.000    0.000    0.000    0.000    0.000    0.000 
#
# Total GULP energy -178533.826288 kJ/mol
# GULP energy per Si atom -5579.182072 kJ/mol
# Density = 2.317902 g / cm^3
# Si number density = 23.231895 Si / 1000 Ang^3
#
#
#
# Elastic Constant Matrix: (Units=GPa)
#
#
# Indices 1 2 3 4 5 6 
#
# 1 52.4042 11.1469 -5.8401 0.0000 -13.3536 0.0000
# 2 11.1469 86.2894 8.5413 -0.0001 -5.0502 0.0000
# 3 -5.8401 8.5413 68.6913 -0.0001 -2.4035 0.0000
# 4 0.0000 -0.0001 -0.0001 27.8914 0.0000 8.8228
# 5 -13.3536 -5.0502 -2.4035 0.0000 26.8829 0.0000
# 6 0.0000 0.0000 0.0000 8.8228 0.0000 17.2028
#
#
#
# Elastic Compliance Matrix: (Units=1/GPa)
#
#
# Indices 1 2 3 4 5 6 
#
# 1 0.022735 -0.002551 0.002637 0.000000 0.011049 0.000000
# 2 -0.002551 0.012137 -0.001696 0.000000 0.000861 0.000000
# 3 0.002637 -0.001696 0.015075 0.000000 0.002339 0.000000
# 4 0.000000 0.000000 0.000000 0.042796 0.000000 -0.021949
# 5 0.011049 0.000861 0.002339 0.000000 0.043058 0.000000
# 6 0.000000 0.000000 0.000000 -0.021949 0.000000 0.069387
#
#
# Mechanical properties :
#
#
# Convention : Reuss Voigt Hill
#
# Bulk Modulus (GPa) = 21.40166 26.12013 23.76089
# Shear Modulus (GPa) = 22.32311 27.29789 24.81050
#
# Velocity S-wave (km/s) = 3.10317 3.43157 3.27150
# Velocity P-wave (km/s) = 4.69806 5.19312 4.95178
#
# Compressibility (1/GPa) = 0.04672535
#
# Stress axis : x y z
#
# Youngs Moduli (GPa) = 43.98594 82.39454 66.33608
#
# Poissons Ratio (x) = 0.21020 -0.17491
# Poissons Ratio (y) = 0.11222 0.11250
# Poissons Ratio (z) = -0.11598 0.13973
#
# Static dielectric constant tensor:
#      x y z
#    x 1.928970 0.000000 -0.050190 
#    y 0.000000 1.979510 0.000000 
#    z -0.050190 0.000000 1.907640 
# 
# From -- ./inp_files/300830.got.cif
#   From: 2010.05.17/outbox.cif.g08.bks.cpg/sg15_151_cif.got.tgz:300830.got - 2010.06.03 18:47:42.
