data_PCOD9289830
_publ_section_title
;
Structure prediction by ZEFSAII (Michael W. Deem and Ramdas Pophale) SiO2 
 PCOD9289830
Probable space group: C 2/C
;
_chemical_formula_sum "Si O2"
_cell_formula_units_Z 64
_cell_length_a 15.214648
_cell_length_b 15.317114
_cell_length_c 16.498689
_cell_angle_alpha 90.000000
_cell_angle_beta 46.954193
_cell_angle_gamma 90.000000
_cell_volume 2809.905502
_symmetry_space_group_name_H-M "C 2/C"
_symmetry_group_IT_number 15
_symmetry_cell_setting 'monoclinic'
loop_
_space_group_symop_operation_xyz
x,y,z
-x,y,1/2-z
-x,-y,-z
x,-y,1/2+z
1/2+x,1/2+y,z
1/2-x,1/2+y,1/2-z
1/2-x,1/2-y,-z
1/2+x,1/2-y,1/2+z
loop_
_atom_site_type_symbol
_atom_site_label
_atom_site_fract_x
_atom_site_fract_y
_atom_site_fract_z
Si Si1 0.218195 0.680932 0.652412
Si Si2 0.578277 0.413298 0.273200
Si Si3 0.502043 0.679791 0.968074
Si Si4 0.271721 0.866033 0.599636
Si Si5 0.141804 0.499916 0.149936
Si Si6 0.813588 0.065250 0.182805
Si Si7 0.794002 0.441416 0.057965
Si Si8 0.945944 0.354147 0.085153
O O1 0.358280 0.679497 0.591084
O O2 0.203339 0.776499 0.621014
O O3 0.191965 0.599280 0.610944
O O4 0.131244 0.665199 0.785282
O O5 0.500000 0.451482 0.250000
O O6 0.505108 0.344533 0.372042
O O7 0.628868 0.482768 0.306324
O O8 0.694167 0.375354 0.153992
O O9 0.422829 0.610620 0.067238
O O10 0.443668 0.771906 0.026297
O O11 0.248538 0.872340 0.711554
O O12 0.412405 0.864373 0.487868
O O13 0.232686 0.962243 0.596923
O O14 0.213035 0.535541 0.182671
O O15 0.000000 0.492729 0.250000
O O16 0.162512 0.563158 0.060483
O O17 0.893454 0.434231 0.065824
#
# Coordination Sequence:
#
# PCOD9289830 Si02
#       8
#     8   8   8   8   8   8   8   8
#     4  11  22  42  65 102 134 184 232 288 354 403
#     4  11  23  40  66  99 136 175 225 289 348 408
#     4  11  22  40  71  99 139 181 229 291 347 415
#     4  10  22  40  68  96 132 183 235 289 345 414
#     4  12  25  42  70 101 143 186 233 285 345 423
#     4  11  22  43  69 101 136 182 238 277 355 419
#     4  11  23  41  62  97 137 179 232 286 341 416
#     4  11  21  42  69  95 140 179 236 285 345 411
#
# _framework density 22.776567
#
# number of rings (size 3 to 8) (size 9 to 14) (size 15 to 20)
#    0.000    1.000    3.750    3.750    1.750    0.500 
#    0.000    8.125    0.000    0.000    0.000    0.000 
#    0.000    0.000    0.000    0.000    0.000    0.000 
#
# Total GULP energy -178668.726726 kJ/mol
# GULP energy per Si atom -5583.397710 kJ/mol
# Density = 2.272473 g / cm^3
# Si number density = 22.776567 Si / 1000 Ang^3
#
#
#
# Elastic Constant Matrix: (Units=GPa)
#
#
# Indices 1 2 3 4 5 6 
#
# 1 66.9673 -0.7121 43.9715 0.0000 -4.7541 0.0000
# 2 -0.7121 53.7071 29.5094 0.0000 1.3962 0.0000
# 3 43.9715 29.5094 123.9213 0.0000 -10.8824 0.0000
# 4 0.0000 0.0000 0.0000 28.9383 0.0000 -0.6440
# 5 -4.7541 1.3962 -10.8824 0.0000 38.1688 0.0000
# 6 0.0000 0.0000 0.0000 -0.6440 0.0000 16.7034
#
#
#
# Elastic Compliance Matrix: (Units=1/GPa)
#
#
# Indices 1 2 3 4 5 6 
#
# 1 0.020540 0.004924 -0.008464 0.000000 -0.000035 0.000000
# 2 0.004924 0.022801 -0.007381 0.000000 -0.002325 0.000000
# 3 -0.008464 -0.007381 0.013089 0.000000 0.002948 0.000000
# 4 0.000000 0.000000 0.000000 0.034586 0.000000 0.001333
# 5 -0.000035 -0.002325 0.002948 0.000000 0.027121 0.000000
# 6 0.000000 0.000000 0.000000 0.001333 0.000000 0.059920
#
#
# Mechanical properties :
#
#
# Convention : Reuss Voigt Hill
#
# Bulk Modulus (GPa) = 28.91166 43.34815 36.12990
# Shear Modulus (GPa) = 23.64879 28.21722 25.93301
#
# Velocity S-wave (km/s) = 3.22575 3.52358 3.37795
# Velocity P-wave (km/s) = 5.15705 5.96887 5.57775
#
# Compressibility (1/GPa) = 0.03458812
#
# Stress axis : x y z
#
# Youngs Moduli (GPa) = 48.68546 43.85843 76.39791
#
# Poissons Ratio (x) = -0.21595 0.64662
# Poissons Ratio (y) = -0.23971 0.56388
# Poissons Ratio (z) = 0.41207 0.32371
#
# Static dielectric constant tensor:
#      x y z
#    x 1.844660 0.000000 0.010220 
#    y 0.000000 1.942360 0.000000 
#    z 0.010220 0.000000 1.903390 
# 
# From -- ./inp_files/155472.got.cif
#   From: 2010.05.17/outbox.cif.g08.bks.cpg/sg15_78_cif.got.tgz:155472.got - 2010.06.03 18:47:42.
