data_PCOD9289201
_publ_section_title
;
Structure prediction by ZEFSAII (Michael W. Deem and Ramdas Pophale) SiO2 
 PCOD9289201
Probable space group: C 2/C
;
_chemical_formula_sum "Si O2"
_cell_formula_units_Z 64
_cell_length_a 14.475557
_cell_length_b 10.985285
_cell_length_c 17.743028
_cell_angle_alpha 90.000000
_cell_angle_beta 105.343960
_cell_angle_gamma 90.000000
_cell_volume 2720.890988
_symmetry_space_group_name_H-M "C 2/C"
_symmetry_group_IT_number 15
_symmetry_cell_setting 'monoclinic'
loop_
_space_group_symop_operation_xyz
x,y,z
-x,y,1/2-z
-x,-y,-z
x,-y,1/2+z
1/2+x,1/2+y,z
1/2-x,1/2+y,1/2-z
1/2-x,1/2-y,-z
1/2+x,1/2-y,1/2+z
loop_
_atom_site_type_symbol
_atom_site_label
_atom_site_fract_x
_atom_site_fract_y
_atom_site_fract_z
Si Si1 0.124156 0.985474 0.089707
Si Si2 0.697335 0.039730 0.755939
Si Si3 0.226226 0.391832 0.952726
Si Si4 0.921371 0.421711 0.129011
Si Si5 0.424060 0.863910 0.857610
Si Si6 0.976012 0.100028 0.659095
Si Si7 0.732653 0.664695 0.876987
Si Si8 0.139084 0.258645 0.501364
O O1 0.206524 0.967020 0.172462
O O2 0.116883 0.870177 0.034049
O O3 0.026912 0.992223 0.113749
O O4 0.162745 0.092031 0.045268
O O5 0.612980 0.089546 0.792237
O O6 0.717124 0.126848 0.688664
O O7 0.662293 0.909554 0.715075
O O8 0.171859 0.516738 0.930154
O O9 0.192126 0.300747 0.880011
O O10 0.207248 0.350029 0.033138
O O11 0.002846 0.522388 0.133613
O O12 0.928252 0.298717 0.082886
O O13 0.476841 0.736076 0.847156
O O14 0.382487 0.848987 0.932730
O O15 0.862462 0.087343 0.631176
O O16 0.000000 0.073496 0.750000
O O17 0.250000 0.250000 0.500000
#
# Coordination Sequence:
#
# PCOD9289201 Si02
#       8
#     8   8   8   8   8   8   8   8
#     4  10  23  39  61  93 126 166 210 258 317 386
#     4  11  22  37  62  95 127 162 209 268 322 373
#     4  10  22  40  62  88 130 164 215 258 314 384
#     4  11  21  42  62  98 128 162 219 266 314 386
#     4  11  24  38  68  96 126 169 213 267 321 370
#     4  11  21  39  65  94 123 162 213 259 311 383
#     4  11  23  40  65  91 123 167 212 260 315 376
#     4  11  21  38  62  94 130 166 205 267 319 378
#
# _framework density 23.521706999999999
#
# number of rings (size 3 to 8) (size 9 to 14) (size 15 to 20)
#    0.000    1.250    5.000    2.250    1.750    0.500 
#    2.250    0.000    0.000    0.000    0.000    0.000 
#    0.000    0.000    0.000    0.000    0.000    0.000 
#
# Total GULP energy -178593.386832 kJ/mol
# GULP energy per Si atom -5581.043338 kJ/mol
# Density = 2.346817 g / cm^3
# Si number density = 23.521707 Si / 1000 Ang^3
#
#
#
# Elastic Constant Matrix: (Units=GPa)
#
#
# Indices 1 2 3 4 5 6 
#
# 1 87.7591 20.0374 39.6575 0.0000 -27.8466 0.0000
# 2 20.0374 52.9725 41.3331 0.0000 -7.9198 0.0000
# 3 39.6575 41.3331 166.7205 0.0000 -39.7074 0.0000
# 4 0.0000 0.0000 0.0000 12.2525 0.0000 6.4890
# 5 -27.8466 -7.9198 -39.7074 0.0000 40.5278 0.0000
# 6 0.0000 0.0000 0.0000 6.4890 0.0000 31.8086
#
#
#
# Elastic Compliance Matrix: (Units=1/GPa)
#
#
# Indices 1 2 3 4 5 6 
#
# 1 0.015526 -0.004134 -0.000417 0.000000 0.009451 0.000000
# 2 -0.004134 0.024572 -0.006054 0.000000 -0.003970 0.000000
# 3 -0.000417 -0.006054 0.009454 0.000000 0.007793 0.000000
# 4 0.000000 0.000000 0.000000 0.091502 0.000000 -0.018667
# 5 0.009451 -0.003970 0.007793 0.000000 0.038028 0.000000
# 6 0.000000 0.000000 0.000000 -0.018667 0.000000 0.035246
#
#
# Mechanical properties :
#
#
# Convention : Reuss Voigt Hill
#
# Bulk Modulus (GPa) = 35.28428 56.61201 45.94814
# Shear Modulus (GPa) = 20.40929 30.67940 25.54434
#
# Velocity S-wave (km/s) = 2.94883 3.61543 3.29901
# Velocity P-wave (km/s) = 5.16018 6.44583 5.83850
#
# Compressibility (1/GPa) = 0.02834124
#
# Stress axis : x y z
#
# Youngs Moduli (GPa) = 64.40669 40.69711 105.77229
#
# Poissons Ratio (x) = 0.16826 0.04413
# Poissons Ratio (y) = 0.26628 0.64034
# Poissons Ratio (z) = 0.02687 0.24638
#
# Static dielectric constant tensor:
#      x y z
#    x 1.952250 0.000000 0.049830 
#    y 0.000000 1.946730 0.000000 
#    z 0.049830 0.000000 1.913350 
# 
# From -- ./inp_files/204465.got.cif
#   From: 2010.05.17/outbox.cif.g08.bks.cpg/sg15_103_cif.got.tgz:204465.got - 2010.06.03 18:47:42.
