data_PCOD9289583
_publ_section_title
;
Structure prediction by ZEFSAII (Michael W. Deem and Ramdas Pophale) SiO2 
 PCOD9289583
Probable space group: C 2/C
;
_chemical_formula_sum "Si O2"
_cell_formula_units_Z 60
_cell_length_a 18.412600
_cell_length_b 20.874447
_cell_length_c 11.638191
_cell_angle_alpha 90.000000
_cell_angle_beta 39.204218
_cell_angle_gamma 90.000000
_cell_volume 2827.430837
_symmetry_space_group_name_H-M "C 2/C"
_symmetry_group_IT_number 15
_symmetry_cell_setting 'monoclinic'
loop_
_space_group_symop_operation_xyz
x,y,z
-x,y,1/2-z
-x,-y,-z
x,-y,1/2+z
1/2+x,1/2+y,z
1/2-x,1/2+y,1/2-z
1/2-x,1/2-y,-z
1/2+x,1/2-y,1/2+z
loop_
_atom_site_type_symbol
_atom_site_label
_atom_site_fract_x
_atom_site_fract_y
_atom_site_fract_z
Si Si1 0.901834 0.567047 0.705329
Si Si2 0.403305 0.462595 0.181033
Si Si3 0.761199 0.136474 0.748104
Si Si4 0.152382 0.424148 0.815214
Si Si5 0.500000 0.368579 0.250000
Si Si6 0.242499 0.175701 0.483276
Si Si7 0.782044 0.915492 0.883843
Si Si8 0.637703 0.708065 0.088252
O O1 0.857390 0.615374 0.661782
O O2 0.862616 0.493634 0.727411
O O3 0.037221 0.575630 0.533320
O O4 0.835215 0.588806 0.900044
O O5 0.334345 0.428451 0.163710
O O6 0.462563 0.411489 0.189756
O O7 0.333211 0.513823 0.341832
O O8 0.500000 0.500000 0.000000
O O9 0.749695 0.149576 0.896452
O O10 0.823194 0.187606 0.589309
O O11 0.171461 0.366451 0.700825
O O12 0.254693 0.416320 0.782033
O O13 0.383914 0.330994 0.417674
O O14 0.250000 0.250000 0.500000
O O15 0.858498 0.856720 0.837477
O O16 0.500000 0.729965 0.250000
O O17 0.750000 0.750000 0.000000
#
# Coordination Sequence:
#
# PCOD9289583 Si02
#       8
#     8   8   8   8   4   8   8   8
#     4  10  22  40  66 102 145 179 233 300 364 447
#     4  11  21  36  68  99 137 166 219 292 360 426
#     4  10  23  44  63 103 134 177 232 290 364 415
#     4  11  23  40  69 102 139 193 235 290 371 430
#     4  10  24  40  64  98 126 178 222 284 350 412
#     4  11  26  46  66  95 140 186 244 286 350 439
#     4  11  23  41  69 104 140 180 241 296 371 425
#     4  11  27  48  73 102 142 190 245 299 359 440
#
# _framework density 21.220677999999999
#
# number of rings (size 3 to 8) (size 9 to 14) (size 15 to 20)
#    0.000    1.333    1.333    3.600    6.533    4.800 
#    0.000    0.000    0.000    0.000    0.000    0.000 
#    0.000    0.000    0.000    0.000    0.000    0.000 
#
# Total GULP energy -167038.470957 kJ/mol
# GULP energy per Si atom -5567.949032 kJ/mol
# Density = 2.117238 g / cm^3
# Si number density = 21.220678 Si / 1000 Ang^3
#
#
#
# Elastic Constant Matrix: (Units=GPa)
#
#
# Indices 1 2 3 4 5 6 
#
# 1 96.4655 30.0840 17.2497 0.0000 -6.4032 0.0000
# 2 30.0840 81.4874 35.5392 0.0000 -8.3285 0.0000
# 3 17.2497 35.5392 75.5385 0.0000 -11.7296 0.0000
# 4 0.0000 0.0000 0.0000 23.4049 0.0000 4.7177
# 5 -6.4032 -8.3285 -11.7296 0.0000 29.4014 0.0000
# 6 0.0000 0.0000 0.0000 4.7177 0.0000 28.8669
#
#
#
# Elastic Compliance Matrix: (Units=1/GPa)
#
#
# Indices 1 2 3 4 5 6 
#
# 1 0.011793 -0.003948 -0.000651 0.000000 0.001190 0.000000
# 2 -0.003948 0.016831 -0.006833 0.000000 0.001182 0.000000
# 3 -0.000651 -0.006833 0.017354 0.000000 0.004846 0.000000
# 4 0.000000 0.000000 0.000000 0.044182 0.000000 -0.007220
# 5 0.001190 0.001182 0.004846 0.000000 0.036539 0.000000
# 6 0.000000 0.000000 0.000000 -0.007220 0.000000 0.035822
#
#
# Mechanical properties :
#
#
# Convention : Reuss Voigt Hill
#
# Bulk Modulus (GPa) = 43.26504 46.58192 44.92348
# Shear Modulus (GPa) = 25.89475 27.70922 26.80198
#
# Velocity S-wave (km/s) = 3.49701 3.61746 3.55774
# Velocity P-wave (km/s) = 6.06118 6.28067 6.17190
#
# Compressibility (1/GPa) = 0.02311335
#
# Stress axis : x y z
#
# Youngs Moduli (GPa) = 84.79524 59.41594 57.62281
#
# Poissons Ratio (x) = 0.23460 0.03749
# Poissons Ratio (y) = 0.33481 0.39375
# Poissons Ratio (z) = 0.05516 0.40600
#
# Static dielectric constant tensor:
#      x y z
#    x 1.699060 0.000000 -0.031360 
#    y 0.000000 1.807280 0.000000 
#    z -0.031360 0.000000 1.794780 
# 
# From -- ./inp_files/107632.got.cif
#   From: 2010.05.17/outbox.cif.g08.bks.cpg/sg15_54_cif.got.tgz:107632.got - 2010.06.03 18:47:42.
