data_PCOD9289876
_publ_section_title
;
Structure prediction by ZEFSAII (Michael W. Deem and Ramdas Pophale) SiO2 
 PCOD9289876
Probable space group: C 2/C
;
_chemical_formula_sum "Si O2"
_cell_formula_units_Z 52
_cell_length_a 10.256679
_cell_length_b 14.908568
_cell_length_c 23.353580
_cell_angle_alpha 90.000000
_cell_angle_beta 134.379420
_cell_angle_gamma 90.000000
_cell_volume 2552.316287
_symmetry_space_group_name_H-M "C 2/C"
_symmetry_group_IT_number 15
_symmetry_cell_setting 'monoclinic'
loop_
_space_group_symop_operation_xyz
x,y,z
-x,y,1/2-z
-x,-y,-z
x,-y,1/2+z
1/2+x,1/2+y,z
1/2-x,1/2+y,1/2-z
1/2-x,1/2-y,-z
1/2+x,1/2-y,1/2+z
loop_
_atom_site_type_symbol
_atom_site_label
_atom_site_fract_x
_atom_site_fract_y
_atom_site_fract_z
Si Si1 0.992933 0.753883 0.465501
Si Si2 0.044264 0.476094 0.376881
Si Si3 0.319741 0.730314 0.355200
Si Si4 0.188607 0.068983 0.834979
Si Si5 0.779635 0.899975 0.023727
Si Si6 0.420873 0.221320 0.662266
Si Si7 0.000000 0.411702 0.750000
O O1 0.779406 0.736844 0.396236
O O2 0.054684 0.769801 0.549794
O O3 0.051475 0.841757 0.447633
O O4 0.113028 0.671417 0.478741
O O5 0.871450 0.475567 0.366490
O O6 0.986475 0.528241 0.302168
O O7 0.212438 0.524583 0.459555
O O8 0.093251 0.375368 0.373184
O O9 0.215303 0.825986 0.325850
O O10 0.440696 0.724821 0.335513
O O11 0.174373 0.651567 0.311788
O O12 0.000000 0.035611 0.750000
O O13 0.182231 0.063176 0.901455
O O14 0.500000 0.210378 0.750000
#
# Coordination Sequence:
#
# PCOD9289876 Si02
#       7
#     8   8   8   8   8   8   4
#     4  10  22  41  66  94 122 167 219 257 322 385
#     4  11  24  42  59  95 133 164 213 267 320 376
#     4  10  22  41  67  89 125 172 214 264 315 388
#     4  10  22  41  66  94 127 171 212 261 324 387
#     4  10  22  40  69  92 125 170 213 264 315 391
#     4  11  25  40  63  93 129 168 211 271 322 377
#     4  12  22  42  64  92 128 166 220 266 320 380
#
# _framework density 20.373650000000001
#
# number of rings (size 3 to 8) (size 9 to 14) (size 15 to 20)
#    0.000    1.538    3.077    0.923    6.462    0.615 
#    5.538    0.000    0.000    0.000    0.000    0.000 
#    0.000    0.000    0.000    0.000    0.000    0.000 
#
# Total GULP energy -145416.745967 kJ/mol
# GULP energy per Si atom -5592.951768 kJ/mol
# Density = 2.032728 g / cm^3
# Si number density = 20.373650 Si / 1000 Ang^3
#
#
#
# Elastic Constant Matrix: (Units=GPa)
#
#
# Indices 1 2 3 4 5 6 
#
# 1 65.5649 -8.9077 20.8240 0.0000 -20.1938 0.0000
# 2 -8.9077 20.8601 -6.9378 0.0000 -5.0184 0.0000
# 3 20.8240 -6.9378 64.0206 0.0000 -2.8148 0.0000
# 4 0.0000 0.0000 0.0000 -7.1833 0.0000 9.9211
# 5 -20.1938 -5.0184 -2.8148 0.0000 34.3678 0.0000
# 6 0.0000 0.0000 0.0000 9.9211 0.0000 13.7185
#
#
#
# Elastic Compliance Matrix: (Units=1/GPa)
#
#
# Indices 1 2 3 4 5 6 
#
# 1 0.023196 0.011607 -0.005634 0.000000 0.014863 0.000000
# 2 0.011607 0.057673 0.003156 0.000000 0.015500 0.000000
# 3 -0.005634 0.003156 0.017733 0.000000 -0.001397 0.000000
# 4 0.000000 0.000000 0.000000 -0.069647 0.000000 0.050368
# 5 0.014863 0.015500 -0.001397 0.000000 0.039979 0.000000
# 6 0.000000 0.000000 0.000000 0.050368 0.000000 0.036469
#
#
# Mechanical properties :
#
#
# Convention : Reuss Voigt Hill
#
# Bulk Modulus (GPa) = 8.55712 17.82250 13.18981
# Shear Modulus (GPa) = 39.65177 17.87841 28.76509
#
# Velocity S-wave (km/s) = 4.41639 2.96552 3.76157
# Velocity P-wave (km/s) = 5.49684 4.52687 5.03527
#
# Compressibility (1/GPa) = 0.11686172
#
# Stress axis : x y z
#
# Youngs Moduli (GPa) = 43.11073 17.33899 56.39201
#
# Poissons Ratio (x) = -0.20126 0.31769
# Poissons Ratio (y) = -0.50040 -0.17797
# Poissons Ratio (z) = 0.24287 -0.05472
#
# Static dielectric constant tensor:
#      x y z
#    x 1.701850 0.000000 -0.003810 
#    y 0.000000 1.722660 0.000000 
#    z -0.003810 0.000000 1.679100 
# 
# From -- ./inp_files/182920.got.cif
#   From: 2010.05.17/outbox.cif.g08.bks.cpg/sg15_92_cif.got.tgz:182920.got - 2010.06.03 18:47:42.
