data_PCOD9289697
_publ_section_title
;
Structure prediction by ZEFSAII (Michael W. Deem and Ramdas Pophale) SiO2 
 PCOD9289697
Probable space group: C 2/C
;
_chemical_formula_sum "Si O2"
_cell_formula_units_Z 64
_cell_length_a 16.661304
_cell_length_b 16.365639
_cell_length_c 15.414352
_cell_angle_alpha 90.000000
_cell_angle_beta 41.059607
_cell_angle_gamma 90.000000
_cell_volume 2760.764430
_symmetry_space_group_name_H-M "C 2/C"
_symmetry_group_IT_number 15
_symmetry_cell_setting 'monoclinic'
loop_
_space_group_symop_operation_xyz
x,y,z
-x,y,1/2-z
-x,-y,-z
x,-y,1/2+z
1/2+x,1/2+y,z
1/2-x,1/2+y,1/2-z
1/2-x,1/2-y,-z
1/2+x,1/2-y,1/2+z
loop_
_atom_site_type_symbol
_atom_site_label
_atom_site_fract_x
_atom_site_fract_y
_atom_site_fract_z
Si Si1 0.126657 0.305698 0.089599
Si Si2 0.664359 0.322107 0.904488
Si Si3 0.195626 0.108019 0.796426
Si Si4 0.265925 0.540305 0.548050
Si Si5 0.855183 0.299864 0.628495
Si Si6 0.487418 0.437849 0.350993
Si Si7 0.141682 0.627742 0.130065
Si Si8 0.911772 0.642405 0.516776
O O1 0.180618 0.394257 0.070350
O O2 0.000000 0.289821 0.250000
O O3 0.250000 0.250000 0.000000
O O4 0.105124 0.300171 0.003935
O O5 0.720831 0.334280 0.763602
O O6 0.776255 0.311199 0.881445
O O7 0.590511 0.239302 0.964953
O O8 0.585363 0.391779 0.012876
O O9 0.186533 0.077289 0.900841
O O10 0.158175 0.204941 0.827420
O O11 0.337135 0.101824 0.654076
O O12 0.117063 0.055552 0.792199
O O13 0.393233 0.509856 0.400801
O O14 0.180671 0.461325 0.630990
O O15 0.943732 0.366507 0.603014
O O16 0.500000 0.389017 0.250000
O O17 0.000000 0.647807 0.250000
O O18 0.162160 0.626007 0.010338
#
# Coordination Sequence:
#
# PCOD9289697 Si02
#       8
#     8   8   8   8   8   8   8   8
#     4  12  27  49  76 104 144 188 247 309 361 424
#     4  10  22  40  67 101 140 177 231 295 354 424
#     4  11  22  43  68  97 139 175 230 301 346 421
#     4  11  25  47  65  97 139 187 230 286 347 426
#     4  11  23  43  72 104 130 182 241 293 363 418
#     4  11  24  45  69 106 143 187 233 289 364 429
#     4  11  22  41  61  95 134 179 221 271 351 422
#     4  11  22  40  68 100 138 177 233 291 359 421
#
# _framework density 23.181985000000001
#
# number of rings (size 3 to 8) (size 9 to 14) (size 15 to 20)
#    0.000    1.000    3.750    3.375    1.750    2.000 
#   11.250    1.250    0.000    0.000    0.000    0.000 
#    0.000    0.000    0.000    0.000    0.000    0.000 
#
# Total GULP energy -178316.166611 kJ/mol
# GULP energy per Si atom -5572.380207 kJ/mol
# Density = 2.312922 g / cm^3
# Si number density = 23.181985 Si / 1000 Ang^3
#
#
#
# Elastic Constant Matrix: (Units=GPa)
#
#
# Indices 1 2 3 4 5 6 
#
# 1 76.5358 13.9322 -6.0039 0.0000 7.3004 0.0000
# 2 13.9322 50.0556 14.9744 0.0000 -1.7879 0.0000
# 3 -6.0039 14.9744 107.4196 0.0000 1.6691 0.0000
# 4 0.0000 0.0000 0.0000 6.9033 0.0000 13.5354
# 5 7.3004 -1.7879 1.6691 0.0000 41.8489 0.0000
# 6 0.0000 0.0000 0.0000 13.5354 0.0000 21.2497
#
#
#
# Elastic Compliance Matrix: (Units=1/GPa)
#
#
# Indices 1 2 3 4 5 6 
#
# 1 0.014263 -0.004507 0.001468 0.000000 -0.002739 0.000000
# 2 -0.004507 0.022314 -0.003392 0.000000 0.001875 0.000000
# 3 0.001468 -0.003392 0.009876 0.000000 -0.000795 0.000000
# 4 0.000000 0.000000 0.000000 -0.581922 0.000000 0.370668
# 5 -0.002739 0.001875 -0.000795 0.000000 0.024485 0.000000
# 6 0.000000 0.000000 0.000000 0.370668 0.000000 -0.189046
#
#
# Mechanical properties :
#
#
# Convention : Reuss Voigt Hill
#
# Bulk Modulus (GPa) = 29.76891 31.09070 30.42980
# Shear Modulus (GPa) = -7.39676 28.07424 10.33874
#
# Velocity S-wave (km/s) = -1.78820 3.48377 2.11412
# Velocity P-wave (km/s) = 2.93355 5.44269 4.37199
#
# Compressibility (1/GPa) = 0.03359210
#
# Stress axis : x y z
#
# Youngs Moduli (GPa) = 70.11339 44.81538 101.25065
#
# Poissons Ratio (x) = 0.20197 -0.14863
# Poissons Ratio (y) = 0.31598 0.34340
# Poissons Ratio (z) = -0.10292 0.15200
#
# Static dielectric constant tensor:
#      x y z
#    x 1.939830 0.000000 -0.039360 
#    y 0.000000 1.867980 0.000000 
#    z -0.039360 0.000000 2.007200 
# 
# From -- ./inp_files/163251.got.cif
#   From: 2010.05.17/outbox.cif.g08.bks.cpg/sg15_82_cif.got.tgz:163251.got - 2010.06.03 18:47:42.
