data_PCOD9289010
_publ_section_title
;
Structure prediction by ZEFSAII (Michael W. Deem and Ramdas Pophale) SiO2 
 PCOD9289010
Probable space group: C 2/C
;
_chemical_formula_sum "Si O2"
_cell_formula_units_Z 60
_cell_length_a 27.063656
_cell_length_b 13.609899
_cell_length_c 20.750913
_cell_angle_alpha 90.000000
_cell_angle_beta 159.472382
_cell_angle_gamma 90.000000
_cell_volume 2680.176335
_symmetry_space_group_name_H-M "C 2/C"
_symmetry_group_IT_number 15
_symmetry_cell_setting 'monoclinic'
loop_
_space_group_symop_operation_xyz
x,y,z
-x,y,1/2-z
-x,-y,-z
x,-y,1/2+z
1/2+x,1/2+y,z
1/2-x,1/2+y,1/2-z
1/2-x,1/2-y,-z
1/2+x,1/2-y,1/2+z
loop_
_atom_site_type_symbol
_atom_site_label
_atom_site_fract_x
_atom_site_fract_y
_atom_site_fract_z
Si Si1 0.539062 0.710551 0.229976
Si Si2 0.450128 0.953987 0.872486
Si Si3 0.500000 0.382290 0.250000
Si Si4 0.299847 0.467136 0.118960
Si Si5 0.321255 0.098781 0.619353
Si Si6 0.427701 0.447793 0.505357
Si Si7 0.724829 0.131932 0.651041
Si Si8 0.198119 0.842860 0.601746
O O1 0.500000 0.758570 0.250000
O O2 0.585819 0.806219 0.248346
O O3 0.671894 0.645855 0.415999
O O4 0.427299 0.638404 0.059756
O O5 0.358801 0.858533 0.776981
O O6 0.342605 0.026138 0.704747
O O7 0.586791 0.932562 0.997032
O O8 0.500000 0.000000 0.000000
O O9 0.396276 0.439381 0.173812
O O10 0.601838 0.325312 0.421749
O O11 0.404559 0.532229 0.291600
O O12 0.260275 0.379031 0.118530
O O13 0.166726 0.526165 0.928161
O O14 0.353059 0.406810 0.351285
O O15 0.356570 0.553575 0.435171
O O16 0.691189 0.242782 0.632402
#
# Coordination Sequence:
#
# PCOD9289010 Si02
#       8
#     8   8   4   8   8   8   8   8
#     4  10  22  39  74 100 128 181 232 283 348 419
#     4  12  26  46  68 101 149 183 222 297 363 417
#     4  10  22  46  74  94 130 190 230 284 336 422
#     4  10  23  44  73  98 138 182 236 290 347 416
#     4  10  23  43  65 106 133 174 229 290 353 402
#     4  10  23  46  69 101 140 183 232 289 343 426
#     4  12  28  43  69 108 140 187 236 284 355 423
#     4  11  25  46  72  98 138 192 232 282 350 420
#
# _framework density 22.386586999999999
#
# number of rings (size 3 to 8) (size 9 to 14) (size 15 to 20)
#    0.000    1.333    2.667    1.200   14.000    1.600 
#    0.000    0.000    0.000    0.000    0.000    0.000 
#    0.000    0.000    0.000    0.000    0.000    0.000 
#
# Total GULP energy -167077.582339 kJ/mol
# GULP energy per Si atom -5569.252745 kJ/mol
# Density = 2.233563 g / cm^3
# Si number density = 22.386587 Si / 1000 Ang^3
#
#
#
# Elastic Constant Matrix: (Units=GPa)
#
#
# Indices 1 2 3 4 5 6 
#
# 1 70.3766 37.5445 21.6481 0.0000 -11.3786 0.0000
# 2 37.5445 108.8507 34.8218 0.0000 -17.3209 0.0000
# 3 21.6481 34.8218 83.5022 -0.0002 -20.7713 -0.0001
# 4 0.0000 0.0000 -0.0002 22.5542 -0.0001 8.2842
# 5 -11.3786 -17.3209 -20.7713 -0.0001 32.8874 -0.0001
# 6 0.0000 0.0000 -0.0001 8.2842 -0.0001 13.4696
#
#
#
# Elastic Compliance Matrix: (Units=1/GPa)
#
#
# Indices 1 2 3 4 5 6 
#
# 1 0.017947 -0.005219 -0.001917 0.000000 0.002250 0.000000
# 2 -0.005219 0.012432 -0.003146 0.000000 0.002755 0.000000
# 3 -0.001917 -0.003146 0.015669 0.000000 0.007576 0.000000
# 4 0.000000 0.000000 0.000000 0.057277 0.000000 -0.035227
# 5 0.002250 0.002755 0.007576 0.000000 0.037421 0.000000
# 6 0.000000 0.000000 0.000000 -0.035227 0.000000 0.095906
#
#
# Mechanical properties :
#
#
# Convention : Reuss Voigt Hill
#
# Bulk Modulus (GPa) = 39.23921 50.08424 44.66172
# Shear Modulus (GPa) = 18.81749 25.02992 21.92371
#
# Velocity S-wave (km/s) = 2.90240 3.34739 3.13281
# Velocity P-wave (km/s) = 5.36638 6.11237 5.75148
#
# Compressibility (1/GPa) = 0.02548472
#
# Stress axis : x y z
#
# Youngs Moduli (GPa) = 55.71999 80.43896 63.81946
#
# Poissons Ratio (x) = 0.41981 0.12232
# Poissons Ratio (y) = 0.29080 0.20077
# Poissons Ratio (z) = 0.10679 0.25306
#
# Static dielectric constant tensor:
#      x y z
#    x 1.955620 0.000000 0.112690 
#    y 0.000000 1.891700 0.000000 
#    z 0.112690 0.000000 1.894800 
# 
# From -- ./inp_files/257889.got.cif
#   From: 2010.05.17/outbox.cif.g08.bks.cpg/sg15_129_cif.got.tgz:257889.got - 2010.06.03 18:47:42.
