data_PCOD9289097
_publ_section_title
;
Structure prediction by ZEFSAII (Michael W. Deem and Ramdas Pophale) SiO2 
 PCOD9289097
Probable space group: C 2/C
;
_chemical_formula_sum "Si O2"
_cell_formula_units_Z 36
_cell_length_a 10.031679
_cell_length_b 22.478351
_cell_length_c 7.327312
_cell_angle_alpha 90.000000
_cell_angle_beta 55.327597
_cell_angle_gamma 90.000000
_cell_volume 1358.862278
_symmetry_space_group_name_H-M "C 2/C"
_symmetry_group_IT_number 15
_symmetry_cell_setting 'monoclinic'
loop_
_space_group_symop_operation_xyz
x,y,z
-x,y,1/2-z
-x,-y,-z
x,-y,1/2+z
1/2+x,1/2+y,z
1/2-x,1/2+y,1/2-z
1/2-x,1/2-y,-z
1/2+x,1/2-y,1/2+z
loop_
_atom_site_type_symbol
_atom_site_label
_atom_site_fract_x
_atom_site_fract_y
_atom_site_fract_z
Si Si1 0.500000 0.020777 0.750000
Si Si2 0.671111 0.679657 0.898401
Si Si3 0.172007 0.416157 0.789344
Si Si4 0.519873 0.431324 0.449463
Si Si5 0.290110 0.298060 0.705388
O O1 0.554955 0.062846 0.542005
O O2 0.643611 0.971932 0.674272
O O3 0.677010 0.608490 0.868112
O O4 0.754638 0.728179 0.705173
O O5 0.726454 0.692119 0.061568
O O6 0.479798 0.692646 0.016366
O O7 0.361996 0.413288 0.690247
O O8 0.166361 0.348067 0.722954
O O9 0.500000 0.420687 0.250000
O O10 0.500000 0.500000 0.500000
#
# Coordination Sequence:
#
# PCOD9289097 Si02
#       5
#     4   8   8   8   8
#     4  10  22  40  60  88 128 158 208 248 318 368
#     4   9  20  38  61  90 123 162 209 256 308 373
#     4  10  22  40  60  91 120 164 202 258 306 375
#     4  11  24  40  64  93 126 165 208 262 314 374
#     4   9  19  39  62  90 122 162 210 255 311 372
#
# _framework density 26.492753
#
# number of rings (size 3 to 8) (size 9 to 14) (size 15 to 20)
#    0.000    2.222    0.000    1.333    9.333    3.556 
#   10.000    2.222    0.000    0.000    0.000    0.000 
#    0.000    0.000    0.000    0.000    0.000    0.000 
#
# Total GULP energy -100296.938695 kJ/mol
# GULP energy per Si atom -5572.052150 kJ/mol
# Density = 2.643245 g / cm^3
# Si number density = 26.492753 Si / 1000 Ang^3
#
#
#
# Elastic Constant Matrix: (Units=GPa)
#
#
# Indices 1 2 3 4 5 6 
#
# 1 45.6688 16.2067 -8.4165 0.0000 -12.6822 0.0000
# 2 16.2067 182.7601 18.4605 0.0000 -7.2835 0.0000
# 3 -8.4165 18.4605 50.1271 0.0000 7.8480 0.0000
# 4 0.0000 0.0000 0.0000 38.5193 0.0000 -2.8668
# 5 -12.6822 -7.2835 7.8480 0.0000 35.2628 0.0000
# 6 0.0000 0.0000 0.0000 -2.8668 0.0000 36.2469
#
#
#
# Elastic Compliance Matrix: (Units=1/GPa)
#
#
# Indices 1 2 3 4 5 6 
#
# 1 0.025643 -0.002359 0.003944 0.000000 0.007857 0.000000
# 2 -0.002359 0.006000 -0.002763 0.000000 0.001006 0.000000
# 3 0.003944 -0.002763 0.022273 0.000000 -0.004109 0.000000
# 4 0.000000 0.000000 0.000000 0.026115 0.000000 0.002065
# 5 0.007857 0.001006 -0.004109 0.000000 0.032307 0.000000
# 6 0.000000 0.000000 0.000000 0.002065 0.000000 0.027752
#
#
# Mechanical properties :
#
#
# Convention : Reuss Voigt Hill
#
# Bulk Modulus (GPa) = 19.39529 36.78416 28.08973
# Shear Modulus (GPa) = 31.32211 38.82614 35.07413
#
# Velocity S-wave (km/s) = 3.44217 3.83239 3.64251
# Velocity P-wave (km/s) = 4.80988 5.78772 5.32131
#
# Compressibility (1/GPa) = 0.05155892
#
# Stress axis : x y z
#
# Youngs Moduli (GPa) = 38.99715 166.66490 44.89840
#
# Poissons Ratio (x) = 0.39320 -0.17709
# Poissons Ratio (y) = 0.09200 0.12407
# Poissons Ratio (z) = -0.15381 0.46054
#
# Static dielectric constant tensor:
#      x y z
#    x 2.213380 0.000000 0.042640 
#    y 0.000000 1.255390 0.000000 
#    z 0.042640 0.000000 2.097190 
# 
# From -- ./inp_files/31700.got.cif
#   From: 2010.05.17/outbox.cif.g08.bks.cpg/sg15_16_cif.got.tgz:31700.got - 2010.06.03 18:47:42.
