data_PCOD9289768
_publ_section_title
;
Structure prediction by ZEFSAII (Michael W. Deem and Ramdas Pophale) SiO2 
 PCOD9289768
Probable space group: C 2/C
;
_chemical_formula_sum "Si O2"
_cell_formula_units_Z 28
_cell_length_a 14.395389
_cell_length_b 16.348262
_cell_length_c 8.314919
_cell_angle_alpha 90.000000
_cell_angle_beta 145.702015
_cell_angle_gamma 90.000000
_cell_volume 1102.667622
_symmetry_space_group_name_H-M "C 2/C"
_symmetry_group_IT_number 15
_symmetry_cell_setting 'monoclinic'
loop_
_space_group_symop_operation_xyz
x,y,z
-x,y,1/2-z
-x,-y,-z
x,-y,1/2+z
1/2+x,1/2+y,z
1/2-x,1/2+y,1/2-z
1/2-x,1/2-y,-z
1/2+x,1/2-y,1/2+z
loop_
_atom_site_type_symbol
_atom_site_label
_atom_site_fract_x
_atom_site_fract_y
_atom_site_fract_z
Si Si1 0.608397 0.421584 0.702430
Si Si2 0.000000 0.630503 0.250000
Si Si3 0.066301 0.779759 0.185878
Si Si4 0.813748 0.527075 0.203969
O O1 0.500000 0.500000 0.500000
O O2 0.499564 0.339133 0.545445
O O3 0.746451 0.421146 0.757121
O O4 0.700686 0.450464 0.995461
O O5 0.841846 0.579366 0.079562
O O6 0.030121 0.692842 0.441784
O O7 0.250000 0.750000 0.500000
O O8 0.000000 0.826613 0.250000
O O9 0.000000 0.500000 0.500000
#
# Coordination Sequence:
#
# PCOD9289768 Si02
#       4
#     8   4   8   8
#     4  12  24  42  69 110 139 191 245 299 363 441
#     4  10  22  42  70  98 140 192 234 286 380 416
#     4  10  22  40  68 100 139 192 239 292 370 430
#     4  12  24  45  72 105 147 189 246 302 364 445
#
# _framework density 25.392963000000002
#
# number of rings (size 3 to 8) (size 9 to 14) (size 15 to 20)
#    0.857    0.000    2.857    6.000    0.000    0.000 
#    0.000    1.429    0.000    3.429    0.000    0.000 
#    0.000    0.000    0.000    0.000    0.000    0.000 
#
# Total GULP energy -77989.001268 kJ/mol
# GULP energy per Si atom -5570.642948 kJ/mol
# Density = 2.533517 g / cm^3
# Si number density = 25.392963 Si / 1000 Ang^3
#
#
#
# Elastic Constant Matrix: (Units=GPa)
#
#
# Indices 1 2 3 4 5 6 
#
# 1 111.4829 11.9366 7.6916 0.0000 10.3947 0.0000
# 2 11.9366 134.6464 55.7917 0.0000 1.5496 0.0000
# 3 7.6916 55.7917 142.7838 0.0000 4.3681 0.0000
# 4 0.0000 0.0000 0.0000 54.9021 0.0000 -3.8960
# 5 10.3947 1.5496 4.3681 0.0000 31.0942 0.0000
# 6 0.0000 0.0000 0.0000 -3.8960 0.0000 42.0795
#
#
#
# Elastic Compliance Matrix: (Units=1/GPa)
#
#
# Indices 1 2 3 4 5 6 
#
# 1 0.009344 -0.000744 -0.000119 0.000000 -0.003070 0.000000
# 2 -0.000744 0.008921 -0.003455 0.000000 0.000289 0.000000
# 3 -0.000119 -0.003455 0.008389 0.000000 -0.000967 0.000000
# 4 0.000000 0.000000 0.000000 0.018335 0.000000 0.001698
# 5 -0.003070 0.000289 -0.000967 0.000000 0.033308 0.000000
# 6 0.000000 0.000000 0.000000 0.001698 0.000000 0.023922
#
#
# Mechanical properties :
#
#
# Convention : Reuss Voigt Hill
#
# Bulk Modulus (GPa) = 55.49379 59.97254 57.73317
# Shear Modulus (GPa) = 42.78632 46.51470 44.65051
#
# Velocity S-wave (km/s) = 4.10929 4.28459 4.19785
# Velocity P-wave (km/s) = 6.66457 6.93873 6.80303
#
# Compressibility (1/GPa) = 0.01802003
#
# Stress axis : x y z
#
# Youngs Moduli (GPa) = 107.01983 112.09643 119.19788
#
# Poissons Ratio (x) = 0.08338 0.01416
# Poissons Ratio (y) = 0.07960 0.41178
# Poissons Ratio (z) = 0.01271 0.38724
#
# Static dielectric constant tensor:
#      x y z
#    x 2.208850 0.000000 0.021070 
#    y 0.000000 2.212980 0.000000 
#    z 0.021070 0.000000 2.051500 
# 
# From -- ./inp_files/41145.got.cif
#   From: 2010.05.17/outbox.cif.g08.bks.cpg/sg15_21_cif.got.tgz:41145.got - 2010.06.03 18:47:42.
