data_PCOD9289800
_publ_section_title
;
Structure prediction by ZEFSAII (Michael W. Deem and Ramdas Pophale) SiO2 
 PCOD9289800
Probable space group: C 2/C
;
_chemical_formula_sum "Si O2"
_cell_formula_units_Z 28
_cell_length_a 7.529708
_cell_length_b 13.913813
_cell_length_c 9.835565
_cell_angle_alpha 90.000000
_cell_angle_beta 84.086630
_cell_angle_gamma 90.000000
_cell_volume 1024.958952
_symmetry_space_group_name_H-M "C 2/C"
_symmetry_group_IT_number 15
_symmetry_cell_setting 'monoclinic'
loop_
_space_group_symop_operation_xyz
x,y,z
-x,y,1/2-z
-x,-y,-z
x,-y,1/2+z
1/2+x,1/2+y,z
1/2-x,1/2+y,1/2-z
1/2-x,1/2-y,-z
1/2+x,1/2-y,1/2+z
loop_
_atom_site_type_symbol
_atom_site_label
_atom_site_fract_x
_atom_site_fract_y
_atom_site_fract_z
Si Si1 0.122901 0.487535 0.860209
Si Si2 0.348203 0.757309 0.656644
Si Si3 0.000000 0.028295 0.250000
Si Si4 0.100946 0.210387 0.405146
O O1 0.138497 0.372572 0.848739
O O2 0.327204 0.523319 0.828677
O O3 0.000000 0.526081 0.750000
O O4 0.000000 0.500000 0.000000
O O5 0.500000 0.722563 0.750000
O O6 0.169751 0.740265 0.758939
O O7 0.417194 0.723921 0.503489
O O8 0.915278 0.098459 0.140129
O O9 0.250000 0.250000 0.500000
#
# Coordination Sequence:
#
# PCOD9289800 Si02
#       4
#     8   8   4   8
#     4  10  22  42  62  89 128 175 224 269 316 387
#     4   8  16  33  57  81 124 155 192 256 317 371
#     4  10  22  40  68  90 132 174 202 272 336 370
#     4   9  17  33  57  92 122 160 200 255 322 392
#
# _framework density 27.318165
#
# number of rings (size 3 to 8) (size 9 to 14) (size 15 to 20)
#    0.000    2.857    0.000    1.714    0.000    5.714 
#    7.714    0.000    3.143    0.000    0.000    0.000 
#    0.000    0.000    0.000    0.000    0.000    0.000 
#
# Total GULP energy -78088.205393 kJ/mol
# GULP energy per Si atom -5577.728957 kJ/mol
# Density = 2.725599 g / cm^3
# Si number density = 27.318165 Si / 1000 Ang^3
#
#
#
# Elastic Constant Matrix: (Units=GPa)
#
#
# Indices 1 2 3 4 5 6 
#
# 1 241.9158 33.1012 122.1348 0.0000 -75.3545 0.0000
# 2 33.1012 82.8070 14.6541 0.0000 -5.7181 0.0000
# 3 122.1348 14.6541 330.6761 0.0000 -65.0141 0.0000
# 4 0.0000 0.0000 0.0000 29.5467 0.0000 -19.4219
# 5 -75.3545 -5.7181 -65.0141 0.0000 68.4603 0.0000
# 6 0.0000 0.0000 0.0000 -19.4219 0.0000 17.6617
#
#
#
# Elastic Compliance Matrix: (Units=1/GPa)
#
#
# Indices 1 2 3 4 5 6 
#
# 1 0.007052 -0.002156 -0.001252 0.000000 0.006393 0.000000
# 2 -0.002156 0.012852 -0.000035 0.000000 -0.001333 0.000000
# 3 -0.001252 -0.000035 0.003955 0.000000 0.002375 0.000000
# 4 0.000000 0.000000 0.000000 0.122114 0.000000 0.134284
# 5 0.006393 -0.001333 0.002375 0.000000 0.023788 0.000000
# 6 0.000000 0.000000 0.000000 0.134284 0.000000 0.204287
#
#
# Mechanical properties :
#
#
# Convention : Reuss Voigt Hill
#
# Bulk Modulus (GPa) = 58.91901 110.57547 84.74724
# Shear Modulus (GPa) = 12.93349 55.50099 34.21724
#
# Velocity S-wave (km/s) = 2.17823 4.51227 3.54297
# Velocity P-wave (km/s) = 5.28590 8.22875 6.91567
#
# Compressibility (1/GPa) = 0.01697245
#
# Stress axis : x y z
#
# Youngs Moduli (GPa) = 141.79724 77.80704 252.83975
#
# Poissons Ratio (x) = 0.16775 0.31662
# Poissons Ratio (y) = 0.30572 0.00894
# Poissons Ratio (z) = 0.17757 0.00275
#
# Static dielectric constant tensor:
#      x y z
#    x 2.228280 0.000000 0.004440 
#    y 0.000000 2.277510 0.000000 
#    z 0.004440 0.000000 2.177850 
# 
# From -- ./inp_files/21892.got.cif
#   From: 2010.05.17/outbox.cif.g08.bks.cpg/sg15_11_cif.got.tgz:21892.got - 2010.06.03 18:47:42.
