data_PCOD9289462
_publ_section_title
;
Structure prediction by ZEFSAII (Michael W. Deem and Ramdas Pophale) SiO2 
 PCOD9289462
Probable space group: C 2/C
;
_chemical_formula_sum "Si O2"
_cell_formula_units_Z 56
_cell_length_a 17.288599
_cell_length_b 20.832784
_cell_length_c 20.656372
_cell_angle_alpha 90.000000
_cell_angle_beta 158.757515
_cell_angle_gamma 90.000000
_cell_volume 2695.556391
_symmetry_space_group_name_H-M "C 2/C"
_symmetry_group_IT_number 15
_symmetry_cell_setting 'monoclinic'
loop_
_space_group_symop_operation_xyz
x,y,z
-x,y,1/2-z
-x,-y,-z
x,-y,1/2+z
1/2+x,1/2+y,z
1/2-x,1/2+y,1/2-z
1/2-x,1/2-y,-z
1/2+x,1/2-y,1/2+z
loop_
_atom_site_type_symbol
_atom_site_label
_atom_site_fract_x
_atom_site_fract_y
_atom_site_fract_z
Si Si1 0.067126 0.899764 0.060797
Si Si2 0.754549 0.058846 0.535630
Si Si3 0.126247 0.004770 0.502552
Si Si4 0.250630 0.289925 0.767999
Si Si5 0.925309 0.303564 0.621690
Si Si6 0.834901 0.467914 0.921344
Si Si7 0.450739 0.160504 0.922143
O O1 0.227473 0.877553 0.242572
O O2 0.910337 0.949907 0.972460
O O3 0.926600 0.841950 0.924235
O O4 0.189442 0.934002 0.096204
O O5 0.747944 0.028385 0.458383
O O6 0.664000 0.130038 0.476135
O O7 0.000000 0.061806 0.750000
O O8 0.645675 0.009213 0.498980
O O9 0.898733 0.025291 0.293059
O O10 0.373552 0.229001 0.833386
O O11 0.116979 0.273875 0.728747
O O12 0.069197 0.318126 0.579743
O O13 0.750000 0.250000 0.500000
O O14 0.000000 0.324802 0.750000
O O15 0.000000 0.500000 0.000000
O O16 0.887751 0.393686 0.977992
#
# Coordination Sequence:
#
# PCOD9289462 Si02
#       7
#     8   8   8   8   8   8   8
#     4  11  23  40  66  97 132 171 220 272 323 396
#     4  10  24  41  65  98 134 171 213 268 330 392
#     4  10  22  40  64  97 134 167 217 274 329 390
#     4  12  25  41  64  96 129 175 224 271 325 399
#     4  12  26  40  60  88 136 179 215 260 328 400
#     4  11  21  39  66  96 129 175 219 272 326 393
#     4  12  24  40  67  92 127 168 222 271 328 382
#
# _framework density 20.774932
#
# number of rings (size 3 to 8) (size 9 to 14) (size 15 to 20)
#    0.000    0.857    4.286    3.000    4.000    1.143 
#    0.000    0.000    0.000    0.857    3.714    0.000 
#    0.000    0.000    0.000    0.000    0.000    0.000 
#
# Total GULP energy -156208.273256 kJ/mol
# GULP energy per Si atom -5578.866902 kJ/mol
# Density = 2.072765 g / cm^3
# Si number density = 20.774932 Si / 1000 Ang^3
#
#
#
# Elastic Constant Matrix: (Units=GPa)
#
#
# Indices 1 2 3 4 5 6 
#
# 1 71.7606 41.6729 -0.2297 -0.0518 -7.5224 0.0273
# 2 41.6729 155.9349 32.2945 -0.0621 6.0246 -0.0083
# 3 -0.2297 32.2945 86.6454 -0.0608 -4.6916 -0.0242
# 4 -0.0518 -0.0621 -0.0608 34.1976 -0.0153 4.2540
# 5 -7.5224 6.0246 -4.6916 -0.0153 19.8610 0.0316
# 6 0.0273 -0.0083 -0.0242 4.2540 0.0316 20.1899
#
#
#
# Elastic Compliance Matrix: (Units=1/GPa)
#
#
# Indices 1 2 3 4 5 6 
#
# 1 0.018300 -0.005815 0.002721 0.000032 0.009338 -0.000045
# 2 -0.005815 0.008949 -0.003664 -0.000004 -0.005783 0.000017
# 3 0.002721 -0.003664 0.013199 0.000024 0.005260 -0.000003
# 4 0.000032 -0.000004 0.000024 0.030029 0.000052 -0.006327
# 5 0.009338 -0.005783 0.005260 0.000052 0.056884 -0.000109
# 6 -0.000045 0.000017 -0.000003 -0.006327 -0.000109 0.050863
#
#
# Mechanical properties :
#
#
# Convention : Reuss Voigt Hill
#
# Bulk Modulus (GPa) = 37.12933 51.31291 44.22112
# Shear Modulus (GPa) = 24.91081 30.88992 27.90036
#
# Velocity S-wave (km/s) = 3.46653 3.86020 3.66865
# Velocity P-wave (km/s) = 5.82524 6.67991 6.26716
#
# Compressibility (1/GPa) = 0.02693288
#
# Stress axis : x y z
#
# Youngs Moduli (GPa) = 54.64588 111.74211 75.76324
#
# Poissons Ratio (x) = 0.64977 -0.20619
# Poissons Ratio (y) = 0.31776 0.27760
# Poissons Ratio (z) = -0.14872 0.40943
#
# Static dielectric constant tensor:
#      x y z
#    x 1.759900 -0.000390 0.006380 
#    y -0.000390 2.044970 0.000030 
#    z 0.006380 0.000030 1.735710 
# 
# From -- ./inp_files/250064.got.cif
#   From: 2010.05.17/outbox.cif.g08.bks.cpg/sg15_126_cif.got.tgz:250064.got - 2010.06.03 18:47:42.
