data_PCOD9289172
_publ_section_title
;
Structure prediction by ZEFSAII (Michael W. Deem and Ramdas Pophale) SiO2 
 PCOD9289172
Probable space group: C 2/C
;
_chemical_formula_sum "Si O2"
_cell_formula_units_Z 56
_cell_length_a 21.744738
_cell_length_b 18.676632
_cell_length_c 8.334216
_cell_angle_alpha 90.000000
_cell_angle_beta 56.357560
_cell_angle_gamma 90.000000
_cell_volume 2817.782894
_symmetry_space_group_name_H-M "C 2/C"
_symmetry_group_IT_number 15
_symmetry_cell_setting 'monoclinic'
loop_
_space_group_symop_operation_xyz
x,y,z
-x,y,1/2-z
-x,-y,-z
x,-y,1/2+z
1/2+x,1/2+y,z
1/2-x,1/2+y,1/2-z
1/2-x,1/2-y,-z
1/2+x,1/2-y,1/2+z
loop_
_atom_site_type_symbol
_atom_site_label
_atom_site_fract_x
_atom_site_fract_y
_atom_site_fract_z
Si Si1 0.148218 0.912034 0.520963
Si Si2 0.720490 0.474938 0.729889
Si Si3 0.458086 0.192345 0.969780
Si Si4 0.208331 0.339393 0.712136
Si Si5 0.000000 0.833550 0.750000
Si Si6 0.000000 0.377708 0.750000
Si Si7 0.841244 0.401495 0.047992
Si Si8 0.259938 0.209946 0.816740
O O1 0.198015 0.941427 0.593908
O O2 0.069234 0.883613 0.689488
O O3 0.191130 0.843281 0.389541
O O4 0.151861 0.977476 0.391485
O O5 0.746898 0.409150 0.798642
O O6 0.789115 0.529907 0.630700
O O7 0.370967 0.173633 0.086375
O O8 0.484830 0.166278 0.106813
O O9 0.500000 0.161505 0.750000
O O10 0.525098 0.277383 0.575320
O O11 0.186857 0.354371 0.561038
O O12 0.258023 0.271875 0.687301
O O13 0.074345 0.421066 0.604794
O O14 0.828846 0.344954 0.210629
O O15 0.250000 0.250000 0.000000
#
# Coordination Sequence:
#
# PCOD9289172 Si02
#       8
#     8   8   8   8   4   4   8   8
#     4  11  23  41  63  90 129 169 219 264 325 388
#     4  11  23  40  63  90 128 174 215 262 320 393
#     4   9  21  38  63  96 130 165 211 273 330 384
#     4  11  20  40  61  93 124 165 215 269 321 376
#     4  10  22  42  63  93 130 166 220 266 326 394
#     4  10  22  40  61  93 138 166 210 268 338 388
#     4  10  24  40  59  94 133 163 212 264 320 400
#     4  11  21  35  67  94 117 165 215 268 318 378
#
# _framework density 19.873781000000001
#
# number of rings (size 3 to 8) (size 9 to 14) (size 15 to 20)
#    0.429    1.143    4.286    0.429    4.000    0.571 
#    1.286    2.857    0.000    0.857    0.000    0.000 
#    0.000    0.000    0.000    0.000    0.000    0.000 
#
# Total GULP energy -156013.732511 kJ/mol
# GULP energy per Si atom -5571.919018 kJ/mol
# Density = 1.982855 g / cm^3
# Si number density = 19.873781 Si / 1000 Ang^3
#
#
#
# Elastic Constant Matrix: (Units=GPa)
#
#
# Indices 1 2 3 4 5 6 
#
# 1 33.2860 11.3014 0.9978 0.0000 -2.0885 0.0000
# 2 11.3014 97.2014 16.9379 0.0000 -8.3646 0.0000
# 3 0.9978 16.9379 47.8459 0.0000 -5.0275 0.0000
# 4 0.0000 0.0000 0.0000 23.6968 0.0000 1.3365
# 5 -2.0885 -8.3646 -5.0275 0.0000 38.5205 0.0000
# 6 0.0000 0.0000 0.0000 1.3365 0.0000 13.6281
#
#
#
# Elastic Compliance Matrix: (Units=1/GPa)
#
#
# Indices 1 2 3 4 5 6 
#
# 1 0.031335 -0.003689 0.000757 0.000000 0.000997 0.000000
# 2 -0.003689 0.011538 -0.003818 0.000000 0.001807 0.000000
# 3 0.000757 -0.003818 0.022461 0.000000 0.002144 0.000000
# 4 0.000000 0.000000 0.000000 0.042434 0.000000 -0.004162
# 5 0.000997 0.001807 0.002144 0.000000 0.026686 0.000000
# 6 0.000000 0.000000 0.000000 -0.004162 0.000000 0.073786
#
#
# Mechanical properties :
#
#
# Convention : Reuss Voigt Hill
#
# Bulk Modulus (GPa) = 19.29210 26.31195 22.80202
# Shear Modulus (GPa) = 20.91888 25.10882 23.01385
#
# Velocity S-wave (km/s) = 3.24788 3.55831 3.40663
# Velocity P-wave (km/s) = 4.87784 5.49094 5.19344
#
# Compressibility (1/GPa) = 0.05183470
#
# Stress axis : x y z
#
# Youngs Moduli (GPa) = 31.91303 86.67285 44.52085
#
# Poissons Ratio (x) = 0.31978 -0.03372
# Poissons Ratio (y) = 0.11774 0.16996
# Poissons Ratio (z) = -0.02417 0.33088
#
# Static dielectric constant tensor:
#      x y z
#    x 1.700850 0.000000 0.003250 
#    y 0.000000 1.690560 0.000000 
#    z 0.003250 0.000000 1.790320 
# 
# From -- ./inp_files/62705.got.cif
#   From: 2010.05.17/outbox.cif.g08.bks.cpg/sg15_32_cif.got.tgz:62705.got - 2010.06.03 18:47:42.
