data_PCOD9289338
_publ_section_title
;
Structure prediction by ZEFSAII (Michael W. Deem and Ramdas Pophale) SiO2 
 PCOD9289338
Probable space group: C 2/C
;
_chemical_formula_sum "Si O2"
_cell_formula_units_Z 40
_cell_length_a 12.103939
_cell_length_b 10.969851
_cell_length_c 27.581418
_cell_angle_alpha 90.000000
_cell_angle_beta 28.761809
_cell_angle_gamma 90.000000
_cell_volume 1762.146848
_symmetry_space_group_name_H-M "C 2/C"
_symmetry_group_IT_number 15
_symmetry_cell_setting 'monoclinic'
loop_
_space_group_symop_operation_xyz
x,y,z
-x,y,1/2-z
-x,-y,-z
x,-y,1/2+z
1/2+x,1/2+y,z
1/2-x,1/2+y,1/2-z
1/2-x,1/2-y,-z
1/2+x,1/2-y,1/2+z
loop_
_atom_site_type_symbol
_atom_site_label
_atom_site_fract_x
_atom_site_fract_y
_atom_site_fract_z
Si Si1 0.460434 0.488309 0.707861
Si Si2 0.852582 0.881550 0.071865
Si Si3 0.412139 0.872932 0.508216
Si Si4 0.911341 0.863665 0.427233
Si Si5 0.464999 0.952895 0.387163
O O1 0.500000 0.499318 0.750000
O O2 0.637109 0.387419 0.620428
O O3 0.525543 0.609798 0.652451
O O4 0.194773 0.466634 0.797500
O O5 0.970504 0.754482 0.010585
O O6 0.620019 0.898085 0.130613
O O7 0.863190 0.870253 0.125786
O O8 0.000000 0.000000 0.000000
O O9 0.500555 0.862791 0.419133
O O10 0.500000 0.000000 0.500000
O O11 0.750000 0.750000 0.500000
O O12 0.746921 0.971431 0.509419
#
# Coordination Sequence:
#
# PCOD9289338 Si02
#       5
#     8   8   8   8   8
#     4  11  23  39  65  98 129 176 238 278 330 403
#     4  10  22  42  66  96 138 174 216 283 358 402
#     4  11  21  41  70  97 130 178 233 283 327 412
#     4  10  23  41  66  94 135 179 220 279 343 407
#     4  10  22  40  63  96 133 172 223 279 341 407
#
# _framework density 22.699583000000001
#
# number of rings (size 3 to 8) (size 9 to 14) (size 15 to 20)
#    0.000    1.600    2.000    3.000    0.000    2.400 
#    0.000    0.000    0.000    0.000    0.000    0.000 
#    0.000    0.000    0.000    0.000    0.000    0.000 
#
# Total GULP energy -111459.290737 kJ/mol
# GULP energy per Si atom -5572.964537 kJ/mol
# Density = 2.264792 g / cm^3
# Si number density = 22.699583 Si / 1000 Ang^3
#
#
#
# Elastic Constant Matrix: (Units=GPa)
#
#
# Indices 1 2 3 4 5 6 
#
# 1 125.8603 20.5870 31.1188 -0.0002 -19.7186 0.0002
# 2 20.5870 96.0321 2.9707 0.0001 2.5901 0.0001
# 3 31.1188 2.9707 82.3668 -0.0026 -5.6676 0.0003
# 4 -0.0002 0.0001 -0.0026 13.1513 -0.0003 1.8957
# 5 -19.7186 2.5901 -5.6676 -0.0003 30.1342 0.0001
# 6 0.0002 0.0001 0.0003 1.8957 0.0001 22.3158
#
#
#
# Elastic Compliance Matrix: (Units=1/GPa)
#
#
# Indices 1 2 3 4 5 6 
#
# 1 0.010095 -0.002228 -0.003309 0.000000 0.006175 0.000000
# 2 -0.002228 0.010945 0.000286 0.000000 -0.002345 0.000000
# 3 -0.003309 0.000286 0.013403 0.000003 0.000331 0.000000
# 4 0.000000 0.000000 0.000003 0.076981 0.000001 -0.006540
# 5 0.006175 -0.002345 0.000331 0.000001 0.037490 0.000000
# 6 0.000000 0.000000 0.000000 -0.006540 0.000000 0.045367
#
#
# Mechanical properties :
#
#
# Convention : Reuss Voigt Hill
#
# Bulk Modulus (GPa) = 41.76904 45.95693 43.86298
# Shear Modulus (GPa) = 23.50012 29.75910 26.62961
#
# Velocity S-wave (km/s) = 3.22105 3.62470 3.42882
# Velocity P-wave (km/s) = 5.68104 6.14879 5.91954
#
# Compressibility (1/GPa) = 0.02394118
#
# Stress axis : x y z
#
# Youngs Moduli (GPa) = 99.05503 91.36328 74.60799
#
# Poissons Ratio (x) = 0.20359 0.24687
# Poissons Ratio (y) = 0.22074 -0.02132
# Poissons Ratio (z) = 0.32776 -0.02611
#
# Static dielectric constant tensor:
#      x y z
#    x 2.162450 0.000000 0.017060 
#    y 0.000000 1.938300 0.000000 
#    z 0.017060 0.000000 1.895860 
# 
# From -- ./inp_files/310723.got.cif
#   From: 2010.05.17/outbox.cif.g08.bks.cpg/sg15_156_cif.got.tgz:310723.got - 2010.06.03 18:47:42.
