data_PCOD9289928
_publ_section_title
;
Structure prediction by ZEFSAII (Michael W. Deem and Ramdas Pophale) SiO2 
 PCOD9289928
Probable space group: C 2/C
;
_chemical_formula_sum "Si O2"
_cell_formula_units_Z 60
_cell_length_a 8.878817
_cell_length_b 16.180833
_cell_length_c 20.936731
_cell_angle_alpha 90.000000
_cell_angle_beta 107.697442
_cell_angle_gamma 90.000000
_cell_volume 2865.560928
_symmetry_space_group_name_H-M "C 2/C"
_symmetry_group_IT_number 15
_symmetry_cell_setting 'monoclinic'
loop_
_space_group_symop_operation_xyz
x,y,z
-x,y,1/2-z
-x,-y,-z
x,-y,1/2+z
1/2+x,1/2+y,z
1/2-x,1/2+y,1/2-z
1/2-x,1/2-y,-z
1/2+x,1/2-y,1/2+z
loop_
_atom_site_type_symbol
_atom_site_label
_atom_site_fract_x
_atom_site_fract_y
_atom_site_fract_z
Si Si1 0.500000 0.564709 0.750000
Si Si2 0.476746 0.673332 0.864738
Si Si3 0.119683 0.532280 0.380762
Si Si4 0.196103 0.917693 0.721283
Si Si5 0.942439 0.182690 0.110534
Si Si6 0.922109 0.909206 0.991760
Si Si7 0.900942 0.352118 0.171365
Si Si8 0.135838 0.655057 0.140614
O O1 0.544909 0.624964 0.813372
O O2 0.640192 0.503416 0.745963
O O3 0.284767 0.664363 0.837549
O O4 0.492274 0.772074 0.869076
O O5 0.549284 0.630253 0.935934
O O6 0.179371 0.563333 0.318605
O O7 0.245533 0.569828 0.446332
O O8 0.105431 0.434610 0.371600
O O9 0.952183 0.569237 0.376408
O O10 0.263769 0.853928 0.781420
O O11 0.041127 0.878335 0.669229
O O12 0.969123 0.275669 0.138958
O O13 0.756523 0.169100 0.098551
O O14 0.998128 0.154381 0.048193
O O15 0.000000 0.000000 0.000000
O O16 0.000000 0.361540 0.250000
#
# Coordination Sequence:
#
# PCOD9289928 Si02
#       8
#     4   8   8   8   8   8   8   8
#     4  12  22  40  66  98 116 178 224 262 320 406
#     4  11  25  42  67  93 131 173 221 270 327 404
#     4  11  24  41  67  95 137 175 211 280 333 377
#     4  11  20  40  63  94 131 174 216 261 338 399
#     4  10  22  40  70  91 128 176 218 265 321 409
#     4  11  23  48  69  87 129 189 228 251 329 415
#     4  11  21  39  63 105 130 162 219 279 329 378
#     4  11  23  39  64 102 133 162 217 285 334 372
#
# _framework density 20.938309
#
# number of rings (size 3 to 8) (size 9 to 14) (size 15 to 20)
#    0.000    1.067    4.000    3.600    1.867    2.667 
#    0.000    0.667    2.933    0.000    0.000    0.000 
#    0.000    0.000    0.000    0.000    0.000    0.000 
#
# Total GULP energy -167641.459845 kJ/mol
# GULP energy per Si atom -5588.048662 kJ/mol
# Density = 2.089065 g / cm^3
# Si number density = 20.938309 Si / 1000 Ang^3
#
#
#
# Elastic Constant Matrix: (Units=GPa)
#
#
# Indices 1 2 3 4 5 6 
#
# 1 34.7288 17.0677 24.8832 0.0000 3.4669 0.0000
# 2 17.0677 98.0350 12.0272 0.0000 -15.1758 0.0000
# 3 24.8832 12.0272 116.1819 0.0000 -11.7980 0.0000
# 4 0.0000 0.0000 0.0000 30.2242 0.0000 6.5209
# 5 3.4669 -15.1758 -11.7980 0.0000 12.6586 0.0000
# 6 0.0000 0.0000 0.0000 6.5209 0.0000 33.4057
#
#
#
# Elastic Compliance Matrix: (Units=1/GPa)
#
#
# Indices 1 2 3 4 5 6 
#
# 1 0.049225 -0.013441 -0.013428 0.000000 -0.042111 0.000000
# 2 -0.013441 0.016202 0.003919 0.000000 0.026757 0.000000
# 3 -0.013428 0.003919 0.013175 0.000000 0.020655 0.000000
# 4 0.000000 0.000000 0.000000 0.034541 0.000000 -0.006742
# 5 -0.042111 0.026757 0.020655 0.000000 0.141860 0.000000
# 6 0.000000 0.000000 0.000000 -0.006742 0.000000 0.031251
#
#
# Mechanical properties :
#
#
# Convention : Reuss Voigt Hill
#
# Bulk Modulus (GPa) = 30.57985 39.65576 35.11780
# Shear Modulus (GPa) = 14.57495 28.25555 21.41525
#
# Velocity S-wave (km/s) = 2.64121 3.67749 3.20156
# Velocity P-wave (km/s) = 4.89263 6.08378 5.52043
#
# Compressibility (1/GPa) = 0.03270128
#
# Stress axis : x y z
#
# Youngs Moduli (GPa) = 20.31486 61.72134 75.90264
#
# Poissons Ratio (x) = 0.82962 1.01918
# Poissons Ratio (y) = 0.27306 -0.29744
# Poissons Ratio (z) = 0.27278 -0.24187
#
# Static dielectric constant tensor:
#      x y z
#    x 1.814680 0.000000 0.178390 
#    y 0.000000 1.750120 0.000000 
#    z 0.178390 0.000000 2.327390 
# 
# From -- ./inp_files/264779.got.cif
#   From: 2010.05.17/outbox.cif.g08.bks.cpg/sg15_133_cif.got.tgz:264779.got - 2010.06.03 18:47:42.
