data_PCOD9289938
_publ_section_title
;
Structure prediction by ZEFSAII (Michael W. Deem and Ramdas Pophale) SiO2 
 PCOD9289938
Probable space group: C 2/C
;
_chemical_formula_sum "Si O2"
_cell_formula_units_Z 44
_cell_length_a 26.729119
_cell_length_b 10.794614
_cell_length_c 10.009804
_cell_angle_alpha 90.000000
_cell_angle_beta 134.065571
_cell_angle_gamma 90.000000
_cell_volume 2075.252326
_symmetry_space_group_name_H-M "C 2/C"
_symmetry_group_IT_number 15
_symmetry_cell_setting 'monoclinic'
loop_
_space_group_symop_operation_xyz
x,y,z
-x,y,1/2-z
-x,-y,-z
x,-y,1/2+z
1/2+x,1/2+y,z
1/2-x,1/2+y,1/2-z
1/2-x,1/2-y,-z
1/2+x,1/2-y,1/2+z
loop_
_atom_site_type_symbol
_atom_site_label
_atom_site_fract_x
_atom_site_fract_y
_atom_site_fract_z
Si Si1 0.144888 0.267894 0.885545
Si Si2 0.950098 0.495473 0.281518
Si Si3 0.296725 0.663285 0.771723
Si Si4 0.619891 0.738986 0.326995
Si Si5 0.379653 0.419078 0.934071
Si Si6 0.500000 0.418584 0.750000
O O1 0.088608 0.374017 0.802981
O O2 0.156885 0.236429 0.752260
O O3 0.217953 0.313690 0.082881
O O4 0.124674 0.145253 0.929512
O O5 0.895921 0.384072 0.200386
O O6 0.000000 0.470246 0.250000
O O7 0.000000 0.500000 0.500000
O O8 0.319003 0.520194 0.805461
O O9 0.316145 0.708930 0.955685
O O10 0.627015 0.683141 0.192892
O O11 0.553846 0.666876 0.269234
O O12 0.452054 0.494803 0.067247
#
# Coordination Sequence:
#
# PCOD9289938 Si02
#       6
#     8   8   8   8   8   4
#     4  11  26  45  69  96 136 178 222 275 338 401
#     4  12  26  44  67  99 139 175 220 274 341 403
#     4  10  24  47  67  96 134 175 224 279 332 391
#     4  11  23  43  68  99 131 173 222 275 330 399
#     4  11  24  42  70 101 127 174 225 274 329 394
#     4  10  22  40  70  94 140 164 218 270 332 394
#
# _framework density 21.202241999999998
#
# number of rings (size 3 to 8) (size 9 to 14) (size 15 to 20)
#    0.000    1.091    0.909    4.909    8.909    0.727 
#    6.545    0.000    0.000    0.000    0.000    0.000 
#    0.000    0.000    0.000    0.000    0.000    0.000 
#
# Total GULP energy -123151.334142 kJ/mol
# GULP energy per Si atom -5597.787916 kJ/mol
# Density = 2.115398 g / cm^3
# Si number density = 21.202242 Si / 1000 Ang^3
#
#
#
# Elastic Constant Matrix: (Units=GPa)
#
#
# Indices 1 2 3 4 5 6 
#
# 1 14.6568 -5.7505 5.2832 0.0000 -0.7474 0.0000
# 2 -5.7505 85.3643 -1.6426 0.0000 13.0080 0.0000
# 3 5.2832 -1.6426 72.4307 0.0000 -6.7948 0.0000
# 4 0.0000 0.0000 0.0000 42.1093 0.0000 1.2383
# 5 -0.7474 13.0080 -6.7948 0.0000 31.1178 0.0000
# 6 0.0000 0.0000 0.0000 1.2383 0.0000 22.5279
#
#
#
# Elastic Compliance Matrix: (Units=1/GPa)
#
#
# Indices 1 2 3 4 5 6 
#
# 1 0.072008 0.004978 -0.005281 0.000000 -0.001505 0.000000
# 2 0.004978 0.012859 -0.000576 0.000000 -0.005382 0.000000
# 3 -0.005281 -0.000576 0.014486 0.000000 0.003277 0.000000
# 4 0.000000 0.000000 0.000000 0.023786 0.000000 -0.001307
# 5 -0.001505 -0.005382 0.003277 0.000000 0.035065 0.000000
# 6 0.000000 0.000000 0.000000 -0.001307 0.000000 0.044461
#
#
# Mechanical properties :
#
#
# Convention : Reuss Voigt Hill
#
# Bulk Modulus (GPa) = 10.24640 18.69245 14.46942
# Shear Modulus (GPa) = 21.10115 30.78846 25.94481
#
# Velocity S-wave (km/s) = 3.15815 3.81482 3.50191
# Velocity P-wave (km/s) = 4.25931 5.31406 4.81565
#
# Compressibility (1/GPa) = 0.09759530
#
# Stress axis : x y z
#
# Youngs Moduli (GPa) = 13.88738 77.76757 69.03289
#
# Poissons Ratio (x) = -0.38716 0.36454
# Poissons Ratio (y) = -0.06914 0.03979
# Poissons Ratio (z) = 0.07333 0.04482
#
# Static dielectric constant tensor:
#      x y z
#    x 1.763410 0.000000 0.013930 
#    y 0.000000 1.764940 0.000000 
#    z 0.013930 0.000000 1.743120 
# 
# From -- ./inp_files/65636.got.cif
#   From: 2010.05.17/outbox.cif.g08.bks.cpg/sg15_33_cif.got.tgz:65636.got - 2010.06.03 18:47:42.
