data_PCOD9289202
_publ_section_title
;
Structure prediction by ZEFSAII (Michael W. Deem and Ramdas Pophale) SiO2 
 PCOD9289202
Probable space group: C 2/C
;
_chemical_formula_sum "Si O2"
_cell_formula_units_Z 60
_cell_length_a 5.267539
_cell_length_b 24.094795
_cell_length_c 24.483839
_cell_angle_alpha 90.000000
_cell_angle_beta 108.208871
_cell_angle_gamma 90.000000
_cell_volume 2951.883580
_symmetry_space_group_name_H-M "C 2/C"
_symmetry_group_IT_number 15
_symmetry_cell_setting 'monoclinic'
loop_
_space_group_symop_operation_xyz
x,y,z
-x,y,1/2-z
-x,-y,-z
x,-y,1/2+z
1/2+x,1/2+y,z
1/2-x,1/2+y,1/2-z
1/2-x,1/2-y,-z
1/2+x,1/2-y,1/2+z
loop_
_atom_site_type_symbol
_atom_site_label
_atom_site_fract_x
_atom_site_fract_y
_atom_site_fract_z
Si Si1 0.349106 0.793672 0.189803
Si Si2 0.514972 0.916339 0.188613
Si Si3 0.000000 0.239441 0.750000
Si Si4 0.861576 0.769391 0.872152
Si Si5 0.259418 0.173393 0.951034
Si Si6 0.087922 0.061690 0.876371
Si Si7 0.706142 0.524278 0.469897
Si Si8 0.641407 0.344057 0.976227
O O1 0.500000 0.761772 0.250000
O O2 0.504757 0.849460 0.188255
O O3 0.090597 0.804256 0.207993
O O4 0.374262 0.757514 0.138405
O O5 0.500000 0.935390 0.250000
O O6 0.769232 0.936702 0.172563
O O7 0.229599 0.930406 0.143089
O O8 0.835830 0.277037 0.693897
O O9 0.745592 0.723994 0.907030
O O10 0.968733 0.820584 0.914168
O O11 0.222438 0.113877 0.917842
O O12 0.555403 0.178213 0.997237
O O13 0.029260 0.172308 0.981421
O O14 0.137863 0.002719 0.907429
O O15 0.500000 0.500000 0.500000
O O16 0.680517 0.590060 0.472592
O O17 0.000000 0.500000 0.500000
#
# Coordination Sequence:
#
# PCOD9289202 Si02
#       8
#     8   8   4   8   8   8   8   8
#     4   9  20  35  57  89 124 169 207 253 315 387
#     4  11  23  37  62  96 129 162 210 267 332 390
#     4  10  22  40  62  88 132 178 214 260 308 404
#     4  11  24  39  65  94 137 170 218 262 330 396
#     4  12  24  41  64  99 136 167 210 270 336 389
#     4  12  22  39  66  90 128 170 210 269 329 387
#     4  12  23  44  66  91 124 167 223 267 325 393
#     4  12  26  43  65  97 129 175 215 274 326 391
#
# _framework density 20.326004000000001
#
# number of rings (size 3 to 8) (size 9 to 14) (size 15 to 20)
#    0.000    0.800    4.000    3.600    7.467    0.000 
#    0.000    0.000    1.467    3.200    0.000    0.000 
#    0.000    0.000    0.000    0.000    0.000    0.000 
#
# Total GULP energy -167071.846224 kJ/mol
# GULP energy per Si atom -5569.061541 kJ/mol
# Density = 2.027974 g / cm^3
# Si number density = 20.326004 Si / 1000 Ang^3
#
#
#
# Elastic Constant Matrix: (Units=GPa)
#
#
# Indices 1 2 3 4 5 6 
#
# 1 96.4975 31.3977 25.8887 0.0000 -5.3545 0.0000
# 2 31.3977 87.0144 51.2675 0.0000 1.1864 0.0000
# 3 25.8887 51.2675 98.7244 0.0000 6.5001 0.0000
# 4 0.0000 0.0000 0.0000 28.6771 0.0000 6.3087
# 5 -5.3545 1.1864 6.5001 0.0000 46.9229 0.0000
# 6 0.0000 0.0000 0.0000 6.3087 0.0000 15.7014
#
#
#
# Elastic Compliance Matrix: (Units=1/GPa)
#
#
# Indices 1 2 3 4 5 6 
#
# 1 0.011978 -0.003501 -0.001432 0.000000 0.001654 0.000000
# 2 -0.003501 0.017610 -0.008247 0.000000 0.000298 0.000000
# 3 -0.001432 -0.008247 0.014920 0.000000 -0.002022 0.000000
# 4 0.000000 0.000000 0.000000 0.038252 0.000000 -0.015369
# 5 0.001654 0.000298 -0.002022 0.000000 0.021773 0.000000
# 6 0.000000 0.000000 0.000000 -0.015369 0.000000 0.069864
#
#
# Mechanical properties :
#
#
# Convention : Reuss Voigt Hill
#
# Bulk Modulus (GPa) = 55.09710 55.48270 55.28990
# Shear Modulus (GPa) = 24.17724 29.83911 27.00817
#
# Velocity S-wave (km/s) = 3.45262 3.83564 3.64916
# Velocity P-wave (km/s) = 6.56198 6.85360 6.70938
#
# Compressibility (1/GPa) = 0.01814977
#
# Stress axis : x y z
#
# Youngs Moduli (GPa) = 83.48640 56.78494 67.02316
#
# Poissons Ratio (x) = 0.19880 0.09597
# Poissons Ratio (y) = 0.29229 0.55271
# Poissons Ratio (z) = 0.11954 0.46828
#
# Static dielectric constant tensor:
#      x y z
#    x 1.336030 0.000000 0.040930 
#    y 0.000000 1.703110 0.000000 
#    z 0.040930 0.000000 1.809920 
# 
# From -- ./inp_files/261746.got.cif
#   From: 2010.05.17/outbox.cif.g08.bks.cpg/sg15_131_cif.got.tgz:261746.got - 2010.06.03 18:47:42.
