data_PCOD9289558
_publ_section_title
;
Structure prediction by ZEFSAII (Michael W. Deem and Ramdas Pophale) SiO2 
 PCOD9289558
Probable space group: C 2/C
;
_chemical_formula_sum "Si O2"
_cell_formula_units_Z 44
_cell_length_a 20.017402
_cell_length_b 9.084445
_cell_length_c 23.968963
_cell_angle_alpha 90.000000
_cell_angle_beta 157.783270
_cell_angle_gamma 90.000000
_cell_volume 1648.066777
_symmetry_space_group_name_H-M "C 2/C"
_symmetry_group_IT_number 15
_symmetry_cell_setting 'monoclinic'
loop_
_space_group_symop_operation_xyz
x,y,z
-x,y,1/2-z
-x,-y,-z
x,-y,1/2+z
1/2+x,1/2+y,z
1/2-x,1/2+y,1/2-z
1/2-x,1/2-y,-z
1/2+x,1/2-y,1/2+z
loop_
_atom_site_type_symbol
_atom_site_label
_atom_site_fract_x
_atom_site_fract_y
_atom_site_fract_z
Si Si1 0.199239 0.508249 0.632069
Si Si2 0.659481 0.797241 0.799913
Si Si3 0.913987 0.238821 0.012774
Si Si4 0.740726 0.564436 0.702211
Si Si5 0.200695 0.476019 0.423520
Si Si6 0.750000 0.250000 0.500000
O O1 0.216538 0.664663 0.618146
O O2 0.219523 0.371219 0.607239
O O3 0.313499 0.517581 0.777356
O O4 0.000000 0.500000 0.500000
O O5 0.717697 0.862730 0.904768
O O6 0.464974 0.738343 0.657039
O O7 0.682919 0.926722 0.773305
O O8 0.905721 0.140073 0.949971
O O9 0.833125 0.142421 0.000751
O O10 0.100527 0.315935 0.168996
O O11 0.232641 0.556211 0.505811
O O12 0.000000 0.432241 0.250000
#
# Coordination Sequence:
#
# PCOD9289558 Si02
#       6
#     8   8   8   8   8   4
#     4  10  22  40  65  97 138 181 233 290 359 429
#     4  10  22  42  65  95 141 181 235 295 360 448
#     4  10  22  41  66 101 138 179 243 298 362 429
#     4  10  22  43  65 101 143 185 236 298 369 437
#     4   9  21  43  61  94 135 177 231 297 360 429
#     4  10  22  40  70  90 126 186 238 288 364 440
#
# _framework density 26.697948
#
# number of rings (size 3 to 8) (size 9 to 14) (size 15 to 20)
#    0.000    2.182    0.000    1.091    7.636    0.000 
#    3.273   10.909    0.000    0.000    0.000    0.000 
#    0.000    0.000    0.000    0.000    0.000    0.000 
#
# Total GULP energy -122798.180845 kJ/mol
# GULP energy per Si atom -5581.735493 kJ/mol
# Density = 2.663718 g / cm^3
# Si number density = 26.697948 Si / 1000 Ang^3
#
#
#
# Elastic Constant Matrix: (Units=GPa)
#
#
# Indices 1 2 3 4 5 6 
#
# 1 89.4547 44.4112 14.3526 -0.0007 -3.5689 -0.0001
# 2 44.4112 145.3728 39.7058 -0.0015 15.2557 0.0007
# 3 14.3526 39.7058 118.8293 0.0023 -0.7221 0.0023
# 4 -0.0007 -0.0015 0.0023 45.7773 -0.0004 5.5318
# 5 -3.5689 15.2557 -0.7221 -0.0004 43.7882 -0.0001
# 6 -0.0001 0.0007 0.0023 5.5318 -0.0001 67.4339
#
#
#
# Elastic Compliance Matrix: (Units=1/GPa)
#
#
# Indices 1 2 3 4 5 6 
#
# 1 0.013465 -0.004344 -0.000159 0.000000 0.002608 0.000000
# 2 -0.004344 0.009299 -0.002605 0.000000 -0.003637 0.000000
# 3 -0.000159 -0.002605 0.009311 -0.000001 0.001048 0.000000
# 4 0.000000 0.000000 -0.000001 0.022064 0.000000 -0.001810
# 5 0.002608 -0.003637 0.001048 0.000000 0.024334 0.000000
# 6 0.000000 0.000000 0.000000 -0.001810 0.000000 0.014978
#
#
# Mechanical properties :
#
#
# Convention : Reuss Voigt Hill
#
# Bulk Modulus (GPa) = 55.99005 61.17734 58.58369
# Shear Modulus (GPa) = 44.00669 48.41234 46.20951
#
# Velocity S-wave (km/s) = 4.06435 4.26295 4.16483
# Velocity P-wave (km/s) = 6.56068 6.86984 6.71704
#
# Compressibility (1/GPa) = 0.01786032
#
# Stress axis : x y z
#
# Youngs Moduli (GPa) = 74.26676 107.53931 107.39626
#
# Poissons Ratio (x) = 0.46713 0.01708
# Poissons Ratio (y) = 0.32260 0.27972
# Poissons Ratio (z) = 0.01181 0.28010
#
# Static dielectric constant tensor:
#      x y z
#    x -10.911390 0.000040 10.678810 
#    y 0.000040 2.376210 -0.000030 
#    z 10.678810 -0.000030 -6.714720 
# 
# From -- ./inp_files/318670.got.cif
#   From: 2010.05.17/outbox.cif.g08.bks.cpg/sg15_160_cif.got.tgz:318670.got - 2010.06.03 18:47:42.
