data_PCOD9289155
_publ_section_title
;
Structure prediction by ZEFSAII (Michael W. Deem and Ramdas Pophale) SiO2 
 PCOD9289155
Probable space group: C 2/C
;
_chemical_formula_sum "Si O2"
_cell_formula_units_Z 64
_cell_length_a 32.775658
_cell_length_b 17.232340
_cell_length_c 9.312576
_cell_angle_alpha 90.000000
_cell_angle_beta 139.296008
_cell_angle_gamma 90.000000
_cell_volume 3430.155575
_symmetry_space_group_name_H-M "C 2/C"
_symmetry_group_IT_number 15
_symmetry_cell_setting 'monoclinic'
loop_
_space_group_symop_operation_xyz
x,y,z
-x,y,1/2-z
-x,-y,-z
x,-y,1/2+z
1/2+x,1/2+y,z
1/2-x,1/2+y,1/2-z
1/2-x,1/2-y,-z
1/2+x,1/2-y,1/2+z
loop_
_atom_site_type_symbol
_atom_site_label
_atom_site_fract_x
_atom_site_fract_y
_atom_site_fract_z
Si Si1 0.552184 0.941573 0.572557
Si Si2 0.363755 0.994890 0.961573
Si Si3 0.489182 0.383351 0.561744
Si Si4 0.659216 0.596305 0.213801
Si Si5 0.024904 0.282646 0.607780
Si Si6 0.395913 0.501652 0.197094
Si Si7 0.893790 0.730969 0.912498
Si Si8 0.195895 0.399711 0.441852
O O1 0.580154 0.965302 0.493059
O O2 0.530000 0.852864 0.510288
O O3 0.500000 0.000000 0.500000
O O4 0.606622 0.949725 0.838001
O O5 0.320151 0.039171 0.729758
O O6 0.330095 0.930866 0.973563
O O7 0.500000 0.355891 0.750000
O O8 0.479267 0.306754 0.445533
O O9 0.428799 0.437294 0.384332
O O10 0.549011 0.435837 0.682614
O O11 0.656481 0.547132 0.353897
O O12 0.623387 0.677974 0.141228
O O13 0.730011 0.611609 0.355567
O O14 0.626206 0.543234 0.003862
O O15 0.958019 0.293780 0.505633
O O16 0.086193 0.286860 0.871468
O O17 0.839585 0.678401 0.701194
#
# Coordination Sequence:
#
# PCOD9289155 Si02
#       8
#     8   8   8   8   8   8   8   8
#     4  11  22  37  63  93 125 160 199 260 317 388
#     4  10  22  40  61  91 122 163 212 250 314 370
#     4  11  22  37  62  89 129 160 200 262 322 380
#     4  12  23  42  65  89 125 170 219 263 312 373
#     4  11  22  38  62  92 130 156 199 263 327 375
#     4  11  23  39  62  95 120 162 217 258 315 376
#     4  11  23  38  62  94 120 167 209 257 323 380
#     4  11  23  42  64  90 126 169 218 265 302 379
#
# _framework density 18.658045999999999
#
# number of rings (size 3 to 8) (size 9 to 14) (size 15 to 20)
#    0.000    1.000    5.000    3.000    1.750    2.000 
#    0.000    0.000    0.000    0.750    0.000    0.000 
#    0.000    0.000    0.000    0.000    0.000    0.000 
#
# Total GULP energy -178381.458757 kJ/mol
# GULP energy per Si atom -5574.420586 kJ/mol
# Density = 1.861558 g / cm^3
# Si number density = 18.658046 Si / 1000 Ang^3
#
#
#
# Elastic Constant Matrix: (Units=GPa)
#
#
# Indices 1 2 3 4 5 6 
#
# 1 62.1004 24.4282 31.2425 0.0000 -4.2001 0.0000
# 2 24.4282 103.2652 28.6481 0.0000 2.1510 0.0000
# 3 31.2425 28.6481 47.3886 0.0000 -2.1586 0.0000
# 4 0.0000 0.0000 0.0000 19.5424 0.0000 -3.0012
# 5 -4.2001 2.1510 -2.1586 0.0000 30.5232 0.0000
# 6 0.0000 0.0000 0.0000 -3.0012 0.0000 27.7784
#
#
#
# Elastic Compliance Matrix: (Units=1/GPa)
#
#
# Indices 1 2 3 4 5 6 
#
# 1 0.024481 -0.001676 -0.015016 0.000000 0.002425 0.000000
# 2 -0.001676 0.011803 -0.006099 0.000000 -0.001494 0.000000
# 3 -0.015016 -0.006099 0.034726 0.000000 0.000819 0.000000
# 4 0.000000 0.000000 0.000000 0.052034 0.000000 0.005622
# 5 0.002425 -0.001494 0.000819 0.000000 0.033259 0.000000
# 6 0.000000 0.000000 0.000000 0.005622 0.000000 0.036607
#
#
# Mechanical properties :
#
#
# Convention : Reuss Voigt Hill
#
# Bulk Modulus (GPa) = 39.32540 42.37685 40.85113
# Shear Modulus (GPa) = 20.24559 24.13116 22.18837
#
# Velocity S-wave (km/s) = 3.29764 3.60020 3.45224
# Velocity P-wave (km/s) = 5.96841 6.32800 6.15083
#
# Compressibility (1/GPa) = 0.02542886
#
# Stress axis : x y z
#
# Youngs Moduli (GPa) = 40.84848 84.72241 28.79669
#
# Poissons Ratio (x) = 0.14198 0.43242
# Poissons Ratio (y) = 0.06845 0.17562
# Poissons Ratio (z) = 0.61339 0.51670
#
# Static dielectric constant tensor:
#      x y z
#    x 1.673580 0.000000 -0.008530 
#    y 0.000000 1.643000 0.000000 
#    z -0.008530 0.000000 1.653910 
# 
# From -- ./inp_files/70640.got.cif
#   From: 2010.05.17/outbox.cif.g08.bks.cpg/sg15_36_cif.got.tgz:70640.got - 2010.06.03 18:47:42.
