data_PCOD9289600
_publ_section_title
;
Structure prediction by ZEFSAII (Michael W. Deem and Ramdas Pophale) SiO2 
 PCOD9289600
Probable space group: C 2/C
;
_chemical_formula_sum "Si O2"
_cell_formula_units_Z 48
_cell_length_a 11.967299
_cell_length_b 8.765064
_cell_length_c 24.281087
_cell_angle_alpha 90.000000
_cell_angle_beta 50.079619
_cell_angle_gamma 90.000000
_cell_volume 1953.345242
_symmetry_space_group_name_H-M "C 2/C"
_symmetry_group_IT_number 15
_symmetry_cell_setting 'monoclinic'
loop_
_space_group_symop_operation_xyz
x,y,z
-x,y,1/2-z
-x,-y,-z
x,-y,1/2+z
1/2+x,1/2+y,z
1/2-x,1/2+y,1/2-z
1/2-x,1/2-y,-z
1/2+x,1/2-y,1/2+z
loop_
_atom_site_type_symbol
_atom_site_label
_atom_site_fract_x
_atom_site_fract_y
_atom_site_fract_z
Si Si1 0.692766 0.533152 0.048674
Si Si2 0.394164 0.888873 0.583972
Si Si3 0.264041 0.346001 0.763767
Si Si4 0.113904 0.135688 0.474344
Si Si5 0.959108 0.130600 0.699619
Si Si6 0.948731 0.281658 0.113727
O O1 0.824692 0.569642 0.047274
O O2 0.724550 0.440813 0.982359
O O3 0.586045 0.423425 0.118653
O O4 0.599968 0.687013 0.064980
O O5 0.262283 0.823008 0.663015
O O6 0.521459 0.768845 0.533086
O O7 0.442434 0.041893 0.600093
O O8 0.106915 0.296741 0.790051
O O9 0.326011 0.513012 0.732193
O O10 0.383493 0.246399 0.694329
O O11 0.152497 0.200443 0.401791
O O12 0.000000 0.000000 0.500000
O O13 0.000000 0.112565 0.750000
#
# Coordination Sequence:
#
# PCOD9289600 Si02
#       6
#     8   8   8   8   8   8
#     4  10  22  40  66  89 122 166 210 253 317 372
#     4  12  22  42  67  90 126 169 205 266 313 364
#     4  11  21  37  66  91 123 163 210 258 317 370
#     4  10  23  42  65  91 128 168 210 261 310 375
#     4  11  20  39  61  90 124 158 206 259 314 370
#     4  10  23  39  60  96 124 161 215 257 307 381
#
# _framework density 24.573229000000001
#
# number of rings (size 3 to 8) (size 9 to 14) (size 15 to 20)
#    0.000    1.333    5.000    0.500    0.000    3.333 
#    0.000    5.833    0.000    0.000    0.000    0.000 
#    0.000    0.000    0.000    0.000    0.000    0.000 
#
# Total GULP energy -134210.008984 kJ/mol
# GULP energy per Si atom -5592.083708 kJ/mol
# Density = 2.451730 g / cm^3
# Si number density = 24.573229 Si / 1000 Ang^3
#
#
#
# Elastic Constant Matrix: (Units=GPa)
#
#
# Indices 1 2 3 4 5 6 
#
# 1 88.7307 59.8425 18.0174 0.0000 14.0622 0.0000
# 2 59.8425 128.3978 12.4138 0.0000 22.7519 0.0000
# 3 18.0174 12.4138 107.8129 0.0000 11.2341 0.0000
# 4 0.0000 0.0000 0.0000 34.6092 0.0000 12.2153
# 5 14.0622 22.7519 11.2341 0.0000 26.5925 0.0000
# 6 0.0000 0.0000 0.0000 12.2153 0.0000 31.6394
#
#
#
# Elastic Compliance Matrix: (Units=1/GPa)
#
#
# Indices 1 2 3 4 5 6 
#
# 1 0.016901 -0.007372 -0.001780 0.000000 -0.001878 0.000000
# 2 -0.007372 0.012402 0.000527 0.000000 -0.006935 0.000000
# 3 -0.001780 0.000527 0.009897 0.000000 -0.003690 0.000000
# 4 0.000000 0.000000 0.000000 0.033453 0.000000 -0.012915
# 5 -0.001878 -0.006935 -0.003690 0.000000 0.046090 0.000000
# 6 0.000000 0.000000 0.000000 -0.012915 0.000000 0.036592
#
#
# Mechanical properties :
#
#
# Convention : Reuss Voigt Hill
#
# Bulk Modulus (GPa) = 45.56034 56.16545 50.86290
# Shear Modulus (GPa) = 27.79281 34.21272 31.00276
#
# Velocity S-wave (km/s) = 3.36671 3.73537 3.55582
# Velocity P-wave (km/s) = 5.80464 6.44282 6.13204
#
# Compressibility (1/GPa) = 0.02194891
#
# Stress axis : x y z
#
# Youngs Moduli (GPa) = 59.16744 80.63033 101.04414
#
# Poissons Ratio (x) = 0.59443 0.17985
# Poissons Ratio (y) = 0.43620 -0.05321
# Poissons Ratio (z) = 0.10531 -0.04246
#
# Static dielectric constant tensor:
#      x y z
#    x 1.962500 0.000000 -0.003630 
#    y 0.000000 1.986190 0.000000 
#    z -0.003630 0.000000 2.021060 
# 
# From -- ./inp_files/268019.got.cif
#   From: 2010.05.17/outbox.cif.g08.bks.cpg/sg15_135_cif.got.tgz:268019.got - 2010.06.03 18:47:42.
