data_PCOD9289169
_publ_section_title
;
Structure prediction by ZEFSAII (Michael W. Deem and Ramdas Pophale) SiO2 
 PCOD9289169
Probable space group: C 2/C
;
_chemical_formula_sum "Si O2"
_cell_formula_units_Z 32
_cell_length_a 11.336161
_cell_length_b 24.221136
_cell_length_c 5.132137
_cell_angle_alpha 90.000000
_cell_angle_beta 107.712886
_cell_angle_gamma 90.000000
_cell_volume 1342.351265
_symmetry_space_group_name_H-M "C 2/C"
_symmetry_group_IT_number 15
_symmetry_cell_setting 'monoclinic'
loop_
_space_group_symop_operation_xyz
x,y,z
-x,y,1/2-z
-x,-y,-z
x,-y,1/2+z
1/2+x,1/2+y,z
1/2-x,1/2+y,1/2-z
1/2-x,1/2-y,-z
1/2+x,1/2-y,1/2+z
loop_
_atom_site_type_symbol
_atom_site_label
_atom_site_fract_x
_atom_site_fract_y
_atom_site_fract_z
Si Si1 0.500000 0.537852 0.750000
Si Si2 0.421763 0.191552 0.962662
Si Si3 0.185858 0.878987 0.189574
Si Si4 0.865360 0.538602 0.575526
Si Si5 0.000000 0.798378 0.250000
O O1 0.500000 0.500000 0.500000
O O2 0.378432 0.575907 0.668776
O O3 0.500000 0.165113 0.250000
O O4 0.409508 0.255618 0.041744
O O5 0.500000 0.190943 0.750000
O O6 0.295207 0.159269 0.863684
O O7 0.255841 0.916730 0.024919
O O8 0.072080 0.836058 0.089018
O O9 0.857939 0.509396 0.291232
O O10 0.000000 0.563922 0.750000
#
# Coordination Sequence:
#
# PCOD9289169 Si02
#       5
#     4   8   8   8   4
#     4  11  26  46  66 102 136 170 218 269 322 394
#     4  10  24  44  65  96 133 168 221 272 320 384
#     4  11  22  44  70  97 129 181 211 268 334 388
#     4  10  22  40  61  93 127 161 211 264 313 381
#     4   9  24  46  62 100 132 170 220 273 320 394
#
# _framework density 23.83877
#
# number of rings (size 3 to 8) (size 9 to 14) (size 15 to 20)
#    0.750    1.000    0.000    3.000    0.000    8.000 
#   13.500    0.000    0.000    0.000    0.000    0.000 
#    0.000    0.000    0.000    0.000    0.000    0.000 
#
# Total GULP energy -89299.481588 kJ/mol
# GULP energy per Si atom -5581.217599 kJ/mol
# Density = 2.378451 g / cm^3
# Si number density = 23.838770 Si / 1000 Ang^3
#
#
#
# Elastic Constant Matrix: (Units=GPa)
#
#
# Indices 1 2 3 4 5 6 
#
# 1 130.9638 61.4460 24.4880 0.0000 -16.4897 0.0000
# 2 61.4460 133.2082 27.5202 0.0000 -11.4565 0.0000
# 3 24.4880 27.5202 104.3134 0.0000 -12.5299 0.0000
# 4 0.0000 0.0000 0.0000 -16.0920 0.0000 3.2765
# 5 -16.4897 -11.4565 -12.5299 0.0000 20.7188 0.0000
# 6 0.0000 0.0000 0.0000 3.2765 0.0000 99.0627
#
#
#
# Elastic Compliance Matrix: (Units=1/GPa)
#
#
# Indices 1 2 3 4 5 6 
#
# 1 0.010431 -0.004193 -0.000673 0.000000 0.005576 0.000000
# 2 -0.004193 0.009849 -0.001467 0.000000 0.001222 0.000000
# 3 -0.000673 -0.001467 0.010751 0.000000 0.005155 0.000000
# 4 0.000000 0.000000 0.000000 -0.061727 0.000000 0.002042
# 5 0.005576 0.001222 0.005155 0.000000 0.056496 0.000000
# 6 0.000000 0.000000 0.000000 0.002042 0.000000 0.010027
#
#
# Mechanical properties :
#
#
# Convention : Reuss Voigt Hill
#
# Bulk Modulus (GPa) = 54.45175 66.15488 60.30331
# Shear Modulus (GPa) = 91.54930 37.73997 64.64464
#
# Velocity S-wave (km/s) = 6.20378 3.98318 5.21309
# Velocity P-wave (km/s) = 8.61436 6.99753 7.84769
#
# Compressibility (1/GPa) = 0.01836488
#
# Stress axis : x y z
#
# Youngs Moduli (GPa) = 95.86928 101.52902 93.01691
#
# Poissons Ratio (x) = 0.42571 0.06257
# Poissons Ratio (y) = 0.40198 0.13650
# Poissons Ratio (z) = 0.06449 0.14899
#
# Static dielectric constant tensor:
#      x y z
#    x 1.840770 0.000000 0.103560 
#    y 0.000000 1.928900 0.000000 
#    z 0.103560 0.000000 1.833480 
# 
# From -- ./inp_files/4104.got.cif
#   From: 2010.05.17/outbox.cif.g08.bks.cpg/sg15_3_cif.got.tgz:4104.got - 2010.06.03 18:47:42.
