data_PCOD9289993
_publ_section_title
;
Structure prediction by ZEFSAII (Michael W. Deem and Ramdas Pophale) SiO2 
 PCOD9289993
Probable space group: C 2/C
;
_chemical_formula_sum "Si O2"
_cell_formula_units_Z 52
_cell_length_a 16.750278
_cell_length_b 9.361465
_cell_length_c 14.867203
_cell_angle_alpha 90.000000
_cell_angle_beta 120.951279
_cell_angle_gamma 90.000000
_cell_volume 1999.320354
_symmetry_space_group_name_H-M "C 2/C"
_symmetry_group_IT_number 15
_symmetry_cell_setting 'monoclinic'
loop_
_space_group_symop_operation_xyz
x,y,z
-x,y,1/2-z
-x,-y,-z
x,-y,1/2+z
1/2+x,1/2+y,z
1/2-x,1/2+y,1/2-z
1/2-x,1/2-y,-z
1/2+x,1/2-y,1/2+z
loop_
_atom_site_type_symbol
_atom_site_label
_atom_site_fract_x
_atom_site_fract_y
_atom_site_fract_z
Si Si1 0.252780 0.885336 0.208409
Si Si2 0.000000 0.964155 0.750000
Si Si3 0.019105 0.335690 0.526387
Si Si4 0.077282 0.911944 0.598763
Si Si5 0.291247 0.847243 0.948442
Si Si6 0.190621 0.871988 0.376342
Si Si7 0.597142 0.105495 0.261886
O O1 0.251789 0.725699 0.166473
O O2 0.232652 0.870485 0.300837
O O3 0.169709 0.996126 0.134733
O O4 0.345784 0.968225 0.236292
O O5 0.043119 0.896119 0.683077
O O6 0.089420 0.056039 0.831990
O O7 0.100920 0.311847 0.501699
O O8 0.063527 0.310905 0.651101
O O9 0.000000 0.500000 0.500000
O O10 0.929590 0.241408 0.452868
O O11 0.000000 0.000000 0.500000
O O12 0.261508 0.007689 0.955269
O O13 0.250000 0.750000 0.000000
O O14 0.159957 0.705409 0.363977
O O15 0.500000 0.064019 0.250000
#
# Coordination Sequence:
#
# PCOD9289993 Si02
#       7
#     8   4   8   8   8   8   8
#     4  11  24  46  73 104 143 197 245 305 371 449
#     4  10  22  40  72 108 134 194 240 288 374 444
#     4  12  27  47  68 108 150 188 245 320 366 438
#     4  11  23  46  76 106 150 193 249 308 379 447
#     4  12  26  44  69 106 145 185 250 299 368 444
#     4  11  21  44  73  98 141 190 237 298 360 443
#     4  12  27  48  72 107 147 196 250 301 380 446
#
# _framework density 26.008839999999999
#
# number of rings (size 3 to 8) (size 9 to 14) (size 15 to 20)
#    0.000    0.615    5.385    1.846    4.308    2.462 
#    2.769    1.538    0.000    0.000    0.000    0.000 
#    0.000    0.000    0.000    0.000    0.000    0.000 
#
# Total GULP energy -145279.691105 kJ/mol
# GULP energy per Si atom -5587.680427 kJ/mol
# Density = 2.594964 g / cm^3
# Si number density = 26.008840 Si / 1000 Ang^3
#
#
#
# Elastic Constant Matrix: (Units=GPa)
#
#
# Indices 1 2 3 4 5 6 
#
# 1 177.5628 26.4966 25.7330 0.0000 11.1694 0.0000
# 2 26.4966 131.2289 49.1339 0.0000 14.7957 0.0000
# 3 25.7330 49.1339 54.3992 0.0000 -6.8701 0.0000
# 4 0.0000 0.0000 0.0000 50.0128 0.0000 10.1779
# 5 11.1694 14.7957 -6.8701 0.0000 33.4738 0.0000
# 6 0.0000 0.0000 0.0000 10.1779 0.0000 10.4721
#
#
#
# Elastic Compliance Matrix: (Units=1/GPa)
#
#
# Indices 1 2 3 4 5 6 
#
# 1 0.006308 0.000519 -0.003847 0.000000 -0.003124 0.000000
# 2 0.000519 0.013681 -0.013744 0.000000 -0.009041 0.000000
# 3 -0.003847 -0.013744 0.034438 0.000000 0.014427 0.000000
# 4 0.000000 0.000000 0.000000 0.024925 0.000000 -0.024224
# 5 -0.003124 -0.009041 0.014427 0.000000 0.037874 0.000000
# 6 0.000000 0.000000 0.000000 -0.024224 0.000000 0.119036
#
#
# Mechanical properties :
#
#
# Convention : Reuss Voigt Hill
#
# Bulk Modulus (GPa) = 49.30306 62.87978 56.09142
# Shear Modulus (GPa) = 18.03966 36.24690 27.14328
#
# Velocity S-wave (km/s) = 2.63648 3.73720 3.23401
# Velocity P-wave (km/s) = 5.31653 6.54607 5.96307
#
# Compressibility (1/GPa) = 0.02028272
#
# Stress axis : x y z
#
# Youngs Moduli (GPa) = 158.51724 73.09564 29.03756
#
# Poissons Ratio (x) = -0.03794 0.11172
# Poissons Ratio (y) = -0.08228 0.39909
# Poissons Ratio (z) = 0.60989 1.00462
#
# Static dielectric constant tensor:
#      x y z
#    x 1.993320 0.000000 -0.091040 
#    y 0.000000 2.281990 0.000000 
#    z -0.091040 0.000000 2.264770 
# 
# From -- ./inp_files/209714.got.cif
#   From: 2010.05.17/outbox.cif.g08.bks.cpg/sg15_105_cif.got.tgz:209714.got - 2010.06.03 18:47:42.
