data_PCOD9289687
_publ_section_title
;
Structure prediction by ZEFSAII (Michael W. Deem and Ramdas Pophale) SiO2 
 PCOD9289687
Probable space group: C 2/C
;
_chemical_formula_sum "Si O2"
_cell_formula_units_Z 64
_cell_length_a 17.962277
_cell_length_b 16.562045
_cell_length_c 15.067072
_cell_angle_alpha 90.000000
_cell_angle_beta 139.213367
_cell_angle_gamma 90.000000
_cell_volume 2928.057695
_symmetry_space_group_name_H-M "C 2/C"
_symmetry_group_IT_number 15
_symmetry_cell_setting 'monoclinic'
loop_
_space_group_symop_operation_xyz
x,y,z
-x,y,1/2-z
-x,-y,-z
x,-y,1/2+z
1/2+x,1/2+y,z
1/2-x,1/2+y,1/2-z
1/2-x,1/2-y,-z
1/2+x,1/2-y,1/2+z
loop_
_atom_site_type_symbol
_atom_site_label
_atom_site_fract_x
_atom_site_fract_y
_atom_site_fract_z
Si Si1 0.130150 0.361800 0.548842
Si Si2 0.202259 0.802242 0.649412
Si Si3 0.276339 0.501566 0.653770
Si Si4 0.068240 0.435415 0.220108
Si Si5 0.234609 0.631535 0.745007
Si Si6 0.476321 0.472721 0.629156
Si Si7 0.747852 0.562729 0.064635
Si Si8 0.963395 0.813344 0.535835
O O1 0.193572 0.337988 0.697141
O O2 0.230865 0.411686 0.591319
O O3 0.075884 0.276175 0.471070
O O4 0.026401 0.424687 0.442404
O O5 0.202627 0.705635 0.652357
O O6 0.222837 0.847324 0.575616
O O7 0.082146 0.818825 0.590049
O O8 0.212485 0.548261 0.674350
O O9 0.404706 0.496424 0.807005
O O10 0.259803 0.550804 0.548012
O O11 0.164718 0.372225 0.274128
O O12 0.136136 0.519262 0.297340
O O13 0.000000 0.417246 0.250000
O O14 0.364812 0.650493 0.884590
O O15 0.500000 0.501180 0.750000
O O16 0.359508 0.512290 0.492608
O O17 0.467202 0.376754 0.618521
#
# Coordination Sequence:
#
# PCOD9289687 Si02
#       8
#     8   8   8   8   8   8   8   8
#     4  11  24  41  65  95 137 172 218 265 331 399
#     4  11  24  44  67  99 132 174 223 278 334 391
#     4  11  23  44  69 100 130 177 227 271 330 401
#     4  12  24  44  64  98 136 175 218 272 329 405
#     4  11  25  43  69  96 134 178 224 275 331 392
#     4  10  22  40  66  99 130 168 221 270 330 390
#     4  11  24  43  69  97 134 173 224 277 329 393
#     4  11  22  42  65 101 128 175 214 277 330 397
#
# _framework density 21.857493000000002
#
# number of rings (size 3 to 8) (size 9 to 14) (size 15 to 20)
#    0.000    1.000    5.000    1.500    0.000    4.000 
#    0.000    2.500    0.000    0.750    0.000    0.000 
#    0.000    0.000    0.000    0.000    0.000    0.000 
#
# Total GULP energy -178208.818924 kJ/mol
# GULP energy per Si atom -5569.025591 kJ/mol
# Density = 2.180774 g / cm^3
# Si number density = 21.857493 Si / 1000 Ang^3
#
#
#
# Elastic Constant Matrix: (Units=GPa)
#
#
# Indices 1 2 3 4 5 6 
#
# 1 76.9615 49.5607 26.7445 0.0000 5.3524 0.0000
# 2 49.5607 94.4873 17.4158 0.0000 -5.9664 0.0000
# 3 26.7445 17.4158 66.5877 0.0000 29.4462 0.0000
# 4 0.0000 0.0000 0.0000 22.4999 0.0000 -7.5463
# 5 5.3524 -5.9664 29.4462 0.0000 33.2651 0.0000
# 6 0.0000 0.0000 0.0000 -7.5463 0.0000 22.2055
#
#
#
# Elastic Compliance Matrix: (Units=1/GPa)
#
#
# Indices 1 2 3 4 5 6 
#
# 1 0.021705 -0.010272 -0.006034 0.000000 0.000006 0.000000
# 2 -0.010272 0.017252 -0.004085 0.000000 0.008363 0.000000
# 3 -0.006034 -0.004085 0.030243 0.000000 -0.026533 0.000000
# 4 0.000000 0.000000 0.000000 0.050162 0.000000 0.017047
# 5 0.000006 0.008363 -0.026533 0.000000 0.055047 0.000000
# 6 0.000000 0.000000 0.000000 0.017047 0.000000 0.050827
#
#
# Mechanical properties :
#
#
# Convention : Reuss Voigt Hill
#
# Bulk Modulus (GPa) = 35.18838 47.27538 41.23188
# Shear Modulus (GPa) = 18.14946 25.21514 21.68230
#
# Velocity S-wave (km/s) = 2.88471 3.40018 3.15300
# Velocity P-wave (km/s) = 5.21818 6.09022 5.67099
#
# Compressibility (1/GPa) = 0.02841848
#
# Stress axis : x y z
#
# Youngs Moduli (GPa) = 46.07296 57.96306 33.06575
#
# Poissons Ratio (x) = 0.59540 0.19951
# Poissons Ratio (y) = 0.47326 0.13507
# Poissons Ratio (z) = 0.27799 0.23677
#
# Static dielectric constant tensor:
#      x y z
#    x 1.851490 0.000000 0.056310 
#    y 0.000000 1.818780 0.000000 
#    z 0.056310 0.000000 1.846490 
# 
# From -- ./inp_files/163295.got.cif
#   From: 2010.05.17/outbox.cif.g08.bks.cpg/sg15_82_cif.got.tgz:163295.got - 2010.06.03 18:47:42.
