data_PCOD9289151
_publ_section_title
;
Structure prediction by ZEFSAII (Michael W. Deem and Ramdas Pophale) SiO2 
 PCOD9289151
Probable space group: C 2/C
;
_chemical_formula_sum "Si O2"
_cell_formula_units_Z 64
_cell_length_a 7.587868
_cell_length_b 14.459148
_cell_length_c 26.483955
_cell_angle_alpha 90.000000
_cell_angle_beta 87.300647
_cell_angle_gamma 90.000000
_cell_volume 2902.439353
_symmetry_space_group_name_H-M "C 2/C"
_symmetry_group_IT_number 15
_symmetry_cell_setting 'monoclinic'
loop_
_space_group_symop_operation_xyz
x,y,z
-x,y,1/2-z
-x,-y,-z
x,-y,1/2+z
1/2+x,1/2+y,z
1/2-x,1/2+y,1/2-z
1/2-x,1/2-y,-z
1/2+x,1/2-y,1/2+z
loop_
_atom_site_type_symbol
_atom_site_label
_atom_site_fract_x
_atom_site_fract_y
_atom_site_fract_z
Si Si1 0.766890 0.318332 0.668595
Si Si2 0.210084 0.428065 0.739762
Si Si3 0.679066 0.847925 0.639140
Si Si4 0.856452 0.119409 0.432902
Si Si5 0.643974 0.245704 0.950257
Si Si6 0.386843 0.528889 0.597787
Si Si7 0.604792 0.911892 0.019790
Si Si8 0.635193 0.622187 0.795045
O O1 0.705868 0.395714 0.709190
O O2 0.654585 0.328099 0.620032
O O3 0.767353 0.218904 0.695295
O O4 0.968482 0.341146 0.648569
O O5 0.253839 0.354961 0.694979
O O6 0.257326 0.532056 0.724378
O O7 0.000000 0.422505 0.750000
O O8 0.744686 0.767797 0.601299
O O9 0.755484 0.943668 0.615125
O O10 0.680741 0.131091 0.467148
O O11 0.009574 0.170402 0.459814
O O12 0.928145 0.015962 0.422702
O O13 0.531945 0.152620 0.949359
O O14 0.750000 0.250000 0.000000
O O15 0.274322 0.573289 0.553785
O O16 0.423407 0.590720 0.647158
O O17 0.500000 0.000000 0.000000
O O18 0.500000 0.638754 0.750000
#
# Coordination Sequence:
#
# PCOD9289151 Si02
#       8
#     8   8   8   8   8   8   8   8
#     4  11  21  40  65  91 123 166 209 260 326 387
#     4   9  20  41  64  88 125 162 203 263 320 378
#     4   9  20  40  61  85 122 165 207 256 319 382
#     4  11  23  41  63  89 125 168 210 262 323 381
#     4  11  23  40  60  86 121 165 209 256 313 380
#     4  10  22  40  61  90 126 164 213 270 324 383
#     4  12  24  40  63  94 128 167 217 269 323 388
#     4  11  22  38  61  93 123 159 212 264 321 391
#
# _framework density 22.050418000000001
#
# number of rings (size 3 to 8) (size 9 to 14) (size 15 to 20)
#    0.000    1.500    0.000    6.375    0.000    2.000 
#    0.000   15.625    0.000    0.000    0.000    0.000 
#    0.000    0.000    0.000    0.000    0.000    0.000 
#
# Total GULP energy -178621.702038 kJ/mol
# GULP energy per Si atom -5581.928189 kJ/mol
# Density = 2.200023 g / cm^3
# Si number density = 22.050418 Si / 1000 Ang^3
#
#
#
# Elastic Constant Matrix: (Units=GPa)
#
#
# Indices 1 2 3 4 5 6 
#
# 1 45.2029 6.1847 36.7704 0.0000 7.6010 0.0000
# 2 6.1847 59.0611 45.1192 0.0000 -0.0581 0.0000
# 3 36.7704 45.1192 143.6429 0.0000 18.6600 0.0000
# 4 0.0000 0.0000 0.0000 36.8734 0.0000 1.6477
# 5 7.6010 -0.0581 18.6600 0.0000 40.8399 0.0000
# 6 0.0000 0.0000 0.0000 1.6477 0.0000 36.2790
#
#
#
# Elastic Compliance Matrix: (Units=1/GPa)
#
#
# Indices 1 2 3 4 5 6 
#
# 1 0.028547 0.003200 -0.008104 0.000000 -0.001606 0.000000
# 2 0.003200 0.023098 -0.008506 0.000000 0.003324 0.000000
# 3 -0.008104 -0.008506 0.012240 0.000000 -0.004096 0.000000
# 4 0.000000 0.000000 0.000000 0.027175 0.000000 -0.001234
# 5 -0.001606 0.003324 -0.004096 0.000000 0.026661 0.000000
# 6 0.000000 0.000000 0.000000 -0.001234 0.000000 0.027620
#
#
# Mechanical properties :
#
#
# Convention : Reuss Voigt Hill
#
# Bulk Modulus (GPa) = 26.97972 47.11729 37.04850
# Shear Modulus (GPa) = 27.09776 33.45397 30.27587
#
# Velocity S-wave (km/s) = 3.50937 3.89930 3.70946
# Velocity P-wave (km/s) = 5.35565 6.45655 5.93169
#
# Compressibility (1/GPa) = 0.03706488
#
# Stress axis : x y z
#
# Youngs Moduli (GPa) = 35.02985 43.29379 81.69748
#
# Poissons Ratio (x) = -0.13855 0.66210
# Poissons Ratio (y) = -0.11210 0.69494
# Poissons Ratio (z) = 0.28389 0.36827
#
# Static dielectric constant tensor:
#      x y z
#    x 1.793820 0.000000 -0.007120 
#    y 0.000000 1.527640 0.000000 
#    z -0.007120 0.000000 1.838440 
# 
# From -- ./inp_files/264735.got.cif
#   From: 2010.05.17/outbox.cif.g08.bks.cpg/sg15_133_cif.got.tgz:264735.got - 2010.06.03 18:47:42.
