data_PCOD9289647
_publ_section_title
;
Structure prediction by ZEFSAII (Michael W. Deem and Ramdas Pophale) SiO2 
 PCOD9289647
Probable space group: C 2/C
;
_chemical_formula_sum "Si O2"
_cell_formula_units_Z 60
_cell_length_a 15.563166
_cell_length_b 23.985707
_cell_length_c 7.516706
_cell_angle_alpha 90.000000
_cell_angle_beta 75.806994
_cell_angle_gamma 90.000000
_cell_volume 2720.287343
_symmetry_space_group_name_H-M "C 2/C"
_symmetry_group_IT_number 15
_symmetry_cell_setting 'monoclinic'
loop_
_space_group_symop_operation_xyz
x,y,z
-x,y,1/2-z
-x,-y,-z
x,-y,1/2+z
1/2+x,1/2+y,z
1/2-x,1/2+y,1/2-z
1/2-x,1/2-y,-z
1/2+x,1/2-y,1/2+z
loop_
_atom_site_type_symbol
_atom_site_label
_atom_site_fract_x
_atom_site_fract_y
_atom_site_fract_z
Si Si1 0.424999 0.281022 0.029144
Si Si2 0.631387 0.717844 0.551149
Si Si3 0.622109 0.839359 0.528343
Si Si4 0.759730 0.556424 0.635689
Si Si5 0.652328 0.598265 0.395374
Si Si6 0.500000 0.629070 0.250000
Si Si7 0.575703 0.158439 0.473714
Si Si8 0.788720 0.436570 0.521604
O O1 0.368760 0.291107 0.235783
O O2 0.527133 0.277762 0.046097
O O3 0.400555 0.220121 0.965738
O O4 0.429197 0.330196 0.884276
O O5 0.665776 0.778609 0.477487
O O6 0.666773 0.663008 0.439560
O O7 0.682700 0.890833 0.451054
O O8 0.530437 0.846426 0.466363
O O9 0.598553 0.839751 0.750596
O O10 0.672825 0.561005 0.557217
O O11 0.812343 0.499845 0.563057
O O12 0.743655 0.560529 0.852270
O O13 0.553704 0.594624 0.367933
O O14 0.720937 0.582169 0.207804
O O15 0.630590 0.107236 0.524543
#
# Coordination Sequence:
#
# PCOD9289647 Si02
#       8
#     8   8   8   8   8   4   8   8
#     4   8  16  34  60  93 131 165 197 260 310 373
#     4   8  17  35  62  92 130 166 202 255 320 372
#     4   9  18  38  65  96 130 173 209 256 308 377
#     4  12  25  44  66  86 131 168 209 273 319 360
#     4  11  24  44  65  93 126 165 211 269 320 384
#     4  10  22  40  66  96 128 162 214 262 324 390
#     4   9  18  37  64  94 132 171 216 244 306 380
#     4  12  25  44  65  91 125 173 211 264 318 371
#
# _framework density 22.056494000000001
#
# number of rings (size 3 to 8) (size 9 to 14) (size 15 to 20)
#    0.000    2.133    2.667    1.600    1.867    4.800 
#    0.000    2.000    0.000    0.000    0.000    0.000 
#    0.000    0.000    0.000    0.000    0.000    0.000 
#
# Total GULP energy -167653.175843 kJ/mol
# GULP energy per Si atom -5588.439195 kJ/mol
# Density = 2.200629 g / cm^3
# Si number density = 22.056494 Si / 1000 Ang^3
#
#
#
# Elastic Constant Matrix: (Units=GPa)
#
#
# Indices 1 2 3 4 5 6 
#
# 1 57.8584 25.5440 23.4634 0.0000 21.9898 0.0000
# 2 25.5440 77.9776 25.6164 0.0000 -1.2098 0.0000
# 3 23.4634 25.6164 100.9380 0.0000 13.9988 0.0000
# 4 0.0000 0.0000 0.0000 30.5324 0.0000 2.4904
# 5 21.9898 -1.2098 13.9988 0.0000 31.7111 0.0000
# 6 0.0000 0.0000 0.0000 2.4904 0.0000 19.3022
#
#
#
# Elastic Compliance Matrix: (Units=1/GPa)
#
#
# Indices 1 2 3 4 5 6 
#
# 1 0.029941 -0.009563 -0.001707 0.000000 -0.020374 0.000000
# 2 -0.009563 0.017196 -0.003357 0.000000 0.008770 0.000000
# 3 -0.001707 -0.003357 0.011728 0.000000 -0.004121 0.000000
# 4 0.000000 0.000000 0.000000 0.033100 0.000000 -0.004271
# 5 -0.020374 0.008770 -0.004121 0.000000 0.047817 0.000000
# 6 0.000000 0.000000 0.000000 -0.004271 0.000000 0.052358
#
#
# Mechanical properties :
#
#
# Convention : Reuss Voigt Hill
#
# Bulk Modulus (GPa) = 33.77376 42.89129 38.33253
# Shear Modulus (GPa) = 21.62012 27.11915 24.36963
#
# Velocity S-wave (km/s) = 3.13424 3.51027 3.32757
# Velocity P-wave (km/s) = 5.33325 5.99313 5.67279
#
# Compressibility (1/GPa) = 0.02960878
#
# Stress axis : x y z
#
# Youngs Moduli (GPa) = 33.39856 58.15324 85.26942
#
# Poissons Ratio (x) = 0.55615 0.14558
# Poissons Ratio (y) = 0.31941 0.28627
# Poissons Ratio (z) = 0.05702 0.19524
#
# Static dielectric constant tensor:
#      x y z
#    x 1.853860 0.000000 0.064780 
#    y 0.000000 1.807060 0.000000 
#    z 0.064780 0.000000 1.942540 
# 
# From -- ./inp_files/50200.got.cif
#   From: 2010.05.17/outbox.cif.g08.bks.cpg/sg15_26_cif.got.tgz:50200.got - 2010.06.03 18:47:42.
