data_PCOD9289576
_publ_section_title
;
Structure prediction by ZEFSAII (Michael W. Deem and Ramdas Pophale) SiO2 
 PCOD9289576
Probable space group: C 2/C
;
_chemical_formula_sum "Si O2"
_cell_formula_units_Z 64
_cell_length_a 9.447320
_cell_length_b 21.342144
_cell_length_c 14.763521
_cell_angle_alpha 90.000000
_cell_angle_beta 59.860466
_cell_angle_gamma 90.000000
_cell_volume 2574.274750
_symmetry_space_group_name_H-M "C 2/C"
_symmetry_group_IT_number 15
_symmetry_cell_setting 'monoclinic'
loop_
_space_group_symop_operation_xyz
x,y,z
-x,y,1/2-z
-x,-y,-z
x,-y,1/2+z
1/2+x,1/2+y,z
1/2-x,1/2+y,1/2-z
1/2-x,1/2-y,-z
1/2+x,1/2-y,1/2+z
loop_
_atom_site_type_symbol
_atom_site_label
_atom_site_fract_x
_atom_site_fract_y
_atom_site_fract_z
Si Si1 0.440824 0.698615 0.645417
Si Si2 0.104425 0.889133 0.829077
Si Si3 0.243858 0.423260 0.245134
Si Si4 0.367919 0.069281 0.921892
Si Si5 0.164119 0.185177 0.025327
Si Si6 0.715104 0.374326 0.001928
Si Si7 0.347525 0.497555 0.382310
Si Si8 0.563416 0.152883 0.331174
O O1 0.331740 0.644665 0.728874
O O2 0.403052 0.683431 0.554079
O O3 0.635098 0.684423 0.581154
O O4 0.408212 0.771599 0.674873
O O5 0.173425 0.884195 0.909113
O O6 0.263591 0.883109 0.714637
O O7 0.977563 0.946830 0.859209
O O8 0.984715 0.829089 0.860193
O O9 0.229011 0.441719 0.143081
O O10 0.320585 0.474792 0.288000
O O11 0.055834 0.422103 0.337709
O O12 0.300751 0.132625 0.986753
O O13 0.317612 0.017851 0.011364
O O14 0.250000 0.250000 0.000000
O O15 0.912019 0.368170 0.942961
O O16 0.619165 0.432189 0.078191
O O17 0.500000 0.139427 0.250000
#
# Coordination Sequence:
#
# PCOD9289576 Si02
#       8
#     8   8   8   8   8   8   8   8
#     4  10  22  40  66 101 138 182 243 305 360 437
#     4   9  21  42  66 101 141 187 238 306 367 434
#     4  10  22  40  69 106 140 194 249 298 369 437
#     4   9  21  43  64 106 148 192 243 308 365 435
#     4   9  19  37  68  92 139 189 234 293 377 435
#     4  10  22  42  67  99 136 194 235 301 380 427
#     4  11  22  42  75 100 146 192 248 293 373 450
#     4  10  22  41  67  98 140 183 245 305 372 429
#
# _framework density 24.861370999999998
#
# number of rings (size 3 to 8) (size 9 to 14) (size 15 to 20)
#    0.000    2.250    0.000    1.875    3.500    1.000 
#    9.000    0.000   13.750    0.000    0.000    0.000 
#    0.000    0.000    0.000    0.000    0.000    0.000 
#
# Total GULP energy -178704.011859 kJ/mol
# GULP energy per Si atom -5584.500371 kJ/mol
# Density = 2.480479 g / cm^3
# Si number density = 24.861371 Si / 1000 Ang^3
#
#
#
# Elastic Constant Matrix: (Units=GPa)
#
#
# Indices 1 2 3 4 5 6 
#
# 1 104.1259 34.2461 65.8061 0.0000 -14.8181 0.0000
# 2 34.2461 117.1367 55.5470 0.0000 -21.3654 0.0000
# 3 65.8061 55.5470 137.8814 0.0000 -21.3951 0.0000
# 4 0.0000 0.0000 0.0000 36.6096 0.0000 -2.7949
# 5 -14.8181 -21.3654 -21.3951 0.0000 49.2476 0.0000
# 6 0.0000 0.0000 0.0000 -2.7949 0.0000 27.2430
#
#
#
# Elastic Compliance Matrix: (Units=1/GPa)
#
#
# Indices 1 2 3 4 5 6 
#
# 1 0.013928 -0.000986 -0.006076 0.000000 0.001123 0.000000
# 2 -0.000986 0.011032 -0.003514 0.000000 0.002963 0.000000
# 3 -0.006076 -0.003514 0.011846 0.000000 0.001794 0.000000
# 4 0.000000 0.000000 0.000000 0.027531 0.000000 0.002824
# 5 0.001123 0.002963 0.001794 0.000000 0.022708 0.000000
# 6 0.000000 0.000000 0.000000 0.002824 0.000000 0.036996
#
#
# Mechanical properties :
#
#
# Convention : Reuss Voigt Hill
#
# Bulk Modulus (GPa) = 63.87836 74.48249 69.18043
# Shear Modulus (GPa) = 33.24217 36.18968 34.71593
#
# Velocity S-wave (km/s) = 3.66061 3.81945 3.74087
# Velocity P-wave (km/s) = 6.60427 7.03385 6.82244
#
# Compressibility (1/GPa) = 0.01565475
#
# Stress axis : x y z
#
# Youngs Moduli (GPa) = 71.79975 90.64465 84.41384
#
# Poissons Ratio (x) = 0.08936 0.51287
# Poissons Ratio (y) = 0.07078 0.29664
# Poissons Ratio (z) = 0.43623 0.31854
#
# Static dielectric constant tensor:
#      x y z
#    x 1.929350 0.000000 -0.029040 
#    y 0.000000 1.892280 0.000000 
#    z -0.029040 0.000000 2.012120 
# 
# From -- ./inp_files/240402.got.cif
#   From: 2010.05.17/outbox.cif.g08.bks.cpg/sg15_121_cif.got.tgz:240402.got - 2010.06.03 18:47:42.
