data_PCOD9289947
_publ_section_title
;
Structure prediction by ZEFSAII (Michael W. Deem and Ramdas Pophale) SiO2 
 PCOD9289947
Probable space group: C 2/C
;
_chemical_formula_sum "Si O2"
_cell_formula_units_Z 36
_cell_length_a 25.493053
_cell_length_b 8.856019
_cell_length_c 12.919285
_cell_angle_alpha 90.000000
_cell_angle_beta 148.066613
_cell_angle_gamma 90.000000
_cell_volume 1542.763983
_symmetry_space_group_name_H-M "C 2/C"
_symmetry_group_IT_number 15
_symmetry_cell_setting 'monoclinic'
loop_
_space_group_symop_operation_xyz
x,y,z
-x,y,1/2-z
-x,-y,-z
x,-y,1/2+z
1/2+x,1/2+y,z
1/2-x,1/2+y,1/2-z
1/2-x,1/2-y,-z
1/2+x,1/2-y,1/2+z
loop_
_atom_site_type_symbol
_atom_site_label
_atom_site_fract_x
_atom_site_fract_y
_atom_site_fract_z
Si Si1 0.000000 0.852760 0.750000
Si Si2 0.344915 0.878787 0.945127
Si Si3 0.121739 0.960028 0.626503
Si Si4 0.472634 0.164980 0.091749
Si Si5 0.150391 0.246208 0.771075
O O1 0.910174 0.733313 0.627572
O O2 0.944424 0.957999 0.573332
O O3 0.326714 0.787247 0.808577
O O4 0.240414 0.944683 0.807494
O O5 0.412593 0.017379 0.021199
O O6 0.109444 0.074447 0.701819
O O7 0.088357 0.787287 0.575193
O O8 0.500000 0.232372 0.250000
O O9 0.572178 0.142198 0.192976
O O10 0.250000 0.250000 0.000000
#
# Coordination Sequence:
#
# PCOD9289947 Si02
#       5
#     4   8   8   8   8
#     4  10  22  40  70  96 136 174 228 278 340 404
#     4  11  23  43  69 100 134 179 230 278 349 406
#     4  11  23  43  69 100 134 179 230 278 349 406
#     4  12  22  42  69  93 136 177 222 283 338 395
#     4  11  25  42  64 101 137 174 228 278 339 411
#
# _framework density 23.334741999999999
#
# number of rings (size 3 to 8) (size 9 to 14) (size 15 to 20)
#    0.000    0.889    2.222    6.667    0.000    0.000 
#    0.000    1.111    0.000    0.000    0.000    0.000 
#    0.000    0.000    0.000    0.000    0.000    0.000 
#
# Total GULP energy -100499.951735 kJ/mol
# GULP energy per Si atom -5583.330652 kJ/mol
# Density = 2.328163 g / cm^3
# Si number density = 23.334742 Si / 1000 Ang^3
#
#
#
# Elastic Constant Matrix: (Units=GPa)
#
#
# Indices 1 2 3 4 5 6 
#
# 1 41.6977 -17.1772 8.1965 0.0000 22.2934 0.0000
# 2 -17.1772 100.3005 34.0124 0.0000 7.2777 0.0000
# 3 8.1965 34.0124 139.8051 0.0000 16.2165 0.0000
# 4 0.0000 0.0000 0.0000 42.3784 0.0000 -0.0558
# 5 22.2934 7.2777 16.2165 0.0000 39.3200 0.0000
# 6 0.0000 0.0000 0.0000 -0.0558 0.0000 30.3176
#
#
#
# Elastic Compliance Matrix: (Units=1/GPa)
#
#
# Indices 1 2 3 4 5 6 
#
# 1 0.041305 0.009488 -0.001901 0.000000 -0.024391 0.000000
# 2 0.009488 0.013081 -0.002976 0.000000 -0.006573 0.000000
# 3 -0.001901 -0.002976 0.008191 0.000000 -0.001750 0.000000
# 4 0.000000 0.000000 0.000000 0.023597 0.000000 0.000043
# 5 -0.024391 -0.006573 -0.001750 0.000000 0.041200 0.000000
# 6 0.000000 0.000000 0.000000 0.000043 0.000000 0.032984
#
#
# Mechanical properties :
#
#
# Convention : Reuss Voigt Hill
#
# Bulk Modulus (GPa) = 13.92769 36.87405 25.40087
# Shear Modulus (GPa) = 28.56018 39.52131 34.04075
#
# Velocity S-wave (km/s) = 3.50227 4.11988 3.82357
# Velocity P-wave (km/s) = 4.72611 6.20224 5.51380
#
# Compressibility (1/GPa) = 0.07179943
#
# Stress axis : x y z
#
# Youngs Moduli (GPa) = 24.21027 76.44580 122.08095
#
# Poissons Ratio (x) = -0.72533 0.23204
# Poissons Ratio (y) = -0.22971 0.36334
# Poissons Ratio (z) = 0.04602 0.22752
#
# Static dielectric constant tensor:
#      x y z
#    x 1.882640 0.000000 0.000720 
#    y 0.000000 1.962470 0.000000 
#    z 0.000720 0.000000 1.910620 
# 
# From -- ./inp_files/150117.got.cif
#   From: 2010.05.17/outbox.cif.g08.bks.cpg/sg15_76_cif.got.tgz:150117.got - 2010.06.03 18:47:42.
