data_PCOD9289421
_publ_section_title
;
Structure prediction by ZEFSAII (Michael W. Deem and Ramdas Pophale) SiO2 
 PCOD9289421
Probable space group: C 2/C
;
_chemical_formula_sum "Si O2"
_cell_formula_units_Z 40
_cell_length_a 15.330242
_cell_length_b 11.929337
_cell_length_c 10.565087
_cell_angle_alpha 90.000000
_cell_angle_beta 60.242751
_cell_angle_gamma 90.000000
_cell_volume 1677.359586
_symmetry_space_group_name_H-M "C 2/C"
_symmetry_group_IT_number 15
_symmetry_cell_setting 'monoclinic'
loop_
_space_group_symop_operation_xyz
x,y,z
-x,y,1/2-z
-x,-y,-z
x,-y,1/2+z
1/2+x,1/2+y,z
1/2-x,1/2+y,1/2-z
1/2-x,1/2-y,-z
1/2+x,1/2-y,1/2+z
loop_
_atom_site_type_symbol
_atom_site_label
_atom_site_fract_x
_atom_site_fract_y
_atom_site_fract_z
Si Si1 0.278499 0.241334 0.650162
Si Si2 0.616734 0.473076 0.929576
Si Si3 0.568892 0.126108 0.814160
Si Si4 0.763531 0.991354 0.415061
Si Si5 0.603194 0.115489 0.375870
O O1 0.354544 0.343035 0.568343
O O2 0.326734 0.188034 0.742462
O O3 0.273451 0.138320 0.555804
O O4 0.169002 0.290771 0.760761
O O5 0.668173 0.503952 0.759967
O O6 0.500000 0.500000 0.000000
O O7 0.672332 0.527597 0.010286
O O8 0.500000 0.164985 0.750000
O O9 0.589876 0.992902 0.795755
O O10 0.503609 0.145970 0.988980
O O11 0.669387 0.069150 0.446931
#
# Coordination Sequence:
#
# PCOD9289421 Si02
#       5
#     8   8   8   8   8
#     4  10  23  41  65  97 126 173 219 264 327 388
#     4  11  24  43  65  99 132 171 215 273 324 388
#     4  10  22  40  64  94 128 172 217 269 324 385
#     4  10  23  43  69  90 133 175 213 268 327 383
#     4   9  22  41  62  95 129 169 218 271 319 391
#
# _framework density 23.847003999999998
#
# number of rings (size 3 to 8) (size 9 to 14) (size 15 to 20)
#    0.000    2.000    0.000    1.200   11.200    4.000 
#    3.600    0.000    0.000    0.000    0.000    0.000 
#    0.000    0.000    0.000    0.000    0.000    0.000 
#
# Total GULP energy -111851.661732 kJ/mol
# GULP energy per Si atom -5592.583087 kJ/mol
# Density = 2.379273 g / cm^3
# Si number density = 23.847004 Si / 1000 Ang^3
#
#
#
# Elastic Constant Matrix: (Units=GPa)
#
#
# Indices 1 2 3 4 5 6 
#
# 1 135.5532 19.8880 46.3521 0.0000 6.0521 0.0000
# 2 19.8880 50.8038 16.3648 0.0000 -13.2200 0.0000
# 3 46.3521 16.3648 83.7188 0.0000 0.7066 0.0000
# 4 0.0000 0.0000 0.0000 15.4255 0.0000 -12.8895
# 5 6.0521 -13.2200 0.7066 0.0000 50.6124 0.0000
# 6 0.0000 0.0000 0.0000 -12.8895 0.0000 34.9395
#
#
#
# Elastic Compliance Matrix: (Units=1/GPa)
#
#
# Indices 1 2 3 4 5 6 
#
# 1 0.009451 -0.002642 -0.004701 0.000000 -0.001754 0.000000
# 2 -0.002642 0.023425 -0.003171 0.000000 0.006479 0.000000
# 3 -0.004701 -0.003171 0.015172 0.000000 -0.000478 0.000000
# 4 0.000000 0.000000 0.000000 0.093716 0.000000 0.034573
# 5 -0.001754 0.006479 -0.000478 0.000000 0.021667 0.000000
# 6 0.000000 0.000000 0.000000 0.034573 0.000000 0.041375
#
#
# Mechanical properties :
#
#
# Convention : Reuss Voigt Hill
#
# Bulk Modulus (GPa) = 37.01077 48.36505 42.68791
# Shear Modulus (GPa) = 21.29108 32.69355 26.99231
#
# Velocity S-wave (km/s) = 2.99125 3.70668 3.36802
# Velocity P-wave (km/s) = 5.24251 6.21649 5.75016
#
# Compressibility (1/GPa) = 0.02701916
#
# Stress axis : x y z
#
# Youngs Moduli (GPa) = 105.81217 42.68930 65.91276
#
# Poissons Ratio (x) = 0.11278 0.30988
# Poissons Ratio (y) = 0.27954 0.20901
# Poissons Ratio (z) = 0.49746 0.13537
#
# Static dielectric constant tensor:
#      x y z
#    x 1.881530 0.000000 0.018150 
#    y 0.000000 1.960290 0.000000 
#    z 0.018150 0.000000 1.953070 
# 
# From -- ./inp_files/94866.got.cif
#   From: 2010.05.17/outbox.cif.g08.bks.cpg/sg15_48_cif.got.tgz:94866.got - 2010.06.03 18:47:42.
