data_PCOD9289493
_publ_section_title
;
Structure prediction by ZEFSAII (Michael W. Deem and Ramdas Pophale) SiO2 
 PCOD9289493
Probable space group: C 2/C
;
_chemical_formula_sum "Si O2"
_cell_formula_units_Z 40
_cell_length_a 17.558777
_cell_length_b 8.698918
_cell_length_c 11.827222
_cell_angle_alpha 90.000000
_cell_angle_beta 75.116968
_cell_angle_gamma 90.000000
_cell_volume 1745.913093
_symmetry_space_group_name_H-M "C 2/C"
_symmetry_group_IT_number 15
_symmetry_cell_setting 'monoclinic'
loop_
_space_group_symop_operation_xyz
x,y,z
-x,y,1/2-z
-x,-y,-z
x,-y,1/2+z
1/2+x,1/2+y,z
1/2-x,1/2+y,1/2-z
1/2-x,1/2-y,-z
1/2+x,1/2-y,1/2+z
loop_
_atom_site_type_symbol
_atom_site_label
_atom_site_fract_x
_atom_site_fract_y
_atom_site_fract_z
Si Si1 0.619516 0.536237 0.481633
Si Si2 0.819071 0.262628 0.882288
Si Si3 0.632025 0.097557 0.572069
Si Si4 0.504235 0.301975 0.879647
Si Si5 0.730906 0.724286 0.854432
O O1 0.628338 0.619273 0.598645
O O2 0.555613 0.404181 0.523888
O O3 0.587774 0.662713 0.405105
O O4 0.694414 0.440440 0.408711
O O5 0.860368 0.424581 0.888900
O O6 0.786592 0.245901 0.769443
O O7 0.750000 0.250000 0.000000
O O8 0.540101 0.138810 0.595526
O O9 0.684005 0.142151 0.441143
O O10 0.677726 0.209487 0.644563
O O11 0.500000 0.346040 0.750000
#
# Coordination Sequence:
#
# PCOD9289493 Si02
#       5
#     8   8   8   8   8
#     4  10  22  42  63  95 124 175 217 258 329 396
#     4  12  25  37  68  98 126 167 214 273 326 380
#     4  10  24  41  63  98 127 172 214 273 325 373
#     4  10  22  40  65  87 131 174 212 259 324 397
#     4  10  23  43  64  94 137 162 223 272 314 392
#
# _framework density 22.910651000000001
#
# number of rings (size 3 to 8) (size 9 to 14) (size 15 to 20)
#    0.000    1.600    2.000    1.200    5.600    0.800 
#    0.000    5.000    0.000    0.000    0.000    0.000 
#    0.000    0.000    0.000    0.000    0.000    0.000 
#
# Total GULP energy -111676.804176 kJ/mol
# GULP energy per Si atom -5583.840209 kJ/mol
# Density = 2.285850 g / cm^3
# Si number density = 22.910651 Si / 1000 Ang^3
#
#
#
# Elastic Constant Matrix: (Units=GPa)
#
#
# Indices 1 2 3 4 5 6 
#
# 1 44.4965 11.9310 3.7908 0.0000 9.3265 0.0000
# 2 11.9310 85.9773 20.2708 0.0000 4.4347 0.0000
# 3 3.7908 20.2708 142.2417 0.0000 33.1462 0.0000
# 4 0.0000 0.0000 0.0000 19.5183 0.0000 9.6435
# 5 9.3265 4.4347 33.1462 0.0000 29.5871 0.0000
# 6 0.0000 0.0000 0.0000 9.6435 0.0000 24.4547
#
#
#
# Elastic Compliance Matrix: (Units=1/GPa)
#
#
# Indices 1 2 3 4 5 6 
#
# 1 0.025289 -0.003501 0.002112 0.000000 -0.009813 0.000000
# 2 -0.003501 0.012521 -0.002045 0.000000 0.001518 0.000000
# 3 0.002112 -0.002045 0.009945 0.000000 -0.011501 0.000000
# 4 0.000000 0.000000 0.000000 0.063632 0.000000 -0.025092
# 5 -0.009813 0.001518 -0.011501 0.000000 0.049549 0.000000
# 6 0.000000 0.000000 0.000000 -0.025092 0.000000 0.050787
#
#
# Mechanical properties :
#
#
# Convention : Reuss Voigt Hill
#
# Bulk Modulus (GPa) = 24.45760 38.30006 31.37883
# Shear Modulus (GPa) = 21.53133 30.49354 26.01244
#
# Velocity S-wave (km/s) = 3.06893 3.65221 3.37320
# Velocity P-wave (km/s) = 4.82247 5.87693 5.37562
#
# Compressibility (1/GPa) = 0.04088709
#
# Stress axis : x y z
#
# Youngs Moduli (GPa) = 39.54241 79.86836 100.54859
#
# Poissons Ratio (x) = 0.27963 -0.21232
# Poissons Ratio (y) = 0.13844 0.20558
# Poissons Ratio (z) = -0.08350 0.16330
#
# Static dielectric constant tensor:
#      x y z
#    x 2.024220 0.000000 0.039500 
#    y 0.000000 1.953840 0.000000 
#    z 0.039500 0.000000 1.842860 
# 
# From -- ./inp_files/102685.got.cif
#   From: 2010.05.17/outbox.cif.g08.bks.cpg/sg15_52_cif.got.tgz:102685.got - 2010.06.03 18:47:42.
