data_PCOD9289873
_publ_section_title
;
Structure prediction by ZEFSAII (Michael W. Deem and Ramdas Pophale) SiO2 
 PCOD9289873
Probable space group: C 2/C
;
_chemical_formula_sum "Si O2"
_cell_formula_units_Z 48
_cell_length_a 21.792874
_cell_length_b 24.807972
_cell_length_c 5.116728
_cell_angle_alpha 90.000000
_cell_angle_beta 50.462172
_cell_angle_gamma 90.000000
_cell_volume 2133.377131
_symmetry_space_group_name_H-M "C 2/C"
_symmetry_group_IT_number 15
_symmetry_cell_setting 'monoclinic'
loop_
_space_group_symop_operation_xyz
x,y,z
-x,y,1/2-z
-x,-y,-z
x,-y,1/2+z
1/2+x,1/2+y,z
1/2-x,1/2+y,1/2-z
1/2-x,1/2-y,-z
1/2+x,1/2-y,1/2+z
loop_
_atom_site_type_symbol
_atom_site_label
_atom_site_fract_x
_atom_site_fract_y
_atom_site_fract_z
Si Si1 0.641651 0.217644 0.093314
Si Si2 0.591768 0.128097 0.900916
Si Si3 0.500000 0.460628 0.250000
Si Si4 0.306695 0.032555 0.636868
Si Si5 0.797142 0.832911 0.434139
Si Si6 0.161318 0.100230 0.181462
Si Si7 0.500000 0.833092 0.250000
O O1 0.661188 0.280168 0.055939
O O2 0.553066 0.207473 0.437259
O O3 0.635605 0.184928 0.837908
O O4 0.711781 0.187341 0.060991
O O5 0.638782 0.081099 0.909207
O O6 0.570293 0.127483 0.657245
O O7 0.500000 0.128417 0.250000
O O8 0.500000 0.500000 0.500000
O O9 0.422947 0.422695 0.496461
O O10 0.321074 0.015904 0.301050
O O11 0.216531 0.052170 0.923369
O O12 0.796416 0.875160 0.674412
O O13 0.839954 0.857784 0.059389
#
# Coordination Sequence:
#
# PCOD9289873 Si02
#       7
#     8   8   4   8   8   8   4
#     4  10  23  41  67 103 136 187 223 278 343 420
#     4  10  23  42  65  97 139 179 225 276 338 408
#     4  12  26  48  75 100 140 187 238 298 364 408
#     4  12  26  43  69  96 131 176 232 282 339 402
#     4  11  25  42  74 100 141 178 231 281 345 417
#     4  12  25  46  69 103 138 177 232 292 347 419
#     4  10  22  40  69  90 148 177 228 268 348 406
#
# _framework density 22.499537
#
# number of rings (size 3 to 8) (size 9 to 14) (size 15 to 20)
#    0.000    1.000    1.667    4.000    7.000    3.333 
#    1.500    0.000    0.000    0.000    0.000    0.000 
#    0.000    0.000    0.000    0.000    0.000    0.000 
#
# Total GULP energy -133909.612282 kJ/mol
# GULP energy per Si atom -5579.567178 kJ/mol
# Density = 2.244833 g / cm^3
# Si number density = 22.499537 Si / 1000 Ang^3
#
#
#
# Elastic Constant Matrix: (Units=GPa)
#
#
# Indices 1 2 3 4 5 6 
#
# 1 70.8375 34.0657 18.2389 0.0000 2.7146 0.0000
# 2 34.0657 83.7606 23.4418 0.0000 3.4138 0.0000
# 3 18.2389 23.4418 83.7515 0.0000 -4.3662 0.0000
# 4 0.0000 0.0000 0.0000 31.0973 0.0000 -2.8835
# 5 2.7146 3.4138 -4.3662 0.0000 38.4999 0.0000
# 6 0.0000 0.0000 0.0000 -2.8835 0.0000 8.0698
#
#
#
# Elastic Compliance Matrix: (Units=1/GPa)
#
#
# Indices 1 2 3 4 5 6 
#
# 1 0.017888 -0.006656 -0.002080 0.000000 -0.000907 0.000000
# 2 -0.006656 0.015525 -0.002961 0.000000 -0.001243 0.000000
# 3 -0.002080 -0.002961 0.013322 0.000000 0.001920 0.000000
# 4 0.000000 0.000000 0.000000 0.033259 0.000000 0.011884
# 5 -0.000907 -0.001243 0.001920 0.000000 0.026366 0.000000
# 6 0.000000 0.000000 0.000000 0.011884 0.000000 0.128165
#
#
# Mechanical properties :
#
#
# Convention : Reuss Voigt Hill
#
# Bulk Modulus (GPa) = 42.84179 43.31583 43.07881
# Shear Modulus (GPa) = 18.81833 26.37362 22.59597
#
# Velocity S-wave (km/s) = 2.89517 3.42743 3.17249
# Velocity P-wave (km/s) = 5.50078 5.91242 5.71031
#
# Compressibility (1/GPa) = 0.02334170
#
# Stress axis : x y z
#
# Youngs Moduli (GPa) = 55.90354 64.41187 75.06493
#
# Poissons Ratio (x) = 0.42873 0.15612
# Poissons Ratio (y) = 0.37210 0.22225
# Poissons Ratio (z) = 0.11627 0.19071
#
# Static dielectric constant tensor:
#      x y z
#    x 2.047080 0.000000 0.243640 
#    y 0.000000 1.849210 0.000000 
#    z 0.243640 0.000000 2.063680 
# 
# From -- ./inp_files/15784.got.cif
#   From: 2010.05.17/outbox.cif.g08.bks.cpg/sg15_8_cif.got.tgz:15784.got - 2010.06.03 18:47:42.
