data_PCOD9289682
_publ_section_title
;
Structure prediction by ZEFSAII (Michael W. Deem and Ramdas Pophale) SiO2 
 PCOD9289682
Probable space group: C 2/C
;
_chemical_formula_sum "Si O2"
_cell_formula_units_Z 28
_cell_length_a 11.735005
_cell_length_b 12.431723
_cell_length_c 8.388637
_cell_angle_alpha 90.000000
_cell_angle_beta 121.688729
_cell_angle_gamma 90.000000
_cell_volume 1041.338464
_symmetry_space_group_name_H-M "C 2/C"
_symmetry_group_IT_number 15
_symmetry_cell_setting 'monoclinic'
loop_
_space_group_symop_operation_xyz
x,y,z
-x,y,1/2-z
-x,-y,-z
x,-y,1/2+z
1/2+x,1/2+y,z
1/2-x,1/2+y,1/2-z
1/2-x,1/2-y,-z
1/2+x,1/2-y,1/2+z
loop_
_atom_site_type_symbol
_atom_site_label
_atom_site_fract_x
_atom_site_fract_y
_atom_site_fract_z
Si Si1 0.000000 0.134994 0.750000
Si Si2 0.213682 0.625390 0.481855
Si Si3 0.436432 0.387556 0.529365
Si Si4 0.632349 0.934319 0.250911
O O1 0.858157 0.075283 0.633511
O O2 0.018370 0.188974 0.588094
O O3 0.250000 0.750000 0.500000
O O4 0.161020 0.562058 0.292216
O O5 0.120820 0.595712 0.559701
O O6 0.500000 0.364781 0.750000
O O7 0.500000 0.500000 0.500000
O O8 0.274278 0.383246 0.414396
O O9 0.500000 0.904527 0.250000
#
# Coordination Sequence:
#
# PCOD9289682 Si02
#       4
#     4   8   8   8
#     4  10  22  40  66  98 138 182 248 296 354 432
#     4  11  25  44  74 105 146 195 246 305 374 445
#     4  11  18  35  67  99 132 189 244 292 356 438
#     4  11  24  44  73 108 151 193 239 312 381 436
#
# _framework density 26.888475
#
# number of rings (size 3 to 8) (size 9 to 14) (size 15 to 20)
#    0.000    1.143    4.286    2.571    2.000    0.000 
#    0.000    2.857   12.571    0.000    0.000    0.000 
#    0.000    0.000    0.000    0.000    0.000    0.000 
#
# Total GULP energy -78074.825435 kJ/mol
# GULP energy per Si atom -5576.773245 kJ/mol
# Density = 2.682728 g / cm^3
# Si number density = 26.888475 Si / 1000 Ang^3
#
#
#
# Elastic Constant Matrix: (Units=GPa)
#
#
# Indices 1 2 3 4 5 6 
#
# 1 240.6245 30.1716 63.4263 0.0000 -3.9499 0.0000
# 2 30.1716 127.3020 43.7312 0.0000 -21.9999 0.0000
# 3 63.4263 43.7312 173.2033 0.0000 -13.5778 0.0000
# 4 0.0000 0.0000 0.0000 6.8389 0.0000 12.7238
# 5 -3.9499 -21.9999 -13.5778 0.0000 69.4753 0.0000
# 6 0.0000 0.0000 0.0000 12.7238 0.0000 14.2031
#
#
#
# Elastic Compliance Matrix: (Units=1/GPa)
#
#
# Indices 1 2 3 4 5 6 
#
# 1 0.004640 -0.000602 -0.001565 0.000000 -0.000233 0.000000
# 2 -0.000602 0.009069 -0.001876 0.000000 0.002471 0.000000
# 3 -0.001565 -0.001876 0.006872 0.000000 0.000660 0.000000
# 4 0.000000 0.000000 0.000000 -0.219320 0.000000 0.196476
# 5 -0.000233 0.002471 0.000660 0.000000 0.015292 0.000000
# 6 0.000000 0.000000 0.000000 0.196476 0.000000 -0.105605
#
#
# Mechanical properties :
#
#
# Convention : Reuss Voigt Hill
#
# Bulk Modulus (GPa) = 80.03095 90.64311 85.33703
# Shear Modulus (GPa) = -18.06361 45.02350 13.47995
#
# Velocity S-wave (km/s) = -2.59472 4.09645 2.24146
# Velocity P-wave (km/s) = 4.56639 7.49390 6.20525
#
# Compressibility (1/GPa) = 0.01249517
#
# Stress axis : x y z
#
# Youngs Moduli (GPa) = 215.50930 110.26024 145.51534
#
# Poissons Ratio (x) = 0.06640 0.22779
# Poissons Ratio (y) = 0.12979 0.27294
# Poissons Ratio (z) = 0.33736 0.20681
#
# Static dielectric constant tensor:
#      x y z
#    x 2.138670 0.000000 -0.045810 
#    y 0.000000 2.360720 0.000000 
#    z -0.045810 0.000000 2.280680 
# 
# From -- ./inp_files/27727.got.cif
#   From: 2010.05.17/outbox.cif.g08.bks.cpg/sg15_14_cif.got.tgz:27727.got - 2010.06.03 18:47:42.
