data_PCOD9289380
_publ_section_title
;
Structure prediction by ZEFSAII (Michael W. Deem and Ramdas Pophale) SiO2 
 PCOD9289380
Probable space group: C 2/C
;
_chemical_formula_sum "Si O2"
_cell_formula_units_Z 56
_cell_length_a 14.789600
_cell_length_b 6.767906
_cell_length_c 28.102610
_cell_angle_alpha 90.000000
_cell_angle_beta 66.040317
_cell_angle_gamma 90.000000
_cell_volume 2570.534857
_symmetry_space_group_name_H-M "C 2/C"
_symmetry_group_IT_number 15
_symmetry_cell_setting 'monoclinic'
loop_
_space_group_symop_operation_xyz
x,y,z
-x,y,1/2-z
-x,-y,-z
x,-y,1/2+z
1/2+x,1/2+y,z
1/2-x,1/2+y,1/2-z
1/2-x,1/2-y,-z
1/2+x,1/2-y,1/2+z
loop_
_atom_site_type_symbol
_atom_site_label
_atom_site_fract_x
_atom_site_fract_y
_atom_site_fract_z
Si Si1 0.364058 0.765227 0.204846
Si Si2 0.837912 0.616554 0.267736
Si Si3 0.603388 0.053198 0.386225
Si Si4 0.392726 0.862263 0.437289
Si Si5 0.966699 0.873920 0.174257
Si Si6 0.241255 0.467390 0.944124
Si Si7 0.170728 0.321137 0.623973
O O1 0.264427 0.648714 0.238512
O O2 0.444815 0.603694 0.175142
O O3 0.388755 0.912048 0.242308
O O4 0.347765 0.909508 0.163424
O O5 0.909768 0.785361 0.232335
O O6 0.801233 0.612045 0.329518
O O7 0.569851 0.246920 0.363721
O O8 0.678583 0.111615 0.412022
O O9 0.507315 0.922629 0.423425
O O10 0.343948 0.647691 0.435235
O O11 0.328401 0.939955 0.495444
O O12 0.368350 0.993100 0.396466
O O13 0.080999 0.827379 0.153986
O O14 0.257991 0.694440 0.924947
#
# Coordination Sequence:
#
# PCOD9289380 Si02
#       7
#     8   8   8   8   8   8   8
#     4  11  21  38  62  88 121 159 209 251 309 378
#     4  11  22  36  61  87 119 161 204 254 304 375
#     4  10  22  40  64  90 124 166 207 260 317 380
#     4  10  24  41  60  95 126 158 216 266 312 382
#     4  10  23  40  58  90 124 159 203 258 308 376
#     4  11  22  40  67  90 123 169 208 262 324 371
#     4  11  23  41  61  87 125 161 207 257 316 374
#
# _framework density 21.785349
#
# number of rings (size 3 to 8) (size 9 to 14) (size 15 to 20)
#    0.000    1.429    2.857    2.143    2.000    1.143 
#    0.000    4.286    0.000    9.429    0.000    0.000 
#    0.000    0.000    0.000    0.000    0.000    0.000 
#
# Total GULP energy -156185.354128 kJ/mol
# GULP energy per Si atom -5578.048362 kJ/mol
# Density = 2.173576 g / cm^3
# Si number density = 21.785349 Si / 1000 Ang^3
#
#
#
# Elastic Constant Matrix: (Units=GPa)
#
#
# Indices 1 2 3 4 5 6 
#
# 1 41.5334 -3.2130 -3.8123 0.0000 1.6459 -0.0001
# 2 -3.2130 64.4085 17.5712 0.0000 5.6616 -0.0001
# 3 -3.8123 17.5712 44.6619 0.0000 -7.0021 0.0000
# 4 0.0000 0.0000 0.0000 30.9010 0.0000 -11.9184
# 5 1.6459 5.6616 -7.0021 0.0000 31.7824 0.0000
# 6 -0.0001 -0.0001 0.0000 -11.9184 0.0000 16.7525
#
#
#
# Elastic Compliance Matrix: (Units=1/GPa)
#
#
# Indices 1 2 3 4 5 6 
#
# 1 0.024331 0.000882 0.001562 0.000000 -0.001073 0.000000
# 2 0.000882 0.018152 -0.007852 0.000000 -0.005009 0.000000
# 3 0.001562 -0.007852 0.026743 0.000000 0.007210 0.000000
# 4 0.000000 0.000000 0.000000 0.044599 0.000000 0.031730
# 5 -0.001073 -0.005009 0.007210 0.000000 0.034000 0.000000
# 6 0.000000 0.000000 0.000000 0.031730 0.000000 0.082266
#
#
# Mechanical properties :
#
#
# Convention : Reuss Voigt Hill
#
# Bulk Modulus (GPa) = 17.12020 19.07729 18.09875
# Shear Modulus (GPa) = 19.20283 25.22436 22.21359
#
# Velocity S-wave (km/s) = 2.97215 3.40642 3.19667
# Velocity P-wave (km/s) = 4.43327 4.92418 4.68516
#
# Compressibility (1/GPa) = 0.05841054
#
# Stress axis : x y z
#
# Youngs Moduli (GPa) = 41.09966 55.08971 37.39277
#
# Poissons Ratio (x) = -0.04859 -0.05839
# Poissons Ratio (y) = -0.03625 0.29359
# Poissons Ratio (z) = -0.06418 0.43254
#
# Static dielectric constant tensor:
#      x y z
#    x 1.841180 0.000000 0.002810 
#    y 0.000000 1.838460 0.000000 
#    z 0.002810 0.000000 1.811420 
# 
# From -- ./inp_files/315010.got.cif
#   From: 2010.05.17/outbox.cif.g08.bks.cpg/sg15_158_cif.got.tgz:315010.got - 2010.06.03 18:47:42.
