data_PCOD9289301
_publ_section_title
;
Structure prediction by ZEFSAII (Michael W. Deem and Ramdas Pophale) SiO2 
 PCOD9289301
Probable space group: C 2/C
;
_chemical_formula_sum "Si O2"
_cell_formula_units_Z 48
_cell_length_a 19.117736
_cell_length_b 11.458749
_cell_length_c 11.844127
_cell_angle_alpha 90.000000
_cell_angle_beta 95.338210
_cell_angle_gamma 90.000000
_cell_volume 2583.384422
_symmetry_space_group_name_H-M "C 2/C"
_symmetry_group_IT_number 15
_symmetry_cell_setting 'monoclinic'
loop_
_space_group_symop_operation_xyz
x,y,z
-x,y,1/2-z
-x,-y,-z
x,-y,1/2+z
1/2+x,1/2+y,z
1/2-x,1/2+y,1/2-z
1/2-x,1/2-y,-z
1/2+x,1/2-y,1/2+z
loop_
_atom_site_type_symbol
_atom_site_label
_atom_site_fract_x
_atom_site_fract_y
_atom_site_fract_z
Si Si1 0.311061 0.882814 0.098892
Si Si2 0.664625 0.737398 0.618939
Si Si3 0.074244 0.056449 0.476512
Si Si4 0.346760 0.666533 0.450305
Si Si5 0.423234 0.279674 0.735255
Si Si6 0.183565 0.654802 0.364377
O O1 0.232656 0.847558 0.125718
O O2 0.364830 0.806911 0.179770
O O3 0.327588 0.017817 0.118909
O O4 0.320175 0.837860 0.971751
O O5 0.599558 0.659029 0.565643
O O6 0.658977 0.795497 0.740341
O O7 0.071762 0.113443 0.352240
O O8 0.133413 0.955846 0.488986
O O9 0.000000 0.000000 0.500000
O O10 0.399840 0.680977 0.354954
O O11 0.267932 0.669912 0.389576
O O12 0.351487 0.769205 0.542163
O O13 0.500000 0.223582 0.750000
#
# Coordination Sequence:
#
# PCOD9289301 Si02
#       6
#     8   8   8   8   8   8
#     4  10  22  40  63  92 126 169 213 258 320 382
#     4  10  22  40  63  94 127 169 212 264 323 373
#     4  11  23  41  66  95 128 164 213 268 320 379
#     4  11  24  38  62  99 122 170 214 259 330 371
#     4  11  23  42  64  90 130 172 207 263 325 382
#     4  11  24  39  66  95 131 160 217 272 309 396
#
# _framework density 18.580278
#
# number of rings (size 3 to 8) (size 9 to 14) (size 15 to 20)
#    0.000    1.333    5.000    0.000    4.667    0.000 
#    0.000    2.500    0.000    0.000    0.000    0.000 
#    0.000    0.000    0.000    0.000    0.000    0.000 
#
# Total GULP energy -134042.319102 kJ/mol
# GULP energy per Si atom -5585.096629 kJ/mol
# Density = 1.853799 g / cm^3
# Si number density = 18.580278 Si / 1000 Ang^3
#
#
#
# Elastic Constant Matrix: (Units=GPa)
#
#
# Indices 1 2 3 4 5 6 
#
# 1 79.2516 24.6818 39.7834 0.0000 -2.4170 0.0000
# 2 24.6818 127.8292 64.0909 0.0000 -15.7709 0.0000
# 3 39.7834 64.0909 116.5773 0.0000 -8.0880 0.0000
# 4 0.0000 0.0000 0.0000 14.1392 0.0000 4.4649
# 5 -2.4170 -15.7709 -8.0880 0.0000 21.5955 0.0000
# 6 0.0000 0.0000 0.0000 4.4649 0.0000 30.0523
#
#
#
# Elastic Compliance Matrix: (Units=1/GPa)
#
#
# Indices 1 2 3 4 5 6 
#
# 1 0.015252 -0.000528 -0.004952 0.000000 -0.000533 0.000000
# 2 -0.000528 0.011579 -0.005753 0.000000 0.006243 0.000000
# 3 -0.004952 -0.005753 0.013450 0.000000 0.000282 0.000000
# 4 0.000000 0.000000 0.000000 0.074207 0.000000 -0.011025
# 5 -0.000533 0.006243 0.000282 0.000000 0.050911 0.000000
# 6 0.000000 0.000000 0.000000 -0.011025 0.000000 0.034913
#
#
# Mechanical properties :
#
#
# Convention : Reuss Voigt Hill
#
# Bulk Modulus (GPa) = 56.12733 64.53001 60.32867
# Shear Modulus (GPa) = 21.86120 26.16420 24.01270
#
# Velocity S-wave (km/s) = 3.43385 3.75663 3.59886
# Velocity P-wave (km/s) = 6.78199 7.32271 7.05753
#
# Compressibility (1/GPa) = 0.01781663
#
# Stress axis : x y z
#
# Youngs Moduli (GPa) = 65.56577 86.36050 74.34943
#
# Poissons Ratio (x) = 0.04560 0.36814
# Poissons Ratio (y) = 0.03462 0.42771
# Poissons Ratio (z) = 0.32465 0.49681
#
# Static dielectric constant tensor:
#      x y z
#    x 1.637760 0.000000 0.011950 
#    y 0.000000 1.620920 0.000000 
#    z 0.011950 0.000000 1.636080 
# 
# From -- ./inp_files/103749.got.cif
#   From: 2010.05.17/outbox.cif.g08.bks.cpg/sg15_52_cif.got.tgz:103749.got - 2010.06.03 18:47:42.
