data_PCOD9289916
_publ_section_title
;
Structure prediction by ZEFSAII (Michael W. Deem and Ramdas Pophale) SiO2 
 PCOD9289916
Probable space group: C 2/C
;
_chemical_formula_sum "Si O2"
_cell_formula_units_Z 36
_cell_length_a 9.818922
_cell_length_b 19.069652
_cell_length_c 8.026665
_cell_angle_alpha 90.000000
_cell_angle_beta 80.991882
_cell_angle_gamma 90.000000
_cell_volume 1484.403235
_symmetry_space_group_name_H-M "C 2/C"
_symmetry_group_IT_number 15
_symmetry_cell_setting 'monoclinic'
loop_
_space_group_symop_operation_xyz
x,y,z
-x,y,1/2-z
-x,-y,-z
x,-y,1/2+z
1/2+x,1/2+y,z
1/2-x,1/2+y,1/2-z
1/2-x,1/2-y,-z
1/2+x,1/2-y,1/2+z
loop_
_atom_site_type_symbol
_atom_site_label
_atom_site_fract_x
_atom_site_fract_y
_atom_site_fract_z
Si Si1 0.609005 0.960742 0.360260
Si Si2 0.000000 0.804956 0.750000
Si Si3 0.760399 0.903321 0.876971
Si Si4 0.159320 0.872944 0.280987
Si Si5 0.916826 0.271598 0.596860
O O1 0.500000 0.930887 0.250000
O O2 0.705942 0.027750 0.297654
O O3 0.500000 0.000000 0.500000
O O4 0.724380 0.901170 0.368163
O O5 0.871584 0.857623 0.757840
O O6 0.011481 0.759809 0.580235
O O7 0.638706 0.848092 0.927950
O O8 0.822442 0.916432 0.049867
O O9 0.186756 0.792142 0.331258
O O10 0.000000 0.877505 0.250000
O O11 0.000000 0.279342 0.750000
#
# Coordination Sequence:
#
# PCOD9289916 Si02
#       5
#     8   4   8   8   8
#     4  12  26  44  67 103 138 187 229 285 360 419
#     4  10  22  40  70 104 136 190 236 292 356 416
#     4  11  24  44  69 103 143 181 241 291 351 429
#     4  10  23  44  70  98 141 184 232 288 354 416
#     4  10  23  45  70 107 139 182 238 298 357 416
#
# _framework density 24.252172000000002
#
# number of rings (size 3 to 8) (size 9 to 14) (size 15 to 20)
#    0.000    1.333    2.222    3.333    1.556   10.667 
#    2.000    2.222    0.000    0.000    0.000    0.000 
#    0.000    0.000    0.000    0.000    0.000    0.000 
#
# Total GULP energy -100420.827220 kJ/mol
# GULP energy per Si atom -5578.934846 kJ/mol
# Density = 2.419697 g / cm^3
# Si number density = 24.252172 Si / 1000 Ang^3
#
#
#
# Elastic Constant Matrix: (Units=GPa)
#
#
# Indices 1 2 3 4 5 6 
#
# 1 82.8304 26.2225 37.5120 0.0000 20.4788 0.0000
# 2 26.2225 123.0585 41.2188 0.0000 -5.4778 0.0000
# 3 37.5120 41.2188 90.9613 0.0000 -10.1109 0.0000
# 4 0.0000 0.0000 0.0000 74.2857 0.0000 -18.3140
# 5 20.4788 -5.4778 -10.1109 0.0000 34.0140 0.0000
# 6 0.0000 0.0000 0.0000 -18.3140 0.0000 23.1492
#
#
#
# Elastic Compliance Matrix: (Units=1/GPa)
#
#
# Indices 1 2 3 4 5 6 
#
# 1 0.020855 -0.001978 -0.009448 0.000000 -0.015683 0.000000
# 2 -0.001978 0.009770 -0.003417 0.000000 0.001748 0.000000
# 3 -0.009448 -0.003417 0.017591 0.000000 0.010367 0.000000
# 4 0.000000 0.000000 0.000000 0.016723 0.000000 0.013230
# 5 -0.015683 0.001748 0.010367 0.000000 0.042205 0.000000
# 6 0.000000 0.000000 0.000000 0.013230 0.000000 0.053665
#
#
# Mechanical properties :
#
#
# Convention : Reuss Voigt Hill
#
# Bulk Modulus (GPa) = 53.96481 56.30632 55.13556
# Shear Modulus (GPa) = 25.42320 39.08291 32.25306
#
# Velocity S-wave (km/s) = 3.24124 4.01873 3.65074
# Velocity P-wave (km/s) = 6.02556 6.69336 6.36822
#
# Compressibility (1/GPa) = 0.01853059
#
# Stress axis : x y z
#
# Youngs Moduli (GPa) = 47.95034 102.35298 56.84814
#
# Poissons Ratio (x) = 0.20241 0.53708
# Poissons Ratio (y) = 0.09483 0.19427
# Poissons Ratio (z) = 0.45301 0.34978
#
# Static dielectric constant tensor:
#      x y z
#    x 2.061660 0.000000 -0.069880 
#    y 0.000000 1.895790 0.000000 
#    z -0.069880 0.000000 2.144200 
# 
# From -- ./inp_files/23324.got.cif
#   From: 2010.05.17/outbox.cif.g08.bks.cpg/sg15_12_cif.got.tgz:23324.got - 2010.06.03 18:47:42.
