data_PCOD9289457
_publ_section_title
;
Structure prediction by ZEFSAII (Michael W. Deem and Ramdas Pophale) SiO2 
 PCOD9289457
Probable space group: C 2/C
;
_chemical_formula_sum "Si O2"
_cell_formula_units_Z 52
_cell_length_a 18.421756
_cell_length_b 7.320425
_cell_length_c 29.012068
_cell_angle_alpha 90.000000
_cell_angle_beta 145.180777
_cell_angle_gamma 90.000000
_cell_volume 2233.951685
_symmetry_space_group_name_H-M "C 2/C"
_symmetry_group_IT_number 15
_symmetry_cell_setting 'monoclinic'
loop_
_space_group_symop_operation_xyz
x,y,z
-x,y,1/2-z
-x,-y,-z
x,-y,1/2+z
1/2+x,1/2+y,z
1/2-x,1/2+y,1/2-z
1/2-x,1/2-y,-z
1/2+x,1/2-y,1/2+z
loop_
_atom_site_type_symbol
_atom_site_label
_atom_site_fract_x
_atom_site_fract_y
_atom_site_fract_z
Si Si1 0.205628 0.452212 0.174678
Si Si2 0.271686 0.080801 0.912969
Si Si3 0.683502 0.086987 0.261517
Si Si4 0.000000 0.037367 0.250000
Si Si5 0.952324 0.333380 0.157942
Si Si6 0.928557 0.287250 0.044542
Si Si7 0.788710 0.007831 0.911397
O O1 0.188869 0.522563 0.114247
O O2 0.315432 0.300926 0.227368
O O3 0.228406 0.568899 0.232046
O O4 0.075117 0.342804 0.115958
O O5 0.307707 0.293124 0.932413
O O6 0.119282 0.069183 0.832466
O O7 0.341284 0.962821 0.987578
O O8 0.768685 0.990613 0.345586
O O9 0.545487 0.999257 0.194554
O O10 0.033187 0.179405 0.226443
O O11 0.904858 0.244712 0.085705
O O12 0.838958 0.410325 0.130710
O O13 0.896457 0.128145 0.991740
#
# Coordination Sequence:
#
# PCOD9289457 Si02
#       7
#     8   8   8   4   8   8   8
#     4  10  25  42  66  98 133 175 228 266 333 394
#     4  11  26  42  67 102 129 176 223 276 324 401
#     4  10  22  40  64  97 126 177 220 274 320 389
#     4  12  24  42  74  92 138 172 222 288 322 388
#     4  11  22  43  68  97 131 176 218 274 336 388
#     4  11  24  46  66  96 138 178 212 273 341 389
#     4  11  23  43  68  95 136 169 224 271 333 391
#
# _framework density 23.277137
#
# number of rings (size 3 to 8) (size 9 to 14) (size 15 to 20)
#    0.000    1.231    3.077    0.923   10.769    3.077 
#    5.538    0.000    0.000    0.000    0.000    0.000 
#    0.000    0.000    0.000    0.000    0.000    0.000 
#
# Total GULP energy -145283.182521 kJ/mol
# GULP energy per Si atom -5587.814712 kJ/mol
# Density = 2.322416 g / cm^3
# Si number density = 23.277137 Si / 1000 Ang^3
#
#
#
# Elastic Constant Matrix: (Units=GPa)
#
#
# Indices 1 2 3 4 5 6 
#
# 1 47.7574 -15.0839 13.7763 -0.0001 -16.7806 0.0001
# 2 -15.0839 67.5335 25.2227 -0.0001 -6.1526 0.0003
# 3 13.7763 25.2227 82.1311 0.0000 -20.8898 -0.0002
# 4 -0.0001 -0.0001 0.0000 21.1732 0.0000 -9.7249
# 5 -16.7806 -6.1526 -20.8898 0.0000 47.6671 0.0000
# 6 0.0001 0.0003 -0.0002 -9.7249 0.0000 23.5644
#
#
#
# Elastic Compliance Matrix: (Units=1/GPa)
#
#
# Indices 1 2 3 4 5 6 
#
# 1 0.028492 0.009165 -0.005337 0.000000 0.008874 0.000000
# 2 0.009165 0.019675 -0.006880 0.000000 0.002751 0.000000
# 3 -0.005337 -0.006880 0.016296 0.000000 0.004375 0.000000
# 4 0.000000 0.000000 0.000000 0.058276 0.000000 0.024050
# 5 0.008874 0.002751 0.004375 0.000000 0.026375 0.000000
# 6 0.000000 0.000000 0.000000 0.024050 0.000000 0.052362
#
#
# Mechanical properties :
#
#
# Convention : Reuss Voigt Hill
#
# Bulk Modulus (GPa) = 17.13483 27.25023 22.19253
# Shear Modulus (GPa) = 22.02338 30.04807 26.03573
#
# Velocity S-wave (km/s) = 3.07927 3.59678 3.34804
# Velocity P-wave (km/s) = 4.47435 5.38344 4.94981
#
# Compressibility (1/GPa) = 0.05836067
#
# Stress axis : x y z
#
# Youngs Moduli (GPa) = 35.09803 50.82667 61.36329
#
# Poissons Ratio (x) = -0.46584 0.32747
# Poissons Ratio (y) = -0.32169 0.42217
# Poissons Ratio (z) = 0.18730 0.34968
#
# Static dielectric constant tensor:
#      x y z
#    x 1.971440 0.000000 0.006220 
#    y 0.000000 1.863440 0.000000 
#    z 0.006220 0.000000 1.852470 
# 
# From -- ./inp_files/317393.got.cif
#   From: 2010.05.17/outbox.cif.g08.bks.cpg/sg15_159_cif.got.tgz:317393.got - 2010.06.03 18:47:42.
