data_PCOD9289524
_publ_section_title
;
Structure prediction by ZEFSAII (Michael W. Deem and Ramdas Pophale) SiO2 
 PCOD9289524
Probable space group: C 2/C
;
_chemical_formula_sum "Si O2"
_cell_formula_units_Z 60
_cell_length_a 5.991934
_cell_length_b 29.553756
_cell_length_c 16.846365
_cell_angle_alpha 90.000000
_cell_angle_beta 93.247443
_cell_angle_gamma 90.000000
_cell_volume 2978.433855
_symmetry_space_group_name_H-M "C 2/C"
_symmetry_group_IT_number 15
_symmetry_cell_setting 'monoclinic'
loop_
_space_group_symop_operation_xyz
x,y,z
-x,y,1/2-z
-x,-y,-z
x,-y,1/2+z
1/2+x,1/2+y,z
1/2-x,1/2+y,1/2-z
1/2-x,1/2-y,-z
1/2+x,1/2-y,1/2+z
loop_
_atom_site_type_symbol
_atom_site_label
_atom_site_fract_x
_atom_site_fract_y
_atom_site_fract_z
Si Si1 0.000000 0.645962 0.750000
Si Si2 0.841505 0.071329 0.822165
Si Si3 0.975933 0.210058 0.341255
Si Si4 0.183337 0.702046 0.601166
Si Si5 0.753807 0.971592 0.792050
Si Si6 0.774593 0.622057 0.117667
Si Si7 0.490423 0.369084 0.040874
Si Si8 0.364205 0.822947 0.948488
O O1 0.829322 0.611097 0.704846
O O2 0.910277 0.676577 0.821527
O O3 0.000000 0.067746 0.750000
O O4 0.973127 0.090257 0.899301
O O5 0.754064 0.020755 0.834333
O O6 0.804694 0.245310 0.377369
O O7 0.886278 0.159147 0.345777
O O8 0.000000 0.222000 0.250000
O O9 0.202595 0.211469 0.398042
O O10 0.410619 0.676141 0.584533
O O11 0.027999 0.697496 0.519126
O O12 0.500000 0.971067 0.750000
O O13 0.747804 0.926132 0.843285
O O14 0.000000 0.969517 0.750000
O O15 0.012044 0.647007 0.115816
O O16 0.699960 0.618245 0.025024
O O17 0.707937 0.356609 0.995701
#
# Coordination Sequence:
#
# PCOD9289524 Si02
#       8
#     4   8   8   8   8   8   8   8
#     4  12  20  38  64  98 124 166 214 274 336 412
#     4  11  22  41  68  97 130 167 220 280 347 407
#     4  11  24  40  62  96 128 173 227 277 334 406
#     4  11  22  39  65  95 131 170 222 270 344 408
#     4  11  26  45  74 102 135 183 230 287 352 409
#     4  10  25  43  63  91 132 177 229 278 332 406
#     4  10  22  40  65  94 131 172 217 276 341 407
#     4  10  23  41  62  88 133 178 215 278 336 399
#
# _framework density 20.144817
#
# number of rings (size 3 to 8) (size 9 to 14) (size 15 to 20)
#    0.000    1.333    4.000    0.800    5.600    6.400 
#    0.000    2.000    0.000    0.000    0.000    0.000 
#    0.000    0.000    0.000    0.000    0.000    0.000 
#
# Total GULP energy -167227.407000 kJ/mol
# GULP energy per Si atom -5574.246900 kJ/mol
# Density = 2.009897 g / cm^3
# Si number density = 20.144817 Si / 1000 Ang^3
#
#
#
# Elastic Constant Matrix: (Units=GPa)
#
#
# Indices 1 2 3 4 5 6 
#
# 1 53.2962 10.8842 19.6275 0.0000 -3.2761 0.0000
# 2 10.8842 118.4998 48.3260 0.0000 18.8483 0.0000
# 3 19.6275 48.3260 64.7521 0.0000 -3.4452 0.0000
# 4 0.0000 0.0000 0.0000 117.0666 0.0000 27.4679
# 5 -3.2761 18.8483 -3.4452 0.0000 17.8782 0.0000
# 6 0.0000 0.0000 0.0000 27.4679 0.0000 39.7722
#
#
#
# Elastic Compliance Matrix: (Units=1/GPa)
#
#
# Indices 1 2 3 4 5 6 
#
# 1 0.021256 0.000400 -0.006625 0.000000 0.002197 0.000000
# 2 0.000400 0.017705 -0.014473 0.000000 -0.021381 0.000000
# 3 -0.006625 -0.014473 0.029300 0.000000 0.019690 0.000000
# 4 0.000000 0.000000 0.000000 0.010194 0.000000 -0.007040
# 5 0.002197 -0.021381 0.019690 0.000000 0.082673 0.000000
# 6 0.000000 0.000000 0.000000 -0.007040 0.000000 0.030005
#
#
# Mechanical properties :
#
#
# Convention : Reuss Voigt Hill
#
# Bulk Modulus (GPa) = 37.22049 43.80262 40.51155
# Shear Modulus (GPa) = 20.70529 45.45743 33.08136
#
# Velocity S-wave (km/s) = 3.20944 4.75545 4.05678
# Velocity P-wave (km/s) = 5.67896 7.20718 6.48822
#
# Compressibility (1/GPa) = 0.02686692
#
# Stress axis : x y z
#
# Youngs Moduli (GPa) = 47.04523 56.48090 34.12933
#
# Poissons Ratio (x) = -0.02258 0.22609
# Poissons Ratio (y) = -0.01881 0.49394
# Poissons Ratio (z) = 0.31165 0.81742
#
# Static dielectric constant tensor:
#      x y z
#    x 1.773700 0.000000 0.042070 
#    y 0.000000 1.690730 0.000000 
#    z 0.042070 0.000000 1.725380 
# 
# From -- ./inp_files/186168.got.cif
#   From: 2010.05.17/outbox.cif.g08.bks.cpg/sg15_94_cif.got.tgz:186168.got - 2010.06.03 18:47:42.
