data_PCOD9289618
_publ_section_title
;
Structure prediction by ZEFSAII (Michael W. Deem and Ramdas Pophale) SiO2 
 PCOD9289618
Probable space group: C 2/C
;
_chemical_formula_sum "Si O2"
_cell_formula_units_Z 36
_cell_length_a 7.030675
_cell_length_b 24.208052
_cell_length_c 15.853755
_cell_angle_alpha 90.000000
_cell_angle_beta 38.522608
_cell_angle_gamma 90.000000
_cell_volume 1680.559622
_symmetry_space_group_name_H-M "C 2/C"
_symmetry_group_IT_number 15
_symmetry_cell_setting 'monoclinic'
loop_
_space_group_symop_operation_xyz
x,y,z
-x,y,1/2-z
-x,-y,-z
x,-y,1/2+z
1/2+x,1/2+y,z
1/2-x,1/2+y,1/2-z
1/2-x,1/2-y,-z
1/2+x,1/2-y,1/2+z
loop_
_atom_site_type_symbol
_atom_site_label
_atom_site_fract_x
_atom_site_fract_y
_atom_site_fract_z
Si Si1 0.500000 0.178086 0.750000
Si Si2 0.344432 0.579512 0.549461
Si Si3 0.425788 0.020312 0.432463
Si Si4 0.249123 0.116003 0.262503
Si Si5 0.454793 0.764143 0.664176
O O1 0.734379 0.136383 0.626032
O O2 0.700070 0.218047 0.737690
O O3 0.604565 0.550910 0.518172
O O4 0.085262 0.533700 0.623291
O O5 0.455674 0.598795 0.417969
O O6 0.500000 0.000000 0.500000
O O7 0.673654 0.065687 0.324072
O O8 0.500000 0.114780 0.250000
O O9 0.309408 0.174922 0.197452
O O10 0.500000 0.763964 0.750000
O O11 0.750000 0.750000 0.500000
#
# Coordination Sequence:
#
# PCOD9289618 Si02
#       5
#     4   8   8   8   8
#     4  12  26  42  70 106 146 184 236 300 356 424
#     4  10  24  41  62  97 137 180 221 288 363 410
#     4  10  22  40  66  92 128 178 235 283 344 422
#     4   9  20  42  65  90 133 179 224 281 353 409
#     4  11  25  46  72 102 141 190 243 294 356 430
#
# _framework density 21.421434999999999
#
# number of rings (size 3 to 8) (size 9 to 14) (size 15 to 20)
#    0.000    1.778    0.000    4.000    7.778    9.778 
#    0.000    0.000    0.000    0.000    0.000    0.000 
#    0.000    0.000    0.000    0.000    0.000    0.000 
#
# Total GULP energy -100319.727516 kJ/mol
# GULP energy per Si atom -5573.318195 kJ/mol
# Density = 2.137268 g / cm^3
# Si number density = 21.421435 Si / 1000 Ang^3
#
#
#
# Elastic Constant Matrix: (Units=GPa)
#
#
# Indices 1 2 3 4 5 6 
#
# 1 84.5702 39.7076 31.6625 -0.0001 15.0243 0.0001
# 2 39.7076 193.0531 57.7991 -0.0001 13.3607 0.0002
# 3 31.6625 57.7991 95.4231 0.0004 25.5166 -0.0007
# 4 -0.0001 -0.0001 0.0004 160.6517 -0.0002 -190.9617
# 5 15.0243 13.3607 25.5166 -0.0002 20.5626 0.0003
# 6 0.0001 0.0002 -0.0007 -190.9617 0.0003 383.0052
#
#
#
# Elastic Compliance Matrix: (Units=1/GPa)
#
#
# Indices 1 2 3 4 5 6 
#
# 1 0.014707 -0.002007 -0.001705 0.000000 -0.007326 0.000000
# 2 -0.002007 0.006614 -0.003866 0.000000 0.001967 0.000000
# 3 -0.001705 -0.003866 0.018532 0.000000 -0.019238 0.000000
# 4 0.000000 0.000000 0.000000 0.015281 0.000000 0.007619
# 5 -0.007326 0.001967 -0.019238 0.000000 0.076580 0.000000
# 6 0.000000 0.000000 0.000000 0.007619 0.000000 0.006410
#
#
# Mechanical properties :
#
#
# Convention : Reuss Voigt Hill
#
# Bulk Modulus (GPa) = 40.49347 70.15388 55.32367
# Shear Modulus (GPa) = 30.95732 129.10239 80.02985
#
# Velocity S-wave (km/s) = 3.80565 7.77166 6.11889
# Velocity P-wave (km/s) = 6.18505 10.64669 8.70652
#
# Compressibility (1/GPa) = 0.02469534
#
# Stress axis : x y z
#
# Youngs Moduli (GPa) = 67.99562 151.18970 53.96180
#
# Poissons Ratio (x) = 0.30351 0.09201
# Poissons Ratio (y) = 0.13650 0.20862
# Poissons Ratio (z) = 0.11594 0.58452
#
# Static dielectric constant tensor:
#      x y z
#    x 1.845730 0.000000 -0.057230 
#    y 0.000000 1.756650 0.000000 
#    z -0.057230 0.000000 1.967300 
# 
# From -- ./inp_files/136405.got.cif
#   From: 2010.05.17/outbox.cif.g08.bks.cpg/sg15_69_cif.got.tgz:136405.got - 2010.06.03 18:47:42.
