data_PCOD9289832
_publ_section_title
;
Structure prediction by ZEFSAII (Michael W. Deem and Ramdas Pophale) SiO2 
 PCOD9289832
Probable space group: C 2/C
;
_chemical_formula_sum "Si O2"
_cell_formula_units_Z 52
_cell_length_a 21.440005
_cell_length_b 13.570454
_cell_length_c 10.095616
_cell_angle_alpha 90.000000
_cell_angle_beta 50.165667
_cell_angle_gamma 90.000000
_cell_volume 2255.571750
_symmetry_space_group_name_H-M "C 2/C"
_symmetry_group_IT_number 15
_symmetry_cell_setting 'monoclinic'
loop_
_space_group_symop_operation_xyz
x,y,z
-x,y,1/2-z
-x,-y,-z
x,-y,1/2+z
1/2+x,1/2+y,z
1/2-x,1/2+y,1/2-z
1/2-x,1/2-y,-z
1/2+x,1/2-y,1/2+z
loop_
_atom_site_type_symbol
_atom_site_label
_atom_site_fract_x
_atom_site_fract_y
_atom_site_fract_z
Si Si1 0.739658 0.451584 0.262927
Si Si2 0.000000 0.811144 0.250000
Si Si3 0.264890 0.232143 0.323128
Si Si4 0.120730 0.889205 0.883718
Si Si5 0.063805 0.724375 0.779200
Si Si6 0.431917 0.846671 0.663055
Si Si7 0.158075 0.470499 0.117728
O O1 0.734601 0.335472 0.251876
O O2 0.654881 0.500884 0.333229
O O3 0.771597 0.476513 0.366196
O O4 0.806293 0.490371 0.067707
O O5 0.063914 0.734635 0.226287
O O6 0.958277 0.876895 0.417917
O O7 0.250000 0.250000 0.500000
O O8 0.194413 0.166578 0.357182
O O9 0.351948 0.180978 0.190181
O O10 0.102761 0.826207 0.776787
O O11 0.128187 0.641321 0.651814
O O12 0.000000 0.742413 0.750000
O O13 0.012868 0.673780 0.969397
O O14 0.415354 0.955835 0.740335
#
# Coordination Sequence:
#
# PCOD9289832 Si02
#       7
#     8   4   8   8   8   8   8
#     4  12  25  42  74 106 131 188 234 287 347 417
#     4  10  22  40  68  96 134 188 224 288 344 410
#     4  12  21  44  72  99 135 177 236 290 339 423
#     4  11  23  44  70 100 140 180 241 284 347 420
#     4  11  26  43  63 102 147 186 223 291 366 412
#     4  11  23  40  69  96 136 179 226 283 343 418
#     4  12  24  41  69 107 140 174 232 291 354 417
#
# _framework density 23.054023000000001
#
# number of rings (size 3 to 8) (size 9 to 14) (size 15 to 20)
#    0.000    0.615    6.154    1.385    3.231    1.846 
#    0.000    3.077    3.385    0.000    0.000    0.000 
#    0.000    0.000    0.000    0.000    0.000    0.000 
#
# Total GULP energy -145583.083406 kJ/mol
# GULP energy per Si atom -5599.349362 kJ/mol
# Density = 2.300155 g / cm^3
# Si number density = 23.054023 Si / 1000 Ang^3
#
#
#
# Elastic Constant Matrix: (Units=GPa)
#
#
# Indices 1 2 3 4 5 6 
#
# 1 89.2429 -9.8818 0.8047 0.0000 1.0591 0.0000
# 2 -9.8818 20.5274 -0.7041 0.0000 -7.6410 0.0000
# 3 0.8047 -0.7041 23.7038 0.0000 3.6486 0.0000
# 4 0.0000 0.0000 0.0000 9.8178 0.0000 2.2042
# 5 1.0591 -7.6410 3.6486 0.0000 27.9624 0.0000
# 6 0.0000 0.0000 0.0000 2.2042 0.0000 21.2919
#
#
#
# Elastic Compliance Matrix: (Units=1/GPa)
#
#
# Indices 1 2 3 4 5 6 
#
# 1 0.011879 0.006186 -0.000419 0.000000 0.001295 0.000000
# 2 0.006186 0.057464 -0.000902 0.000000 0.015586 0.000000
# 3 -0.000419 -0.000902 0.043075 0.000000 -0.005851 0.000000
# 4 0.000000 0.000000 0.000000 0.104279 0.000000 -0.010795
# 5 0.001295 0.015586 -0.005851 0.000000 0.040736 0.000000
# 6 0.000000 0.000000 0.000000 -0.010795 0.000000 0.048084
#
#
# Mechanical properties :
#
#
# Convention : Reuss Voigt Hill
#
# Bulk Modulus (GPa) = 8.18676 12.65685 10.42180
# Shear Modulus (GPa) = 14.85871 21.36478 18.11174
#
# Velocity S-wave (km/s) = 2.54149 3.04752 2.80594
# Velocity P-wave (km/s) = 3.48870 4.22909 3.87661
#
# Compressibility (1/GPa) = 0.12214851
#
# Stress axis : x y z
#
# Youngs Moduli (GPa) = 84.18385 17.40216 23.21514
#
# Poissons Ratio (x) = -0.10765 0.00972
# Poissons Ratio (y) = -0.52077 0.02094
# Poissons Ratio (z) = 0.03526 0.01570
#
# Static dielectric constant tensor:
#      x y z
#    x 1.854800 0.000000 -0.001750 
#    y 0.000000 1.843930 0.000000 
#    z -0.001750 0.000000 1.893560 
# 
# From -- ./inp_files/112658.got.cif
#   From: 2010.05.17/outbox.cif.g08.bks.cpg/sg15_57_cif.got.tgz:112658.got - 2010.06.03 18:47:42.
