data_PCOD9289709
_publ_section_title
;
Structure prediction by ZEFSAII (Michael W. Deem and Ramdas Pophale) SiO2 
 PCOD9289709
Probable space group: C 2/C
;
_chemical_formula_sum "Si O2"
_cell_formula_units_Z 48
_cell_length_a 18.471097
_cell_length_b 5.089841
_cell_length_c 25.304230
_cell_angle_alpha 90.000000
_cell_angle_beta 117.115494
_cell_angle_gamma 90.000000
_cell_volume 2117.501612
_symmetry_space_group_name_H-M "C 2/C"
_symmetry_group_IT_number 15
_symmetry_cell_setting 'monoclinic'
loop_
_space_group_symop_operation_xyz
x,y,z
-x,y,1/2-z
-x,-y,-z
x,-y,1/2+z
1/2+x,1/2+y,z
1/2-x,1/2+y,1/2-z
1/2-x,1/2-y,-z
1/2+x,1/2-y,1/2+z
loop_
_atom_site_type_symbol
_atom_site_label
_atom_site_fract_x
_atom_site_fract_y
_atom_site_fract_z
Si Si1 0.052136 0.624915 0.158555
Si Si2 0.273442 0.114136 0.792681
Si Si3 0.267651 0.554426 0.957718
Si Si4 0.559501 0.640047 0.227529
Si Si5 0.382573 0.670684 0.571239
Si Si6 0.684112 0.385960 0.852497
O O1 0.133562 0.478771 0.164568
O O2 0.022789 0.398492 0.189030
O O3 0.971347 0.701565 0.098963
O O4 0.077664 0.901103 0.193913
O O5 0.239837 0.886008 0.742264
O O6 0.225150 0.118139 0.832102
O O7 0.192040 0.357229 0.936318
O O8 0.256711 0.712931 0.900479
O O9 0.250000 0.750000 0.000000
O O10 0.353070 0.431205 0.004015
O O11 0.500000 0.510107 0.250000
O O12 0.631758 0.746415 0.288969
O O13 0.373796 0.464283 0.617288
#
# Coordination Sequence:
#
# PCOD9289709 Si02
#       6
#     8   8   8   8   8   8
#     4  12  24  40  61  96 133 167 212 271 323 389
#     4  12  25  42  60  93 138 180 209 255 331 409
#     4   9  21  41  64  93 122 168 218 273 329 375
#     4  12  23  36  62  96 129 164 211 268 329 383
#     4  10  22  40  67  92 125 164 223 277 321 378
#     4  11  22  38  64  89 129 169 214 259 330 388
#
# _framework density 22.668222
#
# number of rings (size 3 to 8) (size 9 to 14) (size 15 to 20)
#    0.000    1.000    5.000    1.500    7.000    0.000 
#    0.000    0.833    0.000    9.000    0.000    0.000 
#    0.000    0.000    0.000    0.000    0.000    0.000 
#
# Total GULP energy -133727.900473 kJ/mol
# GULP energy per Si atom -5571.995853 kJ/mol
# Density = 2.261663 g / cm^3
# Si number density = 22.668222 Si / 1000 Ang^3
#
#
#
# Elastic Constant Matrix: (Units=GPa)
#
#
# Indices 1 2 3 4 5 6 
#
# 1 61.3828 -11.5978 5.8280 0.0003 23.1582 -0.0010
# 2 -11.5978 98.9543 34.8570 0.0013 8.9250 -0.0022
# 3 5.8280 34.8570 119.1668 0.0002 35.4966 -0.0003
# 4 0.0003 0.0013 0.0002 33.6037 0.0000 8.5772
# 5 23.1582 8.9250 35.4966 0.0000 36.0594 0.0000
# 6 -0.0010 -0.0022 -0.0003 8.5772 0.0000 26.8590
#
#
#
# Elastic Compliance Matrix: (Units=1/GPa)
#
#
# Indices 1 2 3 4 5 6 
#
# 1 0.024127 0.003286 0.003844 -0.000001 -0.020092 0.000001
# 2 0.003286 0.011725 -0.002967 -0.000001 -0.002091 0.000001
# 3 0.003844 -0.002967 0.013566 0.000000 -0.015088 0.000000
# 4 -0.000001 -0.000001 0.000000 0.032400 0.000001 -0.010347
# 5 -0.020092 -0.002091 -0.015088 0.000001 0.056006 -0.000001
# 6 0.000001 0.000001 0.000000 -0.010347 -0.000001 0.040536
#
#
# Mechanical properties :
#
#
# Convention : Reuss Voigt Hill
#
# Bulk Modulus (GPa) = 17.31808 37.51983 27.41895
# Shear Modulus (GPa) = 26.41559 35.99887 31.20723
#
# Velocity S-wave (km/s) = 3.41737 3.98939 3.71441
# Velocity P-wave (km/s) = 4.81951 6.14882 5.52429
#
# Compressibility (1/GPa) = 0.05774313
#
# Stress axis : x y z
#
# Youngs Moduli (GPa) = 41.44663 85.29021 73.71361
#
# Poissons Ratio (x) = -0.28026 -0.28334
# Poissons Ratio (y) = -0.13619 0.21873
# Poissons Ratio (z) = -0.15931 0.25308
#
# Static dielectric constant tensor:
#      x y z
#    x 1.941330 0.000000 0.056560 
#    y 0.000000 2.087840 0.000010 
#    z 0.056560 0.000010 1.971870 
# 
# From -- ./inp_files/250855.got.cif
#   From: 2010.05.17/outbox.cif.g08.bks.cpg/sg15_126_cif.got.tgz:250855.got - 2010.06.03 18:47:42.
