data_PCOD9289651
_publ_section_title
;
Structure prediction by ZEFSAII (Michael W. Deem and Ramdas Pophale) SiO2 
 PCOD9289651
Probable space group: C 2/C
;
_chemical_formula_sum "Si O2"
_cell_formula_units_Z 36
_cell_length_a 21.619290
_cell_length_b 7.014746
_cell_length_c 14.918169
_cell_angle_alpha 90.000000
_cell_angle_beta 144.105168
_cell_angle_gamma 90.000000
_cell_volume 1326.442010
_symmetry_space_group_name_H-M "C 2/C"
_symmetry_group_IT_number 15
_symmetry_cell_setting 'monoclinic'
loop_
_space_group_symop_operation_xyz
x,y,z
-x,y,1/2-z
-x,-y,-z
x,-y,1/2+z
1/2+x,1/2+y,z
1/2-x,1/2+y,1/2-z
1/2-x,1/2-y,-z
1/2+x,1/2-y,1/2+z
loop_
_atom_site_type_symbol
_atom_site_label
_atom_site_fract_x
_atom_site_fract_y
_atom_site_fract_z
Si Si1 0.310654 0.388592 0.217437
Si Si2 0.590990 0.042950 0.408251
Si Si3 0.880361 0.871167 0.632163
Si Si4 0.500000 0.000000 0.000000
Si Si5 0.791711 0.521275 0.718340
O O1 0.358566 0.525013 0.200361
O O2 0.280412 0.479012 0.277367
O O3 0.361587 0.179166 0.291257
O O4 0.195374 0.335995 0.042922
O O5 0.500000 0.151996 0.250000
O O6 0.618907 0.858777 0.380535
O O7 0.548003 0.974886 0.452863
O O8 0.000000 0.923587 0.750000
O O9 0.787857 0.928601 0.453647
O O10 0.396225 0.145316 0.855857
#
# Coordination Sequence:
#
# PCOD9289651 Si02
#       5
#     8   8   8   4   8
#     4  11  24  42  68  98 134 176 221 275 329 393
#     4  10  22  41  67  96 131 175 218 271 333 393
#     4  11  25  43  67  98 133 176 224 275 329 394
#     4  10  22  40  66  96 132 174 216 268 326 386
#     4  11  24  43  68 100 134 176 223 273 332 393
#
# _framework density 27.140274999999999
#
# number of rings (size 3 to 8) (size 9 to 14) (size 15 to 20)
#    0.000    1.333    0.000    5.333    0.000   14.222 
#    0.000    0.000    0.000    0.000    0.000    0.000 
#    0.000    0.000    0.000    0.000    0.000    0.000 
#
# Total GULP energy -100275.911657 kJ/mol
# GULP energy per Si atom -5570.883981 kJ/mol
# Density = 2.707850 g / cm^3
# Si number density = 27.140275 Si / 1000 Ang^3
#
#
#
# Elastic Constant Matrix: (Units=GPa)
#
#
# Indices 1 2 3 4 5 6 
#
# 1 140.6831 -19.3443 41.6791 0.0000 15.7163 0.0000
# 2 -19.3443 64.0026 -2.5819 0.0000 -2.3963 0.0000
# 3 41.6791 -2.5819 128.1177 0.0000 -15.5860 0.0000
# 4 0.0000 0.0000 0.0000 9.9344 0.0000 -3.4692
# 5 15.7163 -2.3963 -15.5860 0.0000 40.2062 0.0000
# 6 0.0000 0.0000 0.0000 -3.4692 0.0000 28.3805
#
#
#
# Elastic Compliance Matrix: (Units=1/GPa)
#
#
# Indices 1 2 3 4 5 6 
#
# 1 0.008985 0.002400 -0.003447 0.000000 -0.004705 0.000000
# 2 0.002400 0.016325 -0.000470 0.000000 -0.000147 0.000000
# 3 -0.003447 -0.000470 0.009527 0.000000 0.005013 0.000000
# 4 0.000000 0.000000 0.000000 0.105149 0.000000 0.012853
# 5 -0.004705 -0.000147 0.005013 0.000000 0.028646 0.000000
# 6 0.000000 0.000000 0.000000 0.012853 0.000000 0.036807
#
#
# Mechanical properties :
#
#
# Convention : Reuss Voigt Hill
#
# Bulk Modulus (GPa) = 31.44197 41.36770 36.40484
# Shear Modulus (GPa) = 22.82344 36.57426 29.69885
#
# Velocity S-wave (km/s) = 2.90305 3.67495 3.31157
# Velocity P-wave (km/s) = 4.77986 5.76908 5.29761
#
# Compressibility (1/GPa) = 0.03180462
#
# Stress axis : x y z
#
# Youngs Moduli (GPa) = 111.29472 61.25426 104.96412
#
# Poissons Ratio (x) = -0.14704 0.36182
# Poissons Ratio (y) = -0.26716 0.04932
# Poissons Ratio (z) = 0.38364 0.02878
#
# Static dielectric constant tensor:
#      x y z
#    x 2.092740 0.000000 -0.146910 
#    y 0.000000 1.667390 0.000000 
#    z -0.146910 0.000000 1.670490 
# 
# From -- ./inp_files/159568.got.cif
#   From: 2010.05.17/outbox.cif.g08.bks.cpg/sg15_80_cif.got.tgz:159568.got - 2010.06.03 18:47:42.
