data_PCOD9289200
_publ_section_title
;
Structure prediction by ZEFSAII (Michael W. Deem and Ramdas Pophale) SiO2 
 PCOD9289200
Probable space group: C 2/C
;
_chemical_formula_sum "Si O2"
_cell_formula_units_Z 48
_cell_length_a 27.223339
_cell_length_b 8.668937
_cell_length_c 20.871801
_cell_angle_alpha 90.000000
_cell_angle_beta 29.662917
_cell_angle_gamma 90.000000
_cell_volume 2437.706585
_symmetry_space_group_name_H-M "C 2/C"
_symmetry_group_IT_number 15
_symmetry_cell_setting 'monoclinic'
loop_
_space_group_symop_operation_xyz
x,y,z
-x,y,1/2-z
-x,-y,-z
x,-y,1/2+z
1/2+x,1/2+y,z
1/2-x,1/2+y,1/2-z
1/2-x,1/2-y,-z
1/2+x,1/2-y,1/2+z
loop_
_atom_site_type_symbol
_atom_site_label
_atom_site_fract_x
_atom_site_fract_y
_atom_site_fract_z
Si Si1 0.653910 0.672093 0.790099
Si Si2 0.972802 0.331077 0.056682
Si Si3 0.000000 0.034621 0.250000
Si Si4 0.421684 0.205384 0.931664
Si Si5 0.642530 0.714550 0.651502
Si Si6 0.000000 0.457673 0.750000
Si Si7 0.269941 0.330219 0.764380
O O1 0.654877 0.688964 0.713016
O O2 0.691566 0.503723 0.768822
O O3 0.722621 0.797545 0.748492
O O4 0.543812 0.708350 0.940497
O O5 0.860618 0.285841 0.170931
O O6 0.998787 0.321126 0.102032
O O7 0.000000 0.500000 0.000000
O O8 0.950364 0.141876 0.360396
O O9 0.913628 0.930815 0.316709
O O10 0.430180 0.065669 0.872137
O O11 0.316312 0.205859 0.086514
O O12 0.750000 0.750000 0.500000
O O13 0.567911 0.854000 0.718993
#
# Coordination Sequence:
#
# PCOD9289200 Si02
#       7
#     8   8   4   8   8   4   8
#     4  11  24  40  62  93 123 159 205 252 304 361
#     4  11  23  40  64  93 124 159 200 254 308 361
#     4  10  24  42  62  90 124 160 204 252 296 358
#     4  10  22  41  63  90 121 160 203 247 301 358
#     4  11  24  41  63  90 122 162 202 246 304 362
#     4  10  22  40  62  88 124 158 200 252 294 356
#     4  11  23  41  64  90 122 161 204 252 305 363
#
# _framework density 19.690639999999998
#
# number of rings (size 3 to 8) (size 9 to 14) (size 15 to 20)
#    0.000    1.333    0.000    5.500    0.000    9.333 
#    0.000    4.167    0.000    0.000    0.000    0.000 
#    0.000    0.000    0.000    0.000    0.000    0.000 
#
# Total GULP energy -134213.352550 kJ/mol
# GULP energy per Si atom -5592.223023 kJ/mol
# Density = 1.964582 g / cm^3
# Si number density = 19.690640 Si / 1000 Ang^3
#
#
#
# Elastic Constant Matrix: (Units=GPa)
#
#
# Indices 1 2 3 4 5 6 
#
# 1 163.4184 77.8016 62.5512 0.0009 11.1228 -0.0005
# 2 77.8016 136.7699 57.5892 0.0030 3.9839 -0.0025
# 3 62.5512 57.5892 75.1753 0.0027 -16.8535 -0.0024
# 4 0.0009 0.0030 0.0027 18.7312 -0.0005 -4.9984
# 5 11.1228 3.9839 -16.8535 -0.0005 38.8483 0.0006
# 6 -0.0005 -0.0025 -0.0024 -4.9984 0.0006 25.9990
#
#
#
# Elastic Compliance Matrix: (Units=1/GPa)
#
#
# Indices 1 2 3 4 5 6 
#
# 1 0.011160 -0.002346 -0.009029 0.000001 -0.006872 -0.000001
# 2 -0.002346 0.012326 -0.008444 -0.000001 -0.004255 0.000000
# 3 -0.009029 -0.008444 0.031080 -0.000002 0.016935 0.000001
# 4 0.000001 -0.000001 -0.000002 0.056274 0.000000 0.010819
# 5 -0.006872 -0.004255 0.016935 0.000000 0.035492 0.000000
# 6 -0.000001 0.000000 0.000001 0.010819 0.000000 0.040543
#
#
# Mechanical properties :
#
#
# Convention : Reuss Voigt Hill
#
# Bulk Modulus (GPa) = 66.99170 85.69416 76.34293
# Shear Modulus (GPa) = 21.59928 28.54381 25.07154
#
# Velocity S-wave (km/s) = 3.31559 3.81151 3.57217
# Velocity P-wave (km/s) = 6.98237 7.93630 7.47457
#
# Compressibility (1/GPa) = 0.01492722
#
# Stress axis : x y z
#
# Youngs Moduli (GPa) = 89.60483 81.13107 32.17477
#
# Poissons Ratio (x) = 0.19037 0.29051
# Poissons Ratio (y) = 0.21025 0.27168
# Poissons Ratio (z) = 0.80905 0.68507
#
# Static dielectric constant tensor:
#      x y z
#    x 1.662440 0.000000 -0.003790 
#    y 0.000000 1.694330 0.000000 
#    z -0.003790 0.000000 1.658200 
# 
# From -- ./inp_files/166175.got.cif
#   From: 2010.05.17/outbox.cif.g08.bks.cpg/sg15_84_cif.got.tgz:166175.got - 2010.06.03 18:47:42.
