data_PCOD9289561
_publ_section_title
;
Structure prediction by ZEFSAII (Michael W. Deem and Ramdas Pophale) SiO2 
 PCOD9289561
Probable space group: C 2/C
;
_chemical_formula_sum "Si O2"
_cell_formula_units_Z 64
_cell_length_a 18.089118
_cell_length_b 14.554580
_cell_length_c 17.011540
_cell_angle_alpha 90.000000
_cell_angle_beta 38.663783
_cell_angle_gamma 90.000000
_cell_volume 2798.120546
_symmetry_space_group_name_H-M "C 2/C"
_symmetry_group_IT_number 15
_symmetry_cell_setting 'monoclinic'
loop_
_space_group_symop_operation_xyz
x,y,z
-x,y,1/2-z
-x,-y,-z
x,-y,1/2+z
1/2+x,1/2+y,z
1/2-x,1/2+y,1/2-z
1/2-x,1/2-y,-z
1/2+x,1/2-y,1/2+z
loop_
_atom_site_type_symbol
_atom_site_label
_atom_site_fract_x
_atom_site_fract_y
_atom_site_fract_z
Si Si1 0.390121 0.494137 0.394662
Si Si2 0.786415 0.599697 0.059792
Si Si3 0.889346 0.226318 0.901616
Si Si4 0.381656 0.696907 0.078784
Si Si5 0.307981 0.224942 0.805203
Si Si6 0.391959 0.400904 0.057311
Si Si7 0.036014 0.443244 0.300792
Si Si8 0.209056 0.452064 0.762438
O O1 0.500000 0.521578 0.250000
O O2 0.272554 0.523127 0.445885
O O3 0.393970 0.384880 0.401336
O O4 0.401846 0.548681 0.465922
O O5 0.701258 0.688285 0.130313
O O6 0.796371 0.572657 0.142487
O O7 0.920586 0.611321 0.923130
O O8 0.000000 0.253002 0.750000
O O9 0.750000 0.250000 0.000000
O O10 0.907333 0.254135 0.978687
O O11 0.369851 0.752029 0.170576
O O12 0.261525 0.636402 0.173360
O O13 0.484397 0.621670 0.006048
O O14 0.173699 0.196130 0.898257
O O15 0.366409 0.135461 0.794285
O O16 0.303821 0.464988 0.179375
O O17 0.090966 0.511108 0.319298
O O18 0.000000 0.492326 0.250000
#
# Coordination Sequence:
#
# PCOD9289561 Si02
#       8
#     8   8   8   8   8   8   8   8
#     4  11  24  43  71 104 136 178 235 292 350 422
#     4  11  23  41  67  98 139 179 228 285 351 424
#     4  11  28  49  71 106 143 187 242 298 362 426
#     4  11  23  42  70  94 137 178 234 291 347 417
#     4  10  24  40  64  99 138 179 227 280 353 420
#     4  11  22  41  70  99 130 182 233 286 348 412
#     4  11  24  42  64  96 139 179 224 287 353 428
#     4  10  22  40  65  98 126 177 235 282 345 411
#
# _framework density 22.872496000000002
#
# number of rings (size 3 to 8) (size 9 to 14) (size 15 to 20)
#    0.000    1.250    1.250    4.500    5.250    4.500 
#    2.250    0.000    0.000    0.000    0.000    0.000 
#    0.000    0.000    0.000    0.000    0.000    0.000 
#
# Total GULP energy -178827.245079 kJ/mol
# GULP energy per Si atom -5588.351409 kJ/mol
# Density = 2.282044 g / cm^3
# Si number density = 22.872496 Si / 1000 Ang^3
#
#
#
# Elastic Constant Matrix: (Units=GPa)
#
#
# Indices 1 2 3 4 5 6 
#
# 1 99.1513 3.6549 34.7915 0.0000 -4.7359 0.0000
# 2 3.6549 28.4037 0.2754 0.0000 0.4051 0.0000
# 3 34.7915 0.2754 101.8378 0.0000 0.6220 0.0000
# 4 0.0000 0.0000 0.0000 14.7753 0.0000 -1.8513
# 5 -4.7359 0.4051 0.6220 0.0000 31.4885 0.0000
# 6 0.0000 0.0000 0.0000 -1.8513 0.0000 32.4319
#
#
#
# Elastic Compliance Matrix: (Units=1/GPa)
#
#
# Indices 1 2 3 4 5 6 
#
# 1 0.011625 -0.001484 -0.003979 0.000000 0.001846 0.000000
# 2 -0.001484 0.035403 0.000415 0.000000 -0.000687 0.000000
# 3 -0.003979 0.000415 0.011183 0.000000 -0.000825 0.000000
# 4 0.000000 0.000000 0.000000 0.068168 0.000000 0.003891
# 5 0.001846 -0.000687 -0.000825 0.000000 0.032060 0.000000
# 6 0.000000 0.000000 0.000000 0.003891 0.000000 0.031056
#
#
# Mechanical properties :
#
#
# Convention : Reuss Voigt Hill
#
# Bulk Modulus (GPa) = 20.78277 34.09294 27.43785
# Shear Modulus (GPa) = 23.18810 28.45054 25.81932
#
# Velocity S-wave (km/s) = 3.18747 3.53069 3.36346
# Velocity P-wave (km/s) = 4.75949 5.61774 5.20633
#
# Compressibility (1/GPa) = 0.04811678
#
# Stress axis : x y z
#
# Youngs Moduli (GPa) = 86.02497 28.24592 89.42393
#
# Poissons Ratio (x) = 0.04190 0.35578
# Poissons Ratio (y) = 0.12762 -0.03714
# Poissons Ratio (z) = 0.34226 -0.01173
#
# Static dielectric constant tensor:
#      x y z
#    x 1.921730 0.000000 0.035410 
#    y 0.000000 1.861210 0.000000 
#    z 0.035410 0.000000 1.899530 
# 
# From -- ./inp_files/211356.got.cif
#   From: 2010.05.17/outbox.cif.g08.bks.cpg/sg15_106_cif.got.tgz:211356.got - 2010.06.03 18:47:42.
