data_PCOD9289888
_publ_section_title
;
Structure prediction by ZEFSAII (Michael W. Deem and Ramdas Pophale) SiO2 
 PCOD9289888
Probable space group: C 2/C
;
_chemical_formula_sum "Si O2"
_cell_formula_units_Z 52
_cell_length_a 22.504392
_cell_length_b 15.904071
_cell_length_c 9.423337
_cell_angle_alpha 90.000000
_cell_angle_beta 42.902484
_cell_angle_gamma 90.000000
_cell_volume 2295.988131
_symmetry_space_group_name_H-M "C 2/C"
_symmetry_group_IT_number 15
_symmetry_cell_setting 'monoclinic'
loop_
_space_group_symop_operation_xyz
x,y,z
-x,y,1/2-z
-x,-y,-z
x,-y,1/2+z
1/2+x,1/2+y,z
1/2-x,1/2+y,1/2-z
1/2-x,1/2-y,-z
1/2+x,1/2-y,1/2+z
loop_
_atom_site_type_symbol
_atom_site_label
_atom_site_fract_x
_atom_site_fract_y
_atom_site_fract_z
Si Si1 0.625691 0.583560 0.424519
Si Si2 0.000000 0.221552 0.750000
Si Si3 0.720798 0.343933 0.223815
Si Si4 0.378981 0.202021 0.276194
Si Si5 0.595910 0.981436 0.891611
Si Si6 0.909549 0.912203 0.843201
Si Si7 0.705799 0.978651 0.960873
O O1 0.581121 0.661530 0.577375
O O2 0.603138 0.503114 0.560587
O O3 0.588102 0.578523 0.329934
O O4 0.730059 0.588738 0.221311
O O5 0.024471 0.277219 0.841070
O O6 0.660590 0.279811 0.241200
O O7 0.672563 0.357193 0.457863
O O8 0.731837 0.438770 0.141834
O O9 0.818139 0.311057 0.022359
O O10 0.381656 0.115236 0.186036
O O11 0.621423 0.994807 0.009985
O O12 0.666931 0.037344 0.682402
O O13 0.500000 0.000000 0.000000
O O14 0.000000 0.877683 0.750000
#
# Coordination Sequence:
#
# PCOD9289888 Si02
#       7
#     8   4   8   8   8   8   8
#     4  11  24  38  65 103 135 179 224 279 355 410
#     4  12  26  40  68  98 142 178 234 274 352 432
#     4   9  21  40  69  89 134 171 225 272 344 391
#     4  10  24  42  68  97 132 187 223 282 343 409
#     4  11  24  44  71  96 129 178 237 278 335 404
#     4  11  21  38  64 100 140 174 226 281 335 422
#     4  10  22  40  69  97 129 169 226 284 335 402
#
# _framework density 22.648202000000001
#
# number of rings (size 3 to 8) (size 9 to 14) (size 15 to 20)
#    0.000    1.538    0.769    3.692   15.077    0.000 
#    0.000    5.385    0.000    0.000    0.000    0.000 
#    0.000    0.000    0.000    0.000    0.000    0.000 
#
# Total GULP energy -145133.039802 kJ/mol
# GULP energy per Si atom -5582.039992 kJ/mol
# Density = 2.259665 g / cm^3
# Si number density = 22.648202 Si / 1000 Ang^3
#
#
#
# Elastic Constant Matrix: (Units=GPa)
#
#
# Indices 1 2 3 4 5 6 
#
# 1 88.4991 30.8523 -0.4188 0.0000 -3.2438 0.0000
# 2 30.8523 64.6150 14.7778 0.0000 -3.2754 0.0000
# 3 -0.4188 14.7778 58.3334 0.0000 5.9602 0.0000
# 4 0.0000 0.0000 0.0000 20.3769 0.0000 -1.9434
# 5 -3.2438 -3.2754 5.9602 0.0000 39.7190 0.0000
# 6 0.0000 0.0000 0.0000 -1.9434 0.0000 30.6905
#
#
#
# Elastic Compliance Matrix: (Units=1/GPa)
#
#
# Indices 1 2 3 4 5 6 
#
# 1 0.013748 -0.006971 0.001837 0.000000 0.000272 0.000000
# 2 -0.006971 0.020122 -0.005341 0.000000 0.001891 0.000000
# 3 0.001837 -0.005341 0.018827 0.000000 -0.003116 0.000000
# 4 0.000000 0.000000 0.000000 0.049373 0.000000 0.003126
# 5 0.000272 0.001891 -0.003116 0.000000 0.025823 0.000000
# 6 0.000000 0.000000 0.000000 0.003126 0.000000 0.032781
#
#
# Mechanical properties :
#
#
# Convention : Reuss Voigt Hill
#
# Bulk Modulus (GPa) = 31.49803 33.54112 32.51957
# Shear Modulus (GPa) = 26.01353 29.23970 27.62661
#
# Velocity S-wave (km/s) = 3.39276 3.59700 3.49637
# Velocity P-wave (km/s) = 5.41161 5.66507 5.53979
#
# Compressibility (1/GPa) = 0.03174802
#
# Stress axis : x y z
#
# Youngs Moduli (GPa) = 72.73582 49.69664 53.11414
#
# Poissons Ratio (x) = 0.34643 -0.09756
# Poissons Ratio (y) = 0.50703 0.28368
# Poissons Ratio (z) = -0.13360 0.26542
#
# Static dielectric constant tensor:
#      x y z
#    x 1.837070 0.000000 -0.041750 
#    y 0.000000 1.842630 0.000000 
#    z -0.041750 0.000000 1.861280 
# 
# From -- ./inp_files/56955.got.cif
#   From: 2010.05.17/outbox.cif.g08.bks.cpg/sg15_29_cif.got.tgz:56955.got - 2010.06.03 18:47:42.
