data_PCOD9289668
_publ_section_title
;
Structure prediction by ZEFSAII (Michael W. Deem and Ramdas Pophale) SiO2 
 PCOD9289668
Probable space group: C 2/C
;
_chemical_formula_sum "Si O2"
_cell_formula_units_Z 52
_cell_length_a 23.019942
_cell_length_b 20.375925
_cell_length_c 8.823508
_cell_angle_alpha 90.000000
_cell_angle_beta 149.203042
_cell_angle_gamma 90.000000
_cell_volume 2118.997667
_symmetry_space_group_name_H-M "C 2/C"
_symmetry_group_IT_number 15
_symmetry_cell_setting 'monoclinic'
loop_
_space_group_symop_operation_xyz
x,y,z
-x,y,1/2-z
-x,-y,-z
x,-y,1/2+z
1/2+x,1/2+y,z
1/2-x,1/2+y,1/2-z
1/2-x,1/2-y,-z
1/2+x,1/2-y,1/2+z
loop_
_atom_site_type_symbol
_atom_site_label
_atom_site_fract_x
_atom_site_fract_y
_atom_site_fract_z
Si Si1 0.222515 0.392441 0.505984
Si Si2 0.521303 0.071180 0.976040
Si Si3 0.436593 0.227267 0.273197
Si Si4 0.779892 0.953292 0.118566
Si Si5 0.707876 0.662388 0.645943
Si Si6 0.900028 0.122996 0.641390
Si Si7 0.500000 0.756196 0.250000
O O1 0.086859 0.392436 0.190936
O O2 0.263644 0.468694 0.592615
O O3 0.269107 0.346859 0.478691
O O4 0.280688 0.366081 0.787590
O O5 0.500000 0.070651 0.750000
O O6 0.655946 0.076969 0.300762
O O7 0.500000 0.000000 0.000000
O O8 0.500000 0.215418 0.250000
O O9 0.433602 0.306307 0.281360
O O10 0.470606 0.207118 0.524452
O O11 0.315214 0.195479 0.967726
O O12 0.811148 0.912089 0.337871
O O13 0.872449 0.931562 0.203286
O O14 0.605032 0.709970 0.446720
O O15 0.000000 0.103324 0.750000
#
# Coordination Sequence:
#
# PCOD9289668 Si02
#       7
#     8   8   8   8   8   8   4
#     4  11  25  43  72 106 145 193 240 301 375 439
#     4  10  22  40  66  97 140 183 234 300 356 427
#     4  11  27  51  77 108 146 193 254 312 372 434
#     4  11  24  44  70 105 146 188 240 300 368 442
#     4  12  27  48  74 107 150 191 250 303 369 448
#     4  11  23  45  69 102 147 188 241 302 358 443
#     4  12  26  52  78 110 148 194 248 318 364 434
#
# _framework density 24.539905000000001
#
# number of rings (size 3 to 8) (size 9 to 14) (size 15 to 20)
#    0.000    0.923    3.077    3.231    8.615    3.077 
#    4.154    0.000    0.000    0.000    0.000    0.000 
#    0.000    0.000    0.000    0.000    0.000    0.000 
#
# Total GULP energy -145300.255999 kJ/mol
# GULP energy per Si atom -5588.471385 kJ/mol
# Density = 2.448405 g / cm^3
# Si number density = 24.539905 Si / 1000 Ang^3
#
#
#
# Elastic Constant Matrix: (Units=GPa)
#
#
# Indices 1 2 3 4 5 6 
#
# 1 118.0394 28.3941 17.6477 0.0000 7.7541 0.0000
# 2 28.3941 66.5363 8.6824 0.0000 15.4506 0.0000
# 3 17.6477 8.6824 72.0150 0.0000 -4.4847 0.0000
# 4 0.0000 0.0000 0.0000 -213.5787 0.0000 0.2654
# 5 7.7541 15.4506 -4.4847 0.0000 50.5725 0.0000
# 6 0.0000 0.0000 0.0000 0.2654 0.0000 23.9766
#
#
#
# Elastic Compliance Matrix: (Units=1/GPa)
#
#
# Indices 1 2 3 4 5 6 
#
# 1 0.009704 -0.003767 -0.001956 0.000000 -0.000510 0.000000
# 2 -0.003767 0.018018 -0.001565 0.000000 -0.005066 0.000000
# 3 -0.001956 -0.001565 0.014683 0.000000 0.002080 0.000000
# 4 0.000000 0.000000 0.000000 -0.004682 0.000000 0.000052
# 5 -0.000510 -0.005066 0.002080 0.000000 0.021584 0.000000
# 6 0.000000 0.000000 0.000000 0.000052 0.000000 0.041707
#
#
# Mechanical properties :
#
#
# Convention : Reuss Voigt Hill
#
# Bulk Modulus (GPa) = 35.93259 40.67101 38.30180
# Shear Modulus (GPa) = 40.04322 -14.34815 12.84753
#
# Velocity S-wave (km/s) = 4.04389 -2.42065 2.29057
# Velocity P-wave (km/s) = 6.03973 2.96592 4.75789
#
# Compressibility (1/GPa) = 0.02782989
#
# Stress axis : x y z
#
# Youngs Moduli (GPa) = 103.05151 55.50125 68.10426
#
# Poissons Ratio (x) = 0.20910 0.13318
# Poissons Ratio (y) = 0.38824 0.10655
# Poissons Ratio (z) = 0.20152 0.08683
#
# Static dielectric constant tensor:
#      x y z
#    x 1.941450 0.000000 -0.029380 
#    y 0.000000 2.071320 0.000000 
#    z -0.029380 0.000000 1.937870 
# 
# From -- ./inp_files/64091.got.cif
#   From: 2010.05.17/outbox.cif.g08.bks.cpg/sg15_33_cif.got.tgz:64091.got - 2010.06.03 18:47:42.
