data_PCOD9289034
_publ_section_title
;
Structure prediction by ZEFSAII (Michael W. Deem and Ramdas Pophale) SiO2 
 PCOD9289034
Probable space group: C 2/C
;
_chemical_formula_sum "Si O2"
_cell_formula_units_Z 48
_cell_length_a 6.532390
_cell_length_b 21.852359
_cell_length_c 14.870507
_cell_angle_alpha 90.000000
_cell_angle_beta 86.256548
_cell_angle_gamma 90.000000
_cell_volume 2118.207997
_symmetry_space_group_name_H-M "C 2/C"
_symmetry_group_IT_number 15
_symmetry_cell_setting 'monoclinic'
loop_
_space_group_symop_operation_xyz
x,y,z
-x,y,1/2-z
-x,-y,-z
x,-y,1/2+z
1/2+x,1/2+y,z
1/2-x,1/2+y,1/2-z
1/2-x,1/2-y,-z
1/2+x,1/2-y,1/2+z
loop_
_atom_site_type_symbol
_atom_site_label
_atom_site_fract_x
_atom_site_fract_y
_atom_site_fract_z
Si Si1 0.108327 0.677458 0.826379
Si Si2 0.791387 0.233568 0.599497
Si Si3 0.106614 0.129520 0.539820
Si Si4 0.129262 0.983542 0.160030
Si Si5 0.000000 0.460817 0.750000
Si Si6 0.391797 0.390479 0.664636
Si Si7 0.000000 0.252060 0.750000
O O1 0.182175 0.648138 0.916467
O O2 0.308583 0.709887 0.781789
O O3 0.000000 0.638383 0.750000
O O4 0.933173 0.725204 0.854197
O O5 0.750000 0.250000 0.500000
O O6 0.923868 0.170711 0.587206
O O7 0.922235 0.280060 0.658645
O O8 0.090563 0.060265 0.576715
O O9 0.114042 0.140526 0.432823
O O10 0.000000 0.957776 0.250000
O O11 0.361733 0.997656 0.186271
O O12 0.032310 0.049651 0.145146
O O13 0.831508 0.417208 0.802732
O O14 0.500000 0.360123 0.750000
#
# Coordination Sequence:
#
# PCOD9289034 Si02
#       7
#     8   8   8   8   4   8   4
#     4   9  20  35  58  84 112 144 181 240 289 343
#     4  10  22  40  58  83 116 147 190 241 296 345
#     4  11  22  33  60  87 113 152 197 235 290 347
#     4   9  20  33  56  85 121 147 187 238 289 346
#     4   8  18  36  54  75 118 160 190 238 287 340
#     4   9  20  39  53  79 122 158 194 238 276 341
#     4   8  18  38  58  81 110 142 180 234 293 342
#
# _framework density 22.660664000000001
#
# number of rings (size 3 to 8) (size 9 to 14) (size 15 to 20)
#    0.000    3.000    0.000    0.500    8.167    7.333 
#    0.000    4.167    0.000    1.000    0.000    0.000 
#    0.000    0.000    0.000    0.000    0.000    0.000 
#
# Total GULP energy -133627.891897 kJ/mol
# GULP energy per Si atom -5567.828829 kJ/mol
# Density = 2.260909 g / cm^3
# Si number density = 22.660664 Si / 1000 Ang^3
#
#
#
# Elastic Constant Matrix: (Units=GPa)
#
#
# Indices 1 2 3 4 5 6 
#
# 1 150.9050 26.6543 61.0735 0.0000 11.3533 0.0000
# 2 26.6543 36.1458 16.7702 0.0000 7.8769 0.0000
# 3 61.0735 16.7702 179.1935 0.0000 33.1078 0.0000
# 4 0.0000 0.0000 0.0000 28.8393 0.0000 6.4842
# 5 11.3533 7.8769 33.1078 0.0000 40.7882 0.0000
# 6 0.0000 0.0000 0.0000 6.4842 0.0000 12.9671
#
#
#
# Elastic Compliance Matrix: (Units=1/GPa)
#
#
# Indices 1 2 3 4 5 6 
#
# 1 0.008534 -0.005266 -0.002547 0.000000 0.000709 0.000000
# 2 -0.005266 0.032733 -0.000437 0.000000 -0.004501 0.000000
# 3 -0.002547 -0.000437 0.007462 0.000000 -0.005264 0.000000
# 4 0.000000 0.000000 0.000000 0.039067 0.000000 -0.019536
# 5 0.000709 -0.004501 -0.005264 0.000000 0.029461 0.000000
# 6 0.000000 0.000000 0.000000 -0.019536 0.000000 0.086887
#
#
# Mechanical properties :
#
#
# Convention : Reuss Voigt Hill
#
# Bulk Modulus (GPa) = 31.02790 63.91560 47.47175
# Shear Modulus (GPa) = 21.60882 33.96867 27.78874
#
# Velocity S-wave (km/s) = 3.09136 3.87591 3.50565
# Velocity P-wave (km/s) = 5.14433 6.94961 6.11397
#
# Compressibility (1/GPa) = 0.03222906
#
# Stress axis : x y z
#
# Youngs Moduli (GPa) = 117.17513 30.55064 134.01294
#
# Poissons Ratio (x) = 0.16088 0.34130
# Poissons Ratio (y) = 0.61705 0.05856
# Poissons Ratio (z) = 0.29842 0.01335
#
# Static dielectric constant tensor:
#      x y z
#    x 1.822190 0.000000 0.034100 
#    y 0.000000 1.925780 0.000000 
#    z 0.034100 0.000000 1.965050 
# 
# From -- ./inp_files/130421.got.cif
#   From: 2010.05.17/outbox.cif.g08.bks.cpg/sg15_66_cif.got.tgz:130421.got - 2010.06.03 18:47:42.
