data_PCOD9289014
_publ_section_title
;
Structure prediction by ZEFSAII (Michael W. Deem and Ramdas Pophale) SiO2 
 PCOD9289014
Probable space group: C 2/C
;
_chemical_formula_sum "Si O2"
_cell_formula_units_Z 40
_cell_length_a 16.148475
_cell_length_b 11.000269
_cell_length_c 25.187314
_cell_angle_alpha 90.000000
_cell_angle_beta 159.582267
_cell_angle_gamma 90.000000
_cell_volume 1560.883506
_symmetry_space_group_name_H-M "C 2/C"
_symmetry_group_IT_number 15
_symmetry_cell_setting 'monoclinic'
loop_
_space_group_symop_operation_xyz
x,y,z
-x,y,1/2-z
-x,-y,-z
x,-y,1/2+z
1/2+x,1/2+y,z
1/2-x,1/2+y,1/2-z
1/2-x,1/2-y,-z
1/2+x,1/2-y,1/2+z
loop_
_atom_site_type_symbol
_atom_site_label
_atom_site_fract_x
_atom_site_fract_y
_atom_site_fract_z
Si Si1 0.699040 0.704721 0.909826
Si Si2 0.037207 0.421142 0.352210
Si Si3 0.953277 0.926031 0.664610
Si Si4 0.382291 0.392030 0.463583
Si Si5 0.804853 0.366351 0.784178
O O1 0.500000 0.760997 0.750000
O O2 0.606927 0.568035 0.863298
O O3 0.750000 0.750000 0.000000
O O4 0.973098 0.704254 0.055892
O O5 0.213907 0.363704 0.500447
O O6 0.221899 0.450358 0.415171
O O7 0.823176 0.343682 0.199250
O O8 0.922997 0.533364 0.315872
O O9 0.000000 0.874686 0.750000
O O10 0.161007 0.921403 0.746768
O O11 0.500000 0.500000 0.500000
O O12 0.595254 0.315656 0.619056
#
# Coordination Sequence:
#
# PCOD9289014 Si02
#       5
#     8   8   8   8   8
#     4  10  22  40  55  81 121 153 189 231 295 354
#     4   8  14  24  41  73 110 127 170 227 272 320
#     4   9  18  32  55  82 113 148 190 238 280 329
#     4   8  13  24  41  69 107 133 170 221 273 321
#     4   9  17  32  53  79 109 142 190 238 278 331
#
# _framework density 25.626514
#
# number of rings (size 3 to 8) (size 9 to 14) (size 15 to 20)
#    0.000    3.200    0.000    0.000    0.000    7.200 
#   36.000    0.000    0.000    0.000    0.000   22.400 
#   12.000    0.000    0.000    0.000    0.000    0.000 
#
# Total GULP energy -111402.317542 kJ/mol
# GULP energy per Si atom -5570.115877 kJ/mol
# Density = 2.556819 g / cm^3
# Si number density = 25.626514 Si / 1000 Ang^3
#
#
#
# Elastic Constant Matrix: (Units=GPa)
#
#
# Indices 1 2 3 4 5 6 
#
# 1 139.1847 30.3160 102.4580 -0.0058 2.2791 0.0018
# 2 30.3160 62.2993 14.4315 0.0053 0.8703 0.0014
# 3 102.4580 14.4315 301.9309 0.0315 -43.8580 0.0046
# 4 -0.0058 0.0053 0.0315 -14.2127 0.0089 22.6406
# 5 2.2791 0.8703 -43.8580 0.0089 67.6563 -0.0044
# 6 0.0018 0.0014 0.0046 22.6406 -0.0044 23.9171
#
#
#
# Elastic Compliance Matrix: (Units=1/GPa)
#
#
# Indices 1 2 3 4 5 6 
#
# 1 0.011139 -0.004456 -0.003989 -0.000007 -0.002904 0.000006
# 2 -0.004456 0.018052 0.000704 0.000004 0.000374 -0.000004
# 3 -0.003989 0.000704 0.005134 0.000006 0.003453 -0.000006
# 4 -0.000007 0.000004 0.000006 -0.028055 0.000010 0.026557
# 5 -0.002904 0.000374 0.003453 0.000010 0.017112 -0.000006
# 6 0.000006 -0.000004 -0.000006 0.026557 -0.000006 0.016671
#
#
# Mechanical properties :
#
#
# Convention : Reuss Voigt Hill
#
# Bulk Modulus (GPa) = 53.07271 88.64735 70.86003
# Shear Modulus (GPa) = 80.88531 39.21943 60.05237
#
# Velocity S-wave (km/s) = 5.62420 3.91631 4.84609
# Velocity P-wave (km/s) = 7.93288 7.42409 7.68270
#
# Compressibility (1/GPa) = 0.01884208
#
# Stress axis : x y z
#
# Youngs Moduli (GPa) = 89.77454 55.39657 194.79786
#
# Poissons Ratio (x) = 0.24684 0.77700
# Poissons Ratio (y) = 0.40003 -0.13706
# Poissons Ratio (z) = 0.35809 -0.03898
#
# Static dielectric constant tensor:
#      x y z
#    x 2.060660 0.000000 -0.020170 
#    y 0.000000 2.005970 -0.000020 
#    z -0.020170 -0.000020 2.153230 
# 
# From -- ./inp_files/97950.got.cif
#   From: 2010.05.17/outbox.cif.g08.bks.cpg/sg15_49_cif.got.tgz:97950.got - 2010.06.03 18:47:42.
