data_PCOD9289624
_publ_section_title
;
Structure prediction by ZEFSAII (Michael W. Deem and Ramdas Pophale) SiO2 
 PCOD9289624
Probable space group: C 2/C
;
_chemical_formula_sum "Si O2"
_cell_formula_units_Z 52
_cell_length_a 15.998658
_cell_length_b 16.427936
_cell_length_c 15.246056
_cell_angle_alpha 90.000000
_cell_angle_beta 36.907417
_cell_angle_gamma 90.000000
_cell_volume 2406.324808
_symmetry_space_group_name_H-M "C 2/C"
_symmetry_group_IT_number 15
_symmetry_cell_setting 'monoclinic'
loop_
_space_group_symop_operation_xyz
x,y,z
-x,y,1/2-z
-x,-y,-z
x,-y,1/2+z
1/2+x,1/2+y,z
1/2-x,1/2+y,1/2-z
1/2-x,1/2-y,-z
1/2+x,1/2-y,1/2+z
loop_
_atom_site_type_symbol
_atom_site_label
_atom_site_fract_x
_atom_site_fract_y
_atom_site_fract_z
Si Si1 0.500000 0.554666 0.250000
Si Si2 0.727523 0.695314 0.639334
Si Si3 0.153769 0.752695 0.789271
Si Si4 0.198655 0.075420 0.322491
Si Si5 0.842809 0.628449 0.373440
Si Si6 0.650716 0.303722 0.521710
Si Si7 0.579257 0.439041 0.346328
O O1 0.386895 0.615409 0.390461
O O2 0.537105 0.495872 0.299858
O O3 0.844438 0.717897 0.612967
O O4 0.775192 0.631926 0.525495
O O5 0.670061 0.777654 0.646121
O O6 0.604260 0.650803 0.791717
O O7 0.220921 0.844088 0.745281
O O8 0.255189 0.696222 0.645525
O O9 0.000463 0.764950 0.876652
O O10 0.269265 0.080676 0.357454
O O11 0.033975 0.074805 0.482665
O O12 0.216007 0.986888 0.265695
O O13 0.000000 0.602088 0.250000
O O14 0.750000 0.250000 0.500000
#
# Coordination Sequence:
#
# PCOD9289624 Si02
#       7
#     4   8   8   8   8   8   8
#     4  12  24  40  68 100 134 176 214 288 326 404
#     4  10  24  38  66  96 123 173 215 272 325 390
#     4  11  23  40  69  97 133 171 228 275 332 387
#     4  10  22  40  66  93 127 168 212 278 316 389
#     4  10  23  40  62  93 133 164 214 266 329 389
#     4  12  22  42  65 101 132 175 223 276 331 392
#     4  11  22  41  68  97 129 165 231 265 335 388
#
# _framework density 21.609717
#
# number of rings (size 3 to 8) (size 9 to 14) (size 15 to 20)
#    0.000    1.231    3.077    1.846   14.000    0.000 
#    0.000    0.769    3.385    0.000    0.000    0.000 
#    0.000    0.000    0.000    0.000    0.000    0.000 
#
# Total GULP energy -144979.216378 kJ/mol
# GULP energy per Si atom -5576.123707 kJ/mol
# Density = 2.156053 g / cm^3
# Si number density = 21.609717 Si / 1000 Ang^3
#
#
#
# Elastic Constant Matrix: (Units=GPa)
#
#
# Indices 1 2 3 4 5 6 
#
# 1 96.5483 10.5937 3.8762 0.0001 6.9182 -0.0001
# 2 10.5937 50.7107 6.4626 0.0001 7.7790 0.0000
# 3 3.8762 6.4626 46.3891 0.0002 7.4227 -0.0001
# 4 0.0001 0.0001 0.0002 28.0217 -0.0002 -3.8071
# 5 6.9182 7.7790 7.4227 -0.0002 30.4864 0.0001
# 6 -0.0001 0.0000 -0.0001 -3.8071 0.0001 -6.5597
#
#
#
# Elastic Compliance Matrix: (Units=1/GPa)
#
#
# Indices 1 2 3 4 5 6 
#
# 1 0.010714 -0.001910 -0.000331 0.000000 -0.001863 0.000000
# 2 -0.001910 0.021063 -0.002065 0.000000 -0.004438 0.000000
# 3 -0.000331 -0.002065 0.022658 0.000000 -0.004915 0.000000
# 4 0.000000 0.000000 0.000000 0.033078 0.000000 -0.019198
# 5 -0.001863 -0.004438 -0.004915 0.000000 0.035553 0.000000
# 6 0.000000 0.000000 0.000000 -0.019198 0.000000 -0.141305
#
#
# Mechanical properties :
#
#
# Convention : Reuss Voigt Hill
#
# Bulk Modulus (GPa) = 21.82276 26.16812 23.99544
# Shear Modulus (GPa) = 885.22440 21.90405 453.56422
#
# Velocity S-wave (km/s) = 20.26157 3.18719 14.50326
# Velocity P-wave (km/s) = 23.61134 5.06754 17.07594
#
# Compressibility (1/GPa) = 0.04582371
#
# Stress axis : x y z
#
# Youngs Moduli (GPa) = 93.33663 47.47734 44.13359
#
# Poissons Ratio (x) = 0.09069 0.01461
# Poissons Ratio (y) = 0.17829 0.09111
# Poissons Ratio (z) = 0.03089 0.09802
#
# Static dielectric constant tensor:
#      x y z
#    x 1.858160 0.000000 0.069700 
#    y 0.000000 1.829290 0.000000 
#    z 0.069700 0.000000 1.854890 
# 
# From -- ./inp_files/155407.got.cif
#   From: 2010.05.17/outbox.cif.g08.bks.cpg/sg15_78_cif.got.tgz:155407.got - 2010.06.03 18:47:42.
