data_PCOD9289375
_publ_section_title
;
Structure prediction by ZEFSAII (Michael W. Deem and Ramdas Pophale) SiO2 
 PCOD9289375
Probable space group: C 2/C
;
_chemical_formula_sum "Si O2"
_cell_formula_units_Z 56
_cell_length_a 17.941993
_cell_length_b 23.882739
_cell_length_c 15.174702
_cell_angle_alpha 90.000000
_cell_angle_beta 155.877261
_cell_angle_gamma 90.000000
_cell_volume 2657.491429
_symmetry_space_group_name_H-M "C 2/C"
_symmetry_group_IT_number 15
_symmetry_cell_setting 'monoclinic'
loop_
_space_group_symop_operation_xyz
x,y,z
-x,y,1/2-z
-x,-y,-z
x,-y,1/2+z
1/2+x,1/2+y,z
1/2-x,1/2+y,1/2-z
1/2-x,1/2-y,-z
1/2+x,1/2-y,1/2+z
loop_
_atom_site_type_symbol
_atom_site_label
_atom_site_fract_x
_atom_site_fract_y
_atom_site_fract_z
Si Si1 0.294808 0.501248 0.058615
Si Si2 0.168778 0.355574 0.628395
Si Si3 0.561198 0.443495 0.612648
Si Si4 0.630540 0.186908 0.272483
Si Si5 0.284309 0.813771 0.010741
Si Si6 0.000000 0.213192 0.750000
Si Si7 0.500000 0.093644 0.250000
Si Si8 0.774980 0.599063 0.645254
O O1 0.500000 0.487128 0.250000
O O2 0.320655 0.538334 0.174348
O O3 0.172931 0.447147 0.941286
O O4 0.206204 0.541220 0.888811
O O5 0.308106 0.404893 0.804675
O O6 0.148572 0.313644 0.687622
O O7 0.255287 0.328231 0.633492
O O8 0.968806 0.380601 0.391452
O O9 0.500000 0.500000 0.500000
O O10 0.380713 0.411346 0.450635
O O11 0.826352 0.179253 0.530622
O O12 0.554728 0.244838 0.229658
O O13 0.510261 0.135243 0.177476
O O14 0.500000 0.823698 0.250000
O O15 0.204530 0.855318 0.997983
O O16 0.250000 0.750000 0.000000
#
# Coordination Sequence:
#
# PCOD9289375 Si02
#       8
#     8   8   8   8   8   4   4   8
#     4  10  22  40  64  89 135 180 217 259 338 388
#     4  11  24  42  65 102 131 165 230 276 324 398
#     4  11  25  39  65  96 130 185 220 274 328 385
#     4  10  24  43  71  96 126 173 218 281 331 403
#     4  10  23  40  67  96 131 180 219 269 344 405
#     4   9  22  52  68  88 136 174 211 268 372 384
#     4  11  24  38  66  98 122 176 217 274 330 400
#     4  10  23  45  63  92 142 184 211 276 341 401
#
# _framework density 21.072503999999999
#
# number of rings (size 3 to 8) (size 9 to 14) (size 15 to 20)
#    0.000    1.714    1.429    0.857   10.000    2.857 
#    5.143    0.000    0.000    0.000    0.000    0.000 
#    0.000    0.000    0.000    0.000    0.000    0.000 
#
# Total GULP energy -156501.444921 kJ/mol
# GULP energy per Si atom -5589.337319 kJ/mol
# Density = 2.102454 g / cm^3
# Si number density = 21.072504 Si / 1000 Ang^3
#
#
#
# Elastic Constant Matrix: (Units=GPa)
#
#
# Indices 1 2 3 4 5 6 
#
# 1 102.0290 40.3783 30.7336 0.0000 1.3715 0.0000
# 2 40.3783 84.5802 32.0047 0.0000 1.6859 0.0000
# 3 30.7336 32.0047 67.3958 0.0002 5.5712 0.0001
# 4 0.0000 0.0000 0.0002 23.9467 0.0000 9.4480
# 5 1.3715 1.6859 5.5712 0.0000 18.1106 0.0000
# 6 0.0000 0.0000 0.0001 9.4480 0.0000 21.4085
#
#
#
# Elastic Compliance Matrix: (Units=1/GPa)
#
#
# Indices 1 2 3 4 5 6 
#
# 1 0.012756 -0.004732 -0.003618 0.000000 0.000588 0.000000
# 2 -0.004732 0.016179 -0.005572 0.000000 0.000566 0.000000
# 3 -0.003618 -0.005572 0.019566 0.000000 -0.005226 0.000000
# 4 0.000000 0.000000 0.000000 0.050563 0.000000 -0.022315
# 5 0.000588 0.000566 -0.005226 0.000000 0.056727 0.000000
# 6 0.000000 0.000000 0.000000 -0.022315 0.000000 0.056558
#
#
# Mechanical properties :
#
#
# Convention : Reuss Voigt Hill
#
# Bulk Modulus (GPa) = 48.41211 51.13759 49.77485
# Shear Modulus (GPa) = 20.23636 22.75238 21.49437
#
# Velocity S-wave (km/s) = 3.10227 3.28947 3.19724
# Velocity P-wave (km/s) = 5.98799 6.22476 6.10752
#
# Compressibility (1/GPa) = 0.02065599
#
# Stress axis : x y z
#
# Youngs Moduli (GPa) = 78.39485 61.80703 51.10964
#
# Poissons Ratio (x) = 0.29248 0.18493
# Poissons Ratio (y) = 0.37098 0.28479
# Poissons Ratio (z) = 0.28365 0.34439
#
# Static dielectric constant tensor:
#      x y z
#    x 1.787190 0.000000 0.002520 
#    y 0.000000 1.720850 0.000000 
#    z 0.002520 0.000000 1.757880 
# 
# From -- ./inp_files/216693.got.cif
#   From: 2010.05.17/outbox.cif.g08.bks.cpg/sg15_109_cif.got.tgz:216693.got - 2010.06.03 18:47:42.
