data_PCOD9289454
_publ_section_title
;
Structure prediction by ZEFSAII (Michael W. Deem and Ramdas Pophale) SiO2 
 PCOD9289454
Probable space group: C 2/C
;
_chemical_formula_sum "Si O2"
_cell_formula_units_Z 20
_cell_length_a 16.426345
_cell_length_b 11.603551
_cell_length_c 8.938921
_cell_angle_alpha 90.000000
_cell_angle_beta 156.326171
_cell_angle_gamma 90.000000
_cell_volume 684.123327
_symmetry_space_group_name_H-M "C 2/C"
_symmetry_group_IT_number 15
_symmetry_cell_setting 'monoclinic'
loop_
_space_group_symop_operation_xyz
x,y,z
-x,y,1/2-z
-x,-y,-z
x,-y,1/2+z
1/2+x,1/2+y,z
1/2-x,1/2+y,1/2-z
1/2-x,1/2-y,-z
1/2+x,1/2-y,1/2+z
loop_
_atom_site_type_symbol
_atom_site_label
_atom_site_fract_x
_atom_site_fract_y
_atom_site_fract_z
Si Si1 0.290020 0.983230 0.236706
Si Si2 0.000000 0.287179 0.750000
Si Si3 0.366178 0.647145 0.281454
O O1 0.322705 0.873192 0.399389
O O2 0.500000 0.000000 0.500000
O O3 0.259131 0.090785 0.292748
O O4 0.123891 0.950717 0.830223
O O5 0.038388 0.209645 0.668230
O O6 0.250000 0.750000 0.000000
#
# Coordination Sequence:
#
# PCOD9289454 Si02
#       3
#     8   4   8
#     4  11  20  42  67  93 135 175 220 274 330 401
#     4  10  22  40  64  96 134 168 224 270 336 388
#     4  10  23  39  66  98 131 176 221 274 338 392
#
# _framework density 29.234494000000002
#
# number of rings (size 3 to 8) (size 9 to 14) (size 15 to 20)
#    0.000    1.600    4.000    0.000    0.000    3.200 
#    0.000    0.000    0.000    0.000    0.000    0.000 
#    0.000    0.000    0.000    0.000    0.000    0.000 
#
# Total GULP energy -56034.227920 kJ/mol
# GULP energy per Si atom -5603.422792 kJ/mol
# Density = 2.916795 g / cm^3
# Si number density = 29.234494 Si / 1000 Ang^3
#
#
#
# Elastic Constant Matrix: (Units=GPa)
#
#
# Indices 1 2 3 4 5 6 
#
# 1 215.9325 103.2906 85.0747 0.0000 -36.5370 0.0000
# 2 103.2906 184.7758 60.1046 0.0000 -27.2934 0.0000
# 3 85.0747 60.1046 216.2621 0.0000 -72.7404 0.0000
# 4 0.0000 0.0000 0.0000 75.9190 0.0000 -39.6595
# 5 -36.5370 -27.2934 -72.7404 0.0000 65.4998 0.0000
# 6 0.0000 0.0000 0.0000 -39.6595 0.0000 91.8353
#
#
#
# Elastic Compliance Matrix: (Units=1/GPa)
#
#
# Indices 1 2 3 4 5 6 
#
# 1 0.006934 -0.003253 -0.001562 0.000000 0.000778 0.000000
# 2 -0.003253 0.007520 -0.000585 0.000000 0.000669 0.000000
# 3 -0.001562 -0.000585 0.008023 0.000000 0.007795 0.000000
# 4 0.000000 0.000000 0.000000 0.017009 0.000000 0.007345
# 5 0.000778 0.000669 0.007795 0.000000 0.024636 0.000000
# 6 0.000000 0.000000 0.000000 0.007345 0.000000 0.014061
#
#
# Mechanical properties :
#
#
# Convention : Reuss Voigt Hill
#
# Bulk Modulus (GPa) = 85.64755 123.76777 104.70766
# Shear Modulus (GPa) = 53.83500 71.21752 62.52626
#
# Velocity S-wave (km/s) = 4.29591 4.94102 4.62972
# Velocity P-wave (km/s) = 7.34621 8.65908 8.02952
#
# Compressibility (1/GPa) = 0.01167576
#
# Stress axis : x y z
#
# Youngs Moduli (GPa) = 144.20988 132.98373 124.64334
#
# Poissons Ratio (x) = 0.43264 0.19471
# Poissons Ratio (y) = 0.46916 0.07293
# Poissons Ratio (z) = 0.22528 0.07781
#
# Static dielectric constant tensor:
#      x y z
#    x 2.313750 0.000000 0.131320 
#    y 0.000000 2.363100 0.000000 
#    z 0.131320 0.000000 2.318830 
# 
# From -- ./inp_files/20620.got.cif
#   From: 2010.05.17/outbox.cif.g08.bks.cpg/sg15_11_cif.got.tgz:20620.got - 2010.06.03 18:47:42.
