data_PCOD9289019
_publ_section_title
;
Structure prediction by ZEFSAII (Michael W. Deem and Ramdas Pophale) SiO2 
 PCOD9289019
Probable space group: C 2/C
;
_chemical_formula_sum "Si O2"
_cell_formula_units_Z 60
_cell_length_a 15.550324
_cell_length_b 5.544457
_cell_length_c 28.845930
_cell_angle_alpha 90.000000
_cell_angle_beta 68.660444
_cell_angle_gamma 90.000000
_cell_volume 2316.530357
_symmetry_space_group_name_H-M "C 2/C"
_symmetry_group_IT_number 15
_symmetry_cell_setting 'monoclinic'
loop_
_space_group_symop_operation_xyz
x,y,z
-x,y,1/2-z
-x,-y,-z
x,-y,1/2+z
1/2+x,1/2+y,z
1/2-x,1/2+y,1/2-z
1/2-x,1/2-y,-z
1/2+x,1/2-y,1/2+z
loop_
_atom_site_type_symbol
_atom_site_label
_atom_site_fract_x
_atom_site_fract_y
_atom_site_fract_z
Si Si1 0.000000 0.943182 0.250000
Si Si2 0.037184 0.800778 0.650589
Si Si3 0.625205 0.621859 0.380288
Si Si4 0.143396 0.997041 0.484225
Si Si5 0.734938 0.559875 0.611568
Si Si6 0.618264 0.930461 0.682451
Si Si7 0.837273 0.495658 0.993930
Si Si8 0.751038 0.137048 0.721064
O O1 0.912649 0.775238 0.276733
O O2 0.010707 0.077286 0.295897
O O3 0.037071 0.523300 0.666124
O O4 0.144683 0.886388 0.628357
O O5 0.977885 0.848130 0.617697
O O6 0.626801 0.520933 0.432603
O O7 0.677464 0.886669 0.371268
O O8 0.675191 0.447622 0.332796
O O9 0.110424 0.240236 0.517123
O O10 0.254503 0.991393 0.473088
O O11 0.108539 0.745211 0.512224
O O12 0.782961 0.520541 0.553464
O O13 0.688351 0.816097 0.632608
O O14 0.658261 0.136139 0.707623
O O15 0.742514 0.899654 0.756327
#
# Coordination Sequence:
#
# PCOD9289019 Si02
#       8
#     4   8   8   8   8   8   8   8
#     4  10  22  40  56  84 122 172 212 270 322 382
#     4  11  23  41  62  88 125 169 214 271 328 385
#     4  10  23  41  64  92 128 164 220 267 320 388
#     4   9  19  37  62 100 121 168 212 264 322 391
#     4   9  22  40  60  92 122 166 204 263 318 388
#     4  10  23  38  60  86 125 164 211 261 324 383
#     4   9  18  36  67  91 131 163 212 260 327 391
#     4  11  26  40  63  92 121 166 214 264 318 378
#
# _framework density 25.900805999999999
#
# number of rings (size 3 to 8) (size 9 to 14) (size 15 to 20)
#    0.000    2.133    0.000    1.200   14.933    1.067 
#    9.600    0.667    0.000    0.800    0.000    0.000 
#    0.000    0.000    0.000    0.000    0.000    0.000 
#
# Total GULP energy -167373.413566 kJ/mol
# GULP energy per Si atom -5579.113786 kJ/mol
# Density = 2.584185 g / cm^3
# Si number density = 25.900806 Si / 1000 Ang^3
#
#
#
# Elastic Constant Matrix: (Units=GPa)
#
#
# Indices 1 2 3 4 5 6 
#
# 1 81.3188 43.6159 54.4381 -0.0002 27.3464 -0.0036
# 2 43.6159 144.0799 44.2896 0.0022 17.4973 0.0026
# 3 54.4381 44.2896 98.9416 -0.0002 14.8006 -0.0002
# 4 -0.0002 0.0022 -0.0002 25.6803 -0.0004 10.9380
# 5 27.3464 17.4973 14.8006 -0.0004 40.4343 -0.0002
# 6 -0.0036 0.0026 -0.0002 10.9380 -0.0002 7.2496
#
#
#
# Elastic Compliance Matrix: (Units=1/GPa)
#
#
# Indices 1 2 3 4 5 6 
#
# 1 0.024907 -0.002834 -0.010684 -0.000015 -0.011708 0.000036
# 2 -0.002834 0.008576 -0.002128 0.000003 -0.001016 -0.000010
# 3 -0.010684 -0.002128 0.016630 0.000006 0.002059 -0.000013
# 4 -0.000015 0.000003 0.000006 0.108964 0.000007 -0.164402
# 5 -0.011708 -0.001016 0.002059 0.000007 0.032335 -0.000016
# 6 0.000036 -0.000010 -0.000013 -0.164402 -0.000016 0.385984
#
#
# Mechanical properties :
#
#
# Convention : Reuss Voigt Hill
#
# Bulk Modulus (GPa) = 53.13118 67.66973 60.40045
# Shear Modulus (GPa) = 8.13061 26.80597 17.46829
#
# Velocity S-wave (km/s) = 1.77368 3.22055 2.59980
# Velocity P-wave (km/s) = 4.97518 6.32554 5.69056
#
# Compressibility (1/GPa) = 0.01882134
#
# Stress axis : x y z
#
# Youngs Moduli (GPa) = 40.15013 116.60675 60.13339
#
# Poissons Ratio (x) = 0.33043 0.64246
# Poissons Ratio (y) = 0.11377 0.12795
# Poissons Ratio (z) = 0.42896 0.24811
#
# Static dielectric constant tensor:
#      x y z
#    x 2.115450 0.000000 -0.058600 
#    y 0.000000 2.193250 0.000000 
#    z -0.058600 0.000000 2.078430 
# 
# From -- ./inp_files/315072.got.cif
#   From: 2010.05.17/outbox.cif.g08.bks.cpg/sg15_158_cif.got.tgz:315072.got - 2010.06.03 18:47:42.
