data_PCOD9289413
_publ_section_title
;
Structure prediction by ZEFSAII (Michael W. Deem and Ramdas Pophale) SiO2 
 PCOD9289413
Probable space group: C 2/C
;
_chemical_formula_sum "Si O2"
_cell_formula_units_Z 60
_cell_length_a 8.667176
_cell_length_b 25.384076
_cell_length_c 23.599242
_cell_angle_alpha 90.000000
_cell_angle_beta 147.272229
_cell_angle_gamma 90.000000
_cell_volume 2807.060266
_symmetry_space_group_name_H-M "C 2/C"
_symmetry_group_IT_number 15
_symmetry_cell_setting 'monoclinic'
loop_
_space_group_symop_operation_xyz
x,y,z
-x,y,1/2-z
-x,-y,-z
x,-y,1/2+z
1/2+x,1/2+y,z
1/2-x,1/2+y,1/2-z
1/2-x,1/2-y,-z
1/2+x,1/2-y,1/2+z
loop_
_atom_site_type_symbol
_atom_site_label
_atom_site_fract_x
_atom_site_fract_y
_atom_site_fract_z
Si Si1 0.500000 0.259191 0.750000
Si Si2 0.593567 0.062443 0.844201
Si Si3 0.408817 0.194635 0.056386
Si Si4 0.275295 0.847865 0.397279
Si Si5 0.119622 0.677106 0.694207
Si Si6 0.260705 0.589495 0.450254
Si Si7 0.262086 0.537873 0.573096
Si Si8 0.228951 0.973986 0.769831
O O1 0.776901 0.293788 0.824614
O O2 0.471148 0.221623 0.685946
O O3 0.500000 0.046412 0.750000
O O4 0.474594 0.121075 0.811065
O O5 0.438705 0.024232 0.841008
O O6 0.924833 0.067202 0.966226
O O7 0.241383 0.152595 0.043405
O O8 0.441292 0.168212 0.004699
O O9 0.250000 0.250000 0.000000
O O10 0.422781 0.826245 0.386351
O O11 0.223661 0.911305 0.380618
O O12 0.963111 0.821357 0.307294
O O13 0.230918 0.565600 0.503669
O O14 0.963347 0.571032 0.329192
O O15 0.525080 0.497666 0.658571
O O16 0.000000 0.500000 0.500000
O O17 0.000000 0.963253 0.750000
#
# Coordination Sequence:
#
# PCOD9289413 Si02
#       8
#     4   8   8   8   8   8   8   8
#     4  12  24  38  70  98 124 172 216 282 336 386
#     4  12  21  39  64  92 131 169 218 265 321 388
#     4  11  23  44  67  93 129 172 221 275 333 375
#     4  10  22  40  64  93 126 168 218 275 311 397
#     4  11  21  38  65  97 123 161 227 268 321 384
#     4  11  25  39  63  95 128 172 217 265 321 399
#     4  11  21  37  62  93 128 170 214 258 319 392
#     4  12  23  38  62  92 129 170 210 264 322 388
#
# _framework density 21.374675
#
# number of rings (size 3 to 8) (size 9 to 14) (size 15 to 20)
#    0.000    0.800    6.000    2.800    0.933    0.533 
#    0.000    0.000    0.000    1.600    0.000    0.000 
#    0.000    0.000    0.000    0.000    0.000    0.000 
#
# Total GULP energy -167193.139648 kJ/mol
# GULP energy per Si atom -5573.104655 kJ/mol
# Density = 2.132602 g / cm^3
# Si number density = 21.374675 Si / 1000 Ang^3
#
#
#
# Elastic Constant Matrix: (Units=GPa)
#
#
# Indices 1 2 3 4 5 6 
#
# 1 52.8129 1.3322 14.9585 0.0001 14.6339 0.0002
# 2 1.3322 68.4100 36.1460 -0.0003 10.1749 0.0001
# 3 14.9585 36.1460 70.8907 -0.0001 24.5875 -0.0025
# 4 0.0001 -0.0003 -0.0001 34.9437 0.0000 4.7965
# 5 14.6339 10.1749 24.5875 0.0000 41.2043 0.0001
# 6 0.0002 0.0001 -0.0025 4.7965 0.0001 20.5887
#
#
#
# Elastic Compliance Matrix: (Units=1/GPa)
#
#
# Indices 1 2 3 4 5 6 
#
# 1 0.021601 0.002434 -0.003694 0.000000 -0.006068 -0.000001
# 2 0.002434 0.020351 -0.011156 0.000000 0.000767 -0.000002
# 3 -0.003694 -0.011156 0.024165 0.000000 -0.010353 0.000003
# 4 0.000000 0.000000 0.000000 0.029563 0.000000 -0.006887
# 5 -0.006068 0.000767 -0.010353 0.000000 0.032413 -0.000001
# 6 -0.000001 -0.000002 0.000003 -0.006887 -0.000001 0.050175
#
#
# Mechanical properties :
#
#
# Convention : Reuss Voigt Hill
#
# Bulk Modulus (GPa) = 24.22274 32.99855 28.61064
# Shear Modulus (GPa) = 23.05615 28.65914 25.85765
#
# Velocity S-wave (km/s) = 3.28787 3.66566 3.48189
# Velocity P-wave (km/s) = 5.07646 5.77822 5.43867
#
# Compressibility (1/GPa) = 0.04128353
#
# Stress axis : x y z
#
# Youngs Moduli (GPa) = 46.29373 49.13785 41.38239
#
# Poissons Ratio (x) = -0.11960 0.15288
# Poissons Ratio (y) = -0.11267 0.46168
# Poissons Ratio (z) = 0.17102 0.54820
#
# Static dielectric constant tensor:
#      x y z
#    x 1.813410 0.000000 -0.037150 
#    y 0.000000 1.802420 0.000000 
#    z -0.037150 0.000000 1.874390 
# 
# From -- ./inp_files/266657.got.cif
#   From: 2010.05.17/outbox.cif.g08.bks.cpg/sg15_134_cif.got.tgz:266657.got - 2010.06.03 18:47:42.
