data_PCOD9289356
_publ_section_title
;
Structure prediction by ZEFSAII (Michael W. Deem and Ramdas Pophale) SiO2 
 PCOD9289356
Probable space group: C 2/C
;
_chemical_formula_sum "Si O2"
_cell_formula_units_Z 60
_cell_length_a 24.663041
_cell_length_b 9.710343
_cell_length_c 24.476901
_cell_angle_alpha 90.000000
_cell_angle_beta 32.531885
_cell_angle_gamma 90.000000
_cell_volume 3152.341695
_symmetry_space_group_name_H-M "C 2/C"
_symmetry_group_IT_number 15
_symmetry_cell_setting 'monoclinic'
loop_
_space_group_symop_operation_xyz
x,y,z
-x,y,1/2-z
-x,-y,-z
x,-y,1/2+z
1/2+x,1/2+y,z
1/2-x,1/2+y,1/2-z
1/2-x,1/2-y,-z
1/2+x,1/2-y,1/2+z
loop_
_atom_site_type_symbol
_atom_site_label
_atom_site_fract_x
_atom_site_fract_y
_atom_site_fract_z
Si Si1 0.874672 0.035025 0.449754
Si Si2 0.000000 0.821772 0.750000
Si Si3 0.979540 0.499589 0.363221
Si Si4 0.862839 0.185423 0.649996
Si Si5 0.479775 0.736878 0.442622
Si Si6 0.171702 0.134300 0.341153
Si Si7 0.637098 0.930112 0.148946
Si Si8 0.940191 0.215325 0.952653
O O1 0.895019 0.875467 0.442478
O O2 0.921239 0.115923 0.461403
O O3 0.756685 0.068758 0.546532
O O4 0.939257 0.088685 0.344376
O O5 0.915183 0.719138 0.797177
O O6 0.981220 0.368148 0.401801
O O7 0.904386 0.474988 0.375530
O O8 0.947750 0.628746 0.426357
O O9 0.087106 0.517993 0.240594
O O10 0.919694 0.255062 0.550252
O O11 0.775400 0.287522 0.742627
O O12 0.947682 0.169277 0.624555
O O13 0.824812 0.032048 0.666027
O O14 0.590759 0.687242 0.365220
O O15 0.128352 0.183181 0.436381
#
# Coordination Sequence:
#
# PCOD9289356 Si02
#       8
#     8   4   8   8   8   8   8   8
#     4  12  22  43  69  93 129 174 208 274 324 375
#     4  10  22  40  64 102 124 162 232 266 304 390
#     4  10  24  43  64  97 128 172 216 267 320 390
#     4  11  25  42  65  95 131 162 216 270 319 399
#     4  11  22  41  66  90 127 167 210 259 323 379
#     4  11  25  43  62  99 125 166 215 265 322 394
#     4  10  23  42  66  95 134 164 221 265 320 385
#     4  11  25  44  63  93 136 165 214 269 328 383
#
# _framework density 19.033469
#
# number of rings (size 3 to 8) (size 9 to 14) (size 15 to 20)
#    0.000    1.333    5.333    1.200    7.467    2.667 
#    2.400    0.000    0.000    0.000    0.000    0.000 
#    0.000    0.000    0.000    0.000    0.000    0.000 
#
# Total GULP energy -167462.667574 kJ/mol
# GULP energy per Si atom -5582.088919 kJ/mol
# Density = 1.899015 g / cm^3
# Si number density = 19.033469 Si / 1000 Ang^3
#
#
#
# Elastic Constant Matrix: (Units=GPa)
#
#
# Indices 1 2 3 4 5 6 
#
# 1 56.1893 20.2951 50.0212 -0.0009 -9.8222 0.0021
# 2 20.2951 94.1681 34.4602 -0.0015 12.0278 0.0036
# 3 50.0212 34.4602 115.9893 -0.0003 -24.2045 0.0005
# 4 -0.0009 -0.0015 -0.0003 27.0697 0.0003 -0.0797
# 5 -9.8222 12.0278 -24.2045 0.0003 28.0419 -0.0008
# 6 0.0021 0.0036 0.0005 -0.0797 -0.0008 31.7282
#
#
#
# Elastic Compliance Matrix: (Units=1/GPa)
#
#
# Indices 1 2 3 4 5 6 
#
# 1 0.029202 -0.002117 -0.011759 0.000001 0.000987 -0.000001
# 2 -0.002117 0.014889 -0.006096 0.000001 -0.012389 -0.000002
# 3 -0.011759 -0.006096 0.018527 -0.000001 0.014488 0.000002
# 4 0.000001 0.000001 -0.000001 0.036942 -0.000001 0.000093
# 5 0.000987 -0.012389 0.014488 -0.000001 0.053826 0.000002
# 6 -0.000001 -0.000002 0.000002 0.000093 0.000002 0.031518
#
#
# Mechanical properties :
#
#
# Convention : Reuss Voigt Hill
#
# Bulk Modulus (GPa) = 44.10177 52.87775 48.48976
# Shear Modulus (GPa) = 21.51423 28.13930 24.82677
#
# Velocity S-wave (km/s) = 3.36570 3.84918 3.61553
# Velocity P-wave (km/s) = 6.19070 6.89904 6.55445
#
# Compressibility (1/GPa) = 0.02267482
#
# Stress axis : x y z
#
# Youngs Moduli (GPa) = 34.24422 67.16494 53.97545
#
# Poissons Ratio (x) = 0.14216 0.63469
# Poissons Ratio (y) = 0.07248 0.32904
# Poissons Ratio (z) = 0.40267 0.40944
#
# Static dielectric constant tensor:
#      x y z
#    x 1.671980 0.000000 0.012160 
#    y 0.000000 1.659690 0.000000 
#    z 0.012160 0.000000 1.660990 
# 
# From -- ./inp_files/283384.got.cif
#   From: 2010.05.17/outbox.cif.g08.bks.cpg/sg15_142_cif.got.tgz:283384.got - 2010.06.03 18:47:42.
