data_PCOD9289752
_publ_section_title
;
Structure prediction by ZEFSAII (Michael W. Deem and Ramdas Pophale) SiO2 
 PCOD9289752
Probable space group: C 2/C
;
_chemical_formula_sum "Si O2"
_cell_formula_units_Z 32
_cell_length_a 9.979132
_cell_length_b 13.971769
_cell_length_c 16.752850
_cell_angle_alpha 90.000000
_cell_angle_beta 30.940449
_cell_angle_gamma 90.000000
_cell_volume 1200.936592
_symmetry_space_group_name_H-M "C 2/C"
_symmetry_group_IT_number 15
_symmetry_cell_setting 'monoclinic'
loop_
_space_group_symop_operation_xyz
x,y,z
-x,y,1/2-z
-x,-y,-z
x,-y,1/2+z
1/2+x,1/2+y,z
1/2-x,1/2+y,1/2-z
1/2-x,1/2-y,-z
1/2+x,1/2-y,1/2+z
loop_
_atom_site_type_symbol
_atom_site_label
_atom_site_fract_x
_atom_site_fract_y
_atom_site_fract_z
Si Si1 0.298235 0.130259 0.783494
Si Si2 0.304234 0.050682 0.029978
Si Si3 0.767592 0.361666 0.967266
Si Si4 0.807711 0.145168 0.241414
O O1 0.500000 0.104722 0.750000
O O2 0.411178 0.072896 0.650292
O O3 0.330383 0.242112 0.745852
O O4 0.988937 0.117080 0.954173
O O5 0.272999 0.097002 0.132580
O O6 0.094209 0.104975 0.081409
O O7 0.233871 0.939599 0.055445
O O8 0.079622 0.372124 0.793190
O O9 0.750000 0.250000 0.000000
#
# Coordination Sequence:
#
# PCOD9289752 Si02
#       4
#     8   8   8   8
#     4  11  23  41  64  93 132 168 207 257 322 381
#     4  11  21  40  71  89 127 171 210 260 316 375
#     4  10  23  41  62  98 131 161 215 265 313 374
#     4  10  22  40  67  99 121 163 221 261 314 368
#
# _framework density 26.645871
#
# number of rings (size 3 to 8) (size 9 to 14) (size 15 to 20)
#    0.000    1.500    2.500    3.000    0.000    4.000 
#    0.000    1.250   11.000    0.000    0.000    0.000 
#    0.000    0.000    0.000    0.000    0.000    0.000 
#
# Total GULP energy -89392.102516 kJ/mol
# GULP energy per Si atom -5587.006407 kJ/mol
# Density = 2.658522 g / cm^3
# Si number density = 26.645871 Si / 1000 Ang^3
#
#
#
# Elastic Constant Matrix: (Units=GPa)
#
#
# Indices 1 2 3 4 5 6 
#
# 1 178.9322 23.4366 61.7601 -0.0006 -51.3725 0.0003
# 2 23.4366 179.5732 6.6432 -0.0155 20.8621 0.0021
# 3 61.7601 6.6432 171.3396 -0.0267 -42.7734 -0.0021
# 4 -0.0006 -0.0155 -0.0267 3.5978 -0.0017 1.0138
# 5 -51.3725 20.8621 -42.7734 -0.0017 64.9999 0.0031
# 6 0.0003 0.0021 -0.0021 1.0138 0.0031 21.6959
#
#
#
# Elastic Compliance Matrix: (Units=1/GPa)
#
#
# Indices 1 2 3 4 5 6 
#
# 1 0.007983 -0.001688 -0.001318 -0.000013 0.005984 0.000000
# 2 -0.001688 0.006240 -0.000558 0.000021 -0.003704 -0.000001
# 3 -0.001318 -0.000558 0.007320 0.000054 0.003954 -0.000002
# 4 -0.000013 0.000021 0.000054 0.281659 0.000027 -0.013161
# 5 0.005984 -0.003704 0.003954 0.000027 0.023905 -0.000004
# 6 0.000000 -0.000001 -0.000002 -0.013161 -0.000004 0.046707
#
#
# Mechanical properties :
#
#
# Convention : Reuss Voigt Hill
#
# Bulk Modulus (GPa) = 69.37718 79.28052 74.32885
# Shear Modulus (GPa) = 12.96184 47.25907 30.11045
#
# Velocity S-wave (km/s) = 2.20795 4.21598 3.36523
# Velocity P-wave (km/s) = 5.70906 7.31555 6.56166
#
# Compressibility (1/GPa) = 0.01441396
#
# Stress axis : x y z
#
# Youngs Moduli (GPa) = 125.27043 160.25374 136.60505
#
# Poissons Ratio (x) = 0.27054 0.18008
# Poissons Ratio (y) = 0.21148 0.07625
# Poissons Ratio (z) = 0.16513 0.08945
#
# Static dielectric constant tensor:
#      x y z
#    x 2.131390 0.000000 -0.048890 
#    y 0.000000 2.054380 0.000000 
#    z -0.048890 0.000000 2.073100 
# 
# From -- ./inp_files/238180.got.cif
#   From: 2010.05.17/outbox.cif.g08.bks.cpg/sg15_120_cif.got.tgz:238180.got - 2010.06.03 18:47:42.
