data_PCOD9289791
_publ_section_title
;
Structure prediction by ZEFSAII (Michael W. Deem and Ramdas Pophale) SiO2 
 PCOD9289791
Probable space group: C 2/C
;
_chemical_formula_sum "Si O2"
_cell_formula_units_Z 40
_cell_length_a 12.440577
_cell_length_b 7.144554
_cell_length_c 17.584315
_cell_angle_alpha 90.000000
_cell_angle_beta 84.864247
_cell_angle_gamma 90.000000
_cell_volume 1556.661105
_symmetry_space_group_name_H-M "C 2/C"
_symmetry_group_IT_number 15
_symmetry_cell_setting 'monoclinic'
loop_
_space_group_symop_operation_xyz
x,y,z
-x,y,1/2-z
-x,-y,-z
x,-y,1/2+z
1/2+x,1/2+y,z
1/2-x,1/2+y,1/2-z
1/2-x,1/2-y,-z
1/2+x,1/2-y,1/2+z
loop_
_atom_site_type_symbol
_atom_site_label
_atom_site_fract_x
_atom_site_fract_y
_atom_site_fract_z
Si Si1 0.172924 0.788224 0.891724
Si Si2 0.883834 0.179705 0.937452
Si Si3 0.750000 0.750000 0.000000
Si Si4 0.609910 0.660179 0.862595
Si Si5 0.500000 0.928164 0.750000
Si Si6 0.056497 0.599141 0.601857
O O1 0.284658 0.677567 0.885124
O O2 0.066565 0.665510 0.893850
O O3 0.169188 0.966905 0.837627
O O4 0.166816 0.879863 0.978531
O O5 0.918436 0.399474 0.939879
O O6 0.994152 0.089136 0.904122
O O7 0.823487 0.740477 0.075107
O O8 0.639637 0.762536 0.058431
O O9 0.574878 0.796459 0.797410
O O10 0.571309 0.054528 0.689768
#
# Coordination Sequence:
#
# PCOD9289791 Si02
#       6
#     8   8   4   8   4   8
#     4  11  22  39  73 106 143 188 255 301 368 437
#     4  10  22  40  68 112 143 184 244 316 362 441
#     4  12  24  44  88 108 148 196 276 304 374 450
#     4  11  24  46  70 109 147 195 249 317 366 468
#     4  10  28  50  66 102 168 198 250 312 416 434
#     4  11  24  46  69 112 148 200 248 319 378 460
#
# _framework density 25.696023
#
# number of rings (size 3 to 8) (size 9 to 14) (size 15 to 20)
#    0.000    1.200    4.000    1.200    2.800    0.800 
#    7.200    0.000    0.000    0.000    0.000    0.000 
#    0.000    0.000    0.000    0.000    0.000    0.000 
#
# Total GULP energy -111435.155327 kJ/mol
# GULP energy per Si atom -5571.757766 kJ/mol
# Density = 2.563754 g / cm^3
# Si number density = 25.696023 Si / 1000 Ang^3
#
#
#
# Elastic Constant Matrix: (Units=GPa)
#
#
# Indices 1 2 3 4 5 6 
#
# 1 192.5518 45.6633 12.1202 0.0000 48.5177 0.0000
# 2 45.6633 58.0070 22.0295 0.0000 9.8575 0.0000
# 3 12.1202 22.0295 101.9955 0.0000 32.2496 0.0000
# 4 0.0000 0.0000 0.0000 42.0801 0.0000 0.0504
# 5 48.5177 9.8575 32.2496 0.0000 34.9800 0.0000
# 6 0.0000 0.0000 0.0000 0.0504 0.0000 8.2244
#
#
#
# Elastic Compliance Matrix: (Units=1/GPa)
#
#
# Indices 1 2 3 4 5 6 
#
# 1 0.011977 -0.008563 0.006939 0.000000 -0.020596 0.000000
# 2 -0.008563 0.025022 -0.008346 0.000000 0.012520 0.000000
# 3 0.006939 -0.008346 0.018464 0.000000 -0.024295 0.000000
# 4 0.000000 0.000000 0.000000 0.023764 0.000000 -0.000146
# 5 -0.020596 0.012520 -0.024295 0.000000 0.076025 0.000000
# 6 0.000000 0.000000 0.000000 -0.000146 0.000000 0.121590
#
#
# Mechanical properties :
#
#
# Convention : Reuss Voigt Hill
#
# Bulk Modulus (GPa) = 28.15127 56.90895 42.53011
# Shear Modulus (GPa) = 16.20093 35.23967 25.72030
#
# Velocity S-wave (km/s) = 2.51367 3.70727 3.16720
# Velocity P-wave (km/s) = 4.40500 6.36555 5.47376
#
# Compressibility (1/GPa) = 0.03552238
#
# Stress axis : x y z
#
# Youngs Moduli (GPa) = 83.49251 39.96447 54.15928
#
# Poissons Ratio (x) = 0.34223 -0.37579
# Poissons Ratio (y) = 0.71498 0.45199
# Poissons Ratio (z) = -0.57932 0.33353
#
# Static dielectric constant tensor:
#      x y z
#    x 2.073780 0.000000 0.077720 
#    y 0.000000 2.272540 0.000000 
#    z 0.077720 0.000000 2.063030 
# 
# From -- ./inp_files/235857.got.cif
#   From: 2010.05.17/outbox.cif.g08.bks.cpg/sg15_118_cif.got.tgz:235857.got - 2010.06.03 18:47:42.
