data_PCOD9289816
_publ_section_title
;
Structure prediction by ZEFSAII (Michael W. Deem and Ramdas Pophale) SiO2 
 PCOD9289816
Probable space group: C 2/C
;
_chemical_formula_sum "Si O2"
_cell_formula_units_Z 52
_cell_length_a 16.402742
_cell_length_b 28.766797
_cell_length_c 5.589631
_cell_angle_alpha 90.000000
_cell_angle_beta 113.865267
_cell_angle_gamma 90.000000
_cell_volume 2411.984539
_symmetry_space_group_name_H-M "C 2/C"
_symmetry_group_IT_number 15
_symmetry_cell_setting 'monoclinic'
loop_
_space_group_symop_operation_xyz
x,y,z
-x,y,1/2-z
-x,-y,-z
x,-y,1/2+z
1/2+x,1/2+y,z
1/2-x,1/2+y,1/2-z
1/2-x,1/2-y,-z
1/2+x,1/2-y,1/2+z
loop_
_atom_site_type_symbol
_atom_site_label
_atom_site_fract_x
_atom_site_fract_y
_atom_site_fract_z
Si Si1 0.157176 0.352099 0.728761
Si Si2 0.379774 0.971704 0.359023
Si Si3 0.760540 0.100706 0.974048
Si Si4 0.000000 0.591634 0.250000
Si Si5 0.393345 0.524171 0.131142
Si Si6 0.752480 0.798624 0.228445
Si Si7 0.397155 0.234252 0.611928
O O1 0.210381 0.393232 0.665456
O O2 0.103934 0.318394 0.487675
O O3 0.083565 0.375340 0.806001
O O4 0.226887 0.317937 0.939819
O O5 0.471344 0.942188 0.498965
O O6 0.373381 0.000138 0.601996
O O7 0.300812 0.933753 0.252632
O O8 0.854754 0.075849 0.100253
O O9 0.764872 0.153218 0.886873
O O10 0.500000 0.523830 0.250000
O O11 0.363840 0.498952 0.343345
O O12 0.666374 0.770583 0.229202
O O13 0.840235 0.768217 0.372821
O O14 0.500000 0.249094 0.750000
#
# Coordination Sequence:
#
# PCOD9289816 Si02
#       7
#     8   8   8   4   8   8   8
#     4  11  23  40  65  97 134 181 225 282 349 426
#     4  12  26  43  62  96 140 182 229 284 335 403
#     4  11  24  40  66  93 133 177 226 281 355 409
#     4  12  24  42  66  98 138 184 238 278 348 414
#     4  10  23  43  69  98 132 177 235 290 346 415
#     4  10  22  42  62  97 132 169 230 285 342 432
#     4  10  22  40  68  94 131 175 223 286 356 420
#
# _framework density 21.559009
#
# number of rings (size 3 to 8) (size 9 to 14) (size 15 to 20)
#    0.000    1.231    1.538    3.692    4.308    1.846 
#    0.000    0.000    0.000    0.000    0.000    0.000 
#    0.000    0.000    0.000    0.000    0.000    0.000 
#
# Total GULP energy -145160.555335 kJ/mol
# GULP energy per Si atom -5583.098282 kJ/mol
# Density = 2.150994 g / cm^3
# Si number density = 21.559009 Si / 1000 Ang^3
#
#
#
# Elastic Constant Matrix: (Units=GPa)
#
#
# Indices 1 2 3 4 5 6 
#
# 1 84.0845 48.5989 50.3755 0.0000 9.1491 0.0000
# 2 48.5989 101.7462 42.1279 0.0000 -0.4746 0.0000
# 3 50.3755 42.1279 100.7424 0.0000 -2.9249 0.0000
# 4 0.0000 0.0000 0.0000 37.1687 0.0000 -4.9611
# 5 9.1491 -0.4746 -2.9249 0.0000 23.0414 0.0000
# 6 0.0000 0.0000 0.0000 -4.9611 0.0000 34.3846
#
#
#
# Elastic Compliance Matrix: (Units=1/GPa)
#
#
# Indices 1 2 3 4 5 6 
#
# 1 0.022123 -0.007151 -0.008362 0.000000 -0.009993 0.000000
# 2 -0.007151 0.014202 -0.002280 0.000000 0.002843 0.000000
# 3 -0.008362 -0.002280 0.015212 0.000000 0.005204 0.000000
# 4 0.000000 0.000000 0.000000 0.027433 0.000000 0.003958
# 5 -0.009993 0.002843 0.005204 0.000000 0.048087 0.000000
# 6 0.000000 0.000000 0.000000 0.003958 0.000000 0.029654
#
#
# Mechanical properties :
#
#
# Convention : Reuss Voigt Hill
#
# Bulk Modulus (GPa) = 62.69719 63.19752 62.94735
# Shear Modulus (GPa) = 25.30163 28.61698 26.95931
#
# Velocity S-wave (km/s) = 3.42950 3.64727 3.54006
# Velocity P-wave (km/s) = 6.69528 6.86398 6.78015
#
# Compressibility (1/GPa) = 0.01594968
#
# Stress axis : x y z
#
# Youngs Moduli (GPa) = 45.20106 70.41449 65.73588
#
# Poissons Ratio (x) = 0.50357 0.54970
# Poissons Ratio (y) = 0.32325 0.14989
# Poissons Ratio (z) = 0.37798 0.16056
#
# Static dielectric constant tensor:
#      x y z
#    x 1.783810 0.000000 -0.063300 
#    y 0.000000 1.769130 0.000000 
#    z -0.063300 0.000000 1.843430 
# 
# From -- ./inp_files/9000.got.cif
#   From: 2010.05.17/outbox.cif.g08.bks.cpg/sg15_5_cif.got.tgz:9000.got - 2010.06.03 18:47:42.
