data_PCOD9289130
_publ_section_title
;
Structure prediction by ZEFSAII (Michael W. Deem and Ramdas Pophale) SiO2 
 PCOD9289130
Probable space group: C 2/C
;
_chemical_formula_sum "Si O2"
_cell_formula_units_Z 60
_cell_length_a 5.665727
_cell_length_b 21.730814
_cell_length_c 26.037272
_cell_angle_alpha 90.000000
_cell_angle_beta 60.856786
_cell_angle_gamma 90.000000
_cell_volume 2799.902292
_symmetry_space_group_name_H-M "C 2/C"
_symmetry_group_IT_number 15
_symmetry_cell_setting 'monoclinic'
loop_
_space_group_symop_operation_xyz
x,y,z
-x,y,1/2-z
-x,-y,-z
x,-y,1/2+z
1/2+x,1/2+y,z
1/2-x,1/2+y,1/2-z
1/2-x,1/2-y,-z
1/2+x,1/2-y,1/2+z
loop_
_atom_site_type_symbol
_atom_site_label
_atom_site_fract_x
_atom_site_fract_y
_atom_site_fract_z
Si Si1 0.458443 0.756867 0.930719
Si Si2 0.500407 0.036308 0.421185
Si Si3 0.500000 0.925503 0.750000
Si Si4 0.023255 0.979225 0.308580
Si Si5 0.638963 0.867121 0.640435
Si Si6 0.189507 0.851286 0.565747
Si Si7 0.210592 0.589989 0.543836
Si Si8 0.935182 0.121207 0.894385
O O1 0.413034 0.810587 0.892723
O O2 0.712726 0.782929 0.934979
O O3 0.483201 0.693270 0.898275
O O4 0.250000 0.750000 0.000000
O O5 0.335125 0.070422 0.394843
O O6 0.601071 0.093555 0.444414
O O7 0.331102 0.982223 0.465206
O O8 0.756593 0.006250 0.364914
O O9 0.437585 0.882241 0.707752
O O10 0.740295 0.971370 0.709457
O O11 0.000000 0.971474 0.250000
O O12 0.062575 0.913703 0.332130
O O13 0.937861 0.857706 0.630119
O O14 0.134217 0.866019 0.512431
O O15 0.397570 0.591875 0.575057
O O16 0.894160 0.613330 0.576751
#
# Coordination Sequence:
#
# PCOD9289130 Si02
#       8
#     8   8   4   8   8   8   8   8
#     4  11  24  46  67  98 142 190 237 287 348 427
#     4  10  22  40  61 104 134 173 231 290 358 426
#     4  12  22  44  70 100 136 178 232 306 362 414
#     4  11  23  43  73  94 136 183 227 297 357 418
#     4  11  24  39  69  98 136 184 240 288 359 417
#     4  11  23  39  68 101 136 191 226 286 356 420
#     4  11  24  41  67 101 145 180 225 292 355 426
#     4  11  26  44  68 103 136 187 237 279 351 423
#
# _framework density 21.429319
#
# number of rings (size 3 to 8) (size 9 to 14) (size 15 to 20)
#    0.000    1.067    4.000    2.000    7.467    1.600 
#    1.200    0.000    0.000    0.000    0.000    0.000 
#    0.000    0.000    0.000    0.000    0.000    0.000 
#
# Total GULP energy -167159.735431 kJ/mol
# GULP energy per Si atom -5571.991181 kJ/mol
# Density = 2.138054 g / cm^3
# Si number density = 21.429319 Si / 1000 Ang^3
#
#
#
# Elastic Constant Matrix: (Units=GPa)
#
#
# Indices 1 2 3 4 5 6 
#
# 1 56.4927 6.8586 14.1854 0.0000 -0.0458 0.0000
# 2 6.8586 123.9886 28.9094 0.0000 0.9255 0.0000
# 3 14.1854 28.9094 83.6285 0.0000 5.7991 0.0000
# 4 0.0000 0.0000 0.0000 29.6161 0.0000 6.3589
# 5 -0.0458 0.9255 5.7991 0.0000 38.2389 0.0000
# 6 0.0000 0.0000 0.0000 6.3589 0.0000 31.7953
#
#
#
# Elastic Compliance Matrix: (Units=1/GPa)
#
#
# Indices 1 2 3 4 5 6 
#
# 1 0.018510 -0.000313 -0.003066 0.000000 0.000495 0.000000
# 2 -0.000313 0.008780 -0.002999 0.000000 0.000242 0.000000
# 3 -0.003066 -0.002999 0.013653 0.000000 -0.002002 0.000000
# 4 0.000000 0.000000 0.000000 0.035280 0.000000 -0.007056
# 5 0.000495 0.000242 -0.002002 0.000000 0.026450 0.000000
# 6 0.000000 0.000000 0.000000 -0.007056 0.000000 0.032862
#
#
# Mechanical properties :
#
#
# Convention : Reuss Voigt Hill
#
# Bulk Modulus (GPa) = 35.47632 40.44629 37.96131
# Shear Modulus (GPa) = 31.70857 34.20714 32.95785
#
# Velocity S-wave (km/s) = 3.85084 3.99968 3.92596
# Velocity P-wave (km/s) = 6.03017 6.34391 6.18902
#
# Compressibility (1/GPa) = 0.02818782
#
# Stress axis : x y z
#
# Youngs Moduli (GPa) = 54.02601 113.89556 73.24310
#
# Poissons Ratio (x) = 0.03562 0.22455
# Poissons Ratio (y) = 0.01690 0.21965
# Poissons Ratio (z) = 0.16564 0.34156
#
# Static dielectric constant tensor:
#      x y z
#    x 1.905870 0.000000 0.011350 
#    y 0.000000 1.772810 0.000000 
#    z 0.011350 0.000000 1.825420 
# 
# From -- ./inp_files/286492.got.cif
#   From: 2010.05.17/outbox.cif.g08.bks.cpg/sg15_144_cif.got.tgz:286492.got - 2010.06.03 18:47:42.
