data_PCOD9289602
_publ_section_title
;
Structure prediction by ZEFSAII (Michael W. Deem and Ramdas Pophale) SiO2 
 PCOD9289602
Probable space group: C 2/C
;
_chemical_formula_sum "Si O2"
_cell_formula_units_Z 44
_cell_length_a 19.844256
_cell_length_b 14.339723
_cell_length_c 8.795247
_cell_angle_alpha 90.000000
_cell_angle_beta 112.355911
_cell_angle_gamma 90.000000
_cell_volume 2314.673586
_symmetry_space_group_name_H-M "C 2/C"
_symmetry_group_IT_number 15
_symmetry_cell_setting 'monoclinic'
loop_
_space_group_symop_operation_xyz
x,y,z
-x,y,1/2-z
-x,-y,-z
x,-y,1/2+z
1/2+x,1/2+y,z
1/2-x,1/2+y,1/2-z
1/2-x,1/2-y,-z
1/2+x,1/2-y,1/2+z
loop_
_atom_site_type_symbol
_atom_site_label
_atom_site_fract_x
_atom_site_fract_y
_atom_site_fract_z
Si Si1 0.346700 0.914165 0.269428
Si Si2 0.275076 0.266271 0.849082
Si Si3 0.926802 0.126924 0.449098
Si Si4 0.345143 0.112190 0.407579
Si Si5 0.504330 0.818074 0.071323
Si Si6 0.500000 0.489654 0.750000
O O1 0.299279 0.833085 0.303748
O O2 0.429811 0.891005 0.390041
O O3 0.327028 0.016709 0.306441
O O4 0.340127 0.904681 0.083101
O O5 0.344111 0.336667 0.893478
O O6 0.209408 0.308840 0.695822
O O7 0.250000 0.250000 0.000000
O O8 0.947883 0.074120 0.310561
O O9 0.974497 0.221574 0.490676
O O10 0.951205 0.056043 0.601304
O O11 0.428130 0.142847 0.448259
O O12 0.500000 0.800150 0.250000
#
# Coordination Sequence:
#
# PCOD9289602 Si02
#       6
#     8   8   8   8   8   4
#     4  10  22  41  61  92 123 163 214 257 312 385
#     4  11  25  42  61  94 131 165 211 267 323 387
#     4  10  22  41  61  93 123 163 218 264 313 378
#     4  11  22  40  65  91 124 168 202 261 327 373
#     4   9  19  38  64  88 123 160 209 261 309 372
#     4  10  22  40  66  90 120 172 218 260 312 374
#
# _framework density 19.009160000000001
#
# number of rings (size 3 to 8) (size 9 to 14) (size 15 to 20)
#    0.000    1.818    0.909    2.182    2.545    2.909 
#    3.273    0.000    0.000    0.000    0.000    0.000 
#    0.000    0.000    0.000    0.000    0.000    0.000 
#
# Total GULP energy -122914.216502 kJ/mol
# GULP energy per Si atom -5587.009841 kJ/mol
# Density = 1.896589 g / cm^3
# Si number density = 19.009160 Si / 1000 Ang^3
#
#
#
# Elastic Constant Matrix: (Units=GPa)
#
#
# Indices 1 2 3 4 5 6 
#
# 1 96.0077 42.2883 46.8530 0.0000 6.8683 0.0000
# 2 42.2883 67.1220 30.6367 0.0000 13.8946 0.0000
# 3 46.8530 30.6367 76.7315 0.0000 9.2910 0.0000
# 4 0.0000 0.0000 0.0000 23.7006 0.0000 -3.0167
# 5 6.8683 13.8946 9.2910 0.0000 30.7149 0.0000
# 6 0.0000 0.0000 0.0000 -3.0167 0.0000 23.2316
#
#
#
# Elastic Compliance Matrix: (Units=1/GPa)
#
#
# Indices 1 2 3 4 5 6 
#
# 1 0.017574 -0.007924 -0.007811 0.000000 0.002018 0.000000
# 2 -0.007924 0.023035 -0.003437 0.000000 -0.007609 0.000000
# 3 -0.007811 -0.003437 0.019488 0.000000 -0.002594 0.000000
# 4 0.000000 0.000000 0.000000 0.042902 0.000000 0.005571
# 5 0.002018 -0.007609 -0.002594 0.000000 0.036333 0.000000
# 6 0.000000 0.000000 0.000000 0.005571 0.000000 0.043768
#
#
# Mechanical properties :
#
#
# Convention : Reuss Voigt Hill
#
# Bulk Modulus (GPa) = 45.97345 53.26855 49.62100
# Shear Modulus (GPa) = 21.86314 23.53495 22.69905
#
# Velocity S-wave (km/s) = 3.39505 3.52246 3.45934
# Velocity P-wave (km/s) = 6.29332 6.68035 6.48972
#
# Compressibility (1/GPa) = 0.02175169
#
# Stress axis : x y z
#
# Youngs Moduli (GPa) = 56.90292 43.41305 51.31268
#
# Poissons Ratio (x) = 0.34402 0.40081
# Poissons Ratio (y) = 0.45092 0.17637
# Poissons Ratio (z) = 0.44447 0.14922
#
# Static dielectric constant tensor:
#      x y z
#    x 1.662250 0.000000 -0.012190 
#    y 0.000000 1.623110 0.000000 
#    z -0.012190 0.000000 1.637070 
# 
# From -- ./inp_files/47005.got.cif
#   From: 2010.05.17/outbox.cif.g08.bks.cpg/sg15_24_cif.got.tgz:47005.got - 2010.06.03 18:47:42.
