data_PCOD9289357
_publ_section_title
;
Structure prediction by ZEFSAII (Michael W. Deem and Ramdas Pophale) SiO2 
 PCOD9289357
Probable space group: C 2/C
;
_chemical_formula_sum "Si O2"
_cell_formula_units_Z 60
_cell_length_a 19.628727
_cell_length_b 17.018176
_cell_length_c 8.724388
_cell_angle_alpha 90.000000
_cell_angle_beta 115.148344
_cell_angle_gamma 90.000000
_cell_volume 2638.090718
_symmetry_space_group_name_H-M "C 2/C"
_symmetry_group_IT_number 15
_symmetry_cell_setting 'monoclinic'
loop_
_space_group_symop_operation_xyz
x,y,z
-x,y,1/2-z
-x,-y,-z
x,-y,1/2+z
1/2+x,1/2+y,z
1/2-x,1/2+y,1/2-z
1/2-x,1/2-y,-z
1/2+x,1/2-y,1/2+z
loop_
_atom_site_type_symbol
_atom_site_label
_atom_site_fract_x
_atom_site_fract_y
_atom_site_fract_z
Si Si1 0.137053 0.638864 0.838091
Si Si2 0.469987 0.743778 0.438507
Si Si3 0.664308 0.715169 0.976086
Si Si4 0.000000 0.973829 0.250000
Si Si5 0.764867 0.159406 0.725784
Si Si6 0.120792 0.667860 0.158594
Si Si7 0.073993 0.102251 0.525028
Si Si8 0.944026 0.480949 0.808982
O O1 0.083775 0.707975 0.724664
O O2 0.201534 0.620559 0.773820
O O3 0.087712 0.559594 0.798289
O O4 0.160796 0.667309 0.030433
O O5 0.414839 0.706803 0.514996
O O6 0.533977 0.805795 0.550068
O O7 0.517885 0.671377 0.425145
O O8 0.707169 0.645404 0.925514
O O9 0.646195 0.775421 0.819143
O O10 0.719510 0.758431 0.148947
O O11 0.953614 0.925313 0.332410
O O12 0.058998 0.029350 0.398407
O O13 0.842866 0.140150 0.887764
O O14 0.121715 0.577915 0.211513
O O15 0.000000 0.435946 0.750000
O O16 0.000000 0.500000 0.000000
#
# Coordination Sequence:
#
# PCOD9289357 Si02
#       8
#     8   8   8   4   8   8   8   8
#     4  11  25  41  60 103 140 174 215 272 334 401
#     4  11  21  39  74  99 125 171 228 274 330 387
#     4  10  22  40  64 102 129 175 221 272 324 399
#     4  10  26  46  72 100 122 164 238 282 336 388
#     4  10  23  43  64  93 141 171 214 274 336 395
#     4  12  23  38  67  99 128 178 229 266 324 392
#     4  11  23  47  72  97 128 171 221 287 332 397
#     4  12  22  40  62  93 136 175 219 273 316 390
#
# _framework density 22.743722000000002
#
# number of rings (size 3 to 8) (size 9 to 14) (size 15 to 20)
#    0.000    1.067    4.000    2.400    3.733    0.533 
#    4.800    2.667    0.000    0.000    0.000    0.000 
#    0.000    0.000    0.000    0.000    0.000    0.000 
#
# Total GULP energy -167118.135887 kJ/mol
# GULP energy per Si atom -5570.604530 kJ/mol
# Density = 2.269196 g / cm^3
# Si number density = 22.743722 Si / 1000 Ang^3
#
#
#
# Elastic Constant Matrix: (Units=GPa)
#
#
# Indices 1 2 3 4 5 6 
#
# 1 113.6174 25.7470 26.1839 0.0000 4.9133 0.0000
# 2 25.7470 72.8738 31.3557 0.0000 -3.4526 0.0000
# 3 26.1839 31.3557 92.3074 0.0000 2.8536 0.0000
# 4 0.0000 0.0000 0.0000 33.1738 0.0000 -8.0819
# 5 4.9133 -3.4526 2.8536 0.0000 29.8611 0.0000
# 6 0.0000 0.0000 0.0000 -8.0819 0.0000 20.0167
#
#
#
# Elastic Compliance Matrix: (Units=1/GPa)
#
#
# Indices 1 2 3 4 5 6 
#
# 1 0.009933 -0.002817 -0.001805 0.000000 -0.001788 0.000000
# 2 -0.002817 0.017042 -0.005080 0.000000 0.002919 0.000000
# 3 -0.001805 -0.005080 0.013119 0.000000 -0.001544 0.000000
# 4 0.000000 0.000000 0.000000 0.033433 0.000000 0.013499
# 5 -0.001788 0.002919 -0.001544 0.000000 0.034268 0.000000
# 6 0.000000 0.000000 0.000000 0.013499 0.000000 0.055408
#
#
# Mechanical properties :
#
#
# Convention : Reuss Voigt Hill
#
# Bulk Modulus (GPa) = 48.33614 49.48574 48.91094
# Shear Modulus (GPa) = 26.38460 29.64447 28.01454
#
# Velocity S-wave (km/s) = 3.40969 3.61420 3.51343
# Velocity P-wave (km/s) = 6.06630 6.26273 6.16530
#
# Compressibility (1/GPa) = 0.02068845
#
# Stress axis : x y z
#
# Youngs Moduli (GPa) = 100.67156 58.67898 76.22647
#
# Poissons Ratio (x) = 0.16532 0.13762
# Poissons Ratio (y) = 0.28363 0.38723
# Poissons Ratio (z) = 0.18175 0.29809
#
# Static dielectric constant tensor:
#      x y z
#    x 1.903150 0.000000 0.044430 
#    y 0.000000 1.888980 0.000000 
#    z 0.044430 0.000000 1.685680 
# 
# From -- ./inp_files/57046.got.cif
#   From: 2010.05.17/outbox.cif.g08.bks.cpg/sg15_29_cif.got.tgz:57046.got - 2010.06.03 18:47:42.
