data_PCOD9289579
_publ_section_title
;
Structure prediction by ZEFSAII (Michael W. Deem and Ramdas Pophale) SiO2 
 PCOD9289579
Probable space group: C 2/C
;
_chemical_formula_sum "Si O2"
_cell_formula_units_Z 36
_cell_length_a 10.617588
_cell_length_b 23.349844
_cell_length_c 15.892687
_cell_angle_alpha 90.000000
_cell_angle_beta 22.710540
_cell_angle_gamma 90.000000
_cell_volume 1521.176822
_symmetry_space_group_name_H-M "C 2/C"
_symmetry_group_IT_number 15
_symmetry_cell_setting 'monoclinic'
loop_
_space_group_symop_operation_xyz
x,y,z
-x,y,1/2-z
-x,-y,-z
x,-y,1/2+z
1/2+x,1/2+y,z
1/2-x,1/2+y,1/2-z
1/2-x,1/2-y,-z
1/2+x,1/2-y,1/2+z
loop_
_atom_site_type_symbol
_atom_site_label
_atom_site_fract_x
_atom_site_fract_y
_atom_site_fract_z
Si Si1 0.520020 0.662129 0.499582
Si Si2 0.378777 0.957173 0.003899
Si Si3 0.000000 0.439176 0.750000
Si Si4 0.853185 0.854642 0.752903
Si Si5 0.739763 0.215623 0.839724
O O1 0.398484 0.651479 0.478420
O O2 0.763499 0.715420 0.328332
O O3 0.316311 0.685354 0.703991
O O4 0.698235 0.604620 0.421605
O O5 0.000000 0.946916 0.250000
O O6 0.442849 0.976067 0.868530
O O7 0.582723 0.899409 0.888949
O O8 0.500000 0.000000 0.000000
O O9 0.000000 0.875472 0.750000
O O10 0.636755 0.799198 0.909057
O O11 0.000000 0.195601 0.750000
#
# Coordination Sequence:
#
# PCOD9289579 Si02
#       5
#     8   8   4   8   8
#     4  11  21  37  62  94 131 174 219 264 311 376
#     4  11  24  46  72  98 125 165 213 273 332 384
#     4  10  22  40  66 102 130 162 220 260 320 392
#     4  11  25  42  61  93 136 174 218 266 319 383
#     4  12  21  37  63  92 127 175 222 264 311 372
#
# _framework density 23.665887999999999
#
# number of rings (size 3 to 8) (size 9 to 14) (size 15 to 20)
#    0.000    0.889    3.333    6.000    0.000    2.667 
#    0.000    2.222    0.000    0.000    0.000    0.000 
#    0.000    0.000    0.000    0.000    0.000    0.000 
#
# Total GULP energy -100517.443569 kJ/mol
# GULP energy per Si atom -5584.302421 kJ/mol
# Density = 2.361202 g / cm^3
# Si number density = 23.665888 Si / 1000 Ang^3
#
#
#
# Elastic Constant Matrix: (Units=GPa)
#
#
# Indices 1 2 3 4 5 6 
#
# 1 178.0664 9.4819 52.6237 0.0106 50.6289 -0.0675
# 2 9.4819 41.5592 2.0026 -0.0577 13.7917 0.0199
# 3 52.6237 2.0026 80.8333 0.2136 30.2332 -0.1395
# 4 0.0106 -0.0577 0.2136 -6.6259 -0.0704 18.6138
# 5 50.6289 13.7917 30.2332 -0.0704 49.2126 0.0538
# 6 -0.0675 0.0199 -0.1395 18.6138 0.0538 28.5285
#
#
#
# Elastic Compliance Matrix: (Units=1/GPa)
#
#
# Indices 1 2 3 4 5 6 
#
# 1 0.008448 0.000564 -0.002861 0.000016 -0.007091 0.000009
# 2 0.000564 0.027049 0.002616 -0.000003 -0.009767 0.000016
# 3 -0.002861 0.002616 0.017321 0.000310 -0.008430 -0.000110
# 4 0.000016 -0.000003 0.000310 -0.053267 -0.000320 0.034757
# 5 -0.007091 -0.009767 -0.008430 -0.000320 0.035530 0.000091
# 6 0.000009 0.000016 -0.000110 0.034757 0.000091 0.012374
#
#
# Mechanical properties :
#
#
# Convention : Reuss Voigt Hill
#
# Bulk Modulus (GPa) = 18.70758 47.63059 33.16908
# Shear Modulus (GPa) = 77.35649 29.97974 53.66812
#
# Velocity S-wave (km/s) = 5.72345 3.56306 4.76725
# Velocity P-wave (km/s) = 7.18326 6.09075 6.65944
#
# Compressibility (1/GPa) = 0.05345428
#
# Stress axis : x y z
#
# Youngs Moduli (GPa) = 118.37674 36.97024 57.73322
#
# Poissons Ratio (x) = -0.02084 0.16520
# Poissons Ratio (y) = -0.06673 -0.15104
# Poissons Ratio (z) = 0.33873 -0.09672
#
# Static dielectric constant tensor:
#      x y z
#    x 2.012010 0.000190 0.074760 
#    y 0.000190 1.902990 0.000560 
#    z 0.074760 0.000560 1.969210 
# 
# From -- ./inp_files/138867.got.cif
#   From: 2010.05.17/outbox.cif.g08.bks.cpg/sg15_70_cif.got.tgz:138867.got - 2010.06.03 18:47:42.
