data_PCOD9289727
_publ_section_title
;
Structure prediction by ZEFSAII (Michael W. Deem and Ramdas Pophale) SiO2 
 PCOD9289727
Probable space group: C 2/C
;
_chemical_formula_sum "Si O2"
_cell_formula_units_Z 56
_cell_length_a 11.969150
_cell_length_b 14.325176
_cell_length_c 17.877091
_cell_angle_alpha 90.000000
_cell_angle_beta 109.748356
_cell_angle_gamma 90.000000
_cell_volume 2884.931143
_symmetry_space_group_name_H-M "C 2/C"
_symmetry_group_IT_number 15
_symmetry_cell_setting 'monoclinic'
loop_
_space_group_symop_operation_xyz
x,y,z
-x,y,1/2-z
-x,-y,-z
x,-y,1/2+z
1/2+x,1/2+y,z
1/2-x,1/2+y,1/2-z
1/2-x,1/2-y,-z
1/2+x,1/2-y,1/2+z
loop_
_atom_site_type_symbol
_atom_site_label
_atom_site_fract_x
_atom_site_fract_y
_atom_site_fract_z
Si Si1 0.307685 0.042163 0.511343
Si Si2 0.560821 0.357367 0.925227
Si Si3 0.423224 0.201913 0.444265
Si Si4 0.304479 0.596889 0.329285
Si Si5 0.676168 0.833823 0.947476
Si Si6 0.321056 0.269083 0.691977
Si Si7 0.371428 0.061656 0.698831
O O1 0.173299 0.080004 0.473971
O O2 0.384728 0.102380 0.470764
O O3 0.356022 0.063498 0.605518
O O4 0.310217 0.930839 0.503521
O O5 0.438096 0.413187 0.890591
O O6 0.594073 0.311191 0.853022
O O7 0.548772 0.273788 0.982290
O O8 0.537679 0.191014 0.418677
O O9 0.308239 0.239445 0.375229
O O10 0.226921 0.644812 0.376983
O O11 0.312050 0.661344 0.258793
O O12 0.235980 0.501575 0.295957
O O13 0.750000 0.750000 0.000000
O O14 0.362390 0.167000 0.725588
O O15 0.500000 0.022308 0.750000
#
# Coordination Sequence:
#
# PCOD9289727 Si02
#       7
#     8   8   8   8   8   8   8
#     4  10  22  40  67  95 118 164 214 268 301 366
#     4  11  20  44  70  93 119 159 225 261 310 362
#     4  11  21  41  69  95 122 161 217 259 312 375
#     4  11  26  40  64  92 132 168 201 261 322 374
#     4  11  24  40  60  96 131 169 200 256 326 377
#     4  11  23  43  67  92 123 167 211 266 306 368
#     4  11  23  40  65  93 126 166 210 251 318 370
#
# _framework density 19.411208999999999
#
# number of rings (size 3 to 8) (size 9 to 14) (size 15 to 20)
#    0.000    1.143    4.286    2.571    4.000    3.429 
#    5.143    0.000    3.143    0.000    0.000    0.000 
#    0.000    0.000    0.000    0.000    0.000    0.000 
#
# Total GULP energy -156517.988487 kJ/mol
# GULP energy per Si atom -5589.928160 kJ/mol
# Density = 1.936703 g / cm^3
# Si number density = 19.411209 Si / 1000 Ang^3
#
#
#
# Elastic Constant Matrix: (Units=GPa)
#
#
# Indices 1 2 3 4 5 6 
#
# 1 150.4148 17.7222 33.8682 0.0000 19.7929 0.0000
# 2 17.7222 71.7357 6.8938 0.0000 19.0048 0.0000
# 3 33.8682 6.8938 60.5886 0.0000 10.4984 0.0000
# 4 0.0000 0.0000 0.0000 24.8492 0.0000 1.0377
# 5 19.7929 19.0048 10.4984 0.0000 25.7563 0.0000
# 6 0.0000 0.0000 0.0000 1.0377 0.0000 21.9426
#
#
#
# Elastic Compliance Matrix: (Units=1/GPa)
#
#
# Indices 1 2 3 4 5 6 
#
# 1 0.008119 -0.000494 -0.003727 0.000000 -0.004356 0.000000
# 2 -0.000494 0.017361 0.000489 0.000000 -0.012630 0.000000
# 3 -0.003727 0.000489 0.019474 0.000000 -0.005434 0.000000
# 4 0.000000 0.000000 0.000000 0.040322 0.000000 -0.001907
# 5 -0.004356 -0.012630 -0.005434 0.000000 0.053707 0.000000
# 6 0.000000 0.000000 0.000000 -0.001907 0.000000 0.045664
#
#
# Mechanical properties :
#
#
# Convention : Reuss Voigt Hill
#
# Bulk Modulus (GPa) = 26.67361 44.41196 35.54279
# Shear Modulus (GPa) = 24.43692 29.45993 26.94843
#
# Velocity S-wave (km/s) = 3.55196 3.89996 3.73002
# Velocity P-wave (km/s) = 5.53110 6.57334 6.07461
#
# Compressibility (1/GPa) = 0.03749023
#
# Stress axis : x y z
#
# Youngs Moduli (GPa) = 123.16963 57.59998 51.34963
#
# Poissons Ratio (x) = 0.02843 0.19140
# Poissons Ratio (y) = 0.06080 -0.02511
# Poissons Ratio (z) = 0.45911 -0.02817
#
# Static dielectric constant tensor:
#      x y z
#    x 1.679030 0.000000 0.017880 
#    y 0.000000 1.675720 0.000000 
#    z 0.017880 0.000000 1.668410 
# 
# From -- ./inp_files/197928.got.cif
#   From: 2010.05.17/outbox.cif.g08.bks.cpg/sg15_99_cif.got.tgz:197928.got - 2010.06.03 18:47:42.
