data_PCOD9289103
_publ_section_title
;
Structure prediction by ZEFSAII (Michael W. Deem and Ramdas Pophale) SiO2 
 PCOD9289103
Probable space group: C 2/C
;
_chemical_formula_sum "Si O2"
_cell_formula_units_Z 32
_cell_length_a 9.759588
_cell_length_b 14.624537
_cell_length_c 13.404794
_cell_angle_alpha 90.000000
_cell_angle_beta 134.400534
_cell_angle_gamma 90.000000
_cell_volume 1366.958775
_symmetry_space_group_name_H-M "C 2/C"
_symmetry_group_IT_number 15
_symmetry_cell_setting 'monoclinic'
loop_
_space_group_symop_operation_xyz
x,y,z
-x,y,1/2-z
-x,-y,-z
x,-y,1/2+z
1/2+x,1/2+y,z
1/2-x,1/2+y,1/2-z
1/2-x,1/2-y,-z
1/2+x,1/2-y,1/2+z
loop_
_atom_site_type_symbol
_atom_site_label
_atom_site_fract_x
_atom_site_fract_y
_atom_site_fract_z
Si Si1 0.425782 0.903631 0.007262
Si Si2 0.818300 0.073097 0.297892
Si Si3 0.791789 0.096327 0.906823
Si Si4 0.122270 0.770715 0.530262
O O1 0.238018 0.895660 0.840130
O O2 0.367125 0.883846 0.091420
O O3 0.575784 0.825528 0.055839
O O4 0.500000 0.000000 0.000000
O O5 0.765294 0.157362 0.342983
O O6 0.041913 0.054768 0.434898
O O7 0.727866 0.979860 0.295019
O O8 0.913329 0.177485 0.916020
O O9 0.250000 0.750000 0.500000
#
# Coordination Sequence:
#
# PCOD9289103 Si02
#       4
#     8   8   8   8
#     4  12  24  38  66  98 123 165 215 254 311 376
#     4   9  22  43  65  87 131 163 205 261 312 369
#     4   9  21  45  63  89 127 168 207 254 315 372
#     4  10  22  40  60  89 124 162 207 255 311 366
#
# _framework density 23.409631000000001
#
# number of rings (size 3 to 8) (size 9 to 14) (size 15 to 20)
#    1.500    0.500    0.000    3.000    0.000    6.000 
#    0.000    0.000    0.000    0.000    0.000    0.000 
#    0.000    0.000    0.000    0.000    0.000    0.000 
#
# Total GULP energy -89103.414699 kJ/mol
# GULP energy per Si atom -5568.963419 kJ/mol
# Density = 2.335635 g / cm^3
# Si number density = 23.409631 Si / 1000 Ang^3
#
#
#
# Elastic Constant Matrix: (Units=GPa)
#
#
# Indices 1 2 3 4 5 6 
#
# 1 184.2571 75.4495 30.6767 0.0000 -50.5603 0.0000
# 2 75.4495 164.4414 8.5458 0.0000 -32.2382 0.0000
# 3 30.6767 8.5458 91.9122 0.0000 -25.7059 0.0000
# 4 0.0000 0.0000 0.0000 21.6042 0.0000 -8.7760
# 5 -50.5603 -32.2382 -25.7059 0.0000 42.9036 0.0000
# 6 0.0000 0.0000 0.0000 -8.7760 0.0000 29.6472
#
#
#
# Elastic Compliance Matrix: (Units=1/GPa)
#
#
# Indices 1 2 3 4 5 6 
#
# 1 0.008732 -0.002361 -0.000376 0.000000 0.008290 0.000000
# 2 -0.002361 0.007848 0.001117 0.000000 0.003783 0.000000
# 3 -0.000376 0.001117 0.013229 0.000000 0.008322 0.000000
# 4 0.000000 0.000000 0.000000 0.052614 0.000000 0.015575
# 5 0.008290 0.003783 0.008322 0.000000 0.040907 0.000000
# 6 0.000000 0.000000 0.000000 0.015575 0.000000 0.038340
#
#
# Mechanical properties :
#
#
# Convention : Reuss Voigt Hill
#
# Bulk Modulus (GPa) = 37.64043 74.43940 56.03992
# Shear Modulus (GPa) = 28.77400 40.56025 34.66712
#
# Velocity S-wave (km/s) = 3.50973 4.16700 3.85241
# Velocity P-wave (km/s) = 5.70423 7.41752 6.61656
#
# Compressibility (1/GPa) = 0.02656718
#
# Stress axis : x y z
#
# Youngs Moduli (GPa) = 114.52656 127.41444 75.59044
#
# Poissons Ratio (x) = 0.30089 0.02843
# Poissons Ratio (y) = 0.27045 -0.08440
# Poissons Ratio (z) = 0.04308 -0.14227
#
# Static dielectric constant tensor:
#      x y z
#    x 2.076160 0.000000 0.081050 
#    y 0.000000 1.881700 0.000000 
#    z 0.081050 0.000000 1.993330 
# 
# From -- ./inp_files/75677.got.cif
#   From: 2010.05.17/outbox.cif.g08.bks.cpg/sg15_38_cif.got.tgz:75677.got - 2010.06.03 18:47:42.
