data_PCOD9289536
_publ_section_title
;
Structure prediction by ZEFSAII (Michael W. Deem and Ramdas Pophale) SiO2 
 PCOD9289536
Probable space group: C 2/C
;
_chemical_formula_sum "Si O2"
_cell_formula_units_Z 48
_cell_length_a 14.433329
_cell_length_b 9.616522
_cell_length_c 13.872005
_cell_angle_alpha 90.000000
_cell_angle_beta 75.880291
_cell_angle_gamma 90.000000
_cell_volume 1867.242200
_symmetry_space_group_name_H-M "C 2/C"
_symmetry_group_IT_number 15
_symmetry_cell_setting 'monoclinic'
loop_
_space_group_symop_operation_xyz
x,y,z
-x,y,1/2-z
-x,-y,-z
x,-y,1/2+z
1/2+x,1/2+y,z
1/2-x,1/2+y,1/2-z
1/2-x,1/2-y,-z
1/2+x,1/2-y,1/2+z
loop_
_atom_site_type_symbol
_atom_site_label
_atom_site_fract_x
_atom_site_fract_y
_atom_site_fract_z
Si Si1 0.838356 0.753360 0.900461
Si Si2 0.010547 0.762959 0.498261
Si Si3 0.220057 0.050582 0.586529
Si Si4 0.645705 0.520323 0.403619
Si Si5 0.817397 0.535069 0.742573
Si Si6 0.918251 0.703772 0.331560
O O1 0.848992 0.917453 0.880090
O O2 0.824697 0.675115 0.803476
O O3 0.750000 0.750000 0.000000
O O4 0.928320 0.691059 0.934329
O O5 0.927416 0.854139 0.567862
O O6 0.964676 0.675911 0.423966
O O7 0.084846 0.878738 0.434852
O O8 0.224256 0.045052 0.469484
O O9 0.314865 0.039328 0.627467
O O10 0.168717 0.191811 0.629379
O O11 0.709100 0.512328 0.293795
O O12 0.887530 0.424391 0.772790
O O13 0.000000 0.781673 0.250000
#
# Coordination Sequence:
#
# PCOD9289536 Si02
#       6
#     8   8   8   8   8   8
#     4  11  22  42  67  97 128 174 215 271 329 388
#     4   9  19  38  64  86 129 171 219 257 324 393
#     4  10  22  40  65  96 126 177 220 259 321 401
#     4   9  19  39  63  94 122 175 222 263 312 393
#     4  12  23  39  68 100 134 170 216 280 332 382
#     4  11  25  40  62  97 134 174 219 276 329 383
#
# _framework density 25.706361000000001
#
# number of rings (size 3 to 8) (size 9 to 14) (size 15 to 20)
#    0.000    1.667    3.333    3.000    2.333    3.333 
#    0.000    4.167    0.000    0.000    0.000    0.000 
#    0.000    0.000    0.000    0.000    0.000    0.000 
#
# Total GULP energy -134226.439669 kJ/mol
# GULP energy per Si atom -5592.768320 kJ/mol
# Density = 2.564785 g / cm^3
# Si number density = 25.706361 Si / 1000 Ang^3
#
#
#
# Elastic Constant Matrix: (Units=GPa)
#
#
# Indices 1 2 3 4 5 6 
#
# 1 111.7377 19.4998 41.0665 0.0000 48.3381 0.0000
# 2 19.4998 83.8288 16.4919 0.0000 12.1824 0.0000
# 3 41.0665 16.4919 86.1198 0.0000 38.9469 0.0000
# 4 0.0000 0.0000 0.0000 15.8971 0.0000 11.0831
# 5 48.3381 12.1824 38.9469 0.0000 58.9347 0.0000
# 6 0.0000 0.0000 0.0000 11.0831 0.0000 25.8721
#
#
#
# Elastic Compliance Matrix: (Units=1/GPa)
#
#
# Indices 1 2 3 4 5 6 
#
# 1 0.014313 -0.001470 -0.001957 0.000000 -0.010142 0.000000
# 2 -0.001470 0.012631 -0.001544 0.000000 -0.000385 0.000000
# 3 -0.001957 -0.001544 0.017073 0.000000 -0.009358 0.000000
# 4 0.000000 0.000000 0.000000 0.089691 0.000000 -0.038422
# 5 -0.010142 -0.000385 -0.009358 0.000000 0.031551 0.000000
# 6 0.000000 0.000000 0.000000 -0.038422 0.000000 0.055111
#
#
# Mechanical properties :
#
#
# Convention : Reuss Voigt Hill
#
# Bulk Modulus (GPa) = 29.34737 48.42250 38.88494
# Shear Modulus (GPa) = 20.68942 33.78264 27.23603
#
# Velocity S-wave (km/s) = 2.84004 3.62909 3.25854
# Velocity P-wave (km/s) = 4.71122 6.03639 5.41450
#
# Compressibility (1/GPa) = 0.03407460
#
# Stress axis : x y z
#
# Youngs Moduli (GPa) = 69.86693 79.17210 58.57306
#
# Poissons Ratio (x) = 0.11642 0.11462
# Poissons Ratio (y) = 0.10274 0.09041
# Poissons Ratio (z) = 0.13672 0.12221
#
# Static dielectric constant tensor:
#      x y z
#    x 2.017610 0.000000 0.025870 
#    y 0.000000 2.033310 0.000000 
#    z 0.025870 0.000000 2.015890 
# 
# From -- ./inp_files/151953.got.cif
#   From: 2010.05.17/outbox.cif.g08.bks.cpg/sg15_76_cif.got.tgz:151953.got - 2010.06.03 18:47:42.
