data_PCOD9289603
_publ_section_title
;
Structure prediction by ZEFSAII (Michael W. Deem and Ramdas Pophale) SiO2 
 PCOD9289603
Probable space group: C 2/C
;
_chemical_formula_sum "Si O2"
_cell_formula_units_Z 48
_cell_length_a 10.997833
_cell_length_b 21.759726
_cell_length_c 14.290533
_cell_angle_alpha 90.000000
_cell_angle_beta 44.128803
_cell_angle_gamma 90.000000
_cell_volume 2381.162154
_symmetry_space_group_name_H-M "C 2/C"
_symmetry_group_IT_number 15
_symmetry_cell_setting 'monoclinic'
loop_
_space_group_symop_operation_xyz
x,y,z
-x,y,1/2-z
-x,-y,-z
x,-y,1/2+z
1/2+x,1/2+y,z
1/2-x,1/2+y,1/2-z
1/2-x,1/2-y,-z
1/2+x,1/2-y,1/2+z
loop_
_atom_site_type_symbol
_atom_site_label
_atom_site_fract_x
_atom_site_fract_y
_atom_site_fract_z
Si Si1 0.526929 0.946050 0.862467
Si Si2 0.599300 0.212976 0.531591
Si Si3 0.246256 0.881404 0.891305
Si Si4 0.521870 0.918625 0.395015
Si Si5 0.786844 0.264183 0.743429
Si Si6 0.084978 0.127970 0.801884
O O1 0.381802 0.901702 0.896973
O O2 0.711406 0.929368 0.714252
O O3 0.483566 0.017000 0.866725
O O4 0.530323 0.932162 0.969252
O O5 0.750000 0.250000 0.500000
O O6 0.579034 0.142924 0.578636
O O7 0.416483 0.246229 0.653868
O O8 0.636450 0.213799 0.398976
O O9 0.292331 0.815755 0.820530
O O10 0.054505 0.883225 0.039385
O O11 0.728705 0.903485 0.281626
O O12 0.881206 0.201227 0.720196
O O13 0.000000 0.108211 0.750000
#
# Coordination Sequence:
#
# PCOD9289603 Si02
#       6
#     8   8   8   8   8   8
#     4  10  22  40  66  90 124 172 214 258 315 382
#     4  11  23  43  66  90 132 167 214 261 327 385
#     4  11  22  41  65  96 127 163 219 263 320 379
#     4  10  22  43  64  90 130 171 212 259 318 388
#     4  11  23  39  64  99 125 165 213 271 319 378
#     4  11  23  38  66  98 131 162 209 271 329 376
#
# _framework density 20.158225000000002
#
# number of rings (size 3 to 8) (size 9 to 14) (size 15 to 20)
#    0.000    1.333    5.000    0.500    2.333    1.333 
#   12.000    1.667    3.667    0.000    0.000    0.000 
#    0.000    0.000    0.000    0.000    0.000    0.000 
#
# Total GULP energy -134042.240472 kJ/mol
# GULP energy per Si atom -5585.093353 kJ/mol
# Density = 2.011234 g / cm^3
# Si number density = 20.158225 Si / 1000 Ang^3
#
#
#
# Elastic Constant Matrix: (Units=GPa)
#
#
# Indices 1 2 3 4 5 6 
#
# 1 46.9400 22.3759 12.3204 -0.0001 -10.1552 0.0000
# 2 22.3759 120.5020 12.2593 0.0000 -15.0945 0.0000
# 3 12.3204 12.2593 139.0923 -0.0002 -8.9418 0.0001
# 4 -0.0001 0.0000 -0.0002 17.9324 0.0002 2.0466
# 5 -10.1552 -15.0945 -8.9418 0.0002 27.8163 -0.0001
# 6 0.0000 0.0000 0.0001 2.0466 -0.0001 20.6461
#
#
#
# Elastic Compliance Matrix: (Units=1/GPa)
#
#
# Indices 1 2 3 4 5 6 
#
# 1 0.024854 -0.003636 -0.001455 0.000000 0.006633 0.000000
# 2 -0.003636 0.009468 -0.000273 0.000000 0.003722 0.000000
# 3 -0.001455 -0.000273 0.007453 0.000000 0.001717 0.000000
# 4 0.000000 0.000000 0.000000 0.056403 0.000000 -0.005591
# 5 0.006633 0.003722 0.001717 0.000000 0.040943 0.000000
# 6 0.000000 0.000000 0.000000 -0.005591 0.000000 0.048990
#
#
# Mechanical properties :
#
#
# Convention : Reuss Voigt Hill
#
# Bulk Modulus (GPa) = 32.20954 44.49395 38.35175
# Shear Modulus (GPa) = 23.90199 30.58420 27.24309
#
# Velocity S-wave (km/s) = 3.44716 3.89936 3.68021
# Velocity P-wave (km/s) = 5.64420 6.51104 6.09305
#
# Compressibility (1/GPa) = 0.03104670
#
# Stress axis : x y z
#
# Youngs Moduli (GPa) = 40.23508 105.62003 134.17898
#
# Poissons Ratio (x) = 0.38406 0.19517
# Poissons Ratio (y) = 0.14631 0.03664
# Poissons Ratio (z) = 0.05853 0.02884
#
# Static dielectric constant tensor:
#      x y z
#    x 1.712720 0.000000 0.023150 
#    y 0.000000 1.732600 0.000000 
#    z 0.023150 0.000000 1.724440 
# 
# From -- ./inp_files/147344.got.cif
#   From: 2010.05.17/outbox.cif.g08.bks.cpg/sg15_74_cif.got.tgz:147344.got - 2010.06.03 18:47:42.
