data_PCOD9289716
_publ_section_title
;
Structure prediction by ZEFSAII (Michael W. Deem and Ramdas Pophale) SiO2 
 PCOD9289716
Probable space group: C 2/C
;
_chemical_formula_sum "Si O2"
_cell_formula_units_Z 60
_cell_length_a 7.398087
_cell_length_b 11.731813
_cell_length_c 31.377590
_cell_angle_alpha 90.000000
_cell_angle_beta 85.764834
_cell_angle_gamma 90.000000
_cell_volume 2715.917771
_symmetry_space_group_name_H-M "C 2/C"
_symmetry_group_IT_number 15
_symmetry_cell_setting 'monoclinic'
loop_
_space_group_symop_operation_xyz
x,y,z
-x,y,1/2-z
-x,-y,-z
x,-y,1/2+z
1/2+x,1/2+y,z
1/2-x,1/2+y,1/2-z
1/2-x,1/2-y,-z
1/2+x,1/2-y,1/2+z
loop_
_atom_site_type_symbol
_atom_site_label
_atom_site_fract_x
_atom_site_fract_y
_atom_site_fract_z
Si Si1 0.956202 0.232856 0.624451
Si Si2 0.444365 0.453022 0.060942
Si Si3 0.500000 0.228088 0.750000
Si Si4 0.024393 0.898593 0.827308
Si Si5 0.388320 0.784634 0.103203
Si Si6 0.598074 0.323491 0.979760
Si Si7 0.139655 0.883342 0.286964
Si Si8 0.719189 0.974688 0.887109
O O1 0.870532 0.127454 0.599459
O O2 0.923288 0.206793 0.675145
O O3 0.877425 0.353005 0.610487
O O4 0.168454 0.227901 0.608457
O O5 0.336655 0.564230 0.047526
O O6 0.639673 0.500567 0.076065
O O7 0.473801 0.374638 0.018956
O O8 0.517017 0.311635 0.789314
O O9 0.675132 0.154132 0.737713
O O10 0.049992 0.815108 0.866688
O O11 0.162226 0.996910 0.811356
O O12 0.844520 0.969291 0.842623
O O13 0.474693 0.758442 0.055891
O O14 0.412749 0.916933 0.114117
O O15 0.750000 0.250000 0.000000
O O16 0.000000 0.895278 0.250000
#
# Coordination Sequence:
#
# PCOD9289716 Si02
#       8
#     8   8   4   8   8   8   8   8
#     4  11  22  43  68  97 131 176 227 271 338 411
#     4  10  22  40  67  93 131 178 218 280 335 394
#     4  12  28  44  72 106 132 182 226 278 360 404
#     4  12  24  47  68  95 137 171 224 280 334 410
#     4  11  23  42  69  97 131 178 223 276 336 406
#     4  11  19  39  68  93 132 178 222 273 342 394
#     4  12  25  48  70  99 140 176 226 288 341 413
#     4  11  22  42  67  93 132 175 214 275 338 395
#
# _framework density 22.09198
#
# number of rings (size 3 to 8) (size 9 to 14) (size 15 to 20)
#    0.000    0.800    8.667    0.800    0.000    1.067 
#    6.000    5.333    0.000    0.000    0.000    0.000 
#    0.000    0.000    0.000    0.000    0.000    0.000 
#
# Total GULP energy -167465.400050 kJ/mol
# GULP energy per Si atom -5582.180002 kJ/mol
# Density = 2.204170 g / cm^3
# Si number density = 22.091980 Si / 1000 Ang^3
#
#
#
# Elastic Constant Matrix: (Units=GPa)
#
#
# Indices 1 2 3 4 5 6 
#
# 1 26.4769 34.6614 3.9006 0.0000 -5.3602 0.0000
# 2 34.6614 159.9204 48.2739 0.0000 15.2816 0.0000
# 3 3.9006 48.2739 130.0279 0.0000 10.0646 0.0000
# 4 0.0000 0.0000 0.0000 37.1605 0.0000 -0.5535
# 5 -5.3602 15.2816 10.0646 0.0000 17.7354 0.0000
# 6 0.0000 0.0000 0.0000 -0.5535 0.0000 42.3483
#
#
#
# Elastic Compliance Matrix: (Units=1/GPa)
#
#
# Indices 1 2 3 4 5 6 
#
# 1 0.070297 -0.019426 0.002263 0.000000 0.036701 0.000000
# 2 -0.019426 0.012823 -0.003000 0.000000 -0.015218 0.000000
# 3 0.002263 -0.003000 0.008873 0.000000 -0.001767 0.000000
# 4 0.000000 0.000000 0.000000 0.026916 0.000000 0.000352
# 5 0.036701 -0.015218 -0.001767 0.000000 0.081592 0.000000
# 6 0.000000 0.000000 0.000000 0.000352 0.000000 0.023618
#
#
# Mechanical properties :
#
#
# Convention : Reuss Voigt Hill
#
# Bulk Modulus (GPa) = 19.35507 54.45523 36.90515
# Shear Modulus (GPa) = 17.75135 34.75478 26.25307
#
# Velocity S-wave (km/s) = 2.83772 3.97064 3.45099
# Velocity P-wave (km/s) = 4.41781 6.76197 5.71144
#
# Compressibility (1/GPa) = 0.05166605
#
# Stress axis : x y z
#
# Youngs Moduli (GPa) = 14.22539 77.98232 112.69706
#
# Poissons Ratio (x) = 1.51491 -0.25499
# Poissons Ratio (y) = 0.27635 0.33811
# Poissons Ratio (z) = -0.03219 0.23396
#
# Static dielectric constant tensor:
#      x y z
#    x 1.848170 0.000000 0.029290 
#    y 0.000000 1.845560 0.000000 
#    z 0.029290 0.000000 1.839790 
# 
# From -- ./inp_files/307134.got.cif
#   From: 2010.05.17/outbox.cif.g08.bks.cpg/sg15_154_cif.got.tgz:307134.got - 2010.06.03 18:47:42.
