data_PCOD9289858
_publ_section_title
;
Structure prediction by ZEFSAII (Michael W. Deem and Ramdas Pophale) SiO2 
 PCOD9289858
Probable space group: C 2/C
;
_chemical_formula_sum "Si O2"
_cell_formula_units_Z 44
_cell_length_a 13.947010
_cell_length_b 11.093295
_cell_length_c 26.266175
_cell_angle_alpha 90.000000
_cell_angle_beta 32.856075
_cell_angle_gamma 90.000000
_cell_volume 2204.767267
_symmetry_space_group_name_H-M "C 2/C"
_symmetry_group_IT_number 15
_symmetry_cell_setting 'monoclinic'
loop_
_space_group_symop_operation_xyz
x,y,z
-x,y,1/2-z
-x,-y,-z
x,-y,1/2+z
1/2+x,1/2+y,z
1/2-x,1/2+y,1/2-z
1/2-x,1/2-y,-z
1/2+x,1/2-y,1/2+z
loop_
_atom_site_type_symbol
_atom_site_label
_atom_site_fract_x
_atom_site_fract_y
_atom_site_fract_z
Si Si1 0.957107 0.212487 0.614641
Si Si2 0.500000 0.162301 0.250000
Si Si3 0.297024 0.621728 0.339376
Si Si4 0.266297 0.362987 0.298125
Si Si5 0.698372 0.092947 0.066950
Si Si6 0.151351 0.638880 0.518383
O O1 0.823784 0.288332 0.639557
O O2 0.851833 0.135008 0.703638
O O3 0.099279 0.135940 0.519592
O O4 0.080029 0.305962 0.591205
O O5 0.362259 0.253683 0.284571
O O6 0.605728 0.082214 0.162614
O O7 0.500000 0.663037 0.250000
O O8 0.294240 0.489406 0.314656
O O9 0.220622 0.615401 0.430440
O O10 0.058207 0.339997 0.388816
O O11 0.688746 0.976465 0.036484
O O12 0.250000 0.750000 0.500000
#
# Coordination Sequence:
#
# PCOD9289858 Si02
#       6
#     8   4   8   8   8   8
#     4  10  22  40  68  99 128 169 217 271 321 389
#     4  10  22  42  68  94 128 176 220 274 330 394
#     4  12  23  41  68  98 132 172 215 272 329 388
#     4  11  22  40  66  99 131 168 223 264 329 393
#     4  10  22  42  67  94 130 170 221 267 323 389
#     4  12  26  44  64  98 136 170 220 274 329 389
#
# _framework density 19.956754
#
# number of rings (size 3 to 8) (size 9 to 14) (size 15 to 20)
#    0.000    1.091    2.727    3.818    5.091    0.000 
#    4.909    1.818    0.000    0.000    0.000    0.000 
#    0.000    0.000    0.000    0.000    0.000    0.000 
#
# Total GULP energy -123039.089801 kJ/mol
# GULP energy per Si atom -5592.685900 kJ/mol
# Density = 1.991133 g / cm^3
# Si number density = 19.956754 Si / 1000 Ang^3
#
#
#
# Elastic Constant Matrix: (Units=GPa)
#
#
# Indices 1 2 3 4 5 6 
#
# 1 94.3989 33.8654 85.4683 0.0000 3.4302 0.0000
# 2 33.8654 58.6158 60.6696 0.0000 15.0036 0.0000
# 3 85.4683 60.6696 209.9428 -0.0002 13.0679 -0.0001
# 4 0.0000 0.0000 -0.0002 -10.2213 0.0000 6.2160
# 5 3.4302 15.0036 13.0679 0.0000 57.9996 0.0000
# 6 0.0000 0.0000 -0.0001 6.2160 0.0000 23.2511
#
#
#
# Elastic Compliance Matrix: (Units=1/GPa)
#
#
# Indices 1 2 3 4 5 6 
#
# 1 0.017482 -0.004289 -0.005966 0.000000 0.001420 0.000000
# 2 -0.004289 0.026773 -0.005655 0.000000 -0.005398 0.000000
# 3 -0.005966 -0.005655 0.008837 0.000000 -0.000175 0.000000
# 4 0.000000 0.000000 0.000000 -0.084153 0.000000 0.022498
# 5 0.001420 -0.005398 -0.000175 0.000000 0.018593 0.000000
# 6 0.000000 0.000000 0.000000 0.022498 0.000000 0.036994
#
#
# Mechanical properties :
#
#
# Convention : Reuss Voigt Hill
#
# Bulk Modulus (GPa) = 47.00860 80.32934 63.66897
# Shear Modulus (GPa) = 78.81930 26.40281 52.61105
#
# Velocity S-wave (km/s) = 6.29133 3.64125 5.14002
# Velocity P-wave (km/s) = 8.73961 7.61692 8.19750
#
# Compressibility (1/GPa) = 0.02127271
#
# Stress axis : x y z
#
# Youngs Moduli (GPa) = 57.20237 37.35140 113.15989
#
# Poissons Ratio (x) = 0.16018 0.67511
# Poissons Ratio (y) = 0.24531 0.63992
# Poissons Ratio (z) = 0.34127 0.21122
#
# Static dielectric constant tensor:
#      x y z
#    x 1.694380 0.000000 0.011790 
#    y 0.000000 1.679560 0.000000 
#    z 0.011790 0.000000 1.693830 
# 
# From -- ./inp_files/295865.got.cif
#   From: 2010.05.17/outbox.cif.g08.bks.cpg/sg15_148_cif.got.tgz:295865.got - 2010.06.03 18:47:42.
