data_PCOD9289490
_publ_section_title
;
Structure prediction by ZEFSAII (Michael W. Deem and Ramdas Pophale) SiO2 
 PCOD9289490
Probable space group: C 2/C
;
_chemical_formula_sum "Si O2"
_cell_formula_units_Z 40
_cell_length_a 11.382245
_cell_length_b 22.462722
_cell_length_c 15.094715
_cell_angle_alpha 90.000000
_cell_angle_beta 150.955282
_cell_angle_gamma 90.000000
_cell_volume 1873.688495
_symmetry_space_group_name_H-M "C 2/C"
_symmetry_group_IT_number 15
_symmetry_cell_setting 'monoclinic'
loop_
_space_group_symop_operation_xyz
x,y,z
-x,y,1/2-z
-x,-y,-z
x,-y,1/2+z
1/2+x,1/2+y,z
1/2-x,1/2+y,1/2-z
1/2-x,1/2-y,-z
1/2+x,1/2-y,1/2+z
loop_
_atom_site_type_symbol
_atom_site_label
_atom_site_fract_x
_atom_site_fract_y
_atom_site_fract_z
Si Si1 0.206105 0.406984 0.443679
Si Si2 0.324566 0.793810 0.807317
Si Si3 0.000000 0.818906 0.750000
Si Si4 0.000000 0.481809 0.750000
Si Si5 0.671439 0.668491 0.779662
Si Si6 0.924206 0.896988 0.964168
O O1 0.297346 0.363777 0.578815
O O2 0.429221 0.419509 0.524551
O O3 0.000000 0.374409 0.250000
O O4 0.088807 0.471431 0.384441
O O5 0.392164 0.732231 0.805924
O O6 0.210562 0.837731 0.659600
O O7 0.121359 0.783499 0.749475
O O8 0.556753 0.824574 0.005086
O O9 0.778484 0.441882 0.635313
O O10 0.500000 0.656717 0.750000
O O11 0.612536 0.620230 0.665496
#
# Coordination Sequence:
#
# PCOD9289490 Si02
#       6
#     8   8   4   4   8   8
#     4   9  21  41  63  86 122 156 205 253 299 356
#     4  11  24  40  64  91 125 164 199 248 302 366
#     4  10  22  44  61  92 125 156 204 252 304 358
#     4  10  22  40  65  86 117 164 202 254 304 350
#     4  12  24  40  63  92 127 162 202 245 301 367
#     4  11  22  42  61  90 125 159 200 251 305 353
#
# _framework density 21.348264
#
# number of rings (size 3 to 8) (size 9 to 14) (size 15 to 20)
#    0.600    0.800    2.000    3.600    1.400    0.800 
#    7.200    2.000    0.000    0.000    0.000    0.000 
#    0.000    0.000    0.000    0.000    0.000    0.000 
#
# Total GULP energy -111703.229328 kJ/mol
# GULP energy per Si atom -5585.161466 kJ/mol
# Density = 2.129967 g / cm^3
# Si number density = 21.348264 Si / 1000 Ang^3
#
#
#
# Elastic Constant Matrix: (Units=GPa)
#
#
# Indices 1 2 3 4 5 6 
#
# 1 52.1099 -3.9039 -15.5389 -0.0001 -4.3909 0.0007
# 2 -3.9039 29.1509 -9.3767 0.0033 -6.7089 0.0000
# 3 -15.5389 -9.3767 92.6433 0.0000 -5.0712 -0.0019
# 4 -0.0001 0.0033 0.0000 -66.3980 -0.0033 -14.3454
# 5 -4.3909 -6.7089 -5.0712 -0.0033 29.5807 -0.0027
# 6 0.0007 0.0000 -0.0019 -14.3454 -0.0027 6.4795
#
#
#
# Elastic Compliance Matrix: (Units=1/GPa)
#
#
# Indices 1 2 3 4 5 6 
#
# 1 0.021353 0.005470 0.004418 0.000000 0.005168 0.000001
# 2 0.005470 0.039249 0.005473 0.000000 0.010652 0.000006
# 3 0.004418 0.005473 0.012308 -0.000001 0.004007 0.000003
# 4 0.000000 0.000000 -0.000001 -0.010188 -0.000003 -0.022555
# 5 0.005168 0.010652 0.004007 -0.000003 0.037676 0.000009
# 6 0.000001 0.000006 0.000003 -0.022555 0.000009 0.104397
#
#
# Mechanical properties :
#
#
# Convention : Reuss Voigt Hill
#
# Bulk Modulus (GPa) = 9.64955 12.91835 11.28395
# Shear Modulus (GPa) = 23.96734 7.44734 15.70734
#
# Velocity S-wave (km/s) = 3.35428 1.86978 2.71544
# Velocity P-wave (km/s) = 4.41944 3.27503 3.88956
#
# Compressibility (1/GPa) = 0.10363177
#
# Stress axis : x y z
#
# Youngs Moduli (GPa) = 46.83217 25.47853 81.24534
#
# Poissons Ratio (x) = -0.13937 -0.35894
# Poissons Ratio (y) = -0.25617 -0.44466
# Poissons Ratio (z) = -0.20690 -0.13944
#
# Static dielectric constant tensor:
#      x y z
#    x 1.750150 0.000000 -0.002720 
#    y 0.000000 1.759000 0.000000 
#    z -0.002720 0.000000 1.784600 
# 
# From -- ./inp_files/148187.got.cif
#   From: 2010.05.17/outbox.cif.g08.bks.cpg/sg15_75_cif.got.tgz:148187.got - 2010.06.03 18:47:42.
