data_PCOD9289922
_publ_section_title
;
Structure prediction by ZEFSAII (Michael W. Deem and Ramdas Pophale) SiO2 
 PCOD9289922
Probable space group: C 2/C
;
_chemical_formula_sum "Si O2"
_cell_formula_units_Z 60
_cell_length_a 26.113095
_cell_length_b 8.648903
_cell_length_c 23.791114
_cell_angle_alpha 90.000000
_cell_angle_beta 150.859117
_cell_angle_gamma 90.000000
_cell_volume 2616.533562
_symmetry_space_group_name_H-M "C 2/C"
_symmetry_group_IT_number 15
_symmetry_cell_setting 'monoclinic'
loop_
_space_group_symop_operation_xyz
x,y,z
-x,y,1/2-z
-x,-y,-z
x,-y,1/2+z
1/2+x,1/2+y,z
1/2-x,1/2+y,1/2-z
1/2-x,1/2-y,-z
1/2+x,1/2-y,1/2+z
loop_
_atom_site_type_symbol
_atom_site_label
_atom_site_fract_x
_atom_site_fract_y
_atom_site_fract_z
Si Si1 0.179578 0.546786 0.721134
Si Si2 0.989534 0.444036 0.127744
Si Si3 0.456621 0.305302 0.106202
Si Si4 0.184365 0.968324 0.960825
Si Si5 0.686663 0.557835 0.843192
Si Si6 0.185858 0.756806 0.623879
Si Si7 0.222621 0.252881 0.598461
Si Si8 0.000000 0.262605 0.250000
O O1 0.078491 0.550820 0.665052
O O2 0.154564 0.624112 0.637699
O O3 0.235201 0.380435 0.772949
O O4 0.265006 0.655019 0.833882
O O5 0.964231 0.621505 0.117526
O O6 0.023176 0.365318 0.218080
O O7 0.887928 0.343628 0.011831
O O8 0.371415 0.386511 0.063989
O O9 0.568011 0.379978 0.229643
O O10 0.415535 0.334319 0.003002
O O11 0.096962 0.848759 0.855428
O O12 0.235763 0.029547 0.952550
O O13 0.237585 0.867532 0.061007
O O14 0.751552 0.675310 0.867095
O O15 0.691284 0.388317 0.820146
#
# Coordination Sequence:
#
# PCOD9289922 Si02
#       8
#     8   8   8   8   8   8   8   4
#     4  12  27  50  74 102 148 194 245 315 360 432
#     4  11  26  45  73 105 149 187 239 301 368 431
#     4  12  25  47  72 110 145 188 246 300 369 437
#     4  11  23  44  72 109 156 187 240 298 364 446
#     4  12  24  46  74 106 153 191 234 308 364 441
#     4  12  28  48  71 108 142 197 255 297 373 436
#     4  11  25  47  73 110 144 193 248 289 373 445
#     4  10  22  40  70 106 146 192 230 288 368 440
#
# _framework density 22.931103
#
# number of rings (size 3 to 8) (size 9 to 14) (size 15 to 20)
#    0.000    0.533    5.333    2.000    3.733    3.200 
#    0.000    2.000    0.000    0.000    0.000    0.000 
#    0.000    0.000    0.000    0.000    0.000    0.000 
#
# Total GULP energy -167896.699823 kJ/mol
# GULP energy per Si atom -5596.556661 kJ/mol
# Density = 2.287891 g / cm^3
# Si number density = 22.931103 Si / 1000 Ang^3
#
#
#
# Elastic Constant Matrix: (Units=GPa)
#
#
# Indices 1 2 3 4 5 6 
#
# 1 98.0605 56.7933 22.4960 0.0000 -2.9543 0.0000
# 2 56.7933 122.7204 21.3938 0.0000 10.6210 0.0000
# 3 22.4960 21.3938 55.5175 0.0000 -3.0757 0.0000
# 4 0.0000 0.0000 0.0000 33.8868 0.0000 -13.0690
# 5 -2.9543 10.6210 -3.0757 0.0000 28.3547 0.0000
# 6 0.0000 0.0000 0.0000 -13.0690 0.0000 44.8636
#
#
#
# Elastic Compliance Matrix: (Units=1/GPa)
#
#
# Indices 1 2 3 4 5 6 
#
# 1 0.014911 -0.006649 -0.003276 0.000000 0.003689 0.000000
# 2 -0.006649 0.012095 -0.002270 0.000000 -0.005469 0.000000
# 3 -0.003276 -0.002270 0.020365 0.000000 0.002718 0.000000
# 4 0.000000 0.000000 0.000000 0.033245 0.000000 0.009684
# 5 0.003689 -0.005469 0.002718 0.000000 0.037995 0.000000
# 6 0.000000 0.000000 0.000000 0.009684 0.000000 0.025111
#
#
# Mechanical properties :
#
#
# Convention : Reuss Voigt Hill
#
# Bulk Modulus (GPa) = 43.51119 53.07383 48.29251
# Shear Modulus (GPa) = 28.44618 33.12871 30.78744
#
# Velocity S-wave (km/s) = 3.52590 3.80505 3.66813
# Velocity P-wave (km/s) = 5.96590 6.51918 6.24867
#
# Compressibility (1/GPa) = 0.02298259
#
# Stress axis : x y z
#
# Youngs Moduli (GPa) = 67.06382 82.68147 49.10445
#
# Poissons Ratio (x) = 0.54974 0.16084
# Poissons Ratio (y) = 0.44590 0.11144
# Poissons Ratio (z) = 0.21967 0.18765
#
# Static dielectric constant tensor:
#      x y z
#    x 1.853930 0.000000 0.001070 
#    y 0.000000 1.838330 0.000000 
#    z 0.001070 0.000000 1.904430 
# 
# From -- ./inp_files/283404.got.cif
#   From: 2010.05.17/outbox.cif.g08.bks.cpg/sg15_142_cif.got.tgz:283404.got - 2010.06.03 18:47:42.
