data_PCOD9289860
_publ_section_title
;
Structure prediction by ZEFSAII (Michael W. Deem and Ramdas Pophale) SiO2 
 PCOD9289860
Probable space group: C 2/C
;
_chemical_formula_sum "Si O2"
_cell_formula_units_Z 56
_cell_length_a 7.467901
_cell_length_b 25.483425
_cell_length_c 13.963869
_cell_angle_alpha 90.000000
_cell_angle_beta 116.345806
_cell_angle_gamma 90.000000
_cell_volume 2381.409402
_symmetry_space_group_name_H-M "C 2/C"
_symmetry_group_IT_number 15
_symmetry_cell_setting 'monoclinic'
loop_
_space_group_symop_operation_xyz
x,y,z
-x,y,1/2-z
-x,-y,-z
x,-y,1/2+z
1/2+x,1/2+y,z
1/2-x,1/2+y,1/2-z
1/2-x,1/2-y,-z
1/2+x,1/2-y,1/2+z
loop_
_atom_site_type_symbol
_atom_site_label
_atom_site_fract_x
_atom_site_fract_y
_atom_site_fract_z
Si Si1 0.389059 0.574616 0.631119
Si Si2 0.374023 0.777945 0.125459
Si Si3 0.777885 0.475545 0.963150
Si Si4 0.000000 0.742716 0.250000
Si Si5 0.526754 0.109404 0.871852
Si Si6 0.500000 0.414961 0.750000
Si Si7 0.553457 0.315247 0.423805
Si Si8 0.636818 0.679242 0.151918
O O1 0.500000 0.552880 0.750000
O O2 0.353169 0.527669 0.548916
O O3 0.501218 0.626311 0.621635
O O4 0.177817 0.595302 0.622079
O O5 0.500000 0.787798 0.250000
O O6 0.418504 0.831816 0.079786
O O7 0.143379 0.782690 0.096331
O O8 0.454030 0.720928 0.115456
O O9 0.674365 0.447886 0.845804
O O10 0.808825 0.431993 0.051743
O O11 0.000000 0.500000 0.000000
O O12 0.123934 0.781725 0.349597
O O13 0.828244 0.704698 0.248332
O O14 0.500000 0.104824 0.750000
O O15 0.414862 0.375524 0.811537
O O16 0.683878 0.322822 0.549478
#
# Coordination Sequence:
#
# PCOD9289860 Si02
#       8
#     8   8   8   4   8   4   8   8
#     4  11  21  42  66  94 134 175 232 299 356 411
#     4  11  20  42  66  98 137 183 223 276 342 419
#     4  10  24  45  71 100 137 184 232 302 363 410
#     4  12  24  43  62  98 150 183 228 282 350 416
#     4  10  22  40  69 100 135 183 237 282 350 430
#     4  12  24  49  72 102 142 181 242 294 354 430
#     4  12  24  40  68  99 136 182 234 286 345 416
#     4  12  26  43  69 105 141 187 230 284 350 423
#
# _framework density 23.515488000000001
#
# number of rings (size 3 to 8) (size 9 to 14) (size 15 to 20)
#    0.000    0.857    3.571    4.286    0.000    3.429 
#    5.143    2.143    0.000    0.000    0.000    0.000 
#    0.000    0.000    0.000    0.000    0.000    0.000 
#
# Total GULP energy -156235.983668 kJ/mol
# GULP energy per Si atom -5579.856560 kJ/mol
# Density = 2.346197 g / cm^3
# Si number density = 23.515488 Si / 1000 Ang^3
#
#
#
# Elastic Constant Matrix: (Units=GPa)
#
#
# Indices 1 2 3 4 5 6 
#
# 1 47.6497 24.6349 6.8195 0.0000 10.5419 0.0000
# 2 24.6349 130.0861 49.4445 0.0000 13.5647 0.0000
# 3 6.8195 49.4445 124.2660 0.0000 9.1632 0.0000
# 4 0.0000 0.0000 0.0000 45.6306 0.0000 11.9863
# 5 10.5419 13.5647 9.1632 0.0000 24.4882 0.0000
# 6 0.0000 0.0000 0.0000 11.9863 0.0000 25.3635
#
#
#
# Elastic Compliance Matrix: (Units=1/GPa)
#
#
# Indices 1 2 3 4 5 6 
#
# 1 0.024949 -0.004164 0.000935 0.000000 -0.008783 0.000000
# 2 -0.004164 0.010104 -0.003611 0.000000 -0.002453 0.000000
# 3 0.000935 -0.003611 0.009579 0.000000 -0.001987 0.000000
# 4 0.000000 0.000000 0.000000 0.025021 0.000000 -0.011824
# 5 -0.008783 -0.002453 -0.001987 0.000000 0.046719 0.000000
# 6 0.000000 0.000000 0.000000 -0.011824 0.000000 0.045015
#
#
# Mechanical properties :
#
#
# Convention : Reuss Voigt Hill
#
# Bulk Modulus (GPa) = 32.30752 51.53329 41.92041
# Shear Modulus (GPa) = 26.97096 33.83665 30.40381
#
# Velocity S-wave (km/s) = 3.39033 3.79741 3.59963
# Velocity P-wave (km/s) = 5.39393 6.41789 5.92806
#
# Compressibility (1/GPa) = 0.03095255
#
# Stress axis : x y z
#
# Youngs Moduli (GPa) = 40.08210 98.96961 104.39298
#
# Poissons Ratio (x) = 0.41214 -0.09766
# Poissons Ratio (y) = 0.16692 0.37696
# Poissons Ratio (z) = -0.03750 0.35737
#
# Static dielectric constant tensor:
#      x y z
#    x 1.998550 0.000000 -0.081710 
#    y 0.000000 1.898170 0.000000 
#    z -0.081710 0.000000 2.029240 
# 
# From -- ./inp_files/137993.got.cif
#   From: 2010.05.17/outbox.cif.g08.bks.cpg/sg15_69_cif.got.tgz:137993.got - 2010.06.03 18:47:42.
