data_PCOD9289096
_publ_section_title
;
Structure prediction by ZEFSAII (Michael W. Deem and Ramdas Pophale) SiO2 
 PCOD9289096
Probable space group: C 2/C
;
_chemical_formula_sum "Si O2"
_cell_formula_units_Z 36
_cell_length_a 27.151048
_cell_length_b 5.140261
_cell_length_c 12.745751
_cell_angle_alpha 90.000000
_cell_angle_beta 112.192852
_cell_angle_gamma 90.000000
_cell_volume 1647.060652
_symmetry_space_group_name_H-M "C 2/C"
_symmetry_group_IT_number 15
_symmetry_cell_setting 'monoclinic'
loop_
_space_group_symop_operation_xyz
x,y,z
-x,y,1/2-z
-x,-y,-z
x,-y,1/2+z
1/2+x,1/2+y,z
1/2-x,1/2+y,1/2-z
1/2-x,1/2-y,-z
1/2+x,1/2-y,1/2+z
loop_
_atom_site_type_symbol
_atom_site_label
_atom_site_fract_x
_atom_site_fract_y
_atom_site_fract_z
Si Si1 0.754701 0.803114 0.181834
Si Si2 0.399942 0.741442 0.065371
Si Si3 0.664969 0.234782 0.434457
Si Si4 0.500000 0.535463 0.750000
Si Si5 0.531996 0.751020 0.565381
O O1 0.740891 0.564105 0.246881
O O2 0.807283 0.739474 0.156484
O O3 0.708865 0.836394 0.057472
O O4 0.357410 0.519386 0.057120
O O5 0.454594 0.645371 0.162839
O O6 0.380361 0.017790 0.090832
O O7 0.412204 0.754746 0.950582
O O8 0.528988 0.714728 0.686925
O O9 0.500000 0.500000 0.500000
O O10 0.500000 0.000000 0.500000
#
# Coordination Sequence:
#
# PCOD9289096 Si02
#       5
#     8   8   8   4   8
#     4  11  24  45  70  96 129 169 210 267 336 393
#     4  11  23  41  65  96 133 173 216 267 316 378
#     4  11  25  43  66 100 132 162 218 274 318 386
#     4  10  24  42  66  94 134 180 218 258 320 378
#     4  10  22  40  60  88 127 170 218 266 307 364
#
# _framework density 21.857118
#
# number of rings (size 3 to 8) (size 9 to 14) (size 15 to 20)
#    0.000    1.333    0.000    5.333    0.000   16.889 
#    0.000    2.222    0.000    0.000    0.000    0.000 
#    0.000    0.000    0.000    0.000    0.000    0.000 
#
# Total GULP energy -100724.954243 kJ/mol
# GULP energy per Si atom -5595.830791 kJ/mol
# Density = 2.180737 g / cm^3
# Si number density = 21.857118 Si / 1000 Ang^3
#
#
#
# Elastic Constant Matrix: (Units=GPa)
#
#
# Indices 1 2 3 4 5 6 
#
# 1 94.3133 10.3191 45.5865 0.0000 -38.2416 0.0000
# 2 10.3191 122.4290 27.3326 0.0000 -20.1581 0.0000
# 3 45.5865 27.3326 94.5109 0.0000 -26.7562 0.0000
# 4 0.0000 0.0000 0.0000 91.5014 0.0000 -62.3074
# 5 -38.2416 -20.1581 -26.7562 0.0000 41.5693 0.0000
# 6 0.0000 0.0000 0.0000 -62.3074 0.0000 112.9420
#
#
#
# Elastic Compliance Matrix: (Units=1/GPa)
#
#
# Indices 1 2 3 4 5 6 
#
# 1 0.019192 0.002115 -0.005600 0.000000 0.015076 0.000000
# 2 0.002115 0.009325 -0.002306 0.000000 0.004983 0.000000
# 3 -0.005600 -0.002306 0.014887 0.000000 0.003311 0.000000
# 4 0.000000 0.000000 0.000000 0.017505 0.000000 0.009657
# 5 0.015076 0.004983 0.003311 0.000000 0.042473 0.000000
# 6 0.000000 0.000000 0.000000 0.009657 0.000000 0.014182
#
#
# Mechanical properties :
#
#
# Convention : Reuss Voigt Hill
#
# Bulk Modulus (GPa) = 31.42692 53.08105 42.25398
# Shear Modulus (GPa) = 35.77754 64.40352 50.09053
#
# Velocity S-wave (km/s) = 4.05023 5.43412 4.79239
# Velocity P-wave (km/s) = 6.02346 7.98192 7.07082
#
# Compressibility (1/GPa) = 0.03181985
#
# Stress axis : x y z
#
# Youngs Moduli (GPa) = 52.10634 107.23731 67.17494
#
# Poissons Ratio (x) = -0.22681 0.37621
# Poissons Ratio (y) = -0.11021 0.15492
# Poissons Ratio (z) = 0.29182 0.24731
#
# Static dielectric constant tensor:
#      x y z
#    x 1.806920 0.000000 -0.011960 
#    y 0.000000 1.725190 0.000000 
#    z -0.011960 0.000000 1.839770 
# 
# From -- ./inp_files/120932.got.cif
#   From: 2010.05.17/outbox.cif.g08.bks.cpg/sg15_61_cif.got.tgz:120932.got - 2010.06.03 18:47:42.
