data_PCOD9289091
_publ_section_title
;
Structure prediction by ZEFSAII (Michael W. Deem and Ramdas Pophale) SiO2 
 PCOD9289091
Probable space group: C 2/C
;
_chemical_formula_sum "Si O2"
_cell_formula_units_Z 60
_cell_length_a 27.039145
_cell_length_b 7.997706
_cell_length_c 12.541975
_cell_angle_alpha 90.000000
_cell_angle_beta 85.010769
_cell_angle_gamma 90.000000
_cell_volume 2701.939874
_symmetry_space_group_name_H-M "C 2/C"
_symmetry_group_IT_number 15
_symmetry_cell_setting 'monoclinic'
loop_
_space_group_symop_operation_xyz
x,y,z
-x,y,1/2-z
-x,-y,-z
x,-y,1/2+z
1/2+x,1/2+y,z
1/2-x,1/2+y,1/2-z
1/2-x,1/2-y,-z
1/2+x,1/2-y,1/2+z
loop_
_atom_site_type_symbol
_atom_site_label
_atom_site_fract_x
_atom_site_fract_y
_atom_site_fract_z
Si Si1 0.906973 0.277582 0.951986
Si Si2 0.022315 0.099786 0.398979
Si Si3 0.189582 0.779663 0.327874
Si Si4 0.270194 0.095498 0.645872
Si Si5 0.551315 0.022516 0.425949
Si Si6 0.310141 0.589874 0.024964
Si Si7 0.500000 0.844016 0.250000
Si Si8 0.578232 0.686247 0.780850
O O1 0.934944 0.253946 0.834770
O O2 0.937827 0.211382 0.046739
O O3 0.905488 0.466284 0.998280
O O4 0.857896 0.167110 0.957565
O O5 0.983013 0.218044 0.346735
O O6 0.052417 0.989674 0.308355
O O7 0.000000 0.000000 0.500000
O O8 0.234736 0.860096 0.251806
O O9 0.201517 0.582043 0.343868
O O10 0.137639 0.800484 0.276216
O O11 0.183136 0.904731 0.429260
O O12 0.300997 0.265928 0.616510
O O13 0.235558 0.079390 0.547889
O O14 0.541413 0.944612 0.307722
O O15 0.500000 0.000000 0.500000
O O16 0.560527 0.209170 0.386347
#
# Coordination Sequence:
#
# PCOD9289091 Si02
#       8
#     8   8   8   8   8   8   4   8
#     4  11  23  41  65  95 132 173 218 281 334 398
#     4  11  23  40  64  91 126 170 219 266 328 395
#     4  12  23  43  69 102 134 180 231 276 345 419
#     4  11  24  42  70  99 134 183 222 278 350 410
#     4  11  24  42  64  95 133 174 225 277 339 404
#     4  11  23  45  67  97 143 173 227 285 339 415
#     4  10  22  40  60  88 122 166 212 260 328 392
#     4  12  24  41  67  97 131 173 225 281 336 400
#
# _framework density 22.206267
#
# number of rings (size 3 to 8) (size 9 to 14) (size 15 to 20)
#    0.000    0.800    4.000    4.400    0.000    1.600 
#    0.000    0.000    0.000    0.000    0.000    0.000 
#    0.000    0.000    0.000    0.000    0.000    0.000 
#
# Total GULP energy -167123.136422 kJ/mol
# GULP energy per Si atom -5570.771214 kJ/mol
# Density = 2.215572 g / cm^3
# Si number density = 22.206267 Si / 1000 Ang^3
#
#
#
# Elastic Constant Matrix: (Units=GPa)
#
#
# Indices 1 2 3 4 5 6 
#
# 1 50.1132 11.1416 19.0948 0.0000 -4.5888 0.0000
# 2 11.1416 89.0490 40.7563 0.0000 -0.1466 0.0000
# 3 19.0948 40.7563 94.6290 0.0000 -5.6656 0.0000
# 4 0.0000 0.0000 0.0000 2.9829 0.0000 -16.8533
# 5 -4.5888 -0.1466 -5.6656 0.0000 36.3861 0.0000
# 6 0.0000 0.0000 0.0000 -16.8533 0.0000 27.0577
#
#
#
# Elastic Compliance Matrix: (Units=1/GPa)
#
#
# Indices 1 2 3 4 5 6 
#
# 1 0.021837 -0.000960 -0.003864 0.000000 0.002148 0.000000
# 2 -0.000960 0.014058 -0.005920 0.000000 -0.000986 0.000000
# 3 -0.003864 -0.005920 0.013997 0.000000 0.001668 0.000000
# 4 0.000000 0.000000 0.000000 -0.133078 0.000000 -0.082889
# 5 0.002148 -0.000986 0.001668 0.000000 0.028010 0.000000
# 6 0.000000 0.000000 0.000000 -0.082889 0.000000 -0.014671
#
#
# Mechanical properties :
#
#
# Convention : Reuss Voigt Hill
#
# Bulk Modulus (GPa) = 35.20705 41.75295 38.48000
# Shear Modulus (GPa) = -128.56668 24.13856 -52.21406
#
# Velocity S-wave (km/s) = -7.61723 3.30057 -4.85430
# Velocity P-wave (km/s) = 7.84054 5.77652 3.74873
#
# Compressibility (1/GPa) = 0.02840340
#
# Stress axis : x y z
#
# Youngs Moduli (GPa) = 45.79290 71.13532 71.44426
#
# Poissons Ratio (x) = 0.06829 0.27609
# Poissons Ratio (y) = 0.04396 0.42294
# Poissons Ratio (z) = 0.17696 0.42111
#
# Static dielectric constant tensor:
#      x y z
#    x 1.908910 0.000000 -0.128410 
#    y 0.000000 1.546530 0.000000 
#    z -0.128410 0.000000 2.180180 
# 
# From -- ./inp_files/125591.got.cif
#   From: 2010.05.17/outbox.cif.g08.bks.cpg/sg15_63_cif.got.tgz:125591.got - 2010.06.03 18:47:42.
