data_PCOD9289220
_publ_section_title
;
Structure prediction by ZEFSAII (Michael W. Deem and Ramdas Pophale) SiO2 
 PCOD9289220
Probable space group: C 2/C
;
_chemical_formula_sum "Si O2"
_cell_formula_units_Z 36
_cell_length_a 13.009703
_cell_length_b 27.418121
_cell_length_c 4.793562
_cell_angle_alpha 90.000000
_cell_angle_beta 110.966929
_cell_angle_gamma 90.000000
_cell_volume 1596.655786
_symmetry_space_group_name_H-M "C 2/C"
_symmetry_group_IT_number 15
_symmetry_cell_setting 'monoclinic'
loop_
_space_group_symop_operation_xyz
x,y,z
-x,y,1/2-z
-x,-y,-z
x,-y,1/2+z
1/2+x,1/2+y,z
1/2-x,1/2+y,1/2-z
1/2-x,1/2-y,-z
1/2+x,1/2-y,1/2+z
loop_
_atom_site_type_symbol
_atom_site_label
_atom_site_fract_x
_atom_site_fract_y
_atom_site_fract_z
Si Si1 0.000000 0.082444 0.250000
Si Si2 0.000000 0.689147 0.250000
Si Si3 0.344442 0.662772 0.838463
Si Si4 0.708808 0.863009 0.699875
Si Si5 0.500000 0.743376 0.250000
Si Si6 0.197270 0.033016 0.133936
O O1 0.923373 0.117414 0.989421
O O2 0.922038 0.051516 0.377318
O O3 0.095113 0.656909 0.204168
O O4 0.044877 0.723530 0.542183
O O5 0.235513 0.653571 0.914436
O O6 0.408304 0.709966 0.010086
O O7 0.307759 0.660258 0.483678
O O8 0.723310 0.921190 0.734508
O O9 0.212720 0.984626 0.334604
#
# Coordination Sequence:
#
# PCOD9289220 Si02
#       6
#     4   4   8   8   4   8
#     4   9  20  36  60  93 126 155 184 240 306 367
#     4  12  26  42  62  86 118 160 216 250 284 340
#     4  10  22  40  62  90 128 155 187 239 309 361
#     4  11  24  42  60  86 124 162 195 252 300 338
#     4  11  24  40  66  97 116 155 200 240 296 375
#     4  11  22  37  60  90 120 156 200 241 296 364
#
# _framework density 22.547124
#
# number of rings (size 3 to 8) (size 9 to 14) (size 15 to 20)
#    0.000    1.333    0.000    6.000    0.000   16.000 
#    0.000    1.111    0.000    0.000    0.000    0.000 
#    0.000    0.000    0.000    0.000    0.000    0.000 
#
# Total GULP energy -100797.903182 kJ/mol
# GULP energy per Si atom -5599.883510 kJ/mol
# Density = 2.249581 g / cm^3
# Si number density = 22.547124 Si / 1000 Ang^3
#
#
#
# Elastic Constant Matrix: (Units=GPa)
#
#
# Indices 1 2 3 4 5 6 
#
# 1 55.7530 45.1161 -20.8169 0.0000 -6.7561 0.0000
# 2 45.1161 118.1370 9.0756 0.0000 3.2150 0.0000
# 3 -20.8169 9.0756 60.4448 0.0000 -9.6282 0.0000
# 4 0.0000 0.0000 0.0000 -42.1205 0.0000 -67.1147
# 5 -6.7561 3.2150 -9.6282 0.0000 30.3547 0.0000
# 6 0.0000 0.0000 0.0000 -67.1147 0.0000 -10.2971
#
#
#
# Elastic Compliance Matrix: (Units=1/GPa)
#
#
# Indices 1 2 3 4 5 6 
#
# 1 0.042324 -0.018192 0.020132 0.000000 0.017733 0.000000
# 2 -0.018192 0.016439 -0.010170 0.000000 -0.009016 0.000000
# 3 0.020132 -0.010170 0.027267 0.000000 0.014207 0.000000
# 4 0.000000 0.000000 0.000000 0.002530 0.000000 -0.016487
# 5 0.017733 -0.009016 0.014207 0.000000 0.042352 0.000000
# 6 0.000000 0.000000 0.000000 -0.016487 0.000000 0.010347
#
#
# Mechanical properties :
#
#
# Convention : Reuss Voigt Hill
#
# Bulk Modulus (GPa) = 14.37402 33.45383 23.91393
# Shear Modulus (GPa) = 27.63821 8.98475 18.31148
#
# Velocity S-wave (km/s) = 3.50494 1.99838 2.85290
# Velocity P-wave (km/s) = 4.77162 4.49380 4.63479
#
# Compressibility (1/GPa) = 0.06956998
#
# Stress axis : x y z
#
# Youngs Moduli (GPa) = 23.62750 60.83087 36.67373
#
# Poissons Ratio (x) = 1.10666 -0.73832
# Poissons Ratio (y) = 0.42984 0.37297
# Poissons Ratio (z) = -0.47567 0.61864
#
# Static dielectric constant tensor:
#      x y z
#    x 1.798550 0.000000 0.019220 
#    y 0.000000 1.833480 0.000000 
#    z 0.019220 0.000000 1.828050 
# 
# From -- ./inp_files/5148.got.cif
#   From: 2010.05.17/outbox.cif.g08.bks.cpg/sg15_3_cif.got.tgz:5148.got - 2010.06.03 18:47:42.
