data_PCOD9289964
_publ_section_title
;
Structure prediction by ZEFSAII (Michael W. Deem and Ramdas Pophale) SiO2 
 PCOD9289964
Probable space group: C 2/C
;
_chemical_formula_sum "Si O2"
_cell_formula_units_Z 36
_cell_length_a 14.641857
_cell_length_b 5.846509
_cell_length_c 21.109390
_cell_angle_alpha 90.000000
_cell_angle_beta 130.147036
_cell_angle_gamma 90.000000
_cell_volume 1381.289802
_symmetry_space_group_name_H-M "C 2/C"
_symmetry_group_IT_number 15
_symmetry_cell_setting 'monoclinic'
loop_
_space_group_symop_operation_xyz
x,y,z
-x,y,1/2-z
-x,-y,-z
x,-y,1/2+z
1/2+x,1/2+y,z
1/2-x,1/2+y,1/2-z
1/2-x,1/2-y,-z
1/2+x,1/2-y,1/2+z
loop_
_atom_site_type_symbol
_atom_site_label
_atom_site_fract_x
_atom_site_fract_y
_atom_site_fract_z
Si Si1 0.685387 0.752008 0.229088
Si Si2 0.658744 0.547639 0.091264
Si Si3 0.500000 0.411589 0.750000
Si Si4 0.141629 0.724151 0.399656
Si Si5 0.516450 0.171957 0.063683
O O1 0.760900 0.509218 0.255438
O O2 0.625365 0.719887 0.132502
O O3 0.591074 0.717261 0.243544
O O4 0.791068 0.584099 0.124515
O O5 0.643435 0.292090 0.110950
O O6 0.570886 0.611121 0.993852
O O7 0.417854 0.564297 0.664800
O O8 0.250000 0.750000 0.500000
O O9 0.033917 0.608841 0.390625
O O10 0.500000 0.000000 0.000000
#
# Coordination Sequence:
#
# PCOD9289964 Si02
#       5
#     8   8   4   8   8
#     4  12  28  48  75 112 155 201 260 319 385 466
#     4  10  22  43  65 101 144 187 249 310 376 451
#     4  12  24  48  78 108 154 204 258 316 400 456
#     4  10  22  43  69 101 147 189 250 309 380 456
#     4  10  22  40  71 100 142 194 246 309 385 453
#
# _framework density 26.062598000000001
#
# number of rings (size 3 to 8) (size 9 to 14) (size 15 to 20)
#    0.000    1.333    4.444    0.000    3.111    1.778 
#    4.000    0.000    0.000    0.000    0.000    0.000 
#    0.000    0.000    0.000    0.000    0.000    0.000 
#
# Total GULP energy -100320.777267 kJ/mol
# GULP energy per Si atom -5573.376515 kJ/mol
# Density = 2.600328 g / cm^3
# Si number density = 26.062598 Si / 1000 Ang^3
#
#
#
# Elastic Constant Matrix: (Units=GPa)
#
#
# Indices 1 2 3 4 5 6 
#
# 1 298.6138 84.9369 28.3076 0.0000 -32.8962 0.0000
# 2 84.9369 140.4196 74.8535 0.0000 4.2318 0.0000
# 3 28.3076 74.8535 125.5216 0.0000 -10.2453 0.0000
# 4 0.0000 0.0000 0.0000 85.3806 0.0000 3.4144
# 5 -32.8962 4.2318 -10.2453 0.0000 44.2598 0.0000
# 6 0.0000 0.0000 0.0000 3.4144 0.0000 43.0204
#
#
#
# Elastic Compliance Matrix: (Units=1/GPa)
#
#
# Indices 1 2 3 4 5 6 
#
# 1 0.004765 -0.003847 0.001568 0.000000 0.004272 0.000000
# 2 -0.003847 0.013822 -0.007865 0.000000 -0.006001 0.000000
# 3 0.001568 -0.007865 0.012700 0.000000 0.004857 0.000000
# 4 0.000000 0.000000 0.000000 0.011750 0.000000 -0.000933
# 5 0.004272 -0.006001 0.004857 0.000000 0.027468 0.000000
# 6 0.000000 0.000000 0.000000 -0.000933 0.000000 0.023319
#
#
# Mechanical properties :
#
#
# Convention : Reuss Voigt Hill
#
# Bulk Modulus (GPa) = 90.91397 104.52790 97.72094
# Shear Modulus (GPa) = 42.45347 59.62930 51.04139
#
# Velocity S-wave (km/s) = 4.04035 4.78842 4.43020
# Velocity P-wave (km/s) = 7.53157 8.41222 7.98405
#
# Compressibility (1/GPa) = 0.01099941
#
# Stress axis : x y z
#
# Youngs Moduli (GPa) = 209.86150 72.34930 78.74246
#
# Poissons Ratio (x) = 0.27833 -0.12349
# Poissons Ratio (y) = 0.80734 0.61929
# Poissons Ratio (z) = -0.32911 0.56901
#
# Static dielectric constant tensor:
#      x y z
#    x 2.123030 0.000000 0.152900 
#    y 0.000000 2.280810 0.000000 
#    z 0.152900 0.000000 2.518540 
# 
# From -- ./inp_files/271783.got.cif
#   From: 2010.05.17/outbox.cif.g08.bks.cpg/sg15_136_cif.got.tgz:271783.got - 2010.06.03 18:47:42.
