data_PCOD9289125
_publ_section_title
;
Structure prediction by ZEFSAII (Michael W. Deem and Ramdas Pophale) SiO2 
 PCOD9289125
Probable space group: C 2/C
;
_chemical_formula_sum "Si O2"
_cell_formula_units_Z 28
_cell_length_a 17.944879
_cell_length_b 13.825132
_cell_length_c 11.791680
_cell_angle_alpha 90.000000
_cell_angle_beta 151.566485
_cell_angle_gamma 90.000000
_cell_volume 1392.896879
_symmetry_space_group_name_H-M "C 2/C"
_symmetry_group_IT_number 15
_symmetry_cell_setting 'monoclinic'
loop_
_space_group_symop_operation_xyz
x,y,z
-x,y,1/2-z
-x,-y,-z
x,-y,1/2+z
1/2+x,1/2+y,z
1/2-x,1/2+y,1/2-z
1/2-x,1/2-y,-z
1/2+x,1/2-y,1/2+z
loop_
_atom_site_type_symbol
_atom_site_label
_atom_site_fract_x
_atom_site_fract_y
_atom_site_fract_z
Si Si1 0.757657 0.212668 0.138837
Si Si2 0.865933 0.624799 0.152930
Si Si3 0.000000 0.558595 0.750000
Si Si4 0.617722 0.701258 0.661695
O O1 0.701118 0.294394 0.151544
O O2 0.934416 0.183126 0.403781
O O3 0.750000 0.250000 0.000000
O O4 0.633909 0.125698 0.980096
O O5 0.923726 0.514894 0.239463
O O6 0.857977 0.691613 0.251382
O O7 0.000000 0.670854 0.250000
O O8 0.706620 0.631365 0.867902
#
# Coordination Sequence:
#
# PCOD9289125 Si02
#       4
#     8   8   4   8
#     4  12  22  38  63  92 125 168 196 248 313 369
#     4   9  21  41  62  92 116 158 207 259 295 348
#     4  10  22  40  60  96 126 152 210 254 304 350
#     4  11  21  41  67  86 124 165 204 244 314 368
#
# _framework density 20.101991999999999
#
# number of rings (size 3 to 8) (size 9 to 14) (size 15 to 20)
#    0.857    0.571    5.714    0.000    0.000    2.286 
#    5.143    0.000    6.286    0.000    0.000    0.000 
#    0.000    0.000    0.000    0.000    0.000    0.000 
#
# Total GULP energy -78076.547117 kJ/mol
# GULP energy per Si atom -5576.896223 kJ/mol
# Density = 2.005624 g / cm^3
# Si number density = 20.101992 Si / 1000 Ang^3
#
#
#
# Elastic Constant Matrix: (Units=GPa)
#
#
# Indices 1 2 3 4 5 6 
#
# 1 72.8378 6.7084 36.6472 0.0000 -8.2756 0.0000
# 2 6.7084 63.5659 35.8029 0.0000 -6.1315 0.0000
# 3 36.6472 35.8029 195.9760 0.0000 21.0170 0.0000
# 4 0.0000 0.0000 0.0000 22.1427 0.0000 10.1277
# 5 -8.2756 -6.1315 21.0170 0.0000 33.5413 0.0000
# 6 0.0000 0.0000 0.0000 10.1277 0.0000 22.0206
#
#
#
# Elastic Compliance Matrix: (Units=1/GPa)
#
#
# Indices 1 2 3 4 5 6 
#
# 1 0.016408 0.001181 -0.004011 0.000000 0.006778 0.000000
# 2 0.001181 0.018656 -0.004316 0.000000 0.006406 0.000000
# 3 -0.004011 -0.004316 0.007324 0.000000 -0.006368 0.000000
# 4 0.000000 0.000000 0.000000 0.057193 0.000000 -0.026304
# 5 0.006778 0.006406 -0.006368 0.000000 0.036648 0.000000
# 6 0.000000 0.000000 0.000000 -0.026304 0.000000 0.057510
#
#
# Mechanical properties :
#
#
# Convention : Reuss Voigt Hill
#
# Bulk Modulus (GPa) = 35.59132 54.52189 45.05660
# Shear Modulus (GPa) = 22.99949 32.42234 27.71091
#
# Velocity S-wave (km/s) = 3.38618 4.02044 3.71686
# Velocity P-wave (km/s) = 5.74736 6.98093 6.39396
#
# Compressibility (1/GPa) = 0.02809674
#
# Stress axis : x y z
#
# Youngs Moduli (GPa) = 60.94414 53.60195 136.53431
#
# Poissons Ratio (x) = -0.06332 0.54764
# Poissons Ratio (y) = -0.07199 0.58931
# Poissons Ratio (z) = 0.24445 0.23136
#
# Static dielectric constant tensor:
#      x y z
#    x 1.752080 0.000000 -0.009380 
#    y 0.000000 1.701170 0.000000 
#    z -0.009380 0.000000 1.709760 
# 
# From -- ./inp_files/27425.got.cif
#   From: 2010.05.17/outbox.cif.g08.bks.cpg/sg15_14_cif.got.tgz:27425.got - 2010.06.03 18:47:42.
