data_PCOD9289625
_publ_section_title
;
Structure prediction by ZEFSAII (Michael W. Deem and Ramdas Pophale) SiO2 
 PCOD9289625
Probable space group: C 2/C
;
_chemical_formula_sum "Si O2"
_cell_formula_units_Z 64
_cell_length_a 24.937486
_cell_length_b 16.290629
_cell_length_c 14.348576
_cell_angle_alpha 90.000000
_cell_angle_beta 27.940931
_cell_angle_gamma 90.000000
_cell_volume 2731.275442
_symmetry_space_group_name_H-M "C 2/C"
_symmetry_group_IT_number 15
_symmetry_cell_setting 'monoclinic'
loop_
_space_group_symop_operation_xyz
x,y,z
-x,y,1/2-z
-x,-y,-z
x,-y,1/2+z
1/2+x,1/2+y,z
1/2-x,1/2+y,1/2-z
1/2-x,1/2-y,-z
1/2+x,1/2-y,1/2+z
loop_
_atom_site_type_symbol
_atom_site_label
_atom_site_fract_x
_atom_site_fract_y
_atom_site_fract_z
Si Si1 0.286236 0.498966 0.637689
Si Si2 0.510034 0.429965 0.562556
Si Si3 0.113931 0.386458 0.018353
Si Si4 0.708478 0.313420 0.196107
Si Si5 0.064067 0.671129 0.392061
Si Si6 0.300571 0.948882 0.914515
Si Si7 0.815255 0.679566 0.727746
Si Si8 0.747590 0.634345 0.030015
O O1 0.412103 0.526739 0.477363
O O2 0.289216 0.451754 0.534319
O O3 0.213358 0.582172 0.738575
O O4 0.209947 0.447844 0.828017
O O5 0.500000 0.500000 0.500000
O O6 0.589581 0.356436 0.406047
O O7 0.386151 0.390110 0.768942
O O8 0.000000 0.414353 0.250000
O O9 0.064626 0.340639 0.002450
O O10 0.192631 0.333114 0.967631
O O11 0.669951 0.230237 0.205076
O O12 0.768283 0.288792 0.201261
O O13 0.771359 0.384758 0.040980
O O14 0.085883 0.583558 0.310039
O O15 0.947048 0.703855 0.531381
O O16 0.305046 0.042565 0.939118
O O17 0.776412 0.686293 0.894962
#
# Coordination Sequence:
#
# PCOD9289625 Si02
#       8
#     8   8   8   8   8   8   8   8
#     4   9  21  37  64 100 127 161 213 276 322 369
#     4  11  20  41  66  95 129 162 219 270 317 370
#     4  11  21  37  63  94 130 163 211 264 320 389
#     4  11  24  45  62  90 132 172 215 258 320 392
#     4  11  25  43  62  93 132 172 213 259 320 403
#     4  10  22  40  66  93 129 163 214 274 317 378
#     4  10  23  42  61  94 127 167 214 260 327 381
#     4  11  21  40  68 100 123 164 215 274 328 364
#
# _framework density 23.432275000000001
#
# number of rings (size 3 to 8) (size 9 to 14) (size 15 to 20)
#    0.000    1.500    3.750    1.125    1.750    7.500 
#    2.250    1.250    0.000    0.000    0.000    0.000 
#    0.000    0.000    0.000    0.000    0.000    0.000 
#
# Total GULP energy -178506.506595 kJ/mol
# GULP energy per Si atom -5578.328331 kJ/mol
# Density = 2.337894 g / cm^3
# Si number density = 23.432275 Si / 1000 Ang^3
#
#
#
# Elastic Constant Matrix: (Units=GPa)
#
#
# Indices 1 2 3 4 5 6 
#
# 1 141.8698 19.3472 58.1720 0.0000 -13.9961 0.0000
# 2 19.3472 24.4158 -9.2183 0.0000 -0.1263 0.0000
# 3 58.1720 -9.2183 77.5391 0.0000 -13.9534 0.0000
# 4 0.0000 0.0000 0.0000 4.8389 0.0000 17.4593
# 5 -13.9961 -0.1263 -13.9534 0.0000 38.8034 0.0000
# 6 0.0000 0.0000 0.0000 17.4593 0.0000 36.9329
#
#
#
# Elastic Compliance Matrix: (Units=1/GPa)
#
#
# Indices 1 2 3 4 5 6 
#
# 1 0.014580 -0.016373 -0.012775 0.000000 0.000612 0.000000
# 2 -0.016373 0.061431 0.019844 0.000000 0.001430 0.000000
# 3 -0.012775 0.019844 0.025685 0.000000 0.004693 0.000000
# 4 0.000000 0.000000 0.000000 -0.292854 0.000000 0.138441
# 5 0.000612 0.001430 0.004693 0.000000 0.027684 0.000000
# 6 0.000000 0.000000 0.000000 0.138441 0.000000 -0.038369
#
#
# Mechanical properties :
#
#
# Convention : Reuss Voigt Hill
#
# Bulk Modulus (GPa) = 12.03541 42.26961 27.15251
# Shear Modulus (GPa) = -32.14626 27.81661 -2.16483
#
# Velocity S-wave (km/s) = -3.70791 3.44918 -0.96222
# Velocity P-wave (km/s) = 3.63098 5.82586 3.22154
#
# Compressibility (1/GPa) = 0.08308815
#
# Stress axis : x y z
#
# Youngs Moduli (GPa) = 68.58617 16.27835 38.93393
#
# Poissons Ratio (x) = 0.26653 0.49738
# Poissons Ratio (y) = 1.12299 -0.77262
# Poissons Ratio (z) = 0.87618 -0.32304
#
# Static dielectric constant tensor:
#      x y z
#    x 1.953680 0.000000 0.034040 
#    y 0.000000 2.014040 0.000000 
#    z 0.034040 0.000000 1.900420 
# 
# From -- ./inp_files/174226.got.cif
#   From: 2010.05.17/outbox.cif.g08.bks.cpg/sg15_88_cif.got.tgz:174226.got - 2010.06.03 18:47:42.
