data_PCOD9289135
_publ_section_title
;
Structure prediction by ZEFSAII (Michael W. Deem and Ramdas Pophale) SiO2 
 PCOD9289135
Probable space group: C 2/C
;
_chemical_formula_sum "Si O2"
_cell_formula_units_Z 64
_cell_length_a 13.972690
_cell_length_b 9.318452
_cell_length_c 29.702142
_cell_angle_alpha 90.000000
_cell_angle_beta 46.211374
_cell_angle_gamma 90.000000
_cell_volume 2791.818448
_symmetry_space_group_name_H-M "C 2/C"
_symmetry_group_IT_number 15
_symmetry_cell_setting 'monoclinic'
loop_
_space_group_symop_operation_xyz
x,y,z
-x,y,1/2-z
-x,-y,-z
x,-y,1/2+z
1/2+x,1/2+y,z
1/2-x,1/2+y,1/2-z
1/2-x,1/2-y,-z
1/2+x,1/2-y,1/2+z
loop_
_atom_site_type_symbol
_atom_site_label
_atom_site_fract_x
_atom_site_fract_y
_atom_site_fract_z
Si Si1 0.127495 0.433781 0.481725
Si Si2 0.008479 0.128113 0.533335
Si Si3 0.254114 0.896325 0.205781
Si Si4 0.025668 0.934321 0.604925
Si Si5 0.271811 0.073309 0.291560
Si Si6 0.865072 0.042946 0.340801
Si Si7 0.193705 0.632366 0.642905
Si Si8 0.428308 0.887910 0.413140
O O1 0.097937 0.264025 0.491331
O O2 0.248180 0.487626 0.412086
O O3 0.128395 0.508104 0.530370
O O4 0.000000 0.500000 0.500000
O O5 0.852500 0.166215 0.590502
O O6 0.068899 0.064195 0.559631
O O7 0.000000 0.000000 0.500000
O O8 0.195149 0.736430 0.231189
O O9 0.410491 0.899020 0.139635
O O10 0.264198 0.979260 0.249382
O O11 0.162690 0.965432 0.196876
O O12 0.019338 0.972378 0.659864
O O13 0.098984 0.783648 0.572102
O O14 0.874718 0.909677 0.639724
O O15 0.343121 0.981593 0.306765
O O16 0.866622 0.211251 0.329475
O O17 0.137998 0.577732 0.613328
#
# Coordination Sequence:
#
# PCOD9289135 Si02
#       8
#     8   8   8   8   8   8   8   8
#     4  12  22  37  60  91 123 163 199 246 288 351
#     4  11  23  37  58  83 125 161 197 239 293 350
#     4  11  22  41  64  87 117 157 198 253 300 359
#     4   9  23  41  59  90 121 159 198 247 301 360
#     4  10  23  42  65  86 120 155 199 253 306 352
#     4  11  23  39  63  89 122 159 204 242 298 360
#     4  10  22  40  61  88 118 158 197 247 295 356
#     4  10  22  40  63  89 120 155 207 241 294 362
#
# _framework density 22.924126000000001
#
# number of rings (size 3 to 8) (size 9 to 14) (size 15 to 20)
#    0.000    1.500    2.500    1.500    5.250    4.500 
#    0.000    5.000    0.000    0.000    0.000    0.000 
#    0.000    0.000    0.000    0.000    0.000    0.000 
#
# Total GULP energy -178682.900421 kJ/mol
# GULP energy per Si atom -5583.840638 kJ/mol
# Density = 2.287195 g / cm^3
# Si number density = 22.924126 Si / 1000 Ang^3
#
#
#
# Elastic Constant Matrix: (Units=GPa)
#
#
# Indices 1 2 3 4 5 6 
#
# 1 122.5101 50.3196 21.6480 0.0000 37.9743 0.0000
# 2 50.3196 140.7809 48.6127 0.0000 58.8046 0.0000
# 3 21.6480 48.6127 64.0038 0.0000 22.1364 0.0000
# 4 0.0000 0.0000 0.0000 28.3745 0.0000 17.3168
# 5 37.9743 58.8046 22.1364 0.0000 55.1324 0.0000
# 6 0.0000 0.0000 0.0000 17.3168 0.0000 37.0178
#
#
#
# Elastic Compliance Matrix: (Units=1/GPa)
#
#
# Indices 1 2 3 4 5 6 
#
# 1 0.010538 -0.001092 -0.000729 0.000000 -0.005801 0.000000
# 2 -0.001092 0.015102 -0.006724 0.000000 -0.012656 0.000000
# 3 -0.000729 -0.006724 0.021278 0.000000 -0.000870 0.000000
# 4 0.000000 0.000000 0.000000 0.049325 0.000000 -0.023074
# 5 -0.005801 -0.012656 -0.000870 0.000000 0.035982 0.000000
# 6 0.000000 0.000000 0.000000 -0.023074 0.000000 0.037808
#
#
# Mechanical properties :
#
#
# Convention : Reuss Voigt Hill
#
# Bulk Modulus (GPa) = 33.52348 63.16171 48.34260
# Shear Modulus (GPa) = 25.37242 37.88591 31.62917
#
# Velocity S-wave (km/s) = 3.33047 4.06971 3.71850
# Velocity P-wave (km/s) = 5.42630 7.04952 6.29049
#
# Compressibility (1/GPa) = 0.02982984
#
# Stress axis : x y z
#
# Youngs Moduli (GPa) = 94.89449 66.21824 46.99633
#
# Poissons Ratio (x) = 0.07230 0.03424
# Poissons Ratio (y) = 0.10361 0.31599
# Poissons Ratio (z) = 0.06914 0.44523
#
# Static dielectric constant tensor:
#      x y z
#    x 1.872900 0.000000 -0.009160 
#    y 0.000000 1.784630 0.000000 
#    z -0.009160 0.000000 1.869710 
# 
# From -- ./inp_files/313145.got.cif
#   From: 2010.05.17/outbox.cif.g08.bks.cpg/sg15_157_cif.got.tgz:313145.got - 2010.06.03 18:47:42.
