data_PCOD9289715
_publ_section_title
;
Structure prediction by ZEFSAII (Michael W. Deem and Ramdas Pophale) SiO2 
 PCOD9289715
Probable space group: C 2/C
;
_chemical_formula_sum "Si O2"
_cell_formula_units_Z 44
_cell_length_a 12.466375
_cell_length_b 21.754242
_cell_length_c 8.039679
_cell_angle_alpha 90.000000
_cell_angle_beta 72.399823
_cell_angle_gamma 90.000000
_cell_volume 2078.271143
_symmetry_space_group_name_H-M "C 2/C"
_symmetry_group_IT_number 15
_symmetry_cell_setting 'monoclinic'
loop_
_space_group_symop_operation_xyz
x,y,z
-x,y,1/2-z
-x,-y,-z
x,-y,1/2+z
1/2+x,1/2+y,z
1/2-x,1/2+y,1/2-z
1/2-x,1/2-y,-z
1/2+x,1/2-y,1/2+z
loop_
_atom_site_type_symbol
_atom_site_label
_atom_site_fract_x
_atom_site_fract_y
_atom_site_fract_z
Si Si1 0.274384 0.177491 0.488333
Si Si2 0.929954 0.760414 0.942584
Si Si3 0.643176 0.445818 0.540286
Si Si4 0.285980 0.843802 0.368590
Si Si5 0.500000 0.208786 0.250000
Si Si6 0.402178 0.580345 0.052924
O O1 0.250000 0.250000 0.500000
O O2 0.300916 0.160061 0.664875
O O3 0.385313 0.170147 0.322746
O O4 0.168250 0.138243 0.476513
O O5 0.885388 0.692985 0.910307
O O6 0.000000 0.783733 0.750000
O O7 0.824550 0.804531 0.025730
O O8 0.991822 0.750255 0.088047
O O9 0.757322 0.412948 0.432049
O O10 0.638632 0.518842 0.520927
O O11 0.622740 0.429454 0.741002
O O12 0.538189 0.419141 0.479880
#
# Coordination Sequence:
#
# PCOD9289715 Si02
#       6
#     8   8   8   8   4   8
#     4  12  25  40  65  96 134 176 223 279 334 407
#     4  11  24  40  62  96 132 171 220 268 330 401
#     4  10  22  40  67  93 131 175 217 283 327 406
#     4  11  24  39  65  93 130 171 217 275 332 393
#     4  12  24  42  62  92 134 176 218 276 336 400
#     4  10  23  41  64  98 131 171 225 271 342 393
#
# _framework density 21.171443
#
# number of rings (size 3 to 8) (size 9 to 14) (size 15 to 20)
#    0.000    1.091    3.636    2.182    7.636    2.182 
#    0.000    0.000    2.000    3.273    0.000    0.000 
#    0.000    0.000    0.000    0.000    0.000    0.000 
#
# Total GULP energy -123083.392644 kJ/mol
# GULP energy per Si atom -5594.699666 kJ/mol
# Density = 2.112326 g / cm^3
# Si number density = 21.171443 Si / 1000 Ang^3
#
#
#
# Elastic Constant Matrix: (Units=GPa)
#
#
# Indices 1 2 3 4 5 6 
#
# 1 74.4035 48.0629 26.5190 0.0000 5.1617 0.0000
# 2 48.0629 116.0743 12.6975 0.0000 4.1210 0.0000
# 3 26.5190 12.6975 111.5711 0.0000 5.5772 0.0000
# 4 0.0000 0.0000 0.0000 26.0979 0.0000 -3.4342
# 5 5.1617 4.1210 5.5772 0.0000 44.3247 0.0000
# 6 0.0000 0.0000 0.0000 -3.4342 0.0000 42.1659
#
#
#
# Elastic Compliance Matrix: (Units=1/GPa)
#
#
# Indices 1 2 3 4 5 6 
#
# 1 0.019896 -0.007784 -0.003787 0.000000 -0.001117 0.000000
# 2 -0.007784 0.011791 0.000521 0.000000 -0.000255 0.000000
# 3 -0.003787 0.000521 0.009846 0.000000 -0.000846 0.000000
# 4 0.000000 0.000000 0.000000 0.038732 0.000000 0.003155
# 5 -0.001117 -0.000255 -0.000846 0.000000 0.022821 0.000000
# 6 0.000000 0.000000 0.000000 0.003155 0.000000 0.023973
#
#
# Mechanical properties :
#
#
# Convention : Reuss Voigt Hill
#
# Bulk Modulus (GPa) = 51.46259 52.95641 52.20950
# Shear Modulus (GPa) = 32.12596 36.83566 34.48081
#
# Velocity S-wave (km/s) = 3.89963 4.17571 4.04003
# Velocity P-wave (km/s) = 6.68106 6.95098 6.81735
#
# Compressibility (1/GPa) = 0.01943159
#
# Stress axis : x y z
#
# Youngs Moduli (GPa) = 50.26094 84.81380 101.56328
#
# Poissons Ratio (x) = 0.66023 0.38465
# Poissons Ratio (y) = 0.39125 -0.05293
# Poissons Ratio (z) = 0.19035 -0.04420
#
# Static dielectric constant tensor:
#      x y z
#    x 1.791990 0.000000 0.009030 
#    y 0.000000 1.770090 0.000000 
#    z 0.009030 0.000000 1.721530 
# 
# From -- ./inp_files/30732.got.cif
#   From: 2010.05.17/outbox.cif.g08.bks.cpg/sg15_16_cif.got.tgz:30732.got - 2010.06.03 18:47:42.
