data_PCOD9289141
_publ_section_title
;
Structure prediction by ZEFSAII (Michael W. Deem and Ramdas Pophale) SiO2 
 PCOD9289141
Probable space group: C 2/C
;
_chemical_formula_sum "Si O2"
_cell_formula_units_Z 40
_cell_length_a 9.380712
_cell_length_b 5.445140
_cell_length_c 30.001237
_cell_angle_alpha 90.000000
_cell_angle_beta 101.884333
_cell_angle_gamma 90.000000
_cell_volume 1499.594508
_symmetry_space_group_name_H-M "C 2/C"
_symmetry_group_IT_number 15
_symmetry_cell_setting 'monoclinic'
loop_
_space_group_symop_operation_xyz
x,y,z
-x,y,1/2-z
-x,-y,-z
x,-y,1/2+z
1/2+x,1/2+y,z
1/2-x,1/2+y,1/2-z
1/2-x,1/2-y,-z
1/2+x,1/2-y,1/2+z
loop_
_atom_site_type_symbol
_atom_site_label
_atom_site_fract_x
_atom_site_fract_y
_atom_site_fract_z
Si Si1 0.899315 0.251056 0.785564
Si Si2 0.823872 0.750289 0.803322
Si Si3 0.464670 0.170169 0.566571
Si Si4 0.719767 0.160370 0.386582
Si Si5 0.393557 0.661917 0.535830
O O1 0.890827 0.483672 0.817224
O O2 0.740140 0.224329 0.750984
O O3 0.000000 0.297367 0.750000
O O4 0.927136 0.986582 0.808757
O O5 0.703180 0.811193 0.832929
O O6 0.609105 0.289882 0.596146
O O7 0.424475 0.377712 0.527460
O O8 0.341382 0.087846 0.594544
O O9 0.495261 0.903670 0.545967
O O10 0.645798 0.360229 0.413699
O O11 0.250000 0.750000 0.500000
#
# Coordination Sequence:
#
# PCOD9289141 Si02
#       5
#     8   8   8   8   8
#     4  10  22  40  61  89 121 163 207 259 320 378
#     4  10  23  38  61  89 123 161 210 258 316 387
#     4  10  25  40  65  95 129 170 218 270 330 393
#     4  10  26  41  66  97 132 171 223 269 337 396
#     4  10  24  44  67  96 131 172 219 273 332 399
#
# _framework density 26.673877000000001
#
# number of rings (size 3 to 8) (size 9 to 14) (size 15 to 20)
#    1.200    0.800    0.000    1.200    8.400    3.200 
#    0.000    0.000    0.000    0.000    0.000    0.000 
#    0.000    0.000    0.000    0.000    0.000    0.000 
#
# Total GULP energy -111530.149877 kJ/mol
# GULP energy per Si atom -5576.507494 kJ/mol
# Density = 2.661317 g / cm^3
# Si number density = 26.673877 Si / 1000 Ang^3
#
#
#
# Elastic Constant Matrix: (Units=GPa)
#
#
# Indices 1 2 3 4 5 6 
#
# 1 75.0475 38.2159 5.7035 0.0000 12.1801 0.0000
# 2 38.2159 179.1102 22.4669 0.0000 8.1705 0.0000
# 3 5.7035 22.4669 108.3591 0.0000 -5.1408 0.0000
# 4 0.0000 0.0000 0.0000 38.8918 0.0000 -18.3547
# 5 12.1801 8.1705 -5.1408 0.0000 38.4468 0.0000
# 6 0.0000 0.0000 0.0000 -18.3547 0.0000 41.4582
#
#
#
# Elastic Compliance Matrix: (Units=1/GPa)
#
#
# Indices 1 2 3 4 5 6 
#
# 1 0.015633 -0.003088 -0.000389 0.000000 -0.004348 0.000000
# 2 -0.003088 0.006417 -0.001194 0.000000 -0.000545 0.000000
# 3 -0.000389 -0.001194 0.009575 0.000000 0.001657 0.000000
# 4 0.000000 0.000000 0.000000 0.032504 0.000000 0.014390
# 5 -0.004348 -0.000545 0.001657 0.000000 0.027725 0.000000
# 6 0.000000 0.000000 0.000000 0.014390 0.000000 0.030492
#
#
# Mechanical properties :
#
#
# Convention : Reuss Voigt Hill
#
# Bulk Modulus (GPa) = 44.87743 55.03216 49.95479
# Shear Modulus (GPa) = 35.94164 43.50137 39.72150
#
# Velocity S-wave (km/s) = 3.67474 4.04277 3.86314
# Velocity P-wave (km/s) = 5.90474 6.51677 6.21829
#
# Compressibility (1/GPa) = 0.02228292
#
# Stress axis : x y z
#
# Youngs Moduli (GPa) = 63.96800 155.84340 104.43686
#
# Poissons Ratio (x) = 0.48130 0.04060
# Poissons Ratio (y) = 0.19756 0.12467
# Poissons Ratio (z) = 0.02487 0.18603
#
# Static dielectric constant tensor:
#      x y z
#    x 2.215130 0.000000 0.059360 
#    y 0.000000 2.175440 0.000000 
#    z 0.059360 0.000000 2.183300 
# 
# From -- ./inp_files/309301.got.cif
#   From: 2010.05.17/outbox.cif.g08.bks.cpg/sg15_155_cif.got.tgz:309301.got - 2010.06.03 18:47:42.
