data_PCOD9289932
_publ_section_title
;
Structure prediction by ZEFSAII (Michael W. Deem and Ramdas Pophale) SiO2 
 PCOD9289932
Probable space group: C 2/C
;
_chemical_formula_sum "Si O2"
_cell_formula_units_Z 60
_cell_length_a 11.712627
_cell_length_b 12.011022
_cell_length_c 20.401059
_cell_angle_alpha 90.000000
_cell_angle_beta 83.430550
_cell_angle_gamma 90.000000
_cell_volume 2851.188737
_symmetry_space_group_name_H-M "C 2/C"
_symmetry_group_IT_number 15
_symmetry_cell_setting 'monoclinic'
loop_
_space_group_symop_operation_xyz
x,y,z
-x,y,1/2-z
-x,-y,-z
x,-y,1/2+z
1/2+x,1/2+y,z
1/2-x,1/2+y,1/2-z
1/2-x,1/2-y,-z
1/2+x,1/2-y,1/2+z
loop_
_atom_site_type_symbol
_atom_site_label
_atom_site_fract_x
_atom_site_fract_y
_atom_site_fract_z
Si Si1 0.176805 0.362086 0.996118
Si Si2 0.000000 0.035259 0.750000
Si Si3 0.238288 0.533818 0.892273
Si Si4 0.247096 0.140667 0.740553
Si Si5 0.122401 0.846861 0.830045
Si Si6 0.718249 0.446953 0.381894
Si Si7 0.968484 0.088053 0.945019
Si Si8 0.428888 0.217047 0.542880
O O1 0.219200 0.436831 0.053466
O O2 0.043423 0.345341 0.015038
O O3 0.250000 0.250000 0.000000
O O4 0.200723 0.417404 0.924920
O O5 0.048775 0.941413 0.798089
O O6 0.109867 0.119108 0.739105
O O7 0.209111 0.553947 0.818172
O O8 0.372819 0.545149 0.901096
O O9 0.172478 0.631290 0.936030
O O10 0.306179 0.258266 0.717958
O O11 0.272149 0.111146 0.814344
O O12 0.050462 0.780468 0.889261
O O13 0.209225 0.923130 0.865658
O O14 0.590772 0.393835 0.401745
O O15 0.915347 0.192716 0.986579
O O16 0.000000 0.000000 0.000000
#
# Coordination Sequence:
#
# PCOD9289932 Si02
#       8
#     8   4   8   8   8   8   8   8
#     4  12  24  39  66  95 131 172 224 283 337 406
#     4  10  22  40  70  92 136 184 226 286 334 414
#     4  11  23  41  62  91 136 170 218 280 335 408
#     4  10  24  41  66 101 132 177 230 273 350 412
#     4  10  22  41  67  95 130 177 226 274 342 412
#     4  11  23  41  66  99 132 166 227 283 329 408
#     4  12  20  39  67  95 122 165 228 270 335 398
#     4  11  23  39  61  98 126 169 216 277 343 400
#
# _framework density 21.043852999999999
#
# number of rings (size 3 to 8) (size 9 to 14) (size 15 to 20)
#    0.000    1.067    4.000    2.400    3.733    2.133 
#    0.000    0.000   11.733    0.000    0.000    0.000 
#    0.000    0.000    0.000    0.000    0.000    0.000 
#
# Total GULP energy -167309.564505 kJ/mol
# GULP energy per Si atom -5576.985483 kJ/mol
# Density = 2.099596 g / cm^3
# Si number density = 21.043853 Si / 1000 Ang^3
#
#
#
# Elastic Constant Matrix: (Units=GPa)
#
#
# Indices 1 2 3 4 5 6 
#
# 1 55.1559 -5.3565 1.3646 0.0000 -9.4109 0.0000
# 2 -5.3565 42.7456 13.6780 0.0000 -11.7705 0.0000
# 3 1.3646 13.6780 86.8790 0.0000 -14.6895 0.0000
# 4 0.0000 0.0000 0.0000 35.5049 0.0000 -7.6980
# 5 -9.4109 -11.7705 -14.6895 0.0000 27.2404 0.0000
# 6 0.0000 0.0000 0.0000 -7.6980 0.0000 27.6090
#
#
#
# Elastic Compliance Matrix: (Units=1/GPa)
#
#
# Indices 1 2 3 4 5 6 
#
# 1 0.020201 0.004959 0.000489 0.000000 0.009386 0.000000
# 2 0.004959 0.028260 -0.002391 0.000000 0.012635 0.000000
# 3 0.000489 -0.002391 0.012910 0.000000 0.006098 0.000000
# 4 0.000000 0.000000 0.000000 0.029977 0.000000 0.008358
# 5 0.009386 0.012635 0.006098 0.000000 0.048701 0.000000
# 6 0.000000 0.000000 0.000000 0.008358 0.000000 0.038551
#
#
# Mechanical properties :
#
#
# Convention : Reuss Voigt Hill
#
# Bulk Modulus (GPa) = 14.81781 22.68366 18.75073
# Shear Modulus (GPa) = 25.64366 29.74382 27.69374
#
# Velocity S-wave (km/s) = 3.49461 3.76363 3.63161
# Velocity P-wave (km/s) = 4.83112 5.44878 5.14922
#
# Compressibility (1/GPa) = 0.06748637
#
# Stress axis : x y z
#
# Youngs Moduli (GPa) = 49.50162 35.38584 77.45954
#
# Poissons Ratio (x) = -0.17549 -0.03786
# Poissons Ratio (y) = -0.24550 0.18518
# Poissons Ratio (z) = -0.02420 0.08460
#
# Static dielectric constant tensor:
#      x y z
#    x 1.756370 0.000000 0.002950 
#    y 0.000000 1.806820 0.000000 
#    z 0.002950 0.000000 1.843960 
# 
# From -- ./inp_files/268808.got.cif
#   From: 2010.05.17/outbox.cif.g08.bks.cpg/sg15_135_cif.got.tgz:268808.got - 2010.06.03 18:47:42.
