data_PCOD9289219
_publ_section_title
;
Structure prediction by ZEFSAII (Michael W. Deem and Ramdas Pophale) SiO2 
 PCOD9289219
Probable space group: C 2/C
;
_chemical_formula_sum "Si O2"
_cell_formula_units_Z 44
_cell_length_a 17.553789
_cell_length_b 8.168576
_cell_length_c 21.769133
_cell_angle_alpha 90.000000
_cell_angle_beta 142.105641
_cell_angle_gamma 90.000000
_cell_volume 1917.226759
_symmetry_space_group_name_H-M "C 2/C"
_symmetry_group_IT_number 15
_symmetry_cell_setting 'monoclinic'
loop_
_space_group_symop_operation_xyz
x,y,z
-x,y,1/2-z
-x,-y,-z
x,-y,1/2+z
1/2+x,1/2+y,z
1/2-x,1/2+y,1/2-z
1/2-x,1/2-y,-z
1/2+x,1/2-y,1/2+z
loop_
_atom_site_type_symbol
_atom_site_label
_atom_site_fract_x
_atom_site_fract_y
_atom_site_fract_z
Si Si1 0.515761 0.020140 0.937606
Si Si2 0.500000 0.834165 0.750000
Si Si3 0.666723 0.225556 0.250872
Si Si4 0.083226 0.870188 0.968598
Si Si5 0.711273 0.938956 0.972360
Si Si6 0.349061 0.448129 0.362995
O O1 0.424166 0.891604 0.846835
O O2 0.654385 0.979074 0.002284
O O3 0.505870 0.206539 0.906105
O O4 0.500000 0.000000 0.000000
O O5 0.416478 0.729214 0.743615
O O6 0.597298 0.942603 0.850839
O O7 0.712252 0.367974 0.235530
O O8 0.781758 0.112571 0.341858
O O9 0.150295 0.835389 0.076638
O O10 0.179873 0.940852 0.981067
O O11 0.986251 0.011781 0.925412
O O12 0.750000 0.750000 0.000000
#
# Coordination Sequence:
#
# PCOD9289219 Si02
#       6
#     8   4   8   8   8   8
#     4  11  23  40  67  96 127 168 222 263 326 392
#     4  10  22  40  62  90 126 166 220 260 322 392
#     4  11  22  42  63  94 126 174 214 271 322 391
#     4  11  22  42  62  96 130 167 212 272 320 390
#     4  11  24  42  69  94 131 177 215 271 334 388
#     4  11  23  38  67  92 129 168 214 263 327 377
#
# _framework density 22.949815000000001
#
# number of rings (size 3 to 8) (size 9 to 14) (size 15 to 20)
#    0.000    1.091    3.636    3.818    2.545    1.455 
#    0.000    0.000    0.000    0.000    0.000    0.000 
#    0.000    0.000    0.000    0.000    0.000    0.000 
#
# Total GULP energy -122880.990709 kJ/mol
# GULP energy per Si atom -5585.499578 kJ/mol
# Density = 2.289758 g / cm^3
# Si number density = 22.949815 Si / 1000 Ang^3
#
#
#
# Elastic Constant Matrix: (Units=GPa)
#
#
# Indices 1 2 3 4 5 6 
#
# 1 198.5880 38.6924 20.1673 0.0000 10.3793 0.0000
# 2 38.6924 72.0627 -3.0370 0.0000 3.2582 0.0000
# 3 20.1673 -3.0370 44.9714 0.0000 6.1962 0.0000
# 4 0.0000 0.0000 0.0000 30.4542 0.0000 1.9111
# 5 10.3793 3.2582 6.1962 0.0000 32.2155 0.0000
# 6 0.0000 0.0000 0.0000 1.9111 0.0000 35.7881
#
#
#
# Elastic Compliance Matrix: (Units=1/GPa)
#
#
# Indices 1 2 3 4 5 6 
#
# 1 0.006016 -0.003298 -0.002773 0.000000 -0.001071 0.000000
# 2 -0.003298 0.015809 0.002692 0.000000 -0.001054 0.000000
# 3 -0.002773 0.002692 0.024218 0.000000 -0.004037 0.000000
# 4 0.000000 0.000000 0.000000 0.032947 0.000000 -0.001759
# 5 -0.001071 -0.001054 -0.004037 0.000000 0.032269 0.000000
# 6 0.000000 0.000000 0.000000 -0.001759 0.000000 0.028036
#
#
# Mechanical properties :
#
#
# Convention : Reuss Voigt Hill
#
# Bulk Modulus (GPa) = 25.45573 47.47416 36.46495
# Shear Modulus (GPa) = 31.41730 37.01152 34.21441
#
# Velocity S-wave (km/s) = 3.70396 4.02022 3.86532
# Velocity P-wave (km/s) = 5.42295 6.50235 5.98702
#
# Compressibility (1/GPa) = 0.03928388
#
# Stress axis : x y z
#
# Youngs Moduli (GPa) = 166.22859 63.25525 41.29179
#
# Poissons Ratio (x) = 0.20865 0.11450
# Poissons Ratio (y) = 0.54830 -0.11116
# Poissons Ratio (z) = 0.46094 -0.17028
#
# Static dielectric constant tensor:
#      x y z
#    x 1.861290 0.000000 -0.026020 
#    y 0.000000 1.901100 0.000000 
#    z -0.026020 0.000000 1.955790 
# 
# From -- ./inp_files/159385.got.cif
#   From: 2010.05.17/outbox.cif.g08.bks.cpg/sg15_80_cif.got.tgz:159385.got - 2010.06.03 18:47:42.
