data_PCOD9289904
_publ_section_title
;
Structure prediction by ZEFSAII (Michael W. Deem and Ramdas Pophale) SiO2 
 PCOD9289904
Probable space group: C 2/C
;
_chemical_formula_sum "Si O2"
_cell_formula_units_Z 48
_cell_length_a 10.140611
_cell_length_b 10.702963
_cell_length_c 33.009516
_cell_angle_alpha 90.000000
_cell_angle_beta 147.170024
_cell_angle_gamma 90.000000
_cell_volume 1942.339252
_symmetry_space_group_name_H-M "C 2/C"
_symmetry_group_IT_number 15
_symmetry_cell_setting 'monoclinic'
loop_
_space_group_symop_operation_xyz
x,y,z
-x,y,1/2-z
-x,-y,-z
x,-y,1/2+z
1/2+x,1/2+y,z
1/2-x,1/2+y,1/2-z
1/2-x,1/2-y,-z
1/2+x,1/2-y,1/2+z
loop_
_atom_site_type_symbol
_atom_site_label
_atom_site_fract_x
_atom_site_fract_y
_atom_site_fract_z
Si Si1 0.769378 0.822724 0.122644
Si Si2 0.500000 0.504595 0.750000
Si Si3 0.484632 0.347854 0.598711
Si Si4 0.512471 0.821729 0.528102
Si Si5 0.212775 0.051811 0.013736
Si Si6 0.490818 0.943589 0.834913
Si Si7 0.000000 0.457792 0.750000
O O1 0.528730 0.777293 0.084388
O O2 0.676713 0.869163 0.055416
O O3 0.923878 0.697187 0.153818
O O4 0.191056 0.494114 0.918177
O O5 0.409102 0.588571 0.688921
O O6 0.731981 0.436927 0.790252
O O7 0.279606 0.333435 0.579228
O O8 0.420132 0.453766 0.549182
O O9 0.747338 0.380811 0.685368
O O10 0.454055 0.903140 0.552038
O O11 0.061157 0.179211 0.981276
O O12 0.493864 0.019354 0.793127
#
# Coordination Sequence:
#
# PCOD9289904 Si02
#       7
#     8   4   8   8   8   8   4
#     4  10  23  42  63 107 136 178 251 280 348 442
#     4  12  25  44  75  94 150 198 227 292 367 408
#     4  11  22  41  68  94 143 186 222 297 351 410
#     4  10  22  40  70 100 138 178 236 294 345 421
#     4  10  23  42  70 106 132 179 245 285 348 422
#     4  10  24  45  68 101 143 186 232 299 342 427
#     4  10  25  40  61 102 136 178 237 274 351 430
#
# _framework density 24.712472000000002
#
# number of rings (size 3 to 8) (size 9 to 14) (size 15 to 20)
#    0.000    1.667    0.000    4.000    4.667    8.667 
#    0.000    0.833    0.000    0.000    0.000    0.000 
#    0.000    0.000    0.000    0.000    0.000    0.000 
#
# Total GULP energy -134418.353952 kJ/mol
# GULP energy per Si atom -5600.764748 kJ/mol
# Density = 2.465622 g / cm^3
# Si number density = 24.712472 Si / 1000 Ang^3
#
#
#
# Elastic Constant Matrix: (Units=GPa)
#
#
# Indices 1 2 3 4 5 6 
#
# 1 172.6622 42.6642 57.9964 0.0000 11.1504 0.0000
# 2 42.6642 55.7094 37.6407 0.0000 -0.3498 0.0000
# 3 57.9964 37.6407 140.8740 0.0000 -10.6757 0.0000
# 4 0.0000 0.0000 0.0000 27.4959 0.0000 -0.7790
# 5 11.1504 -0.3498 -10.6757 0.0000 52.1783 0.0000
# 6 0.0000 0.0000 0.0000 -0.7790 0.0000 39.1233
#
#
#
# Elastic Compliance Matrix: (Units=1/GPa)
#
#
# Indices 1 2 3 4 5 6 
#
# 1 0.007766 -0.004505 -0.002155 0.000000 -0.002131 0.000000
# 2 -0.004505 0.024577 -0.004700 0.000000 0.000166 0.000000
# 3 -0.002155 -0.004700 0.009420 0.000000 0.002356 0.000000
# 4 0.000000 0.000000 0.000000 0.036390 0.000000 0.000725
# 5 -0.002131 0.000166 0.002356 0.000000 0.020104 0.000000
# 6 0.000000 0.000000 0.000000 0.000725 0.000000 0.025575
#
#
# Mechanical properties :
#
#
# Convention : Reuss Voigt Hill
#
# Bulk Modulus (GPa) = 52.51039 71.76092 62.13565
# Shear Modulus (GPa) = 32.70155 39.15579 35.92867
#
# Velocity S-wave (km/s) = 3.64164 3.98484 3.81710
# Velocity P-wave (km/s) = 6.24313 7.09037 6.68020
#
# Compressibility (1/GPa) = 0.01904385
#
# Stress axis : x y z
#
# Youngs Moduli (GPa) = 128.76134 40.68897 106.15698
#
# Poissons Ratio (x) = 0.18330 0.22878
# Poissons Ratio (y) = 0.58007 0.49889
# Poissons Ratio (z) = 0.27749 0.19122
#
# Static dielectric constant tensor:
#      x y z
#    x 1.980070 0.000000 -0.016090 
#    y 0.000000 1.958440 0.000000 
#    z -0.016090 0.000000 1.988930 
# 
# From -- ./inp_files/308134.got.cif
#   From: 2010.05.17/outbox.cif.g08.bks.cpg/sg15_155_cif.got.tgz:308134.got - 2010.06.03 18:47:42.
