data_PCOD9289474
_publ_section_title
;
Structure prediction by ZEFSAII (Michael W. Deem and Ramdas Pophale) SiO2 
 PCOD9289474
Probable space group: C 2/C
;
_chemical_formula_sum "Si O2"
_cell_formula_units_Z 44
_cell_length_a 15.133430
_cell_length_b 17.181968
_cell_length_c 11.762831
_cell_angle_alpha 90.000000
_cell_angle_beta 131.576010
_cell_angle_gamma 90.000000
_cell_volume 2288.062405
_symmetry_space_group_name_H-M "C 2/C"
_symmetry_group_IT_number 15
_symmetry_cell_setting 'monoclinic'
loop_
_space_group_symop_operation_xyz
x,y,z
-x,y,1/2-z
-x,-y,-z
x,-y,1/2+z
1/2+x,1/2+y,z
1/2-x,1/2+y,1/2-z
1/2-x,1/2-y,-z
1/2+x,1/2-y,1/2+z
loop_
_atom_site_type_symbol
_atom_site_label
_atom_site_fract_x
_atom_site_fract_y
_atom_site_fract_z
Si Si1 0.123330 0.225686 0.689266
Si Si2 0.738180 0.373570 0.476941
Si Si3 0.772871 0.194987 0.125418
Si Si4 0.921117 0.134476 0.435058
Si Si5 0.000000 0.664565 0.250000
Si Si6 0.871325 0.965778 0.698902
O O1 0.178340 0.278288 0.638213
O O2 0.026209 0.278654 0.667491
O O3 0.054250 0.150950 0.582822
O O4 0.211416 0.193914 0.861644
O O5 0.663698 0.357962 0.528602
O O6 0.687032 0.453343 0.382473
O O7 0.877084 0.379285 0.622990
O O8 0.890367 0.195352 0.306157
O O9 0.783427 0.105833 0.091653
O O10 0.750000 0.250000 0.000000
O O11 0.894054 0.052509 0.351380
O O12 0.000000 0.959241 0.750000
#
# Coordination Sequence:
#
# PCOD9289474 Si02
#       6
#     8   8   8   8   4   8
#     4  12  21  40  70  97 130 173 219 286 331 392
#     4  12  24  42  67 100 132 174 218 283 342 390
#     4  10  23  41  61  98 136 171 221 270 336 401
#     4  10  22  40  64  99 129 162 232 265 332 393
#     4  12  22  40  64 102 134 164 224 272 338 410
#     4  10  23  42  64  96 133 171 223 275 332 395
#
# _framework density 19.230243999999999
#
# number of rings (size 3 to 8) (size 9 to 14) (size 15 to 20)
#    1.091    0.000    3.636    3.818    0.000    4.364 
#    0.000    5.455    0.000    0.000    0.000    0.000 
#    0.000    0.000    0.000    0.000    0.000    0.000 
#
# Total GULP energy -122490.546166 kJ/mol
# GULP energy per Si atom -5567.752098 kJ/mol
# Density = 1.918648 g / cm^3
# Si number density = 19.230244 Si / 1000 Ang^3
#
#
#
# Elastic Constant Matrix: (Units=GPa)
#
#
# Indices 1 2 3 4 5 6 
#
# 1 94.6749 41.1580 31.0444 0.0000 -0.4563 0.0000
# 2 41.1580 113.7124 40.0975 0.0000 0.6451 0.0000
# 3 31.0444 40.0975 105.5807 0.0000 5.2991 0.0000
# 4 0.0000 0.0000 0.0000 38.7302 0.0000 -0.0101
# 5 -0.4563 0.6451 5.2991 0.0000 32.1799 0.0000
# 6 0.0000 0.0000 0.0000 -0.0101 0.0000 12.9413
#
#
#
# Elastic Compliance Matrix: (Units=1/GPa)
#
#
# Indices 1 2 3 4 5 6 
#
# 1 0.013036 -0.003878 -0.002393 0.000000 0.000657 0.000000
# 2 -0.003878 0.011314 -0.003168 0.000000 0.000240 0.000000
# 3 -0.002393 -0.003168 0.011472 0.000000 -0.001859 0.000000
# 4 0.000000 0.000000 0.000000 0.025820 0.000000 0.000020
# 5 0.000657 0.000240 -0.001859 0.000000 0.031386 0.000000
# 6 0.000000 0.000000 0.000000 0.000020 0.000000 0.077272
#
#
# Mechanical properties :
#
#
# Convention : Reuss Voigt Hill
#
# Bulk Modulus (GPa) = 59.02496 59.84089 59.43292
# Shear Modulus (GPa) = 25.66384 30.21483 27.93933
#
# Velocity S-wave (km/s) = 3.65712 3.96815 3.81581
# Velocity P-wave (km/s) = 6.97088 7.22362 7.09837
#
# Compressibility (1/GPa) = 0.01694199
#
# Stress axis : x y z
#
# Youngs Moduli (GPa) = 76.70832 88.38781 87.17066
#
# Poissons Ratio (x) = 0.34280 0.20862
# Poissons Ratio (y) = 0.29750 0.27619
# Poissons Ratio (z) = 0.18358 0.28005
#
# Static dielectric constant tensor:
#      x y z
#    x 1.674180 0.000000 0.007440 
#    y 0.000000 1.710180 0.000000 
#    z 0.007440 0.000000 1.715160 
# 
# From -- ./inp_files/98490.got.cif
#   From: 2010.05.17/outbox.cif.g08.bks.cpg/sg15_50_cif.got.tgz:98490.got - 2010.06.03 18:47:42.
