data_PCOD9289387
_publ_section_title
;
Structure prediction by ZEFSAII (Michael W. Deem and Ramdas Pophale) SiO2 
 PCOD9289387
Probable space group: C 2/C
;
_chemical_formula_sum "Si O2"
_cell_formula_units_Z 52
_cell_length_a 5.995527
_cell_length_b 24.523781
_cell_length_c 18.707368
_cell_angle_alpha 90.000000
_cell_angle_beta 125.496996
_cell_angle_gamma 90.000000
_cell_volume 2239.390109
_symmetry_space_group_name_H-M "C 2/C"
_symmetry_group_IT_number 15
_symmetry_cell_setting 'monoclinic'
loop_
_space_group_symop_operation_xyz
x,y,z
-x,y,1/2-z
-x,-y,-z
x,-y,1/2+z
1/2+x,1/2+y,z
1/2-x,1/2+y,1/2-z
1/2-x,1/2-y,-z
1/2+x,1/2-y,1/2+z
loop_
_atom_site_type_symbol
_atom_site_label
_atom_site_fract_x
_atom_site_fract_y
_atom_site_fract_z
Si Si1 0.988278 0.363035 0.518439
Si Si2 0.929345 0.056491 0.524921
Si Si3 0.418536 0.204690 0.132503
Si Si4 0.000000 0.260474 0.250000
Si Si5 0.170650 0.992749 0.205492
Si Si6 0.792246 0.685838 0.841200
Si Si7 0.568152 0.610919 0.117176
O O1 0.881995 0.422524 0.524128
O O2 0.860126 0.314156 0.540926
O O3 0.897694 0.355088 0.420445
O O4 0.304505 0.358987 0.597724
O O5 0.030613 0.097682 0.482820
O O6 0.044302 0.050226 0.625467
O O7 0.000000 0.000000 0.500000
O O8 0.728652 0.224057 0.202915
O O9 0.248196 0.256170 0.127150
O O10 0.322511 0.150883 0.156969
O O11 0.005964 0.300682 0.318880
O O12 0.500000 0.985858 0.250000
O O13 0.000000 0.987152 0.250000
O O14 0.118538 0.054888 0.168301
O O15 0.500000 0.670879 0.750000
#
# Coordination Sequence:
#
# PCOD9289387 Si02
#       7
#     8   8   8   4   8   8   8
#     4  11  23  41  70  95 132 176 234 286 342 435
#     4   9  23  45  68  93 130 178 224 282 355 422
#     4  10  22  41  64  96 132 181 227 282 345 414
#     4  10  22  40  64  90 142 184 224 286 348 420
#     4  11  27  45  71 104 142 179 233 301 370 432
#     4  10  23  42  61  95 136 180 225 284 345 414
#     4  10  24  42  67 100 132 179 232 287 350 435
#
# _framework density 23.220607999999999
#
# number of rings (size 3 to 8) (size 9 to 14) (size 15 to 20)
#    0.000    1.846    0.000    1.385    8.615   12.308 
#    1.385    0.000    0.000    0.000    0.000    0.000 
#    0.000    0.000    0.000    0.000    0.000    0.000 
#
# Total GULP energy -144884.847307 kJ/mol
# GULP energy per Si atom -5572.494127 kJ/mol
# Density = 2.316776 g / cm^3
# Si number density = 23.220608 Si / 1000 Ang^3
#
#
#
# Elastic Constant Matrix: (Units=GPa)
#
#
# Indices 1 2 3 4 5 6 
#
# 1 111.6118 25.8564 45.0202 0.0000 -19.4401 0.0000
# 2 25.8564 45.1603 12.3691 0.0000 -2.8130 0.0000
# 3 45.0202 12.3691 90.8931 0.0000 -20.0805 0.0000
# 4 0.0000 0.0000 0.0000 30.4870 0.0000 5.0633
# 5 -19.4401 -2.8130 -20.0805 0.0000 27.2633 0.0000
# 6 0.0000 0.0000 0.0000 5.0633 0.0000 13.1309
#
#
#
# Elastic Compliance Matrix: (Units=1/GPa)
#
#
# Indices 1 2 3 4 5 6 
#
# 1 0.013082 -0.005927 -0.004476 0.000000 0.005420 0.000000
# 2 -0.005927 0.025686 -0.001085 0.000000 -0.002375 0.000000
# 3 -0.004476 -0.001085 0.015092 0.000000 0.007813 0.000000
# 4 0.000000 0.000000 0.000000 0.035045 0.000000 -0.013513
# 5 0.005420 -0.002375 0.007813 0.000000 0.046054 0.000000
# 6 0.000000 0.000000 0.000000 -0.013513 0.000000 0.081367
#
#
# Mechanical properties :
#
#
# Convention : Reuss Voigt Hill
#
# Bulk Modulus (GPa) = 32.37654 46.01740 39.19697
# Shear Modulus (GPa) = 20.03243 25.13753 22.58498
#
# Velocity S-wave (km/s) = 2.94036 3.29379 3.12208
# Velocity P-wave (km/s) = 5.04985 5.85883 5.46931
#
# Compressibility (1/GPa) = 0.03088656
#
# Stress axis : x y z
#
# Youngs Moduli (GPa) = 76.44096 38.93207 66.25847
#
# Poissons Ratio (x) = 0.23073 0.29655
# Poissons Ratio (y) = 0.45303 0.07186
# Poissons Ratio (z) = 0.34213 0.04222
#
# Static dielectric constant tensor:
#      x y z
#    x 1.978430 0.000000 -0.027060 
#    y 0.000000 1.836200 0.000000 
#    z -0.027060 0.000000 1.896910 
# 
# From -- ./inp_files/186298.got.cif
#   From: 2010.05.17/outbox.cif.g08.bks.cpg/sg15_94_cif.got.tgz:186298.got - 2010.06.03 18:47:42.
