data_PCOD9289337
_publ_section_title
;
Structure prediction by ZEFSAII (Michael W. Deem and Ramdas Pophale) SiO2 
 PCOD9289337
Probable space group: C 2/C
;
_chemical_formula_sum "Si O2"
_cell_formula_units_Z 32
_cell_length_a 5.679718
_cell_length_b 22.633117
_cell_length_c 11.998589
_cell_angle_alpha 90.000000
_cell_angle_beta 57.272360
_cell_angle_gamma 90.000000
_cell_volume 1297.556959
_symmetry_space_group_name_H-M "C 2/C"
_symmetry_group_IT_number 15
_symmetry_cell_setting 'monoclinic'
loop_
_space_group_symop_operation_xyz
x,y,z
-x,y,1/2-z
-x,-y,-z
x,-y,1/2+z
1/2+x,1/2+y,z
1/2-x,1/2+y,1/2-z
1/2-x,1/2-y,-z
1/2+x,1/2-y,1/2+z
loop_
_atom_site_type_symbol
_atom_site_label
_atom_site_fract_x
_atom_site_fract_y
_atom_site_fract_z
Si Si1 0.226413 0.210275 0.897007
Si Si2 0.044519 0.401892 0.072271
Si Si3 0.500000 0.006064 0.250000
Si Si4 0.792890 0.383909 0.715909
Si Si5 0.500000 0.674729 0.750000
O O1 0.500000 0.220861 0.750000
O O2 0.218309 0.142973 0.944121
O O3 0.986610 0.213791 0.865295
O O4 0.250000 0.250000 0.000000
O O5 0.058971 0.463937 0.130517
O O6 0.763909 0.368593 0.182842
O O7 0.049825 0.400432 0.938290
O O8 0.750058 0.052392 0.212433
O O9 0.500000 0.357328 0.750000
O O10 0.000000 0.351490 0.750000
#
# Coordination Sequence:
#
# PCOD9289337 Si02
#       5
#     8   8   4   8   4
#     4  10  23  42  65  96 128 170 227 283 347 412
#     4  11  22  42  64  93 131 175 221 279 333 409
#     4  10  22  40  63  96 130 179 226 274 332 400
#     4  10  26  40  62  99 136 180 225 276 334 397
#     4  10  22  42  71  90 126 177 222 276 350 400
#
# _framework density 24.661729999999999
#
# number of rings (size 3 to 8) (size 9 to 14) (size 15 to 20)
#    0.750    1.000    3.750    0.750    5.250    6.000 
#    2.250    0.000    0.000    0.000    0.000    0.000 
#    0.000    0.000    0.000    0.000    0.000    0.000 
#
# Total GULP energy -89282.115291 kJ/mol
# GULP energy per Si atom -5580.132206 kJ/mol
# Density = 2.460560 g / cm^3
# Si number density = 24.661730 Si / 1000 Ang^3
#
#
#
# Elastic Constant Matrix: (Units=GPa)
#
#
# Indices 1 2 3 4 5 6 
#
# 1 115.8080 23.2598 30.7238 0.0000 41.4265 0.0000
# 2 23.2598 99.3870 20.8877 0.0000 18.7506 0.0000
# 3 30.7238 20.8877 136.5660 0.0000 42.1582 0.0000
# 4 0.0000 0.0000 0.0000 28.4431 0.0000 21.5650
# 5 41.4265 18.7506 42.1582 0.0000 46.5291 0.0000
# 6 0.0000 0.0000 0.0000 21.5650 0.0000 4.7448
#
#
#
# Elastic Compliance Matrix: (Units=1/GPa)
#
#
# Indices 1 2 3 4 5 6 
#
# 1 0.012830 -0.000957 0.000926 0.000000 -0.011877 0.000000
# 2 -0.000957 0.010979 -0.000501 0.000000 -0.003119 0.000000
# 3 0.000926 -0.000501 0.010250 0.000000 -0.009910 0.000000
# 4 0.000000 0.000000 0.000000 -0.014374 0.000000 0.065330
# 5 -0.011877 -0.003119 -0.009910 0.000000 0.042302 0.000000
# 6 0.000000 0.000000 0.000000 0.065330 0.000000 -0.086167
#
#
# Mechanical properties :
#
#
# Convention : Reuss Voigt Hill
#
# Bulk Modulus (GPa) = 30.30701 55.72263 43.01482
# Shear Modulus (GPa) = -412.59743 34.40270 -189.09737
#
# Velocity S-wave (km/s) = -12.94859 3.73900 -8.76601
# Velocity P-wave (km/s) = 14.53406 6.42526 9.21832
#
# Compressibility (1/GPa) = 0.03299567
#
# Stress axis : x y z
#
# Youngs Moduli (GPa) = 77.94323 91.08069 97.56191
#
# Poissons Ratio (x) = 0.08713 -0.09037
# Poissons Ratio (y) = 0.07456 0.04891
# Poissons Ratio (z) = -0.07220 0.04566
#
# Static dielectric constant tensor:
#      x y z
#    x 2.164930 0.000000 0.038610 
#    y 0.000000 1.932460 0.000000 
#    z 0.038610 0.000000 1.982770 
# 
# From -- ./inp_files/72155.got.cif
#   From: 2010.05.17/outbox.cif.g08.bks.cpg/sg15_37_cif.got.tgz:72155.got - 2010.06.03 18:47:42.
