data_PCOD9289137
_publ_section_title
;
Structure prediction by ZEFSAII (Michael W. Deem and Ramdas Pophale) SiO2 
 PCOD9289137
Probable space group: C 2/C
;
_chemical_formula_sum "Si O2"
_cell_formula_units_Z 52
_cell_length_a 9.049519
_cell_length_b 10.897206
_cell_length_c 24.828491
_cell_angle_alpha 90.000000
_cell_angle_beta 93.355232
_cell_angle_gamma 90.000000
_cell_volume 2444.251571
_symmetry_space_group_name_H-M "C 2/C"
_symmetry_group_IT_number 15
_symmetry_cell_setting 'monoclinic'
loop_
_space_group_symop_operation_xyz
x,y,z
-x,y,1/2-z
-x,-y,-z
x,-y,1/2+z
1/2+x,1/2+y,z
1/2-x,1/2+y,1/2-z
1/2-x,1/2-y,-z
1/2+x,1/2-y,1/2+z
loop_
_atom_site_type_symbol
_atom_site_label
_atom_site_fract_x
_atom_site_fract_y
_atom_site_fract_z
Si Si1 0.214002 0.955373 0.175572
Si Si2 0.992456 0.693631 0.686302
Si Si3 0.981505 0.081061 0.110939
Si Si4 0.669944 0.236262 0.554714
Si Si5 0.855190 0.504756 0.885940
Si Si6 0.000000 0.145915 0.750000
Si Si7 0.092427 0.682326 0.351125
O O1 0.316511 0.074690 0.176594
O O2 0.092240 0.969691 0.126119
O O3 0.327247 0.846403 0.166386
O O4 0.134216 0.935135 0.230648
O O5 0.012574 0.826478 0.661358
O O6 0.000000 0.694578 0.750000
O O7 0.106164 0.593963 0.664120
O O8 0.813342 0.037763 0.109449
O O9 0.042477 0.161687 0.062424
O O10 0.750000 0.250000 0.500000
O O11 0.796453 0.259244 0.602964
O O12 0.608404 0.099448 0.564635
O O13 0.959265 0.387034 0.879188
O O14 0.958374 0.227336 0.697265
#
# Coordination Sequence:
#
# PCOD9289137 Si02
#       7
#     8   8   8   8   8   4   8
#     4  10  24  35  54  84 121 162 199 242 295 358
#     4  10  23  35  54  83 122 163 203 242 295 366
#     4  10  22  40  61  88 121 160 207 254 309 370
#     4  10  23  44  66  90 121 160 212 267 313 367
#     4  10  22  41  61  86 124 159 205 256 309 369
#     4  12  24  34  62  90 124 160 204 244 294 376
#     4  10  24  41  59  90 125 162 203 251 313 367
#
# _framework density 21.274405999999999
#
# number of rings (size 3 to 8) (size 9 to 14) (size 15 to 20)
#    0.000    1.846    0.000    1.846   14.000    1.231 
#    0.000    0.769    0.000    0.000    0.000    0.000 
#    0.000    0.000    0.000    0.000    0.000    0.000 
#
# Total GULP energy -145209.006108 kJ/mol
# GULP energy per Si atom -5584.961773 kJ/mol
# Density = 2.122598 g / cm^3
# Si number density = 21.274406 Si / 1000 Ang^3
#
#
#
# Elastic Constant Matrix: (Units=GPa)
#
#
# Indices 1 2 3 4 5 6 
#
# 1 123.3706 34.3635 35.0749 0.0000 -33.9935 0.0000
# 2 34.3635 56.0771 30.4058 0.0000 -11.6711 0.0000
# 3 35.0749 30.4058 99.6300 0.0000 -35.6006 0.0000
# 4 0.0000 0.0000 0.0000 18.7683 0.0000 -15.5779
# 5 -33.9935 -11.6711 -35.6006 0.0000 35.6719 0.0000
# 6 0.0000 0.0000 0.0000 -15.5779 0.0000 33.5890
#
#
#
# Elastic Compliance Matrix: (Units=1/GPa)
#
#
# Indices 1 2 3 4 5 6 
#
# 1 0.012541 -0.006142 0.001572 0.000000 0.011511 0.000000
# 2 -0.006142 0.024390 -0.007027 0.000000 -0.004886 0.000000
# 3 0.001572 -0.007027 0.017629 0.000000 0.016793 0.000000
# 4 0.000000 0.000000 0.000000 0.086628 0.000000 0.040176
# 5 0.011511 -0.004886 0.016793 0.000000 0.054163 0.000000
# 6 0.000000 0.000000 0.000000 0.040176 0.000000 0.048405
#
#
# Mechanical properties :
#
#
# Convention : Reuss Voigt Hill
#
# Bulk Modulus (GPa) = 31.88147 53.19622 42.53884
# Shear Modulus (GPa) = 18.02426 29.55474 23.78950
#
# Velocity S-wave (km/s) = 2.91387 3.73126 3.34761
# Velocity P-wave (km/s) = 5.13218 6.60471 5.91445
#
# Compressibility (1/GPa) = 0.03136619
#
# Stress axis : x y z
#
# Youngs Moduli (GPa) = 79.73805 41.00115 56.72576
#
# Poissons Ratio (x) = 0.25183 -0.08920
# Poissons Ratio (y) = 0.48975 0.39862
# Poissons Ratio (z) = -0.12539 0.28812
#
# Static dielectric constant tensor:
#      x y z
#    x 1.811240 0.000000 -0.021250 
#    y 0.000000 1.810320 0.000000 
#    z -0.021250 0.000000 1.748700 
# 
# From -- ./inp_files/287577.got.cif
#   From: 2010.05.17/outbox.cif.g08.bks.cpg/sg15_144_cif.got.tgz:287577.got - 2010.06.03 18:47:42.
