data_PCOD9289927
_publ_section_title
;
Structure prediction by ZEFSAII (Michael W. Deem and Ramdas Pophale) SiO2 
 PCOD9289927
Probable space group: C 2/C
;
_chemical_formula_sum "Si O2"
_cell_formula_units_Z 60
_cell_length_a 11.672060
_cell_length_b 16.494338
_cell_length_c 17.702369
_cell_angle_alpha 90.000000
_cell_angle_beta 125.806168
_cell_angle_gamma 90.000000
_cell_volume 2763.981270
_symmetry_space_group_name_H-M "C 2/C"
_symmetry_group_IT_number 15
_symmetry_cell_setting 'monoclinic'
loop_
_space_group_symop_operation_xyz
x,y,z
-x,y,1/2-z
-x,-y,-z
x,-y,1/2+z
1/2+x,1/2+y,z
1/2-x,1/2+y,1/2-z
1/2-x,1/2-y,-z
1/2+x,1/2-y,1/2+z
loop_
_atom_site_type_symbol
_atom_site_label
_atom_site_fract_x
_atom_site_fract_y
_atom_site_fract_z
Si Si1 0.877262 0.236632 0.381529
Si Si2 0.759231 0.414106 0.123171
Si Si3 0.051259 0.882266 0.466273
Si Si4 0.500000 0.000000 0.000000
Si Si5 0.654801 0.156649 0.003374
Si Si6 0.353680 0.934688 0.592232
Si Si7 0.896520 0.245351 0.641985
Si Si8 0.661151 0.255879 0.798223
O O1 0.922753 0.154895 0.440898
O O2 0.762131 0.278329 0.392504
O O3 0.803277 0.218198 0.273314
O O4 0.016062 0.291724 0.425312
O O5 0.599134 0.425176 0.090074
O O6 0.765566 0.375962 0.040551
O O7 0.842423 0.498462 0.153842
O O8 0.825928 0.341730 0.197423
O O9 0.190178 0.932745 0.499396
O O10 0.052986 0.804994 0.410742
O O11 0.400941 0.920801 0.974601
O O12 0.454936 0.033200 0.067189
O O13 0.745214 0.208869 0.097795
O O14 0.390313 0.842169 0.626906
O O15 0.000000 0.226193 0.750000
O O16 0.500000 0.280247 0.750000
#
# Coordination Sequence:
#
# PCOD9289927 Si02
#       8
#     8   8   8   4   8   8   8   8
#     4  11  22  39  66  96 130 172 227 279 333 395
#     4  11  22  39  64  95 135 176 215 280 341 408
#     4  11  21  42  67  91 129 176 227 280 334 409
#     4  10  22  40  70  90 132 180 214 284 348 406
#     4  11  22  42  64 101 134 176 227 280 340 407
#     4  10  23  40  63  96 131 177 220 278 350 404
#     4  11  24  41  68  98 128 174 232 282 335 408
#     4  12  23  38  65 102 134 175 228 278 338 414
#
# _framework density 21.707816000000001
#
# number of rings (size 3 to 8) (size 9 to 14) (size 15 to 20)
#    0.000    1.067    2.667    5.600    1.867    0.533 
#    0.000    0.000    0.000   10.400    0.000    0.000 
#    0.000    0.000    0.000    0.000    0.000    0.000 
#
# Total GULP energy -167149.490758 kJ/mol
# GULP energy per Si atom -5571.649692 kJ/mol
# Density = 2.165841 g / cm^3
# Si number density = 21.707816 Si / 1000 Ang^3
#
#
#
# Elastic Constant Matrix: (Units=GPa)
#
#
# Indices 1 2 3 4 5 6 
#
# 1 47.0682 -2.5019 0.3061 0.0000 -5.1571 0.0000
# 2 -2.5019 78.1249 14.4896 0.0000 -6.2558 0.0000
# 3 0.3061 14.4896 75.4571 0.0000 0.3927 0.0000
# 4 0.0000 0.0000 0.0000 3.5703 0.0000 -3.4211
# 5 -5.1571 -6.2558 0.3927 0.0000 31.8114 0.0000
# 6 0.0000 0.0000 0.0000 -3.4211 0.0000 25.6353
#
#
#
# Elastic Compliance Matrix: (Units=1/GPa)
#
#
# Indices 1 2 3 4 5 6 
#
# 1 0.021712 0.001051 -0.000309 0.000000 0.003730 0.000000
# 2 0.001051 0.013549 -0.002621 0.000000 0.002867 0.000000
# 3 -0.000309 -0.002621 0.013761 0.000000 -0.000735 0.000000
# 4 0.000000 0.000000 0.000000 0.321159 0.000000 0.042860
# 5 0.003730 0.002867 -0.000735 0.000000 0.032613 0.000000
# 6 0.000000 0.000000 0.000000 0.042860 0.000000 0.044729
#
#
# Mechanical properties :
#
#
# Convention : Reuss Voigt Hill
#
# Bulk Modulus (GPa) = 22.09220 25.02640 23.55930
# Shear Modulus (GPa) = 10.72112 24.76050 17.74081
#
# Velocity S-wave (km/s) = 2.22476 3.38098 2.86187
# Velocity P-wave (km/s) = 4.09861 5.17640 4.66871
#
# Compressibility (1/GPa) = 0.04526485
#
# Stress axis : x y z
#
# Youngs Moduli (GPa) = 46.05658 73.80400 72.66945
#
# Poissons Ratio (x) = -0.07760 0.02248
# Poissons Ratio (y) = -0.04843 0.19047
# Poissons Ratio (z) = 0.01425 0.19344
#
# Static dielectric constant tensor:
#      x y z
#    x 1.827360 0.000000 0.008000 
#    y 0.000000 1.816430 0.000000 
#    z 0.008000 0.000000 1.803220 
# 
# From -- ./inp_files/199537.got.cif
#   From: 2010.05.17/outbox.cif.g08.bks.cpg/sg15_100_cif.got.tgz:199537.got - 2010.06.03 18:47:42.
