data_PCOD9289057
_publ_section_title
;
Structure prediction by ZEFSAII (Michael W. Deem and Ramdas Pophale) SiO2 
 PCOD9289057
Probable space group: C 2/C
;
_chemical_formula_sum "Si O2"
_cell_formula_units_Z 48
_cell_length_a 13.964995
_cell_length_b 23.866604
_cell_length_c 11.370862
_cell_angle_alpha 90.000000
_cell_angle_beta 34.108224
_cell_angle_gamma 90.000000
_cell_volume 2125.201721
_symmetry_space_group_name_H-M "C 2/C"
_symmetry_group_IT_number 15
_symmetry_cell_setting 'monoclinic'
loop_
_space_group_symop_operation_xyz
x,y,z
-x,y,1/2-z
-x,-y,-z
x,-y,1/2+z
1/2+x,1/2+y,z
1/2-x,1/2+y,1/2-z
1/2-x,1/2-y,-z
1/2+x,1/2-y,1/2+z
loop_
_atom_site_type_symbol
_atom_site_label
_atom_site_fract_x
_atom_site_fract_y
_atom_site_fract_z
Si Si1 0.735685 0.578847 0.077420
Si Si2 0.899998 0.593325 0.670910
Si Si3 0.774035 0.296710 0.197430
Si Si4 0.701345 0.341000 0.036431
Si Si5 0.122070 0.824030 0.858877
Si Si6 0.174390 0.539361 0.996924
O O1 0.639649 0.628553 0.242086
O O2 0.757855 0.589419 0.916802
O O3 0.695986 0.512947 0.129459
O O4 0.921434 0.581500 0.949779
O O5 0.894843 0.655967 0.626947
O O6 0.869500 0.552057 0.593662
O O7 0.796356 0.299325 0.031960
O O8 0.808123 0.238870 0.229097
O O9 0.579284 0.316188 0.413174
O O10 0.500000 0.329625 0.250000
O O11 0.726946 0.340431 0.870641
O O12 0.745285 0.403257 0.036065
O O13 0.000000 0.528969 0.250000
#
# Coordination Sequence:
#
# PCOD9289057 Si02
#       6
#     8   8   8   8   8   8
#     4  11  23  37  59  90 121 166 197 250 296 365
#     4  10  22  40  59  89 125 154 208 243 306 357
#     4  10  22  41  63  90 122 160 202 259 298 364
#     4   9  21  40  61  94 124 157 200 253 309 357
#     4  11  22  39  64  90 122 161 205 248 310 358
#     4  11  21  38  64  91 121 161 202 255 295 358
#
# _framework density 22.586092000000001
#
# number of rings (size 3 to 8) (size 9 to 14) (size 15 to 20)
#    0.000    1.667    1.667    3.000    2.333    2.667 
#    3.000    3.333    0.000    0.000    0.000    0.000 
#    0.000    0.000    0.000    0.000    0.000    0.000 
#
# Total GULP energy -134014.535789 kJ/mol
# GULP energy per Si atom -5583.938991 kJ/mol
# Density = 2.253468 g / cm^3
# Si number density = 22.586092 Si / 1000 Ang^3
#
#
#
# Elastic Constant Matrix: (Units=GPa)
#
#
# Indices 1 2 3 4 5 6 
#
# 1 72.0485 13.4178 26.7185 -0.0001 19.1212 0.0002
# 2 13.4178 110.2762 25.3652 0.0000 17.2045 0.0001
# 3 26.7185 25.3652 78.5870 0.0000 29.6327 0.0001
# 4 -0.0001 0.0000 0.0000 29.7135 0.0000 0.7974
# 5 19.1212 17.2045 29.6327 0.0000 32.3678 -0.0001
# 6 0.0002 0.0001 0.0001 0.7974 -0.0001 21.5547
#
#
#
# Elastic Compliance Matrix: (Units=1/GPa)
#
#
# Indices 1 2 3 4 5 6 
#
# 1 0.016926 -0.000261 -0.002982 0.000000 -0.007131 0.000000
# 2 -0.000261 0.010071 -0.001835 0.000000 -0.003519 0.000000
# 3 -0.002982 -0.001835 0.020310 0.000000 -0.015857 0.000000
# 4 0.000000 0.000000 0.000000 0.033688 0.000000 -0.001246
# 5 -0.007131 -0.003519 -0.015857 0.000000 0.051495 0.000000
# 6 0.000000 0.000000 0.000000 -0.001246 0.000000 0.046440
#
#
# Mechanical properties :
#
#
# Convention : Reuss Voigt Hill
#
# Bulk Modulus (GPa) = 26.91670 43.54608 35.23139
# Shear Modulus (GPa) = 24.81767 29.75453 27.28610
#
# Velocity S-wave (km/s) = 3.31842 3.63351 3.47953
# Velocity P-wave (km/s) = 5.16002 6.07661 5.63697
#
# Compressibility (1/GPa) = 0.03715166
#
# Stress axis : x y z
#
# Youngs Moduli (GPa) = 59.07949 99.29531 49.23704
#
# Poissons Ratio (x) = 0.02594 0.14681
# Poissons Ratio (y) = 0.01543 0.09035
# Poissons Ratio (z) = 0.17616 0.18220
#
# Static dielectric constant tensor:
#      x y z
#    x 1.830980 0.000000 0.018830 
#    y 0.000000 1.857450 0.000000 
#    z 0.018830 0.000000 1.882770 
# 
# From -- ./inp_files/99978.got.cif
#   From: 2010.05.17/outbox.cif.g08.bks.cpg/sg15_50_cif.got.tgz:99978.got - 2010.06.03 18:47:42.
