data_PCOD9289074
_publ_section_title
;
Structure prediction by ZEFSAII (Michael W. Deem and Ramdas Pophale) SiO2 
 PCOD9289074
Probable space group: C 2/C
;
_chemical_formula_sum "Si O2"
_cell_formula_units_Z 64
_cell_length_a 7.814769
_cell_length_b 15.480302
_cell_length_c 20.788307
_cell_angle_alpha 90.000000
_cell_angle_beta 87.828331
_cell_angle_gamma 90.000000
_cell_volume 2513.058874
_symmetry_space_group_name_H-M "C 2/C"
_symmetry_group_IT_number 15
_symmetry_cell_setting 'monoclinic'
loop_
_space_group_symop_operation_xyz
x,y,z
-x,y,1/2-z
-x,-y,-z
x,-y,1/2+z
1/2+x,1/2+y,z
1/2-x,1/2+y,1/2-z
1/2-x,1/2-y,-z
1/2+x,1/2-y,1/2+z
loop_
_atom_site_type_symbol
_atom_site_label
_atom_site_fract_x
_atom_site_fract_y
_atom_site_fract_z
Si Si1 0.967318 0.771542 0.559019
Si Si2 0.817567 0.690432 0.768040
Si Si3 0.201058 0.009673 0.730742
Si Si4 0.652053 0.755669 0.657372
Si Si5 0.449388 0.380140 0.440144
Si Si6 0.406825 0.436788 0.898453
Si Si7 0.838336 0.382960 0.412078
Si Si8 0.181656 0.439242 0.638397
O O1 0.837625 0.757280 0.619492
O O2 0.886435 0.818526 0.498133
O O3 0.044495 0.677505 0.546282
O O4 0.115665 0.839107 0.578236
O O5 0.799048 0.600671 0.728259
O O6 0.679629 0.748581 0.733357
O O7 0.811951 0.664121 0.842552
O O8 0.000000 0.731267 0.750000
O O9 0.188247 0.955085 0.666614
O O10 0.291395 0.959674 0.787032
O O11 0.000000 0.028576 0.750000
O O12 0.569561 0.671367 0.626619
O O13 0.584800 0.848598 0.635317
O O14 0.370702 0.475745 0.439245
O O15 0.651914 0.390198 0.445156
O O16 0.616959 0.437662 0.887119
O O17 0.902622 0.479070 0.395278
#
# Coordination Sequence:
#
# PCOD9289074 Si02
#       8
#     8   8   8   8   8   8   8   8
#     4  11  22  38  60  87 118 156 199 238 284 346
#     4  11  21  35  59  87 118 146 186 243 301 342
#     4   9  17  34  59  85 114 150 187 235 290 349
#     4  11  22  37  60  89 117 154 194 239 295 344
#     4  11  22  40  59  85 120 155 198 241 283 343
#     4   9  18  34  59  87 110 149 198 236 279 339
#     4  10  22  40  60  84 115 156 192 242 292 341
#     4   8  19  34  57  82 119 149 186 237 292 343
#
# _framework density 25.466972999999999
#
# number of rings (size 3 to 8) (size 9 to 14) (size 15 to 20)
#    0.000    2.000    2.500    1.875    1.750    0.500 
#    0.000    4.375    0.000    0.000    0.000    0.000 
#    0.000    0.000    0.000    0.000    0.000    0.000 
#
# Total GULP energy -178766.102262 kJ/mol
# GULP energy per Si atom -5586.440696 kJ/mol
# Density = 2.540901 g / cm^3
# Si number density = 25.466973 Si / 1000 Ang^3
#
#
#
# Elastic Constant Matrix: (Units=GPa)
#
#
# Indices 1 2 3 4 5 6 
#
# 1 48.9653 2.6071 -6.8228 0.0000 -4.3690 0.0000
# 2 2.6071 120.3332 -13.4902 0.0000 11.7001 0.0000
# 3 -6.8228 -13.4902 45.5695 0.0000 6.3834 0.0000
# 4 0.0000 0.0000 0.0000 30.6364 0.0000 6.2313
# 5 -4.3690 11.7001 6.3834 0.0000 19.9405 0.0000
# 6 0.0000 0.0000 0.0000 6.2313 0.0000 20.7272
#
#
#
# Elastic Compliance Matrix: (Units=1/GPa)
#
#
# Indices 1 2 3 4 5 6 
#
# 1 0.021166 -0.000600 0.002400 0.000000 0.004221 0.000000
# 2 -0.000600 0.009394 0.003645 0.000000 -0.006810 0.000000
# 3 0.002400 0.003645 0.024717 0.000000 -0.009526 0.000000
# 4 0.000000 0.000000 0.000000 0.034767 0.000000 -0.010452
# 5 0.004221 -0.006810 -0.009526 0.000000 0.058119 0.000000
# 6 0.000000 0.000000 0.000000 -0.010452 0.000000 0.051388
#
#
# Mechanical properties :
#
#
# Convention : Reuss Voigt Hill
#
# Bulk Modulus (GPa) = 15.11314 19.93959 17.52637
# Shear Modulus (GPa) = 23.72859 29.76574 26.74716
#
# Velocity S-wave (km/s) = 3.05575 3.42248 3.24430
# Velocity P-wave (km/s) = 4.28923 4.84401 4.57503
#
# Compressibility (1/GPa) = 0.06616757
#
# Stress axis : x y z
#
# Youngs Moduli (GPa) = 47.24641 106.45003 40.45753
#
# Poissons Ratio (x) = 0.06386 -0.09710
# Poissons Ratio (y) = 0.02834 -0.14747
# Poissons Ratio (z) = -0.11339 -0.38803
#
# Static dielectric constant tensor:
#      x y z
#    x 2.025610 0.000000 -0.014990 
#    y 0.000000 2.053190 0.000000 
#    z -0.014990 0.000000 2.037200 
# 
# From -- ./inp_files/264696.got.cif
#   From: 2010.05.17/outbox.cif.g08.bks.cpg/sg15_133_cif.got.tgz:264696.got - 2010.06.03 18:47:42.
