data_PCOD9289261
_publ_section_title
;
Structure prediction by ZEFSAII (Michael W. Deem and Ramdas Pophale) SiO2 
 PCOD9289261
Probable space group: C 2/C
;
_chemical_formula_sum "Si O2"
_cell_formula_units_Z 40
_cell_length_a 28.757131
_cell_length_b 7.716302
_cell_length_c 16.296150
_cell_angle_alpha 90.000000
_cell_angle_beta 29.525440
_cell_angle_gamma 90.000000
_cell_volume 1782.047445
_symmetry_space_group_name_H-M "C 2/C"
_symmetry_group_IT_number 15
_symmetry_cell_setting 'monoclinic'
loop_
_space_group_symop_operation_xyz
x,y,z
-x,y,1/2-z
-x,-y,-z
x,-y,1/2+z
1/2+x,1/2+y,z
1/2-x,1/2+y,1/2-z
1/2-x,1/2-y,-z
1/2+x,1/2-y,1/2+z
loop_
_atom_site_type_symbol
_atom_site_label
_atom_site_fract_x
_atom_site_fract_y
_atom_site_fract_z
Si Si1 0.326501 0.914836 0.149433
Si Si2 0.982178 0.242918 0.679729
Si Si3 0.426886 0.635680 0.246340
Si Si4 0.633362 0.260536 0.482356
Si Si5 0.900147 0.526832 0.698949
O O1 0.223845 0.837433 0.298446
O O2 0.328368 0.010429 0.235577
O O3 0.353296 0.054545 0.039968
O O4 0.411809 0.776078 0.017532
O O5 0.914866 0.401202 0.754202
O O6 0.000000 0.226837 0.750000
O O7 0.935147 0.067836 0.717055
O O8 0.377946 0.665059 0.409266
O O9 0.382868 0.775266 0.252607
O O10 0.535425 0.697402 0.088596
O O11 0.000000 0.500000 0.500000
#
# Coordination Sequence:
#
# PCOD9289261 Si02
#       5
#     8   8   8   8   8
#     4  11  24  41  64  96 129 163 217 261 313 372
#     4  11  21  39  69  92 120 170 208 253 321 378
#     4  11  22  42  66  91 125 169 213 255 319 378
#     4  11  22  41  64  92 129 166 213 260 308 381
#     4  10  22  40  62  96 128 162 210 264 311 371
#
# _framework density 22.446090999999999
#
# number of rings (size 3 to 8) (size 9 to 14) (size 15 to 20)
#    0.000    1.200    6.000    2.400    0.000    4.000 
#    3.600    1.000    0.000    0.000    0.000    0.000 
#    0.000    0.000    0.000    0.000    0.000    0.000 
#
# Total GULP energy -111640.280065 kJ/mol
# GULP energy per Si atom -5582.014003 kJ/mol
# Density = 2.239500 g / cm^3
# Si number density = 22.446091 Si / 1000 Ang^3
#
#
#
# Elastic Constant Matrix: (Units=GPa)
#
#
# Indices 1 2 3 4 5 6 
#
# 1 24.7442 8.0852 26.7802 -0.0003 11.0415 0.0002
# 2 8.0852 129.8006 36.8443 -0.0009 8.7110 -0.0003
# 3 26.7802 36.8443 52.0710 0.0003 -9.5854 -0.0003
# 4 -0.0003 -0.0009 0.0003 27.1358 -0.0002 7.3455
# 5 11.0415 8.7110 -9.5854 -0.0002 12.7062 0.0002
# 6 0.0002 -0.0003 -0.0003 7.3455 0.0002 18.8998
#
#
#
# Elastic Compliance Matrix: (Units=1/GPa)
#
#
# Indices 1 2 3 4 5 6 
#
# 1 -0.038394 -0.015716 0.045279 -0.000001 0.078296 0.000000
# 2 -0.015716 0.005793 0.006696 0.000000 0.014736 0.000000
# 3 0.045279 0.006696 -0.019635 0.000001 -0.058750 0.000000
# 4 -0.000001 0.000000 0.000001 0.041185 0.000002 -0.016007
# 5 0.078296 0.014736 -0.058750 0.000002 -0.043760 -0.000002
# 6 0.000000 0.000000 0.000000 -0.016007 -0.000002 0.059132
#
#
# Mechanical properties :
#
#
# Convention : Reuss Voigt Hill
#
# Bulk Modulus (GPa) = 49.30227 38.89280 44.09753
# Shear Modulus (GPa) = -81.38507 20.74210 -30.32149
#
# Velocity S-wave (km/s) = -6.02800 3.04317 -3.67939
# Velocity P-wave (km/s) = 5.14165 5.45094 1.27988
#
# Compressibility (1/GPa) = 0.02028304
#
# Stress axis : x y z
#
# Youngs Moduli (GPa) = -26.04607 172.60980 -50.92882
#
# Poissons Ratio (x) = 2.71266 2.30600
# Poissons Ratio (y) = -0.40933 0.34102
# Poissons Ratio (z) = 1.17934 -1.15578
#
# Static dielectric constant tensor:
#      x y z
#    x 1.853220 0.000000 0.025980 
#    y 0.000000 1.907320 0.000000 
#    z 0.025980 0.000000 1.804010 
# 
# From -- ./inp_files/224196.got.cif
#   From: 2010.05.17/outbox.cif.g08.bks.cpg/sg15_113_cif.got.tgz:224196.got - 2010.06.03 18:47:42.
