data_PCOD9289237
_publ_section_title
;
Structure prediction by ZEFSAII (Michael W. Deem and Ramdas Pophale) SiO2 
 PCOD9289237
Probable space group: C 2/C
;
_chemical_formula_sum "Si O2"
_cell_formula_units_Z 36
_cell_length_a 15.903169
_cell_length_b 9.590961
_cell_length_c 14.871368
_cell_angle_alpha 90.000000
_cell_angle_beta 37.678112
_cell_angle_gamma 90.000000
_cell_volume 1386.429020
_symmetry_space_group_name_H-M "C 2/C"
_symmetry_group_IT_number 15
_symmetry_cell_setting 'monoclinic'
loop_
_space_group_symop_operation_xyz
x,y,z
-x,y,1/2-z
-x,-y,-z
x,-y,1/2+z
1/2+x,1/2+y,z
1/2-x,1/2+y,1/2-z
1/2-x,1/2-y,-z
1/2+x,1/2-y,1/2+z
loop_
_atom_site_type_symbol
_atom_site_label
_atom_site_fract_x
_atom_site_fract_y
_atom_site_fract_z
Si Si1 0.334837 0.389144 0.015452
Si Si2 0.500000 0.136124 0.250000
Si Si3 0.031302 0.175433 0.579600
Si Si4 0.373459 0.074764 0.971616
Si Si5 0.779664 0.639591 0.693132
O O1 0.403618 0.238220 0.946438
O O2 0.242667 0.375728 0.182527
O O3 0.440528 0.512710 0.942789
O O4 0.245629 0.432441 0.004051
O O5 0.409062 0.248876 0.381953
O O6 0.498162 0.022656 0.332343
O O7 0.106183 0.249526 0.433554
O O8 0.867867 0.195473 0.717213
O O9 0.318854 0.004959 0.109496
#
# Coordination Sequence:
#
# PCOD9289237 Si02
#       5
#     8   4   8   8   8
#     4  11  23  41  66  96 131 172 219 271 326 388
#     4  10  22  40  62  92 130 172 218 266 324 386
#     4  11  23  42  69  95 132 177 221 267 324 392
#     4  10  24  41  63  97 133 170 216 272 328 386
#     4  11  24  44  67  98 133 174 219 269 327 390
#
# _framework density 25.965989
#
# number of rings (size 3 to 8) (size 9 to 14) (size 15 to 20)
#    0.000    1.333    0.000    4.667    0.000    9.778 
#    0.000    5.556    0.000    0.000    0.000    0.000 
#    0.000    0.000    0.000    0.000    0.000    0.000 
#
# Total GULP energy -100597.577152 kJ/mol
# GULP energy per Si atom -5588.754286 kJ/mol
# Density = 2.590689 g / cm^3
# Si number density = 25.965989 Si / 1000 Ang^3
#
#
#
# Elastic Constant Matrix: (Units=GPa)
#
#
# Indices 1 2 3 4 5 6 
#
# 1 90.9807 17.8128 11.2784 0.0000 -4.9333 0.0000
# 2 17.8128 184.2515 26.6374 0.0000 4.3264 0.0000
# 3 11.2784 26.6374 73.2874 0.0000 9.9996 0.0000
# 4 0.0000 0.0000 0.0000 53.6894 0.0000 -20.4623
# 5 -4.9333 4.3264 9.9996 0.0000 48.2427 0.0000
# 6 0.0000 0.0000 0.0000 -20.4623 0.0000 77.8280
#
#
#
# Elastic Compliance Matrix: (Units=1/GPa)
#
#
# Indices 1 2 3 4 5 6 
#
# 1 0.011460 -0.000907 -0.001652 0.000000 0.001596 0.000000
# 2 -0.000907 0.005800 -0.001940 0.000000 -0.000211 0.000000
# 3 -0.001652 -0.001940 0.015029 0.000000 -0.003110 0.000000
# 4 0.000000 0.000000 0.000000 0.020700 0.000000 0.005442
# 5 0.001596 -0.000211 -0.003110 0.000000 0.021555 0.000000
# 6 0.000000 0.000000 0.000000 0.005442 0.000000 0.014280
#
#
# Mechanical properties :
#
#
# Convention : Reuss Voigt Hill
#
# Bulk Modulus (GPa) = 42.93256 51.10853 47.02055
# Shear Modulus (GPa) = 47.35528 55.47141 51.41335
#
# Velocity S-wave (km/s) = 4.27516 4.62704 4.45458
# Velocity P-wave (km/s) = 6.39839 6.94778 6.67873
#
# Compressibility (1/GPa) = 0.02329234
#
# Stress axis : x y z
#
# Youngs Moduli (GPa) = 87.25907 172.40128 66.53993
#
# Poissons Ratio (x) = 0.15630 0.10991
# Poissons Ratio (y) = 0.07911 0.12909
# Poissons Ratio (z) = 0.14414 0.33445
#
# Static dielectric constant tensor:
#      x y z
#    x 2.160930 0.000000 -0.004400 
#    y 0.000000 2.005320 0.000000 
#    z -0.004400 0.000000 1.997610 
# 
# From -- ./inp_files/109504.got.cif
#   From: 2010.05.17/outbox.cif.g08.bks.cpg/sg15_55_cif.got.tgz:109504.got - 2010.06.03 18:47:42.
