data_PCOD9289131
_publ_section_title
;
Structure prediction by ZEFSAII (Michael W. Deem and Ramdas Pophale) SiO2 
 PCOD9289131
Probable space group: C 2/C
;
_chemical_formula_sum "Si O2"
_cell_formula_units_Z 40
_cell_length_a 8.744837
_cell_length_b 27.496709
_cell_length_c 12.220740
_cell_angle_alpha 90.000000
_cell_angle_beta 144.669214
_cell_angle_gamma 90.000000
_cell_volume 1699.339602
_symmetry_space_group_name_H-M "C 2/C"
_symmetry_group_IT_number 15
_symmetry_cell_setting 'monoclinic'
loop_
_space_group_symop_operation_xyz
x,y,z
-x,y,1/2-z
-x,-y,-z
x,-y,1/2+z
1/2+x,1/2+y,z
1/2-x,1/2+y,1/2-z
1/2-x,1/2-y,-z
1/2+x,1/2-y,1/2+z
loop_
_atom_site_type_symbol
_atom_site_label
_atom_site_fract_x
_atom_site_fract_y
_atom_site_fract_z
Si Si1 0.201091 0.350431 0.265195
Si Si2 0.483566 0.743988 0.852526
Si Si3 0.674087 0.957318 0.241631
Si Si4 0.736009 0.443538 0.801035
Si Si5 0.741107 0.838810 0.673998
O O1 0.400868 0.306151 0.363523
O O2 0.318572 0.405156 0.335761
O O3 0.000000 0.344189 0.250000
O O4 0.003817 0.347376 0.048569
O O5 0.321050 0.790848 0.796418
O O6 0.282844 0.740877 0.606650
O O7 0.500000 0.960474 0.250000
O O8 0.803494 0.009864 0.298277
O O9 0.494386 0.950739 0.027621
O O10 0.500000 0.442605 0.750000
O O11 0.738340 0.389926 0.749881
O O12 0.000000 0.832361 0.750000
#
# Coordination Sequence:
#
# PCOD9289131 Si02
#       5
#     8   8   8   8   8
#     4  10  22  40  61  85 117 159 198 236 290 354
#     4  12  25  40  58  88 121 153 196 247 294 340
#     4   9  19  37  59  85 115 150 193 234 285 346
#     4   9  19  37  58  85 115 150 190 238 286 338
#     4  10  22  40  61  84 118 157 197 238 290 352
#
# _framework density 23.538557000000001
#
# number of rings (size 3 to 8) (size 9 to 14) (size 15 to 20)
#    0.000    2.000    2.000    0.600    2.800    4.000 
#    3.600    0.000    0.000    0.000    0.000    0.000 
#    0.000    0.000    0.000    0.000    0.000    0.000 
#
# Total GULP energy -111510.246517 kJ/mol
# GULP energy per Si atom -5575.512326 kJ/mol
# Density = 2.348498 g / cm^3
# Si number density = 23.538557 Si / 1000 Ang^3
#
#
#
# Elastic Constant Matrix: (Units=GPa)
#
#
# Indices 1 2 3 4 5 6 
#
# 1 75.3149 122.4522 9.5702 0.0000 -2.0889 0.0000
# 2 122.4522 317.0538 30.5641 0.0000 8.8125 0.0000
# 3 9.5702 30.5641 108.2870 0.0000 -0.7564 0.0000
# 4 0.0000 0.0000 0.0000 29.1609 0.0000 29.3179
# 5 -2.0889 8.8125 -0.7564 0.0000 39.9139 0.0000
# 6 0.0000 0.0000 0.0000 29.3179 0.0000 131.0036
#
#
#
# Elastic Compliance Matrix: (Units=1/GPa)
#
#
# Indices 1 2 3 4 5 6 
#
# 1 0.036760 -0.014422 0.000858 0.000000 0.005124 0.000000
# 2 -0.014422 0.008922 -0.001263 0.000000 -0.002749 0.000000
# 3 0.000858 -0.001263 0.009519 0.000000 0.000504 0.000000
# 4 0.000000 0.000000 0.000000 0.044248 0.000000 -0.009903
# 5 0.005124 -0.002749 0.000504 0.000000 0.025939 0.000000
# 6 0.000000 0.000000 0.000000 -0.009903 0.000000 0.009850
#
#
# Mechanical properties :
#
#
# Convention : Reuss Voigt Hill
#
# Bulk Modulus (GPa) = 39.14528 91.75874 65.45201
# Shear Modulus (GPa) = 28.83376 62.55362 45.69369
#
# Velocity S-wave (km/s) = 3.50374 5.16068 4.41072
# Velocity P-wave (km/s) = 5.74758 8.63581 7.33525
#
# Compressibility (1/GPa) = 0.02554587
#
# Stress axis : x y z
#
# Youngs Moduli (GPa) = 27.20366 112.07734 105.05423
#
# Poissons Ratio (x) = 1.61643 -0.09011
# Poissons Ratio (y) = 0.39234 0.13268
# Poissons Ratio (z) = -0.02333 0.14155
#
# Static dielectric constant tensor:
#      x y z
#    x 1.818970 0.000000 -0.251670 
#    y 0.000000 1.878180 0.000000 
#    z -0.251670 0.000000 3.636840 
# 
# From -- ./inp_files/148175.got.cif
#   From: 2010.05.17/outbox.cif.g08.bks.cpg/sg15_75_cif.got.tgz:148175.got - 2010.06.03 18:47:42.
