data_PCOD9289267
_publ_section_title
;
Structure prediction by ZEFSAII (Michael W. Deem and Ramdas Pophale) SiO2 
 PCOD9289267
Probable space group: C 2/C
;
_chemical_formula_sum "Si O2"
_cell_formula_units_Z 36
_cell_length_a 28.102392
_cell_length_b 11.643418
_cell_length_c 13.838084
_cell_angle_alpha 90.000000
_cell_angle_beta 160.161572
_cell_angle_gamma 90.000000
_cell_volume 1536.638693
_symmetry_space_group_name_H-M "C 2/C"
_symmetry_group_IT_number 15
_symmetry_cell_setting 'monoclinic'
loop_
_space_group_symop_operation_xyz
x,y,z
-x,y,1/2-z
-x,-y,-z
x,-y,1/2+z
1/2+x,1/2+y,z
1/2-x,1/2+y,1/2-z
1/2-x,1/2-y,-z
1/2+x,1/2-y,1/2+z
loop_
_atom_site_type_symbol
_atom_site_label
_atom_site_fract_x
_atom_site_fract_y
_atom_site_fract_z
Si Si1 0.098729 0.266179 0.849608
Si Si2 0.615617 0.683663 0.200498
Si Si3 0.500000 0.872764 0.250000
Si Si4 0.591754 0.659910 0.543827
Si Si5 0.695562 0.552008 0.157055
O O1 0.000000 0.309119 0.750000
O O2 0.000401 0.267786 0.568556
O O3 0.249650 0.320979 0.114529
O O4 0.141212 0.137904 0.970293
O O5 0.750000 0.750000 0.500000
O O6 0.658108 0.607586 0.189583
O O7 0.526097 0.614651 0.108730
O O8 0.524953 0.780943 0.383638
O O9 0.637644 0.948054 0.519321
O O10 0.631819 0.574082 0.533254
#
# Coordination Sequence:
#
# PCOD9289267 Si02
#       5
#     8   8   4   8   8
#     4   9  22  41  61  92 127 165 213 263 317 388
#     4  11  21  41  63  93 130 164 215 269 318 381
#     4  10  22  40  62  98 126 166 214 278 310 392
#     4  11  22  39  67  88 126 172 208 268 329 373
#     4  10  22  41  64  93 129 167 223 258 327 392
#
# _framework density 23.427759999999999
#
# number of rings (size 3 to 8) (size 9 to 14) (size 15 to 20)
#    0.000    1.778    2.222    1.333    6.222    0.000 
#    0.000    1.111    0.000    0.000    0.000    0.000 
#    0.000    0.000    0.000    0.000    0.000    0.000 
#
# Total GULP energy -100382.152050 kJ/mol
# GULP energy per Si atom -5576.786225 kJ/mol
# Density = 2.337444 g / cm^3
# Si number density = 23.427760 Si / 1000 Ang^3
#
#
#
# Elastic Constant Matrix: (Units=GPa)
#
#
# Indices 1 2 3 4 5 6 
#
# 1 63.7977 6.7184 36.6699 0.0000 1.7011 0.0000
# 2 6.7184 67.6556 37.7526 0.0000 8.0223 0.0000
# 3 36.6699 37.7526 233.8203 0.0000 6.3750 0.0000
# 4 0.0000 0.0000 0.0000 16.7801 0.0000 -0.8732
# 5 1.7011 8.0223 6.3750 0.0000 39.3290 0.0000
# 6 0.0000 0.0000 0.0000 -0.8732 0.0000 4.9459
#
#
#
# Elastic Compliance Matrix: (Units=1/GPa)
#
#
# Indices 1 2 3 4 5 6 
#
# 1 0.017233 -0.000192 -0.002664 0.000000 -0.000274 0.000000
# 2 -0.000192 0.016583 -0.002567 0.000000 -0.002958 0.000000
# 3 -0.002664 -0.002567 0.005114 0.000000 -0.000190 0.000000
# 4 0.000000 0.000000 0.000000 0.060147 0.000000 0.010619
# 5 -0.000274 -0.002958 -0.000190 0.000000 0.026073 0.000000
# 6 0.000000 0.000000 0.000000 0.010619 0.000000 0.204063
#
#
# Mechanical properties :
#
#
# Convention : Reuss Voigt Hill
#
# Bulk Modulus (GPa) = 35.60692 58.61726 47.11209
# Shear Modulus (GPa) = 14.30942 31.15318 22.73130
#
# Velocity S-wave (km/s) = 2.47410 3.65054 3.11830
# Velocity P-wave (km/s) = 4.83664 6.54548 5.75484
#
# Compressibility (1/GPa) = 0.02808443
#
# Stress axis : x y z
#
# Youngs Moduli (GPa) = 58.02671 60.30335 195.53355
#
# Poissons Ratio (x) = 0.01159 0.52094
# Poissons Ratio (y) = 0.01115 0.50187
# Poissons Ratio (z) = 0.15459 0.15478
#
# Static dielectric constant tensor:
#      x y z
#    x 1.980960 0.000000 -0.015710 
#    y 0.000000 1.948510 0.000000 
#    z -0.015710 0.000000 1.892930 
# 
# From -- ./inp_files/181669.got.cif
#   From: 2010.05.17/outbox.cif.g08.bks.cpg/sg15_91_cif.got.tgz:181669.got - 2010.06.03 18:47:42.
