data_PCOD9289163
_publ_section_title
;
Structure prediction by ZEFSAII (Michael W. Deem and Ramdas Pophale) SiO2 
 PCOD9289163
Probable space group: C 2/C
;
_chemical_formula_sum "Si O2"
_cell_formula_units_Z 48
_cell_length_a 11.745003
_cell_length_b 15.048551
_cell_length_c 14.497515
_cell_angle_alpha 90.000000
_cell_angle_beta 77.879217
_cell_angle_gamma 90.000000
_cell_volume 2505.244796
_symmetry_space_group_name_H-M "C 2/C"
_symmetry_group_IT_number 15
_symmetry_cell_setting 'monoclinic'
loop_
_space_group_symop_operation_xyz
x,y,z
-x,y,1/2-z
-x,-y,-z
x,-y,1/2+z
1/2+x,1/2+y,z
1/2-x,1/2+y,1/2-z
1/2-x,1/2-y,-z
1/2+x,1/2-y,1/2+z
loop_
_atom_site_type_symbol
_atom_site_label
_atom_site_fract_x
_atom_site_fract_y
_atom_site_fract_z
Si Si1 0.102620 0.298708 0.455862
Si Si2 0.773140 0.888339 0.548945
Si Si3 0.130324 0.230350 0.070355
Si Si4 0.827727 0.001962 0.700095
Si Si5 0.631707 0.147251 0.742175
Si Si6 0.593115 0.523194 0.105418
O O1 0.154191 0.202251 0.470822
O O2 0.149574 0.367155 0.523344
O O3 0.966017 0.286678 0.468071
O O4 0.145643 0.326637 0.346628
O O5 0.772880 0.919437 0.654236
O O6 0.837195 0.964441 0.479452
O O7 0.133534 0.268004 0.174030
O O8 0.095414 0.126944 0.078134
O O9 0.250000 0.250000 0.000000
O O10 0.738336 0.082588 0.698987
O O11 0.845412 0.986082 0.805513
O O12 0.959981 0.010855 0.638966
O O13 0.500000 0.108544 0.750000
#
# Coordination Sequence:
#
# PCOD9289163 Si02
#       6
#     8   8   8   8   8   8
#     4  10  22  40  61  92 125 168 201 255 321 367
#     4  11  21  39  66  88 129 157 206 263 309 365
#     4  11  23  40  64  93 123 169 209 254 308 385
#     4  11  22  39  65  93 120 165 210 261 307 368
#     4  10  22  42  61  85 130 166 205 252 319 375
#     4  11  23  39  66  95 122 161 215 256 306 376
#
# _framework density 19.159804999999999
#
# number of rings (size 3 to 8) (size 9 to 14) (size 15 to 20)
#    0.000    1.333    3.333    2.500    7.000    0.000 
#    3.000    2.500    0.000    0.000    0.000    0.000 
#    0.000    0.000    0.000    0.000    0.000    0.000 
#
# Total GULP energy -133988.941612 kJ/mol
# GULP energy per Si atom -5582.872567 kJ/mol
# Density = 1.911620 g / cm^3
# Si number density = 19.159805 Si / 1000 Ang^3
#
#
#
# Elastic Constant Matrix: (Units=GPa)
#
#
# Indices 1 2 3 4 5 6 
#
# 1 112.4016 51.7466 40.2446 0.0000 2.5035 0.0000
# 2 51.7466 69.9476 22.2173 0.0000 1.8159 0.0000
# 3 40.2446 22.2173 67.7735 0.0000 25.6525 0.0000
# 4 0.0000 0.0000 0.0000 32.7406 0.0000 7.0373
# 5 2.5035 1.8159 25.6525 0.0000 37.3717 0.0000
# 6 0.0000 0.0000 0.0000 7.0373 0.0000 18.6615
#
#
#
# Elastic Compliance Matrix: (Units=1/GPa)
#
#
# Indices 1 2 3 4 5 6 
#
# 1 0.016130 -0.009378 -0.008467 0.000000 0.005187 0.000000
# 2 -0.009378 0.021821 -0.001920 0.000000 0.000886 0.000000
# 3 -0.008467 -0.001920 0.027239 0.000000 -0.018037 0.000000
# 4 0.000000 0.000000 0.000000 0.033237 0.000000 -0.012534
# 5 0.005187 0.000886 -0.018037 0.000000 0.038749 0.000000
# 6 0.000000 0.000000 0.000000 -0.012534 0.000000 0.058313
#
#
# Mechanical properties :
#
#
# Convention : Reuss Voigt Hill
#
# Bulk Modulus (GPa) = 38.97072 53.17107 46.07090
# Shear Modulus (GPa) = 20.52767 26.81569 23.67168
#
# Velocity S-wave (km/s) = 3.27676 3.74516 3.51876
# Velocity P-wave (km/s) = 5.89069 6.82006 6.37234
#
# Compressibility (1/GPa) = 0.02566029
#
# Stress axis : x y z
#
# Youngs Moduli (GPa) = 61.99499 45.82718 36.71148
#
# Poissons Ratio (x) = 0.42978 0.31085
# Poissons Ratio (y) = 0.58141 0.07047
# Poissons Ratio (z) = 0.52494 0.08797
#
# Static dielectric constant tensor:
#      x y z
#    x 1.680520 0.000000 0.025230 
#    y 0.000000 1.650660 0.000000 
#    z 0.025230 0.000000 1.670820 
# 
# From -- ./inp_files/143647.got.cif
#   From: 2010.05.17/outbox.cif.g08.bks.cpg/sg15_72_cif.got.tgz:143647.got - 2010.06.03 18:47:42.
