data_PCOD9289742
_publ_section_title
;
Structure prediction by ZEFSAII (Michael W. Deem and Ramdas Pophale) SiO2 
 PCOD9289742
Probable space group: C 2/C
;
_chemical_formula_sum "Si O2"
_cell_formula_units_Z 36
_cell_length_a 17.555723
_cell_length_b 4.957969
_cell_length_c 16.282698
_cell_angle_alpha 90.000000
_cell_angle_beta 71.513189
_cell_angle_gamma 90.000000
_cell_volume 1344.122700
_symmetry_space_group_name_H-M "C 2/C"
_symmetry_group_IT_number 15
_symmetry_cell_setting 'monoclinic'
loop_
_space_group_symop_operation_xyz
x,y,z
-x,y,1/2-z
-x,-y,-z
x,-y,1/2+z
1/2+x,1/2+y,z
1/2-x,1/2+y,1/2-z
1/2-x,1/2-y,-z
1/2+x,1/2-y,1/2+z
loop_
_atom_site_type_symbol
_atom_site_label
_atom_site_fract_x
_atom_site_fract_y
_atom_site_fract_z
Si Si1 0.059941 0.051667 0.903299
Si Si2 0.343222 0.282465 0.367228
Si Si3 0.808051 0.190091 0.238736
Si Si4 0.000000 0.697681 0.250000
Si Si5 0.193653 0.058105 0.965669
O O1 0.115005 0.806757 0.848418
O O2 0.134571 0.207564 0.922775
O O3 0.022734 0.164492 0.831052
O O4 0.000000 0.000000 0.000000
O O5 0.339418 0.546624 0.311375
O O6 0.412731 0.089006 0.307233
O O7 0.359954 0.387182 0.452883
O O8 0.256435 0.150585 0.405758
O O9 0.737176 0.971675 0.243275
O O10 0.250000 0.250000 0.000000
#
# Coordination Sequence:
#
# PCOD9289742 Si02
#       5
#     8   8   8   4   8
#     4  11  22  44  70 106 150 193 249 314 378 448
#     4  10  22  40  67  97 140 180 245 299 369 437
#     4  11  23  43  71 105 144 198 250 305 374 447
#     4  10  22  42  68  98 148 190 244 310 376 438
#     4  11  22  42  70  99 134 189 247 302 371 448
#
# _framework density 26.783272
#
# number of rings (size 3 to 8) (size 9 to 14) (size 15 to 20)
#    0.000    1.333    4.444    1.333    0.000    0.000 
#    0.000    7.778    0.000    0.000    0.000    0.000 
#    0.000    0.000    0.000    0.000    0.000    0.000 
#
# Total GULP energy -100280.712857 kJ/mol
# GULP energy per Si atom -5571.150714 kJ/mol
# Density = 2.672231 g / cm^3
# Si number density = 26.783272 Si / 1000 Ang^3
#
#
#
# Elastic Constant Matrix: (Units=GPa)
#
#
# Indices 1 2 3 4 5 6 
#
# 1 178.4035 20.7135 74.3295 0.0001 13.2866 0.0000
# 2 20.7135 62.7136 40.5633 0.0005 9.7363 0.0005
# 3 74.3295 40.5633 252.3290 -0.0001 -27.9297 0.0001
# 4 0.0001 0.0005 -0.0001 28.1446 0.0000 -0.7003
# 5 13.2866 9.7363 -27.9297 0.0000 71.9765 0.0000
# 6 0.0000 0.0005 0.0001 -0.7003 0.0000 10.9596
#
#
#
# Elastic Compliance Matrix: (Units=1/GPa)
#
#
# Indices 1 2 3 4 5 6 
#
# 1 0.006692 -0.000543 -0.002103 0.000000 -0.001978 0.000000
# 2 -0.000543 0.018822 -0.003277 0.000000 -0.003717 -0.000001
# 3 -0.002103 -0.003277 0.005435 0.000000 0.002940 0.000000
# 4 0.000000 0.000000 0.000000 0.035587 0.000000 0.002274
# 5 -0.001978 -0.003717 0.002940 0.000000 0.015902 0.000000
# 6 0.000000 -0.000001 0.000000 0.002274 0.000000 0.091390
#
#
# Mechanical properties :
#
#
# Convention : Reuss Voigt Hill
#
# Bulk Modulus (GPa) = 52.35023 84.96207 68.65615
# Shear Modulus (GPa) = 26.03610 46.07213 36.05411
#
# Velocity S-wave (km/s) = 3.12124 4.15201 3.67296
# Velocity P-wave (km/s) = 5.70770 7.40111 6.60887
#
# Compressibility (1/GPa) = 0.01910211
#
# Stress axis : x y z
#
# Youngs Moduli (GPa) = 149.43818 53.13017 183.99884
#
# Poissons Ratio (x) = 0.02885 0.38692
# Poissons Ratio (y) = 0.08115 0.60300
# Poissons Ratio (z) = 0.31424 0.17412
#
# Static dielectric constant tensor:
#      x y z
#    x 2.220550 0.000000 0.104110 
#    y 0.000000 2.152090 0.000000 
#    z 0.104110 0.000000 2.261540 
# 
# From -- ./inp_files/207927.got.cif
#   From: 2010.05.17/outbox.cif.g08.bks.cpg/sg15_104_cif.got.tgz:207927.got - 2010.06.03 18:47:42.
