data_PCOD9289676
_publ_section_title
;
Structure prediction by ZEFSAII (Michael W. Deem and Ramdas Pophale) SiO2 
 PCOD9289676
Probable space group: C 2/C
;
_chemical_formula_sum "Si O2"
_cell_formula_units_Z 28
_cell_length_a 11.452863
_cell_length_b 20.075180
_cell_length_c 5.087601
_cell_angle_alpha 90.000000
_cell_angle_beta 80.328557
_cell_angle_gamma 90.000000
_cell_volume 1153.107474
_symmetry_space_group_name_H-M "C 2/C"
_symmetry_group_IT_number 15
_symmetry_cell_setting 'monoclinic'
loop_
_space_group_symop_operation_xyz
x,y,z
-x,y,1/2-z
-x,-y,-z
x,-y,1/2+z
1/2+x,1/2+y,z
1/2-x,1/2+y,1/2-z
1/2-x,1/2-y,-z
1/2+x,1/2-y,1/2+z
loop_
_atom_site_type_symbol
_atom_site_label
_atom_site_fract_x
_atom_site_fract_y
_atom_site_fract_z
Si Si1 0.803485 0.641574 0.517930
Si Si2 0.621819 0.454802 0.311407
Si Si3 0.577962 0.275081 0.954926
Si Si4 0.000000 0.452057 0.750000
O O1 0.733417 0.592321 0.735476
O O2 0.697734 0.682322 0.421452
O O3 0.882979 0.698915 0.617521
O O4 0.885984 0.595868 0.306469
O O5 0.500000 0.420784 0.250000
O O6 0.624577 0.483845 0.602511
O O7 0.500000 0.302591 0.750000
O O8 0.500000 0.273334 0.250000
O O9 0.000000 0.500000 0.500000
#
# Coordination Sequence:
#
# PCOD9289676 Si02
#       4
#     8   8   8   4
#     4  11  25  47  73 103 145 187 238 293 361 425
#     4  10  22  40  66  98 133 178 232 289 347 415
#     4  11  27  47  73 106 140 188 243 301 349 421
#     4  12  28  46  74 108 148 192 232 292 362 434
#
# _framework density 24.282209999999999
#
# number of rings (size 3 to 8) (size 9 to 14) (size 15 to 20)
#    0.000    1.143    1.429    2.571    2.000   14.857 
#    0.000    0.000    0.000    0.000    0.000    0.000 
#    0.000    0.000    0.000    0.000    0.000    0.000 
#
# Total GULP energy -78421.278058 kJ/mol
# GULP energy per Si atom -5601.519861 kJ/mol
# Density = 2.422694 g / cm^3
# Si number density = 24.282210 Si / 1000 Ang^3
#
#
#
# Elastic Constant Matrix: (Units=GPa)
#
#
# Indices 1 2 3 4 5 6 
#
# 1 141.4344 46.9885 47.4289 0.0000 -19.8456 0.0000
# 2 46.9885 121.4496 36.2395 0.0000 -28.2592 0.0000
# 3 47.4289 36.2395 100.4269 0.0000 -13.6341 0.0000
# 4 0.0000 0.0000 0.0000 -39.7350 0.0000 57.5962
# 5 -19.8456 -28.2592 -13.6341 0.0000 47.4619 0.0000
# 6 0.0000 0.0000 0.0000 57.5962 0.0000 -79.8735
#
#
#
# Elastic Compliance Matrix: (Units=1/GPa)
#
#
# Indices 1 2 3 4 5 6 
#
# 1 0.009124 -0.002177 -0.003310 0.000000 0.001568 0.000000
# 2 -0.002177 0.010890 -0.002232 0.000000 0.004932 0.000000
# 3 -0.003310 -0.002232 0.012443 0.000000 0.000862 0.000000
# 4 0.000000 0.000000 0.000000 0.556442 0.000000 0.401246
# 5 0.001568 0.004932 0.000862 0.000000 0.024909 0.000000
# 6 0.000000 0.000000 0.000000 0.401246 0.000000 0.276816
#
#
# Mechanical properties :
#
#
# Convention : Reuss Voigt Hill
#
# Bulk Modulus (GPa) = 58.76168 69.40273 64.08221
# Shear Modulus (GPa) = 5.48405 1.08094 3.28249
#
# Velocity S-wave (km/s) = 1.50445 0.66792 1.16393
# Velocity P-wave (km/s) = 5.22205 5.40727 5.31547
#
# Compressibility (1/GPa) = 0.01701789
#
# Stress axis : x y z
#
# Youngs Moduli (GPa) = 109.60209 91.82802 80.36530
#
# Poissons Ratio (x) = 0.19995 0.26604
# Poissons Ratio (y) = 0.23866 0.17935
# Poissons Ratio (z) = 0.36283 0.20493
#
# Static dielectric constant tensor:
#      x y z
#    x 2.496990 0.000000 -0.085660 
#    y 0.000000 1.956700 0.000000 
#    z -0.085660 0.000000 1.891760 
# 
# From -- ./inp_files/3446.got.cif
#   From: 2010.05.17/outbox.cif.g08.bks.cpg/sg15_2_cif.got.tgz:3446.got - 2010.06.03 18:47:42.
