data_PCOD9289810
_publ_section_title
;
Structure prediction by ZEFSAII (Michael W. Deem and Ramdas Pophale) SiO2 
 PCOD9289810
Probable space group: C 2/C
;
_chemical_formula_sum "Si O2"
_cell_formula_units_Z 48
_cell_length_a 7.931911
_cell_length_b 23.443750
_cell_length_c 12.901633
_cell_angle_alpha 90.000000
_cell_angle_beta 112.123957
_cell_angle_gamma 90.000000
_cell_volume 2222.463623
_symmetry_space_group_name_H-M "C 2/C"
_symmetry_group_IT_number 15
_symmetry_cell_setting 'monoclinic'
loop_
_space_group_symop_operation_xyz
x,y,z
-x,y,1/2-z
-x,-y,-z
x,-y,1/2+z
1/2+x,1/2+y,z
1/2-x,1/2+y,1/2-z
1/2-x,1/2-y,-z
1/2+x,1/2-y,1/2+z
loop_
_atom_site_type_symbol
_atom_site_label
_atom_site_fract_x
_atom_site_fract_y
_atom_site_fract_z
Si Si1 0.493154 0.744517 0.953351
Si Si2 0.299659 0.977717 0.475718
Si Si3 0.500000 0.547478 0.750000
Si Si4 0.000000 0.680631 0.250000
Si Si5 0.102418 0.683489 0.879854
Si Si6 0.808943 0.132559 0.441967
Si Si7 0.828225 0.921971 0.423545
O O1 0.484986 0.779262 0.845969
O O2 0.299079 0.713270 0.919961
O O3 0.505858 0.788612 0.051156
O O4 0.640150 0.693935 0.996960
O O5 0.160721 0.985323 0.347431
O O6 0.293775 0.911248 0.505734
O O7 0.500000 0.000000 0.500000
O O8 0.218763 0.014490 0.552245
O O9 0.600161 0.581134 0.678872
O O10 0.819964 0.643371 0.186134
O O11 0.152128 0.617000 0.900565
O O12 0.000000 0.694123 0.750000
O O13 0.004376 0.102603 0.469664
#
# Coordination Sequence:
#
# PCOD9289810 Si02
#       7
#     8   8   4   4   8   8   8
#     4  10  23  42  62 101 134 177 233 283 347 421
#     4  11  26  44  69 104 141 182 241 289 356 437
#     4  10  22  43  70  92 138 188 223 298 350 408
#     4  12  24  39  70  98 136 180 227 292 352 420
#     4  10  22  40  68  93 135 179 225 282 347 417
#     4  10  23  43  66  96 139 178 233 287 347 420
#     4  10  24  44  65 102 138 177 235 284 351 425
#
# _framework density 21.597653000000001
#
# number of rings (size 3 to 8) (size 9 to 14) (size 15 to 20)
#    0.000    1.667    0.000    3.500    4.667   10.000 
#    0.000    0.000    1.833    0.000    0.000    0.000 
#    0.000    0.000    0.000    0.000    0.000    0.000 
#
# Total GULP energy -134057.685827 kJ/mol
# GULP energy per Si atom -5585.736909 kJ/mol
# Density = 2.154850 g / cm^3
# Si number density = 21.597653 Si / 1000 Ang^3
#
#
#
# Elastic Constant Matrix: (Units=GPa)
#
#
# Indices 1 2 3 4 5 6 
#
# 1 102.7989 57.1747 52.2664 0.0000 4.2594 0.0000
# 2 57.1747 120.6125 66.3962 0.0000 -7.8578 0.0000
# 3 52.2664 66.3962 151.6593 0.0000 10.1564 0.0000
# 4 0.0000 0.0000 0.0000 26.0830 0.0000 5.8670
# 5 4.2594 -7.8578 10.1564 0.0000 29.1900 0.0000
# 6 0.0000 0.0000 0.0000 5.8670 0.0000 32.7353
#
#
#
# Elastic Compliance Matrix: (Units=1/GPa)
#
#
# Indices 1 2 3 4 5 6 
#
# 1 0.014111 -0.005665 -0.002194 0.000000 -0.002821 0.000000
# 2 -0.005665 0.013871 -0.004531 0.000000 0.006137 0.000000
# 3 -0.002194 -0.004531 0.009618 0.000000 -0.004246 0.000000
# 4 0.000000 0.000000 0.000000 0.039950 0.000000 -0.007160
# 5 -0.002821 0.006137 -0.004246 0.000000 0.037799 0.000000
# 6 0.000000 0.000000 0.000000 -0.007160 0.000000 0.031831
#
#
# Mechanical properties :
#
#
# Convention : Reuss Voigt Hill
#
# Bulk Modulus (GPa) = 78.00915 80.74948 79.37931
# Shear Modulus (GPa) = 28.37143 30.88388 29.62765
#
# Velocity S-wave (km/s) = 3.62834 3.78559 3.70780
# Velocity P-wave (km/s) = 7.33150 7.52176 7.42724
#
# Compressibility (1/GPa) = 0.01281901
#
# Stress axis : x y z
#
# Youngs Moduli (GPa) = 70.86715 72.09439 103.97219
#
# Poissons Ratio (x) = 0.40842 0.22811
# Poissons Ratio (y) = 0.40147 0.47112
# Poissons Ratio (z) = 0.15548 0.32667
#
# Static dielectric constant tensor:
#      x y z
#    x 1.666600 0.000000 0.097760 
#    y 0.000000 1.825430 0.000000 
#    z 0.097760 0.000000 1.692910 
# 
# From -- ./inp_files/79932.got.cif
#   From: 2010.05.17/outbox.cif.g08.bks.cpg/sg15_40_cif.got.tgz:79932.got - 2010.06.03 18:47:42.
