data_PCOD9289006
_publ_section_title
;
Structure prediction by ZEFSAII (Michael W. Deem and Ramdas Pophale) SiO2 
 PCOD9289006
Probable space group: C 2/C
;
_chemical_formula_sum "Si O2"
_cell_formula_units_Z 36
_cell_length_a 9.616807
_cell_length_b 17.048173
_cell_length_c 8.900578
_cell_angle_alpha 90.000000
_cell_angle_beta 118.509367
_cell_angle_gamma 90.000000
_cell_volume 1282.291909
_symmetry_space_group_name_H-M "C 2/C"
_symmetry_group_IT_number 15
_symmetry_cell_setting 'monoclinic'
loop_
_space_group_symop_operation_xyz
x,y,z
-x,y,1/2-z
-x,-y,-z
x,-y,1/2+z
1/2+x,1/2+y,z
1/2-x,1/2+y,1/2-z
1/2-x,1/2-y,-z
1/2+x,1/2-y,1/2+z
loop_
_atom_site_type_symbol
_atom_site_label
_atom_site_fract_x
_atom_site_fract_y
_atom_site_fract_z
Si Si1 0.724667 0.373863 0.373654
Si Si2 0.500000 0.998506 0.750000
Si Si3 0.904229 0.391033 0.937709
Si Si4 0.989818 0.158661 0.005973
Si Si5 0.750000 0.250000 0.000000
Si Si6 0.500000 0.477855 0.750000
O O1 0.913068 0.446106 0.088034
O O2 0.671884 0.342094 0.182351
O O3 0.630233 0.331743 0.459564
O O4 0.646428 0.460944 0.333290
O O5 0.621414 0.944095 0.722230
O O6 0.410749 0.131195 0.988183
O O7 0.772441 0.327167 0.899715
O O8 0.940514 0.232691 0.077011
O O9 0.002538 0.078938 0.106626
#
# Coordination Sequence:
#
# PCOD9289006 Si02
#       6
#     8   4   8   8   4   4
#     4  10  22  44  73 106 141 196 251 323 370 460
#     4  10  26  47  77 118 140 212 252 334 366 483
#     4  11  26  46  80 108 161 193 275 314 406 452
#     4  10  24  42  69 104 156 196 249 306 394 450
#     4  12  28  48  66 116 158 214 246 334 392 478
#     4  10  22  39  73 110 146 196 248 324 376 453
#
# _framework density 28.074731
#
# number of rings (size 3 to 8) (size 9 to 14) (size 15 to 20)
#    0.000    1.778    0.000    4.000   12.444    5.333 
#    0.000    0.000    0.000    4.000    0.000    0.000 
#    0.000    0.000    0.000    0.000    0.000    0.000 
#
# Total GULP energy -100469.198813 kJ/mol
# GULP energy per Si atom -5581.622156 kJ/mol
# Density = 2.801083 g / cm^3
# Si number density = 28.074731 Si / 1000 Ang^3
#
#
#
# Elastic Constant Matrix: (Units=GPa)
#
#
# Indices 1 2 3 4 5 6 
#
# 1 190.7550 32.3205 11.9147 0.0000 -17.2349 0.0000
# 2 32.3205 84.3608 12.2768 0.0000 -20.6320 0.0000
# 3 11.9147 12.2768 122.0241 0.0000 -17.2343 0.0000
# 4 0.0000 0.0000 0.0000 -62.2542 0.0000 -10.6575
# 5 -17.2349 -20.6320 -17.2343 0.0000 29.4919 0.0000
# 6 0.0000 0.0000 0.0000 -10.6575 0.0000 68.4655
#
#
#
# Elastic Compliance Matrix: (Units=1/GPa)
#
#
# Indices 1 2 3 4 5 6 
#
# 1 0.005721 -0.001658 -0.000091 0.000000 0.002131 0.000000
# 2 -0.001658 0.014781 -0.000002 0.000000 0.009371 0.000000
# 3 -0.000091 -0.000002 0.008934 0.000000 0.005166 0.000000
# 4 0.000000 0.000000 0.000000 -0.015646 0.000000 -0.002436
# 5 0.002131 0.009371 0.005166 0.000000 0.044727 0.000000
# 6 0.000000 0.000000 0.000000 -0.002436 0.000000 0.014227
#
#
# Mechanical properties :
#
#
# Convention : Reuss Voigt Hill
#
# Bulk Modulus (GPa) = 38.55716 56.68489 47.62103
# Shear Modulus (GPa) = 58.89974 29.84918 44.37446
#
# Velocity S-wave (km/s) = 4.58532 3.26422 3.97997
# Velocity P-wave (km/s) = 6.46507 5.86868 6.17408
#
# Compressibility (1/GPa) = 0.02593552
#
# Stress axis : x y z
#
# Youngs Moduli (GPa) = 174.78295 67.65456 111.93405
#
# Poissons Ratio (x) = 0.11215 0.01018
# Poissons Ratio (y) = 0.28973 0.00020
# Poissons Ratio (z) = 0.01589 0.00012
#
# Static dielectric constant tensor:
#      x y z
#    x 2.150810 0.000000 0.032930 
#    y 0.000000 0.884250 0.000000 
#    z 0.032930 0.000000 2.275300 
# 
# From -- ./inp_files/28761.got.cif
#   From: 2010.05.17/outbox.cif.g08.bks.cpg/sg15_15_cif.got.tgz:28761.got - 2010.06.03 18:47:42.
