data_PCOD9289095
_publ_section_title
;
Structure prediction by ZEFSAII (Michael W. Deem and Ramdas Pophale) SiO2 
 PCOD9289095
Probable space group: C 2/C
;
_chemical_formula_sum "Si O2"
_cell_formula_units_Z 40
_cell_length_a 13.249225
_cell_length_b 10.627143
_cell_length_c 14.318730
_cell_angle_alpha 90.000000
_cell_angle_beta 53.218953
_cell_angle_gamma 90.000000
_cell_volume 1614.751805
_symmetry_space_group_name_H-M "C 2/C"
_symmetry_group_IT_number 15
_symmetry_cell_setting 'monoclinic'
loop_
_space_group_symop_operation_xyz
x,y,z
-x,y,1/2-z
-x,-y,-z
x,-y,1/2+z
1/2+x,1/2+y,z
1/2-x,1/2+y,1/2-z
1/2-x,1/2-y,-z
1/2+x,1/2-y,1/2+z
loop_
_atom_site_type_symbol
_atom_site_label
_atom_site_fract_x
_atom_site_fract_y
_atom_site_fract_z
Si Si1 0.495021 0.638486 0.859410
Si Si2 0.184492 0.217320 0.913676
Si Si3 0.752012 0.563286 0.412327
Si Si4 0.614636 0.974654 0.004401
Si Si5 0.175393 0.918431 0.746475
O O1 0.500000 0.681853 0.750000
O O2 0.591653 0.703240 0.876750
O O3 0.545981 0.492287 0.830786
O O4 0.356790 0.644957 0.979596
O O5 0.204959 0.081855 0.944091
O O6 0.313809 0.280443 0.803938
O O7 0.122870 0.323382 0.013482
O O8 0.876152 0.556112 0.407208
O O9 0.748360 0.588593 0.304672
O O10 0.740484 0.000375 0.872472
O O11 0.500000 0.000000 0.000000
#
# Coordination Sequence:
#
# PCOD9289095 Si02
#       5
#     8   8   8   8   8
#     4  11  20  40  64  90 121 162 203 251 300 366
#     4   9  21  39  59  89 123 151 203 249 293 365
#     4  11  21  42  67  85 125 164 200 255 300 357
#     4  10  22  40  60  88 126 156 205 249 303 358
#     4   9  21  39  60  91 122 153 205 244 303 358
#
# _framework density 24.771608000000001
#
# number of rings (size 3 to 8) (size 9 to 14) (size 15 to 20)
#    1.200    0.800    2.000    3.000    0.000    2.400 
#   14.400    2.000    8.800    0.000    0.000    0.000 
#    0.000    0.000    0.000    0.000    0.000    0.000 
#
# Total GULP energy -111650.366859 kJ/mol
# GULP energy per Si atom -5582.518343 kJ/mol
# Density = 2.471523 g / cm^3
# Si number density = 24.771608 Si / 1000 Ang^3
#
#
#
# Elastic Constant Matrix: (Units=GPa)
#
#
# Indices 1 2 3 4 5 6 
#
# 1 92.5311 0.7801 20.0807 0.0000 34.1094 0.0000
# 2 0.7801 72.4118 13.5510 0.0000 -7.3437 0.0000
# 3 20.0807 13.5510 63.8313 0.0000 31.2299 0.0000
# 4 0.0000 0.0000 0.0000 27.7662 0.0000 3.8901
# 5 34.1094 -7.3437 31.2299 0.0000 48.7320 0.0000
# 6 0.0000 0.0000 0.0000 3.8901 0.0000 18.0234
#
#
#
# Elastic Compliance Matrix: (Units=1/GPa)
#
#
# Indices 1 2 3 4 5 6 
#
# 1 0.014730 -0.001540 0.001240 0.000000 -0.011337 0.000000
# 2 -0.001540 0.015860 -0.006671 0.000000 0.007743 0.000000
# 3 0.001240 -0.006671 0.025652 0.000000 -0.018312 0.000000
# 4 0.000000 0.000000 0.000000 0.037138 0.000000 -0.008016
# 5 -0.011337 0.007743 -0.018312 0.000000 0.041357 0.000000
# 6 0.000000 0.000000 0.000000 -0.008016 0.000000 0.057213
#
#
# Mechanical properties :
#
#
# Convention : Reuss Voigt Hill
#
# Bulk Modulus (GPa) = 23.64133 33.06640 28.35387
# Shear Modulus (GPa) = 22.72792 31.86182 27.29487
#
# Velocity S-wave (km/s) = 3.03231 3.59029 3.32303
# Velocity P-wave (km/s) = 4.67165 5.52850 5.11804
#
# Compressibility (1/GPa) = 0.04229880
#
# Stress axis : x y z
#
# Youngs Moduli (GPa) = 67.88794 63.05110 38.98380
#
# Poissons Ratio (x) = 0.09712 -0.04833
# Poissons Ratio (y) = 0.10457 0.26005
# Poissons Ratio (z) = -0.08416 0.42060
#
# Static dielectric constant tensor:
#      x y z
#    x 2.004890 0.000000 0.009710 
#    y 0.000000 1.976960 0.000000 
#    z 0.009710 0.000000 1.940410 
# 
# From -- ./inp_files/151205.got.cif
#   From: 2010.05.17/outbox.cif.g08.bks.cpg/sg15_76_cif.got.tgz:151205.got - 2010.06.03 18:47:42.
