data_PCOD9289324
_publ_section_title
;
Structure prediction by ZEFSAII (Michael W. Deem and Ramdas Pophale) SiO2 
 PCOD9289324
Probable space group: C 2/C
;
_chemical_formula_sum "Si O2"
_cell_formula_units_Z 36
_cell_length_a 31.471659
_cell_length_b 5.276329
_cell_length_c 29.505372
_cell_angle_alpha 90.000000
_cell_angle_beta 15.824087
_cell_angle_gamma 90.000000
_cell_volume 1336.021444
_symmetry_space_group_name_H-M "C 2/C"
_symmetry_group_IT_number 15
_symmetry_cell_setting 'monoclinic'
loop_
_space_group_symop_operation_xyz
x,y,z
-x,y,1/2-z
-x,-y,-z
x,-y,1/2+z
1/2+x,1/2+y,z
1/2-x,1/2+y,1/2-z
1/2-x,1/2-y,-z
1/2+x,1/2-y,1/2+z
loop_
_atom_site_type_symbol
_atom_site_label
_atom_site_fract_x
_atom_site_fract_y
_atom_site_fract_z
Si Si1 0.000000 0.909624 0.750000
Si Si2 0.990327 0.470227 0.384186
Si Si3 0.853317 0.228517 0.093141
Si Si4 0.273236 0.343282 0.912833
Si Si5 0.142045 0.769225 0.811066
O O1 0.133807 0.748077 0.588415
O O2 0.103130 0.020191 0.686177
O O3 0.973954 0.731890 0.428209
O O4 0.826652 0.452746 0.525809
O O5 0.126839 0.394409 0.209055
O O6 0.024738 0.274347 0.390011
O O7 0.928785 0.238594 0.065647
O O8 0.741557 0.474820 0.206459
O O9 0.751290 0.978158 0.194997
#
# Coordination Sequence:
#
# PCOD9289324 Si02
#       5
#     4   8   8   8   8
#     4   8  16  34  56 106 128 178 210 282 358 404
#     4  11  19  37  60  96 134 174 230 277 330 400
#     4  10  22  40  63  94 138 184 229 279 328 385
#     4   9  18  32  64  94 142 168 226 278 342 415
#     4  10  22  40  63  94 138 184 229 279 328 385
#
# _framework density 26.945674
#
# number of rings (size 3 to 8) (size 9 to 14) (size 15 to 20)
#    0.000    2.222    2.222    0.667    0.000    1.778 
#    0.000    6.667    0.000    0.000    0.000   77.778 
#    0.000    0.000    0.000    0.000    0.000    0.000 
#
# Total GULP energy -100553.228676 kJ/mol
# GULP energy per Si atom -5586.290482 kJ/mol
# Density = 2.688434 g / cm^3
# Si number density = 26.945674 Si / 1000 Ang^3
#
#
#
# Elastic Constant Matrix: (Units=GPa)
#
#
# Indices 1 2 3 4 5 6 
#
# 1 206.0938 32.9771 68.7547 -0.0086 -28.8348 -0.0224
# 2 32.9771 157.4821 51.7805 -0.6537 -12.9617 0.2450
# 3 68.7547 51.7805 156.3799 -0.0589 6.5001 0.0412
# 4 -0.0086 -0.6537 -0.0589 39.5181 0.0476 -13.9445
# 5 -28.8348 -12.9617 6.5001 0.0476 64.8505 -0.0280
# 6 -0.0224 0.2450 0.0412 -13.9445 -0.0280 13.5490
#
#
#
# Elastic Compliance Matrix: (Units=1/GPa)
#
#
# Indices 1 2 3 4 5 6 
#
# 1 0.006240 -0.000127 -0.002827 0.000002 0.003032 0.000029
# 2 -0.000127 0.007313 -0.002434 0.000114 0.001649 -0.000005
# 3 -0.002827 -0.002434 0.008552 -0.000035 -0.002601 -0.000028
# 4 0.000002 0.000114 -0.000035 0.039737 0.000015 0.040895
# 5 0.003032 0.001649 -0.002601 0.000015 0.017359 0.000035
# 6 0.000029 -0.000005 -0.000028 0.040895 0.000035 0.115894
#
#
# Mechanical properties :
#
#
# Convention : Reuss Voigt Hill
#
# Bulk Modulus (GPa) = 88.28192 91.88671 90.08432
# Shear Modulus (GPa) = 23.84946 48.01311 35.93128
#
# Velocity S-wave (km/s) = 2.97828 4.22577 3.65563
# Velocity P-wave (km/s) = 6.68288 7.61474 7.16398
#
# Compressibility (1/GPa) = 0.01132735
#
# Stress axis : x y z
#
# Youngs Moduli (GPa) = 160.25442 136.74088 116.93429
#
# Poissons Ratio (x) = 0.01743 0.33062
# Poissons Ratio (y) = 0.02043 0.28461
# Poissons Ratio (z) = 0.45310 0.33282
#
# Static dielectric constant tensor:
#      x y z
#    x 2.241090 -0.000010 0.016940 
#    y -0.000010 2.094430 0.000250 
#    z 0.016940 0.000250 2.142940 
# 
# From -- ./inp_files/319889.got.cif
#   From: 2010.05.17/outbox.cif.g08.bks.cpg/sg15_160_cif.got.tgz:319889.got - 2010.06.03 18:47:42.
