data_PCOD9289823
_publ_section_title
;
Structure prediction by ZEFSAII (Michael W. Deem and Ramdas Pophale) SiO2 
 PCOD9289823
Probable space group: C 2/C
;
_chemical_formula_sum "Si O2"
_cell_formula_units_Z 40
_cell_length_a 9.218967
_cell_length_b 18.402784
_cell_length_c 10.789964
_cell_angle_alpha 90.000000
_cell_angle_beta 107.066504
_cell_angle_gamma 90.000000
_cell_volume 1749.958156
_symmetry_space_group_name_H-M "C 2/C"
_symmetry_group_IT_number 15
_symmetry_cell_setting 'monoclinic'
loop_
_space_group_symop_operation_xyz
x,y,z
-x,y,1/2-z
-x,-y,-z
x,-y,1/2+z
1/2+x,1/2+y,z
1/2-x,1/2+y,1/2-z
1/2-x,1/2-y,-z
1/2+x,1/2-y,1/2+z
loop_
_atom_site_type_symbol
_atom_site_label
_atom_site_fract_x
_atom_site_fract_y
_atom_site_fract_z
Si Si1 0.729731 0.041685 0.820468
Si Si2 0.569250 0.276421 0.638736
Si Si3 0.005258 0.852923 0.383520
Si Si4 0.986627 0.390131 0.427579
Si Si5 0.703564 0.881389 0.902196
O O1 0.891627 0.079737 0.848246
O O2 0.625748 0.056467 0.674902
O O3 0.647614 0.081920 0.917017
O O4 0.735758 0.956033 0.841671
O O5 0.500000 0.303061 0.750000
O O6 0.473337 0.304021 0.495754
O O7 0.558066 0.189977 0.632107
O O8 0.736662 0.311281 0.658613
O O9 0.000000 0.814398 0.250000
O O10 0.175577 0.878170 0.454283
O O11 0.956720 0.386028 0.567567
#
# Coordination Sequence:
#
# PCOD9289823 Si02
#       5
#     8   8   8   8   8
#     4  11  21  39  65  93 129 179 210 274 329 395
#     4  10  22  41  67  99 130 172 218 280 321 393
#     4  10  22  40  68  95 132 169 222 268 331 386
#     4  11  22  42  66  89 142 169 219 270 347 376
#     4  10  23  38  67  93 130 169 226 262 329 393
#
# _framework density 22.857689000000001
#
# number of rings (size 3 to 8) (size 9 to 14) (size 15 to 20)
#    1.200    0.400    4.000    1.800    0.000    3.200 
#    0.000    0.000    8.800    0.000    0.000    0.000 
#    0.000    0.000    0.000    0.000    0.000    0.000 
#
# Total GULP energy -111542.714509 kJ/mol
# GULP energy per Si atom -5577.135725 kJ/mol
# Density = 2.280566 g / cm^3
# Si number density = 22.857689 Si / 1000 Ang^3
#
#
#
# Elastic Constant Matrix: (Units=GPa)
#
#
# Indices 1 2 3 4 5 6 
#
# 1 58.7259 0.8594 1.7019 0.0000 -14.3065 0.0000
# 2 0.8594 106.6522 23.9762 0.0000 -1.0240 0.0000
# 3 1.7019 23.9762 95.1352 0.0000 -23.3889 0.0000
# 4 0.0000 0.0000 0.0000 -7.7268 0.0000 -0.2343
# 5 -14.3065 -1.0240 -23.3889 0.0000 30.6736 0.0000
# 6 0.0000 0.0000 0.0000 -0.2343 0.0000 27.6854
#
#
#
# Elastic Compliance Matrix: (Units=1/GPa)
#
#
# Indices 1 2 3 4 5 6 
#
# 1 0.019663 -0.000620 0.002528 0.000000 0.011078 0.000000
# 2 -0.000620 0.010054 -0.003091 0.000000 -0.002310 0.000000
# 3 0.002528 -0.003091 0.014165 0.000000 0.011877 0.000000
# 4 0.000000 0.000000 0.000000 -0.129387 0.000000 -0.001095
# 5 0.011078 -0.002310 0.011877 0.000000 0.046747 0.000000
# 6 0.000000 0.000000 0.000000 -0.001095 0.000000 0.036111
#
#
# Mechanical properties :
#
#
# Convention : Reuss Voigt Hill
#
# Bulk Modulus (GPa) = 24.08732 34.84315 29.46523
# Shear Modulus (GPa) = 368.80525 25.72483 197.26504
#
# Velocity S-wave (km/s) = 12.71608 3.35839 9.29993
# Velocity P-wave (km/s) = 15.03859 5.50590 11.32418
#
# Compressibility (1/GPa) = 0.04151562
#
# Stress axis : x y z
#
# Youngs Moduli (GPa) = 50.85740 99.46379 70.59665
#
# Poissons Ratio (x) = 0.06171 -0.17848
# Poissons Ratio (y) = 0.03155 0.21820
# Poissons Ratio (z) = -0.12857 0.30742
#
# Static dielectric constant tensor:
#      x y z
#    x 1.878380 0.000000 -0.047620 
#    y 0.000000 1.812350 0.000000 
#    z -0.047620 0.000000 1.761930 
# 
# From -- ./inp_files/76930.got.cif
#   From: 2010.05.17/outbox.cif.g08.bks.cpg/sg15_39_cif.got.tgz:76930.got - 2010.06.03 18:47:42.
