data_PCOD9289780
_publ_section_title
;
Structure prediction by ZEFSAII (Michael W. Deem and Ramdas Pophale) SiO2 
 PCOD9289780
Probable space group: C 2/C
;
_chemical_formula_sum "Si O2"
_cell_formula_units_Z 44
_cell_length_a 12.699924
_cell_length_b 21.278363
_cell_length_c 8.297622
_cell_angle_alpha 90.000000
_cell_angle_beta 118.227865
_cell_angle_gamma 90.000000
_cell_volume 1975.627832
_symmetry_space_group_name_H-M "C 2/C"
_symmetry_group_IT_number 15
_symmetry_cell_setting 'monoclinic'
loop_
_space_group_symop_operation_xyz
x,y,z
-x,y,1/2-z
-x,-y,-z
x,-y,1/2+z
1/2+x,1/2+y,z
1/2-x,1/2+y,1/2-z
1/2-x,1/2-y,-z
1/2+x,1/2-y,1/2+z
loop_
_atom_site_type_symbol
_atom_site_label
_atom_site_fract_x
_atom_site_fract_y
_atom_site_fract_z
Si Si1 0.641373 0.315188 0.094593
Si Si2 0.176209 0.687245 0.499932
Si Si3 0.903869 0.326655 0.906077
Si Si4 0.367931 0.474640 0.952576
Si Si5 0.264197 0.412574 0.559900
Si Si6 0.000000 0.119585 0.750000
O O1 0.746992 0.335859 0.293252
O O2 0.646113 0.240914 0.073062
O O3 0.527506 0.336440 0.117584
O O4 0.653724 0.355477 0.943951
O O5 0.250000 0.750000 0.500000
O O6 0.155694 0.655919 0.310189
O O7 0.042044 0.688261 0.472416
O O8 0.864483 0.381181 0.999526
O O9 0.315515 0.439866 0.761741
O O10 0.500000 0.500000 0.000000
O O11 0.282884 0.531121 0.947325
O O12 0.393889 0.426341 0.116925
#
# Coordination Sequence:
#
# PCOD9289780 Si02
#       6
#     8   8   8   8   8   4
#     4  11  22  38  64 104 139 180 226 291 358 426
#     4   9  19  41  63  96 140 179 225 269 343 442
#     4  10  22  40  68 102 138 186 224 286 366 421
#     4  12  23  43  63 100 132 188 244 294 348 409
#     4  12  24  41  66  97 141 175 237 301 345 423
#     4  12  22  40  70  96 136 182 238 292 354 410
#
# _framework density 22.271401999999998
#
# number of rings (size 3 to 8) (size 9 to 14) (size 15 to 20)
#    0.000    1.091    3.636    3.818    0.000    2.182 
#    0.000    0.000    0.000   22.909    0.000    0.000 
#    0.000    0.000    0.000    0.000    0.000    0.000 
#
# Total GULP energy -122781.349835 kJ/mol
# GULP energy per Si atom -5580.970447 kJ/mol
# Density = 2.222071 g / cm^3
# Si number density = 22.271402 Si / 1000 Ang^3
#
#
#
# Elastic Constant Matrix: (Units=GPa)
#
#
# Indices 1 2 3 4 5 6 
#
# 1 133.8557 66.3719 29.4522 0.0000 -14.3884 0.0000
# 2 66.3719 119.5523 58.8377 0.0000 -15.9902 0.0000
# 3 29.4522 58.8377 57.5116 0.0000 -9.7567 0.0000
# 4 0.0000 0.0000 0.0000 32.4419 0.0000 -15.6343
# 5 -14.3884 -15.9902 -9.7567 0.0000 30.2144 0.0000
# 6 0.0000 0.0000 0.0000 -15.6343 0.0000 39.0485
#
#
#
# Elastic Compliance Matrix: (Units=1/GPa)
#
#
# Indices 1 2 3 4 5 6 
#
# 1 0.010474 -0.006178 0.001320 0.000000 0.002145 0.000000
# 2 -0.006178 0.020857 -0.017775 0.000000 0.002357 0.000000
# 3 0.001320 -0.017775 0.035343 0.000000 0.002635 0.000000
# 4 0.000000 0.000000 0.000000 0.038194 0.000000 0.015292
# 5 0.002145 0.002357 0.002635 0.000000 0.036216 0.000000
# 6 0.000000 0.000000 0.000000 0.015292 0.000000 0.031732
#
#
# Mechanical properties :
#
#
# Convention : Reuss Voigt Hill
#
# Bulk Modulus (GPa) = 46.70718 68.91593 57.81156
# Shear Modulus (GPa) = 22.20076 30.75814 26.47945
#
# Velocity S-wave (km/s) = 3.16068 3.72029 3.45185
# Velocity P-wave (km/s) = 5.85980 7.03313 6.47311
#
# Compressibility (1/GPa) = 0.02140999
#
# Stress axis : x y z
#
# Youngs Moduli (GPa) = 95.47453 47.94497 28.29393
#
# Poissons Ratio (x) = 0.29619 -0.03735
# Poissons Ratio (y) = 0.58981 0.50292
# Poissons Ratio (z) = -0.12604 0.85221
#
# Static dielectric constant tensor:
#      x y z
#    x 1.914200 0.000000 -0.032960 
#    y 0.000000 1.861860 0.000000 
#    z -0.032960 0.000000 1.834060 
# 
# From -- ./inp_files/31036.got.cif
#   From: 2010.05.17/outbox.cif.g08.bks.cpg/sg15_16_cif.got.tgz:31036.got - 2010.06.03 18:47:42.
