data_PCOD9289302
_publ_section_title
;
Structure prediction by ZEFSAII (Michael W. Deem and Ramdas Pophale) SiO2 
 PCOD9289302
Probable space group: C 2/C
;
_chemical_formula_sum "Si O2"
_cell_formula_units_Z 44
_cell_length_a 22.353914
_cell_length_b 19.704042
_cell_length_c 5.013168
_cell_angle_alpha 90.000000
_cell_angle_beta 64.960653
_cell_angle_gamma 90.000000
_cell_volume 2000.588058
_symmetry_space_group_name_H-M "C 2/C"
_symmetry_group_IT_number 15
_symmetry_cell_setting 'monoclinic'
loop_
_space_group_symop_operation_xyz
x,y,z
-x,y,1/2-z
-x,-y,-z
x,-y,1/2+z
1/2+x,1/2+y,z
1/2-x,1/2+y,1/2-z
1/2-x,1/2-y,-z
1/2+x,1/2-y,1/2+z
loop_
_atom_site_type_symbol
_atom_site_label
_atom_site_fract_x
_atom_site_fract_y
_atom_site_fract_z
Si Si1 0.319587 0.652686 0.853872
Si Si2 0.823196 0.304256 0.738852
Si Si3 0.760912 0.958720 0.081935
Si Si4 0.131925 0.379520 0.342849
Si Si5 0.000000 0.450330 0.750000
Si Si6 0.921812 0.951346 0.401054
O O1 0.336995 0.724813 0.688029
O O2 0.297699 0.602740 0.656059
O O3 0.377711 0.614009 0.904343
O O4 0.253795 0.673192 0.150454
O O5 0.866377 0.348345 0.454566
O O6 0.839197 0.323722 0.011502
O O7 0.683617 0.941369 0.248259
O O8 0.774421 0.022423 0.251408
O O9 0.063358 0.403860 0.587297
O O10 0.000000 0.500000 0.500000
O O11 0.000000 0.933688 0.250000
O O12 0.909854 0.988660 0.705918
#
# Coordination Sequence:
#
# PCOD9289302 Si02
#       6
#     8   8   8   8   4   8
#     4  10  22  40  64  92 129 172 212 262 332 380
#     4  10  24  40  62  92 129 169 213 264 315 391
#     4  11  21  34  58  92 123 156 204 260 312 375
#     4  11  23  42  61  92 130 163 213 263 316 389
#     4  12  24  42  70  92 126 172 210 268 332 384
#     4  10  22  40  63  92 127 165 216 270 322 386
#
# _framework density 21.993535000000001
#
# number of rings (size 3 to 8) (size 9 to 14) (size 15 to 20)
#    0.000    1.455    0.000    5.455    0.000   12.364 
#    1.636    0.000    0.000    0.000    0.000    0.000 
#    0.000    0.000    0.000    0.000    0.000    0.000 
#
# Total GULP energy -123071.832167 kJ/mol
# GULP energy per Si atom -5594.174189 kJ/mol
# Density = 2.194348 g / cm^3
# Si number density = 21.993535 Si / 1000 Ang^3
#
#
#
# Elastic Constant Matrix: (Units=GPa)
#
#
# Indices 1 2 3 4 5 6 
#
# 1 100.8477 49.5073 19.9985 0.0000 -18.7288 0.0000
# 2 49.5073 130.3271 21.9695 0.0000 -6.3983 0.0000
# 3 19.9985 21.9695 103.0498 0.0000 4.7707 0.0000
# 4 0.0000 0.0000 0.0000 29.5192 0.0000 0.2628
# 5 -18.7288 -6.3983 4.7707 0.0000 40.6307 0.0000
# 6 0.0000 0.0000 0.0000 0.2628 0.0000 29.1362
#
#
#
# Elastic Compliance Matrix: (Units=1/GPa)
#
#
# Indices 1 2 3 4 5 6 
#
# 1 0.013613 -0.004561 -0.001937 0.000000 0.005784 0.000000
# 2 -0.004561 0.009574 -0.001135 0.000000 -0.000461 0.000000
# 3 -0.001937 -0.001135 0.010428 0.000000 -0.002296 0.000000
# 4 0.000000 0.000000 0.000000 0.033879 0.000000 -0.000306
# 5 0.005784 -0.000461 -0.002296 0.000000 0.027475 0.000000
# 6 0.000000 0.000000 0.000000 -0.000306 0.000000 0.034324
#
#
# Mechanical properties :
#
#
# Convention : Reuss Voigt Hill
#
# Bulk Modulus (GPa) = 54.49566 57.46394 55.97980
# Shear Modulus (GPa) = 33.18373 36.04050 34.61212
#
# Velocity S-wave (km/s) = 3.88853 4.05246 3.97134
# Velocity P-wave (km/s) = 6.70766 6.93404 6.82179
#
# Compressibility (1/GPa) = 0.01835009
#
# Stress axis : x y z
#
# Youngs Moduli (GPa) = 73.45782 104.44848 95.89353
#
# Poissons Ratio (x) = 0.47636 0.18578
# Poissons Ratio (y) = 0.33502 0.10881
# Poissons Ratio (z) = 0.14231 0.11852
#
# Static dielectric constant tensor:
#      x y z
#    x 1.863500 0.000000 -0.003970 
#    y 0.000000 1.636510 0.000000 
#    z -0.003970 0.000000 1.826740 
# 
# From -- ./inp_files/12885.got.cif
#   From: 2010.05.17/outbox.cif.g08.bks.cpg/sg15_7_cif.got.tgz:12885.got - 2010.06.03 18:47:42.
