data_PCOD9289047
_publ_section_title
;
Structure prediction by ZEFSAII (Michael W. Deem and Ramdas Pophale) SiO2 
 PCOD9289047
Probable space group: C 2/C
;
_chemical_formula_sum "Si O2"
_cell_formula_units_Z 52
_cell_length_a 6.589898
_cell_length_b 20.808187
_cell_length_c 24.371075
_cell_angle_alpha 90.000000
_cell_angle_beta 57.501324
_cell_angle_gamma 90.000000
_cell_volume 2818.533532
_symmetry_space_group_name_H-M "C 2/C"
_symmetry_group_IT_number 15
_symmetry_cell_setting 'monoclinic'
loop_
_space_group_symop_operation_xyz
x,y,z
-x,y,1/2-z
-x,-y,-z
x,-y,1/2+z
1/2+x,1/2+y,z
1/2-x,1/2+y,1/2-z
1/2-x,1/2-y,-z
1/2+x,1/2-y,1/2+z
loop_
_atom_site_type_symbol
_atom_site_label
_atom_site_fract_x
_atom_site_fract_y
_atom_site_fract_z
Si Si1 0.467114 0.763865 0.547442
Si Si2 0.662396 0.050897 0.941116
Si Si3 0.503243 0.529102 0.187453
Si Si4 0.414589 0.872635 0.642935
Si Si5 0.864000 0.068336 0.022975
Si Si6 0.706880 0.845956 0.031007
Si Si7 0.000000 0.591537 0.250000
O O1 0.435388 0.807407 0.605819
O O2 0.390374 0.805509 0.505755
O O3 0.294884 0.701286 0.566686
O O4 0.750000 0.750000 0.500000
O O5 0.490202 0.098140 0.931742
O O6 0.853924 0.015355 0.875426
O O7 0.802754 0.087426 0.969319
O O8 0.500000 0.000000 0.000000
O O9 0.500000 0.501933 0.250000
O O10 0.658692 0.594478 0.169188
O O11 0.235072 0.547075 0.208770
O O12 0.615072 0.923536 0.591435
O O13 0.457972 0.867475 0.701308
O O14 0.050975 0.117433 0.022129
O O15 0.000000 0.000000 0.000000
#
# Coordination Sequence:
#
# PCOD9289047 Si02
#       7
#     8   8   8   8   8   8   4
#     4  11  22  38  59  91 127 160 206 260 315 377
#     4  12  20  35  60  94 130 163 206 258 315 382
#     4  10  22  40  58  94 128 164 207 256 323 389
#     4  11  21  37  57  89 127 158 209 258 316 380
#     4  12  21  32  59  93 129 160 200 260 320 374
#     4  11  22  35  56  95 124 164 196 257 319 365
#     4  10  24  36  60  84 130 168 200 256 324 384
#
# _framework density 18.449310000000001
#
# number of rings (size 3 to 8) (size 9 to 14) (size 15 to 20)
#    0.000    0.923    6.154    0.923    2.154    1.231 
#    0.000    0.000    0.000    0.000   38.000    0.000 
#    0.000    0.000    0.000    0.000    0.000    0.000 
#
# Total GULP energy -145061.188686 kJ/mol
# GULP energy per Si atom -5579.276488 kJ/mol
# Density = 1.840732 g / cm^3
# Si number density = 18.449310 Si / 1000 Ang^3
#
#
#
# Elastic Constant Matrix: (Units=GPa)
#
#
# Indices 1 2 3 4 5 6 
#
# 1 143.9105 52.4857 50.5869 0.0000 -13.5709 0.0000
# 2 52.4857 84.6829 42.1893 0.0000 -3.2350 0.0000
# 3 50.5869 42.1893 114.0437 0.0000 -1.2806 0.0000
# 4 0.0000 0.0000 0.0000 30.4625 0.0000 1.2765
# 5 -13.5709 -3.2350 -1.2806 0.0000 33.8283 0.0000
# 6 0.0000 0.0000 0.0000 1.2765 0.0000 39.6073
#
#
#
# Elastic Compliance Matrix: (Units=1/GPa)
#
#
# Indices 1 2 3 4 5 6 
#
# 1 0.009908 -0.004707 -0.002615 0.000000 0.003426 0.000000
# 2 -0.004707 0.016761 -0.004117 0.000000 -0.000441 0.000000
# 3 -0.002615 -0.004117 0.011440 0.000000 -0.001010 0.000000
# 4 0.000000 0.000000 0.000000 0.032872 0.000000 -0.001059
# 5 0.003426 -0.000441 -0.001010 0.000000 0.030855 0.000000
# 6 0.000000 0.000000 0.000000 -0.001059 0.000000 0.025282
#
#
# Mechanical properties :
#
#
# Convention : Reuss Voigt Hill
#
# Bulk Modulus (GPa) = 65.66119 70.35121 68.00620
# Shear Modulus (GPa) = 32.24291 33.93797 33.09044
#
# Velocity S-wave (km/s) = 4.18502 4.29362 4.23967
# Velocity P-wave (km/s) = 7.68244 7.92434 7.80433
#
# Compressibility (1/GPa) = 0.01522970
#
# Stress axis : x y z
#
# Youngs Moduli (GPa) = 100.93129 59.66371 87.40957
#
# Poissons Ratio (x) = 0.28084 0.22858
# Poissons Ratio (y) = 0.47509 0.35990
# Poissons Ratio (z) = 0.26394 0.24566
#
# Static dielectric constant tensor:
#      x y z
#    x 1.687110 0.000000 0.006630 
#    y 0.000000 1.685050 0.000000 
#    z 0.006630 0.000000 1.626840 
# 
# From -- ./inp_files/227588.got.cif
#   From: 2010.05.17/outbox.cif.g08.bks.cpg/sg15_114_cif.got.tgz:227588.got - 2010.06.03 18:47:42.
