data_PCOD9289000
_publ_section_title
;
Structure prediction by ZEFSAII (Michael W. Deem and Ramdas Pophale) SiO2 
 PCOD9289000
Probable space group: C 2/C
;
_chemical_formula_sum "Si O2"
_cell_formula_units_Z 40
_cell_length_a 14.639853
_cell_length_b 14.179712
_cell_length_c 11.077420
_cell_angle_alpha 90.000000
_cell_angle_beta 52.883564
_cell_angle_gamma 90.000000
_cell_volume 1833.685680
_symmetry_space_group_name_H-M "C 2/C"
_symmetry_group_IT_number 15
_symmetry_cell_setting 'monoclinic'
loop_
_space_group_symop_operation_xyz
x,y,z
-x,y,1/2-z
-x,-y,-z
x,-y,1/2+z
1/2+x,1/2+y,z
1/2-x,1/2+y,1/2-z
1/2-x,1/2-y,-z
1/2+x,1/2-y,1/2+z
loop_
_atom_site_type_symbol
_atom_site_label
_atom_site_fract_x
_atom_site_fract_y
_atom_site_fract_z
Si Si1 0.919058 0.229492 0.920657
Si Si2 0.114692 0.754464 0.576531
Si Si3 0.746095 0.104955 0.905220
Si Si4 0.063261 0.452135 0.067715
Si Si5 0.576402 0.591445 0.940408
O O1 0.836669 0.150161 0.926628
O O2 0.000000 0.270350 0.750000
O O3 0.001171 0.175898 0.944843
O O4 0.843746 0.309902 0.041061
O O5 0.250000 0.750000 0.500000
O O6 0.095103 0.657118 0.514951
O O7 0.109264 0.863553 0.539234
O O8 0.000000 0.748194 0.750000
O O9 0.813420 0.080441 0.730677
O O10 0.676445 0.014286 0.000054
O O11 0.000000 0.455932 0.250000
O O12 0.000000 0.500000 0.000000
O O13 0.500000 0.500000 0.000000
#
# Coordination Sequence:
#
# PCOD9289000 Si02
#       5
#     8   8   8   8   8
#     4   9  20  40  62 100 130 166 229 297 359 419
#     4  11  29  49  71 104 153 200 251 314 390 460
#     4  10  22  39  71  97 135 178 237 305 367 436
#     4  11  26  46  74 106 147 197 258 309 383 458
#     4  11  26  40  68  96 138 186 242 297 370 449
#
# _framework density 21.813991000000001
#
# number of rings (size 3 to 8) (size 9 to 14) (size 15 to 20)
#    0.000    1.600    0.000    1.800   14.000    4.000 
#    0.000    0.000    0.000    0.000    0.000    0.000 
#    0.000    0.000    0.000    0.000    0.000    0.000 
#
# Total GULP energy -111442.542110 kJ/mol
# GULP energy per Si atom -5572.127106 kJ/mol
# Density = 2.176434 g / cm^3
# Si number density = 21.813991 Si / 1000 Ang^3
#
#
#
# Elastic Constant Matrix: (Units=GPa)
#
#
# Indices 1 2 3 4 5 6 
#
# 1 59.1911 18.8862 37.5391 0.0000 -20.9291 0.0000
# 2 18.8862 133.1208 62.4540 0.0000 -12.1429 0.0000
# 3 37.5391 62.4540 126.1112 0.0000 -34.6153 0.0000
# 4 0.0000 0.0000 0.0000 770.3948 0.0000 -340.1480
# 5 -20.9291 -12.1429 -34.6153 0.0000 30.0971 0.0000
# 6 0.0000 0.0000 0.0000 -340.1480 0.0000 191.2413
#
#
#
# Elastic Compliance Matrix: (Units=1/GPa)
#
#
# Indices 1 2 3 4 5 6 
#
# 1 0.023555 -0.000671 -0.003299 0.000000 0.012315 0.000000
# 2 -0.000671 0.009922 -0.005470 0.000000 -0.002755 0.000000
# 3 -0.003299 -0.005470 0.015176 0.000000 0.012953 0.000000
# 4 0.000000 0.000000 0.000000 0.006046 0.000000 0.010754
# 5 0.012315 -0.002755 0.012953 0.000000 0.055575 0.000000
# 6 0.000000 0.000000 0.000000 0.010754 0.000000 0.024356
#
#
# Mechanical properties :
#
#
# Convention : Reuss Voigt Hill
#
# Bulk Modulus (GPa) = 33.58741 61.79796 47.69269
# Shear Modulus (GPa) = 30.59312 211.64956 121.12134
#
# Velocity S-wave (km/s) = 3.74900 9.86080 7.45957
# Velocity P-wave (km/s) = 5.84556 12.57132 9.80328
#
# Compressibility (1/GPa) = 0.02977306
#
# Stress axis : x y z
#
# Youngs Moduli (GPa) = 42.45352 100.78377 65.89371
#
# Poissons Ratio (x) = 0.06759 0.21740
# Poissons Ratio (y) = 0.02847 0.36045
# Poissons Ratio (z) = 0.14007 0.55131
#
# Static dielectric constant tensor:
#      x y z
#    x 0.315890 0.000000 1.249480 
#    y 0.000000 2.385270 0.000000 
#    z 1.249480 0.000000 0.785770 
# 
# From -- ./inp_files/96026.got.cif
#   From: 2010.05.17/outbox.cif.g08.bks.cpg/sg15_49_cif.got.tgz:96026.got - 2010.06.03 18:47:42.
