data_PCOD9289533
_publ_section_title
;
Structure prediction by ZEFSAII (Michael W. Deem and Ramdas Pophale) SiO2 
 PCOD9289533
Probable space group: C 2/C
;
_chemical_formula_sum "Si O2"
_cell_formula_units_Z 40
_cell_length_a 10.553841
_cell_length_b 8.109351
_cell_length_c 21.672078
_cell_angle_alpha 90.000000
_cell_angle_beta 59.794800
_cell_angle_gamma 90.000000
_cell_volume 1602.972638
_symmetry_space_group_name_H-M "C 2/C"
_symmetry_group_IT_number 15
_symmetry_cell_setting 'monoclinic'
loop_
_space_group_symop_operation_xyz
x,y,z
-x,y,1/2-z
-x,-y,-z
x,-y,1/2+z
1/2+x,1/2+y,z
1/2-x,1/2+y,1/2-z
1/2-x,1/2-y,-z
1/2+x,1/2-y,1/2+z
loop_
_atom_site_type_symbol
_atom_site_label
_atom_site_fract_x
_atom_site_fract_y
_atom_site_fract_z
Si Si1 0.584765 0.190266 0.049594
Si Si2 0.170758 0.001332 0.207392
Si Si3 0.949776 0.361838 0.083542
Si Si4 0.330620 0.896739 0.294691
Si Si5 0.440056 0.493073 0.584540
O O1 0.503925 0.343816 0.100679
O O2 0.546337 0.011305 0.085417
O O3 0.750000 0.250000 0.000000
O O4 0.519722 0.167908 0.996137
O O5 0.177815 0.198800 0.196483
O O6 0.000000 0.952827 0.250000
O O7 0.279768 0.912904 0.132302
O O8 0.249339 0.953018 0.252138
O O9 0.979095 0.182108 0.105501
O O10 0.500000 0.944502 0.250000
O O11 0.233746 0.986176 0.370347
O O12 0.500000 0.500000 0.500000
#
# Coordination Sequence:
#
# PCOD9289533 Si02
#       5
#     8   8   8   8   8
#     4  10  22  40  65  95 136 175 225 284 345 420
#     4  11  25  43  71 102 142 185 236 295 356 426
#     4  10  22  41  63  96 133 177 227 283 349 408
#     4  11  25  46  70 102 144 188 239 292 358 433
#     4  10  22  42  67  99 135 179 235 286 352 417
#
# _framework density 24.953638000000002
#
# number of rings (size 3 to 8) (size 9 to 14) (size 15 to 20)
#    0.000    1.600    2.000    1.200    2.800    7.200 
#    0.000    0.000    0.000    0.000    0.000    0.000 
#    0.000    0.000    0.000    0.000    0.000    0.000 
#
# Total GULP energy -111835.991902 kJ/mol
# GULP energy per Si atom -5591.799595 kJ/mol
# Density = 2.489684 g / cm^3
# Si number density = 24.953638 Si / 1000 Ang^3
#
#
#
# Elastic Constant Matrix: (Units=GPa)
#
#
# Indices 1 2 3 4 5 6 
#
# 1 123.8899 54.4413 30.6225 0.0000 -27.7078 0.0000
# 2 54.4413 240.3897 41.3782 0.0000 -42.1381 0.0000
# 3 30.6225 41.3782 125.1810 0.0000 -30.7450 0.0000
# 4 0.0000 0.0000 0.0000 38.5518 0.0000 -16.3268
# 5 -27.7078 -42.1381 -30.7450 0.0000 47.3797 0.0000
# 6 0.0000 0.0000 0.0000 -16.3268 0.0000 11.7606
#
#
#
# Elastic Compliance Matrix: (Units=1/GPa)
#
#
# Indices 1 2 3 4 5 6 
#
# 1 0.009781 -0.001368 -0.000993 0.000000 0.003859 0.000000
# 2 -0.001368 0.005165 -0.000525 0.000000 0.003454 0.000000
# 3 -0.000993 -0.000525 0.009692 0.000000 0.005242 0.000000
# 4 0.000000 0.000000 0.000000 0.062949 0.000000 0.087390
# 5 0.003859 0.003454 0.005242 0.000000 0.029836 0.000000
# 6 0.000000 0.000000 0.000000 0.087390 0.000000 0.206351
#
#
# Mechanical properties :
#
#
# Convention : Reuss Voigt Hill
#
# Bulk Modulus (GPa) = 52.99789 82.48274 67.74032
# Shear Modulus (GPa) = 14.88828 43.73965 29.31396
#
# Velocity S-wave (km/s) = 2.44527 4.19123 3.43116
# Velocity P-wave (km/s) = 5.40898 7.51984 6.55000
#
# Compressibility (1/GPa) = 0.01886867
#
# Stress axis : x y z
#
# Youngs Moduli (GPa) = 102.23617 193.59742 103.17586
#
# Poissons Ratio (x) = 0.26480 0.10243
# Poissons Ratio (y) = 0.13983 0.05412
# Poissons Ratio (z) = 0.10149 0.10156
#
# Static dielectric constant tensor:
#      x y z
#    x 1.983170 0.000000 0.036020 
#    y 0.000000 2.076910 0.000000 
#    z 0.036020 0.000000 2.046660 
# 
# From -- ./inp_files/235766.got.cif
#   From: 2010.05.17/outbox.cif.g08.bks.cpg/sg15_118_cif.got.tgz:235766.got - 2010.06.03 18:47:42.
