data_PCOD9289775
_publ_section_title
;
Structure prediction by ZEFSAII (Michael W. Deem and Ramdas Pophale) SiO2 
 PCOD9289775
Probable space group: C 2/C
;
_chemical_formula_sum "Si O2"
_cell_formula_units_Z 40
_cell_length_a 15.870146
_cell_length_b 8.295839
_cell_length_c 12.537519
_cell_angle_alpha 90.000000
_cell_angle_beta 101.645403
_cell_angle_gamma 90.000000
_cell_volume 1616.664341
_symmetry_space_group_name_H-M "C 2/C"
_symmetry_group_IT_number 15
_symmetry_cell_setting 'monoclinic'
loop_
_space_group_symop_operation_xyz
x,y,z
-x,y,1/2-z
-x,-y,-z
x,-y,1/2+z
1/2+x,1/2+y,z
1/2-x,1/2+y,1/2-z
1/2-x,1/2-y,-z
1/2+x,1/2-y,1/2+z
loop_
_atom_site_type_symbol
_atom_site_label
_atom_site_fract_x
_atom_site_fract_y
_atom_site_fract_z
Si Si1 0.556828 0.347444 0.977294
Si Si2 0.922735 0.303729 0.798768
Si Si3 0.746531 0.506649 0.508573
Si Si4 0.260741 0.216323 0.826453
Si Si5 0.892037 0.655565 0.689426
O O1 0.537927 0.254428 0.861418
O O2 0.500000 0.500000 0.000000
O O3 0.553072 0.218456 0.072295
O O4 0.652606 0.417470 0.986686
O O5 0.831481 0.217986 0.754868
O O6 0.914364 0.485046 0.750967
O O7 0.000000 0.225877 0.750000
O O8 0.740857 0.354713 0.586157
O O9 0.770714 0.448210 0.396112
O O10 0.821467 0.609999 0.580353
O O11 0.337181 0.247866 0.764263
#
# Coordination Sequence:
#
# PCOD9289775 Si02
#       5
#     8   8   8   8   8
#     4  12  26  43  72 108 147 186 246 310 365 433
#     4  11  25  44  66 102 147 190 240 299 374 438
#     4  10  22  40  68 101 139 185 245 293 353 432
#     4  10  22  41  67 101 139 188 238 299 357 426
#     4  11  24  42  72  97 143 194 242 300 359 440
#
# _framework density 24.742303
#
# number of rings (size 3 to 8) (size 9 to 14) (size 15 to 20)
#    0.000    1.200    2.000    3.000    5.600    4.000 
#    0.000    0.000    0.000    0.000    0.000    0.000 
#    0.000    0.000    0.000    0.000    0.000    0.000 
#
# Total GULP energy -111966.971558 kJ/mol
# GULP energy per Si atom -5598.348578 kJ/mol
# Density = 2.468599 g / cm^3
# Si number density = 24.742303 Si / 1000 Ang^3
#
#
#
# Elastic Constant Matrix: (Units=GPa)
#
#
# Indices 1 2 3 4 5 6 
#
# 1 102.3336 33.5869 46.8388 0.0000 -26.7253 0.0000
# 2 33.5869 75.7631 48.0677 0.0000 -4.1189 0.0000
# 3 46.8388 48.0677 181.8175 0.0000 -34.7086 0.0000
# 4 0.0000 0.0000 0.0000 33.7702 0.0000 -13.9837
# 5 -26.7253 -4.1189 -34.7086 0.0000 41.0208 0.0000
# 6 0.0000 0.0000 0.0000 -13.9837 0.0000 24.4239
#
#
#
# Elastic Compliance Matrix: (Units=1/GPa)
#
#
# Indices 1 2 3 4 5 6 
#
# 1 0.013895 -0.005311 -0.000655 0.000000 0.007965 0.000000
# 2 -0.005311 0.018079 -0.004443 0.000000 -0.005404 0.000000
# 3 -0.000655 -0.004443 0.007963 0.000000 0.005865 0.000000
# 4 0.000000 0.000000 0.000000 0.038814 0.000000 0.022223
# 5 0.007965 -0.005404 0.005865 0.000000 0.033987 0.000000
# 6 0.000000 0.000000 0.000000 0.022223 0.000000 0.053667
#
#
# Mechanical properties :
#
#
# Convention : Reuss Voigt Hill
#
# Bulk Modulus (GPa) = 52.30565 68.54455 60.42510
# Shear Modulus (GPa) = 25.82702 35.27104 30.54903
#
# Velocity S-wave (km/s) = 3.23436 3.77972 3.51763
# Velocity P-wave (km/s) = 5.92741 6.84192 6.40102
#
# Compressibility (1/GPa) = 0.01911839
#
# Stress axis : x y z
#
# Youngs Moduli (GPa) = 71.96748 55.31385 125.58280
#
# Poissons Ratio (x) = 0.29380 0.08223
# Poissons Ratio (y) = 0.38225 0.55795
# Poissons Ratio (z) = 0.04713 0.24575
#
# Static dielectric constant tensor:
#      x y z
#    x 2.008310 0.000000 0.036170 
#    y 0.000000 2.009840 0.000000 
#    z 0.036170 0.000000 1.943730 
# 
# From -- ./inp_files/102780.got.cif
#   From: 2010.05.17/outbox.cif.g08.bks.cpg/sg15_52_cif.got.tgz:102780.got - 2010.06.03 18:47:42.
