data_PCOD9289448
_publ_section_title
;
Structure prediction by ZEFSAII (Michael W. Deem and Ramdas Pophale) SiO2 
 PCOD9289448
Probable space group: C 2/C
;
_chemical_formula_sum "Si O2"
_cell_formula_units_Z 48
_cell_length_a 8.279588
_cell_length_b 24.474552
_cell_length_c 14.905861
_cell_angle_alpha 90.000000
_cell_angle_beta 137.995946
_cell_angle_gamma 90.000000
_cell_volume 2021.275747
_symmetry_space_group_name_H-M "C 2/C"
_symmetry_group_IT_number 15
_symmetry_cell_setting 'monoclinic'
loop_
_space_group_symop_operation_xyz
x,y,z
-x,y,1/2-z
-x,-y,-z
x,-y,1/2+z
1/2+x,1/2+y,z
1/2-x,1/2+y,1/2-z
1/2-x,1/2-y,-z
1/2+x,1/2-y,1/2+z
loop_
_atom_site_type_symbol
_atom_site_label
_atom_site_fract_x
_atom_site_fract_y
_atom_site_fract_z
Si Si1 0.962084 0.392796 0.838366
Si Si2 0.606286 0.652610 0.609272
Si Si3 0.000000 0.746634 0.750000
Si Si4 0.500000 0.298551 0.250000
Si Si5 0.313963 0.009684 0.003355
Si Si6 0.500000 0.555378 0.250000
Si Si7 0.000000 0.559222 0.750000
Si Si8 0.685637 0.299514 0.663858
O O1 0.724517 0.411203 0.799032
O O2 0.912334 0.328215 0.808177
O O3 0.000000 0.410784 0.750000
O O4 0.178775 0.425847 0.974573
O O5 0.497956 0.665169 0.661148
O O6 0.420160 0.657447 0.450328
O O7 0.774342 0.706142 0.661751
O O8 0.775808 0.599614 0.679068
O O9 0.993423 0.784313 0.660071
O O10 0.727309 0.257217 0.342368
O O11 0.413934 0.977273 0.130762
O O12 0.075803 0.982779 0.865181
O O13 0.500000 0.000000 0.000000
#
# Coordination Sequence:
#
# PCOD9289448 Si02
#       8
#     8   8   4   4   8   4   4   8
#     4  11  22  41  65 101 131 174 225 272 334 401
#     4  10  22  40  64  96 125 175 218 266 333 391
#     4   9  21  38  68  92 126 172 224 273 323 394
#     4  10  22  41  55  92 134 167 215 268 320 398
#     4  10  23  46  67  99 132 173 222 282 327 404
#     4  10  23  44  68  94 134 180 228 274 343 396
#     4  11  22  45  69  94 132 167 223 277 324 402
#     4  11  20  39  62  95 130 173 215 272 329 395
#
# _framework density 23.747378000000001
#
# number of rings (size 3 to 8) (size 9 to 14) (size 15 to 20)
#    0.000    1.667    1.667    2.500    0.000    2.000 
#   12.000    4.167    0.000    0.000    0.000    0.000 
#    0.000    0.000    0.000    0.000    0.000    0.000 
#
# Total GULP energy -134023.737465 kJ/mol
# GULP energy per Si atom -5584.322394 kJ/mol
# Density = 2.369333 g / cm^3
# Si number density = 23.747378 Si / 1000 Ang^3
#
#
#
# Elastic Constant Matrix: (Units=GPa)
#
#
# Indices 1 2 3 4 5 6 
#
# 1 126.3562 49.9139 34.7322 0.0000 -29.3958 0.0000
# 2 49.9139 132.1425 56.4890 0.0000 -16.6355 0.0000
# 3 34.7322 56.4890 113.5784 0.0000 -18.3127 0.0000
# 4 0.0000 0.0000 0.0000 -55.7196 0.0000 -70.8672
# 5 -29.3958 -16.6355 -18.3127 0.0000 35.9978 0.0000
# 6 0.0000 0.0000 0.0000 -70.8672 0.0000 -24.0159
#
#
#
# Elastic Compliance Matrix: (Units=1/GPa)
#
#
# Indices 1 2 3 4 5 6 
#
# 1 0.010946 -0.002911 -0.000735 0.000000 0.007219 0.000000
# 2 -0.002911 0.010546 -0.004306 0.000000 0.000306 0.000000
# 3 -0.000735 -0.004306 0.011714 0.000000 0.003369 0.000000
# 4 0.000000 0.000000 0.000000 0.006519 0.000000 -0.019236
# 5 0.007219 0.000306 0.003369 0.000000 0.035530 0.000000
# 6 0.000000 0.000000 0.000000 -0.019236 0.000000 0.015125
#
#
# Mechanical properties :
#
#
# Convention : Reuss Voigt Hill
#
# Bulk Modulus (GPa) = 57.79886 72.70526 65.25206
# Shear Modulus (GPa) = 44.62238 6.64858 25.63548
#
# Velocity S-wave (km/s) = 4.33950 1.67505 3.28915
# Velocity P-wave (km/s) = 7.03564 5.86717 6.47780
#
# Compressibility (1/GPa) = 0.01730138
#
# Stress axis : x y z
#
# Youngs Moduli (GPa) = 91.35987 94.81857 85.36794
#
# Poissons Ratio (x) = 0.27606 0.06277
# Poissons Ratio (y) = 0.26599 0.36757
# Poissons Ratio (z) = 0.06717 0.40826
#
# Static dielectric constant tensor:
#      x y z
#    x 1.899210 0.000000 0.038730 
#    y 0.000000 1.880930 0.000000 
#    z 0.038730 0.000000 1.959590 
# 
# From -- ./inp_files/139127.got.cif
#   From: 2010.05.17/outbox.cif.g08.bks.cpg/sg15_70_cif.got.tgz:139127.got - 2010.06.03 18:47:42.
