data_PCOD9289836
_publ_section_title
;
Structure prediction by ZEFSAII (Michael W. Deem and Ramdas Pophale) SiO2 
 PCOD9289836
Probable space group: C 2/C
;
_chemical_formula_sum "Si O2"
_cell_formula_units_Z 56
_cell_length_a 11.580456
_cell_length_b 13.947664
_cell_length_c 25.369716
_cell_angle_alpha 90.000000
_cell_angle_beta 41.941933
_cell_angle_gamma 90.000000
_cell_volume 2738.825195
_symmetry_space_group_name_H-M "C 2/C"
_symmetry_group_IT_number 15
_symmetry_cell_setting 'monoclinic'
loop_
_space_group_symop_operation_xyz
x,y,z
-x,y,1/2-z
-x,-y,-z
x,-y,1/2+z
1/2+x,1/2+y,z
1/2-x,1/2+y,1/2-z
1/2-x,1/2-y,-z
1/2+x,1/2-y,1/2+z
loop_
_atom_site_type_symbol
_atom_site_label
_atom_site_fract_x
_atom_site_fract_y
_atom_site_fract_z
Si Si1 0.919119 0.331494 0.560167
Si Si2 0.758804 0.140879 0.885820
Si Si3 0.452892 0.670357 0.630785
Si Si4 0.982761 0.815622 0.813118
Si Si5 0.169054 0.512451 0.725768
Si Si6 0.264687 0.975923 0.685034
Si Si7 0.265828 0.215443 0.290318
O O1 0.969045 0.233731 0.572985
O O2 0.719468 0.330414 0.609592
O O3 0.909895 0.410698 0.609175
O O4 0.058317 0.356749 0.469441
O O5 0.797860 0.229014 0.833523
O O6 0.869460 0.140540 0.901605
O O7 0.800008 0.048533 0.836895
O O8 0.333139 0.579355 0.657352
O O9 0.367505 0.736941 0.706190
O O10 0.000000 0.762857 0.750000
O O11 0.108116 0.908080 0.758967
O O12 0.070372 0.772558 0.834981
O O13 0.153228 0.530132 0.793713
O O14 0.196869 0.397091 0.712614
O O15 0.000000 0.536643 0.750000
#
# Coordination Sequence:
#
# PCOD9289836 Si02
#       7
#     8   8   8   8   8   8   8
#     4  11  24  42  65  96 135 168 207 278 325 377
#     4  12  26  40  64 101 132 165 218 264 332 381
#     4  12  24  40  69  92 127 178 215 258 322 390
#     4   9  19  38  68  87 127 161 215 257 317 363
#     4  11  24  40  66  98 124 161 225 268 310 374
#     4  10  22  40  68  97 123 165 218 273 310 378
#     4  11  23  41  67  95 127 170 219 272 306 387
#
# _framework density 20.446724
#
# number of rings (size 3 to 8) (size 9 to 14) (size 15 to 20)
#    0.000    1.143    5.714    2.143   12.000    0.571 
#    0.000    0.714    0.000    0.000    0.000    0.000 
#    0.000    0.000    0.000    0.000    0.000    0.000 
#
# Total GULP energy -156196.831135 kJ/mol
# GULP energy per Si atom -5578.458255 kJ/mol
# Density = 2.040019 g / cm^3
# Si number density = 20.446724 Si / 1000 Ang^3
#
#
#
# Elastic Constant Matrix: (Units=GPa)
#
#
# Indices 1 2 3 4 5 6 
#
# 1 116.7716 4.6671 9.7205 0.0000 -17.3140 0.0000
# 2 4.6671 94.8639 7.7752 0.0000 -3.9458 0.0000
# 3 9.7205 7.7752 67.2768 0.0000 -16.0244 0.0000
# 4 0.0000 0.0000 0.0000 13.9473 0.0000 -0.9498
# 5 -17.3140 -3.9458 -16.0244 0.0000 21.0107 0.0000
# 6 0.0000 0.0000 0.0000 -0.9498 0.0000 1.7305
#
#
#
# Elastic Compliance Matrix: (Units=1/GPa)
#
#
# Indices 1 2 3 4 5 6 
#
# 1 0.009780 -0.000179 0.000634 0.000000 0.008509 0.000000
# 2 -0.000179 0.010674 -0.000935 0.000000 0.001144 0.000000
# 3 0.000634 -0.000935 0.018285 0.000000 0.014292 0.000000
# 4 0.000000 0.000000 0.000000 0.074482 0.000000 0.040878
# 5 0.008509 0.001144 0.014292 0.000000 0.065722 -0.000001
# 6 0.000000 0.000000 0.000000 0.040878 -0.000001 0.600291
#
#
# Mechanical properties :
#
#
# Convention : Reuss Voigt Hill
#
# Bulk Modulus (GPa) = 26.46996 35.91532 31.19264
# Shear Modulus (GPa) = 6.30686 24.45434 15.38060
#
# Velocity S-wave (km/s) = 1.75819 3.46208 2.74565
# Velocity P-wave (km/s) = 4.13468 5.79524 5.03390
#
# Compressibility (1/GPa) = 0.03777867
#
# Stress axis : x y z
#
# Youngs Moduli (GPa) = 102.25193 93.68148 54.69070
#
# Poissons Ratio (x) = 0.01679 -0.03470
# Poissons Ratio (y) = 0.01832 0.05116
# Poissons Ratio (z) = -0.06488 0.08763
#
# Static dielectric constant tensor:
#      x y z
#    x 1.777660 0.000000 -0.022750 
#    y 0.000000 1.812810 0.000000 
#    z -0.022750 0.000000 1.696840 
# 
# From -- ./inp_files/292846.got.cif
#   From: 2010.05.17/outbox.cif.g08.bks.cpg/sg15_147_cif.got.tgz:292846.got - 2010.06.03 18:47:42.
