data_PCOD9289551
_publ_section_title
;
Structure prediction by ZEFSAII (Michael W. Deem and Ramdas Pophale) SiO2 
 PCOD9289551
Probable space group: C 2/C
;
_chemical_formula_sum "Si O2"
_cell_formula_units_Z 56
_cell_length_a 9.835593
_cell_length_b 11.241610
_cell_length_c 26.413410
_cell_angle_alpha 90.000000
_cell_angle_beta 66.130121
_cell_angle_gamma 90.000000
_cell_volume 2670.677742
_symmetry_space_group_name_H-M "C 2/C"
_symmetry_group_IT_number 15
_symmetry_cell_setting 'monoclinic'
loop_
_space_group_symop_operation_xyz
x,y,z
-x,y,1/2-z
-x,-y,-z
x,-y,1/2+z
1/2+x,1/2+y,z
1/2-x,1/2+y,1/2-z
1/2-x,1/2-y,-z
1/2+x,1/2-y,1/2+z
loop_
_atom_site_type_symbol
_atom_site_label
_atom_site_fract_x
_atom_site_fract_y
_atom_site_fract_z
Si Si1 0.200407 0.624645 0.484666
Si Si2 0.311864 0.034265 0.422057
Si Si3 0.959389 0.720770 0.090825
Si Si4 0.543534 0.367906 0.817570
Si Si5 0.745148 0.581761 0.195320
Si Si6 0.002211 0.592704 0.811038
Si Si7 0.517004 0.503316 0.422246
O O1 0.250000 0.750000 0.500000
O O2 0.129529 0.549173 0.541012
O O3 0.102219 0.658219 0.450980
O O4 0.349286 0.551493 0.448808
O O5 0.383475 0.162279 0.418996
O O6 0.372362 0.975587 0.361012
O O7 0.133469 0.037700 0.448763
O O8 0.845605 0.679524 0.151874
O O9 0.972317 0.861504 0.084039
O O10 0.401360 0.438473 0.816388
O O11 0.678884 0.372714 0.758037
O O12 0.495316 0.230642 0.827493
O O13 0.582951 0.427821 0.863860
O O14 0.847301 0.468183 0.190740
O O15 0.000000 0.583490 0.750000
#
# Coordination Sequence:
#
# PCOD9289551 Si02
#       7
#     8   8   8   8   8   8   8
#     4  12  24  46  71  99 134 182 225 279 337 402
#     4  11  25  43  69 102 133 175 227 278 336 401
#     4  11  25  46  67  97 142 173 225 281 334 404
#     4  11  22  39  67  96 130 175 219 273 335 391
#     4  10  22  40  65  97 125 174 220 266 334 398
#     4  11  22  42  69  93 132 175 217 275 339 397
#     4  12  25  44  70  99 134 181 224 276 337 403
#
# _framework density 20.96846
#
# number of rings (size 3 to 8) (size 9 to 14) (size 15 to 20)
#    0.000    0.857    4.286    3.429    2.000    1.714 
#    2.571    0.000    0.000    0.000    0.000    0.000 
#    0.000    0.000    0.000    0.000    0.000    0.000 
#
# Total GULP energy -156485.234939 kJ/mol
# GULP energy per Si atom -5588.758391 kJ/mol
# Density = 2.092074 g / cm^3
# Si number density = 20.968460 Si / 1000 Ang^3
#
#
#
# Elastic Constant Matrix: (Units=GPa)
#
#
# Indices 1 2 3 4 5 6 
#
# 1 89.3455 71.0609 23.5839 0.0000 0.2258 0.0000
# 2 71.0609 96.5678 31.3021 0.0000 13.7565 0.0000
# 3 23.5839 31.3021 87.8775 0.0000 13.0541 0.0000
# 4 0.0000 0.0000 0.0000 27.2175 0.0000 6.4939
# 5 0.2258 13.7565 13.0541 0.0000 24.4401 0.0000
# 6 0.0000 0.0000 0.0000 6.4939 0.0000 15.0955
#
#
#
# Elastic Compliance Matrix: (Units=1/GPa)
#
#
# Indices 1 2 3 4 5 6 
#
# 1 0.030822 -0.024130 -0.001794 0.000000 0.014255 0.000000
# 2 -0.024130 0.031126 -0.002218 0.000000 -0.016112 0.000000
# 3 -0.001794 -0.002218 0.013537 0.000000 -0.005966 0.000000
# 4 0.000000 0.000000 0.000000 0.040944 0.000000 -0.017614
# 5 0.014255 -0.016112 -0.005966 0.000000 0.053040 0.000000
# 6 0.000000 0.000000 0.000000 -0.017614 0.000000 0.073822
#
#
# Mechanical properties :
#
#
# Convention : Reuss Voigt Hill
#
# Bulk Modulus (GPa) = 52.08077 58.40940 55.24509
# Shear Modulus (GPa) = 16.34123 23.20688 19.77405
#
# Velocity S-wave (km/s) = 2.79467 3.33040 3.07422
# Velocity P-wave (km/s) = 5.94181 6.53491 6.24541
#
# Compressibility (1/GPa) = 0.01920094
#
# Stress axis : x y z
#
# Youngs Moduli (GPa) = 32.44470 32.12767 73.87052
#
# Poissons Ratio (x) = 0.77523 0.13254
# Poissons Ratio (y) = 0.78288 0.16383
# Poissons Ratio (z) = 0.05821 0.07125
#
# Static dielectric constant tensor:
#      x y z
#    x 1.813810 0.000000 -0.017630 
#    y 0.000000 1.697220 0.000000 
#    z -0.017630 0.000000 1.810470 
# 
# From -- ./inp_files/287932.got.cif
#   From: 2010.05.17/outbox.cif.g08.bks.cpg/sg15_144_cif.got.tgz:287932.got - 2010.06.03 18:47:42.
