data_PCOD9289410
_publ_section_title
;
Structure prediction by ZEFSAII (Michael W. Deem and Ramdas Pophale) SiO2 
 PCOD9289410
Probable space group: C 2/C
;
_chemical_formula_sum "Si O2"
_cell_formula_units_Z 52
_cell_length_a 9.800816
_cell_length_b 25.226827
_cell_length_c 12.426357
_cell_angle_alpha 90.000000
_cell_angle_beta 64.697209
_cell_angle_gamma 90.000000
_cell_volume 2777.581284
_symmetry_space_group_name_H-M "C 2/C"
_symmetry_group_IT_number 15
_symmetry_cell_setting 'monoclinic'
loop_
_space_group_symop_operation_xyz
x,y,z
-x,y,1/2-z
-x,-y,-z
x,-y,1/2+z
1/2+x,1/2+y,z
1/2-x,1/2+y,1/2-z
1/2-x,1/2-y,-z
1/2+x,1/2-y,1/2+z
loop_
_atom_site_type_symbol
_atom_site_label
_atom_site_fract_x
_atom_site_fract_y
_atom_site_fract_z
Si Si1 0.870687 0.592004 0.942758
Si Si2 0.181057 0.956103 0.699070
Si Si3 0.213408 0.571713 0.776013
Si Si4 0.163555 0.709039 0.453810
Si Si5 0.143716 0.157183 0.283060
Si Si6 0.602551 0.282781 0.017763
Si Si7 0.000000 0.143724 0.750000
O O1 0.814959 0.584121 0.839885
O O2 0.050457 0.580786 0.887720
O O3 0.768157 0.557142 0.058229
O O4 0.847004 0.652843 0.984037
O O5 0.204685 0.902934 0.761784
O O6 0.000000 0.962213 0.750000
O O7 0.244441 0.010201 0.725082
O O8 0.352351 0.607431 0.773347
O O9 0.250000 0.750000 0.500000
O O10 0.244641 0.697373 0.313844
O O11 0.008049 0.736358 0.481164
O O12 0.115272 0.178159 0.411186
O O13 0.000000 0.156333 0.250000
O O14 0.539687 0.318187 0.136533
O O15 0.750000 0.250000 0.000000
#
# Coordination Sequence:
#
# PCOD9289410 Si02
#       7
#     8   8   8   8   8   8   4
#     4  10  24  41  66  93 131 168 224 265 322 400
#     4  10  22  41  66  95 125 169 222 267 327 389
#     4  11  23  43  63  97 129 172 212 277 331 382
#     4  11  21  40  65  91 121 171 216 259 317 390
#     4  10  22  40  64  93 122 168 221 261 314 398
#     4  12  25  42  62  95 134 166 212 275 333 382
#     4  12  26  40  64  98 134 168 218 272 336 380
#
# _framework density 18.721323999999999
#
# number of rings (size 3 to 8) (size 9 to 14) (size 15 to 20)
#    0.000    1.231    2.308    3.231    4.308    4.308 
#    0.000    6.154    0.000    0.000    0.000    0.000 
#    0.000    0.000    0.000    0.000    0.000    0.000 
#
# Total GULP energy -145166.106619 kJ/mol
# GULP energy per Si atom -5583.311793 kJ/mol
# Density = 1.867871 g / cm^3
# Si number density = 18.721324 Si / 1000 Ang^3
#
#
#
# Elastic Constant Matrix: (Units=GPa)
#
#
# Indices 1 2 3 4 5 6 
#
# 1 124.0747 40.0673 44.8392 0.0000 -9.0041 0.0000
# 2 40.0673 101.3267 60.5168 0.0000 11.6234 0.0000
# 3 44.8392 60.5168 152.5775 0.0000 5.2231 0.0000
# 4 0.0000 0.0000 0.0000 19.8496 0.0000 -12.9983
# 5 -9.0041 11.6234 5.2231 0.0000 29.3659 0.0000
# 6 0.0000 0.0000 0.0000 -12.9983 0.0000 34.8158
#
#
#
# Elastic Compliance Matrix: (Units=1/GPa)
#
#
# Indices 1 2 3 4 5 6 
#
# 1 0.010187 -0.003533 -0.001758 0.000000 0.004834 0.000000
# 2 -0.003533 0.014703 -0.004585 0.000000 -0.006087 0.000000
# 3 -0.001758 -0.004585 0.008900 0.000000 -0.000307 0.000000
# 4 0.000000 0.000000 0.000000 0.066681 0.000000 0.024895
# 5 0.004834 -0.006087 -0.000307 0.000000 0.037999 0.000000
# 6 0.000000 0.000000 0.000000 0.024895 0.000000 0.038017
#
#
# Mechanical properties :
#
#
# Convention : Reuss Voigt Hill
#
# Bulk Modulus (GPa) = 71.23640 74.31394 72.77517
# Shear Modulus (GPa) = 24.88590 32.30993 28.59791
#
# Velocity S-wave (km/s) = 3.64989 4.15882 3.91264
# Velocity P-wave (km/s) = 7.47635 7.92730 7.70512
#
# Compressibility (1/GPa) = 0.01403777
#
# Stress axis : x y z
#
# Youngs Moduli (GPa) = 98.16809 68.01519 112.36325
#
# Poissons Ratio (x) = 0.24028 0.19753
# Poissons Ratio (y) = 0.34680 0.51518
# Poissons Ratio (z) = 0.17257 0.31184
#
# Static dielectric constant tensor:
#      x y z
#    x 1.598680 0.000000 -0.011970 
#    y 0.000000 1.612840 0.000000 
#    z -0.011970 0.000000 1.865380 
# 
# From -- ./inp_files/81194.got.cif
#   From: 2010.05.17/outbox.cif.g08.bks.cpg/sg15_41_cif.got.tgz:81194.got - 2010.06.03 18:47:42.
