data_PCOD9289507
_publ_section_title
;
Structure prediction by ZEFSAII (Michael W. Deem and Ramdas Pophale) SiO2 
 PCOD9289507
Probable space group: C 2/C
;
_chemical_formula_sum "Si O2"
_cell_formula_units_Z 56
_cell_length_a 18.219789
_cell_length_b 18.839202
_cell_length_c 16.197007
_cell_angle_alpha 90.000000
_cell_angle_beta 28.756753
_cell_angle_gamma 90.000000
_cell_volume 2674.661583
_symmetry_space_group_name_H-M "C 2/C"
_symmetry_group_IT_number 15
_symmetry_cell_setting 'monoclinic'
loop_
_space_group_symop_operation_xyz
x,y,z
-x,y,1/2-z
-x,-y,-z
x,-y,1/2+z
1/2+x,1/2+y,z
1/2-x,1/2+y,1/2-z
1/2-x,1/2-y,-z
1/2+x,1/2-y,1/2+z
loop_
_atom_site_type_symbol
_atom_site_label
_atom_site_fract_x
_atom_site_fract_y
_atom_site_fract_z
Si Si1 0.382526 0.821901 0.099566
Si Si2 0.698006 0.467602 0.109721
Si Si3 0.121337 0.011542 0.010220
Si Si4 0.824438 0.515162 0.656222
Si Si5 0.020828 0.841941 0.824678
Si Si6 0.673599 0.783525 0.909698
Si Si7 0.342339 0.186502 0.451341
O O1 0.310415 0.899573 0.173441
O O2 0.275878 0.767385 0.252337
O O3 0.549116 0.824278 0.977432
O O4 0.386481 0.796509 0.001811
O O5 0.712662 0.508564 0.007590
O O6 0.526931 0.466749 0.316325
O O7 0.788506 0.503196 0.096608
O O8 0.750493 0.387330 0.042094
O O9 0.054687 0.090013 0.056977
O O10 0.216126 0.986272 0.836795
O O11 0.000000 0.500000 0.500000
O O12 0.198393 0.830034 0.670868
O O13 0.000000 0.859034 0.750000
O O14 0.926721 0.769950 0.935467
O O15 0.500000 0.174007 0.250000
O O16 0.250000 0.250000 0.500000
#
# Coordination Sequence:
#
# PCOD9289507 Si02
#       7
#     8   8   8   8   8   8   8
#     4  10  22  43  62  98 127 170 218 270 333 399
#     4  10  25  45  66  98 131 175 226 271 331 407
#     4  11  23  45  68  92 137 178 223 273 338 402
#     4  11  25  42  67  97 129 174 224 276 340 397
#     4  11  21  40  65  96 129 173 217 266 330 393
#     4  10  22  40  65  92 134 168 217 273 323 400
#     4  11  25  44  69  98 132 172 221 279 338 402
#
# _framework density 20.937228000000001
#
# number of rings (size 3 to 8) (size 9 to 14) (size 15 to 20)
#    0.000    1.429    2.857    1.714    8.000    0.000 
#    0.000    0.000    0.000    0.000    0.000    0.000 
#    0.000    0.000    0.000    0.000    0.000    0.000 
#
# Total GULP energy -156304.645757 kJ/mol
# GULP energy per Si atom -5582.308777 kJ/mol
# Density = 2.088957 g / cm^3
# Si number density = 20.937228 Si / 1000 Ang^3
#
#
#
# Elastic Constant Matrix: (Units=GPa)
#
#
# Indices 1 2 3 4 5 6 
#
# 1 105.8353 13.3638 25.3482 0.0010 -8.2455 -0.0040
# 2 13.3638 72.7492 19.8002 0.0001 -3.6928 -0.0045
# 3 25.3482 19.8002 89.4367 0.0021 -2.6932 -0.0065
# 4 0.0010 0.0001 0.0021 68.6353 -0.0003 19.0031
# 5 -8.2455 -3.6928 -2.6932 -0.0003 27.0419 0.0041
# 6 -0.0040 -0.0045 -0.0065 19.0031 0.0041 45.7224
#
#
#
# Elastic Compliance Matrix: (Units=1/GPa)
#
#
# Indices 1 2 3 4 5 6 
#
# 1 0.010430 -0.001057 -0.002639 0.000000 0.002773 0.000000
# 2 -0.001057 0.014811 -0.002937 0.000000 0.001408 0.000001
# 3 -0.002639 -0.002937 0.012581 -0.000001 0.000047 0.000002
# 4 0.000000 0.000000 -0.000001 0.016464 0.000001 -0.006843
# 5 0.002773 0.001408 0.000047 0.000001 0.038022 -0.000003
# 6 0.000000 0.000001 0.000002 -0.006843 -0.000003 0.024715
#
#
# Mechanical properties :
#
#
# Convention : Reuss Voigt Hill
#
# Bulk Modulus (GPa) = 40.72274 42.78285 41.75279
# Shear Modulus (GPa) = 36.10791 42.24721 39.17756
#
# Velocity S-wave (km/s) = 4.15731 4.49687 4.33042
# Velocity P-wave (km/s) = 6.52200 6.88772 6.70735
#
# Compressibility (1/GPa) = 0.02455631
#
# Stress axis : x y z
#
# Youngs Moduli (GPa) = 95.87609 67.51813 79.48779
#
# Poissons Ratio (x) = 0.07137 0.20974
# Poissons Ratio (y) = 0.10135 0.23345
# Poissons Ratio (z) = 0.25298 0.19830
#
# Static dielectric constant tensor:
#      x y z
#    x 1.812120 0.000000 -0.016730 
#    y 0.000000 1.823770 0.000000 
#    z -0.016730 0.000000 1.739230 
# 
# From -- ./inp_files/163753.got.cif
#   From: 2010.05.17/outbox.cif.g08.bks.cpg/sg15_82_cif.got.tgz:163753.got - 2010.06.03 18:47:42.
