data_PCOD9289882
_publ_section_title
;
Structure prediction by ZEFSAII (Michael W. Deem and Ramdas Pophale) SiO2 
 PCOD9289882
Probable space group: C 2/C
;
_chemical_formula_sum "Si O2"
_cell_formula_units_Z 48
_cell_length_a 17.941809
_cell_length_b 5.099311
_cell_length_c 23.208013
_cell_angle_alpha 90.000000
_cell_angle_beta 98.034687
_cell_angle_gamma 90.000000
_cell_volume 2102.477858
_symmetry_space_group_name_H-M "C 2/C"
_symmetry_group_IT_number 15
_symmetry_cell_setting 'monoclinic'
loop_
_space_group_symop_operation_xyz
x,y,z
-x,y,1/2-z
-x,-y,-z
x,-y,1/2+z
1/2+x,1/2+y,z
1/2-x,1/2+y,1/2-z
1/2-x,1/2-y,-z
1/2+x,1/2-y,1/2+z
loop_
_atom_site_type_symbol
_atom_site_label
_atom_site_fract_x
_atom_site_fract_y
_atom_site_fract_z
Si Si1 0.811737 0.442703 0.479412
Si Si2 0.164285 0.158518 0.421782
Si Si3 0.019672 0.093508 0.938174
Si Si4 0.652843 0.189442 0.215684
Si Si5 0.066903 0.604607 0.602835
Si Si6 0.831580 0.800580 0.711277
O O1 0.750000 0.250000 0.500000
O O2 0.849967 0.610721 0.533918
O O3 0.754277 0.627072 0.436846
O O4 0.870077 0.336842 0.439008
O O5 0.146601 0.174446 0.352671
O O6 0.108509 0.932150 0.437753
O O7 0.989523 0.384093 0.926787
O O8 0.977083 0.878135 0.892884
O O9 0.000000 0.000000 0.000000
O O10 0.740555 0.185086 0.206233
O O11 0.637929 0.478085 0.240764
O O12 0.605499 0.050225 0.160051
O O13 0.644776 0.987345 0.267065
#
# Coordination Sequence:
#
# PCOD9289882 Si02
#       6
#     8   8   8   8   8   8
#     4  11  25  40  71 100 137 171 231 292 336 405
#     4  11  25  43  64 106 131 176 228 285 342 398
#     4  12  26  44  68  98 144 182 217 272 354 423
#     4  10  22  42  66  97 128 178 224 279 341 387
#     4  12  25  46  68  99 138 184 225 275 346 420
#     4  10  22  40  69  95 131 170 229 286 329 399
#
# _framework density 22.830206
#
# number of rings (size 3 to 8) (size 9 to 14) (size 15 to 20)
#    0.000    1.000    3.333    2.500    7.000    1.333 
#    0.000    5.000    0.000    0.000    0.000    0.000 
#    0.000    0.000    0.000    0.000    0.000    0.000 
#
# Total GULP energy -134057.355023 kJ/mol
# GULP energy per Si atom -5585.723126 kJ/mol
# Density = 2.277824 g / cm^3
# Si number density = 22.830206 Si / 1000 Ang^3
#
#
#
# Elastic Constant Matrix: (Units=GPa)
#
#
# Indices 1 2 3 4 5 6 
#
# 1 90.4989 15.6830 17.6429 0.0000 3.5920 0.0000
# 2 15.6830 53.0930 -29.1918 0.0000 8.3979 0.0000
# 3 17.6429 -29.1918 79.7676 0.0000 -6.2392 0.0000
# 4 0.0000 0.0000 0.0000 19.2247 0.0000 8.4641
# 5 3.5920 8.3979 -6.2392 0.0000 31.8266 0.0000
# 6 0.0000 0.0000 0.0000 8.4641 0.0000 38.1015
#
#
#
# Elastic Compliance Matrix: (Units=1/GPa)
#
#
# Indices 1 2 3 4 5 6 
#
# 1 0.013345 -0.006854 -0.005521 0.000000 -0.000780 0.000000
# 2 -0.006854 0.027782 0.011344 0.000000 -0.004333 0.000000
# 3 -0.005521 0.011344 0.018000 0.000000 0.001158 0.000000
# 4 0.000000 0.000000 0.000000 0.057656 0.000000 -0.012808
# 5 -0.000780 -0.004333 0.001158 0.000000 0.032879 0.000000
# 6 0.000000 0.000000 0.000000 -0.012808 0.000000 0.029091
#
#
# Mechanical properties :
#
#
# Convention : Reuss Voigt Hill
#
# Bulk Modulus (GPa) = 17.52380 25.73643 21.63011
# Shear Modulus (GPa) = 25.02058 32.44559 28.73309
#
# Velocity S-wave (km/s) = 3.31409 3.77393 3.55146
# Velocity P-wave (km/s) = 4.72617 5.50341 5.12953
#
# Compressibility (1/GPa) = 0.05706524
#
# Stress axis : x y z
#
# Youngs Moduli (GPa) = 74.93488 35.99421 55.55647
#
# Poissons Ratio (x) = 0.24671 0.30673
# Poissons Ratio (y) = 0.51361 -0.63025
# Poissons Ratio (z) = 0.41371 -0.40833
#
# Static dielectric constant tensor:
#      x y z
#    x 1.882220 0.000000 0.083650 
#    y 0.000000 1.896000 0.000000 
#    z 0.083650 0.000000 1.887380 
# 
# From -- ./inp_files/275709.got.cif
#   From: 2010.05.17/outbox.cif.g08.bks.cpg/sg15_138_cif.got.tgz:275709.got - 2010.06.03 18:47:42.
