data_PCOD9289994
_publ_section_title
;
Structure prediction by ZEFSAII (Michael W. Deem and Ramdas Pophale) SiO2 
 PCOD9289994
Probable space group: C 2/C
;
_chemical_formula_sum "Si O2"
_cell_formula_units_Z 60
_cell_length_a 14.120111
_cell_length_b 10.449419
_cell_length_c 17.901431
_cell_angle_alpha 90.000000
_cell_angle_beta 74.198618
_cell_angle_gamma 90.000000
_cell_volume 2541.490631
_symmetry_space_group_name_H-M "C 2/C"
_symmetry_group_IT_number 15
_symmetry_cell_setting 'monoclinic'
loop_
_space_group_symop_operation_xyz
x,y,z
-x,y,1/2-z
-x,-y,-z
x,-y,1/2+z
1/2+x,1/2+y,z
1/2-x,1/2+y,1/2-z
1/2-x,1/2-y,-z
1/2+x,1/2-y,1/2+z
loop_
_atom_site_type_symbol
_atom_site_label
_atom_site_fract_x
_atom_site_fract_y
_atom_site_fract_z
Si Si1 0.918299 0.044203 0.577766
Si Si2 0.500000 0.076429 0.250000
Si Si3 0.902309 0.731765 0.818005
Si Si4 0.686505 0.087310 0.774517
Si Si5 0.627184 0.932409 0.443558
Si Si6 0.500583 0.175799 0.410437
Si Si7 0.405073 0.492205 0.744975
Si Si8 0.721434 0.889071 0.036820
O O1 0.808446 0.052475 0.567920
O O2 0.943485 0.190950 0.594664
O O3 0.920333 0.961722 0.653492
O O4 0.000000 0.000000 0.500000
O O5 0.470473 0.149000 0.332094
O O6 0.394995 0.009541 0.244368
O O7 0.809204 0.699533 0.786312
O O8 0.907363 0.883266 0.809381
O O9 0.880136 0.648028 0.896109
O O10 0.000000 0.693187 0.750000
O O11 0.649948 0.137107 0.861794
O O12 0.794580 0.039669 0.767827
O O13 0.561071 0.052061 0.427617
O O14 0.706776 0.012422 0.472936
O O15 0.586863 0.830320 0.511045
O O16 0.500000 0.574888 0.750000
O O17 0.750000 0.750000 0.000000
#
# Coordination Sequence:
#
# PCOD9289994 Si02
#       8
#     8   4   8   8   8   8   8   8
#     4  12  29  47  68 101 149 191 234 294 368 440
#     4  10  22  40  72 108 140 172 238 306 362 416
#     4  11  25  43  74  99 140 187 245 301 348 434
#     4  11  22  43  71 105 139 180 238 302 357 426
#     4  10  23  39  73 106 133 175 240 292 354 410
#     4  10  23  43  68 101 139 183 225 292 359 420
#     4  11  28  47  68 101 142 196 240 285 363 434
#     4  12  24  46  73 103 140 190 248 297 359 436
#
# _framework density 23.608193
#
# number of rings (size 3 to 8) (size 9 to 14) (size 15 to 20)
#    0.000    1.067    3.333    1.600   14.000    0.000 
#    0.000    0.667    0.000    0.000    0.000    0.000 
#    0.000    0.000    0.000    0.000    0.000    0.000 
#
# Total GULP energy -167096.835052 kJ/mol
# GULP energy per Si atom -5569.894502 kJ/mol
# Density = 2.355446 g / cm^3
# Si number density = 23.608193 Si / 1000 Ang^3
#
#
#
# Elastic Constant Matrix: (Units=GPa)
#
#
# Indices 1 2 3 4 5 6 
#
# 1 115.8372 11.1265 19.3238 0.0000 17.3344 0.0000
# 2 11.1265 34.1604 0.5857 0.0000 8.2837 0.0000
# 3 19.3238 0.5857 118.1275 0.0000 12.3781 0.0000
# 4 0.0000 0.0000 0.0000 23.3884 0.0000 -3.0806
# 5 17.3344 8.2837 12.3781 0.0000 46.4834 0.0000
# 6 0.0000 0.0000 0.0000 -3.0806 0.0000 18.7295
#
#
#
# Elastic Compliance Matrix: (Units=1/GPa)
#
#
# Indices 1 2 3 4 5 6 
#
# 1 0.009487 -0.002395 -0.001249 0.000000 -0.002778 0.000000
# 2 -0.002395 0.031222 0.000747 0.000000 -0.004870 0.000000
# 3 -0.001249 0.000747 0.008879 0.000000 -0.002032 0.000000
# 4 0.000000 0.000000 0.000000 0.043703 0.000000 0.007188
# 5 -0.002778 -0.004870 -0.002032 0.000000 0.023958 0.000000
# 6 0.000000 0.000000 0.000000 0.007188 0.000000 0.054574
#
#
# Mechanical properties :
#
#
# Convention : Reuss Voigt Hill
#
# Bulk Modulus (GPa) = 22.83379 36.68856 29.76117
# Shear Modulus (GPa) = 26.01268 33.52622 29.76945
#
# Velocity S-wave (km/s) = 3.32301 3.77252 3.55488
# Velocity P-wave (km/s) = 4.94127 5.87795 5.42984
#
# Compressibility (1/GPa) = 0.04379475
#
# Stress axis : x y z
#
# Youngs Moduli (GPa) = 105.40782 32.02887 112.62623
#
# Poissons Ratio (x) = 0.07670 0.14066
# Poissons Ratio (y) = 0.25244 -0.08416
# Poissons Ratio (z) = 0.13164 -0.02393
#
# Static dielectric constant tensor:
#      x y z
#    x 1.970440 0.000000 -0.084560 
#    y 0.000000 1.970740 0.000000 
#    z -0.084560 0.000000 2.031960 
# 
# From -- ./inp_files/204448.got.cif
#   From: 2010.05.17/outbox.cif.g08.bks.cpg/sg15_103_cif.got.tgz:204448.got - 2010.06.03 18:47:42.
